100.cdx
  Mrv1902 05222410192D          

 30 34  0  0  0  0            999 V2000
    3.9633   -7.7344    0.0000 C   0  0  0  0  0  0  0  0  0  0  0  0
    3.9633   -8.5594    0.0000 C   0  0  0  0  0  0  0  0  0  0  0  0
    4.6777   -8.9719    0.0000 C   0  0  0  0  0  0  0  0  0  0  0  0
    5.3922   -8.5594    0.0000 C   0  0  0  0  0  0  0  0  0  0  0  0
    5.3922   -7.7344    0.0000 C   0  0  2  0  0  0  0  0  0  0  0  0
    4.6777   -7.3219    0.0000 C   0  0  0  0  0  0  0  0  0  0  0  0
    6.1067   -8.9719    0.0000 C   0  0  0  0  0  0  0  0  0  0  0  0
    6.8212   -8.5594    0.0000 C   0  0  0  0  0  0  0  0  0  0  0  0
    6.8212   -7.7344    0.0000 C   0  0  2  0  0  0  0  0  0  0  0  0
    6.1067   -7.3219    0.0000 C   0  0  2  0  0  0  0  0  0  0  0  0
    7.5356   -7.3219    0.0000 C   0  0  2  0  0  0  0  0  0  0  0  0
    7.5356   -6.4969    0.0000 C   0  0  2  0  0  0  0  0  0  0  0  0
    6.8212   -6.0844    0.0000 C   0  0  0  0  0  0  0  0  0  0  0  0
    6.1067   -6.4969    0.0000 C   0  0  0  0  0  0  0  0  0  0  0  0
    8.3203   -7.5768    0.0000 C   0  0  0  0  0  0  0  0  0  0  0  0
    8.8052   -6.9094    0.0000 C   0  0  0  0  0  0  0  0  0  0  0  0
    8.3203   -6.2419    0.0000 C   0  0  2  0  0  0  0  0  0  0  0  0
    8.5752   -5.4573    0.0000 C   0  0  0  0  0  0  0  0  0  0  0  0
    7.6219   -5.6764    0.0000 C   0  0  0  0  0  0  0  0  0  0  0  0
    7.6219   -8.1424    0.0000 O   0  0  0  0  0  0  0  0  0  0  0  0
    5.3922   -6.9094    0.0000 C   0  0  0  0  0  0  0  0  0  0  0  0
    3.2488   -8.9719    0.0000 O   0  0  0  0  0  0  0  0  0  0  0  0
    9.3822   -5.2858    0.0000 C   0  0  0  0  0  0  0  0  0  0  0  0
    9.6371   -4.5012    0.0000 C   0  0  0  0  0  0  0  0  0  0  0  0
    9.0851   -3.8881    0.0000 C   0  0  0  0  0  0  0  0  0  0  0  0
    8.2781   -4.0596    0.0000 O   0  0  0  0  0  0  0  0  0  0  0  0
    8.0232   -4.8442    0.0000 C   0  0  0  0  0  0  0  0  0  0  0  0
    9.3400   -3.1034    0.0000 O   0  0  0  0  0  0  0  0  0  0  0  0
    6.1067   -8.1469    0.0000 H   0  0  0  0  0  0  0  0  0  0  0  0
    6.8212   -6.9094    0.0000 H   0  0  0  0  0  0  0  0  0  0  0  0
  1  2  1  0  0  0  0
  2  3  1  0  0  0  0
  3  4  2  0  0  0  0
  4  5  1  0  0  0  0
  5  6  1  0  0  0  0
  6  1  1  0  0  0  0
  4  7  1  0  0  0  0
  7  8  1  0  0  0  0
  8  9  1  0  0  0  0
  9 10  1  0  0  0  0
 10  5  1  0  0  0  0
  9 11  1  0  0  0  0
 11 12  1  0  0  0  0
 12 13  1  0  0  0  0
 13 14  1  0  0  0  0
 14 10  1  0  0  0  0
 11 15  1  0  0  0  0
 15 16  1  0  0  0  0
 16 17  1  0  0  0  0
 17 12  1  0  0  0  0
 17 18  1  1  0  0  0
 12 19  1  1  0  0  0
 11 20  1  1  0  0  0
  5 21  1  1  0  0  0
  2 22  2  0  0  0  0
 18 23  1  0  0  0  0
 23 24  2  0  0  0  0
 24 25  1  0  0  0  0
 25 26  1  0  0  0  0
 26 27  1  0  0  0  0
 27 18  2  0  0  0  0
 25 28  2  0  0  0  0
 10 29  1  6  0  0  0
  9 30  1  1  0  0  0
M  END
>  <cdx:fragmentId>
5

$$$$
