100056.cdx
  Mrv1902 05222410182D          

 36 41  0  0  0  0            999 V2000
    6.5606   -8.9857    0.0000 C   0  0  1  0  0  0  0  0  0  0  0  0
    6.4753   -8.2259    0.0000 C   0  0  1  0  0  0  0  0  0  0  0  0
    7.0281   -7.4395    0.0000 C   0  0  1  0  0  0  0  0  0  0  0  0
    7.3313   -9.4449    0.0000 C   0  0  0  0  0  0  0  0  0  0  0  0
    4.4259   -8.5957    0.0000 C   0  0  0  0  0  0  0  0  0  0  0  0
    3.9663   -9.2808    0.0000 C   0  0  0  0  0  0  0  0  0  0  0  0
    4.3298  -10.0214    0.0000 C   0  0  0  0  0  0  0  0  0  0  0  0
    5.1529  -10.0768    0.0000 C   0  0  0  0  0  0  0  0  0  0  0  0
    5.6125   -9.3917    0.0000 C   0  0  0  0  0  0  0  0  0  0  0  0
    5.2490   -8.6511    0.0000 C   0  0  0  0  0  0  0  0  0  0  0  0
    7.4370  -10.2631    0.0000 C   0  0  0  0  0  0  0  0  0  0  0  0
    8.1985  -10.5806    0.0000 C   0  0  0  0  0  0  0  0  0  0  0  0
    8.8542  -10.0799    0.0000 C   0  0  0  0  0  0  0  0  0  0  0  0
    8.7484   -9.2617    0.0000 C   0  0  0  0  0  0  0  0  0  0  0  0
    7.9869   -8.9442    0.0000 C   0  0  0  0  0  0  0  0  0  0  0  0
    7.7532   -8.3942    0.0000 C   0  0  2  0  0  0  0  0  0  0  0  0
    3.1431   -9.2253    0.0000 O   0  0  0  0  0  0  0  0  0  0  0  0
    5.5164  -10.8174    0.0000 O   0  0  0  0  0  0  0  0  0  0  0  0
    8.3042  -11.3988    0.0000 O   0  0  0  0  0  0  0  0  0  0  0  0
    9.4041   -8.7611    0.0000 O   0  0  0  0  0  0  0  0  0  0  0  0
    7.0281   -6.6145    0.0000 C   0  0  0  0  0  0  0  0  0  0  0  0
    8.2525   -7.7375    0.0000 C   0  0  0  0  0  0  0  0  0  0  0  0
    9.0709   -7.8414    0.0000 C   0  0  0  0  0  0  0  0  0  0  0  0
    9.5701   -7.1847    0.0000 C   0  0  0  0  0  0  0  0  0  0  0  0
    9.2510   -6.4239    0.0000 C   0  0  0  0  0  0  0  0  0  0  0  0
    8.4326   -6.3199    0.0000 C   0  0  0  0  0  0  0  0  0  0  0  0
    7.9333   -6.9767    0.0000 C   0  0  0  0  0  0  0  0  0  0  0  0
    7.7426   -6.2020    0.0000 C   0  0  0  0  0  0  0  0  0  0  0  0
    7.7426   -5.3770    0.0000 C   0  0  0  0  0  0  0  0  0  0  0  0
    7.0281   -4.9645    0.0000 C   0  0  0  0  0  0  0  0  0  0  0  0
    6.3136   -5.3770    0.0000 C   0  0  0  0  0  0  0  0  0  0  0  0
    6.3136   -6.2020    0.0000 C   0  0  0  0  0  0  0  0  0  0  0  0
    6.7904   -9.7932    0.0000 H   0  0  0  0  0  0  0  0  0  0  0  0
    6.2314   -7.4753    0.0000 H   0  0  0  0  0  0  0  0  0  0  0  0
    7.0281   -4.1395    0.0000 O   0  0  0  0  0  0  0  0  0  0  0  0
    9.7502   -5.7671    0.0000 O   0  0  0  0  0  0  0  0  0  0  0  0
  2  3  1  0  0  0  0
  1  4  1  0  0  0  0
  5  6  2  0  0  0  0
  6  7  1  0  0  0  0
  7  8  2  0  0  0  0
  8  9  1  0  0  0  0
  9 10  2  0  0  0  0
 10  5  1  0  0  0  0
  2 10  1  0  0  0  0
  1  9  1  0  0  0  0
  4 11  2  0  0  0  0
 11 12  1  0  0  0  0
 12 13  2  0  0  0  0
 13 14  1  0  0  0  0
 14 15  2  0  0  0  0
 15  4  1  0  0  0  0
 15 16  1  0  0  0  0
 16  2  1  0  0  0  0
  3  1  1  0  0  0  0
  6 17  1  0  0  0  0
  8 18  1  0  0  0  0
 12 19  1  0  0  0  0
 14 20  1  0  0  0  0
  3 21  1  1  0  0  0
 16 22  1  1  0  0  0
 22 23  2  0  0  0  0
 23 24  1  0  0  0  0
 24 25  2  0  0  0  0
 25 26  1  0  0  0  0
 26 27  2  0  0  0  0
 27 22  1  0  0  0  0
 21 28  2  0  0  0  0
 28 29  1  0  0  0  0
 29 30  2  0  0  0  0
 30 31  1  0  0  0  0
 31 32  2  0  0  0  0
 32 21  1  0  0  0  0
  1 33  1  6  0  0  0
  2 34  1  1  0  0  0
 30 35  1  0  0  0  0
 25 36  1  0  0  0  0
M  END
>  <cdx:fragmentId>
862

$$$$
