100072.cdx
  Mrv1902 05222410282D          

 21 23  0  0  0  0            999 V2000
    7.7348   -8.7596    0.0000 C   0  0  0  0  0  0  0  0  0  0  0  0
    7.7348   -7.9346    0.0000 C   0  0  0  0  0  0  0  0  0  0  0  0
    8.4493   -7.5221    0.0000 C   0  0  0  0  0  0  0  0  0  0  0  0
    9.1638   -7.9346    0.0000 C   0  0  0  0  0  0  0  0  0  0  0  0
    9.1638   -8.7596    0.0000 C   0  0  0  0  0  0  0  0  0  0  0  0
    8.4493   -9.1721    0.0000 C   0  0  0  0  0  0  0  0  0  0  0  0
    7.0204   -9.1721    0.0000 O   0  0  0  0  0  0  0  0  0  0  0  0
    9.8782   -7.5221    0.0000 O   0  0  0  0  0  0  0  0  0  0  0  0
    9.8782   -9.1721    0.0000 O   0  0  0  0  0  0  0  0  0  0  0  0
   10.5927   -8.7596    0.0000 C   0  0  0  0  0  0  0  0  0  0  0  0
    7.0204   -6.6971    0.0000 C   0  0  0  0  0  0  0  0  0  0  0  0
    7.0204   -7.5221    0.0000 C   0  0  1  0  0  0  0  0  0  0  0  0
    6.3059   -7.9346    0.0000 C   0  0  0  0  0  0  0  0  0  0  0  0
    5.5914   -7.5221    0.0000 C   0  0  0  0  0  0  0  0  0  0  0  0
    4.8769   -7.9346    0.0000 C   0  0  0  0  0  0  0  0  0  0  0  0
    4.1625   -7.5221    0.0000 C   0  0  0  0  0  0  0  0  0  0  0  0
    4.1625   -6.6971    0.0000 C   0  0  0  0  0  0  0  0  0  0  0  0
    4.8769   -6.2846    0.0000 C   0  0  0  0  0  0  0  0  0  0  0  0
    5.5914   -6.6971    0.0000 C   0  0  0  0  0  0  0  0  0  0  0  0
    6.3059   -6.2846    0.0000 O   0  0  0  0  0  0  0  0  0  0  0  0
    3.4480   -6.2846    0.0000 O   0  0  0  0  0  0  0  0  0  0  0  0
  1  2  1  0  0  0  0
  2  3  2  0  0  0  0
  3  4  1  0  0  0  0
  4  5  1  0  0  0  0
  5  6  2  0  0  0  0
  1  6  1  0  0  0  0
  1  7  2  0  0  0  0
  4  8  2  0  0  0  0
  9 10  1  0  0  0  0
  5  9  1  0  0  0  0
 11 12  1  0  0  0  0
 12 13  1  0  0  0  0
 13 14  1  0  0  0  0
 14 15  1  0  0  0  0
 15 16  2  0  0  0  0
 16 17  1  0  0  0  0
 17 18  2  0  0  0  0
 18 19  1  0  0  0  0
 14 19  2  0  0  0  0
 19 20  1  0  0  0  0
 11 20  1  0  0  0  0
 17 21  1  0  0  0  0
 12  2  1  6  0  0  0
M  END
>  <cdx:fragmentId>
25

$$$$
