100023.cdx
  Mrv1902 05222410212D          

 54 59  0  0  0  0            999 V2000
    7.5194  -10.0671    0.0000 C   0  0  0  0  0  0  0  0  0  0  0  0
    7.5194  -10.8921    0.0000 C   0  0  0  0  0  0  0  0  0  0  0  0
    8.2339  -11.3046    0.0000 C   0  0  0  0  0  0  0  0  0  0  0  0
    8.9484  -10.8921    0.0000 C   0  0  0  0  0  0  0  0  0  0  0  0
    8.9484  -10.0671    0.0000 C   0  0  0  0  0  0  0  0  0  0  0  0
    8.2339   -9.6546    0.0000 C   0  0  0  0  0  0  0  0  0  0  0  0
    9.6629  -11.3046    0.0000 C   0  0  0  0  0  0  0  0  0  0  0  0
   10.3773  -10.8921    0.0000 C   0  0  0  0  0  0  0  0  0  0  0  0
   10.3773  -10.0671    0.0000 C   0  0  0  0  0  0  0  0  0  0  0  0
    9.6629   -9.6546    0.0000 O   0  0  0  0  0  0  0  0  0  0  0  0
   11.0918   -9.6546    0.0000 C   0  0  0  0  0  0  0  0  0  0  0  0
   11.0918   -8.8296    0.0000 C   0  0  0  0  0  0  0  0  0  0  0  0
   11.8063  -10.0671    0.0000 C   0  0  0  0  0  0  0  0  0  0  0  0
   12.5207   -9.6546    0.0000 C   0  0  0  0  0  0  0  0  0  0  0  0
   12.5207   -8.8296    0.0000 C   0  0  0  0  0  0  0  0  0  0  0  0
   11.8063   -8.4171    0.0000 C   0  0  0  0  0  0  0  0  0  0  0  0
   13.2352   -8.4171    0.0000 O   0  0  0  0  0  0  0  0  0  0  0  0
    9.6629  -12.1296    0.0000 O   0  0  0  0  0  0  0  0  0  0  0  0
    8.2339  -12.1296    0.0000 O   0  0  0  0  0  0  0  0  0  0  0  0
    6.8050   -9.6546    0.0000 O   0  0  0  0  0  0  0  0  0  0  0  0
    7.5030   -7.5680    0.0000 C   0  0  2  0  0  0  0  0  0  0  0  0
    6.7866   -7.1588    0.0000 C   0  0  2  0  0  0  0  0  0  0  0  0
    6.0740   -7.5746    0.0000 C   0  0  1  0  0  0  0  0  0  0  0  0
    6.0778   -8.3996    0.0000 C   0  0  2  0  0  0  0  0  0  0  0  0
    6.7941   -8.8088    0.0000 C   0  0  1  0  0  0  0  0  0  0  0  0
    7.5067   -8.3930    0.0000 O   0  0  0  0  0  0  0  0  0  0  0  0
    8.2155   -7.1523    0.0000 C   0  0  0  0  0  0  0  0  0  0  0  0
    8.2118   -6.3273    0.0000 O   0  0  0  0  0  0  0  0  0  0  0  0
    6.7828   -6.3338    0.0000 O   0  0  0  0  0  0  0  0  0  0  0  0
    8.9243   -5.9115    0.0000 C   0  0  1  0  0  0  0  0  0  0  0  0
    8.9206   -5.0865    0.0000 C   0  0  2  0  0  0  0  0  0  0  0  0
    8.2042   -4.6773    0.0000 O   0  0  0  0  0  0  0  0  0  0  0  0
    9.6407   -6.3207    0.0000 O   0  0  0  0  0  0  0  0  0  0  0  0
   10.3533   -5.9050    0.0000 C   0  0  2  0  0  0  0  0  0  0  0  0
   10.3495   -5.0800    0.0000 C   0  0  1  0  0  0  0  0  0  0  0  0
    9.6331   -4.6708    0.0000 C   0  0  1  0  0  0  0  0  0  0  0  0
    5.3577   -7.1653    0.0000 O   0  0  0  0  0  0  0  0  0  0  0  0
    4.6451   -7.5811    0.0000 O   0  0  0  0  0  0  0  0  0  0  0  0
    4.6489   -8.4061    0.0000 C   0  0  1  0  0  0  0  0  0  0  0  0
    5.3652   -8.8153    0.0000 O   0  0  0  0  0  0  0  0  0  0  0  0
    3.9287   -7.1719    0.0000 C   0  0  1  0  0  0  0  0  0  0  0  0
    3.2162   -7.5876    0.0000 C   0  0  2  0  0  0  0  0  0  0  0  0
    3.2199   -8.4126    0.0000 C   0  0  1  0  0  0  0  0  0  0  0  0
    3.9363   -8.8219    0.0000 C   0  0  1  0  0  0  0  0  0  0  0  0
   11.0621   -4.6642    0.0000 O   0  0  0  0  0  0  0  0  0  0  0  0
    3.9250   -6.3469    0.0000 C   0  0  0  0  0  0  0  0  0  0  0  0
    2.5074   -8.8284    0.0000 O   0  0  0  0  0  0  0  0  0  0  0  0
    2.4998   -7.1784    0.0000 O   0  0  0  0  0  0  0  0  0  0  0  0
    3.9401   -9.6469    0.0000 O   0  0  0  0  0  0  0  0  0  0  0  0
   11.0696   -6.3142    0.0000 C   0  0  0  0  0  0  0  0  0  0  0  0
    9.6294   -3.8458    0.0000 O   0  0  0  0  0  0  0  0  0  0  0  0
    4.6376   -5.9311    0.0000 O   0  0  0  0  0  0  0  0  0  0  0  0
   11.8063   -7.5921    0.0000 O   0  0  0  0  0  0  0  0  0  0  0  0
   13.9497   -8.8296    0.0000 C   0  0  0  0  0  0  0  0  0  0  0  0
  1  2  2  0  0  0  0
  2  3  1  0  0  0  0
  3  4  2  0  0  0  0
  4  5  1  0  0  0  0
  5  6  2  0  0  0  0
  6  1  1  0  0  0  0
  4  7  1  0  0  0  0
  7  8  1  0  0  0  0
  8  9  2  0  0  0  0
  9 10  1  0  0  0  0
 10  5  1  0  0  0  0
  9 11  1  6  0  0  0
 11 12  1  0  0  0  0
 11 13  2  0  0  0  0
 13 14  1  0  0  0  0
 14 15  2  0  0  0  0
 15 16  1  0  0  0  0
 16 12  2  0  0  0  0
 15 17  1  0  0  0  0
  7 18  2  0  0  0  0
  3 19  1  0  0  0  0
  1 20  1  0  0  0  0
 21 22  1  0  0  0  0
 22 23  1  0  0  0  0
 23 24  1  0  0  0  0
 24 25  1  0  0  0  0
 25 26  1  0  0  0  0
 26 21  1  0  0  0  0
 21 27  1  1  0  0  0
 27 28  1  0  0  0  0
 22 29  1  6  0  0  0
 30 28  1  1  0  0  0
 30 31  1  0  0  0  0
 31 32  1  6  0  0  0
 30 33  1  0  0  0  0
 33 34  1  0  0  0  0
 34 35  1  0  0  0  0
 35 36  1  0  0  0  0
 36 31  1  0  0  0  0
 23 37  1  1  0  0  0
 38 39  1  0  0  0  0
 39 40  1  1  0  0  0
 24 40  1  6  0  0  0
 38 41  1  0  0  0  0
 41 42  1  0  0  0  0
 42 43  1  0  0  0  0
 43 44  1  0  0  0  0
 44 39  1  0  0  0  0
 35 45  1  1  0  0  0
 41 46  1  1  0  0  0
 43 47  1  1  0  0  0
 42 48  1  6  0  0  0
 44 49  1  6  0  0  0
 34 50  1  6  0  0  0
 36 51  1  6  0  0  0
 46 52  1  0  0  0  0
 25 20  1  1  0  0  0
 16 53  1  0  0  0  0
 17 54  1  0  0  0  0
M  END
>  <cdx:fragmentId>
369

$$$$
