100022.cdx
  Mrv1902 05222410212D          

 28 30  0  0  0  0            999 V2000
    7.5529   -8.8197    0.0000 C   0  0  0  0  0  0  0  0  0  0  0  0
    7.5529   -9.6447    0.0000 C   0  0  0  0  0  0  0  0  0  0  0  0
    6.8384  -10.0572    0.0000 C   0  0  0  0  0  0  0  0  0  0  0  0
    6.8384  -10.8822    0.0000 O   0  0  0  0  0  0  0  0  0  0  0  0
    6.1239   -9.6447    0.0000 C   0  0  0  0  0  0  0  0  0  0  0  0
    5.4095  -10.0572    0.0000 C   0  0  0  0  0  0  0  0  0  0  0  0
    4.6950   -9.6447    0.0000 C   0  0  0  0  0  0  0  0  0  0  0  0
    4.6950   -8.8197    0.0000 C   0  0  0  0  0  0  0  0  0  0  0  0
    5.4095   -8.4072    0.0000 C   0  0  0  0  0  0  0  0  0  0  0  0
    6.1239   -8.8197    0.0000 C   0  0  0  0  0  0  0  0  0  0  0  0
    6.8384   -8.4072    0.0000 O   0  0  0  0  0  0  0  0  0  0  0  0
    8.2674   -8.4072    0.0000 C   0  0  0  0  0  0  0  0  0  0  0  0
    8.9818   -8.8197    0.0000 C   0  0  0  0  0  0  0  0  0  0  0  0
    9.6963   -8.4072    0.0000 C   0  0  0  0  0  0  0  0  0  0  0  0
    9.6963   -7.5822    0.0000 C   0  0  0  0  0  0  0  0  0  0  0  0
    8.9818   -7.1697    0.0000 C   0  0  0  0  0  0  0  0  0  0  0  0
    8.2674   -7.5822    0.0000 C   0  0  0  0  0  0  0  0  0  0  0  0
    8.9818   -6.3447    0.0000 O   0  0  0  0  0  0  0  0  0  0  0  0
    9.6963   -5.9322    0.0000 C   0  0  0  0  0  0  0  0  0  0  0  0
   10.4108   -7.1697    0.0000 O   0  0  0  0  0  0  0  0  0  0  0  0
   11.1252   -7.5822    0.0000 C   0  0  0  0  0  0  0  0  0  0  0  0
   10.4108   -8.8197    0.0000 O   0  0  0  0  0  0  0  0  0  0  0  0
    3.9805   -8.4072    0.0000 O   0  0  0  0  0  0  0  0  0  0  0  0
    3.2661   -8.8197    0.0000 C   0  0  0  0  0  0  0  0  0  0  0  0
    3.9805  -10.0572    0.0000 O   0  0  0  0  0  0  0  0  0  0  0  0
    3.2661   -9.6447    0.0000 C   0  0  0  0  0  0  0  0  0  0  0  0
    5.4095  -10.8822    0.0000 O   0  0  0  0  0  0  0  0  0  0  0  0
   10.4108   -9.6447    0.0000 C   0  0  0  0  0  0  0  0  0  0  0  0
  1  2  2  0  0  0  0
  2  3  1  0  0  0  0
  3  4  2  0  0  0  0
  3  5  1  0  0  0  0
  5  6  1  0  0  0  0
  6  7  2  0  0  0  0
  7  8  1  0  0  0  0
  8  9  2  0  0  0  0
  9 10  1  0  0  0  0
  5 10  2  0  0  0  0
 10 11  1  0  0  0  0
  1 11  1  0  0  0  0
  1 12  1  0  0  0  0
 12 13  1  0  0  0  0
 13 14  2  0  0  0  0
 14 15  1  0  0  0  0
 15 16  2  0  0  0  0
 16 17  1  0  0  0  0
 12 17  2  0  0  0  0
 18 19  1  0  0  0  0
 16 18  1  0  0  0  0
 20 21  1  0  0  0  0
 15 20  1  0  0  0  0
 14 22  1  0  0  0  0
 23 24  1  0  0  0  0
  8 23  1  0  0  0  0
 25 26  1  0  0  0  0
  7 25  1  0  0  0  0
  6 27  1  0  0  0  0
 22 28  1  0  0  0  0
M  END
>  <cdx:fragmentId>
5

$$$$
