100037.cdx
  Mrv1902 05222410212D          

 44 48  0  0  0  0            999 V2000
    3.3389   -9.2423    0.0000 O   0  0  0  0  0  0  0  0  0  0  0  0
    3.3389  -10.0673    0.0000 C   0  0  0  0  0  0  0  0  0  0  0  0
    4.0534  -10.4798    0.0000 C   0  0  0  0  0  0  0  0  0  0  0  0
    4.7679  -10.0673    0.0000 C   0  0  2  0  0  0  0  0  0  0  0  0
    4.7679   -9.2423    0.0000 C   0  0  1  0  0  0  0  0  0  0  0  0
    4.0534   -8.8298    0.0000 C   0  0  0  0  0  0  0  0  0  0  0  0
    5.4824  -10.4798    0.0000 O   0  0  0  0  0  0  0  0  0  0  0  0
    6.1968  -10.0673    0.0000 C   0  0  0  0  0  0  0  0  0  0  0  0
    6.1968   -9.2423    0.0000 C   0  0  0  0  0  0  0  0  0  0  0  0
    5.4824   -8.8298    0.0000 O   0  0  0  0  0  0  0  0  0  0  0  0
    6.9113  -10.4798    0.0000 C   0  0  0  0  0  0  0  0  0  0  0  0
    7.6258  -10.0673    0.0000 C   0  0  0  0  0  0  0  0  0  0  0  0
    7.6258   -9.2423    0.0000 C   0  0  0  0  0  0  0  0  0  0  0  0
    6.9113   -8.8298    0.0000 C   0  0  0  0  0  0  0  0  0  0  0  0
    2.6245  -10.4798    0.0000 C   0  0  0  0  0  0  0  0  0  0  0  0
    2.6245  -11.3048    0.0000 C   0  0  0  0  0  0  0  0  0  0  0  0
    3.3389  -11.7173    0.0000 C   0  0  0  0  0  0  0  0  0  0  0  0
    4.0534  -11.3048    0.0000 C   0  0  0  0  0  0  0  0  0  0  0  0
    1.9100  -11.7173    0.0000 O   0  0  0  0  0  0  0  0  0  0  0  0
    3.3389  -12.5423    0.0000 O   0  0  0  0  0  0  0  0  0  0  0  0
    8.3402  -10.4798    0.0000 C   0  0  0  0  0  0  0  0  0  0  0  0
    9.0547  -10.0673    0.0000 C   0  0  0  0  0  0  0  0  0  0  0  0
    9.7692  -10.4798    0.0000 C   0  0  0  0  0  0  0  0  0  0  0  0
   10.4837  -10.0673    0.0000 N   0  0  0  0  0  0  0  0  0  0  0  0
   11.1981  -10.4798    0.0000 C   0  0  0  0  0  0  0  0  0  0  0  0
   11.9126  -10.0673    0.0000 C   0  0  0  0  0  0  0  0  0  0  0  0
   12.6271  -10.4798    0.0000 C   0  0  0  0  0  0  0  0  0  0  0  0
   13.3415  -10.0673    0.0000 C   0  0  0  0  0  0  0  0  0  0  0  0
   12.6271  -11.3048    0.0000 C   0  0  0  0  0  0  0  0  0  0  0  0
   13.3415  -11.7173    0.0000 C   0  0  0  0  0  0  0  0  0  0  0  0
   14.0560  -11.3048    0.0000 C   0  0  0  0  0  0  0  0  0  0  0  0
   14.0560  -10.4798    0.0000 C   0  0  0  0  0  0  0  0  0  0  0  0
    4.0534   -8.0048    0.0000 N   0  0  0  0  0  0  0  0  0  0  0  0
    3.3389   -7.5923    0.0000 C   0  0  0  0  0  0  0  0  0  0  0  0
    3.3389   -6.7673    0.0000 C   0  0  0  0  0  0  0  0  0  0  0  0
    2.6245   -6.3548    0.0000 C   0  0  0  0  0  0  0  0  0  0  0  0
    1.9100   -6.7673    0.0000 C   0  0  0  0  0  0  0  0  0  0  0  0
    2.6245   -5.5298    0.0000 C   0  0  0  0  0  0  0  0  0  0  0  0
    1.9100   -5.1173    0.0000 C   0  0  0  0  0  0  0  0  0  0  0  0
    1.1955   -5.5298    0.0000 C   0  0  0  0  0  0  0  0  0  0  0  0
    1.1955   -6.3548    0.0000 C   0  0  0  0  0  0  0  0  0  0  0  0
   14.7705  -11.7173    0.0000 O   0  0  0  0  0  0  0  0  0  0  0  0
    0.4811   -5.1173    0.0000 O   0  0  0  0  0  0  0  0  0  0  0  0
    9.7692  -11.3048    0.0000 O   0  0  0  0  0  0  0  0  0  0  0  0
  2  3  2  0  0  0  0
  4  3  1  6  0  0  0
  4  5  1  0  0  0  0
  5  6  1  1  0  0  0
  6  1  2  0  0  0  0
  4  7  1  0  0  0  0
  7  8  1  0  0  0  0
  8  9  2  0  0  0  0
  9 10  1  0  0  0  0
 10  5  1  0  0  0  0
  8 11  1  0  0  0  0
 11 12  2  0  0  0  0
 12 13  1  0  0  0  0
 13 14  2  0  0  0  0
 14  9  1  0  0  0  0
  2 15  1  0  0  0  0
 15 16  2  0  0  0  0
 16 17  1  0  0  0  0
 17 18  2  0  0  0  0
 18  3  1  0  0  0  0
 16 19  1  0  0  0  0
 20 17  1  0  0  0  0
 12 21  1  0  0  0  0
 21 22  2  0  0  0  0
 22 23  1  0  0  0  0
 23 24  1  0  0  0  0
 24 25  1  0  0  0  0
 25 26  1  0  0  0  0
 26 27  1  0  0  0  0
 27 28  2  0  0  0  0
 27 29  1  0  0  0  0
 29 30  2  0  0  0  0
 30 31  1  0  0  0  0
 31 32  2  0  0  0  0
 32 28  1  0  0  0  0
  6 33  1  0  0  0  0
 33 34  1  0  0  0  0
 34 35  1  0  0  0  0
 35 36  1  0  0  0  0
 36 37  2  0  0  0  0
 36 38  1  0  0  0  0
 38 39  2  0  0  0  0
 39 40  1  0  0  0  0
 40 41  2  0  0  0  0
 41 37  1  0  0  0  0
 31 42  1  0  0  0  0
 40 43  1  0  0  0  0
 23 44  2  0  0  0  0
M  END
>  <cdx:fragmentId>
5

$$$$
