100019.cdx
  Mrv1902 05222410222D          

 15 16  0  0  0  0            999 V2000
    5.7972   -8.8930    0.0000 C   0  0  0  0  0  0  0  0  0  0  0  0
    5.8007   -9.7180    0.0000 O   0  0  0  0  0  0  0  0  0  0  0  0
    5.0810   -8.4835    0.0000 C   0  0  0  0  0  0  0  0  0  0  0  0
    4.3683   -8.8991    0.0000 C   0  0  0  0  0  0  0  0  0  0  0  0
    5.7902   -7.2430    0.0000 O   0  0  0  0  0  0  0  0  0  0  0  0
    5.7867   -6.4180    0.0000 C   0  0  0  0  0  0  0  0  0  0  0  0
    8.7245   -8.7231    0.0000 O   0  0  0  0  0  0  0  0  0  0  0  0
    9.2066   -8.0536    0.0000 C   0  0  0  0  0  0  0  0  0  0  0  0
    8.7189   -7.3882    0.0000 O   0  0  0  0  0  0  0  0  0  0  0  0
    7.2192   -7.2370    0.0000 C   0  0  0  0  0  0  0  0  0  0  0  0
    6.5064   -7.6525    0.0000 C   0  0  0  0  0  0  0  0  0  0  0  0
    6.5099   -8.4775    0.0000 C   0  0  0  0  0  0  0  0  0  0  0  0
    7.2261   -8.8870    0.0000 C   0  0  0  0  0  0  0  0  0  0  0  0
    7.9388   -8.4715    0.0000 C   0  0  0  0  0  0  0  0  0  0  0  0
    7.9354   -7.6465    0.0000 C   0  0  0  0  0  0  0  0  0  0  0  0
  1  2  2  0  0  0  0
  1  3  1  0  0  0  0
 12  1  1  0  0  0  0
  3  4  1  0  0  0  0
 11  5  1  0  0  0  0
  5  6  1  0  0  0  0
  7 14  1  0  0  0  0
  8  7  1  0  0  0  0
  9  8  1  0  0  0  0
 15  9  1  0  0  0  0
 10 15  1  0  0  0  0
 11 10  2  0  0  0  0
 12 11  1  0  0  0  0
 13 12  2  0  0  0  0
 14 13  1  0  0  0  0
 15 14  2  0  0  0  0
M  END
>  <cdx:fragmentId>
5

$$$$
