100002.cdx
  Mrv1902 05222410242D          

 32 34  0  0  0  0            999 V2000
    8.1289   -9.2546    0.0000 O   0  0  0  0  0  0  0  0  0  0  0  0
    8.8372   -9.6777    0.0000 C   0  0  2  0  0  0  0  0  0  0  0  0
    8.8250  -10.5026    0.0000 C   0  0  1  0  0  0  0  0  0  0  0  0
    8.1045  -10.9044    0.0000 C   0  0  2  0  0  0  0  0  0  0  0  0
    7.3962  -10.4814    0.0000 C   0  0  1  0  0  0  0  0  0  0  0  0
    7.4084   -9.6565    0.0000 C   0  0  1  0  0  0  0  0  0  0  0  0
    6.7002   -9.2334    0.0000 C   0  0  0  0  0  0  0  0  0  0  0  0
    5.9796   -9.6353    0.0000 O   0  0  0  0  0  0  0  0  0  0  0  0
    5.2836   -8.3873    0.0000 O   0  0  0  0  0  0  0  0  0  0  0  0
    5.2714   -9.2122    0.0000 C   0  0  2  0  0  0  0  0  0  0  0  0
    4.5509   -9.6141    0.0000 C   0  0  1  0  0  0  0  0  0  0  0  0
    3.8426   -9.1910    0.0000 C   0  0  2  0  0  0  0  0  0  0  0  0
    3.8548   -8.3661    0.0000 C   0  0  1  0  0  0  0  0  0  0  0  0
    4.5753   -7.9643    0.0000 C   0  0  1  0  0  0  0  0  0  0  0  0
    4.5876   -7.1394    0.0000 C   0  0  0  0  0  0  0  0  0  0  0  0
    3.8793   -6.7163    0.0000 O   0  0  0  0  0  0  0  0  0  0  0  0
    3.1466   -7.9431    0.0000 O   0  0  0  0  0  0  0  0  0  0  0  0
    3.1221   -9.5929    0.0000 O   0  0  0  0  0  0  0  0  0  0  0  0
    4.5386  -10.4390    0.0000 O   0  0  0  0  0  0  0  0  0  0  0  0
    6.6757  -10.8832    0.0000 O   0  0  0  0  0  0  0  0  0  0  0  0
    8.0922  -11.7294    0.0000 O   0  0  0  0  0  0  0  0  0  0  0  0
    9.5332  -10.9257    0.0000 O   0  0  0  0  0  0  0  0  0  0  0  0
   10.2415   -7.2030    0.0000 C   0  0  0  0  0  0  0  0  0  0  0  0
   10.9498   -6.7799    0.0000 C   0  0  0  0  0  0  0  0  0  0  0  0
   11.6703   -7.1818    0.0000 C   0  0  0  0  0  0  0  0  0  0  0  0
   11.6825   -8.0067    0.0000 C   0  0  0  0  0  0  0  0  0  0  0  0
   10.9743   -8.4297    0.0000 C   0  0  0  0  0  0  0  0  0  0  0  0
   10.2538   -8.0279    0.0000 C   0  0  0  0  0  0  0  0  0  0  0  0
    9.5577   -9.2758    0.0000 O   0  0  0  0  0  0  0  0  0  0  0  0
    8.1045   -7.6472    0.0000 N   0  0  0  0  0  0  0  0  0  0  0  0
    9.5455   -8.4509    0.0000 C   0  0  1  0  0  0  0  0  0  0  0  0
    8.8250   -8.0491    0.0000 C   0  0  0  0  0  0  0  0  0  0  0  0
 31 28  1  0  0  0  0
 28 23  2  0  0  0  0
 24 23  1  0  0  0  0
 25 24  2  0  0  0  0
 26 25  1  0  0  0  0
 27 26  2  0  0  0  0
 28 27  1  0  0  0  0
 31 29  1  1  0  0  0
 32 30  3  0  0  0  0
 32 31  1  0  0  0  0
  1  2  1  0  0  0  0
  2  3  1  0  0  0  0
  3  4  1  0  0  0  0
  4  5  1  0  0  0  0
  5  6  1  0  0  0  0
  1  6  1  0  0  0  0
  9 10  1  0  0  0  0
 10 11  1  0  0  0  0
 11 12  1  0  0  0  0
 12 13  1  0  0  0  0
 13 14  1  0  0  0  0
  9 14  1  0  0  0  0
 15 16  1  0  0  0  0
 14 15  1  1  0  0  0
 13 17  1  6  0  0  0
 12 18  1  1  0  0  0
 11 19  1  6  0  0  0
 10  8  1  1  0  0  0
  7  8  1  0  0  0  0
  6  7  1  1  0  0  0
  5 20  1  6  0  0  0
  4 21  1  1  0  0  0
  3 22  1  6  0  0  0
  2 29  1  1  0  0  0
M  END
>  <cdx:fragmentId>
29

$$$$
