100087.cdx
  Mrv1902 05222410192D          

 29 30  0  0  0  0            999 V2000
    1.4344   -9.0887    0.0000 C   0  0  0  0  0  0  0  0  0  0  0  0
    2.1489   -8.6762    0.0000 C   0  0  0  0  0  0  0  0  0  0  0  0
    2.8633   -9.0887    0.0000 C   0  0  0  0  0  0  0  0  0  0  0  0
    3.5778   -8.6762    0.0000 C   0  0  0  0  0  0  0  0  0  0  0  0
    4.2923   -9.0887    0.0000 C   0  0  0  0  0  0  0  0  0  0  0  0
    5.0068   -8.6762    0.0000 C   0  0  0  0  0  0  0  0  0  0  0  0
    5.7212   -9.0887    0.0000 O   0  0  0  0  0  0  0  0  0  0  0  0
    9.3083   -8.6693    0.0000 O   0  0  0  0  0  0  0  0  0  0  0  0
    7.1504   -9.0849    0.0000 C   0  0  2  0  0  0  0  0  0  0  0  0
    7.1499   -9.9099    0.0000 C   0  0  2  0  0  0  0  0  0  0  0  0
    7.8641  -10.3228    0.0000 C   0  0  1  0  0  0  0  0  0  0  0  0
    8.5788   -9.9107    0.0000 C   0  0  2  0  0  0  0  0  0  0  0  0
    8.5793   -9.0857    0.0000 C   0  0  1  0  0  0  0  0  0  0  0  0
    7.8651   -8.6728    0.0000 O   0  0  0  0  0  0  0  0  0  0  0  0
    6.4362   -8.6719    0.0000 C   0  0  0  0  0  0  0  0  0  0  0  0
    7.8636  -11.1478    0.0000 O   0  0  0  0  0  0  0  0  0  0  0  0
    6.4352  -10.3219    0.0000 O   0  0  0  0  0  0  0  0  0  0  0  0
    9.2930  -10.3237    0.0000 O   0  0  0  0  0  0  0  0  0  0  0  0
   10.7371   -5.3529    0.0000 O   0  0  0  0  0  0  0  0  0  0  0  0
   10.0198   -7.4301    0.0000 C   0  0  2  0  0  0  0  0  0  0  0  0
   10.7344   -7.8424    0.0000 C   0  0  2  0  0  0  0  0  0  0  0  0
   11.4488   -7.4297    0.0000 C   0  0  1  0  0  0  0  0  0  0  0  0
   11.4485   -6.6047    0.0000 C   0  0  2  0  0  0  0  0  0  0  0  0
   10.7339   -6.1924    0.0000 C   0  0  1  0  0  0  0  0  0  0  0  0
   10.0196   -6.6051    0.0000 O   0  0  0  0  0  0  0  0  0  0  0  0
    9.3055   -7.8428    0.0000 C   0  0  0  0  0  0  0  0  0  0  0  0
   12.1633   -7.8420    0.0000 O   0  0  0  0  0  0  0  0  0  0  0  0
   10.7347   -8.6674    0.0000 O   0  0  0  0  0  0  0  0  0  0  0  0
   12.1629   -6.1920    0.0000 O   0  0  0  0  0  0  0  0  0  0  0  0
  1  2  1  0  0  0  0
  2  3  1  0  0  0  0
  3  4  1  0  0  0  0
  4  5  1  0  0  0  0
  5  6  1  0  0  0  0
  6  7  1  0  0  0  0
  9 10  1  0  0  0  0
 10 11  1  0  0  0  0
 11 12  1  0  0  0  0
 12 13  1  0  0  0  0
 13 14  1  0  0  0  0
 14  9  1  0  0  0  0
  9 15  1  1  0  0  0
 11 16  1  1  0  0  0
 10 17  1  6  0  0  0
 12 18  1  6  0  0  0
 13  8  1  1  0  0  0
 20 21  1  0  0  0  0
 21 22  1  0  0  0  0
 22 23  1  0  0  0  0
 23 24  1  0  0  0  0
 24 25  1  0  0  0  0
 25 20  1  0  0  0  0
 20 26  1  1  0  0  0
 22 27  1  1  0  0  0
 21 28  1  6  0  0  0
 23 29  1  6  0  0  0
 24 19  1  1  0  0  0
 15  7  1  0  0  0  0
 26  8  1  0  0  0  0
M  END
>  <cdx:fragmentId>
465

$$$$
