100021.cdx
  Mrv1902 05222410212D          

 20 19  0  0  0  0            999 V2000
    0.8927   -9.0835    0.0000 O   0  0  0  0  0  0  0  0  0  0  0  0
    1.6071   -7.8460    0.0000 O   0  0  0  0  0  0  0  0  0  0  0  0
   13.7531   -9.0835    0.0000 C   0  0  0  0  0  0  0  0  0  0  0  0
   13.0387   -8.6710    0.0000 C   0  0  0  0  0  0  0  0  0  0  0  0
   12.3242   -9.0835    0.0000 C   0  0  0  0  0  0  0  0  0  0  0  0
   11.6097   -8.6710    0.0000 C   0  0  0  0  0  0  0  0  0  0  0  0
   10.8953   -9.0835    0.0000 C   0  0  0  0  0  0  0  0  0  0  0  0
   10.1808   -8.6710    0.0000 C   0  0  0  0  0  0  0  0  0  0  0  0
    9.4663   -9.0835    0.0000 C   0  0  0  0  0  0  0  0  0  0  0  0
    8.7518   -8.6710    0.0000 C   0  0  0  0  0  0  0  0  0  0  0  0
    8.0374   -9.0835    0.0000 C   0  0  0  0  0  0  0  0  0  0  0  0
    7.3229   -8.6710    0.0000 C   0  0  0  0  0  0  0  0  0  0  0  0
    6.6084   -9.0835    0.0000 C   0  0  0  0  0  0  0  0  0  0  0  0
    5.8940   -8.6710    0.0000 C   0  0  0  0  0  0  0  0  0  0  0  0
    5.1795   -9.0835    0.0000 C   0  0  0  0  0  0  0  0  0  0  0  0
    4.4650   -8.6710    0.0000 C   0  0  0  0  0  0  0  0  0  0  0  0
    3.7505   -9.0835    0.0000 C   0  0  0  0  0  0  0  0  0  0  0  0
    3.0361   -8.6710    0.0000 C   0  0  0  0  0  0  0  0  0  0  0  0
    2.3216   -9.0835    0.0000 C   0  0  0  0  0  0  0  0  0  0  0  0
    1.6071   -8.6710    0.0000 C   0  0  0  0  0  0  0  0  0  0  0  0
 20  1  1  0  0  0  0
 20  2  2  0  0  0  0
  4  3  1  0  0  0  0
  5  4  1  0  0  0  0
  6  5  1  0  0  0  0
  7  6  1  0  0  0  0
  8  7  1  0  0  0  0
  9  8  1  0  0  0  0
 10  9  2  0  0  0  0
 11 10  1  0  0  0  0
 12 11  2  0  0  0  0
 13 12  1  0  0  0  0
 14 13  1  0  0  0  0
 15 14  1  0  0  0  0
 16 15  1  0  0  0  0
 17 16  1  0  0  0  0
 18 17  1  0  0  0  0
 19 18  1  0  0  0  0
 20 19  1  0  0  0  0
M  END
>  <cdx:fragmentId>
5

$$$$
