100024.cdx
  Mrv1902 05222410232D          

 50 55  0  0  0  0            999 V2000
    7.5194  -10.0671    0.0000 C   0  0  0  0  0  0  0  0  0  0  0  0
    7.5194  -10.8921    0.0000 C   0  0  0  0  0  0  0  0  0  0  0  0
    8.2339  -11.3046    0.0000 C   0  0  0  0  0  0  0  0  0  0  0  0
    8.9484  -10.8921    0.0000 C   0  0  0  0  0  0  0  0  0  0  0  0
    8.9484  -10.0671    0.0000 C   0  0  0  0  0  0  0  0  0  0  0  0
    8.2339   -9.6546    0.0000 C   0  0  0  0  0  0  0  0  0  0  0  0
    9.6629  -11.3046    0.0000 C   0  0  0  0  0  0  0  0  0  0  0  0
   10.3773  -10.8921    0.0000 C   0  0  0  0  0  0  0  0  0  0  0  0
   10.3773  -10.0671    0.0000 C   0  0  0  0  0  0  0  0  0  0  0  0
    9.6629   -9.6546    0.0000 O   0  0  0  0  0  0  0  0  0  0  0  0
   11.0918   -9.6546    0.0000 C   0  0  0  0  0  0  0  0  0  0  0  0
   11.0918   -8.8296    0.0000 C   0  0  0  0  0  0  0  0  0  0  0  0
   11.8063  -10.0671    0.0000 C   0  0  0  0  0  0  0  0  0  0  0  0
   12.5207   -9.6546    0.0000 C   0  0  0  0  0  0  0  0  0  0  0  0
   12.5207   -8.8296    0.0000 C   0  0  0  0  0  0  0  0  0  0  0  0
   11.8063   -8.4171    0.0000 C   0  0  0  0  0  0  0  0  0  0  0  0
    9.6629  -12.1296    0.0000 O   0  0  0  0  0  0  0  0  0  0  0  0
    6.8050   -9.6546    0.0000 O   0  0  0  0  0  0  0  0  0  0  0  0
    7.5131   -7.5715    0.0000 C   0  0  2  0  0  0  0  0  0  0  0  0
    6.7988   -7.1587    0.0000 C   0  0  2  0  0  0  0  0  0  0  0  0
    6.0842   -7.5710    0.0000 C   0  0  1  0  0  0  0  0  0  0  0  0
    6.0839   -8.3960    0.0000 C   0  0  2  0  0  0  0  0  0  0  0  0
    6.7983   -8.8087    0.0000 C   0  0  1  0  0  0  0  0  0  0  0  0
    7.5129   -8.3965    0.0000 O   0  0  0  0  0  0  0  0  0  0  0  0
    8.2277   -7.1592    0.0000 C   0  0  0  0  0  0  0  0  0  0  0  0
    8.2279   -6.3342    0.0000 O   0  0  0  0  0  0  0  0  0  0  0  0
    6.7990   -6.3337    0.0000 O   0  0  0  0  0  0  0  0  0  0  0  0
    8.9425   -5.9219    0.0000 C   0  0  1  0  0  0  0  0  0  0  0  0
    8.9428   -5.0969    0.0000 C   0  0  2  0  0  0  0  0  0  0  0  0
    8.2284   -4.6842    0.0000 O   0  0  0  0  0  0  0  0  0  0  0  0
    9.6569   -6.3346    0.0000 O   0  0  0  0  0  0  0  0  0  0  0  0
   10.3715   -5.9223    0.0000 C   0  0  2  0  0  0  0  0  0  0  0  0
   10.3717   -5.0973    0.0000 C   0  0  1  0  0  0  0  0  0  0  0  0
    9.6574   -4.6846    0.0000 C   0  0  1  0  0  0  0  0  0  0  0  0
    5.3698   -7.1583    0.0000 O   0  0  0  0  0  0  0  0  0  0  0  0
    4.6552   -7.5706    0.0000 O   0  0  0  0  0  0  0  0  0  0  0  0
    4.6550   -8.3956    0.0000 C   0  0  1  0  0  0  0  0  0  0  0  0
    5.3693   -8.8083    0.0000 O   0  0  0  0  0  0  0  0  0  0  0  0
    3.9409   -7.1579    0.0000 C   0  0  1  0  0  0  0  0  0  0  0  0
    3.2263   -7.5702    0.0000 C   0  0  2  0  0  0  0  0  0  0  0  0
    3.2260   -8.3952    0.0000 C   0  0  1  0  0  0  0  0  0  0  0  0
    3.9404   -8.8079    0.0000 C   0  0  1  0  0  0  0  0  0  0  0  0
   11.0863   -4.6850    0.0000 O   0  0  0  0  0  0  0  0  0  0  0  0
    3.9411   -6.3329    0.0000 C   0  0  0  0  0  0  0  0  0  0  0  0
    2.5114   -8.8075    0.0000 O   0  0  0  0  0  0  0  0  0  0  0  0
    2.5119   -7.1575    0.0000 O   0  0  0  0  0  0  0  0  0  0  0  0
    3.9401   -9.6329    0.0000 O   0  0  0  0  0  0  0  0  0  0  0  0
   11.0858   -6.3350    0.0000 C   0  0  0  0  0  0  0  0  0  0  0  0
    9.6576   -3.8596    0.0000 O   0  0  0  0  0  0  0  0  0  0  0  0
    4.6557   -5.9206    0.0000 O   0  0  0  0  0  0  0  0  0  0  0  0
  1  2  2  0  0  0  0
  2  3  1  0  0  0  0
  3  4  2  0  0  0  0
  4  5  1  0  0  0  0
  5  6  2  0  0  0  0
  6  1  1  0  0  0  0
  4  7  1  0  0  0  0
  7  8  1  0  0  0  0
  8  9  2  0  0  0  0
  9 10  1  0  0  0  0
 10  5  1  0  0  0  0
  9 11  1  0  0  0  0
 11 12  1  0  0  0  0
 11 13  2  0  0  0  0
 13 14  1  0  0  0  0
 14 15  2  0  0  0  0
 15 16  1  0  0  0  0
 16 12  2  0  0  0  0
  7 17  2  0  0  0  0
  1 18  1  0  0  0  0
 19 20  1  0  0  0  0
 20 21  1  0  0  0  0
 21 22  1  0  0  0  0
 22 23  1  0  0  0  0
 23 24  1  0  0  0  0
 24 19  1  0  0  0  0
 19 25  1  1  0  0  0
 25 26  1  0  0  0  0
 20 27  1  6  0  0  0
 28 26  1  1  0  0  0
 28 29  1  0  0  0  0
 29 30  1  6  0  0  0
 28 31  1  0  0  0  0
 31 32  1  0  0  0  0
 32 33  1  0  0  0  0
 33 34  1  0  0  0  0
 34 29  1  0  0  0  0
 21 35  1  1  0  0  0
 36 37  1  0  0  0  0
 37 38  1  1  0  0  0
 22 38  1  6  0  0  0
 36 39  1  0  0  0  0
 39 40  1  0  0  0  0
 40 41  1  0  0  0  0
 41 42  1  0  0  0  0
 42 37  1  0  0  0  0
 33 43  1  1  0  0  0
 39 44  1  1  0  0  0
 41 45  1  1  0  0  0
 40 46  1  6  0  0  0
 42 47  1  6  0  0  0
 32 48  1  6  0  0  0
 34 49  1  6  0  0  0
 44 50  1  0  0  0  0
 23 18  1  1  0  0  0
M  END
>  <cdx:fragmentId>
369

$$$$
