100066.cdx
  Mrv1902 05222410282D          

 27 29  0  0  0  0            999 V2000
    7.1031   -8.2405    0.0000 C   0  0  1  0  0  0  0  0  0  0  0  0
    7.2988   -7.4389    0.0000 C   0  0  2  0  0  0  0  0  0  0  0  0
    8.0759   -7.1608    0.0000 C   0  0  2  0  0  0  0  0  0  0  0  0
    8.7571   -7.6260    0.0000 C   0  0  0  0  0  0  0  0  0  0  0  0
    7.9359   -7.9632    0.0000 H   0  0  0  0  0  0  0  0  0  0  0  0
    6.7943   -6.7863    0.0000 C   0  0  2  0  0  0  0  0  0  0  0  0
    6.4146   -6.0537    0.0000 H   0  0  0  0  0  0  0  0  0  0  0  0
    7.2595   -6.1046    0.0000 O   0  0  0  0  0  0  0  0  0  0  0  0
    8.0515   -6.3366    0.0000 C   0  0  0  0  0  0  0  0  0  0  0  0
    8.7041   -5.8320    0.0000 O   0  0  0  0  0  0  0  0  0  0  0  0
    6.3542   -8.5868    0.0000 C   0  0  2  0  0  0  0  0  0  0  0  0
    6.9913   -9.1111    0.0000 C   0  0  0  0  0  0  0  0  0  0  0  0
    6.2311   -9.4026    0.0000 C   0  0  0  0  0  0  0  0  0  0  0  0
    5.4174   -9.5376    0.0000 C   0  0  0  0  0  0  0  0  0  0  0  0
    5.0373   -8.8051    0.0000 C   0  0  0  0  0  0  0  0  0  0  0  0
    5.6165   -8.2176    0.0000 C   0  0  1  0  0  0  0  0  0  0  0  0
    4.8247   -7.9858    0.0000 H   0  0  0  0  0  0  0  0  0  0  0  0
    5.4456   -7.4105    0.0000 C   0  0  2  0  0  0  0  0  0  0  0  0
    4.6315   -7.2751    0.0000 C   0  0  0  0  0  0  0  0  0  0  0  0
    5.9696   -6.7737    0.0000 C   0  0  0  0  0  0  0  0  0  0  0  0
    6.8186   -9.9818    0.0000 O   0  0  0  0  0  0  0  0  0  0  0  0
    8.9918   -8.0736    0.0000 O   0  0  0  0  0  0  0  0  0  0  0  0
    7.7511   -8.8042    0.0000 O   0  0  0  0  0  0  0  0  0  0  0  0
    8.5888   -8.7932    0.0000 C   0  0  0  0  0  0  0  0  0  0  0  0
    9.8354   -9.4914    0.0000 C   0  0  0  0  0  0  0  0  0  0  0  0
    9.0105   -9.5020    0.0000 C   0  0  0  0  0  0  0  0  0  0  0  0
    8.6074  -10.2221    0.0000 C   0  0  0  0  0  0  0  0  0  0  0  0
 24 22  2  0  0  0  0
 24 23  1  0  0  0  0
 26 24  1  0  0  0  0
 26 25  1  0  0  0  0
 27 26  1  0  0  0  0
  1 23  1  6  0  0  0
  1  2  1  0  0  0  0
  2  3  1  0  0  0  0
  3  4  1  1  0  0  0
  2  5  1  6  0  0  0
  2  6  1  0  0  0  0
  6  7  1  6  0  0  0
  6  8  1  0  0  0  0
  8  9  1  0  0  0  0
  3  9  1  0  0  0  0
  9 10  2  0  0  0  0
  1 11  1  0  0  0  0
 11 12  1  1  0  0  0
 11 13  1  0  0  0  0
 13 14  1  0  0  0  0
 14 15  2  0  0  0  0
 15 16  1  0  0  0  0
 11 16  1  0  0  0  0
 16 17  1  6  0  0  0
 16 18  1  0  0  0  0
 18 19  1  6  0  0  0
 18 20  1  0  0  0  0
  6 20  1  0  0  0  0
 13 21  2  0  0  0  0
M  END
>  <cdx:fragmentId>
1

$$$$
