100096.cdx
  Mrv1902 05222410192D          

 16 16  0  0  0  0            999 V2000
    7.6081   -6.8339    0.0000 C   0  0  0  0  0  0  0  0  0  0  0  0
    8.0206   -7.5484    0.0000 C   0  0  0  0  0  0  0  0  0  0  0  0
    8.8276   -7.7199    0.0000 C   0  0  0  0  0  0  0  0  0  0  0  0
    9.0826   -8.5045    0.0000 C   0  0  0  0  0  0  0  0  0  0  0  0
    8.5305   -9.1176    0.0000 C   0  0  0  0  0  0  0  0  0  0  0  0
    8.6168   -9.9381    0.0000 C   0  0  0  0  0  0  0  0  0  0  0  0
    7.9493  -10.4230    0.0000 C   0  0  0  0  0  0  0  0  0  0  0  0
    7.1956  -10.0874    0.0000 C   0  0  0  0  0  0  0  0  0  0  0  0
    6.4420  -10.4230    0.0000 C   0  0  0  0  0  0  0  0  0  0  0  0
    5.7745   -9.9381    0.0000 C   0  0  0  0  0  0  0  0  0  0  0  0
    5.8608   -9.1176    0.0000 C   0  0  0  0  0  0  0  0  0  0  0  0
    5.3087   -8.5045    0.0000 C   0  0  0  0  0  0  0  0  0  0  0  0
    5.5637   -7.7199    0.0000 C   0  0  0  0  0  0  0  0  0  0  0  0
    6.3706   -7.5484    0.0000 C   0  0  0  0  0  0  0  0  0  0  0  0
    6.7831   -6.8339    0.0000 C   0  0  0  0  0  0  0  0  0  0  0  0
    8.0206   -6.1194    0.0000 O   0  0  0  0  0  0  0  0  0  0  0  0
  1  2  1  0  0  0  0
  2  3  1  0  0  0  0
  3  4  1  0  0  0  0
  4  5  1  0  0  0  0
  5  6  1  0  0  0  0
  6  7  1  0  0  0  0
  7  8  1  0  0  0  0
  8  9  1  0  0  0  0
  9 10  1  0  0  0  0
 10 11  1  0  0  0  0
 11 12  1  0  0  0  0
 12 13  1  0  0  0  0
 13 14  1  0  0  0  0
 14 15  1  0  0  0  0
  1 15  1  0  0  0  0
  1 16  1  0  0  0  0
M  END
>  <cdx:fragmentId>
5

$$$$
