100041.cdx
  Mrv1902 05222410192D          

 30 30  0  0  0  0            999 V2000
   14.6852   -9.7817    0.0000 C   0  0  0  0  0  0  0  0  0  0  0  0
   15.3996  -10.1942    0.0000 C   0  0  0  0  0  0  0  0  0  0  0  0
   16.8286  -10.1942    0.0000 O   0  0  0  0  0  0  0  0  0  0  0  0
   16.1141   -9.7817    0.0000 C   0  0  0  0  0  0  0  0  0  0  0  0
   17.5431   -8.9567    0.0000 C   0  0  0  0  0  0  0  0  0  0  0  0
   16.8286   -8.5442    0.0000 O   0  0  0  0  0  0  0  0  0  0  0  0
   16.1141   -8.9567    0.0000 C   0  0  0  0  0  0  0  0  0  0  0  0
   15.3996   -8.5442    0.0000 C   0  0  0  0  0  0  0  0  0  0  0  0
   14.6852   -8.9567    0.0000 C   0  0  0  0  0  0  0  0  0  0  0  0
   13.9707   -8.5442    0.0000 C   0  0  0  0  0  0  0  0  0  0  0  0
   13.2562   -8.9567    0.0000 N   0  0  0  0  0  0  0  0  0  0  0  0
   12.5418   -7.7192    0.0000 O   0  0  0  0  0  0  0  0  0  0  0  0
    0.3957   -8.9567    0.0000 C   0  0  0  0  0  0  0  0  0  0  0  0
    1.1102   -8.5442    0.0000 C   0  0  0  0  0  0  0  0  0  0  0  0
    1.8247   -8.9567    0.0000 C   0  0  0  0  0  0  0  0  0  0  0  0
    2.5392   -8.5442    0.0000 C   0  0  0  0  0  0  0  0  0  0  0  0
    3.2536   -8.9567    0.0000 C   0  0  0  0  0  0  0  0  0  0  0  0
    3.9681   -8.5442    0.0000 C   0  0  0  0  0  0  0  0  0  0  0  0
    4.6826   -8.9567    0.0000 C   0  0  0  0  0  0  0  0  0  0  0  0
    5.3970   -8.5442    0.0000 C   0  0  0  0  0  0  0  0  0  0  0  0
    6.1115   -8.9567    0.0000 C   0  0  0  0  0  0  0  0  0  0  0  0
    6.8260   -8.5442    0.0000 C   0  0  0  0  0  0  0  0  0  0  0  0
    7.5405   -8.9567    0.0000 C   0  0  0  0  0  0  0  0  0  0  0  0
    8.2549   -8.5442    0.0000 C   0  0  0  0  0  0  0  0  0  0  0  0
    8.9694   -8.9567    0.0000 C   0  0  0  0  0  0  0  0  0  0  0  0
    9.6839   -8.5442    0.0000 C   0  0  0  0  0  0  0  0  0  0  0  0
   10.3983   -8.9567    0.0000 C   0  0  0  0  0  0  0  0  0  0  0  0
   11.1128   -8.5442    0.0000 C   0  0  0  0  0  0  0  0  0  0  0  0
   11.8273   -8.9567    0.0000 C   0  0  0  0  0  0  0  0  0  0  0  0
   12.5418   -8.5442    0.0000 C   0  0  0  0  0  0  0  0  0  0  0  0
 11 10  1  0  0  0  0
  9  1  2  0  0  0  0
  2  1  1  0  0  0  0
  4  2  2  0  0  0  0
  4  3  1  0  0  0  0
  7  4  1  0  0  0  0
  6  5  1  0  0  0  0
  7  6  1  0  0  0  0
  8  7  2  0  0  0  0
  9  8  1  0  0  0  0
 10  9  1  0  0  0  0
 30 11  1  0  0  0  0
 30 12  2  0  0  0  0
 14 13  1  0  0  0  0
 15 14  1  0  0  0  0
 16 15  1  0  0  0  0
 17 16  1  0  0  0  0
 18 17  1  0  0  0  0
 19 18  1  0  0  0  0
 20 19  1  0  0  0  0
 21 20  1  0  0  0  0
 22 21  2  0  0  0  0
 23 22  1  0  0  0  0
 24 23  1  0  0  0  0
 25 24  1  0  0  0  0
 26 25  1  0  0  0  0
 27 26  1  0  0  0  0
 28 27  1  0  0  0  0
 29 28  1  0  0  0  0
 30 29  1  0  0  0  0
M  END
>  <cdx:fragmentId>
5

$$$$
