100095.cdx
  Mrv1902 05222410182D          

 34 38  0  0  0  0            999 V2000
    3.8950   -9.2050    0.0000 C   0  0  0  0  0  0  0  0  0  0  0  0
    4.6116   -8.7962    0.0000 C   0  0  0  0  0  0  0  0  0  0  0  0
    4.6159   -7.9713    0.0000 C   0  0  0  0  0  0  0  0  0  0  0  0
    3.9035   -7.5551    0.0000 C   0  0  0  0  0  0  0  0  0  0  0  0
    3.1869   -7.9639    0.0000 C   0  0  0  0  0  0  0  0  0  0  0  0
    3.1827   -8.7889    0.0000 C   0  0  0  0  0  0  0  0  0  0  0  0
    5.3325   -7.5624    0.0000 C   0  0  0  0  0  0  0  0  0  0  0  0
    5.3367   -6.7375    0.0000 C   0  0  0  0  0  0  0  0  0  0  0  0
    4.6244   -6.3213    0.0000 C   0  0  0  0  0  0  0  0  0  0  0  0
    3.9078   -6.7301    0.0000 C   0  0  0  0  0  0  0  0  0  0  0  0
    6.0448   -7.9786    0.0000 C   0  0  0  0  0  0  0  0  0  0  0  0
    6.7614   -7.5698    0.0000 C   0  0  0  0  0  0  0  0  0  0  0  0
    6.7656   -6.7448    0.0000 C   0  0  0  0  0  0  0  0  0  0  0  0
    6.0533   -6.3287    0.0000 C   0  0  0  0  0  0  0  0  0  0  0  0
    7.5447   -7.8288    0.0000 C   0  0  0  0  0  0  0  0  0  0  0  0
    8.0330   -7.1639    0.0000 C   0  0  0  0  0  0  0  0  0  0  0  0
    7.5516   -6.4940    0.0000 O   0  0  0  0  0  0  0  0  0  0  0  0
    2.4661   -9.1977    0.0000 O   0  0  0  0  0  0  0  0  0  0  0  0
    6.0405   -8.8036    0.0000 O   0  0  0  0  0  0  0  0  0  0  0  0
    6.7529   -9.2198    0.0000 C   0  0  0  0  0  0  0  0  0  0  0  0
    7.7956   -8.6147    0.0000 C   0  0  0  0  0  0  0  0  0  0  0  0
    8.6016   -8.7904    0.0000 O   0  0  0  0  0  0  0  0  0  0  0  0
    8.8525   -9.5764    0.0000 C   0  0  0  0  0  0  0  0  0  0  0  0
    9.6586   -9.7521    0.0000 O   0  0  0  0  0  0  0  0  0  0  0  0
    8.2973  -10.1866    0.0000 C   0  0  0  0  0  0  0  0  0  0  0  0
    8.8580   -7.1681    0.0000 C   0  0  0  0  0  0  0  0  0  0  0  0
    9.2668   -7.8847    0.0000 C   0  0  0  0  0  0  0  0  0  0  0  0
   10.0918   -7.8890    0.0000 C   0  0  0  0  0  0  0  0  0  0  0  0
   10.5080   -7.1767    0.0000 C   0  0  0  0  0  0  0  0  0  0  0  0
   10.0992   -6.4601    0.0000 C   0  0  0  0  0  0  0  0  0  0  0  0
    9.2742   -6.4558    0.0000 C   0  0  0  0  0  0  0  0  0  0  0  0
   11.3330   -7.1809    0.0000 O   0  0  0  0  0  0  0  0  0  0  0  0
   10.5154   -5.7477    0.0000 O   0  0  0  0  0  0  0  0  0  0  0  0
   11.3404   -5.7520    0.0000 C   0  0  0  0  0  0  0  0  0  0  0  0
  1  2  2  0  0  0  0
  2  3  1  0  0  0  0
  3  4  2  0  0  0  0
  4  5  1  0  0  0  0
  5  6  2  0  0  0  0
  6  1  1  0  0  0  0
  3  7  1  0  0  0  0
  7  8  2  0  0  0  0
  8  9  1  0  0  0  0
  9 10  1  0  0  0  0
 10  4  1  0  0  0  0
  7 11  1  0  0  0  0
 11 12  2  0  0  0  0
 12 13  1  0  0  0  0
 13 14  2  0  0  0  0
 14  8  1  0  0  0  0
 12 15  1  0  0  0  0
 15 16  1  0  0  0  0
 16 17  1  0  0  0  0
 17 13  1  0  0  0  0
  6 18  1  0  0  0  0
 11 19  1  0  0  0  0
 19 20  1  0  0  0  0
 15 21  1  0  0  0  0
 21 22  1  0  0  0  0
 22 23  1  0  0  0  0
 23 24  2  0  0  0  0
 23 25  1  0  0  0  0
 16 26  1  0  0  0  0
 26 27  2  0  0  0  0
 27 28  1  0  0  0  0
 28 29  2  0  0  0  0
 29 30  1  0  0  0  0
 30 31  2  0  0  0  0
 31 26  1  0  0  0  0
 29 32  1  0  0  0  0
 30 33  1  0  0  0  0
 33 34  1  0  0  0  0
M  END
>  <cdx:fragmentId>
5

$$$$
