100098.cdx
  Mrv1902 05222410282D          

 10 11  0  0  0  0            999 V2000
    7.9101   -9.7614    0.0000 C   0  0  0  0  0  0  0  0  0  0  0  0
    8.6246  -10.1739    0.0000 C   0  0  0  0  0  0  0  0  0  0  0  0
    8.6246  -10.9989    0.0000 C   0  0  0  0  0  0  0  0  0  0  0  0
    7.9101  -11.4114    0.0000 C   0  0  0  0  0  0  0  0  0  0  0  0
    7.1956  -10.9989    0.0000 C   0  0  0  0  0  0  0  0  0  0  0  0
    6.4812  -11.4114    0.0000 C   0  0  0  0  0  0  0  0  0  0  0  0
    5.7667  -10.9989    0.0000 C   0  0  0  0  0  0  0  0  0  0  0  0
    5.7667  -10.1739    0.0000 C   0  0  0  0  0  0  0  0  0  0  0  0
    6.4812   -9.7614    0.0000 C   0  0  0  0  0  0  0  0  0  0  0  0
    7.1956  -10.1739    0.0000 C   0  0  0  0  0  0  0  0  0  0  0  0
  1  2  1  0  0  0  0
  2  3  1  0  0  0  0
  3  4  1  0  0  0  0
  4  5  1  0  0  0  0
  5  6  1  0  0  0  0
  6  7  1  0  0  0  0
  7  8  1  0  0  0  0
  8  9  2  0  0  0  0
  9 10  1  0  0  0  0
  1 10  1  0  0  0  0
  5 10  1  0  0  0  0
M  END
>  <cdx:fragmentId>
5

$$$$
