100014.cdx
  Mrv1902 05222410232D          

 11 11  0  0  0  0            999 V2000
    6.3504   -8.5234    0.0000 C   0  0  0  0  0  0  0  0  0  0  0  0
    6.3504   -9.3484    0.0000 C   0  0  0  0  0  0  0  0  0  0  0  0
    7.0649   -9.7609    0.0000 C   0  0  0  0  0  0  0  0  0  0  0  0
    7.7794   -9.3484    0.0000 C   0  0  0  0  0  0  0  0  0  0  0  0
    7.7794   -8.5234    0.0000 C   0  0  0  0  0  0  0  0  0  0  0  0
    7.0649   -8.1109    0.0000 C   0  0  1  0  0  0  0  0  0  0  0  0
    5.6360   -8.1109    0.0000 O   0  0  0  0  0  0  0  0  0  0  0  0
    7.0649   -7.2859    0.0000 C   0  0  0  0  0  0  0  0  0  0  0  0
    7.7794   -6.8734    0.0000 C   0  0  0  0  0  0  0  0  0  0  0  0
    6.3504   -6.8734    0.0000 C   0  0  0  0  0  0  0  0  0  0  0  0
    7.0649  -10.5859    0.0000 C   0  0  0  0  0  0  0  0  0  0  0  0
  1  2  1  0  0  0  0
  2  3  2  0  0  0  0
  3  4  1  0  0  0  0
  4  5  1  0  0  0  0
  5  6  1  0  0  0  0
  1  6  1  0  0  0  0
  1  7  2  0  0  0  0
  8  9  2  0  0  0  0
  8 10  1  0  0  0  0
  6  8  1  6  0  0  0
  3 11  1  0  0  0  0
M  END
>  <cdx:fragmentId>
5

$$$$
