100059.cdx
  Mrv1902 05222410272D          

 35 38  0  0  0  0            999 V2000
    3.8451   -8.8433    0.0000 C   0  0  0  0  0  0  0  0  0  0  0  0
    3.8550   -8.0183    0.0000 C   0  0  0  0  0  0  0  0  0  0  0  0
    4.5546   -9.2643    0.0000 C   0  0  0  0  0  0  0  0  0  0  0  0
    5.2739   -8.8603    0.0000 C   0  0  0  0  0  0  0  0  0  0  0  0
    5.2838   -8.0354    0.0000 C   0  0  0  0  0  0  0  0  0  0  0  0
    4.5743   -7.6144    0.0000 C   0  0  0  0  0  0  0  0  0  0  0  0
    5.9834   -9.2813    0.0000 C   0  0  0  0  0  0  0  0  0  0  0  0
    6.7028   -8.8774    0.0000 C   0  0  0  0  0  0  0  0  0  0  0  0
    6.7126   -8.0525    0.0000 C   0  0  0  0  0  0  0  0  0  0  0  0
    6.0032   -7.6315    0.0000 C   0  0  0  0  0  0  0  0  0  0  0  0
    7.4123   -9.2984    0.0000 C   0  0  0  0  0  0  0  0  0  0  0  0
    8.1316   -8.8945    0.0000 C   0  0  0  0  0  0  0  0  0  0  0  0
    8.1415   -8.0696    0.0000 C   0  0  0  0  0  0  0  0  0  0  0  0
    7.4320   -7.6485    0.0000 C   0  0  0  0  0  0  0  0  0  0  0  0
    8.8411   -9.3155    0.0000 C   0  0  0  0  0  0  0  0  0  0  0  0
    5.9736  -10.1063    0.0000 O   0  0  0  0  0  0  0  0  0  0  0  0
    6.0130   -6.8065    0.0000 O   0  0  0  0  0  0  0  0  0  0  0  0
    4.5743   -6.7894    0.0000 O   0  0  0  0  0  0  0  0  0  0  0  0
    7.4320   -6.8235    0.0000 O   0  0  0  0  0  0  0  0  0  0  0  0
    8.1465   -6.4110    0.0000 C   0  0  0  0  0  0  0  0  0  0  0  0
    8.8560   -7.6571    0.0000 O   0  0  0  0  0  0  0  0  0  0  0  0
    3.1405   -7.6058    0.0000 O   0  0  0  0  0  0  0  0  0  0  0  0
    3.1405   -6.7808    0.0000 C   0  0  0  0  0  0  0  0  0  0  0  0
    3.1306   -9.2558    0.0000 O   0  0  0  0  0  0  0  0  0  0  0  0
    9.5695   -8.0774    0.0000 C   0  0  2  0  0  0  0  0  0  0  0  0
    9.5705   -8.9024    0.0000 O   0  0  0  0  0  0  0  0  0  0  0  0
   10.2854   -9.3141    0.0000 C   0  0  1  0  0  0  0  0  0  0  0  0
   10.9994   -8.9008    0.0000 C   0  0  2  0  0  0  0  0  0  0  0  0
   10.9985   -8.0758    0.0000 C   0  0  1  0  0  0  0  0  0  0  0  0
   10.2835   -7.6641    0.0000 C   0  0  1  0  0  0  0  0  0  0  0  0
   10.2863  -10.1391    0.0000 C   0  0  0  0  0  0  0  0  0  0  0  0
   11.0012  -10.5508    0.0000 O   0  0  0  0  0  0  0  0  0  0  0  0
   11.7125   -7.6625    0.0000 O   0  0  0  0  0  0  0  0  0  0  0  0
   10.2826   -6.8391    0.0000 O   0  0  0  0  0  0  0  0  0  0  0  0
   11.7143   -9.3125    0.0000 O   0  0  0  0  0  0  0  0  0  0  0  0
  1  2  2  0  0  0  0
  1  3  1  0  0  0  0
  3  4  2  0  0  0  0
  4  5  1  0  0  0  0
  5  6  2  0  0  0  0
  6  2  1  0  0  0  0
  4  7  1  0  0  0  0
  7  8  1  0  0  0  0
  8  9  2  0  0  0  0
  9 10  1  0  0  0  0
 10  5  1  0  0  0  0
  8 11  1  0  0  0  0
 11 12  2  0  0  0  0
 12 13  1  0  0  0  0
 13 14  2  0  0  0  0
 14  9  1  0  0  0  0
 12 15  1  0  0  0  0
  7 16  2  0  0  0  0
 10 17  2  0  0  0  0
  6 18  1  0  0  0  0
 14 19  1  0  0  0  0
 19 20  1  0  0  0  0
 13 21  1  0  0  0  0
  2 22  1  0  0  0  0
 22 23  1  0  0  0  0
  1 24  1  0  0  0  0
 25 26  1  0  0  0  0
 26 27  1  0  0  0  0
 27 28  1  0  0  0  0
 28 29  1  0  0  0  0
 29 30  1  0  0  0  0
 30 25  1  0  0  0  0
 27 31  1  1  0  0  0
 31 32  1  0  0  0  0
 29 33  1  1  0  0  0
 30 34  1  6  0  0  0
 28 35  1  6  0  0  0
 25 21  1  1  0  0  0
M  END
>  <cdx:fragmentId>
5

$$$$
