100084.cdx
  Mrv1902 05222410202D          

 35 37  0  0  0  0            999 V2000
    7.0174  -10.2850    0.0000 C   0  0  0  0  0  0  0  0  0  0  0  0
    7.0174  -11.1100    0.0000 C   0  0  0  0  0  0  0  0  0  0  0  0
    7.7319  -11.5225    0.0000 C   0  0  0  0  0  0  0  0  0  0  0  0
    8.4464  -11.1100    0.0000 C   0  0  0  0  0  0  0  0  0  0  0  0
    8.4464  -10.2850    0.0000 C   0  0  0  0  0  0  0  0  0  0  0  0
    7.7319   -9.8725    0.0000 C   0  0  0  0  0  0  0  0  0  0  0  0
    7.7319   -9.0475    0.0000 O   0  0  0  0  0  0  0  0  0  0  0  0
    9.1608   -9.8725    0.0000 O   0  0  0  0  0  0  0  0  0  0  0  0
    7.7319  -12.3475    0.0000 C   0  0  0  0  0  0  0  0  0  0  0  0
    8.4464  -12.7600    0.0000 C   0  0  0  0  0  0  0  0  0  0  0  0
    8.4464  -13.5850    0.0000 C   0  0  0  0  0  0  0  0  0  0  0  0
    9.1608  -13.9975    0.0000 O   0  0  0  0  0  0  0  0  0  0  0  0
    7.7319  -13.9975    0.0000 O   0  0  0  0  0  0  0  0  0  0  0  0
    6.3096   -7.3716    0.0000 C   0  0  2  0  0  0  0  0  0  0  0  0
    5.5956   -7.7850    0.0000 C   0  0  2  0  0  0  0  0  0  0  0  0
    5.5967   -8.6100    0.0000 C   0  0  1  0  0  0  0  0  0  0  0  0
    6.3117   -9.0216    0.0000 C   0  0  2  0  0  0  0  0  0  0  0  0
    7.0257   -8.6081    0.0000 C   0  0  1  0  0  0  0  0  0  0  0  0
    7.0246   -7.7831    0.0000 O   0  0  0  0  0  0  0  0  0  0  0  0
    6.3085   -6.5466    0.0000 C   0  0  0  0  0  0  0  0  0  0  0  0
    4.8828   -9.0235    0.0000 O   0  0  0  0  0  0  0  0  0  0  0  0
    4.8806   -7.3735    0.0000 O   0  0  0  0  0  0  0  0  0  0  0  0
    6.3128   -9.8466    0.0000 O   0  0  0  0  0  0  0  0  0  0  0  0
    5.5935   -6.1350    0.0000 O   0  0  0  0  0  0  0  0  0  0  0  0
    6.3089   -4.0764    0.0000 C   0  0  2  0  0  0  0  0  0  0  0  0
    5.5953   -3.6622    0.0000 C   0  0  2  0  0  0  0  0  0  0  0  0
    4.8799   -4.0731    0.0000 C   0  0  1  0  0  0  0  0  0  0  0  0
    4.8780   -4.8981    0.0000 C   0  0  2  0  0  0  0  0  0  0  0  0
    5.5916   -5.3122    0.0000 C   0  0  1  0  0  0  0  0  0  0  0  0
    6.3070   -4.9014    0.0000 O   0  0  0  0  0  0  0  0  0  0  0  0
    7.0243   -3.6655    0.0000 C   0  0  0  0  0  0  0  0  0  0  0  0
    4.1664   -3.6590    0.0000 O   0  0  0  0  0  0  0  0  0  0  0  0
    5.5972   -2.8372    0.0000 O   0  0  0  0  0  0  0  0  0  0  0  0
    4.1626   -5.3090    0.0000 O   0  0  0  0  0  0  0  0  0  0  0  0
    7.0261   -2.8405    0.0000 O   0  0  0  0  0  0  0  0  0  0  0  0
  1  2  2  0  0  0  0
  2  3  1  0  0  0  0
  3  4  2  0  0  0  0
  4  5  1  0  0  0  0
  5  6  2  0  0  0  0
  6  1  1  0  0  0  0
  6  7  1  0  0  0  0
  5  8  1  0  0  0  0
  3  9  1  0  0  0  0
  9 10  2  0  0  0  0
 10 11  1  0  0  0  0
 11 12  1  0  0  0  0
 11 13  2  0  0  0  0
 14 15  1  0  0  0  0
 15 16  1  0  0  0  0
 16 17  1  0  0  0  0
 17 18  1  0  0  0  0
 18 19  1  0  0  0  0
 19 14  1  0  0  0  0
 14 20  1  1  0  0  0
 16 21  1  1  0  0  0
 15 22  1  6  0  0  0
 17 23  1  6  0  0  0
 20 24  1  0  0  0  0
 25 26  1  0  0  0  0
 26 27  1  0  0  0  0
 27 28  1  0  0  0  0
 28 29  1  0  0  0  0
 29 30  1  0  0  0  0
 30 25  1  0  0  0  0
 25 31  1  1  0  0  0
 27 32  1  1  0  0  0
 26 33  1  6  0  0  0
 28 34  1  6  0  0  0
 31 35  1  0  0  0  0
 29 24  1  1  0  0  0
 18  7  1  1  0  0  0
M  END
>  <cdx:fragmentId>
39

$$$$
