100038.cdx
  Mrv1902 05222410252D          

 13 12  0  0  0  0            999 V2000
    6.9484   -8.4647    0.0000 C   0  0  0  0  0  0  0  0  0  0  0  0
    6.2339   -8.8772    0.0000 C   0  0  0  0  0  0  0  0  0  0  0  0
    5.5195   -8.4647    0.0000 C   0  0  0  0  0  0  0  0  0  0  0  0
    4.8050   -8.8772    0.0000 C   0  0  0  0  0  0  0  0  0  0  0  0
    4.8050   -9.7022    0.0000 C   0  0  0  0  0  0  0  0  0  0  0  0
    6.9484   -7.6397    0.0000 O   0  0  0  0  0  0  0  0  0  0  0  0
    7.6629   -8.8772    0.0000 O   0  0  0  0  0  0  0  0  0  0  0  0
    4.0905   -8.4647    0.0000 C   0  0  0  0  0  0  0  0  0  0  0  0
    8.3774   -8.4647    0.0000 C   0  0  0  0  0  0  0  0  0  0  0  0
    9.0918   -8.8772    0.0000 C   0  0  0  0  0  0  0  0  0  0  0  0
    9.8063   -8.4647    0.0000 C   0  0  0  0  0  0  0  0  0  0  0  0
    9.8063   -7.6397    0.0000 C   0  0  0  0  0  0  0  0  0  0  0  0
   10.5208   -8.8772    0.0000 C   0  0  0  0  0  0  0  0  0  0  0  0
  1  2  1  0  0  0  0
  2  3  2  0  0  0  0
  3  4  1  0  0  0  0
  4  5  1  0  0  0  0
  1  6  2  0  0  0  0
  1  7  1  0  0  0  0
  4  8  1  0  0  0  0
  9 10  1  0  0  0  0
 10 11  1  0  0  0  0
 11 12  1  0  0  0  0
 11 13  1  0  0  0  0
  7  9  1  0  0  0  0
M  END
>  <cdx:fragmentId>
45

$$$$
