100060.cdx
  Mrv1902 05222410272D          

 21 23  0  0  0  0            999 V2000
    8.1453   -7.3647    0.0000 C   0  0  0  0  0  0  0  0  0  0  0  0
    8.8597   -7.7772    0.0000 C   0  0  0  0  0  0  0  0  0  0  0  0
    8.8597   -8.6022    0.0000 C   0  0  0  0  0  0  0  0  0  0  0  0
    8.1453   -9.0147    0.0000 C   0  0  0  0  0  0  0  0  0  0  0  0
    7.4308   -8.6022    0.0000 C   0  0  0  0  0  0  0  0  0  0  0  0
    6.7163   -9.0147    0.0000 C   0  0  0  0  0  0  0  0  0  0  0  0
    6.0018   -8.6022    0.0000 C   0  0  0  0  0  0  0  0  0  0  0  0
    5.2874   -9.0147    0.0000 C   0  0  0  0  0  0  0  0  0  0  0  0
    4.5729   -8.6022    0.0000 C   0  0  0  0  0  0  0  0  0  0  0  0
    4.5729   -7.7772    0.0000 C   0  0  0  0  0  0  0  0  0  0  0  0
    5.2874   -7.3647    0.0000 C   0  0  0  0  0  0  0  0  0  0  0  0
    6.0018   -7.7772    0.0000 C   0  0  0  0  0  0  0  0  0  0  0  0
    6.7163   -7.3647    0.0000 C   0  0  0  0  0  0  0  0  0  0  0  0
    7.4308   -7.7772    0.0000 C   0  0  0  0  0  0  0  0  0  0  0  0
    6.7163   -6.5397    0.0000 O   0  0  0  0  0  0  0  0  0  0  0  0
    6.7163   -9.8397    0.0000 O   0  0  0  0  0  0  0  0  0  0  0  0
    3.8584   -9.0147    0.0000 O   0  0  0  0  0  0  0  0  0  0  0  0
    5.2874   -6.5397    0.0000 O   0  0  0  0  0  0  0  0  0  0  0  0
    9.5742   -9.0147    0.0000 C   0  0  0  0  0  0  0  0  0  0  0  0
    9.5742   -7.3647    0.0000 O   0  0  0  0  0  0  0  0  0  0  0  0
    8.1453   -6.5397    0.0000 O   0  0  0  0  0  0  0  0  0  0  0  0
  1  2  1  0  0  0  0
  2  3  2  0  0  0  0
  3  4  1  0  0  0  0
  4  5  2  0  0  0  0
  5  6  1  0  0  0  0
  6  7  1  0  0  0  0
  7  8  1  0  0  0  0
  8  9  2  0  0  0  0
  9 10  1  0  0  0  0
 10 11  2  0  0  0  0
 11 12  1  0  0  0  0
  7 12  2  0  0  0  0
 12 13  1  0  0  0  0
 13 14  1  0  0  0  0
  5 14  1  0  0  0  0
  1 14  2  0  0  0  0
 13 15  2  0  0  0  0
  6 16  2  0  0  0  0
  9 17  1  0  0  0  0
 11 18  1  0  0  0  0
  3 19  1  0  0  0  0
  2 20  1  0  0  0  0
  1 21  1  0  0  0  0
M  END
>  <cdx:fragmentId>
219

$$$$
