100017.cdx
  Mrv1902 05222410242D          

 34 36  0  0  0  0            999 V2000
    2.4799   -7.4663    0.0000 C   0  0  0  0  0  0  0  0  0  0  0  0
    2.4799   -8.2912    0.0000 C   0  0  0  0  0  0  0  0  0  0  0  0
    3.1944   -8.7037    0.0000 C   0  0  0  0  0  0  0  0  0  0  0  0
    3.9089   -8.2912    0.0000 C   0  0  0  0  0  0  0  0  0  0  0  0
    3.9089   -7.4663    0.0000 C   0  0  0  0  0  0  0  0  0  0  0  0
    3.1944   -7.0537    0.0000 C   0  0  0  0  0  0  0  0  0  0  0  0
    1.7655   -7.0537    0.0000 O   0  0  0  0  0  0  0  0  0  0  0  0
    1.0510   -7.4663    0.0000 C   0  0  0  0  0  0  0  0  0  0  0  0
    1.7655   -8.7037    0.0000 O   0  0  0  0  0  0  0  0  0  0  0  0
    4.6233   -7.0537    0.0000 C   0  0  0  0  0  0  0  0  0  0  0  0
    5.3378   -7.4662    0.0000 C   0  0  0  0  0  0  0  0  0  0  0  0
    6.0523   -7.0537    0.0000 C   0  0  0  0  0  0  0  0  0  0  0  0
    6.7668   -7.4662    0.0000 O   0  0  0  0  0  0  0  0  0  0  0  0
    6.0523   -6.2287    0.0000 O   0  0  0  0  0  0  0  0  0  0  0  0
    8.2007   -7.4747    0.0000 O   0  0  0  0  0  0  0  0  0  0  0  0
    7.4863   -7.0622    0.0000 C   0  0  2  0  0  0  0  0  0  0  0  0
    7.4863   -6.2372    0.0000 C   0  0  1  0  0  0  0  0  0  0  0  0
    8.2007   -5.8247    0.0000 C   0  0  2  0  0  0  0  0  0  0  0  0
    8.9152   -6.2372    0.0000 C   0  0  1  0  0  0  0  0  0  0  0  0
    8.9152   -7.0622    0.0000 C   0  0  1  0  0  0  0  0  0  0  0  0
    6.7718   -5.8247    0.0000 O   0  0  0  0  0  0  0  0  0  0  0  0
    8.2007   -4.9997    0.0000 O   0  0  0  0  0  0  0  0  0  0  0  0
    9.6297   -5.8247    0.0000 O   0  0  0  0  0  0  0  0  0  0  0  0
    9.6297   -7.4747    0.0000 C   0  0  0  0  0  0  0  0  0  0  0  0
   10.3441   -7.0622    0.0000 O   0  0  0  0  0  0  0  0  0  0  0  0
   11.0586   -8.2997    0.0000 O   0  0  0  0  0  0  0  0  0  0  0  0
   11.0586   -7.4747    0.0000 C   0  0  2  0  0  0  0  0  0  0  0  0
   11.7731   -7.0622    0.0000 C   0  0  1  0  0  0  0  0  0  0  0  0
   12.4875   -7.4747    0.0000 C   0  0  2  0  0  0  0  0  0  0  0  0
   12.4875   -8.2997    0.0000 C   0  0  1  0  0  0  0  0  0  0  0  0
   11.7731   -8.7122    0.0000 C   0  0  0  0  0  0  0  0  0  0  0  0
   13.2020   -8.7122    0.0000 O   0  0  0  0  0  0  0  0  0  0  0  0
   13.2020   -7.0622    0.0000 O   0  0  0  0  0  0  0  0  0  0  0  0
   11.7731   -6.2372    0.0000 O   0  0  0  0  0  0  0  0  0  0  0  0
  1  2  2  0  0  0  0
  2  3  1  0  0  0  0
  3  4  2  0  0  0  0
  4  5  1  0  0  0  0
  5  6  2  0  0  0  0
  6  1  1  0  0  0  0
  1  7  1  0  0  0  0
  7  8  1  0  0  0  0
  2  9  1  0  0  0  0
  5 10  1  0  0  0  0
 10 11  2  0  0  0  0
 11 12  1  0  0  0  0
 12 13  1  0  0  0  0
 12 14  2  0  0  0  0
 15 16  1  0  0  0  0
 16 17  1  0  0  0  0
 17 18  1  0  0  0  0
 18 19  1  0  0  0  0
 19 20  1  0  0  0  0
 15 20  1  0  0  0  0
 17 21  1  6  0  0  0
 18 22  1  1  0  0  0
 19 23  1  6  0  0  0
 26 27  1  0  0  0  0
 27 28  1  0  0  0  0
 28 29  1  0  0  0  0
 29 30  1  0  0  0  0
 30 31  1  0  0  0  0
 26 31  1  0  0  0  0
 30 32  1  6  0  0  0
 29 33  1  1  0  0  0
 28 34  1  6  0  0  0
 27 25  1  1  0  0  0
 24 25  1  0  0  0  0
 20 24  1  1  0  0  0
 16 13  1  1  0  0  0
M  END
>  <cdx:fragmentId>
63

$$$$
