100076.cdx
  Mrv1902 05222410262D          

 37 41  0  0  0  0            999 V2000
    8.2566   -9.4845    0.0000 C   0  0  0  0  0  0  0  0  0  0  0  0
    8.1965   -7.0105    0.0000 C   0  0  0  0  0  0  0  0  0  0  0  0
    3.2262   -9.9005    0.0000 C   0  0  0  0  0  0  0  0  0  0  0  0
    2.5120  -10.3134    0.0000 C   0  0  0  0  0  0  0  0  0  0  0  0
    3.2257   -9.0755    0.0000 O   0  0  0  0  0  0  0  0  0  0  0  0
    3.9410  -10.3126    0.0000 O   0  0  0  0  0  0  0  0  0  0  0  0
    5.3689   -8.6617    0.0000 C   0  0  0  0  0  0  0  0  0  0  0  0
    4.6547   -9.0746    0.0000 C   0  0  0  0  0  0  0  0  0  0  0  0
    4.6552   -9.8996    0.0000 C   0  0  1  0  0  0  0  0  0  0  0  0
    5.3699  -10.3117    0.0000 C   0  0  0  0  0  0  0  0  0  0  0  0
    6.0841   -9.8988    0.0000 C   0  0  2  0  0  0  0  0  0  0  0  0
    6.7988  -10.3109    0.0000 C   0  0  0  0  0  0  0  0  0  0  0  0
    7.5131   -9.8979    0.0000 C   0  0  0  0  0  0  0  0  0  0  0  0
    7.5126   -9.0729    0.0000 C   0  0  0  0  0  0  0  0  0  0  0  0
    8.2268   -8.6600    0.0000 C   0  0  2  0  0  0  0  0  0  0  0  0
    8.9415   -9.0721    0.0000 C   0  0  0  0  0  0  0  0  0  0  0  0
    9.6557   -8.6591    0.0000 C   0  0  0  0  0  0  0  0  0  0  0  0
    9.6552   -7.8341    0.0000 C   0  0  1  0  0  0  0  0  0  0  0  0
   10.3695   -7.4212    0.0000 C   0  0  0  0  0  0  0  0  0  0  0  0
   10.3690   -6.5962    0.0000 C   0  0  0  0  0  0  0  0  0  0  0  0
    9.6542   -6.1841    0.0000 C   0  0  2  0  0  0  0  0  0  0  0  0
    8.9400   -6.5971    0.0000 C   0  0  1  0  0  0  0  0  0  0  0  0
    8.9405   -7.4221    0.0000 C   0  0  1  0  0  0  0  0  0  0  0  0
    8.2263   -7.8350    0.0000 C   0  0  1  0  0  0  0  0  0  0  0  0
    7.5116   -7.4229    0.0000 C   0  0  0  0  0  0  0  0  0  0  0  0
    6.7974   -7.8359    0.0000 C   0  0  0  0  0  0  0  0  0  0  0  0
    6.7979   -8.6609    0.0000 C   0  0  2  0  0  0  0  0  0  0  0  0
    6.0836   -9.0738    0.0000 C   0  0  1  0  0  0  0  0  0  0  0  0
    6.0831   -8.2488    0.0000 C   0  0  0  0  0  0  0  0  0  0  0  0
    8.2253   -6.1850    0.0000 C   0  0  0  0  0  0  0  0  0  0  0  0
    9.6537   -5.3591    0.0000 C   0  0  0  0  0  0  0  0  0  0  0  0
   10.3700   -8.2462    0.0000 C   0  0  0  0  0  0  0  0  0  0  0  0
    5.7828  -11.0259    0.0000 C   0  0  0  0  0  0  0  0  0  0  0  0
    4.9578  -11.0264    0.0000 C   0  0  0  0  0  0  0  0  0  0  0  0
    6.0846  -10.7238    0.0000 H   0  0  0  0  0  0  0  0  0  0  0  0
    8.9410   -8.2471    0.0000 H   0  0  0  0  0  0  0  0  0  0  0  0
    6.7984   -9.4859    0.0000 H   0  0  0  0  0  0  0  0  0  0  0  0
 15  1  1  1  0  0  0
 24  2  1  6  0  0  0
  3  4  1  0  0  0  0
  3  5  2  0  0  0  0
  3  6  1  0  0  0  0
  7  8  1  0  0  0  0
  8  9  1  0  0  0  0
  9 10  1  0  0  0  0
 10 11  1  0  0  0  0
 11 12  1  0  0  0  0
 12 13  1  0  0  0  0
 13 14  2  0  0  0  0
 14 15  1  0  0  0  0
 15 16  1  0  0  0  0
 16 17  1  0  0  0  0
 17 18  1  0  0  0  0
 18 19  1  0  0  0  0
 19 20  1  0  0  0  0
 20 21  1  0  0  0  0
 21 22  1  0  0  0  0
 22 23  1  0  0  0  0
 18 23  1  0  0  0  0
 23 24  1  0  0  0  0
 15 24  1  0  0  0  0
 24 25  1  0  0  0  0
 25 26  1  0  0  0  0
 26 27  1  0  0  0  0
 14 27  1  0  0  0  0
 27 28  1  0  0  0  0
 11 28  1  0  0  0  0
  7 28  1  0  0  0  0
 28 29  1  1  0  0  0
 22 30  1  1  0  0  0
 21 31  1  6  0  0  0
 18 32  1  1  0  0  0
 10 33  1  0  0  0  0
 10 34  1  0  0  0  0
  9  6  1  1  0  0  0
 11 35  1  6  0  0  0
 23 36  1  1  0  0  0
 27 37  1  6  0  0  0
M  END
>  <cdx:fragmentId>
13

$$$$
