100036.cdx
  Mrv1902 05222410212D          

 39 43  0  0  0  0            999 V2000
    5.3281  -11.4177    0.0000 O   0  0  0  0  0  0  0  0  0  0  0  0
    8.9091   -6.2809    0.0000 C   0  0  2  0  0  0  0  0  0  0  0  0
    9.6242   -5.8695    0.0000 C   0  0  1  0  0  0  0  0  0  0  0  0
   10.3381   -6.2831    0.0000 C   0  0  0  0  0  0  0  0  0  0  0  0
   10.3368   -7.1081    0.0000 C   0  0  0  0  0  0  0  0  0  0  0  0
    9.6218   -7.5195    0.0000 C   0  0  2  0  0  0  0  0  0  0  0  0
    9.6205   -8.3445    0.0000 C   0  0  0  0  0  0  0  0  0  0  0  0
    8.9055   -8.7559    0.0000 C   0  0  0  0  0  0  0  0  0  0  0  0
    8.1916   -8.3424    0.0000 C   0  0  1  0  0  0  0  0  0  0  0  0
    7.4765   -8.7538    0.0000 C   0  0  2  0  0  0  0  0  0  0  0  0
    7.4753   -9.5788    0.0000 C   0  0  0  0  0  0  0  0  0  0  0  0
    6.7602   -9.9902    0.0000 C   0  0  0  0  0  0  0  0  0  0  0  0
    6.0463   -9.5767    0.0000 C   0  0  1  0  0  0  0  0  0  0  0  0
    5.3313   -9.9881    0.0000 C   0  0  2  0  0  0  0  0  0  0  0  0
    4.6174   -9.5746    0.0000 C   0  0  2  0  0  0  0  0  0  0  0  0
    4.6186   -8.7496    0.0000 C   0  0  1  0  0  0  0  0  0  0  0  0
    5.3337   -8.3381    0.0000 C   0  0  0  0  0  0  0  0  0  0  0  0
    6.0476   -8.7517    0.0000 C   0  0  2  0  0  0  0  0  0  0  0  0
    6.7627   -8.3402    0.0000 C   0  0  1  0  0  0  0  0  0  0  0  0
    6.7639   -7.5153    0.0000 C   0  0  0  0  0  0  0  0  0  0  0  0
    7.4790   -7.1038    0.0000 C   0  0  0  0  0  0  0  0  0  0  0  0
    8.1928   -7.5174    0.0000 C   0  0  0  0  0  0  0  0  0  0  0  0
    8.9079   -7.1059    0.0000 C   0  0  2  0  0  0  0  0  0  0  0  0
   10.3356   -7.9331    0.0000 C   0  0  0  0  0  0  0  0  0  0  0  0
   10.3344   -8.7581    0.0000 O   0  0  0  0  0  0  0  0  0  0  0  0
   11.0507   -7.5216    0.0000 O   0  0  0  0  0  0  0  0  0  0  0  0
    4.9177  -10.7020    0.0000 C   0  0  0  0  0  0  0  0  0  0  0  0
    9.6254   -5.0445    0.0000 C   0  0  0  0  0  0  0  0  0  0  0  0
    8.6956   -5.4840    0.0000 O   0  0  0  0  0  0  0  0  0  0  0  0
    5.7427  -10.7032    0.0000 C   0  0  0  0  0  0  0  0  0  0  0  0
    3.9048   -8.3360    0.0000 O   0  0  0  0  0  0  0  0  0  0  0  0
    3.9023   -9.9860    0.0000 O   0  0  0  0  0  0  0  0  0  0  0  0
    8.1122   -6.0674    0.0000 C   0  0  0  0  0  0  0  0  0  0  0  0
    6.0451  -10.4017    0.0000 H   0  0  0  0  0  0  0  0  0  0  0  0
    8.9079   -7.9309    0.0000 H   0  0  0  0  0  0  0  0  0  0  0  0
    8.1904   -9.1674    0.0000 C   0  0  0  0  0  0  0  0  0  0  0  0
    7.4777   -7.9288    0.0000 C   0  0  0  0  0  0  0  0  0  0  0  0
    6.0488   -7.9267    0.0000 C   0  0  0  0  0  0  0  0  0  0  0  0
    6.7614   -9.1652    0.0000 H   0  0  0  0  0  0  0  0  0  0  0  0
  2  3  1  0  0  0  0
  3  4  1  0  0  0  0
  4  5  1  0  0  0  0
  5  6  1  0  0  0  0
  6  7  1  0  0  0  0
  7  8  1  0  0  0  0
  8  9  1  0  0  0  0
  9 10  1  0  0  0  0
 10 11  1  0  0  0  0
 11 12  1  0  0  0  0
 12 13  1  0  0  0  0
 13 14  1  0  0  0  0
 14 15  1  0  0  0  0
 15 16  1  0  0  0  0
 16 17  1  0  0  0  0
 17 18  1  0  0  0  0
 13 18  1  0  0  0  0
 18 19  1  0  0  0  0
 10 19  1  0  0  0  0
 19 20  1  0  0  0  0
 20 21  1  0  0  0  0
 21 22  2  0  0  0  0
  9 22  1  0  0  0  0
 22 23  1  0  0  0  0
  6 23  1  0  0  0  0
  2 23  1  0  0  0  0
 24 25  2  0  0  0  0
 24 26  1  0  0  0  0
  6 24  1  1  0  0  0
 14 27  1  1  0  0  0
  3 28  1  6  0  0  0
  2 29  1  6  0  0  0
 14 30  1  0  0  0  0
 16 31  1  6  0  0  0
 15 32  1  1  0  0  0
  2 33  1  1  0  0  0
 13 34  1  6  0  0  0
 23 35  1  1  0  0  0
  9 36  1  6  0  0  0
 10 37  1  1  0  0  0
 18 38  1  1  0  0  0
 19 39  1  6  0  0  0
 30  1  1  0  0  0  0
M  END
>  <cdx:fragmentId>
5

$$$$
