100074.cdx
  Mrv1902 05222410272D          

 19 21  0  0  0  0            999 V2000
    6.2291   -7.3975    0.0000 C   0  0  2  0  0  0  0  0  0  0  0  0
    6.2291   -8.2225    0.0000 C   0  0  1  0  0  0  0  0  0  0  0  0
    6.8741   -8.7369    0.0000 C   0  0  0  0  0  0  0  0  0  0  0  0
    7.6784   -8.5533    0.0000 C   0  0  1  0  0  0  0  0  0  0  0  0
    8.0364   -7.8100    0.0000 C   0  0  0  0  0  0  0  0  0  0  0  0
    7.6784   -7.0667    0.0000 C   0  0  0  0  0  0  0  0  0  0  0  0
    6.8741   -6.8831    0.0000 C   0  0  2  0  0  0  0  0  0  0  0  0
    5.4445   -7.1426    0.0000 C   0  0  0  0  0  0  0  0  0  0  0  0
    4.9595   -7.8100    0.0000 C   0  0  0  0  0  0  0  0  0  0  0  0
    5.4445   -8.4774    0.0000 C   0  0  2  0  0  0  0  0  0  0  0  0
    6.6905   -6.0788    0.0000 C   0  0  0  0  0  0  0  0  0  0  0  0
    4.7300   -8.8899    0.0000 C   0  0  0  0  0  0  0  0  0  0  0  0
    8.1928   -9.1983    0.0000 C   0  0  0  0  0  0  0  0  0  0  0  0
    5.4445   -9.3024    0.0000 O   0  0  0  0  0  0  0  0  0  0  0  0
    6.9436   -7.8100    0.0000 O   0  0  0  0  0  0  0  0  0  0  0  0
    7.8914   -9.9663    0.0000 C   0  0  0  0  0  0  0  0  0  0  0  0
    9.0086   -9.0754    0.0000 C   0  0  0  0  0  0  0  0  0  0  0  0
    8.4058  -10.6113    0.0000 O   0  0  0  0  0  0  0  0  0  0  0  0
    7.0756  -10.0892    0.0000 O   0  0  0  0  0  0  0  0  0  0  0  0
  1  2  1  0  0  0  0
  2  3  1  0  0  0  0
  3  4  1  0  0  0  0
  4  5  1  0  0  0  0
  5  6  1  0  0  0  0
  6  7  1  0  0  0  0
  7  1  1  0  0  0  0
  1  8  1  0  0  0  0
  8  9  1  0  0  0  0
  9 10  1  0  0  0  0
 10  2  1  0  0  0  0
  7 11  1  1  0  0  0
 10 12  1  1  0  0  0
  4 13  1  1  0  0  0
 10 14  1  6  0  0  0
  1 15  1  6  0  0  0
  2 15  1  6  0  0  0
 13 16  1  0  0  0  0
 13 17  2  0  0  0  0
 16 18  1  0  0  0  0
 16 19  2  0  0  0  0
M  END
>  <cdx:fragmentId>
5

$$$$
