100085.cdx
  Mrv1902 05222410202D          

 46 49  0  0  0  0            999 V2000
    6.8249  -11.3712    0.0000 C   0  0  0  0  0  0  0  0  0  0  0  0
    6.8249  -12.1963    0.0000 C   0  0  0  0  0  0  0  0  0  0  0  0
    7.5394  -12.6088    0.0000 C   0  0  0  0  0  0  0  0  0  0  0  0
    8.2539  -12.1963    0.0000 C   0  0  0  0  0  0  0  0  0  0  0  0
    8.2539  -11.3712    0.0000 C   0  0  0  0  0  0  0  0  0  0  0  0
    7.5394  -10.9588    0.0000 C   0  0  0  0  0  0  0  0  0  0  0  0
    7.5394  -10.1338    0.0000 O   0  0  0  0  0  0  0  0  0  0  0  0
    8.9683  -10.9588    0.0000 O   0  0  0  0  0  0  0  0  0  0  0  0
    7.5394  -13.4337    0.0000 C   0  0  0  0  0  0  0  0  0  0  0  0
    8.2539  -13.8462    0.0000 C   0  0  0  0  0  0  0  0  0  0  0  0
    8.2539  -14.6712    0.0000 C   0  0  0  0  0  0  0  0  0  0  0  0
    8.9683  -15.0837    0.0000 O   0  0  0  0  0  0  0  0  0  0  0  0
    7.5394  -15.0837    0.0000 O   0  0  0  0  0  0  0  0  0  0  0  0
    6.1171   -8.4578    0.0000 C   0  0  2  0  0  0  0  0  0  0  0  0
    5.4031   -8.8713    0.0000 C   0  0  2  0  0  0  0  0  0  0  0  0
    5.4042   -9.6963    0.0000 C   0  0  1  0  0  0  0  0  0  0  0  0
    6.1192  -10.1078    0.0000 C   0  0  2  0  0  0  0  0  0  0  0  0
    6.8332   -9.6944    0.0000 C   0  0  1  0  0  0  0  0  0  0  0  0
    6.8321   -8.8694    0.0000 O   0  0  0  0  0  0  0  0  0  0  0  0
    6.1160   -7.6328    0.0000 C   0  0  0  0  0  0  0  0  0  0  0  0
    4.6903  -10.1097    0.0000 O   0  0  0  0  0  0  0  0  0  0  0  0
    4.6881   -8.4597    0.0000 O   0  0  0  0  0  0  0  0  0  0  0  0
    6.1203  -10.9328    0.0000 O   0  0  0  0  0  0  0  0  0  0  0  0
    5.4010   -7.2213    0.0000 O   0  0  0  0  0  0  0  0  0  0  0  0
    6.1164   -5.1626    0.0000 C   0  0  2  0  0  0  0  0  0  0  0  0
    5.4028   -4.7485    0.0000 C   0  0  2  0  0  0  0  0  0  0  0  0
    4.6874   -5.1593    0.0000 C   0  0  1  0  0  0  0  0  0  0  0  0
    4.6855   -5.9843    0.0000 C   0  0  2  0  0  0  0  0  0  0  0  0
    5.3991   -6.3985    0.0000 C   0  0  1  0  0  0  0  0  0  0  0  0
    6.1145   -5.9876    0.0000 O   0  0  0  0  0  0  0  0  0  0  0  0
    6.8318   -4.7517    0.0000 C   0  0  0  0  0  0  0  0  0  0  0  0
    3.9739   -4.7452    0.0000 O   0  0  0  0  0  0  0  0  0  0  0  0
    5.4047   -3.9235    0.0000 O   0  0  0  0  0  0  0  0  0  0  0  0
    3.9701   -6.3952    0.0000 O   0  0  0  0  0  0  0  0  0  0  0  0
    6.8336   -3.9267    0.0000 O   0  0  0  0  0  0  0  0  0  0  0  0
    8.9876   -3.5102    0.0000 C   0  0  2  0  0  0  0  0  0  0  0  0
    8.9876   -2.6852    0.0000 C   0  0  2  0  0  0  0  0  0  0  0  0
    8.2731   -2.2727    0.0000 C   0  0  1  0  0  0  0  0  0  0  0  0
    7.5587   -2.6853    0.0000 C   0  0  2  0  0  0  0  0  0  0  0  0
    7.5587   -3.5103    0.0000 C   0  0  1  0  0  0  0  0  0  0  0  0
    8.2732   -3.9227    0.0000 O   0  0  0  0  0  0  0  0  0  0  0  0
    9.7021   -3.9227    0.0000 C   0  0  0  0  0  0  0  0  0  0  0  0
    8.2731   -1.4477    0.0000 O   0  0  0  0  0  0  0  0  0  0  0  0
    9.7021   -2.2727    0.0000 O   0  0  0  0  0  0  0  0  0  0  0  0
    6.8442   -2.2728    0.0000 O   0  0  0  0  0  0  0  0  0  0  0  0
   10.4166   -3.5102    0.0000 O   0  0  0  0  0  0  0  0  0  0  0  0
  1  2  2  0  0  0  0
  2  3  1  0  0  0  0
  3  4  2  0  0  0  0
  4  5  1  0  0  0  0
  5  6  2  0  0  0  0
  6  1  1  0  0  0  0
  6  7  1  0  0  0  0
  5  8  1  0  0  0  0
  3  9  1  0  0  0  0
  9 10  2  0  0  0  0
 10 11  1  0  0  0  0
 11 12  1  0  0  0  0
 11 13  2  0  0  0  0
 14 15  1  0  0  0  0
 15 16  1  0  0  0  0
 16 17  1  0  0  0  0
 17 18  1  0  0  0  0
 18 19  1  0  0  0  0
 19 14  1  0  0  0  0
 14 20  1  1  0  0  0
 16 21  1  1  0  0  0
 15 22  1  6  0  0  0
 17 23  1  6  0  0  0
 20 24  1  0  0  0  0
 25 26  1  0  0  0  0
 26 27  1  0  0  0  0
 27 28  1  0  0  0  0
 28 29  1  0  0  0  0
 29 30  1  0  0  0  0
 30 25  1  0  0  0  0
 25 31  1  1  0  0  0
 27 32  1  1  0  0  0
 26 33  1  6  0  0  0
 28 34  1  6  0  0  0
 31 35  1  0  0  0  0
 29 24  1  1  0  0  0
 18  7  1  1  0  0  0
 36 37  1  0  0  0  0
 37 38  1  0  0  0  0
 38 39  1  0  0  0  0
 39 40  1  0  0  0  0
 40 41  1  0  0  0  0
 41 36  1  0  0  0  0
 36 42  1  1  0  0  0
 38 43  1  1  0  0  0
 37 44  1  6  0  0  0
 39 45  1  6  0  0  0
 42 46  1  0  0  0  0
 40 35  1  1  0  0  0
M  END
>  <cdx:fragmentId>
39

$$$$
