100018.cdx
  Mrv1902 05222410232D          

 32 34  0  0  0  0            999 V2000
    1.9712   -8.1125    0.0000 C   0  0  0  0  0  0  0  0  0  0  0  0
    1.9712   -8.9375    0.0000 C   0  0  0  0  0  0  0  0  0  0  0  0
    2.6856   -9.3500    0.0000 C   0  0  0  0  0  0  0  0  0  0  0  0
    3.4001   -8.9375    0.0000 C   0  0  0  0  0  0  0  0  0  0  0  0
    3.4001   -8.1125    0.0000 C   0  0  0  0  0  0  0  0  0  0  0  0
    2.6856   -7.7000    0.0000 C   0  0  0  0  0  0  0  0  0  0  0  0
    1.2567   -9.3500    0.0000 O   0  0  0  0  0  0  0  0  0  0  0  0
    4.1146   -7.7000    0.0000 C   0  0  0  0  0  0  0  0  0  0  0  0
    4.8291   -8.1125    0.0000 C   0  0  0  0  0  0  0  0  0  0  0  0
    5.5435   -7.7000    0.0000 C   0  0  0  0  0  0  0  0  0  0  0  0
    6.2580   -8.1125    0.0000 O   0  0  0  0  0  0  0  0  0  0  0  0
    5.5435   -6.8750    0.0000 O   0  0  0  0  0  0  0  0  0  0  0  0
    7.6920   -8.1210    0.0000 O   0  0  0  0  0  0  0  0  0  0  0  0
    6.9775   -7.7085    0.0000 C   0  0  2  0  0  0  0  0  0  0  0  0
    6.9775   -6.8835    0.0000 C   0  0  1  0  0  0  0  0  0  0  0  0
    7.6920   -6.4710    0.0000 C   0  0  2  0  0  0  0  0  0  0  0  0
    8.4064   -6.8835    0.0000 C   0  0  1  0  0  0  0  0  0  0  0  0
    8.4064   -7.7085    0.0000 C   0  0  1  0  0  0  0  0  0  0  0  0
    6.2630   -6.4710    0.0000 O   0  0  0  0  0  0  0  0  0  0  0  0
    7.6920   -5.6460    0.0000 O   0  0  0  0  0  0  0  0  0  0  0  0
    9.1209   -6.4710    0.0000 O   0  0  0  0  0  0  0  0  0  0  0  0
    9.1209   -8.1210    0.0000 C   0  0  0  0  0  0  0  0  0  0  0  0
    9.8354   -7.7085    0.0000 O   0  0  0  0  0  0  0  0  0  0  0  0
   10.5499   -8.9460    0.0000 O   0  0  0  0  0  0  0  0  0  0  0  0
   10.5499   -8.1210    0.0000 C   0  0  2  0  0  0  0  0  0  0  0  0
   11.2643   -7.7085    0.0000 C   0  0  1  0  0  0  0  0  0  0  0  0
   11.9788   -8.1210    0.0000 C   0  0  2  0  0  0  0  0  0  0  0  0
   11.9788   -8.9460    0.0000 C   0  0  1  0  0  0  0  0  0  0  0  0
   11.2643   -9.3585    0.0000 C   0  0  0  0  0  0  0  0  0  0  0  0
   12.6933   -9.3585    0.0000 O   0  0  0  0  0  0  0  0  0  0  0  0
   12.6933   -7.7085    0.0000 O   0  0  0  0  0  0  0  0  0  0  0  0
   11.2643   -6.8835    0.0000 O   0  0  0  0  0  0  0  0  0  0  0  0
  1  2  2  0  0  0  0
  2  3  1  0  0  0  0
  3  4  2  0  0  0  0
  4  5  1  0  0  0  0
  5  6  2  0  0  0  0
  6  1  1  0  0  0  0
  2  7  1  0  0  0  0
  5  8  1  0  0  0  0
  8  9  2  0  0  0  0
  9 10  1  0  0  0  0
 10 11  1  0  0  0  0
 10 12  2  0  0  0  0
 13 14  1  0  0  0  0
 14 15  1  0  0  0  0
 15 16  1  0  0  0  0
 16 17  1  0  0  0  0
 17 18  1  0  0  0  0
 13 18  1  0  0  0  0
 15 19  1  6  0  0  0
 16 20  1  1  0  0  0
 17 21  1  6  0  0  0
 24 25  1  0  0  0  0
 25 26  1  0  0  0  0
 26 27  1  0  0  0  0
 27 28  1  0  0  0  0
 28 29  1  0  0  0  0
 24 29  1  0  0  0  0
 28 30  1  6  0  0  0
 27 31  1  1  0  0  0
 26 32  1  6  0  0  0
 25 23  1  1  0  0  0
 22 23  1  0  0  0  0
 18 22  1  1  0  0  0
 14 11  1  1  0  0  0
M  END
>  <cdx:fragmentId>
63

$$$$
