100054.cdx
  Mrv1902 05222410192D          

 59 60  0  0  0  0            999 V2000
   19.3227   -8.3933    0.0000 C   0  0  0  0  0  0  0  0  0  0  0  0
   18.6083   -7.9808    0.0000 C   0  0  0  0  0  0  0  0  0  0  0  0
   17.8938   -8.3933    0.0000 C   0  0  0  0  0  0  0  0  0  0  0  0
   17.1793   -7.9808    0.0000 C   0  0  0  0  0  0  0  0  0  0  0  0
   16.4649   -8.3933    0.0000 C   0  0  0  0  0  0  0  0  0  0  0  0
   15.7504   -7.9808    0.0000 C   0  0  0  0  0  0  0  0  0  0  0  0
   15.0359   -8.3933    0.0000 C   0  0  0  0  0  0  0  0  0  0  0  0
   14.3214   -7.9808    0.0000 C   0  0  0  0  0  0  0  0  0  0  0  0
   13.6070   -8.3933    0.0000 C   0  0  0  0  0  0  0  0  0  0  0  0
   12.8925   -7.9808    0.0000 C   0  0  0  0  0  0  0  0  0  0  0  0
   12.1780   -8.3933    0.0000 C   0  0  0  0  0  0  0  0  0  0  0  0
   11.4636   -7.9808    0.0000 C   0  0  0  0  0  0  0  0  0  0  0  0
   10.7491   -8.3933    0.0000 C   0  0  0  0  0  0  0  0  0  0  0  0
   10.0346   -7.9808    0.0000 C   0  0  0  0  0  0  0  0  0  0  0  0
    9.3201   -8.3933    0.0000 C   0  0  0  0  0  0  0  0  0  0  0  0
    8.6057   -7.9808    0.0000 C   0  0  0  0  0  0  0  0  0  0  0  0
    7.8912   -8.3933    0.0000 C   0  0  0  0  0  0  0  0  0  0  0  0
    7.1767   -7.9808    0.0000 C   0  0  0  0  0  0  0  0  0  0  0  0
    6.4623   -8.3933    0.0000 C   0  0  0  0  0  0  0  0  0  0  0  0
    5.7478   -7.9808    0.0000 C   0  0  0  0  0  0  0  0  0  0  0  0
   19.3227   -9.2183    0.0000 O   0  0  0  0  0  0  0  0  0  0  0  0
    5.7478   -7.1558    0.0000 O   0  0  0  0  0  0  0  0  0  0  0  0
    7.8912   -9.2183    0.0000 C   0  0  0  0  0  0  0  0  0  0  0  0
   10.7491   -9.2183    0.0000 C   0  0  0  0  0  0  0  0  0  0  0  0
   14.3214   -7.1558    0.0000 C   0  0  0  0  0  0  0  0  0  0  0  0
   17.1793   -7.1558    0.0000 C   0  0  0  0  0  0  0  0  0  0  0  0
    5.0333   -8.3933    0.0000 C   0  0  1  0  0  0  0  0  0  0  0  0
    4.5484   -9.0607    0.0000 C   0  0  0  0  0  0  0  0  0  0  0  0
    3.7638   -8.8058    0.0000 C   0  0  0  0  0  0  0  0  0  0  0  0
    3.7638   -7.9808    0.0000 C   0  0  1  0  0  0  0  0  0  0  0  0
    4.5484   -7.7258    0.0000 C   0  0  0  0  0  0  0  0  0  0  0  0
    5.1615   -9.6127    0.0000 C   0  0  0  0  0  0  0  0  0  0  0  0
    4.3769   -9.8677    0.0000 C   0  0  0  0  0  0  0  0  0  0  0  0
    5.7478   -8.8058    0.0000 C   0  0  0  0  0  0  0  0  0  0  0  0
    3.0963   -7.4958    0.0000 O   0  0  0  0  0  0  0  0  0  0  0  0
   20.0372   -7.9808    0.0000 C   0  0  1  0  0  0  0  0  0  0  0  0
   20.5221   -7.3133    0.0000 C   0  0  0  0  0  0  0  0  0  0  0  0
   21.3068   -7.5683    0.0000 C   0  0  0  0  0  0  0  0  0  0  0  0
   21.3068   -8.3933    0.0000 C   0  0  1  0  0  0  0  0  0  0  0  0
   20.5221   -8.6482    0.0000 C   0  0  0  0  0  0  0  0  0  0  0  0
   19.9090   -6.7613    0.0000 C   0  0  0  0  0  0  0  0  0  0  0  0
   20.6937   -6.5064    0.0000 C   0  0  0  0  0  0  0  0  0  0  0  0
   19.3227   -7.5683    0.0000 C   0  0  0  0  0  0  0  0  0  0  0  0
   21.9742   -8.8782    0.0000 O   0  0  0  0  0  0  0  0  0  0  0  0
    3.0947   -6.6628    0.0000 C   0  0  0  0  0  0  0  0  0  0  0  0
   10.9535   -6.2433    0.0000 C   0  0  0  0  0  0  0  0  0  0  0  0
    2.3798   -6.2509    0.0000 O   0  0  0  0  0  0  0  0  0  0  0  0
   10.2394   -6.6564    0.0000 C   0  0  0  0  0  0  0  0  0  0  0  0
    9.5246   -6.2446    0.0000 C   0  0  0  0  0  0  0  0  0  0  0  0
    8.8104   -6.6577    0.0000 C   0  0  0  0  0  0  0  0  0  0  0  0
    8.0956   -6.2458    0.0000 C   0  0  0  0  0  0  0  0  0  0  0  0
    7.3815   -6.6590    0.0000 C   0  0  0  0  0  0  0  0  0  0  0  0
    6.6667   -6.2471    0.0000 C   0  0  0  0  0  0  0  0  0  0  0  0
    5.9526   -6.6602    0.0000 C   0  0  0  0  0  0  0  0  0  0  0  0
    5.2377   -6.2484    0.0000 C   0  0  0  0  0  0  0  0  0  0  0  0
    4.5236   -6.6615    0.0000 C   0  0  0  0  0  0  0  0  0  0  0  0
    3.8088   -6.2497    0.0000 C   0  0  0  0  0  0  0  0  0  0  0  0
   11.6683   -6.6551    0.0000 C   0  0  0  0  0  0  0  0  0  0  0  0
   12.3824   -6.2420    0.0000 C   0  0  0  0  0  0  0  0  0  0  0  0
  1  2  1  0  0  0  0
  2  3  2  0  0  0  0
  3  4  1  0  0  0  0
  4  5  2  0  0  0  0
  5  6  1  0  0  0  0
  6  7  2  0  0  0  0
  7  8  1  0  0  0  0
  8  9  2  0  0  0  0
  9 10  1  0  0  0  0
 10 11  2  0  0  0  0
 11 12  1  0  0  0  0
 12 13  2  0  0  0  0
 13 14  1  0  0  0  0
 14 15  2  0  0  0  0
 15 16  1  0  0  0  0
 16 17  2  0  0  0  0
 17 18  1  0  0  0  0
 18 19  2  0  0  0  0
 19 20  1  0  0  0  0
  1 21  2  0  0  0  0
 20 22  2  0  0  0  0
 17 23  1  0  0  0  0
 13 24  1  0  0  0  0
  8 25  1  0  0  0  0
  4 26  1  0  0  0  0
 27 28  1  0  0  0  0
 28 29  1  0  0  0  0
 29 30  1  0  0  0  0
 30 31  1  0  0  0  0
 27 31  1  0  0  0  0
 28 32  1  0  0  0  0
 28 33  1  0  0  0  0
 27 34  1  6  0  0  0
 30 35  1  6  0  0  0
 27 20  1  1  0  0  0
 36 37  1  0  0  0  0
 37 38  1  0  0  0  0
 38 39  1  0  0  0  0
 39 40  1  0  0  0  0
 36 40  1  0  0  0  0
 37 41  1  0  0  0  0
 37 42  1  0  0  0  0
 36 43  1  6  0  0  0
 39 44  1  6  0  0  0
 36  1  1  1  0  0  0
 48 46  1  0  0  0  0
 49 48  1  0  0  0  0
 50 49  1  0  0  0  0
 51 50  1  0  0  0  0
 52 51  1  0  0  0  0
 53 52  1  0  0  0  0
 54 53  1  0  0  0  0
 55 54  1  0  0  0  0
 56 55  1  0  0  0  0
 57 56  1  0  0  0  0
 45 57  1  0  0  0  0
 45 47  2  0  0  0  0
 35 45  1  0  0  0  0
 46 58  1  0  0  0  0
 58 59  1  0  0  0  0
M  END
>  <cdx:fragmentId>
5

$$$$
