1000.cdx
  Mrv1902 05222410242D          

 10 10  0  0  0  0            999 V2000
    4.1342   -3.0261    0.0000 C   0  0  0  0  0  0  0  0  0  0  0  0
    4.8486   -2.6136    0.0000 C   0  0  0  0  0  0  0  0  0  0  0  0
    3.4197   -2.6136    0.0000 C   0  0  0  0  0  0  0  0  0  0  0  0
    2.7052   -3.0261    0.0000 C   0  0  0  0  0  0  0  0  0  0  0  0
    1.9907   -2.6136    0.0000 C   0  0  0  0  0  0  0  0  0  0  0  0
    1.9907   -1.7886    0.0000 C   0  0  0  0  0  0  0  0  0  0  0  0
    2.7052   -1.3761    0.0000 C   0  0  0  0  0  0  0  0  0  0  0  0
    3.4197   -1.7886    0.0000 C   0  0  0  0  0  0  0  0  0  0  0  0
    5.5631   -3.0261    0.0000 N   0  0  0  0  0  0  0  0  0  0  0  0
    4.1342   -3.8511    0.0000 O   0  0  0  0  0  0  0  0  0  0  0  0
  1  2  1  0  0  0  0
  3  4  1  0  0  0  0
  4  5  2  0  0  0  0
  5  6  1  0  0  0  0
  6  7  2  0  0  0  0
  7  8  1  0  0  0  0
  3  8  2  0  0  0  0
  1  3  1  0  0  0  0
  2  9  1  0  0  0  0
  1 10  1  0  0  0  0
M  END
>  <cdx:groupId>
32

>  <cdx:fragmentId>
9

$$$$
