100007.cdx
  Mrv1902 05222410252D          

 11 11  0  0  0  0            999 V2000
    5.8738   -7.7265    0.0000 C   0  0  0  0  0  0  0  0  0  0  0  0
    9.1465   -8.6787    0.0000 C   0  0  0  0  0  0  0  0  0  0  0  0
    8.5405   -8.1188    0.0000 C   0  0  0  0  0  0  0  0  0  0  0  0
    8.7224   -7.3141    0.0000 C   0  0  0  0  0  0  0  0  0  0  0  0
    5.0647   -7.8877    0.0000 C   0  0  0  0  0  0  0  0  0  0  0  0
    5.6088   -8.5078    0.0000 C   0  0  0  0  0  0  0  0  0  0  0  0
    7.7527   -8.3637    0.0000 C   0  0  1  0  0  0  0  0  0  0  0  0
    7.4877   -9.1450    0.0000 C   0  0  0  0  0  0  0  0  0  0  0  0
    6.6628   -9.1344    0.0000 C   0  0  0  0  0  0  0  0  0  0  0  0
    6.4179   -8.3466    0.0000 C   0  0  2  0  0  0  0  0  0  0  0  0
    7.0915   -7.8703    0.0000 O   0  0  0  0  0  0  0  0  0  0  0  0
 10  1  1  1  0  0  0
  7  3  1  1  0  0  0
  3  2  1  0  0  0  0
  4  3  2  0  0  0  0
 10  6  1  0  0  0  0
  6  5  2  0  0  0  0
 11  7  1  0  0  0  0
  8  7  1  0  0  0  0
  9  8  1  0  0  0  0
 10  9  1  0  0  0  0
 11 10  1  0  0  0  0
M  END
>  <cdx:fragmentId>
5

$$$$
