100091.cdx
  Mrv1902 05222410202D          

 43 47  0  0  0  0            999 V2000
    6.5499   -9.5563    0.0000 C   0  0  0  0  0  0  0  0  0  0  0  0
    6.5499  -10.3812    0.0000 C   0  0  0  0  0  0  0  0  0  0  0  0
    7.2644  -10.7937    0.0000 C   0  0  0  0  0  0  0  0  0  0  0  0
    7.9789  -10.3812    0.0000 C   0  0  0  0  0  0  0  0  0  0  0  0
    7.9789   -9.5563    0.0000 C   0  0  0  0  0  0  0  0  0  0  0  0
    7.2644   -9.1438    0.0000 C   0  0  0  0  0  0  0  0  0  0  0  0
    8.6933  -10.7937    0.0000 C   0  0  0  0  0  0  0  0  0  0  0  0
    9.4078  -10.3812    0.0000 C   0  0  0  0  0  0  0  0  0  0  0  0
    9.4078   -9.5563    0.0000 C   0  0  0  0  0  0  0  0  0  0  0  0
    8.6933   -9.1438    0.0000 O   0  0  0  0  0  0  0  0  0  0  0  0
   10.8368   -9.5563    0.0000 C   0  0  0  0  0  0  0  0  0  0  0  0
   10.1223   -9.1438    0.0000 C   0  0  0  0  0  0  0  0  0  0  0  0
   11.5512   -9.1438    0.0000 C   0  0  0  0  0  0  0  0  0  0  0  0
   11.5512   -8.3187    0.0000 C   0  0  0  0  0  0  0  0  0  0  0  0
   10.8368   -7.9063    0.0000 C   0  0  0  0  0  0  0  0  0  0  0  0
   10.1223   -8.3187    0.0000 C   0  0  0  0  0  0  0  0  0  0  0  0
    5.8355   -9.1438    0.0000 O   0  0  0  0  0  0  0  0  0  0  0  0
    5.8355  -10.7937    0.0000 O   0  0  0  0  0  0  0  0  0  0  0  0
    7.2644  -11.6187    0.0000 O   0  0  0  0  0  0  0  0  0  0  0  0
    8.6933  -11.6187    0.0000 O   0  0  0  0  0  0  0  0  0  0  0  0
   12.2657   -7.9063    0.0000 O   0  0  0  0  0  0  0  0  0  0  0  0
    5.1437   -9.5493    0.0000 O   0  0  0  0  0  0  0  0  0  0  0  0
    5.1309  -10.3742    0.0000 C   0  0  0  0  0  0  0  0  0  0  0  0
    4.4101  -10.7756    0.0000 C   0  0  0  0  0  0  0  0  0  0  0  0
    3.7021  -10.3521    0.0000 C   0  0  0  0  0  0  0  0  0  0  0  0
    3.7149   -9.5272    0.0000 C   0  0  0  0  0  0  0  0  0  0  0  0
    4.4357   -9.1258    0.0000 C   0  0  0  0  0  0  0  0  0  0  0  0
    4.4485   -8.3009    0.0000 C   0  0  0  0  0  0  0  0  0  0  0  0
    3.7405   -7.8774    0.0000 O   0  0  0  0  0  0  0  0  0  0  0  0
    3.0453   -6.6289    0.0000 O   0  0  0  0  0  0  0  0  0  0  0  0
    3.7533   -7.0525    0.0000 C   0  0  0  0  0  0  0  0  0  0  0  0
    4.4741   -6.6511    0.0000 C   0  0  0  0  0  0  0  0  0  0  0  0
    4.4869   -5.8262    0.0000 C   0  0  0  0  0  0  0  0  0  0  0  0
    3.7789   -5.4027    0.0000 C   0  0  0  0  0  0  0  0  0  0  0  0
    3.0581   -5.8040    0.0000 C   0  0  0  0  0  0  0  0  0  0  0  0
    2.3501   -5.3805    0.0000 C   0  0  0  0  0  0  0  0  0  0  0  0
    3.7917   -4.5778    0.0000 O   0  0  0  0  0  0  0  0  0  0  0  0
    5.2076   -5.4248    0.0000 O   0  0  0  0  0  0  0  0  0  0  0  0
    5.1821   -7.0746    0.0000 O   0  0  0  0  0  0  0  0  0  0  0  0
    3.0069   -9.1036    0.0000 O   0  0  0  0  0  0  0  0  0  0  0  0
    2.9813  -10.7534    0.0000 O   0  0  0  0  0  0  0  0  0  0  0  0
    4.3973  -11.6005    0.0000 O   0  0  0  0  0  0  0  0  0  0  0  0
    5.8355   -8.3187    0.0000 C   0  0  0  0  0  0  0  0  0  0  0  0
  1  2  2  0  0  0  0
  2  3  1  0  0  0  0
  3  4  2  0  0  0  0
  4  5  1  0  0  0  0
  5  6  2  0  0  0  0
  6  1  1  0  0  0  0
  4  7  1  0  0  0  0
  7  8  1  0  0  0  0
  8  9  2  0  0  0  0
  9 10  1  0  0  0  0
 10  5  1  0  0  0  0
 11 12  2  0  0  0  0
 12  9  1  0  0  0  0
 11 13  1  0  0  0  0
 13 14  2  0  0  0  0
 14 15  1  0  0  0  0
 15 16  2  0  0  0  0
 16 12  1  0  0  0  0
  1 17  1  0  0  0  0
  2 18  1  0  0  0  0
  3 19  1  0  0  0  0
  7 20  2  0  0  0  0
 14 21  1  0  0  0  0
 22 23  1  0  0  0  0
 23 24  1  0  0  0  0
 24 25  1  0  0  0  0
 25 26  1  0  0  0  0
 26 27  1  0  0  0  0
 22 27  1  0  0  0  0
 30 31  1  0  0  0  0
 31 32  1  0  0  0  0
 32 33  1  0  0  0  0
 33 34  1  0  0  0  0
 34 35  1  0  0  0  0
 30 35  1  0  0  0  0
 35 36  1  0  0  0  0
 34 37  1  0  0  0  0
 33 38  1  0  0  0  0
 32 39  1  0  0  0  0
 29 31  1  0  0  0  0
 28 29  1  0  0  0  0
 27 28  1  0  0  0  0
 26 40  1  0  0  0  0
 25 41  1  0  0  0  0
 24 42  1  0  0  0  0
 17 43  1  0  0  0  0
 23 18  1  0  0  0  0
M  END
>  <cdx:fragmentId>
5

$$$$
