100065.cdx
  Mrv1902 05222410272D          

 72 79  0  0  0  0            999 V2000
    7.2393   -8.9962    0.0000 O   0  0  0  0  0  0  0  0  0  0  0  0
    6.5248   -8.5837    0.0000 C   0  0  1  0  0  0  0  0  0  0  0  0
    5.8103   -8.9962    0.0000 C   0  0  2  0  0  0  0  0  0  0  0  0
    5.8103   -9.8212    0.0000 C   0  0  1  0  0  0  0  0  0  0  0  0
    6.5248  -10.2337    0.0000 C   0  0  2  0  0  0  0  0  0  0  0  0
    7.2393   -9.8212    0.0000 C   0  0  2  0  0  0  0  0  0  0  0  0
    6.5248   -7.7587    0.0000 C   0  0  0  0  0  0  0  0  0  0  0  0
    5.8103   -7.3462    0.0000 O   0  0  0  0  0  0  0  0  0  0  0  0
    5.0959  -10.2337    0.0000 O   0  0  0  0  0  0  0  0  0  0  0  0
    4.3814   -8.9962    0.0000 O   0  0  0  0  0  0  0  0  0  0  0  0
    4.3814   -9.8212    0.0000 C   0  0  2  0  0  0  0  0  0  0  0  0
    3.6669  -10.2337    0.0000 C   0  0  1  0  0  0  0  0  0  0  0  0
    2.9525   -9.8212    0.0000 C   0  0  2  0  0  0  0  0  0  0  0  0
    2.9525   -8.9962    0.0000 C   0  0  1  0  0  0  0  0  0  0  0  0
    3.6669   -8.5837    0.0000 C   0  0  1  0  0  0  0  0  0  0  0  0
    2.2380   -8.5837    0.0000 O   0  0  0  0  0  0  0  0  0  0  0  0
    2.2380  -10.2337    0.0000 O   0  0  0  0  0  0  0  0  0  0  0  0
    3.6669  -11.0587    0.0000 O   0  0  0  0  0  0  0  0  0  0  0  0
    6.5248  -11.0587    0.0000 O   0  0  0  0  0  0  0  0  0  0  0  0
    5.0959   -8.5837    0.0000 O   0  0  0  0  0  0  0  0  0  0  0  0
    7.9538  -10.2337    0.0000 O   0  0  0  0  0  0  0  0  0  0  0  0
    9.3827   -8.5837    0.0000 C   0  0  0  0  0  0  0  0  0  0  0  0
    8.6682   -8.9962    0.0000 C   0  0  1  0  0  0  0  0  0  0  0  0
    8.6682   -9.8212    0.0000 C   0  0  1  0  0  0  0  0  0  0  0  0
    9.3827  -10.2337    0.0000 C   0  0  1  0  0  0  0  0  0  0  0  0
   10.0972   -9.8212    0.0000 C   0  0  2  0  0  0  0  0  0  0  0  0
   10.8116  -10.2337    0.0000 C   0  0  0  0  0  0  0  0  0  0  0  0
   11.5261   -9.8212    0.0000 C   0  0  0  0  0  0  0  0  0  0  0  0
   11.5261   -8.9962    0.0000 C   0  0  1  0  0  0  0  0  0  0  0  0
   12.2406   -8.5837    0.0000 C   0  0  2  0  0  0  0  0  0  0  0  0
   12.9550   -8.9962    0.0000 C   0  0  0  0  0  0  0  0  0  0  0  0
   13.6695   -8.5837    0.0000 C   0  0  0  0  0  0  0  0  0  0  0  0
   13.6695   -7.7587    0.0000 C   0  0  1  0  0  0  0  0  0  0  0  0
   14.3840   -7.3462    0.0000 C   0  0  0  0  0  0  0  0  0  0  0  0
   14.3840   -6.5212    0.0000 C   0  0  0  0  0  0  0  0  0  0  0  0
   13.6695   -6.1087    0.0000 C   0  0  1  0  0  0  0  0  0  0  0  0
   12.9550   -6.5212    0.0000 C   0  0  0  0  0  0  0  0  0  0  0  0
   12.9550   -7.3462    0.0000 C   0  0  1  0  0  0  0  0  0  0  0  0
   12.2406   -7.7587    0.0000 C   0  0  0  0  0  0  0  0  0  0  0  0
   11.5261   -7.3462    0.0000 C   0  0  0  0  0  0  0  0  0  0  0  0
   10.8116   -7.7587    0.0000 C   0  0  0  0  0  0  0  0  0  0  0  0
   10.8116   -8.5837    0.0000 C   0  0  2  0  0  0  0  0  0  0  0  0
   10.0972   -8.9962    0.0000 C   0  0  1  0  0  0  0  0  0  0  0  0
   14.3840   -8.1712    0.0000 C   0  0  0  0  0  0  0  0  0  0  0  0
   14.3840   -8.9962    0.0000 O   0  0  0  0  0  0  0  0  0  0  0  0
   10.0972   -8.1712    0.0000 C   0  0  0  0  0  0  0  0  0  0  0  0
   13.2570   -5.3942    0.0000 C   0  0  0  0  0  0  0  0  0  0  0  0
   14.0820   -5.3942    0.0000 C   0  0  0  0  0  0  0  0  0  0  0  0
   12.2406   -9.4087    0.0000 C   0  0  0  0  0  0  0  0  0  0  0  0
   11.5261   -8.1712    0.0000 C   0  0  0  0  0  0  0  0  0  0  0  0
    8.9702  -10.9482    0.0000 C   0  0  0  0  0  0  0  0  0  0  0  0
    9.7952  -10.9482    0.0000 C   0  0  0  0  0  0  0  0  0  0  0  0
    7.9538   -8.5837    0.0000 O   0  0  0  0  0  0  0  0  0  0  0  0
   10.0972  -10.6462    0.0000 H   0  0  0  0  0  0  0  0  0  0  0  0
   12.9550   -8.1712    0.0000 H   0  0  0  0  0  0  0  0  0  0  0  0
   10.8116   -9.4087    0.0000 H   0  0  0  0  0  0  0  0  0  0  0  0
   16.5273   -6.9336    0.0000 O   0  0  0  0  0  0  0  0  0  0  0  0
   17.9563   -7.7584    0.0000 O   0  0  0  0  0  0  0  0  0  0  0  0
   17.9565   -9.4084    0.0000 O   0  0  0  0  0  0  0  0  0  0  0  0
   17.2422  -10.6460    0.0000 O   0  0  0  0  0  0  0  0  0  0  0  0
   16.5277  -10.2336    0.0000 C   0  0  0  0  0  0  0  0  0  0  0  0
   16.5276   -9.4086    0.0000 C   0  0  2  0  0  0  0  0  0  0  0  0
   17.2420   -8.9960    0.0000 C   0  0  2  0  0  0  0  0  0  0  0  0
   17.2419   -8.1710    0.0000 C   0  0  1  0  0  0  0  0  0  0  0  0
   16.5274   -7.7586    0.0000 C   0  0  2  0  0  0  0  0  0  0  0  0
   15.8130   -8.1711    0.0000 C   0  0  1  0  0  0  0  0  0  0  0  0
   15.8131   -8.9961    0.0000 O   0  0  0  0  0  0  0  0  0  0  0  0
   15.0985   -7.7587    0.0000 O   0  0  0  0  0  0  0  0  0  0  0  0
    9.3827  -11.6626    0.0000 O   0  0  0  0  0  0  0  0  0  0  0  0
   10.6202  -10.9482    0.0000 O   0  0  0  0  0  0  0  0  0  0  0  0
    3.6669   -7.7587    0.0000 C   0  0  0  0  0  0  0  0  0  0  0  0
    2.9525   -7.3462    0.0000 O   0  0  0  0  0  0  0  0  0  0  0  0
 66 68  1  1  0  0  0
 65 57  1  6  0  0  0
 64 58  1  1  0  0  0
 63 59  1  6  0  0  0
 62 61  1  1  0  0  0
 61 60  1  0  0  0  0
 67 62  1  0  0  0  0
 63 62  1  0  0  0  0
 64 63  1  0  0  0  0
 65 64  1  0  0  0  0
 66 65  1  0  0  0  0
 67 66  1  0  0  0  0
  1  2  1  0  0  0  0
  2  3  1  0  0  0  0
  3  4  1  0  0  0  0
  4  5  1  0  0  0  0
  5  6  1  0  0  0  0
  1  6  1  0  0  0  0
  7  8  1  0  0  0  0
  2  7  1  1  0  0  0
 10 11  1  0  0  0  0
 11 12  1  0  0  0  0
 12 13  1  0  0  0  0
 13 14  1  0  0  0  0
 14 15  1  0  0  0  0
 10 15  1  0  0  0  0
 14 16  1  6  0  0  0
 13 17  1  1  0  0  0
 12 18  1  6  0  0  0
 11  9  1  1  0  0  0
  4  9  1  1  0  0  0
  5 19  1  6  0  0  0
  3 20  1  6  0  0  0
 22 23  1  0  0  0  0
 23 24  1  0  0  0  0
 24 25  1  0  0  0  0
 25 26  1  0  0  0  0
 26 27  1  0  0  0  0
 27 28  1  0  0  0  0
 28 29  1  0  0  0  0
 29 30  1  0  0  0  0
 30 31  1  0  0  0  0
 31 32  1  0  0  0  0
 32 33  1  0  0  0  0
 33 34  1  0  0  0  0
 34 35  1  0  0  0  0
 35 36  1  0  0  0  0
 36 37  1  0  0  0  0
 37 38  1  0  0  0  0
 33 38  1  0  0  0  0
 38 39  1  0  0  0  0
 30 39  1  0  0  0  0
 39 40  2  0  0  0  0
 40 41  1  0  0  0  0
 41 42  1  0  0  0  0
 29 42  1  0  0  0  0
 42 43  1  0  0  0  0
 26 43  1  0  0  0  0
 22 43  1  0  0  0  0
 44 45  2  0  0  0  0
 44 68  1  0  0  0  0
 33 44  1  1  0  0  0
 43 46  1  1  0  0  0
 36 47  1  1  0  0  0
 36 48  1  6  0  0  0
 30 49  1  6  0  0  0
 29 50  1  1  0  0  0
 25 51  1  1  0  0  0
 25 52  1  6  0  0  0
 23 53  1  1  0  0  0
 24 21  1  1  0  0  0
  6 21  1  1  0  0  0
 26 54  1  6  0  0  0
 38 55  1  1  0  0  0
 42 56  1  6  0  0  0
 52 69  1  0  0  0  0
 52 70  2  0  0  0  0
 15 71  1  1  0  0  0
 71 72  1  0  0  0  0
M  END
>  <cdx:fragmentId>
49

$$$$
