100025.cdx
  Mrv1902 05222410222D          

 34 36  0  0  0  0            999 V2000
    7.9387   -9.4732    0.0000 N   0  0  0  0  0  0  0  0  0  0  0  0
    8.3813   -8.5329    0.0000 C   0  0  0  0  0  0  0  0  0  0  0  0
    8.3813   -7.7079    0.0000 C   0  0  1  0  0  0  0  0  0  0  0  0
    7.6669   -7.2954    0.0000 N   0  0  0  0  0  0  0  0  0  0  0  0
    7.6669   -6.4704    0.0000 C   0  0  0  0  0  0  0  0  0  0  0  0
    6.9524   -6.0579    0.0000 C   0  0  0  0  0  0  0  0  0  0  0  0
    6.2379   -6.4704    0.0000 C   0  0  1  0  0  0  0  0  0  0  0  0
    6.2379   -7.2954    0.0000 N   0  0  0  0  0  0  0  0  0  0  0  0
    5.5234   -7.7079    0.0000 C   0  0  0  0  0  0  0  0  0  0  0  0
    5.5234   -8.5329    0.0000 C   0  0  1  0  0  0  0  0  0  0  0  0
    6.2379   -8.9454    0.0000 N   0  0  0  0  0  0  0  0  0  0  0  0
    6.2379   -9.7704    0.0000 C   0  0  0  0  0  0  0  0  0  0  0  0
    7.1310   -9.9273    0.0000 C   0  0  2  0  0  0  0  0  0  0  0  0
    7.5565   -8.5486    0.0000 O   0  0  0  0  0  0  0  0  0  0  0  0
    8.3813   -6.0579    0.0000 O   0  0  0  0  0  0  0  0  0  0  0  0
    4.8090   -7.2954    0.0000 O   0  0  0  0  0  0  0  0  0  0  0  0
    5.5234  -10.1829    0.0000 O   0  0  0  0  0  0  0  0  0  0  0  0
    5.5234   -6.0579    0.0000 C   0  0  0  0  0  0  0  0  0  0  0  0
    4.8090   -6.4704    0.0000 C   0  0  0  0  0  0  0  0  0  0  0  0
    4.0945   -6.0579    0.0000 C   0  0  0  0  0  0  0  0  0  0  0  0
    4.0945   -5.2329    0.0000 C   0  0  0  0  0  0  0  0  0  0  0  0
    4.8090   -4.8204    0.0000 C   0  0  0  0  0  0  0  0  0  0  0  0
    5.5234   -5.2329    0.0000 C   0  0  0  0  0  0  0  0  0  0  0  0
    4.8090   -8.9454    0.0000 C   0  0  0  0  0  0  0  0  0  0  0  0
    4.0945   -8.5329    0.0000 O   0  0  0  0  0  0  0  0  0  0  0  0
    9.0958   -7.2954    0.0000 C   0  0  0  0  0  0  0  0  0  0  0  0
    9.8103   -7.7079    0.0000 C   0  0  0  0  0  0  0  0  0  0  0  0
   10.5247   -7.2954    0.0000 C   0  0  0  0  0  0  0  0  0  0  0  0
    7.3133  -10.8358    0.0000 C   0  0  1  0  0  0  0  0  0  0  0  0
    8.2337  -10.9432    0.0000 C   0  0  1  0  0  0  0  0  0  0  0  0
    8.6202  -10.1010    0.0000 C   0  0  0  0  0  0  0  0  0  0  0  0
    6.5476  -10.5107    0.0000 H   0  0  0  0  0  0  0  0  0  0  0  0
    6.7543  -11.4426    0.0000 Cl  0  0  0  0  0  0  0  0  0  0  0  0
    8.6380  -11.6623    0.0000 Cl  0  0  0  0  0  0  0  0  0  0  0  0
  1  2  1  0  0  0  0
  2  3  1  0  0  0  0
  3  4  1  0  0  0  0
  4  5  2  0  0  0  0
  5  6  1  0  0  0  0
  6  7  1  0  0  0  0
  7  8  1  0  0  0  0
  8  9  2  0  0  0  0
  9 10  1  0  0  0  0
 10 11  1  0  0  0  0
 11 12  2  0  0  0  0
 12 13  1  0  0  0  0
  2 14  2  0  0  0  0
  5 15  1  0  0  0  0
  9 16  1  0  0  0  0
 12 17  1  0  0  0  0
 18 19  1  0  0  0  0
 19 20  2  0  0  0  0
 20 21  1  0  0  0  0
 21 22  2  0  0  0  0
 22 23  1  0  0  0  0
 18 23  2  0  0  0  0
  7 18  1  1  0  0  0
 24 25  1  0  0  0  0
 10 24  1  1  0  0  0
 26 27  1  0  0  0  0
  3 26  1  1  0  0  0
 27 28  1  0  0  0  0
 13  1  1  0  0  0  0
 13 29  1  0  0  0  0
 29 30  1  0  0  0  0
 30 31  1  0  0  0  0
 31  1  1  0  0  0  0
 13 32  1  6  0  0  0
 29 33  1  1  0  0  0
 30 34  1  1  0  0  0
M  END
>  <cdx:fragmentId>
112353

$$$$
