100057.cdx
  Mrv1902 05222410182D          

 21 23  0  0  0  0            999 V2000
    8.5165   -7.6638    0.0000 C   0  0  0  0  0  0  0  0  0  0  0  0
    9.2310   -8.0763    0.0000 C   0  0  0  0  0  0  0  0  0  0  0  0
    9.2310   -8.9013    0.0000 C   0  0  0  0  0  0  0  0  0  0  0  0
    8.5165   -9.3138    0.0000 C   0  0  0  0  0  0  0  0  0  0  0  0
    7.8020   -8.9013    0.0000 C   0  0  0  0  0  0  0  0  0  0  0  0
    7.0876   -9.3138    0.0000 C   0  0  0  0  0  0  0  0  0  0  0  0
    6.3731   -8.9013    0.0000 C   0  0  0  0  0  0  0  0  0  0  0  0
    5.6586   -9.3138    0.0000 C   0  0  0  0  0  0  0  0  0  0  0  0
    4.9442   -8.9013    0.0000 C   0  0  0  0  0  0  0  0  0  0  0  0
    4.9442   -8.0763    0.0000 C   0  0  0  0  0  0  0  0  0  0  0  0
    5.6586   -7.6638    0.0000 C   0  0  0  0  0  0  0  0  0  0  0  0
    6.3731   -8.0763    0.0000 C   0  0  0  0  0  0  0  0  0  0  0  0
    7.0876   -7.6638    0.0000 C   0  0  0  0  0  0  0  0  0  0  0  0
    7.8020   -8.0763    0.0000 C   0  0  0  0  0  0  0  0  0  0  0  0
    7.0876   -6.8388    0.0000 O   0  0  0  0  0  0  0  0  0  0  0  0
    7.0876  -10.1388    0.0000 O   0  0  0  0  0  0  0  0  0  0  0  0
    4.2297   -9.3138    0.0000 C   0  0  0  0  0  0  0  0  0  0  0  0
    5.6586   -6.8388    0.0000 O   0  0  0  0  0  0  0  0  0  0  0  0
    9.9454   -9.3138    0.0000 O   0  0  0  0  0  0  0  0  0  0  0  0
    8.5165   -6.8388    0.0000 O   0  0  0  0  0  0  0  0  0  0  0  0
    4.2297   -7.6638    0.0000 C   0  0  0  0  0  0  0  0  0  0  0  0
  1  2  1  0  0  0  0
  2  3  2  0  0  0  0
  3  4  1  0  0  0  0
  4  5  2  0  0  0  0
  5  6  1  0  0  0  0
  6  7  1  0  0  0  0
  7  8  1  0  0  0  0
  8  9  2  0  0  0  0
  9 10  1  0  0  0  0
 10 11  2  0  0  0  0
 11 12  1  0  0  0  0
  7 12  2  0  0  0  0
 12 13  1  0  0  0  0
 13 14  1  0  0  0  0
  5 14  1  0  0  0  0
  1 14  2  0  0  0  0
 13 15  2  0  0  0  0
  6 16  2  0  0  0  0
  9 17  1  0  0  0  0
 11 18  1  0  0  0  0
  3 19  1  0  0  0  0
  1 20  1  0  0  0  0
 10 21  1  0  0  0  0
M  END
>  <cdx:fragmentId>
5

$$$$
