100029.cdx
  Mrv1902 05222410232D          

 42 45  0  0  0  0            999 V2000
    4.3776   -7.1252    0.0000 C   0  0  0  0  0  0  0  0  0  0  0  0
    4.3776   -7.9502    0.0000 C   0  0  0  0  0  0  0  0  0  0  0  0
    5.0921   -8.3627    0.0000 C   0  0  0  0  0  0  0  0  0  0  0  0
    5.8065   -7.9502    0.0000 C   0  0  0  0  0  0  0  0  0  0  0  0
    5.8065   -7.1252    0.0000 C   0  0  0  0  0  0  0  0  0  0  0  0
    5.0921   -6.7127    0.0000 C   0  0  0  0  0  0  0  0  0  0  0  0
    6.5210   -6.7127    0.0000 C   0  0  0  0  0  0  0  0  0  0  0  0
    7.2355   -7.1252    0.0000 C   0  0  0  0  0  0  0  0  0  0  0  0
    7.9499   -6.7127    0.0000 C   0  0  0  0  0  0  0  0  0  0  0  0
    8.6644   -7.1252    0.0000 O   0  0  0  0  0  0  0  0  0  0  0  0
    7.9499   -5.8877    0.0000 O   0  0  0  0  0  0  0  0  0  0  0  0
    9.3789   -6.7127    0.0000 C   0  0  0  0  0  0  0  0  0  0  0  0
   10.0934   -7.1252    0.0000 C   0  0  0  0  0  0  0  0  0  0  0  0
   10.0934   -7.9502    0.0000 C   0  0  0  0  0  0  0  0  0  0  0  0
   10.8078   -8.3627    0.0000 C   0  0  0  0  0  0  0  0  0  0  0  0
   11.5223   -7.9502    0.0000 C   0  0  0  0  0  0  0  0  0  0  0  0
   11.5223   -7.1252    0.0000 C   0  0  0  0  0  0  0  0  0  0  0  0
   10.8078   -6.7127    0.0000 C   0  0  0  0  0  0  0  0  0  0  0  0
    3.6631   -8.3627    0.0000 O   0  0  0  0  0  0  0  0  0  0  0  0
   12.2368   -8.3627    0.0000 O   0  0  0  0  0  0  0  0  0  0  0  0
    2.2247   -6.7154    0.0000 C   0  0  2  0  0  0  0  0  0  0  0  0
    1.5102   -7.1278    0.0000 C   0  0  2  0  0  0  0  0  0  0  0  0
    1.5100   -7.9528    0.0000 C   0  0  1  0  0  0  0  0  0  0  0  0
    2.2244   -8.3654    0.0000 C   0  0  2  0  0  0  0  0  0  0  0  0
    2.9390   -7.9531    0.0000 C   0  0  1  0  0  0  0  0  0  0  0  0
    2.9391   -7.1281    0.0000 O   0  0  0  0  0  0  0  0  0  0  0  0
    2.2248   -5.8904    0.0000 C   0  0  0  0  0  0  0  0  0  0  0  0
    0.7955   -8.3652    0.0000 O   0  0  0  0  0  0  0  0  0  0  0  0
    0.7958   -6.7152    0.0000 O   0  0  0  0  0  0  0  0  0  0  0  0
    2.2243   -9.1904    0.0000 O   0  0  0  0  0  0  0  0  0  0  0  0
    1.5104   -5.4778    0.0000 O   0  0  0  0  0  0  0  0  0  0  0  0
   14.3747   -7.9453    0.0000 C   0  0  2  0  0  0  0  0  0  0  0  0
   14.3747   -7.1203    0.0000 C   0  0  2  0  0  0  0  0  0  0  0  0
   13.6602   -6.7078    0.0000 C   0  0  1  0  0  0  0  0  0  0  0  0
   12.9457   -7.1203    0.0000 C   0  0  2  0  0  0  0  0  0  0  0  0
   12.9458   -7.9453    0.0000 C   0  0  1  0  0  0  0  0  0  0  0  0
   13.6602   -8.3578    0.0000 O   0  0  0  0  0  0  0  0  0  0  0  0
   15.0892   -8.3577    0.0000 C   0  0  0  0  0  0  0  0  0  0  0  0
   13.6601   -5.8828    0.0000 O   0  0  0  0  0  0  0  0  0  0  0  0
   15.0891   -6.7077    0.0000 O   0  0  0  0  0  0  0  0  0  0  0  0
   12.2312   -6.7079    0.0000 O   0  0  0  0  0  0  0  0  0  0  0  0
   15.8036   -7.9452    0.0000 O   0  0  0  0  0  0  0  0  0  0  0  0
  1  2  2  0  0  0  0
  2  3  1  0  0  0  0
  3  4  2  0  0  0  0
  4  5  1  0  0  0  0
  5  6  2  0  0  0  0
  6  1  1  0  0  0  0
  5  7  1  0  0  0  0
  7  8  2  0  0  0  0
  8  9  1  0  0  0  0
  9 10  1  0  0  0  0
  9 11  2  0  0  0  0
 10 12  1  0  0  0  0
 12 13  1  0  0  0  0
 13 14  2  0  0  0  0
 14 15  1  0  0  0  0
 15 16  2  0  0  0  0
 16 17  1  0  0  0  0
 17 18  2  0  0  0  0
 18 13  1  0  0  0  0
  2 19  1  0  0  0  0
 16 20  1  0  0  0  0
 21 22  1  0  0  0  0
 22 23  1  0  0  0  0
 23 24  1  0  0  0  0
 24 25  1  0  0  0  0
 25 26  1  0  0  0  0
 26 21  1  0  0  0  0
 21 27  1  1  0  0  0
 23 28  1  1  0  0  0
 22 29  1  6  0  0  0
 24 30  1  6  0  0  0
 27 31  1  0  0  0  0
 32 33  1  0  0  0  0
 33 34  1  0  0  0  0
 34 35  1  0  0  0  0
 35 36  1  0  0  0  0
 36 37  1  0  0  0  0
 37 32  1  0  0  0  0
 32 38  1  1  0  0  0
 34 39  1  1  0  0  0
 33 40  1  6  0  0  0
 35 41  1  6  0  0  0
 38 42  1  0  0  0  0
 25 19  1  1  0  0  0
 36 20  1  1  0  0  0
M  END
>  <cdx:fragmentId>
5

$$$$
