100000.cdx
  Mrv1902 05222410232D          

  8  8  0  0  0  0            999 V2000
    7.6915   -8.4764    0.0000 O   0  0  0  0  0  0  0  0  0  0  0  0
    7.9526   -9.2590    0.0000 C   0  0  0  0  0  0  0  0  0  0  0  0
    7.2890   -9.7491    0.0000 N   0  0  0  0  0  0  0  0  0  0  0  0
    6.6178   -9.2695    0.0000 C   0  0  0  0  0  0  0  0  0  0  0  0
    6.8666   -8.4829    0.0000 C   0  0  1  0  0  0  0  0  0  0  0  0
    8.7392   -9.5077    0.0000 S   0  0  0  0  0  0  0  0  0  0  0  0
    6.7889   -7.1048    0.0000 C   0  0  0  0  0  0  0  0  0  0  0  0
    6.3764   -7.8193    0.0000 C   0  0  0  0  0  0  0  0  0  0  0  0
  8  7  2  0  0  0  0
  1  2  1  0  0  0  0
  2  3  1  0  0  0  0
  3  4  1  0  0  0  0
  4  5  1  0  0  0  0
  1  5  1  0  0  0  0
  2  6  2  0  0  0  0
  5  8  1  1  0  0  0
M  END
>  <cdx:fragmentId>
5

$$$$
