100094.cdx
  Mrv1902 05222410182D          

 52 55  0  0  0  0            999 V2000
   12.3236  -10.2369    0.0000 C   0  0  0  0  0  0  0  0  0  0  0  0
   11.6091   -9.8244    0.0000 C   0  0  2  0  0  0  0  0  0  0  0  0
   10.8947  -10.2369    0.0000 C   0  0  1  0  0  0  0  0  0  0  0  0
   10.1802   -9.8244    0.0000 C   0  0  0  0  0  0  0  0  0  0  0  0
   12.3236  -11.0619    0.0000 O   0  0  0  0  0  0  0  0  0  0  0  0
   13.0381   -9.8244    0.0000 O   0  0  0  0  0  0  0  0  0  0  0  0
   10.1802   -8.9994    0.0000 O   0  0  0  0  0  0  0  0  0  0  0  0
    9.4657  -10.2369    0.0000 O   0  0  0  0  0  0  0  0  0  0  0  0
   11.6091   -8.9994    0.0000 C   0  0  0  0  0  0  0  0  0  0  0  0
   12.3236   -8.5869    0.0000 C   0  0  0  0  0  0  0  0  0  0  0  0
   13.0381   -8.9994    0.0000 C   0  0  0  0  0  0  0  0  0  0  0  0
   12.3236   -7.7619    0.0000 C   0  0  0  0  0  0  0  0  0  0  0  0
   10.8947  -11.0619    0.0000 O   0  0  0  0  0  0  0  0  0  0  0  0
   11.6091  -10.6494    0.0000 O   0  0  0  0  0  0  0  0  0  0  0  0
   13.7525  -10.2369    0.0000 C   0  0  0  0  0  0  0  0  0  0  0  0
   14.4670   -9.8244    0.0000 C   0  0  0  0  0  0  0  0  0  0  0  0
   14.4670   -8.9994    0.0000 C   0  0  0  0  0  0  0  0  0  0  0  0
   15.1815   -8.5869    0.0000 C   0  0  0  0  0  0  0  0  0  0  0  0
   15.8960   -8.9994    0.0000 C   0  0  0  0  0  0  0  0  0  0  0  0
   15.8960   -9.8244    0.0000 C   0  0  0  0  0  0  0  0  0  0  0  0
   15.1815  -10.2369    0.0000 C   0  0  0  0  0  0  0  0  0  0  0  0
    8.7513   -9.8244    0.0000 C   0  0  0  0  0  0  0  0  0  0  0  0
    8.0368  -10.2369    0.0000 C   0  0  0  0  0  0  0  0  0  0  0  0
    8.0368  -11.0619    0.0000 C   0  0  0  0  0  0  0  0  0  0  0  0
    7.3223  -11.4744    0.0000 C   0  0  0  0  0  0  0  0  0  0  0  0
    6.6078  -11.0619    0.0000 C   0  0  0  0  0  0  0  0  0  0  0  0
    6.6078  -10.2369    0.0000 C   0  0  0  0  0  0  0  0  0  0  0  0
    7.3223   -9.8244    0.0000 C   0  0  0  0  0  0  0  0  0  0  0  0
   15.1815   -7.7619    0.0000 O   0  0  0  0  0  0  0  0  0  0  0  0
   15.1815   -6.1119    0.0000 O   0  0  0  0  0  0  0  0  0  0  0  0
   16.6104   -5.2869    0.0000 O   0  0  0  0  0  0  0  0  0  0  0  0
   18.0394   -5.2869    0.0000 O   0  0  0  0  0  0  0  0  0  0  0  0
   18.0394   -6.1119    0.0000 C   0  0  0  0  0  0  0  0  0  0  0  0
   17.3249   -6.5244    0.0000 C   0  0  2  0  0  0  0  0  0  0  0  0
   16.6104   -6.1119    0.0000 C   0  0  2  0  0  0  0  0  0  0  0  0
   15.8960   -6.5244    0.0000 C   0  0  1  0  0  0  0  0  0  0  0  0
   15.8960   -7.3494    0.0000 C   0  0  2  0  0  0  0  0  0  0  0  0
   16.6104   -7.7619    0.0000 C   0  0  1  0  0  0  0  0  0  0  0  0
   17.3249   -7.3494    0.0000 O   0  0  0  0  0  0  0  0  0  0  0  0
   16.6104   -8.5869    0.0000 O   0  0  0  0  0  0  0  0  0  0  0  0
    4.4641  -12.2989    0.0000 O   0  0  0  0  0  0  0  0  0  0  0  0
    3.0355  -11.4734    0.0000 O   0  0  0  0  0  0  0  0  0  0  0  0
    3.0360   -9.8234    0.0000 O   0  0  0  0  0  0  0  0  0  0  0  0
    3.7509   -8.5861    0.0000 O   0  0  0  0  0  0  0  0  0  0  0  0
    4.4653   -8.9989    0.0000 C   0  0  0  0  0  0  0  0  0  0  0  0
    4.4650   -9.8239    0.0000 C   0  0  2  0  0  0  0  0  0  0  0  0
    3.7504  -10.2361    0.0000 C   0  0  2  0  0  0  0  0  0  0  0  0
    3.7501  -11.0611    0.0000 C   0  0  1  0  0  0  0  0  0  0  0  0
    4.4644  -11.4739    0.0000 C   0  0  2  0  0  0  0  0  0  0  0  0
    5.1790  -11.0616    0.0000 C   0  0  1  0  0  0  0  0  0  0  0  0
    5.1793  -10.2366    0.0000 O   0  0  0  0  0  0  0  0  0  0  0  0
    5.8934  -11.4744    0.0000 O   0  0  0  0  0  0  0  0  0  0  0  0
 38 40  1  1  0  0  0
 37 29  1  6  0  0  0
 36 30  1  1  0  0  0
 35 31  1  6  0  0  0
 34 33  1  1  0  0  0
 33 32  1  0  0  0  0
 39 34  1  0  0  0  0
 35 34  1  0  0  0  0
 36 35  1  0  0  0  0
 37 36  1  0  0  0  0
 38 37  1  0  0  0  0
 39 38  1  0  0  0  0
 50 52  1  1  0  0  0
 49 41  1  6  0  0  0
 48 42  1  1  0  0  0
 47 43  1  6  0  0  0
 46 45  1  1  0  0  0
 45 44  1  0  0  0  0
 51 46  1  0  0  0  0
 47 46  1  0  0  0  0
 48 47  1  0  0  0  0
 49 48  1  0  0  0  0
 50 49  1  0  0  0  0
 51 50  1  0  0  0  0
  1  2  1  0  0  0  0
  2  3  1  0  0  0  0
  3  4  1  0  0  0  0
  1  5  2  0  0  0  0
  1  6  1  0  0  0  0
  4  7  2  0  0  0  0
  4  8  1  0  0  0  0
  9 10  1  0  0  0  0
 10 11  1  0  0  0  0
 10 12  1  0  0  0  0
  2  9  1  0  0  0  0
  3 13  1  6  0  0  0
  2 14  1  1  0  0  0
 16 17  1  0  0  0  0
 17 18  2  0  0  0  0
 18 19  1  0  0  0  0
 19 20  2  0  0  0  0
 20 21  1  0  0  0  0
 16 21  2  0  0  0  0
 19 40  1  0  0  0  0
 15 16  1  0  0  0  0
  6 15  1  0  0  0  0
 23 24  1  0  0  0  0
 24 25  2  0  0  0  0
 25 26  1  0  0  0  0
 26 27  2  0  0  0  0
 27 28  1  0  0  0  0
 23 28  2  0  0  0  0
 26 52  1  0  0  0  0
 22 23  1  0  0  0  0
  8 22  1  0  0  0  0
M  END
>  <cdx:fragmentId>
49

$$$$
