100010.cdx
  Mrv1902 05222410252D          

  8  7  0  0  0  0            999 V2000
    6.8821   -7.0858    0.0000 C   0  0  0  0  0  0  0  0  0  0  0  0
    6.8790   -6.2608    0.0000 O   0  0  0  0  0  0  0  0  0  0  0  0
    5.4532   -7.0912    0.0000 N   0  0  0  0  0  0  0  0  0  0  0  0
    5.4626   -9.5662    0.0000 S   0  0  0  0  0  0  0  0  0  0  0  0
    7.5982   -7.4956    0.0000 O   0  0  0  0  0  0  0  0  0  0  0  0
    5.4594   -8.7412    0.0000 C   0  0  0  0  0  0  0  0  0  0  0  0
    6.1724   -8.3260    0.0000 C   0  0  0  0  0  0  0  0  0  0  0  0
    6.1692   -7.5010    0.0000 C   0  0  1  0  0  0  0  0  0  0  0  0
  8  3  1  6  0  0  0
  6  4  1  0  0  0  0
  7  6  1  0  0  0  0
  8  7  1  0  0  0  0
  1  8  1  0  0  0  0
  1  2  2  0  0  0  0
  1  5  1  0  0  0  0
M  END
>  <cdx:fragmentId>
5

$$$$
