100067.cdx
  Mrv1902 05222410282D          

 25 26  0  0  0  0            999 V2000
   10.0535   -6.8638    0.0000 C   0  0  0  0  0  0  0  0  0  0  0  0
    9.3391   -6.4513    0.0000 C   0  0  0  0  0  0  0  0  0  0  0  0
    8.6246   -6.8638    0.0000 C   0  0  0  0  0  0  0  0  0  0  0  0
    8.6246   -7.6888    0.0000 C   0  0  0  0  0  0  0  0  0  0  0  0
    7.9101   -8.1013    0.0000 C   0  0  0  0  0  0  0  0  0  0  0  0
    7.9101   -8.9263    0.0000 C   0  0  0  0  0  0  0  0  0  0  0  0
    8.6246   -9.3388    0.0000 C   0  0  0  0  0  0  0  0  0  0  0  0
    9.3391   -8.9263    0.0000 C   0  0  0  0  0  0  0  0  0  0  0  0
    9.3391   -8.1013    0.0000 C   0  0  0  0  0  0  0  0  0  0  0  0
   10.0535   -7.6888    0.0000 O   0  0  0  0  0  0  0  0  0  0  0  0
   10.7680   -6.4513    0.0000 O   0  0  0  0  0  0  0  0  0  0  0  0
    8.6246  -10.1638    0.0000 O   0  0  0  0  0  0  0  0  0  0  0  0
    9.3391  -10.5763    0.0000 C   0  0  0  0  0  0  0  0  0  0  0  0
    7.1956   -7.6888    0.0000 O   0  0  0  0  0  0  0  0  0  0  0  0
    6.4812   -8.1013    0.0000 C   0  0  1  0  0  0  0  0  0  0  0  0
    6.4812   -8.9263    0.0000 C   0  0  2  0  0  0  0  0  0  0  0  0
    7.1956   -9.3388    0.0000 O   0  0  0  0  0  0  0  0  0  0  0  0
    5.7667   -9.3388    0.0000 C   0  0  1  0  0  0  0  0  0  0  0  0
    5.7667  -10.1638    0.0000 O   0  0  0  0  0  0  0  0  0  0  0  0
    5.0522   -8.9263    0.0000 C   0  0  2  0  0  0  0  0  0  0  0  0
    4.3378   -9.3388    0.0000 O   0  0  0  0  0  0  0  0  0  0  0  0
    5.0522   -8.1013    0.0000 C   0  0  2  0  0  0  0  0  0  0  0  0
    5.7667   -7.6888    0.0000 O   0  0  0  0  0  0  0  0  0  0  0  0
    4.3378   -7.6888    0.0000 C   0  0  0  0  0  0  0  0  0  0  0  0
    3.6233   -8.1013    0.0000 O   0  0  0  0  0  0  0  0  0  0  0  0
  1  2  1  0  0  0  0
  2  3  2  0  0  0  0
  3  4  1  0  0  0  0
  4  5  1  0  0  0  0
  5  6  2  0  0  0  0
  6  7  1  0  0  0  0
  7  8  2  0  0  0  0
  8  9  1  0  0  0  0
  4  9  2  0  0  0  0
  1 10  2  0  0  0  0
  1 11  1  0  0  0  0
 12 13  1  0  0  0  0
  7 12  1  0  0  0  0
 15 16  1  0  0  0  0
 16 17  1  6  0  0  0
 16 18  1  0  0  0  0
 18 19  1  1  0  0  0
 18 20  1  0  0  0  0
 20 21  1  6  0  0  0
 20 22  1  0  0  0  0
 22 23  1  0  0  0  0
 22 24  1  1  0  0  0
 24 25  1  0  0  0  0
 15 23  1  0  0  0  0
 15 14  1  1  0  0  0
  5 14  1  0  0  0  0
M  END
>  <cdx:fragmentId>
5

$$$$
