100009.cdx
  Mrv1902 05222410212D          

 17 18  0  0  0  0            999 V2000
    8.0071   -6.9388    0.0000 C   0  0  2  0  0  0  0  0  0  0  0  0
    8.4922   -7.6061    0.0000 C   0  0  0  0  0  0  0  0  0  0  0  0
    8.0075   -8.2737    0.0000 C   0  0  0  0  0  0  0  0  0  0  0  0
    7.2228   -8.0190    0.0000 C   0  0  1  0  0  0  0  0  0  0  0  0
    6.5779   -8.5336    0.0000 C   0  0  0  0  0  0  0  0  0  0  0  0
    5.7736   -8.3502    0.0000 C   0  0  0  0  0  0  0  0  0  0  0  0
    5.4154   -7.6070    0.0000 C   0  0  0  0  0  0  0  0  0  0  0  0
    5.7731   -6.8636    0.0000 C   0  0  0  0  0  0  0  0  0  0  0  0
    6.5773   -6.6798    0.0000 C   0  0  0  0  0  0  0  0  0  0  0  0
    7.2225   -7.1940    0.0000 C   0  0  1  0  0  0  0  0  0  0  0  0
    6.7618   -9.3378    0.0000 O   0  0  0  0  0  0  0  0  0  0  0  0
    7.6782   -5.5709    0.0000 C   0  0  0  0  0  0  0  0  0  0  0  0
    8.2617   -6.1541    0.0000 C   0  0  0  0  0  0  0  0  0  0  0  0
    9.0687   -5.9823    0.0000 C   0  0  0  0  0  0  0  0  0  0  0  0
    5.2585   -6.2188    0.0000 C   0  0  0  0  0  0  0  0  0  0  0  0
    7.3703   -8.8307    0.0000 C   0  0  0  0  0  0  0  0  0  0  0  0
    7.3696   -6.3822    0.0000 H   0  0  0  0  0  0  0  0  0  0  0  0
  1  2  1  0  0  0  0
  2  3  1  0  0  0  0
  3  4  1  0  0  0  0
  4  5  1  0  0  0  0
  5  6  1  0  0  0  0
  6  7  1  0  0  0  0
  7  8  1  0  0  0  0
  8  9  1  0  0  0  0
  9 10  1  0  0  0  0
  1 10  1  0  0  0  0
  4 10  1  0  0  0  0
  5 11  2  0  0  0  0
 12 13  1  0  0  0  0
 13 14  1  0  0  0  0
  1 13  1  6  0  0  0
  8 15  2  0  0  0  0
  4 16  1  6  0  0  0
 10 17  1  6  0  0  0
M  END
>  <cdx:fragmentId>
5

$$$$
