100086.cdx
  Mrv1902 05222410192D          

 48 50  0  0  0  0            999 V2000
    1.5851   -6.1188    0.0000 C   0  0  0  0  0  0  0  0  0  0  0  0
    2.2996   -5.7062    0.0000 C   0  0  0  0  0  0  0  0  0  0  0  0
    3.0141   -6.1188    0.0000 C   0  0  0  0  0  0  0  0  0  0  0  0
    3.7285   -5.7062    0.0000 C   0  0  0  0  0  0  0  0  0  0  0  0
    4.4430   -5.2938    0.0000 C   0  0  0  0  0  0  0  0  0  0  0  0
    5.1575   -4.8812    0.0000 C   0  0  0  0  0  0  0  0  0  0  0  0
    5.8719   -4.4688    0.0000 C   0  0  0  0  0  0  0  0  0  0  0  0
    6.5864   -4.0563    0.0000 C   0  0  2  0  0  0  0  0  0  0  0  0
    7.3009   -4.4688    0.0000 C   0  0  1  0  0  0  0  0  0  0  0  0
    8.0154   -4.0563    0.0000 C   0  0  0  0  0  0  0  0  0  0  0  0
    8.7298   -4.4688    0.0000 C   0  0  0  0  0  0  0  0  0  0  0  0
    9.4443   -4.0563    0.0000 C   0  0  0  0  0  0  0  0  0  0  0  0
   10.1588   -4.4688    0.0000 C   0  0  0  0  0  0  0  0  0  0  0  0
   10.8732   -4.0563    0.0000 C   0  0  0  0  0  0  0  0  0  0  0  0
   11.5877   -4.4688    0.0000 O   0  0  0  0  0  0  0  0  0  0  0  0
    7.3140   -5.3040    0.0000 O   0  0  0  0  0  0  0  0  0  0  0  0
    7.7252   -7.4628    0.0000 C   0  0  2  0  0  0  0  0  0  0  0  0
    8.5502   -7.4649    0.0000 C   0  0  2  0  0  0  0  0  0  0  0  0
    8.9646   -6.7515    0.0000 C   0  0  1  0  0  0  0  0  0  0  0  0
    8.5539   -6.0360    0.0000 C   0  0  2  0  0  0  0  0  0  0  0  0
    7.7289   -6.0338    0.0000 C   0  0  1  0  0  0  0  0  0  0  0  0
    7.3146   -6.7472    0.0000 O   0  0  0  0  0  0  0  0  0  0  0  0
    7.3109   -8.1762    0.0000 C   0  0  0  0  0  0  0  0  0  0  0  0
    9.7895   -6.7537    0.0000 O   0  0  0  0  0  0  0  0  0  0  0  0
    8.9608   -8.1805    0.0000 O   0  0  0  0  0  0  0  0  0  0  0  0
    8.9683   -5.3226    0.0000 O   0  0  0  0  0  0  0  0  0  0  0  0
    7.7215   -8.8917    0.0000 O   0  0  0  0  0  0  0  0  0  0  0  0
    6.5864   -3.2313    0.0000 O   0  0  0  0  0  0  0  0  0  0  0  0
    6.0852  -10.3320    0.0000 C   0  0  1  0  0  0  0  0  0  0  0  0
    6.5039  -11.0428    0.0000 C   0  0  1  0  0  0  0  0  0  0  0  0
    7.3289  -11.0356    0.0000 C   0  0  2  0  0  0  0  0  0  0  0  0
    7.7351  -10.3175    0.0000 C   0  0  2  0  0  0  0  0  0  0  0  0
    7.3163   -9.6067    0.0000 C   0  0  1  0  0  0  0  0  0  0  0  0
    6.4914   -9.6139    0.0000 O   0  0  0  0  0  0  0  0  0  0  0  0
    6.0977  -11.7608    0.0000 O   0  0  0  0  0  0  0  0  0  0  0  0
    5.2602  -10.3392    0.0000 C   0  0  0  0  0  0  0  0  0  0  0  0
    7.7476  -11.7464    0.0000 O   0  0  0  0  0  0  0  0  0  0  0  0
    8.5601  -10.3103    0.0000 O   0  0  0  0  0  0  0  0  0  0  0  0
    8.9947  -12.4382    0.0000 C   0  0  1  0  0  0  0  0  0  0  0  0
    9.8197  -12.4301    0.0000 C   0  0  1  0  0  0  0  0  0  0  0  0
   10.2252  -11.7117    0.0000 C   0  0  2  0  0  0  0  0  0  0  0  0
    9.8057  -11.0013    0.0000 C   0  0  2  0  0  0  0  0  0  0  0  0
    8.9807  -11.0093    0.0000 C   0  0  1  0  0  0  0  0  0  0  0  0
    8.5752  -11.7278    0.0000 O   0  0  0  0  0  0  0  0  0  0  0  0
   10.2391  -13.1406    0.0000 O   0  0  0  0  0  0  0  0  0  0  0  0
    8.5892  -13.1567    0.0000 C   0  0  0  0  0  0  0  0  0  0  0  0
   11.0501  -11.7036    0.0000 O   0  0  0  0  0  0  0  0  0  0  0  0
   10.2112  -10.2828    0.0000 O   0  0  0  0  0  0  0  0  0  0  0  0
  1  2  1  0  0  0  0
  2  3  2  0  0  0  0
  3  4  1  0  0  0  0
  4  5  3  0  0  0  0
  5  6  1  0  0  0  0
  6  7  3  0  0  0  0
  7  8  1  0  0  0  0
  8  9  1  0  0  0  0
  9 10  1  0  0  0  0
 10 11  2  0  0  0  0
 11 12  1  0  0  0  0
 12 13  1  0  0  0  0
 13 14  1  0  0  0  0
 14 15  1  0  0  0  0
 17 18  1  0  0  0  0
 18 19  1  0  0  0  0
 19 20  1  0  0  0  0
 20 21  1  0  0  0  0
 21 22  1  0  0  0  0
 22 17  1  0  0  0  0
 17 23  1  1  0  0  0
 19 24  1  1  0  0  0
 18 25  1  6  0  0  0
 20 26  1  6  0  0  0
 23 27  1  0  0  0  0
 21 16  1  1  0  0  0
  8 28  1  1  0  0  0
 29 30  1  0  0  0  0
 30 31  1  0  0  0  0
 31 32  1  0  0  0  0
 32 33  1  0  0  0  0
 33 34  1  0  0  0  0
 34 29  1  0  0  0  0
 30 35  1  1  0  0  0
 29 36  1  6  0  0  0
 31 37  1  6  0  0  0
 32 38  1  6  0  0  0
 39 40  1  0  0  0  0
 40 41  1  0  0  0  0
 41 42  1  0  0  0  0
 42 43  1  0  0  0  0
 43 44  1  0  0  0  0
 44 39  1  0  0  0  0
 40 45  1  1  0  0  0
 39 46  1  6  0  0  0
 41 47  1  6  0  0  0
 42 48  1  6  0  0  0
 43 38  1  1  0  0  0
 33 27  1  1  0  0  0
  9 16  1  1  0  0  0
M  END
>  <cdx:fragmentId>
465

$$$$
