100031.cdx
  Mrv1902 05222410222D          

 22 22  0  0  0  0            999 V2000
    7.5137   -7.1912    0.0000 O   0  0  0  0  0  0  0  0  0  0  0  0
    5.3699   -8.4281    0.0000 C   0  0  0  0  0  0  0  0  0  0  0  0
    5.3697   -9.2531    0.0000 C   0  0  0  0  0  0  0  0  0  0  0  0
    4.6551   -9.6654    0.0000 C   0  0  0  0  0  0  0  0  0  0  0  0
    3.9407   -9.2527    0.0000 C   0  0  0  0  0  0  0  0  0  0  0  0
    3.9410   -8.4277    0.0000 C   0  0  0  0  0  0  0  0  0  0  0  0
    4.6556   -8.0154    0.0000 C   0  0  0  0  0  0  0  0  0  0  0  0
    3.2266   -8.0150    0.0000 O   0  0  0  0  0  0  0  0  0  0  0  0
    4.6549  -10.4904    0.0000 O   0  0  0  0  0  0  0  0  0  0  0  0
    3.2262   -9.6650    0.0000 O   0  0  0  0  0  0  0  0  0  0  0  0
    6.0845   -8.0158    0.0000 C   0  0  0  0  0  0  0  0  0  0  0  0
    6.7989   -8.4285    0.0000 C   0  0  0  0  0  0  0  0  0  0  0  0
    7.5134   -8.0162    0.0000 C   0  0  0  0  0  0  0  0  0  0  0  0
    8.2278   -8.4289    0.0000 O   0  0  0  0  0  0  0  0  0  0  0  0
    8.9424   -8.0166    0.0000 C   0  0  0  0  0  0  0  0  0  0  0  0
    9.6567   -8.4293    0.0000 C   0  0  0  0  0  0  0  0  0  0  0  0
   11.0859   -7.6047    0.0000 C   0  0  0  0  0  0  0  0  0  0  0  0
   10.3713   -8.0170    0.0000 N   0  3  0  0  0  0  0  0  0  0  0  0
   10.7836   -8.7316    0.0000 C   0  0  0  0  0  0  0  0  0  0  0  0
    9.9590   -7.3024    0.0000 C   0  0  0  0  0  0  0  0  0  0  0  0
    3.2268   -7.1900    0.0000 C   0  0  0  0  0  0  0  0  0  0  0  0
    5.3692  -10.9031    0.0000 C   0  0  0  0  0  0  0  0  0  0  0  0
 18 16  1  0  0  0  0
 15 14  1  0  0  0  0
 14 13  1  0  0  0  0
 13  1  2  0  0  0  0
 12 11  2  0  0  0  0
 13 12  1  0  0  0  0
 16 15  1  0  0  0  0
 18 17  1  0  0  0  0
  2  3  1  0  0  0  0
  3  4  2  0  0  0  0
  4  5  1  0  0  0  0
  5  6  2  0  0  0  0
  6  7  1  0  0  0  0
  2  7  2  0  0  0  0
  6  8  1  0  0  0  0
  4  9  1  0  0  0  0
  5 10  1  0  0  0  0
 11  2  1  0  0  0  0
 18 19  1  0  0  0  0
 18 20  1  0  0  0  0
  8 21  1  0  0  0  0
  9 22  1  0  0  0  0
M  CHG  1  18   1
M  END
>  <cdx:fragmentId>
27

$$$$
