100045.cdx
  Mrv1902 05222410192D          

 72 73  0  0  0  0            999 V2000
   17.9658  -13.5046    0.0000 C   0  0  0  0  0  0  0  0  0  0  0  0
   18.6795  -13.0907    0.0000 C   0  0  0  0  0  0  0  0  0  0  0  0
   18.6779  -12.2657    0.0000 C   0  0  1  0  0  0  0  0  0  0  0  0
   17.9627  -11.8546    0.0000 C   0  0  0  0  0  0  0  0  0  0  0  0
   17.2490  -12.2684    0.0000 C   0  0  0  0  0  0  0  0  0  0  0  0
   17.2505  -13.0934    0.0000 C   0  0  0  0  0  0  0  0  0  0  0  0
   16.5337  -11.8573    0.0000 C   0  0  0  0  0  0  0  0  0  0  0  0
   15.8216  -13.0961    0.0000 C   0  0  0  0  0  0  0  0  0  0  0  0
   16.5368  -13.5073    0.0000 C   0  0  0  0  0  0  0  0  0  0  0  0
   14.3927  -13.0988    0.0000 C   0  0  0  0  0  0  0  0  0  0  0  0
   15.1079  -13.5099    0.0000 C   0  0  0  0  0  0  0  0  0  0  0  0
   12.9637  -13.1015    0.0000 C   0  0  0  0  0  0  0  0  0  0  0  0
   13.6790  -13.5126    0.0000 C   0  0  0  0  0  0  0  0  0  0  0  0
   11.5348  -13.1042    0.0000 C   0  0  0  0  0  0  0  0  0  0  0  0
   12.2500  -13.5153    0.0000 C   0  0  0  0  0  0  0  0  0  0  0  0
   10.1058  -13.1069    0.0000 C   0  0  0  0  0  0  0  0  0  0  0  0
   10.8211  -13.5180    0.0000 C   0  0  0  0  0  0  0  0  0  0  0  0
    8.6753  -12.2846    0.0000 C   0  0  0  0  0  0  0  0  0  0  0  0
    8.6769  -13.1095    0.0000 C   0  0  0  0  0  0  0  0  0  0  0  0
    9.3921  -13.5207    0.0000 C   0  0  0  0  0  0  0  0  0  0  0  0
    7.2480  -13.1122    0.0000 C   0  0  0  0  0  0  0  0  0  0  0  0
    7.9632  -13.5234    0.0000 C   0  0  0  0  0  0  0  0  0  0  0  0
    5.8175  -12.2899    0.0000 C   0  0  0  0  0  0  0  0  0  0  0  0
    5.8190  -13.1149    0.0000 C   0  0  0  0  0  0  0  0  0  0  0  0
    6.5343  -13.5261    0.0000 C   0  0  0  0  0  0  0  0  0  0  0  0
    4.3901  -13.1176    0.0000 C   0  0  0  0  0  0  0  0  0  0  0  0
    5.1053  -13.5288    0.0000 C   0  0  0  0  0  0  0  0  0  0  0  0
   15.1095  -14.3349    0.0000 C   0  0  0  0  0  0  0  0  0  0  0  0
   12.2516  -14.3403    0.0000 C   0  0  0  0  0  0  0  0  0  0  0  0
    3.6764  -13.5315    0.0000 C   0  0  0  0  0  0  0  0  0  0  0  0
    3.6779  -14.3565    0.0000 C   0  0  0  0  0  0  0  0  0  0  0  0
    2.9611  -13.1203    0.0000 C   0  0  0  0  0  0  0  0  0  0  0  0
    2.2474  -13.5342    0.0000 C   0  0  0  0  0  0  0  0  0  0  0  0
    2.9642  -14.7703    0.0000 C   0  0  0  0  0  0  0  0  0  0  0  0
    2.2490  -14.3592    0.0000 C   0  0  1  0  0  0  0  0  0  0  0  0
    4.3932  -14.7676    0.0000 C   0  0  0  0  0  0  0  0  0  0  0  0
    2.5473  -12.4066    0.0000 C   0  0  0  0  0  0  0  0  0  0  0  0
    3.3723  -12.4051    0.0000 C   0  0  0  0  0  0  0  0  0  0  0  0
    1.5353  -14.7730    0.0000 O   0  0  0  0  0  0  0  0  0  0  0  0
   19.3916  -11.8519    0.0000 O   0  0  0  0  0  0  0  0  0  0  0  0
   20.0808  -10.5532    0.0000 O   0  0  0  0  0  0  0  0  0  0  0  0
   18.6526  -10.6006    0.0000 C   0  0  0  0  0  0  0  0  0  0  0  0
   17.9376  -11.0122    0.0000 C   0  0  0  0  0  0  0  0  0  0  0  0
   17.2237  -10.5988    0.0000 C   0  0  0  0  0  0  0  0  0  0  0  0
   16.5087  -11.0104    0.0000 C   0  0  0  0  0  0  0  0  0  0  0  0
   15.7947  -10.5971    0.0000 C   0  0  0  0  0  0  0  0  0  0  0  0
   15.0797  -11.0087    0.0000 C   0  0  0  0  0  0  0  0  0  0  0  0
   14.3658  -10.5953    0.0000 C   0  0  0  0  0  0  0  0  0  0  0  0
   13.6508  -11.0069    0.0000 C   0  0  0  0  0  0  0  0  0  0  0  0
   12.9368  -10.5935    0.0000 C   0  0  0  0  0  0  0  0  0  0  0  0
   12.2219  -11.0051    0.0000 C   0  0  0  0  0  0  0  0  0  0  0  0
   11.5079  -10.5917    0.0000 C   0  0  0  0  0  0  0  0  0  0  0  0
   10.7929  -11.0033    0.0000 C   0  0  0  0  0  0  0  0  0  0  0  0
   10.0790  -10.5899    0.0000 C   0  0  0  0  0  0  0  0  0  0  0  0
    9.3640  -11.0015    0.0000 C   0  0  0  0  0  0  0  0  0  0  0  0
    8.6500  -10.5881    0.0000 C   0  0  0  0  0  0  0  0  0  0  0  0
   19.3804  -10.9892    0.0000 C   0  0  0  0  0  0  0  0  0  0  0  0
   17.5533  -14.2190    0.0000 C   0  0  0  0  0  0  0  0  0  0  0  0
   18.3783  -14.2190    0.0000 C   0  0  0  0  0  0  0  0  0  0  0  0
    1.5406  -15.6022    0.0000 C   0  0  0  0  0  0  0  0  0  0  0  0
    0.8132  -15.9916    0.0000 O   0  0  0  0  0  0  0  0  0  0  0  0
    9.3548  -16.1580    0.0000 C   0  0  0  0  0  0  0  0  0  0  0  0
    8.6498  -15.7295    0.0000 C   0  0  0  0  0  0  0  0  0  0  0  0
    7.9262  -16.1258    0.0000 C   0  0  0  0  0  0  0  0  0  0  0  0
    7.2212  -15.6973    0.0000 C   0  0  0  0  0  0  0  0  0  0  0  0
    6.4977  -16.0936    0.0000 C   0  0  0  0  0  0  0  0  0  0  0  0
    5.7927  -15.6651    0.0000 C   0  0  0  0  0  0  0  0  0  0  0  0
    5.0691  -16.0615    0.0000 C   0  0  0  0  0  0  0  0  0  0  0  0
    4.3641  -15.6330    0.0000 C   0  0  0  0  0  0  0  0  0  0  0  0
    3.6405  -16.0293    0.0000 C   0  0  0  0  0  0  0  0  0  0  0  0
    2.9355  -15.6008    0.0000 C   0  0  0  0  0  0  0  0  0  0  0  0
    2.2415  -16.0374    0.0000 C   0  0  0  0  0  0  0  0  0  0  0  0
  1  2  1  0  0  0  0
  2  3  1  0  0  0  0
  3  4  1  0  0  0  0
  4  5  1  0  0  0  0
  5  6  2  0  0  0  0
  6  1  1  0  0  0  0
  5  7  1  0  0  0  0
  8  9  2  0  0  0  0
  9  6  1  0  0  0  0
 10 11  2  0  0  0  0
 11  8  1  0  0  0  0
 12 13  2  0  0  0  0
 13 10  1  0  0  0  0
 14 15  2  0  0  0  0
 15 12  1  0  0  0  0
 16 17  2  0  0  0  0
 17 14  1  0  0  0  0
 18 19  1  0  0  0  0
 19 20  2  0  0  0  0
 20 16  1  0  0  0  0
 21 22  2  0  0  0  0
 22 19  1  0  0  0  0
 23 24  1  0  0  0  0
 24 25  2  0  0  0  0
 25 21  1  0  0  0  0
 26 27  2  0  0  0  0
 27 24  1  0  0  0  0
 11 28  1  0  0  0  0
 15 29  1  0  0  0  0
 26 30  1  0  0  0  0
 30 31  2  0  0  0  0
 30 32  1  0  0  0  0
 32 33  1  0  0  0  0
 31 34  1  0  0  0  0
 34 35  1  0  0  0  0
 33 35  1  0  0  0  0
 31 36  1  0  0  0  0
 32 37  1  0  0  0  0
 32 38  1  0  0  0  0
 35 39  1  1  0  0  0
  3 40  1  1  0  0  0
 57 41  2  0  0  0  0
 42 43  1  0  0  0  0
 43 44  1  0  0  0  0
 44 45  1  0  0  0  0
 45 46  1  0  0  0  0
 46 47  1  0  0  0  0
 47 48  1  0  0  0  0
 48 49  1  0  0  0  0
 49 50  1  0  0  0  0
 50 51  1  0  0  0  0
 51 52  1  0  0  0  0
 52 53  1  0  0  0  0
 53 54  1  0  0  0  0
 54 55  1  0  0  0  0
 57 42  1  0  0  0  0
 55 56  1  0  0  0  0
 57 40  1  0  0  0  0
  1 58  1  0  0  0  0
  1 59  1  0  0  0  0
 71 72  1  0  0  0  0
 60 72  1  0  0  0  0
 60 61  2  0  0  0  0
 63 62  1  0  0  0  0
 64 63  1  0  0  0  0
 65 64  1  0  0  0  0
 66 65  1  0  0  0  0
 67 66  1  0  0  0  0
 68 67  1  0  0  0  0
 69 68  1  0  0  0  0
 70 69  1  0  0  0  0
 71 70  1  0  0  0  0
 60 39  1  0  0  0  0
M  END
>  <cdx:fragmentId>
5

$$$$
