100068.cdx
  Mrv1902 05222410192D          

 15 16  0  0  0  0            999 V2000
    8.0779   -7.9901    0.0000 C   0  0  0  0  0  0  0  0  0  0  0  0
    8.7924   -7.5776    0.0000 C   0  0  0  0  0  0  0  0  0  0  0  0
    9.5069   -7.9901    0.0000 C   0  0  0  0  0  0  0  0  0  0  0  0
    8.0779   -8.8151    0.0000 O   0  0  0  0  0  0  0  0  0  0  0  0
    7.3634   -7.5776    0.0000 O   0  0  0  0  0  0  0  0  0  0  0  0
    5.9345   -7.5776    0.0000 C   0  0  2  0  0  0  0  0  0  0  0  0
    6.6490   -7.9901    0.0000 C   0  0  1  0  0  0  0  0  0  0  0  0
    6.6490   -8.8151    0.0000 C   0  0  0  0  0  0  0  0  0  0  0  0
    5.9345   -9.2276    0.0000 C   0  0  1  0  0  0  0  0  0  0  0  0
    5.2200   -8.8151    0.0000 C   0  0  0  0  0  0  0  0  0  0  0  0
    5.2200   -7.9901    0.0000 C   0  0  0  0  0  0  0  0  0  0  0  0
    5.5989   -8.4030    0.0000 C   0  0  0  0  0  0  0  0  0  0  0  0
    4.8844   -8.8155    0.0000 C   0  0  0  0  0  0  0  0  0  0  0  0
    4.8844   -7.9905    0.0000 C   0  0  0  0  0  0  0  0  0  0  0  0
    5.9345   -6.7526    0.0000 C   0  0  0  0  0  0  0  0  0  0  0  0
  1  2  1  0  0  0  0
  2  3  1  0  0  0  0
  1  4  2  0  0  0  0
  1  5  1  0  0  0  0
  6  7  1  0  0  0  0
  7  8  1  0  0  0  0
  8  9  1  0  0  0  0
  9 10  1  0  0  0  0
 10 11  1  0  0  0  0
  6 11  1  0  0  0  0
  6 12  1  6  0  0  0
  9 12  1  6  0  0  0
 12 13  1  0  0  0  0
 12 14  1  0  0  0  0
  6 15  1  0  0  0  0
  7  5  1  6  0  0  0
M  END
>  <cdx:fragmentId>
15

$$$$
