100099.cdx
  Mrv1902 05222410282D          

 27 28  0  0  0  0            999 V2000
    3.3324   -7.4663    0.0000 C   0  0  0  0  0  0  0  0  0  0  0  0
    3.3324   -8.2912    0.0000 C   0  0  0  0  0  0  0  0  0  0  0  0
    4.0469   -8.7037    0.0000 C   0  0  0  0  0  0  0  0  0  0  0  0
    4.7614   -8.2912    0.0000 C   0  0  0  0  0  0  0  0  0  0  0  0
    4.7614   -7.4663    0.0000 C   0  0  0  0  0  0  0  0  0  0  0  0
    4.0469   -7.0537    0.0000 C   0  0  0  0  0  0  0  0  0  0  0  0
    2.6180   -7.0537    0.0000 O   0  0  0  0  0  0  0  0  0  0  0  0
    2.6180   -8.7037    0.0000 O   0  0  0  0  0  0  0  0  0  0  0  0
    5.4758   -8.7037    0.0000 C   0  0  2  0  0  0  0  0  0  0  0  0
    6.1903   -8.2912    0.0000 C   0  0  1  0  0  0  0  0  0  0  0  0
    6.9048   -8.7037    0.0000 C   0  0  0  0  0  0  0  0  0  0  0  0
    7.6193   -8.2912    0.0000 C   0  0  0  0  0  0  0  0  0  0  0  0
    8.3337   -8.7037    0.0000 C   0  0  0  0  0  0  0  0  0  0  0  0
    9.0482   -8.2912    0.0000 C   0  0  0  0  0  0  0  0  0  0  0  0
    8.3337   -9.5287    0.0000 O   0  0  0  0  0  0  0  0  0  0  0  0
    5.4758   -9.5287    0.0000 H   0  0  0  0  0  0  0  0  0  0  0  0
    5.4758   -7.8788    0.0000 O   0  0  0  0  0  0  0  0  0  0  0  0
    6.1903   -7.4663    0.0000 O   0  0  0  0  0  0  0  0  0  0  0  0
    6.1903   -9.1162    0.0000 H   0  0  0  0  0  0  0  0  0  0  0  0
    4.8925   -7.2954    0.0000 C   0  0  0  0  0  0  0  0  0  0  0  0
    9.7627   -8.7037    0.0000 C   0  0  0  0  0  0  0  0  0  0  0  0
   10.4771   -8.2912    0.0000 C   0  0  0  0  0  0  0  0  0  0  0  0
   10.4771   -7.4663    0.0000 C   0  0  0  0  0  0  0  0  0  0  0  0
    9.7627   -7.0537    0.0000 C   0  0  0  0  0  0  0  0  0  0  0  0
    9.0482   -7.4663    0.0000 C   0  0  0  0  0  0  0  0  0  0  0  0
   11.1916   -7.0537    0.0000 O   0  0  0  0  0  0  0  0  0  0  0  0
   11.1916   -8.7037    0.0000 O   0  0  0  0  0  0  0  0  0  0  0  0
  1  2  2  0  0  0  0
  2  3  1  0  0  0  0
  3  4  2  0  0  0  0
  4  5  1  0  0  0  0
  5  6  2  0  0  0  0
  6  1  1  0  0  0  0
  1  7  1  0  0  0  0
  2  8  1  0  0  0  0
  4  9  1  0  0  0  0
  9 10  1  0  0  0  0
 10 11  1  0  0  0  0
 11 12  1  0  0  0  0
 12 13  1  0  0  0  0
 13 14  1  0  0  0  0
 13 15  2  0  0  0  0
  9 16  1  6  0  0  0
  9 17  1  6  0  0  0
 10 18  1  1  0  0  0
 10 19  1  1  0  0  0
 17 20  1  0  0  0  0
 14 21  2  0  0  0  0
 21 22  1  0  0  0  0
 22 23  2  0  0  0  0
 23 24  1  0  0  0  0
 24 25  2  0  0  0  0
 25 14  1  0  0  0  0
 23 26  1  0  0  0  0
 22 27  1  0  0  0  0
M  END
>  <cdx:fragmentId>
5

$$$$
