100102.cdx
  Mrv1902 05222410262D          

 16 17  0  0  0  0            999 V2000
    6.4262   -9.3637    0.0000 C   0  0  0  0  0  0  0  0  0  0  0  0
    6.4262  -10.1888    0.0000 C   0  0  0  0  0  0  0  0  0  0  0  0
    7.1406  -10.6013    0.0000 C   0  0  0  0  0  0  0  0  0  0  0  0
    7.8551  -10.1888    0.0000 C   0  0  0  0  0  0  0  0  0  0  0  0
    7.8551   -9.3637    0.0000 C   0  0  0  0  0  0  0  0  0  0  0  0
    7.1406   -8.9513    0.0000 C   0  0  0  0  0  0  0  0  0  0  0  0
    7.1406  -11.4262    0.0000 C   0  0  0  0  0  0  0  0  0  0  0  0
    7.1406   -8.1263    0.0000 C   0  0  0  0  0  0  0  0  0  0  0  0
    7.8551   -7.7138    0.0000 C   0  0  0  0  0  0  0  0  0  0  0  0
    6.4262   -7.7138    0.0000 C   0  0  0  0  0  0  0  0  0  0  0  0
    7.8551   -6.8888    0.0000 C   0  0  0  0  0  0  0  0  0  0  0  0
    8.5696   -6.4763    0.0000 C   0  0  0  0  0  0  0  0  0  0  0  0
    9.3946   -6.4763    0.0000 C   0  0  0  0  0  0  0  0  0  0  0  0
    8.9821   -5.7618    0.0000 O   0  0  0  0  0  0  0  0  0  0  0  0
    9.9780   -7.0596    0.0000 C   0  0  0  0  0  0  0  0  0  0  0  0
   10.1915   -6.2627    0.0000 C   0  0  0  0  0  0  0  0  0  0  0  0
  1  2  1  0  0  0  0
  2  3  1  0  0  0  0
  3  4  2  0  0  0  0
  4  5  1  0  0  0  0
  5  6  1  0  0  0  0
  6  1  1  0  0  0  0
  3  7  1  0  0  0  0
  6  8  1  0  0  0  0
  8  9  2  0  0  0  0
  8 10  1  0  0  0  0
  9 11  1  0  0  0  0
 11 12  1  0  0  0  0
 12 13  1  0  0  0  0
 13 14  1  0  0  0  0
 14 12  1  0  0  0  0
 13 15  1  0  0  0  0
 13 16  1  0  0  0  0
M  END
>  <cdx:fragmentId>
5

$$$$
