100197.cdx
  Mrv1902 05222410202D          

 11 10  0  0  0  0            999 V2000
    6.0861   -3.1876    0.0000 C   0  0  0  0  0  0  0  0  0  0  0  0
    6.0861   -4.0126    0.0000 C   0  0  0  0  0  0  0  0  0  0  0  0
    5.3716   -4.4251    0.0000 C   0  0  0  0  0  0  0  0  0  0  0  0
    4.6571   -4.0126    0.0000 C   0  0  0  0  0  0  0  0  0  0  0  0
    3.9427   -4.4251    0.0000 C   0  0  0  0  0  0  0  0  0  0  0  0
    3.2282   -4.0126    0.0000 C   0  0  0  0  0  0  0  0  0  0  0  0
    2.5137   -4.4251    0.0000 C   0  0  0  0  0  0  0  0  0  0  0  0
    4.6571   -3.1876    0.0000 O   0  0  0  0  0  0  0  0  0  0  0  0
    4.3552   -5.1396    0.0000 C   0  0  0  0  0  0  0  0  0  0  0  0
    3.5302   -5.1396    0.0000 C   0  0  0  0  0  0  0  0  0  0  0  0
    6.8005   -4.4251    0.0000 C   0  0  0  0  0  0  0  0  0  0  0  0
  1  2  1  0  0  0  0
  2  3  2  0  0  0  0
  3  4  1  0  0  0  0
  4  5  1  0  0  0  0
  5  6  1  0  0  0  0
  6  7  2  0  0  0  0
  4  8  1  0  0  0  0
  5  9  1  0  0  0  0
  5 10  1  0  0  0  0
  2 11  1  0  0  0  0
M  END
>  <cdx:groupId>
34

>  <cdx:fragmentId>
5

$$$$
