100101.cdx
  Mrv1902 05222410262D          

 43 47  0  0  0  0            999 V2000
    6.4335   -9.5352    0.0000 C   0  0  0  0  0  0  0  0  0  0  0  0
    5.7191   -9.9477    0.0000 C   0  0  0  0  0  0  0  0  0  0  0  0
    5.7191  -10.7727    0.0000 C   0  0  1  0  0  0  0  0  0  0  0  0
    6.4335  -11.1852    0.0000 C   0  0  0  0  0  0  0  0  0  0  0  0
    7.1480  -10.7727    0.0000 C   0  0  0  0  0  0  0  0  0  0  0  0
    7.8625  -11.1852    0.0000 C   0  0  0  0  0  0  0  0  0  0  0  0
    8.5769  -10.7727    0.0000 C   0  0  0  0  0  0  0  0  0  0  0  0
    8.5769   -9.9477    0.0000 C   0  0  0  0  0  0  0  0  0  0  0  0
    9.2914   -9.5352    0.0000 C   0  0  2  0  0  0  0  0  0  0  0  0
   10.0760   -9.7901    0.0000 C   0  0  0  0  0  0  0  0  0  0  0  0
   10.5610   -9.1227    0.0000 C   0  0  0  0  0  0  0  0  0  0  0  0
   10.0760   -8.4553    0.0000 C   0  0  1  0  0  0  0  0  0  0  0  0
    9.2914   -8.7102    0.0000 C   0  0  1  0  0  0  0  0  0  0  0  0
    8.5769   -8.2977    0.0000 C   0  0  0  0  0  0  0  0  0  0  0  0
    7.8625   -8.7102    0.0000 C   0  0  0  0  0  0  0  0  0  0  0  0
    7.8625   -9.5352    0.0000 C   0  0  2  0  0  0  0  0  0  0  0  0
    7.1480   -9.9477    0.0000 C   0  0  1  0  0  0  0  0  0  0  0  0
    9.3776   -7.8897    0.0000 C   0  0  0  0  0  0  0  0  0  0  0  0
    7.1480   -9.1227    0.0000 C   0  0  0  0  0  0  0  0  0  0  0  0
    9.7789   -7.0575    0.0000 C   0  0  0  0  0  0  0  0  0  0  0  0
   10.3310   -7.6706    0.0000 C   0  0  2  0  0  0  0  0  0  0  0  0
   11.1379   -7.4991    0.0000 C   0  0  0  0  0  0  0  0  0  0  0  0
   11.3929   -6.7145    0.0000 C   0  0  0  0  0  0  0  0  0  0  0  0
   12.1999   -6.5430    0.0000 C   0  0  1  0  0  0  0  0  0  0  0  0
   12.4548   -5.7583    0.0000 C   0  0  0  0  0  0  0  0  0  0  0  0
   11.9028   -5.1452    0.0000 C   0  0  0  0  0  0  0  0  0  0  0  0
   13.2618   -5.5868    0.0000 C   0  0  0  0  0  0  0  0  0  0  0  0
   12.7519   -7.1561    0.0000 C   0  0  0  0  0  0  0  0  0  0  0  0
    7.8625  -10.3602    0.0000 H   0  0  0  0  0  0  0  0  0  0  0  0
    9.2914  -10.3602    0.0000 H   0  0  0  0  0  0  0  0  0  0  0  0
    5.0046  -11.1852    0.0000 O   0  0  0  0  0  0  0  0  0  0  0  0
    2.8647   -8.2951    0.0000 O   0  0  0  0  0  0  0  0  0  0  0  0
    3.5786   -8.7085    0.0000 C   0  0  0  0  0  0  0  0  0  0  0  0
    2.1487   -9.5317    0.0000 O   0  0  0  0  0  0  0  0  0  0  0  0
    2.1467  -11.1817    0.0000 O   0  0  0  0  0  0  0  0  0  0  0  0
    3.5746  -12.0085    0.0000 O   0  0  0  0  0  0  0  0  0  0  0  0
    3.5776   -9.5335    0.0000 C   0  0  2  0  0  0  0  0  0  0  0  0
    2.8627   -9.9451    0.0000 C   0  0  2  0  0  0  0  0  0  0  0  0
    2.8617  -10.7701    0.0000 C   0  0  1  0  0  0  0  0  0  0  0  0
    3.5756  -11.1835    0.0000 C   0  0  2  0  0  0  0  0  0  0  0  0
    4.2906  -10.7718    0.0000 C   0  0  1  0  0  0  0  0  0  0  0  0
    4.2916   -9.9468    0.0000 O   0  0  0  0  0  0  0  0  0  0  0  0
   10.8729   -8.2417    0.0000 H   0  0  0  0  0  0  0  0  0  0  0  0
 41 31  1  1  0  0  0
 37 33  1  1  0  0  0
 33 32  1  0  0  0  0
 38 34  1  6  0  0  0
 39 35  1  1  0  0  0
 40 36  1  6  0  0  0
 42 37  1  0  0  0  0
 38 37  1  0  0  0  0
 39 38  1  0  0  0  0
 40 39  1  0  0  0  0
 41 40  1  0  0  0  0
 42 41  1  0  0  0  0
  1  2  1  0  0  0  0
  2  3  1  0  0  0  0
  3  4  1  0  0  0  0
  4  5  1  0  0  0  0
  5  6  2  0  0  0  0
  6  7  1  0  0  0  0
  7  8  2  0  0  0  0
  8  9  1  0  0  0  0
  9 10  1  0  0  0  0
 10 11  1  0  0  0  0
 12 11  1  0  0  0  0
 12 13  1  0  0  0  0
  9 13  1  0  0  0  0
 13 14  1  0  0  0  0
 14 15  1  0  0  0  0
 15 16  1  0  0  0  0
  8 16  1  0  0  0  0
 16 17  1  0  0  0  0
  5 17  1  0  0  0  0
  1 17  1  0  0  0  0
 13 18  1  1  0  0  0
 17 19  1  1  0  0  0
 21 20  1  6  0  0  0
 21 22  1  0  0  0  0
 22 23  1  0  0  0  0
 23 24  1  0  0  0  0
 24 25  1  0  0  0  0
 25 26  1  0  0  0  0
 25 27  1  0  0  0  0
 24 28  1  1  0  0  0
 12 21  1  0  0  0  0
  3 31  1  1  0  0  0
 16 29  1  6  0  0  0
  9 30  1  6  0  0  0
 12 43  1  6  0  0  0
M  END
>  <cdx:fragmentId>
29

$$$$
