10015.cdx
  Mrv1902 05222410272D          

 14 13  0  0  0  0            999 V2000
   11.7668   -4.3344    0.0000 C   0  0  0  0  0  0  0  0  0  0  0  0
   11.0524   -3.9219    0.0000 C   0  0  0  0  0  0  0  0  0  0  0  0
   10.3379   -4.3344    0.0000 C   0  0  0  0  0  0  0  0  0  0  0  0
    9.6234   -3.9219    0.0000 C   0  0  0  0  0  0  0  0  0  0  0  0
    8.9089   -4.3344    0.0000 C   0  0  0  0  0  0  0  0  0  0  0  0
    8.1945   -3.9219    0.0000 C   0  0  0  0  0  0  0  0  0  0  0  0
    7.4800   -4.3344    0.0000 C   0  0  0  0  0  0  0  0  0  0  0  0
    6.7655   -3.9219    0.0000 C   0  0  0  0  0  0  0  0  0  0  0  0
    6.0511   -4.3344    0.0000 C   0  0  0  0  0  0  0  0  0  0  0  0
    5.3366   -3.9219    0.0000 C   0  0  0  0  0  0  0  0  0  0  0  0
    4.6221   -4.3344    0.0000 C   0  0  0  0  0  0  0  0  0  0  0  0
    3.9076   -3.9219    0.0000 C   0  0  0  0  0  0  0  0  0  0  0  0
    3.1932   -4.3344    0.0000 C   0  0  0  0  0  0  0  0  0  0  0  0
    7.4800   -5.1594    0.0000 O   0  0  0  0  0  0  0  0  0  0  0  0
  1  2  1  0  0  0  0
  2  3  1  0  0  0  0
  3  4  1  0  0  0  0
  4  5  1  0  0  0  0
  5  6  1  0  0  0  0
  6  7  1  0  0  0  0
  7  8  1  0  0  0  0
  8  9  1  0  0  0  0
  9 10  1  0  0  0  0
 10 11  1  0  0  0  0
 11 12  1  0  0  0  0
 12 13  1  0  0  0  0
  7 14  2  0  0  0  0
M  END
>  <cdx:fragmentId>
5

$$$$
