100100.cdx
  Mrv1902 05222410272D          

 69 76  0  0  0  0            999 V2000
   17.2451   -5.8164    0.0000 C   0  0  0  0  0  0  0  0  0  0  0  0
   17.9596   -5.4039    0.0000 C   0  0  0  0  0  0  0  0  0  0  0  0
   18.6741   -5.8164    0.0000 C   0  0  0  0  0  0  0  0  0  0  0  0
   18.6741   -6.6414    0.0000 C   0  0  0  0  0  0  0  0  0  0  0  0
   17.9596   -7.0539    0.0000 C   0  0  2  0  0  0  0  0  0  0  0  0
   17.9596   -7.8789    0.0000 C   0  0  0  0  0  0  0  0  0  0  0  0
   17.2451   -8.2914    0.0000 C   0  0  0  0  0  0  0  0  0  0  0  0
   16.5307   -7.8789    0.0000 C   0  0  1  0  0  0  0  0  0  0  0  0
   15.8162   -8.2914    0.0000 C   0  0  2  0  0  0  0  0  0  0  0  0
   15.8162   -9.1164    0.0000 C   0  0  0  0  0  0  0  0  0  0  0  0
   15.1017   -9.5289    0.0000 C   0  0  0  0  0  0  0  0  0  0  0  0
   14.3873   -9.1164    0.0000 C   0  0  1  0  0  0  0  0  0  0  0  0
   13.6728   -9.5289    0.0000 C   0  0  0  0  0  0  0  0  0  0  0  0
   12.9583   -9.1164    0.0000 C   0  0  2  0  0  0  0  0  0  0  0  0
   12.9583   -8.2914    0.0000 C   0  0  0  0  0  0  0  0  0  0  0  0
   13.6728   -7.8789    0.0000 C   0  0  0  0  0  0  0  0  0  0  0  0
   14.3873   -8.2914    0.0000 C   0  0  2  0  0  0  0  0  0  0  0  0
   15.1017   -7.8789    0.0000 C   0  0  1  0  0  0  0  0  0  0  0  0
   15.1017   -7.0539    0.0000 C   0  0  0  0  0  0  0  0  0  0  0  0
   15.8162   -6.6414    0.0000 C   0  0  0  0  0  0  0  0  0  0  0  0
   16.5307   -7.0539    0.0000 C   0  0  0  0  0  0  0  0  0  0  0  0
   17.2451   -6.6414    0.0000 C   0  0  2  0  0  0  0  0  0  0  0  0
   18.6741   -8.2914    0.0000 O   0  0  0  0  0  0  0  0  0  0  0  0
   14.3873   -7.4664    0.0000 C   0  0  0  0  0  0  0  0  0  0  0  0
   14.0853  -10.2433    0.0000 C   0  0  0  0  0  0  0  0  0  0  0  0
   13.2603  -10.2433    0.0000 C   0  0  0  0  0  0  0  0  0  0  0  0
   17.5471   -4.6894    0.0000 C   0  0  0  0  0  0  0  0  0  0  0  0
   18.3721   -4.6894    0.0000 C   0  0  0  0  0  0  0  0  0  0  0  0
   12.2438   -9.5289    0.0000 O   0  0  0  0  0  0  0  0  0  0  0  0
   14.3873   -9.9414    0.0000 H   0  0  0  0  0  0  0  0  0  0  0  0
   17.2451   -7.4664    0.0000 H   0  0  0  0  0  0  0  0  0  0  0  0
   19.3886   -7.0539    0.0000 O   0  0  0  0  0  0  0  0  0  0  0  0
   18.6741   -7.4664    0.0000 C   0  0  0  0  0  0  0  0  0  0  0  0
   11.5309   -9.1239    0.0000 C   0  0  1  0  0  0  0  0  0  0  0  0
   10.8169   -9.5372    0.0000 C   0  0  2  0  0  0  0  0  0  0  0  0
   10.8179  -10.3622    0.0000 O   0  0  0  0  0  0  0  0  0  0  0  0
   10.1020   -9.1255    0.0000 C   0  0  1  0  0  0  0  0  0  0  0  0
    9.3880   -9.5389    0.0000 O   0  0  0  0  0  0  0  0  0  0  0  0
   10.1010   -8.3005    0.0000 C   0  0  2  0  0  0  0  0  0  0  0  0
    9.3861   -7.8889    0.0000 O   0  0  0  0  0  0  0  0  0  0  0  0
   10.8150   -7.8872    0.0000 C   0  0  2  0  0  0  0  0  0  0  0  0
   11.5300   -8.2989    0.0000 O   0  0  0  0  0  0  0  0  0  0  0  0
   10.8141   -7.0622    0.0000 C   0  0  0  0  0  0  0  0  0  0  0  0
   10.0991   -6.6505    0.0000 O   0  0  0  0  0  0  0  0  0  0  0  0
   11.5281   -6.6489    0.0000 O   0  0  0  0  0  0  0  0  0  0  0  0
    8.7008   -9.1338    0.0000 C   0  0  1  0  0  0  0  0  0  0  0  0
    7.9845   -9.5430    0.0000 C   0  0  2  0  0  0  0  0  0  0  0  0
    7.9806  -10.3680    0.0000 O   0  0  0  0  0  0  0  0  0  0  0  0
    7.2719   -9.1272    0.0000 C   0  0  1  0  0  0  0  0  0  0  0  0
    7.2758   -8.3022    0.0000 C   0  0  1  0  0  0  0  0  0  0  0  0
    6.5632   -7.8864    0.0000 O   0  0  0  0  0  0  0  0  0  0  0  0
    7.9921   -7.8930    0.0000 C   0  0  1  0  0  0  0  0  0  0  0  0
    8.7047   -8.3088    0.0000 O   0  0  0  0  0  0  0  0  0  0  0  0
    7.9960   -7.0680    0.0000 C   0  0  0  0  0  0  0  0  0  0  0  0
    6.5555   -9.5363    0.0000 O   0  0  0  0  0  0  0  0  0  0  0  0
   15.1017   -8.7039    0.0000 H   0  0  0  0  0  0  0  0  0  0  0  0
   16.5307   -8.7039    0.0000 C   0  0  0  0  0  0  0  0  0  0  0  0
   15.8162   -7.4664    0.0000 C   0  0  0  0  0  0  0  0  0  0  0  0
    7.2748  -10.7819    0.0000 C   0  0  2  0  0  0  0  0  0  0  0  0
    6.5556  -10.3778    0.0000 O   0  0  0  0  0  0  0  0  0  0  0  0
    5.8460  -10.7986    0.0000 C   0  0  1  0  0  0  0  0  0  0  0  0
    5.8556  -11.6235    0.0000 C   0  0  2  0  0  0  0  0  0  0  0  0
    6.5748  -12.0277    0.0000 C   0  0  1  0  0  0  0  0  0  0  0  0
    7.2845  -11.6069    0.0000 C   0  0  1  0  0  0  0  0  0  0  0  0
    5.1460  -12.0443    0.0000 O   0  0  0  0  0  0  0  0  0  0  0  0
    5.1268  -10.3944    0.0000 C   0  0  0  0  0  0  0  0  0  0  0  0
    8.0037  -12.0110    0.0000 O   0  0  0  0  0  0  0  0  0  0  0  0
    6.5844  -12.8526    0.0000 O   0  0  0  0  0  0  0  0  0  0  0  0
    4.4407  -10.8212    0.0000 O   0  0  0  0  0  0  0  0  0  0  0  0
 33 23  2  0  0  0  0
 33 32  1  0  0  0  0
  1  2  1  0  0  0  0
  2  3  1  0  0  0  0
  3  4  1  0  0  0  0
  4  5  1  0  0  0  0
  5  6  1  0  0  0  0
  6  7  1  0  0  0  0
  7  8  1  0  0  0  0
  8  9  1  0  0  0  0
  9 10  1  0  0  0  0
 10 11  1  0  0  0  0
 11 12  1  0  0  0  0
 12 13  1  0  0  0  0
 13 14  1  0  0  0  0
 14 15  1  0  0  0  0
 15 16  1  0  0  0  0
 16 17  1  0  0  0  0
 12 17  1  0  0  0  0
 17 18  1  0  0  0  0
  9 18  1  0  0  0  0
 18 19  1  0  0  0  0
 19 20  1  0  0  0  0
 20 21  2  0  0  0  0
  8 21  1  0  0  0  0
 21 22  1  0  0  0  0
  5 22  1  0  0  0  0
  1 22  1  0  0  0  0
  5 33  1  1  0  0  0
 17 24  1  1  0  0  0
 13 25  1  0  0  0  0
 13 26  1  0  0  0  0
  2 27  1  0  0  0  0
  2 28  1  0  0  0  0
 14 29  1  1  0  0  0
 12 30  1  6  0  0  0
 22 31  1  1  0  0  0
 34 35  1  0  0  0  0
 35 36  1  6  0  0  0
 35 37  1  0  0  0  0
 37 38  1  1  0  0  0
 37 39  1  0  0  0  0
 39 40  1  6  0  0  0
 39 41  1  0  0  0  0
 41 42  1  0  0  0  0
 41 43  1  1  0  0  0
 43 44  1  0  0  0  0
 34 42  1  0  0  0  0
 43 45  2  0  0  0  0
 34 29  1  1  0  0  0
 46 47  1  0  0  0  0
 47 48  1  6  0  0  0
 47 49  1  0  0  0  0
 49 50  1  0  0  0  0
 50 51  1  1  0  0  0
 50 52  1  0  0  0  0
 52 53  1  0  0  0  0
 52 54  1  6  0  0  0
 46 53  1  0  0  0  0
 49 55  1  6  0  0  0
 46 38  1  1  0  0  0
 18 56  1  6  0  0  0
  8 57  1  6  0  0  0
  9 58  1  1  0  0  0
 59 60  1  0  0  0  0
 60 61  1  0  0  0  0
 61 62  1  0  0  0  0
 62 63  1  0  0  0  0
 63 64  1  0  0  0  0
 64 59  1  0  0  0  0
 62 65  1  6  0  0  0
 61 66  1  1  0  0  0
 64 67  1  6  0  0  0
 63 68  1  1  0  0  0
 66 69  1  0  0  0  0
 59 48  1  1  0  0  0
M  END
>  <cdx:fragmentId>
5

$$$$
