100106.cdx
  Mrv1902 05222410282D          

 25 26  0  0  0  0            999 V2000
    6.6305   -9.0131    0.0000 O   0  0  0  0  0  0  0  0  0  0  0  0
    7.3450   -9.4256    0.0000 C   0  0  2  0  0  0  0  0  0  0  0  0
    7.3450  -10.2506    0.0000 C   0  0  1  0  0  0  0  0  0  0  0  0
    6.6305  -10.6631    0.0000 C   0  0  2  0  0  0  0  0  0  0  0  0
    5.9160  -10.2506    0.0000 C   0  0  1  0  0  0  0  0  0  0  0  0
    5.9160   -9.4256    0.0000 C   0  0  1  0  0  0  0  0  0  0  0  0
    8.0595  -10.6631    0.0000 O   0  0  0  0  0  0  0  0  0  0  0  0
    6.6305  -11.4881    0.0000 O   0  0  0  0  0  0  0  0  0  0  0  0
    5.2016  -10.6631    0.0000 O   0  0  0  0  0  0  0  0  0  0  0  0
    5.2016   -9.0131    0.0000 C   0  0  0  0  0  0  0  0  0  0  0  0
    4.4871   -9.4256    0.0000 O   0  0  0  0  0  0  0  0  0  0  0  0
    8.0595   -9.0131    0.0000 O   0  0  0  0  0  0  0  0  0  0  0  0
    8.0595   -8.1881    0.0000 C   0  0  0  0  0  0  0  0  0  0  0  0
    8.7739   -7.7756    0.0000 C   0  0  0  0  0  0  0  0  0  0  0  0
    8.7739   -6.9506    0.0000 C   0  0  0  0  0  0  0  0  0  0  0  0
    8.0595   -6.5381    0.0000 C   0  0  0  0  0  0  0  0  0  0  0  0
    7.3450   -6.9506    0.0000 C   0  0  0  0  0  0  0  0  0  0  0  0
    7.3450   -7.7756    0.0000 C   0  0  0  0  0  0  0  0  0  0  0  0
    8.0595   -5.7131    0.0000 C   0  0  0  0  0  0  0  0  0  0  0  0
    8.7739   -5.3006    0.0000 C   0  0  0  0  0  0  0  0  0  0  0  0
    8.7739   -4.4756    0.0000 C   0  0  0  0  0  0  0  0  0  0  0  0
    6.6305   -8.1881    0.0000 O   0  0  0  0  0  0  0  0  0  0  0  0
    5.9160   -7.7756    0.0000 C   0  0  0  0  0  0  0  0  0  0  0  0
    9.4884   -8.1881    0.0000 O   0  0  0  0  0  0  0  0  0  0  0  0
   10.2029   -7.7756    0.0000 C   0  0  0  0  0  0  0  0  0  0  0  0
  1  2  1  0  0  0  0
  2  3  1  0  0  0  0
  3  4  1  0  0  0  0
  4  5  1  0  0  0  0
  5  6  1  0  0  0  0
  1  6  1  0  0  0  0
  3  7  1  6  0  0  0
  4  8  1  1  0  0  0
  5  9  1  6  0  0  0
 10 11  1  0  0  0  0
  6 10  1  1  0  0  0
 13 14  1  0  0  0  0
 14 15  2  0  0  0  0
 15 16  1  0  0  0  0
 16 17  2  0  0  0  0
 17 18  1  0  0  0  0
 13 18  2  0  0  0  0
 12 13  1  0  0  0  0
 19 20  1  0  0  0  0
 20 21  2  0  0  0  0
 16 19  1  0  0  0  0
 22 23  1  0  0  0  0
 18 22  1  0  0  0  0
 24 25  1  0  0  0  0
 14 24  1  0  0  0  0
  2 12  1  1  0  0  0
M  END
>  <cdx:fragmentId>
29

$$$$
