10010.cdx
  Mrv1902 05222410272D          

 12 12  0  0  0  0            999 V2000
    2.4661  -10.5452    0.0000 C   0  0  0  0  0  0  0  0  0  0  0  0
    3.2911  -10.5452    0.0000 C   0  0  0  0  0  0  0  0  0  0  0  0
    3.5461   -9.7606    0.0000 C   0  0  0  0  0  0  0  0  0  0  0  0
    2.8786   -9.2757    0.0000 C   0  0  0  0  0  0  0  0  0  0  0  0
    2.2112   -9.7606    0.0000 C   0  0  0  0  0  0  0  0  0  0  0  0
    2.8786   -8.4507    0.0000 C   0  0  0  0  0  0  0  0  0  0  0  0
    4.3307   -9.5056    0.0000 C   0  0  0  0  0  0  0  0  0  0  0  0
    3.7761  -11.2126    0.0000 C   0  0  0  0  0  0  0  0  0  0  0  0
    3.4405  -11.9663    0.0000 C   0  0  0  0  0  0  0  0  0  0  0  0
    4.5965  -11.1264    0.0000 C   0  0  0  0  0  0  0  0  0  0  0  0
    5.0815  -11.7938    0.0000 O   0  0  0  0  0  0  0  0  0  0  0  0
    4.5022   -8.6987    0.0000 O   0  0  0  0  0  0  0  0  0  0  0  0
  1  2  1  0  0  0  0
  2  3  1  0  0  0  0
  3  4  2  0  0  0  0
  4  5  1  0  0  0  0
  5  1  1  0  0  0  0
  4  6  1  0  0  0  0
  3  7  1  0  0  0  0
  2  8  1  0  0  0  0
  8  9  1  0  0  0  0
  8 10  1  0  0  0  0
 10 11  1  0  0  0  0
  7 12  1  0  0  0  0
M  END
>  <cdx:fragmentId>
20

$$$$
