100104.cdx
  Mrv1902 05222410272D          

 22 23  0  0  0  0            999 V2000
    5.7780  -10.3114    0.0000 C   0  0  0  0  0  0  0  0  0  0  0  0
    5.0631   -9.8997    0.0000 C   0  0  0  0  0  0  0  0  0  0  0  0
    5.0622   -9.0747    0.0000 C   0  0  0  0  0  0  0  0  0  0  0  0
    5.7763   -8.6614    0.0000 C   0  0  0  0  0  0  0  0  0  0  0  0
    6.4912   -9.0731    0.0000 C   0  0  0  0  0  0  0  0  0  0  0  0
    6.4921   -9.8981    0.0000 C   0  0  0  0  0  0  0  0  0  0  0  0
    5.7789  -11.1364    0.0000 O   0  0  0  0  0  0  0  0  0  0  0  0
    7.2052   -8.6599    0.0000 C   0  0  2  0  0  0  0  0  0  0  0  0
    7.2043   -7.8349    0.0000 C   0  0  0  0  0  0  0  0  0  0  0  0
    7.9183   -7.4216    0.0000 C   0  0  0  0  0  0  0  0  0  0  0  0
    5.0604   -7.4247    0.0000 C   0  0  0  0  0  0  0  0  0  0  0  0
    3.6342   -9.9012    0.0000 C   0  0  0  0  0  0  0  0  0  0  0  0
    7.2079  -11.1349    0.0000 C   0  0  0  0  0  0  0  0  0  0  0  0
    7.2070  -10.3099    0.0000 O   0  0  0  0  0  0  0  0  0  0  0  0
    8.6341   -8.6583    0.0000 C   0  0  0  0  0  0  0  0  0  0  0  0
    9.3491   -9.0700    0.0000 C   0  0  0  0  0  0  0  0  0  0  0  0
    9.3499   -9.8950    0.0000 C   0  0  0  0  0  0  0  0  0  0  0  0
    8.6359  -10.3083    0.0000 C   0  0  0  0  0  0  0  0  0  0  0  0
    7.9210   -9.8966    0.0000 C   0  0  0  0  0  0  0  0  0  0  0  0
    7.9201   -9.0716    0.0000 C   0  0  0  0  0  0  0  0  0  0  0  0
    5.7754   -7.8364    0.0000 O   0  0  0  0  0  0  0  0  0  0  0  0
    4.3491  -10.3130    0.0000 O   0  0  0  0  0  0  0  0  0  0  0  0
 19 14  1  0  0  0  0
 14 13  1  0  0  0  0
 20 15  2  0  0  0  0
 16 15  1  0  0  0  0
 17 16  2  0  0  0  0
 18 17  1  0  0  0  0
 19 18  2  0  0  0  0
 20 19  1  0  0  0  0
 21 11  1  0  0  0  0
 22 12  1  0  0  0  0
  1  2  1  0  0  0  0
  2  3  2  0  0  0  0
  3  4  1  0  0  0  0
  4  5  2  0  0  0  0
  5  6  1  0  0  0  0
  1  6  2  0  0  0  0
  1  7  1  0  0  0  0
  8  9  1  6  0  0  0
  9 10  2  0  0  0  0
  8 20  1  0  0  0  0
  5  8  1  0  0  0  0
  4 21  1  0  0  0  0
  2 22  1  0  0  0  0
M  END
>  <cdx:fragmentId>
25

$$$$
