1002.cdx
  Mrv1902 05222410232D          

 14 15  0  0  0  0            999 V2000
    5.5752   -9.2696    0.0000 C   0  0  1  0  0  0  0  0  0  0  0  0
    6.3719   -9.0555    0.0000 C   0  0  0  0  0  0  0  0  0  0  0  0
    7.1686   -9.2696    0.0000 C   0  0  0  0  0  0  0  0  0  0  0  0
    7.5823   -8.5559    0.0000 C   0  0  0  0  0  0  0  0  0  0  0  0
    5.3907   -8.6796    0.0000 C   0  0  0  0  0  0  0  0  0  0  0  0
    6.7855   -8.3418    0.0000 C   0  0  0  0  0  0  0  0  0  0  0  0
    6.3733   -7.6280    0.0000 C   0  0  0  0  0  0  0  0  0  0  0  0
    6.5869   -6.8312    0.0000 C   0  0  0  0  0  0  0  0  0  0  0  0
    5.7900   -7.0447    0.0000 C   0  0  0  0  0  0  0  0  0  0  0  0
    6.1584   -9.8524    0.0000 C   0  0  0  0  0  0  0  0  0  0  0  0
    5.1627   -9.9840    0.0000 O   0  0  0  0  0  0  0  0  0  0  0  0
    4.3377   -9.9840    0.0000 C   0  0  0  0  0  0  0  0  0  0  0  0
    3.9252  -10.6985    0.0000 C   0  0  0  0  0  0  0  0  0  0  0  0
    3.9252   -9.2696    0.0000 O   0  0  0  0  0  0  0  0  0  0  0  0
  1  2  1  0  0  0  0
  2  3  1  0  0  0  0
  3  4  1  0  0  0  0
  1  5  1  0  0  0  0
  5  6  1  0  0  0  0
  4  6  1  0  0  0  0
  6  7  1  0  0  0  0
  2  7  1  0  0  0  0
  7  8  1  0  0  0  0
  7  9  1  0  0  0  0
  2 10  1  0  0  0  0
  1 11  1  6  0  0  0
 11 12  1  0  0  0  0
 12 13  1  0  0  0  0
 12 14  2  0  0  0  0
M  END
>  <cdx:fragmentId>
800

$$$$
