100321.cdx
  Mrv1902 05222410182D          

  9  8  0  0  0  0            999 V2000
    8.5147   -5.8308    0.0000 C   0  0  0  0  0  0  0  0  0  0  0  0
    7.0858   -5.8308    0.0000 N   0  0  0  0  0  0  0  0  0  0  0  0
    7.8002   -6.2433    0.0000 C   0  0  0  0  0  0  0  0  0  0  0  0
    8.5147   -5.0058    0.0000 O   0  0  0  0  0  0  0  0  0  0  0  0
    9.2292   -6.2433    0.0000 O   0  0  0  0  0  0  0  0  0  0  0  0
    6.3713   -6.2433    0.0000 C   0  0  0  0  0  0  0  0  0  0  0  0
    5.6568   -5.8308    0.0000 C   0  0  0  0  0  0  0  0  0  0  0  0
    4.9424   -6.2433    0.0000 C   0  0  0  0  0  0  0  0  0  0  0  0
    6.3713   -7.0683    0.0000 O   0  0  0  0  0  0  0  0  0  0  0  0
  2  3  1  0  0  0  0
  1  3  1  0  0  0  0
  1  4  2  0  0  0  0
  1  5  1  0  0  0  0
  6  7  1  0  0  0  0
  7  8  2  0  0  0  0
  6  9  2  0  0  0  0
  2  6  1  0  0  0  0
M  END
>  <cdx:groupId>
28

>  <cdx:fragmentId>
7

$$$$
