100313.cdx
  Mrv1902 05222410272D          

 26 27  0  0  0  0            999 V2000
    3.5991   -5.7964    0.0000 C   0  0  0  0  0  0  0  0  0  0  0  0
    4.3136   -6.2089    0.0000 C   0  0  0  0  0  0  0  0  0  0  0  0
    5.0280   -5.7964    0.0000 C   0  0  0  0  0  0  0  0  0  0  0  0
    5.7425   -6.2089    0.0000 C   0  0  0  0  0  0  0  0  0  0  0  0
    6.4570   -5.7964    0.0000 C   0  0  0  0  0  0  0  0  0  0  0  0
    7.1714   -6.2089    0.0000 C   0  0  0  0  0  0  0  0  0  0  0  0
    7.8859   -5.7964    0.0000 C   0  0  0  0  0  0  0  0  0  0  0  0
    8.6004   -6.2089    0.0000 C   0  0  0  0  0  0  0  0  0  0  0  0
    9.3148   -5.7964    0.0000 C   0  0  0  0  0  0  0  0  0  0  0  0
    3.5991   -4.9714    0.0000 O   0  0  0  0  0  0  0  0  0  0  0  0
   10.0293   -6.2089    0.0000 C   0  0  0  0  0  0  0  0  0  0  0  0
   10.7438   -5.7964    0.0000 C   0  0  0  0  0  0  0  0  0  0  0  0
   11.4583   -6.2089    0.0000 C   0  0  0  0  0  0  0  0  0  0  0  0
   11.4583   -7.0339    0.0000 C   0  0  0  0  0  0  0  0  0  0  0  0
   10.7438   -7.4464    0.0000 C   0  0  0  0  0  0  0  0  0  0  0  0
   10.0293   -7.0339    0.0000 C   0  0  0  0  0  0  0  0  0  0  0  0
   12.1727   -7.4464    0.0000 O   0  0  0  0  0  0  0  0  0  0  0  0
   12.1727   -5.7964    0.0000 O   0  0  0  0  0  0  0  0  0  0  0  0
    2.8846   -6.2089    0.0000 C   0  0  0  0  0  0  0  0  0  0  0  0
    2.8846   -7.0339    0.0000 C   0  0  0  0  0  0  0  0  0  0  0  0
    2.1701   -7.4464    0.0000 C   0  0  0  0  0  0  0  0  0  0  0  0
    1.4557   -7.0339    0.0000 C   0  0  0  0  0  0  0  0  0  0  0  0
    1.4557   -6.2089    0.0000 C   0  0  0  0  0  0  0  0  0  0  0  0
    2.1701   -5.7964    0.0000 C   0  0  0  0  0  0  0  0  0  0  0  0
    2.1701   -4.9714    0.0000 O   0  0  0  0  0  0  0  0  0  0  0  0
    3.5991   -7.4464    0.0000 O   0  0  0  0  0  0  0  0  0  0  0  0
  1  2  1  0  0  0  0
  2  3  1  0  0  0  0
  3  4  1  0  0  0  0
  4  5  1  0  0  0  0
  5  6  1  0  0  0  0
  6  7  1  0  0  0  0
  7  8  1  0  0  0  0
  8  9  1  0  0  0  0
  1 10  2  0  0  0  0
 11 12  1  0  0  0  0
 12 13  2  0  0  0  0
 13 14  1  0  0  0  0
 14 15  2  0  0  0  0
 15 16  1  0  0  0  0
 11 16  2  0  0  0  0
 14 17  1  0  0  0  0
 13 18  1  0  0  0  0
  9 11  1  0  0  0  0
 19 20  1  0  0  0  0
 20 21  2  0  0  0  0
 21 22  1  0  0  0  0
 22 23  2  0  0  0  0
 23 24  1  0  0  0  0
 19 24  2  0  0  0  0
 24 25  1  0  0  0  0
 20 26  1  0  0  0  0
  1 19  1  0  0  0  0
M  END
>  <cdx:groupId>
81

>  <cdx:fragmentId>
5

$$$$
