10041.cdx
  Mrv1902 05222410232D          

 20 21  0  0  0  0            999 V2000
    2.9320   -6.6000    0.0000 C   0  0  0  0  0  0  0  0  0  0  0  0
    2.9320   -7.4250    0.0000 C   0  0  0  0  0  0  0  0  0  0  0  0
    3.6465   -7.8375    0.0000 C   0  0  0  0  0  0  0  0  0  0  0  0
    4.3610   -7.4250    0.0000 C   0  0  0  0  0  0  0  0  0  0  0  0
    4.3610   -6.6000    0.0000 C   0  0  0  0  0  0  0  0  0  0  0  0
    3.6465   -6.1875    0.0000 C   0  0  0  0  0  0  0  0  0  0  0  0
    5.0754   -7.8375    0.0000 C   0  0  2  0  0  0  0  0  0  0  0  0
    5.7899   -7.4250    0.0000 C   0  0  0  0  0  0  0  0  0  0  0  0
    6.5044   -7.8375    0.0000 C   0  0  0  0  0  0  0  0  0  0  0  0
    7.2189   -7.4250    0.0000 C   0  0  0  0  0  0  0  0  0  0  0  0
    6.5044   -8.6625    0.0000 C   0  0  0  0  0  0  0  0  0  0  0  0
    7.2189   -9.0750    0.0000 C   0  0  0  0  0  0  0  0  0  0  0  0
    7.9333   -8.6625    0.0000 C   0  0  0  0  0  0  0  0  0  0  0  0
    7.9333   -7.8375    0.0000 C   0  0  0  0  0  0  0  0  0  0  0  0
    7.2189   -6.6000    0.0000 C   0  0  0  0  0  0  0  0  0  0  0  0
    6.5044   -6.1875    0.0000 O   0  0  0  0  0  0  0  0  0  0  0  0
    7.9333   -6.1875    0.0000 O   0  0  0  0  0  0  0  0  0  0  0  0
    8.6478   -7.4250    0.0000 O   0  0  0  0  0  0  0  0  0  0  0  0
    7.2189   -9.9000    0.0000 O   0  0  0  0  0  0  0  0  0  0  0  0
    5.0754   -8.6625    0.0000 O   0  0  0  0  0  0  0  0  0  0  0  0
  1  2  2  0  0  0  0
  2  3  1  0  0  0  0
  3  4  2  0  0  0  0
  4  5  1  0  0  0  0
  5  6  2  0  0  0  0
  6  1  1  0  0  0  0
  4  7  1  0  0  0  0
  7  8  1  0  0  0  0
  8  9  1  0  0  0  0
  9 10  2  0  0  0  0
  9 11  1  0  0  0  0
 11 12  2  0  0  0  0
 12 13  1  0  0  0  0
 13 14  2  0  0  0  0
 14 10  1  0  0  0  0
 10 15  1  0  0  0  0
 14 18  1  0  0  0  0
 12 19  1  0  0  0  0
  7 20  1  6  0  0  0
 15 16  2  0  0  0  0
 15 17  1  0  0  0  0
M  STY  1   1 SUP
M  SAL   1  3  15  16  17
M  SBL   1  1  16
M  SMT   1 COOH
M  SAP   1  1  15  10  1
M  END
>  <cdx:fragmentId>
5

$$$$
