100492.cdx
  Mrv1902 05222410192D          

 28 32  0  0  0  0            999 V2000
    7.1170   -5.9387    0.0000 O   0  0  0  0  0  0  0  0  0  0  0  0
    6.6321   -5.2712    0.0000 C   0  0  0  0  0  0  0  0  0  0  0  0
    5.8475   -5.5262    0.0000 C   0  0  0  0  0  0  0  0  0  0  0  0
    5.8475   -6.3512    0.0000 C   0  0  0  0  0  0  0  0  0  0  0  0
    6.6321   -6.6061    0.0000 C   0  0  0  0  0  0  0  0  0  0  0  0
    5.1330   -6.7637    0.0000 C   0  0  0  0  0  0  0  0  0  0  0  0
    4.4185   -6.3512    0.0000 C   0  0  0  0  0  0  0  0  0  0  0  0
    4.4185   -5.5262    0.0000 C   0  0  0  0  0  0  0  0  0  0  0  0
    5.1330   -5.1137    0.0000 C   0  0  0  0  0  0  0  0  0  0  0  0
    3.7040   -5.1137    0.0000 C   0  0  0  0  0  0  0  0  0  0  0  0
    2.9896   -5.5262    0.0000 C   0  0  0  0  0  0  0  0  0  0  0  0
    2.9896   -6.3512    0.0000 C   0  0  0  0  0  0  0  0  0  0  0  0
    3.7040   -6.7637    0.0000 C   0  0  0  0  0  0  0  0  0  0  0  0
    6.8870   -4.4866    0.0000 O   0  0  0  0  0  0  0  0  0  0  0  0
    2.2751   -5.1137    0.0000 O   0  0  0  0  0  0  0  0  0  0  0  0
    1.5606   -5.5262    0.0000 C   0  0  0  0  0  0  0  0  0  0  0  0
    2.2751   -6.7637    0.0000 O   0  0  0  0  0  0  0  0  0  0  0  0
    1.5606   -6.3512    0.0000 C   0  0  0  0  0  0  0  0  0  0  0  0
    5.1330   -7.5887    0.0000 O   0  0  0  0  0  0  0  0  0  0  0  0
    4.9615   -1.8317    0.0000 O   0  0  0  0  0  0  0  0  0  0  0  0
    4.1410   -1.7455    0.0000 C   0  0  0  0  0  0  0  0  0  0  0  0
    3.8054   -2.4991    0.0000 O   0  0  0  0  0  0  0  0  0  0  0  0
    4.4185   -3.0512    0.0000 C   0  0  0  0  0  0  0  0  0  0  0  0
    5.1330   -2.6387    0.0000 C   0  0  0  0  0  0  0  0  0  0  0  0
    4.4185   -3.8762    0.0000 C   0  0  0  0  0  0  0  0  0  0  0  0
    5.1330   -4.2887    0.0000 C   0  0  0  0  0  0  0  0  0  0  0  0
    5.8475   -3.8762    0.0000 C   0  0  0  0  0  0  0  0  0  0  0  0
    5.8475   -3.0512    0.0000 C   0  0  0  0  0  0  0  0  0  0  0  0
  1  2  1  0  0  0  0
  2  3  1  0  0  0  0
  3  4  1  0  0  0  0
  4  5  1  0  0  0  0
  1  5  1  0  0  0  0
  6  7  1  0  0  0  0
  7  8  1  0  0  0  0
  8  9  1  0  0  0  0
  9  3  2  0  0  0  0
  6  4  2  0  0  0  0
 10 11  1  0  0  0  0
 11 12  2  0  0  0  0
 12 13  1  0  0  0  0
 13  7  2  0  0  0  0
 10  8  2  0  0  0  0
  2 14  2  0  0  0  0
 15 16  1  0  0  0  0
 11 15  1  0  0  0  0
 17 18  1  0  0  0  0
 12 17  1  0  0  0  0
  6 19  1  0  0  0  0
 20 21  1  0  0  0  0
 21 22  1  0  0  0  0
 22 23  1  0  0  0  0
 23 24  1  0  0  0  0
 20 24  1  0  0  0  0
 25 26  1  0  0  0  0
 26 27  2  0  0  0  0
 27 28  1  0  0  0  0
 28 24  2  0  0  0  0
 25 23  2  0  0  0  0
  9 26  1  0  0  0  0
M  END
>  <cdx:groupId>
90

>  <cdx:fragmentId>
5

$$$$
