10040.cdx
  Mrv1902 05222410232D          

 34 37  0  0  0  0            999 V2000
    6.2733   -9.3404    0.0000 H   0  0  0  0  0  0  0  0  0  0  0  0
    6.2733   -8.5154    0.0000 O   0  0  0  0  0  0  0  0  0  0  0  0
    5.5588   -8.9279    0.0000 C   0  0  2  0  0  0  0  0  0  0  0  0
    4.8443   -8.5154    0.0000 C   0  0  1  0  0  0  0  0  0  0  0  0
    4.8443   -7.6904    0.0000 C   0  0  2  0  0  0  0  0  0  0  0  0
    5.5588   -7.2779    0.0000 C   0  0  1  0  0  0  0  0  0  0  0  0
    6.2733   -7.6904    0.0000 C   0  0  1  0  0  0  0  0  0  0  0  0
    6.9878   -7.2779    0.0000 C   0  0  0  0  0  0  0  0  0  0  0  0
    6.9878   -6.4529    0.0000 O   0  0  0  0  0  0  0  0  0  0  0  0
    5.5588   -6.4529    0.0000 O   0  0  0  0  0  0  0  0  0  0  0  0
    5.5588  -12.2279    0.0000 O   0  0  0  0  0  0  0  0  0  0  0  0
    4.1299   -9.7529    0.0000 O   0  0  0  0  0  0  0  0  0  0  0  0
   10.5601  -10.1654    0.0000 O   0  0  0  0  0  0  0  0  0  0  0  0
   11.2746   -8.9279    0.0000 C   0  0  0  0  0  0  0  0  0  0  0  0
   10.5601   -8.5154    0.0000 O   0  0  0  0  0  0  0  0  0  0  0  0
    8.4167   -8.9279    0.0000 C   0  0  0  0  0  0  0  0  0  0  0  0
    9.1312   -8.5154    0.0000 C   0  0  0  0  0  0  0  0  0  0  0  0
    9.8456   -8.9279    0.0000 C   0  0  0  0  0  0  0  0  0  0  0  0
    9.8456   -9.7529    0.0000 C   0  0  0  0  0  0  0  0  0  0  0  0
    9.1312  -10.1654    0.0000 C   0  0  0  0  0  0  0  0  0  0  0  0
    8.4167   -9.7529    0.0000 C   0  0  0  0  0  0  0  0  0  0  0  0
    4.1299   -7.2779    0.0000 O   0  0  0  0  0  0  0  0  0  0  0  0
    4.1299   -8.9279    0.0000 O   0  0  0  0  0  0  0  0  0  0  0  0
    6.9878  -12.2279    0.0000 O   0  0  0  0  0  0  0  0  0  0  0  0
    6.9878   -9.7529    0.0000 O   0  0  0  0  0  0  0  0  0  0  0  0
    6.2733  -10.1654    0.0000 C   0  0  0  0  0  0  0  0  0  0  0  0
    5.5588   -9.7529    0.0000 C   0  0  0  0  0  0  0  0  0  0  0  0
    4.8443  -10.1654    0.0000 C   0  0  0  0  0  0  0  0  0  0  0  0
    4.8443  -10.9904    0.0000 C   0  0  0  0  0  0  0  0  0  0  0  0
    5.5588  -11.4029    0.0000 C   0  0  0  0  0  0  0  0  0  0  0  0
    6.2733  -10.9904    0.0000 C   0  0  0  0  0  0  0  0  0  0  0  0
    6.9878  -11.4029    0.0000 C   0  0  0  0  0  0  0  0  0  0  0  0
    7.7022  -10.9904    0.0000 C   0  0  0  0  0  0  0  0  0  0  0  0
    7.7022  -10.1654    0.0000 C   0  0  0  0  0  0  0  0  0  0  0  0
 30 11  1  0  0  0  0
 28 12  1  0  0  0  0
 34 21  1  0  0  0  0
 19 13  1  0  0  0  0
 18 15  1  0  0  0  0
 15 14  1  0  0  0  0
 21 16  2  0  0  0  0
 17 16  1  0  0  0  0
 18 17  2  0  0  0  0
 19 18  1  0  0  0  0
 20 19  2  0  0  0  0
 21 20  1  0  0  0  0
  3 27  1  0  0  0  0
  3  1  1  6  0  0  0
 32 24  2  0  0  0  0
 34 25  1  0  0  0  0
 26 25  1  0  0  0  0
 31 26  2  0  0  0  0
 27 26  1  0  0  0  0
 28 27  2  0  0  0  0
 29 28  1  0  0  0  0
 30 29  2  0  0  0  0
 31 30  1  0  0  0  0
 32 31  1  0  0  0  0
 33 32  1  0  0  0  0
 34 33  2  0  0  0  0
  2  3  1  0  0  0  0
  3  4  1  0  0  0  0
  4  5  1  0  0  0  0
  5  6  1  0  0  0  0
  6  7  1  0  0  0  0
  2  7  1  0  0  0  0
  8  9  1  0  0  0  0
  7  8  1  1  0  0  0
  6 10  1  6  0  0  0
  5 22  1  1  0  0  0
  4 23  1  6  0  0  0
M  END
>  <cdx:fragmentId>
5

$$$$
