10048.cdx
  Mrv1902 05222410252D          

 11 12  0  0  0  0            999 V2000
    3.5039   -2.6114    0.0000 C   0  0  0  0  0  0  0  0  0  0  0  0
    4.2184   -3.0239    0.0000 C   0  0  0  0  0  0  0  0  0  0  0  0
    4.2184   -3.8489    0.0000 C   0  0  0  0  0  0  0  0  0  0  0  0
    3.5039   -4.2614    0.0000 C   0  0  0  0  0  0  0  0  0  0  0  0
    2.7894   -3.8489    0.0000 C   0  0  0  0  0  0  0  0  0  0  0  0
    2.7894   -3.0239    0.0000 C   0  0  0  0  0  0  0  0  0  0  0  0
    3.1683   -3.4368    0.0000 C   0  0  0  0  0  0  0  0  0  0  0  0
    2.4538   -3.8493    0.0000 C   0  0  0  0  0  0  0  0  0  0  0  0
    2.4538   -3.0243    0.0000 C   0  0  0  0  0  0  0  0  0  0  0  0
    3.5039   -1.7864    0.0000 C   0  0  0  0  0  0  0  0  0  0  0  0
    4.9328   -2.6114    0.0000 Cl  0  0  0  0  0  0  0  0  0  0  0  0
  1  2  1  0  0  0  0
  2  3  1  0  0  0  0
  3  4  1  0  0  0  0
  4  5  1  0  0  0  0
  5  6  1  0  0  0  0
  1  6  1  0  0  0  0
  1  7  1  0  0  0  0
  7  4  1  0  0  0  0
  7  8  1  0  0  0  0
  7  9  1  0  0  0  0
  1 10  1  0  0  0  0
  2 11  1  0  0  0  0
M  END
>  <cdx:groupId>
36

>  <cdx:fragmentId>
5

$$$$
