1004.cdx
  Mrv1902 05222410252D          

  5  4  0  0  0  0            999 V2000
    2.6977   -3.0189    0.0000 P   0  0  0  0  0  0  0  0  0  0  0  0
    2.6977   -2.1939    0.0000 O   0  0  0  0  0  0  0  0  0  0  0  0
    1.8727   -3.0189    0.0000 O   0  0  0  0  0  0  0  0  0  0  0  0
    2.6977   -3.8439    0.0000 O   0  0  0  0  0  0  0  0  0  0  0  0
    3.5227   -3.0189    0.0000 O   0  0  0  0  0  0  0  0  0  0  0  0
  1  2  2  0  0  0  0
  1  3  1  0  0  0  0
  1  4  1  0  0  0  0
  1  5  1  0  0  0  0
M  END
>  <cdx:groupId>
16

>  <cdx:fragmentId>
5

$$$$
