10047.cdx
  Mrv1902 05222410212D          

 10 11  0  0  0  0            999 V2000
    4.1202   -4.0298    0.0000 C   0  0  0  0  0  0  0  0  0  0  0  0
    3.4058   -3.6173    0.0000 C   0  0  0  0  0  0  0  0  0  0  0  0
    3.4058   -2.7923    0.0000 C   0  0  0  0  0  0  0  0  0  0  0  0
    4.1202   -2.3798    0.0000 C   0  0  0  0  0  0  0  0  0  0  0  0
    4.8347   -2.7923    0.0000 C   0  0  0  0  0  0  0  0  0  0  0  0
    4.8347   -3.6173    0.0000 C   0  0  0  0  0  0  0  0  0  0  0  0
    3.7846   -3.2052    0.0000 C   0  0  0  0  0  0  0  0  0  0  0  0
    3.0702   -3.6177    0.0000 C   0  0  0  0  0  0  0  0  0  0  0  0
    3.0702   -2.7927    0.0000 C   0  0  0  0  0  0  0  0  0  0  0  0
    4.1202   -4.8548    0.0000 C   0  0  0  0  0  0  0  0  0  0  0  0
  1  2  1  0  0  0  0
  2  3  2  0  0  0  0
  3  4  1  0  0  0  0
  4  5  1  0  0  0  0
  5  6  1  0  0  0  0
  1  6  1  0  0  0  0
  1  7  1  0  0  0  0
  7  4  1  0  0  0  0
  7  8  1  0  0  0  0
  7  9  1  0  0  0  0
  1 10  1  0  0  0  0
M  END
>  <cdx:groupId>
33

>  <cdx:fragmentId>
5

$$$$
