10043.cdx
  Mrv1902 05222410222D          

 29 31  0  0  0  0            999 V2000
    3.2002   -5.1150    0.0000 C   0  0  0  0  0  0  0  0  0  0  0  0
    3.2002   -5.9400    0.0000 C   0  0  0  0  0  0  0  0  0  0  0  0
    3.9146   -6.3525    0.0000 C   0  0  0  0  0  0  0  0  0  0  0  0
    4.6291   -5.9400    0.0000 C   0  0  0  0  0  0  0  0  0  0  0  0
    4.6291   -5.1150    0.0000 C   0  0  0  0  0  0  0  0  0  0  0  0
    3.9146   -4.7025    0.0000 C   0  0  0  0  0  0  0  0  0  0  0  0
    5.3436   -6.3525    0.0000 C   0  0  0  0  0  0  0  0  0  0  0  0
    6.0580   -5.9400    0.0000 C   0  0  0  0  0  0  0  0  0  0  0  0
    6.7725   -6.3525    0.0000 C   0  0  0  0  0  0  0  0  0  0  0  0
    7.4870   -5.9400    0.0000 C   0  0  0  0  0  0  0  0  0  0  0  0
    6.7725   -7.1775    0.0000 C   0  0  0  0  0  0  0  0  0  0  0  0
    7.4870   -7.5900    0.0000 C   0  0  0  0  0  0  0  0  0  0  0  0
    8.2015   -7.1775    0.0000 C   0  0  0  0  0  0  0  0  0  0  0  0
    8.2015   -6.3525    0.0000 C   0  0  0  0  0  0  0  0  0  0  0  0
    8.9159   -5.9400    0.0000 O   0  0  0  0  0  0  0  0  0  0  0  0
    8.9159   -7.5900    0.0000 O   0  0  0  0  0  0  0  0  0  0  0  0
    9.6304   -8.0025    0.0000 C   0  0  0  0  0  0  0  0  0  0  0  0
    7.4870   -8.4150    0.0000 O   0  0  0  0  0  0  0  0  0  0  0  0
    6.7725   -8.8275    0.0000 C   0  0  2  0  0  0  0  0  0  0  0  0
    6.0580   -8.4150    0.0000 O   0  0  0  0  0  0  0  0  0  0  0  0
    5.3436   -8.8275    0.0000 C   0  0  1  0  0  0  0  0  0  0  0  0
    5.3436   -9.6525    0.0000 C   0  0  2  0  0  0  0  0  0  0  0  0
    6.0580  -10.0650    0.0000 C   0  0  1  0  0  0  0  0  0  0  0  0
    6.7725   -9.6525    0.0000 C   0  0  1  0  0  0  0  0  0  0  0  0
    4.6291   -8.4150    0.0000 C   0  0  0  0  0  0  0  0  0  0  0  0
    6.0580  -10.8900    0.0000 O   0  0  0  0  0  0  0  0  0  0  0  0
    7.4870  -10.0650    0.0000 O   0  0  0  0  0  0  0  0  0  0  0  0
    4.6291  -10.0650    0.0000 O   0  0  0  0  0  0  0  0  0  0  0  0
    3.9146   -8.8275    0.0000 O   0  0  0  0  0  0  0  0  0  0  0  0
  1  2  2  0  0  0  0
  2  3  1  0  0  0  0
  3  4  2  0  0  0  0
  4  5  1  0  0  0  0
  5  6  2  0  0  0  0
  6  1  1  0  0  0  0
  4  7  1  0  0  0  0
  7  8  1  0  0  0  0
  8  9  1  0  0  0  0
  9 10  2  0  0  0  0
  9 11  1  0  0  0  0
 11 12  2  0  0  0  0
 12 13  1  0  0  0  0
 13 14  2  0  0  0  0
 14 10  1  0  0  0  0
 14 15  1  0  0  0  0
 13 16  1  0  0  0  0
 12 18  1  0  0  0  0
 19 18  1  1  0  0  0
 19 20  1  0  0  0  0
 20 21  1  0  0  0  0
 21 22  1  0  0  0  0
 22 23  1  0  0  0  0
 23 24  1  0  0  0  0
 24 19  1  0  0  0  0
 21 25  1  1  0  0  0
 23 26  1  1  0  0  0
 24 27  1  6  0  0  0
 22 28  1  6  0  0  0
 25 29  1  0  0  0  0
 16 17  1  0  0  0  0
M  STY  1   1 SUP
M  SAL   1  2  16  17
M  SBL   1  1  17
M  SMT   1 OCH3
M  SAP   1  1  16  13  1
M  END
>  <cdx:fragmentId>
5

$$$$
