100528.cdx
  Mrv1902 05222410272D          

 38 41  0  0  0  0            999 V2000
   10.9321   -7.1723    0.0000 O   0  0  0  0  0  0  0  0  0  0  0  0
   10.3801   -7.7854    0.0000 C   0  0  0  0  0  0  0  0  0  0  0  0
    9.6264   -7.4498    0.0000 C   0  0  1  0  0  0  0  0  0  0  0  0
    9.7127   -6.6294    0.0000 C   0  0  2  0  0  0  0  0  0  0  0  0
   10.5196   -6.4578    0.0000 C   0  0  0  0  0  0  0  0  0  0  0  0
   10.5516   -8.5924    0.0000 O   0  0  0  0  0  0  0  0  0  0  0  0
    8.9120   -7.8623    0.0000 C   0  0  0  0  0  0  0  0  0  0  0  0
    8.1975   -7.4498    0.0000 C   0  0  0  0  0  0  0  0  0  0  0  0
    8.1975   -6.6248    0.0000 C   0  0  0  0  0  0  0  0  0  0  0  0
    7.4830   -6.2123    0.0000 C   0  0  0  0  0  0  0  0  0  0  0  0
    6.7686   -6.6248    0.0000 C   0  0  0  0  0  0  0  0  0  0  0  0
    6.7686   -7.4498    0.0000 C   0  0  0  0  0  0  0  0  0  0  0  0
    7.4830   -7.8623    0.0000 C   0  0  0  0  0  0  0  0  0  0  0  0
    6.0541   -6.2123    0.0000 O   0  0  0  0  0  0  0  0  0  0  0  0
    4.6251   -6.2123    0.0000 O   0  0  0  0  0  0  0  0  0  0  0  0
    5.3396   -6.6248    0.0000 C   0  0  2  0  0  0  0  0  0  0  0  0
    5.3396   -7.4498    0.0000 C   0  0  1  0  0  0  0  0  0  0  0  0
    4.6251   -7.8623    0.0000 C   0  0  2  0  0  0  0  0  0  0  0  0
    3.9107   -7.4498    0.0000 C   0  0  1  0  0  0  0  0  0  0  0  0
    3.9107   -6.6248    0.0000 C   0  0  1  0  0  0  0  0  0  0  0  0
    3.1962   -6.2123    0.0000 C   0  0  0  0  0  0  0  0  0  0  0  0
    2.4817   -6.6248    0.0000 O   0  0  0  0  0  0  0  0  0  0  0  0
    3.1962   -7.8623    0.0000 O   0  0  0  0  0  0  0  0  0  0  0  0
    4.6251   -8.6873    0.0000 O   0  0  0  0  0  0  0  0  0  0  0  0
    6.0541   -7.8623    0.0000 O   0  0  0  0  0  0  0  0  0  0  0  0
    7.4830   -5.3873    0.0000 O   0  0  0  0  0  0  0  0  0  0  0  0
    6.7686   -4.9748    0.0000 C   0  0  0  0  0  0  0  0  0  0  0  0
    9.0996   -6.0773    0.0000 C   0  0  0  0  0  0  0  0  0  0  0  0
    9.2711   -5.2704    0.0000 C   0  0  0  0  0  0  0  0  0  0  0  0
    8.6580   -4.7183    0.0000 C   0  0  0  0  0  0  0  0  0  0  0  0
    8.8295   -3.9113    0.0000 C   0  0  0  0  0  0  0  0  0  0  0  0
    9.6142   -3.6564    0.0000 C   0  0  0  0  0  0  0  0  0  0  0  0
   10.2273   -4.2084    0.0000 C   0  0  0  0  0  0  0  0  0  0  0  0
   10.0557   -5.0154    0.0000 C   0  0  0  0  0  0  0  0  0  0  0  0
    9.7857   -2.8494    0.0000 O   0  0  0  0  0  0  0  0  0  0  0  0
    9.2023   -2.2661    0.0000 C   0  0  0  0  0  0  0  0  0  0  0  0
    8.2164   -3.3593    0.0000 O   0  0  0  0  0  0  0  0  0  0  0  0
    7.4318   -3.6143    0.0000 C   0  0  0  0  0  0  0  0  0  0  0  0
  1  2  1  0  0  0  0
  2  3  1  0  0  0  0
  3  4  1  0  0  0  0
  4  5  1  0  0  0  0
  1  5  1  0  0  0  0
  2  6  2  0  0  0  0
  8  9  1  0  0  0  0
  9 10  2  0  0  0  0
 10 11  1  0  0  0  0
 11 12  2  0  0  0  0
 12 13  1  0  0  0  0
  8 13  2  0  0  0  0
 15 16  1  0  0  0  0
 16 17  1  0  0  0  0
 17 18  1  0  0  0  0
 18 19  1  0  0  0  0
 19 20  1  0  0  0  0
 15 20  1  0  0  0  0
 21 22  1  0  0  0  0
 20 21  1  1  0  0  0
 19 23  1  6  0  0  0
 18 24  1  1  0  0  0
 17 25  1  6  0  0  0
 16 14  1  1  0  0  0
 11 14  1  0  0  0  0
 26 27  1  0  0  0  0
 10 26  1  0  0  0  0
  7  8  1  0  0  0  0
  3  7  1  6  0  0  0
 29 30  1  0  0  0  0
 30 31  2  0  0  0  0
 31 32  1  0  0  0  0
 32 33  2  0  0  0  0
 33 34  1  0  0  0  0
 29 34  2  0  0  0  0
 35 36  1  0  0  0  0
 32 35  1  0  0  0  0
 37 38  1  0  0  0  0
 31 37  1  0  0  0  0
 28 29  1  0  0  0  0
  4 28  1  1  0  0  0
M  END
>  <cdx:fragmentId>
33

$$$$
