100582.cdx
  Mrv1902 05222410222D          

  7  7  0  0  0  0            999 V2000
    3.6915   -4.3713    0.0000 C   0  0  0  0  0  0  0  0  0  0  0  0
    4.4060   -4.7838    0.0000 C   0  0  0  0  0  0  0  0  0  0  0  0
    5.1204   -4.3713    0.0000 C   0  0  0  0  0  0  0  0  0  0  0  0
    5.8349   -4.7838    0.0000 C   0  0  0  0  0  0  0  0  0  0  0  0
    6.6599   -4.7838    0.0000 C   0  0  0  0  0  0  0  0  0  0  0  0
    2.9770   -3.9588    0.0000 N   0  0  0  0  0  0  0  0  0  0  0  0
    6.2474   -5.4982    0.0000 S   0  0  0  0  0  0  0  0  0  0  0  0
  1  2  1  0  0  0  0
  2  3  1  0  0  0  0
  3  4  1  0  0  0  0
  4  5  1  0  0  0  0
  1  6  3  0  0  0  0
  4  7  1  0  0  0  0
  5  7  1  0  0  0  0
M  END
>  <cdx:groupId>
23

>  <cdx:fragmentId>
5

$$$$
