100781.cdx
  Mrv1902 05222410232D          

 34 38  0  0  0  0            999 V2000
    8.8501   -6.9798    0.0000 H   0  0  0  0  0  0  0  0  0  0  0  0
    8.5304   -7.2245    0.0000 H   0  0  0  0  0  0  0  0  0  0  0  0
    7.3780   -8.3406    0.0000 C   0  0  2  0  0  0  0  0  0  0  0  0
    7.9173   -7.7163    0.0000 C   0  0  0  0  0  0  0  0  0  0  0  0
    8.6777   -8.0362    0.0000 C   0  0  2  0  0  0  0  0  0  0  0  0
    8.6084   -8.8583    0.0000 N   0  0  0  0  0  0  0  0  0  0  0  0
    9.2348   -9.3946    0.0000 C   0  0  0  0  0  0  0  0  0  0  0  0
    9.2113  -10.2193    0.0000 C   0  0  0  0  0  0  0  0  0  0  0  0
    8.5540  -10.7178    0.0000 C   0  0  0  0  0  0  0  0  0  0  0  0
    7.7535  -10.5181    0.0000 C   0  0  0  0  0  0  0  0  0  0  0  0
    7.4074   -9.7692    0.0000 C   0  0  2  0  0  0  0  0  0  0  0  0
    6.5826   -9.7862    0.0000 C   0  0  2  0  0  0  0  0  0  0  0  0
    6.1555   -9.0804    0.0000 C   0  0  2  0  0  0  0  0  0  0  0  0
    5.3451   -8.9255    0.0000 O   0  0  0  0  0  0  0  0  0  0  0  0
    5.2420   -8.1069    0.0000 C   0  0  0  0  0  0  0  0  0  0  0  0
    5.9887   -7.7559    0.0000 C   0  0  2  0  0  0  0  0  0  0  0  0
    6.5532   -8.3575    0.0000 C   0  0  2  0  0  0  0  0  0  0  0  0
    7.8051   -9.0464    0.0000 C   0  0  2  0  0  0  0  0  0  0  0  0
    4.5192   -7.7092    0.0000 O   0  0  0  0  0  0  0  0  0  0  0  0
   11.5054   -7.3741    0.0000 C   0  0  0  0  0  0  0  0  0  0  0  0
   10.5762   -5.8385    0.0000 O   0  0  0  0  0  0  0  0  0  0  0  0
    6.1436   -6.9456    0.0000 C   0  0  0  0  0  0  0  0  0  0  0  0
    6.1849  -10.5090    0.0000 C   0  0  0  0  0  0  0  0  0  0  0  0
    5.3627  -10.4412    0.0000 C   0  0  0  0  0  0  0  0  0  0  0  0
    7.1645   -7.5437    0.0000 H   0  0  0  0  0  0  0  0  0  0  0  0
    7.0097  -10.4920    0.0000 H   0  0  0  0  0  0  0  0  0  0  0  0
    5.6844   -9.7576    0.0000 H   0  0  0  0  0  0  0  0  0  0  0  0
    6.7667   -7.5607    0.0000 H   0  0  0  0  0  0  0  0  0  0  0  0
    8.2028   -8.3236    0.0000 H   0  0  0  0  0  0  0  0  0  0  0  0
   10.2562   -6.5990    0.0000 C   0  0  0  0  0  0  0  0  0  0  0  0
   10.6833   -7.3048    0.0000 C   0  0  2  0  0  0  0  0  0  0  0  0
   10.1440   -7.9291    0.0000 C   0  0  0  0  0  0  0  0  0  0  0  0
    9.3836   -7.6091    0.0000 C   0  0  2  0  0  0  0  0  0  0  0  0
    9.4529   -6.7871    0.0000 O   0  0  0  0  0  0  0  0  0  0  0  0
 33  1  1  6  0  0  0
  5  2  1  6  0  0  0
 31 20  1  1  0  0  0
 30 21  2  0  0  0  0
 34 30  1  0  0  0  0
 31 30  1  0  0  0  0
 32 31  1  0  0  0  0
 33 32  1  0  0  0  0
 33 34  1  0  0  0  0
  3  4  1  0  0  0  0
  5  4  1  0  0  0  0
  5  6  1  0  0  0  0
  6  7  1  0  0  0  0
  7  8  1  0  0  0  0
  8  9  1  0  0  0  0
  9 10  1  0  0  0  0
 10 11  1  0  0  0  0
 11 12  1  0  0  0  0
 12 13  1  0  0  0  0
 13 14  1  0  0  0  0
 14 15  1  0  0  0  0
 15 16  1  0  0  0  0
 16 17  1  0  0  0  0
  3 17  1  0  0  0  0
  3 18  1  0  0  0  0
 18 11  1  0  0  0  0
 13 17  1  0  0  0  0
  6 18  1  0  0  0  0
 15 19  2  0  0  0  0
  5 33  1  0  0  0  0
 16 22  1  1  0  0  0
 23 24  1  0  0  0  0
 12 23  1  1  0  0  0
  3 25  1  6  0  0  0
 11 26  1  1  0  0  0
 13 27  1  1  0  0  0
 17 28  1  1  0  0  0
 18 29  1  1  0  0  0
M  END
>  <cdx:fragmentId>
5

$$$$
