100780.cdx
  Mrv1902 05222410222D          

 16 17  0  0  0  0            999 V2000
    5.8214   -3.1279    0.0000 C   0  0  0  0  0  0  0  0  0  0  0  0
    6.5359   -3.5404    0.0000 C   0  0  0  0  0  0  0  0  0  0  0  0
    4.3924   -3.1279    0.0000 C   0  0  0  0  0  0  0  0  0  0  0  0
    5.1069   -3.5404    0.0000 C   0  0  0  0  0  0  0  0  0  0  0  0
    5.1069   -4.3654    0.0000 C   0  0  0  0  0  0  0  0  0  0  0  0
    4.3924   -4.7779    0.0000 C   0  0  0  0  0  0  0  0  0  0  0  0
    3.6780   -4.3654    0.0000 C   0  0  0  0  0  0  0  0  0  0  0  0
    2.9635   -4.7779    0.0000 C   0  0  0  0  0  0  0  0  0  0  0  0
    2.2490   -4.3654    0.0000 C   0  0  0  0  0  0  0  0  0  0  0  0
    2.2490   -3.5404    0.0000 C   0  0  0  0  0  0  0  0  0  0  0  0
    2.9635   -3.1279    0.0000 C   0  0  0  0  0  0  0  0  0  0  0  0
    3.6780   -3.5404    0.0000 C   0  0  0  0  0  0  0  0  0  0  0  0
    5.8214   -4.7779    0.0000 C   0  0  0  0  0  0  0  0  0  0  0  0
    2.9635   -2.3029    0.0000 O   0  0  0  0  0  0  0  0  0  0  0  0
    4.3924   -2.3029    0.0000 O   0  0  0  0  0  0  0  0  0  0  0  0
    5.8214   -2.3029    0.0000 O   0  0  0  0  0  0  0  0  0  0  0  0
  1  2  1  0  0  0  0
  3  4  1  0  0  0  0
  4  5  2  0  0  0  0
  5  6  1  0  0  0  0
  6  7  2  0  0  0  0
  7  8  1  0  0  0  0
  8  9  2  0  0  0  0
  9 10  1  0  0  0  0
 10 11  2  0  0  0  0
 11 12  1  0  0  0  0
  3 12  2  0  0  0  0
  7 12  1  0  0  0  0
  5 13  1  0  0  0  0
 11 14  1  0  0  0  0
  3 15  1  0  0  0  0
  1  4  1  0  0  0  0
  1 16  2  0  0  0  0
M  END
>  <cdx:groupId>
51

>  <cdx:fragmentId>
9

$$$$
