100962.cdx
  Mrv1902 05222410212D          

  7  6  0  0  0  0            999 V2000
    5.9618   -9.7606    0.0000 C   0  0  0  0  0  0  0  0  0  0  0  0
    6.6763   -9.3481    0.0000 C   0  0  0  0  0  0  0  0  0  0  0  0
    7.3908   -9.7606    0.0000 C   0  0  0  0  0  0  0  0  0  0  0  0
    8.1053   -9.3481    0.0000 S   0  0  0  0  0  0  0  0  0  0  0  0
    8.8197   -9.7606    0.0000 C   0  0  0  0  0  0  0  0  0  0  0  0
    5.2474   -9.3481    0.0000 C   0  0  0  0  0  0  0  0  0  0  0  0
    4.5329   -8.9356    0.0000 N   0  0  0  0  0  0  0  0  0  0  0  0
  1  2  1  0  0  0  0
  2  3  1  0  0  0  0
  4  5  1  0  0  0  0
  3  4  1  0  0  0  0
  6  7  3  0  0  0  0
  1  6  1  0  0  0  0
M  END
>  <cdx:fragmentId>
5

$$$$
