10108.cdx
  Mrv1902 05222410222D          

 10 10  0  0  0  0            999 V2000
    7.1226   -3.2977    0.0000 C   0  0  0  0  0  0  0  0  0  0  0  0
    7.8370   -3.7102    0.0000 C   0  0  0  0  0  0  0  0  0  0  0  0
    7.8370   -4.5352    0.0000 C   0  0  0  0  0  0  0  0  0  0  0  0
    7.1226   -4.9477    0.0000 C   0  0  0  0  0  0  0  0  0  0  0  0
    6.4081   -4.5352    0.0000 C   0  0  0  0  0  0  0  0  0  0  0  0
    6.4081   -3.7102    0.0000 C   0  0  0  0  0  0  0  0  0  0  0  0
    7.1226   -2.4727    0.0000 O   0  0  0  0  0  0  0  0  0  0  0  0
    5.9956   -5.2497    0.0000 C   0  0  0  0  0  0  0  0  0  0  0  0
    5.5831   -4.5352    0.0000 C   0  0  0  0  0  0  0  0  0  0  0  0
    8.5515   -4.9477    0.0000 C   0  0  0  0  0  0  0  0  0  0  0  0
  1  2  1  0  0  0  0
  2  3  1  0  0  0  0
  3  4  2  0  0  0  0
  4  5  1  0  0  0  0
  5  6  1  0  0  0  0
  1  6  1  0  0  0  0
  1  7  2  0  0  0  0
  5  8  1  0  0  0  0
  5  9  1  0  0  0  0
  3 10  1  0  0  0  0
M  END
>  <cdx:groupId>
32

>  <cdx:fragmentId>
5

$$$$
