10106.cdx
  Mrv1902 05222410242D          

 11 12  0  0  0  0            999 V2000
    4.1621   -5.2653    0.0000 C   0  0  0  0  0  0  0  0  0  0  0  0
    3.4477   -4.8528    0.0000 C   0  0  0  0  0  0  0  0  0  0  0  0
    3.4477   -4.0278    0.0000 C   0  0  0  0  0  0  0  0  0  0  0  0
    4.1621   -3.6153    0.0000 C   0  0  0  0  0  0  0  0  0  0  0  0
    4.8766   -4.0278    0.0000 C   0  0  0  0  0  0  0  0  0  0  0  0
    4.8766   -4.8528    0.0000 C   0  0  0  0  0  0  0  0  0  0  0  0
    3.8265   -4.4407    0.0000 O   0  0  0  0  0  0  0  0  0  0  0  0
    3.4477   -2.3778    0.0000 C   0  0  0  0  0  0  0  0  0  0  0  0
    4.1621   -2.7903    0.0000 C   0  0  0  0  0  0  0  0  0  0  0  0
    4.8766   -2.3778    0.0000 C   0  0  0  0  0  0  0  0  0  0  0  0
    4.1621   -6.0903    0.0000 C   0  0  0  0  0  0  0  0  0  0  0  0
  1  2  1  0  0  0  0
  2  3  1  0  0  0  0
  3  4  1  0  0  0  0
  4  5  1  0  0  0  0
  5  6  1  0  0  0  0
  1  6  1  0  0  0  0
  1  7  1  0  0  0  0
  7  4  1  0  0  0  0
  8  9  1  0  0  0  0
  9 10  1  0  0  0  0
  4  9  1  0  0  0  0
  1 11  1  0  0  0  0
M  END
>  <cdx:groupId>
36

>  <cdx:fragmentId>
5

$$$$
