10117.cdx
  Mrv1902 05222410252D          

 27 29  0  0  0  0            999 V2000
    4.6645   -7.5488    0.0000 C   0  0  0  0  0  0  0  0  0  0  0  0
    4.6645   -8.3737    0.0000 C   0  0  0  0  0  0  0  0  0  0  0  0
    5.3790   -8.7862    0.0000 C   0  0  0  0  0  0  0  0  0  0  0  0
    6.0935   -8.3737    0.0000 C   0  0  0  0  0  0  0  0  0  0  0  0
    6.0935   -7.5488    0.0000 C   0  0  0  0  0  0  0  0  0  0  0  0
    5.3790   -7.1362    0.0000 C   0  0  0  0  0  0  0  0  0  0  0  0
    6.8079   -8.7862    0.0000 C   0  0  2  0  0  0  0  0  0  0  0  0
    7.5224   -8.3737    0.0000 C   0  0  2  0  0  0  0  0  0  0  0  0
    7.5224   -7.5488    0.0000 C   0  0  2  0  0  0  0  0  0  0  0  0
    6.8079   -7.1362    0.0000 O   0  0  0  0  0  0  0  0  0  0  0  0
    8.2369   -7.1362    0.0000 C   0  0  0  0  0  0  0  0  0  0  0  0
    8.2369   -6.3113    0.0000 C   0  0  0  0  0  0  0  0  0  0  0  0
    8.9514   -7.5488    0.0000 C   0  0  0  0  0  0  0  0  0  0  0  0
    9.6658   -7.1362    0.0000 C   0  0  0  0  0  0  0  0  0  0  0  0
    9.6658   -6.3113    0.0000 C   0  0  0  0  0  0  0  0  0  0  0  0
    8.9514   -5.8988    0.0000 C   0  0  0  0  0  0  0  0  0  0  0  0
    8.9514   -5.0737    0.0000 O   0  0  0  0  0  0  0  0  0  0  0  0
   10.3803   -5.8988    0.0000 O   0  0  0  0  0  0  0  0  0  0  0  0
    5.3790   -6.3113    0.0000 O   0  0  0  0  0  0  0  0  0  0  0  0
    3.9501   -7.1362    0.0000 O   0  0  0  0  0  0  0  0  0  0  0  0
    3.9501   -8.7862    0.0000 O   0  0  0  0  0  0  0  0  0  0  0  0
    5.3790   -9.6112    0.0000 O   0  0  0  0  0  0  0  0  0  0  0  0
    7.9349   -9.0882    0.0000 O   0  0  0  0  0  0  0  0  0  0  0  0
    7.2204   -9.5007    0.0000 H   0  0  0  0  0  0  0  0  0  0  0  0
    7.5224   -6.7237    0.0000 H   0  0  0  0  0  0  0  0  0  0  0  0
    8.3193   -8.5873    0.0000 H   0  0  0  0  0  0  0  0  0  0  0  0
    6.5944   -9.5831    0.0000 H   0  0  0  0  0  0  0  0  0  0  0  0
  1  2  1  0  0  0  0
  2  3  2  0  0  0  0
  3  4  1  0  0  0  0
  4  5  2  0  0  0  0
  5  6  1  0  0  0  0
  6  1  2  0  0  0  0
  4  7  1  0  0  0  0
  7  8  1  0  0  0  0
  8  9  1  0  0  0  0
  9 10  1  0  0  0  0
 10  5  1  0  0  0  0
  9 11  1  6  0  0  0
 11 12  1  0  0  0  0
 11 13  2  0  0  0  0
 13 14  1  0  0  0  0
 14 15  2  0  0  0  0
 15 16  1  0  0  0  0
 16 12  2  0  0  0  0
 16 17  1  0  0  0  0
 15 18  1  0  0  0  0
  6 19  1  0  0  0  0
  1 20  1  0  0  0  0
  2 21  1  0  0  0  0
  3 22  1  0  0  0  0
  8 23  1  6  0  0  0
  7 24  1  6  0  0  0
  9 25  1  1  0  0  0
  8 26  1  1  0  0  0
  7 27  1  1  0  0  0
M  END
>  <cdx:fragmentId>
5

$$$$
