101256.cdx
  Mrv1902 05222410232D          

 31 35  0  0  0  0            999 V2000
    7.5435   -2.2523    0.0000 O   0  0  0  0  0  0  0  0  0  0  0  0
    8.0284   -2.9197    0.0000 C   0  0  0  0  0  0  0  0  0  0  0  0
    7.5435   -3.5872    0.0000 O   0  0  0  0  0  0  0  0  0  0  0  0
    6.7588   -3.3322    0.0000 C   0  0  0  0  0  0  0  0  0  0  0  0
    6.7588   -2.5072    0.0000 C   0  0  0  0  0  0  0  0  0  0  0  0
    6.0444   -3.7447    0.0000 C   0  0  0  0  0  0  0  0  0  0  0  0
    5.3299   -3.3322    0.0000 C   0  0  0  0  0  0  0  0  0  0  0  0
    5.3299   -2.5072    0.0000 C   0  0  0  0  0  0  0  0  0  0  0  0
    6.0444   -2.0947    0.0000 C   0  0  0  0  0  0  0  0  0  0  0  0
    2.6314   -2.9197    0.0000 O   0  0  0  0  0  0  0  0  0  0  0  0
    3.1163   -2.2523    0.0000 C   0  0  0  0  0  0  0  0  0  0  0  0
    3.9009   -2.5072    0.0000 C   0  0  2  0  0  0  0  0  0  0  0  0
    3.9009   -3.3322    0.0000 C   0  0  1  0  0  0  0  0  0  0  0  0
    3.1163   -3.5872    0.0000 C   0  0  0  0  0  0  0  0  0  0  0  0
    4.6154   -3.7447    0.0000 C   0  0  1  0  0  0  0  0  0  0  0  0
    4.6154   -2.0947    0.0000 C   0  0  0  0  0  0  0  0  0  0  0  0
    2.8614   -4.3718    0.0000 O   0  0  0  0  0  0  0  0  0  0  0  0
    4.6154   -4.5697    0.0000 C   0  0  0  0  0  0  0  0  0  0  0  0
    5.3299   -4.9822    0.0000 C   0  0  0  0  0  0  0  0  0  0  0  0
    5.3299   -5.8072    0.0000 C   0  0  0  0  0  0  0  0  0  0  0  0
    4.6154   -6.2197    0.0000 C   0  0  0  0  0  0  0  0  0  0  0  0
    3.9009   -5.8072    0.0000 C   0  0  0  0  0  0  0  0  0  0  0  0
    3.9009   -4.9822    0.0000 C   0  0  0  0  0  0  0  0  0  0  0  0
    3.1865   -6.2197    0.0000 O   0  0  0  0  0  0  0  0  0  0  0  0
    2.4720   -5.8072    0.0000 C   0  0  0  0  0  0  0  0  0  0  0  0
    4.6154   -7.0447    0.0000 O   0  0  0  0  0  0  0  0  0  0  0  0
    3.9009   -7.4572    0.0000 C   0  0  0  0  0  0  0  0  0  0  0  0
    6.0444   -6.2197    0.0000 O   0  0  0  0  0  0  0  0  0  0  0  0
    6.7588   -5.8072    0.0000 C   0  0  0  0  0  0  0  0  0  0  0  0
    3.8147   -4.1527    0.0000 H   0  0  0  0  0  0  0  0  0  0  0  0
    3.8147   -1.6868    0.0000 H   0  0  0  0  0  0  0  0  0  0  0  0
  1  2  1  0  0  0  0
  2  3  1  0  0  0  0
  3  4  1  0  0  0  0
  4  5  1  0  0  0  0
  1  5  1  0  0  0  0
  6  7  1  0  0  0  0
  7  8  2  0  0  0  0
  8  9  1  0  0  0  0
  9  5  2  0  0  0  0
  6  4  2  0  0  0  0
 10 11  1  0  0  0  0
 11 12  1  0  0  0  0
 12 13  1  0  0  0  0
 13 14  1  0  0  0  0
 10 14  1  0  0  0  0
 16 12  1  0  0  0  0
 15 13  1  0  0  0  0
 15  7  1  0  0  0  0
 16  8  1  0  0  0  0
 14 17  2  0  0  0  0
 18 19  1  0  0  0  0
 19 20  2  0  0  0  0
 20 21  1  0  0  0  0
 21 22  2  0  0  0  0
 22 23  1  0  0  0  0
 18 23  2  0  0  0  0
 24 25  1  0  0  0  0
 22 24  1  0  0  0  0
 26 27  1  0  0  0  0
 21 26  1  0  0  0  0
 28 29  1  0  0  0  0
 20 28  1  0  0  0  0
 15 18  1  6  0  0  0
 13 30  1  1  0  0  0
 12 31  1  6  0  0  0
M  END
>  <cdx:groupId>
99

>  <cdx:fragmentId>
5

$$$$
