101211.cdx
  Mrv1902 05222410202D          

 14 15  0  0  0  0            999 V2000
    6.4795   -5.7311    0.0000 C   0  0  0  0  0  0  0  0  0  0  0  0
    5.7650   -5.3186    0.0000 C   0  0  0  0  0  0  0  0  0  0  0  0
    5.7650   -4.4936    0.0000 C   0  0  0  0  0  0  0  0  0  0  0  0
    6.4795   -4.0811    0.0000 C   0  0  0  0  0  0  0  0  0  0  0  0
    7.1940   -4.4936    0.0000 C   0  0  0  0  0  0  0  0  0  0  0  0
    7.9085   -4.0811    0.0000 C   0  0  0  0  0  0  0  0  0  0  0  0
    8.6230   -4.4936    0.0000 C   0  0  0  0  0  0  0  0  0  0  0  0
    8.6230   -5.3186    0.0000 C   0  0  0  0  0  0  0  0  0  0  0  0
    7.9085   -5.7311    0.0000 C   0  0  0  0  0  0  0  0  0  0  0  0
    7.1940   -5.3186    0.0000 C   0  0  0  0  0  0  0  0  0  0  0  0
    6.4795   -3.2561    0.0000 O   0  0  0  0  0  0  0  0  0  0  0  0
    6.4795   -6.5561    0.0000 O   0  0  0  0  0  0  0  0  0  0  0  0
    9.3374   -5.7311    0.0000 C   0  0  0  0  0  0  0  0  0  0  0  0
    5.0506   -5.7311    0.0000 C   0  0  0  0  0  0  0  0  0  0  0  0
  1  2  1  0  0  0  0
  2  3  2  0  0  0  0
  3  4  1  0  0  0  0
  4  5  1  0  0  0  0
  5  6  1  0  0  0  0
  6  7  2  0  0  0  0
  7  8  1  0  0  0  0
  8  9  2  0  0  0  0
  9 10  1  0  0  0  0
  1 10  1  0  0  0  0
  5 10  2  0  0  0  0
  4 11  2  0  0  0  0
  1 12  2  0  0  0  0
  8 13  1  0  0  0  0
  2 14  1  0  0  0  0
M  END
>  <cdx:fragmentId>
3

$$$$
