E.Z farnesyl acetate.cdx
  Mrv1902 05222410212D          

 19 18  0  0  0  0            999 V2000
    1.5221   -7.3838    0.0000 C   0  0  0  0  0  0  0  0  0  0  0  0
    2.2366   -7.7963    0.0000 C   0  0  0  0  0  0  0  0  0  0  0  0
    2.9511   -7.3838    0.0000 C   0  0  0  0  0  0  0  0  0  0  0  0
    3.6655   -7.7963    0.0000 C   0  0  0  0  0  0  0  0  0  0  0  0
    4.3800   -7.3838    0.0000 C   0  0  0  0  0  0  0  0  0  0  0  0
    5.0945   -7.7963    0.0000 C   0  0  0  0  0  0  0  0  0  0  0  0
    5.8090   -7.3838    0.0000 C   0  0  0  0  0  0  0  0  0  0  0  0
    2.2366   -8.6212    0.0000 C   0  0  0  0  0  0  0  0  0  0  0  0
    5.0945   -8.6212    0.0000 C   0  0  0  0  0  0  0  0  0  0  0  0
    5.8090   -6.5587    0.0000 C   0  0  0  0  0  0  0  0  0  0  0  0
    6.5234   -6.1463    0.0000 C   0  0  0  0  0  0  0  0  0  0  0  0
    7.2379   -6.5587    0.0000 C   0  0  0  0  0  0  0  0  0  0  0  0
    7.9524   -6.1463    0.0000 C   0  0  0  0  0  0  0  0  0  0  0  0
    7.2379   -7.3838    0.0000 C   0  0  0  0  0  0  0  0  0  0  0  0
    8.6668   -6.5587    0.0000 C   0  0  0  0  0  0  0  0  0  0  0  0
    9.3813   -6.1463    0.0000 O   0  0  0  0  0  0  0  0  0  0  0  0
   10.0958   -6.5587    0.0000 C   0  0  0  0  0  0  0  0  0  0  0  0
   10.8102   -6.1463    0.0000 C   0  0  0  0  0  0  0  0  0  0  0  0
   10.0958   -7.3838    0.0000 O   0  0  0  0  0  0  0  0  0  0  0  0
  1  2  1  0  0  0  0
  2  3  2  0  0  0  0
  3  4  1  0  0  0  0
  4  5  1  0  0  0  0
  5  6  1  0  0  0  0
  6  7  2  0  0  0  0
  2  8  1  0  0  0  0
  6  9  1  0  0  0  0
  7 10  1  0  0  0  0
 10 11  1  0  0  0  0
 11 12  1  0  0  0  0
 12 13  2  0  0  0  0
 12 14  1  0  0  0  0
 13 15  1  0  0  0  0
 15 16  1  0  0  0  0
 16 17  1  0  0  0  0
 17 18  1  0  0  0  0
 17 19  2  0  0  0  0
M  END
>  <cdx:fragmentId>
3

$$$$
