10131.cdx
  Mrv1902 05222410202D          

 53 60  0  0  0  0            999 V2000
    7.9742   -6.9324    0.0000 C   0  0  0  0  0  0  0  0  0  0  0  0
    7.9819   -6.1075    0.0000 C   0  0  0  0  0  0  0  0  0  0  0  0
    7.2713   -5.6883    0.0000 C   0  0  0  0  0  0  0  0  0  0  0  0
    6.5530   -6.0941    0.0000 C   0  0  0  0  0  0  0  0  0  0  0  0
    6.5453   -6.9190    0.0000 C   0  0  0  0  0  0  0  0  0  0  0  0
    7.2559   -7.3382    0.0000 C   0  0  0  0  0  0  0  0  0  0  0  0
   12.5355   -6.7457    0.0000 O   0  0  0  0  0  0  0  0  0  0  0  0
   11.8155   -5.2611    0.0000 O   0  0  0  0  0  0  0  0  0  0  0  0
   10.4268   -7.3098    0.0000 C   0  0  0  0  0  0  0  0  0  0  0  0
   11.2497   -7.3692    0.0000 C   0  0  0  0  0  0  0  0  0  0  0  0
    1.9644   -6.5009    0.0000 O   0  0  0  0  0  0  0  0  0  0  0  0
    2.7855   -5.0697    0.0000 O   0  0  0  0  0  0  0  0  0  0  0  0
    4.0249   -5.7808    0.0000 C   0  0  0  0  0  0  0  0  0  0  0  0
    3.1999   -5.7830    0.0000 C   0  0  0  0  0  0  0  0  0  0  0  0
   11.7126   -6.6863    0.0000 C   0  0  0  0  0  0  0  0  0  0  0  0
   11.3526   -5.9440    0.0000 C   0  0  0  0  0  0  0  0  0  0  0  0
   10.5298   -5.8845    0.0000 C   0  0  0  0  0  0  0  0  0  0  0  0
   10.0669   -6.5674    0.0000 C   0  0  0  0  0  0  0  0  0  0  0  0
    2.7894   -6.4986    0.0000 C   0  0  0  0  0  0  0  0  0  0  0  0
    3.2039   -7.2120    0.0000 C   0  0  0  0  0  0  0  0  0  0  0  0
    4.0288   -7.2097    0.0000 C   0  0  0  0  0  0  0  0  0  0  0  0
    4.4394   -6.4941    0.0000 C   0  0  0  0  0  0  0  0  0  0  0  0
    5.1750   -7.7500    0.0000 C   0  0  0  0  0  0  0  0  0  0  0  0
    9.3397   -7.7781    0.0000 C   0  0  0  0  0  0  0  0  0  0  0  0
    8.7564   -7.1947    0.0000 C   0  0  2  0  0  0  0  0  0  0  0  0
    9.2475   -6.5319    0.0000 C   0  0  2  0  0  0  0  0  0  0  0  0
    8.7689   -5.8599    0.0000 O   0  0  0  0  0  0  0  0  0  0  0  0
    5.7708   -5.8318    0.0000 O   0  0  0  0  0  0  0  0  0  0  0  0
    5.2797   -6.4947    0.0000 C   0  0  1  0  0  0  0  0  0  0  0  0
    5.7583   -7.1666    0.0000 C   0  0  2  0  0  0  0  0  0  0  0  0
    6.5414   -7.7507    0.0000 C   0  0  0  0  0  0  0  0  0  0  0  0
    4.3781   -7.5365    0.0000 C   0  0  0  0  0  0  0  0  0  0  0  0
    3.7947   -8.1198    0.0000 C   0  0  0  0  0  0  0  0  0  0  0  0
    4.0082   -8.9167    0.0000 C   0  0  0  0  0  0  0  0  0  0  0  0
    4.8051   -9.1302    0.0000 C   0  0  0  0  0  0  0  0  0  0  0  0
    5.3885   -8.5469    0.0000 C   0  0  0  0  0  0  0  0  0  0  0  0
    6.5414   -8.5757    0.0000 C   0  0  0  0  0  0  0  0  0  0  0  0
    7.2559   -8.9882    0.0000 C   0  0  0  0  0  0  0  0  0  0  0  0
    7.2559   -9.8132    0.0000 C   0  0  0  0  0  0  0  0  0  0  0  0
    7.9703  -10.2257    0.0000 C   0  0  0  0  0  0  0  0  0  0  0  0
    8.6848   -9.8132    0.0000 C   0  0  0  0  0  0  0  0  0  0  0  0
    8.6848   -8.9882    0.0000 C   0  0  0  0  0  0  0  0  0  0  0  0
    7.9703   -8.5757    0.0000 C   0  0  0  0  0  0  0  0  0  0  0  0
    9.1262   -8.5750    0.0000 C   0  0  0  0  0  0  0  0  0  0  0  0
    9.7096   -9.1583    0.0000 C   0  0  0  0  0  0  0  0  0  0  0  0
   10.5065   -8.9448    0.0000 C   0  0  0  0  0  0  0  0  0  0  0  0
   10.7200   -8.1479    0.0000 C   0  0  0  0  0  0  0  0  0  0  0  0
   10.1366   -7.5646    0.0000 C   0  0  0  0  0  0  0  0  0  0  0  0
    2.9978   -7.9063    0.0000 O   0  0  0  0  0  0  0  0  0  0  0  0
    5.0186   -9.9271    0.0000 O   0  0  0  0  0  0  0  0  0  0  0  0
    9.4961   -9.9552    0.0000 O   0  0  0  0  0  0  0  0  0  0  0  0
   11.5169   -7.9344    0.0000 O   0  0  0  0  0  0  0  0  0  0  0  0
    9.3993  -10.2257    0.0000 O   0  0  0  0  0  0  0  0  0  0  0  0
  1  2  2  0  0  0  0
  2  3  1  0  0  0  0
  3  4  2  0  0  0  0
  4  5  1  0  0  0  0
  5  6  2  0  0  0  0
  6  1  1  0  0  0  0
 19 11  1  0  0  0  0
 15  7  1  0  0  0  0
 16  8  1  0  0  0  0
  9 18  1  0  0  0  0
 10  9  2  0  0  0  0
 15 10  1  0  0  0  0
 16 15  2  0  0  0  0
 17 16  1  0  0  0  0
 18 17  2  0  0  0  0
 14 12  1  0  0  0  0
 13 22  1  0  0  0  0
 14 13  2  0  0  0  0
 19 14  1  0  0  0  0
 20 19  2  0  0  0  0
 21 20  1  0  0  0  0
 22 21  2  0  0  0  0
  1 25  1  0  0  0  0
 25 26  1  0  0  0  0
 26 27  1  0  0  0  0
 27  2  1  0  0  0  0
  4 28  1  0  0  0  0
 28 29  1  0  0  0  0
 29 30  1  0  0  0  0
 30  5  1  0  0  0  0
 26 18  1  6  0  0  0
 29 22  1  1  0  0  0
 25 24  1  1  0  0  0
 30 23  1  6  0  0  0
  6 31  1  0  0  0  0
 23 32  2  0  0  0  0
 32 33  1  0  0  0  0
 33 34  2  0  0  0  0
 34 35  1  0  0  0  0
 35 36  2  0  0  0  0
 36 23  1  0  0  0  0
 31 37  2  0  0  0  0
 37 38  1  0  0  0  0
 38 39  2  0  0  0  0
 39 40  1  0  0  0  0
 40 41  2  0  0  0  0
 41 42  1  0  0  0  0
 42 43  2  0  0  0  0
 43 38  1  0  0  0  0
 24 44  2  0  0  0  0
 44 45  1  0  0  0  0
 45 46  2  0  0  0  0
 46 47  1  0  0  0  0
 47 48  2  0  0  0  0
 48 24  1  0  0  0  0
 33 49  1  0  0  0  0
 35 50  1  0  0  0  0
 45 51  1  0  0  0  0
 47 52  1  0  0  0  0
 41 53  1  0  0  0  0
M  END
>  <cdx:fragmentId>
23

$$$$
