101341.cdx
  Mrv1902 05222410262D          

 34 38  0  0  0  0            999 V2000
    5.2322   -8.5126    0.0000 C   0  0  0  0  0  0  0  0  0  0  0  0
    4.5152   -8.9207    0.0000 C   0  0  0  0  0  0  0  0  0  0  0  0
    4.5101   -9.7457    0.0000 C   0  0  1  0  0  0  0  0  0  0  0  0
    5.2220  -10.1626    0.0000 C   0  0  1  0  0  0  0  0  0  0  0  0
    5.9390   -9.7545    0.0000 C   0  0  1  0  0  0  0  0  0  0  0  0
    6.6509  -10.1714    0.0000 C   0  0  0  0  0  0  0  0  0  0  0  0
    7.3679   -9.7633    0.0000 C   0  0  0  0  0  0  0  0  0  0  0  0
    7.3730   -8.9383    0.0000 C   0  0  2  0  0  0  0  0  0  0  0  0
    8.0900   -8.5303    0.0000 C   0  0  1  0  0  0  0  0  0  0  0  0
    8.8019   -8.9472    0.0000 C   0  0  0  0  0  0  0  0  0  0  0  0
    9.5189   -8.5391    0.0000 C   0  0  0  0  0  0  0  0  0  0  0  0
    9.5240   -7.7141    0.0000 C   0  0  1  0  0  0  0  0  0  0  0  0
   10.2410   -7.3060    0.0000 C   0  0  0  0  0  0  0  0  0  0  0  0
   10.2461   -6.4810    0.0000 C   0  0  0  0  0  0  0  0  0  0  0  0
    9.5342   -6.0641    0.0000 C   0  0  0  0  0  0  0  0  0  0  0  0
    8.8172   -6.4722    0.0000 C   0  0  0  0  0  0  0  0  0  0  0  0
    8.8121   -7.2972    0.0000 C   0  0  1  0  0  0  0  0  0  0  0  0
    8.0951   -7.7053    0.0000 C   0  0  2  0  0  0  0  0  0  0  0  0
    7.3832   -7.2884    0.0000 C   0  0  0  0  0  0  0  0  0  0  0  0
    6.6662   -7.6964    0.0000 C   0  0  0  0  0  0  0  0  0  0  0  0
    6.6611   -8.5214    0.0000 C   0  0  1  0  0  0  0  0  0  0  0  0
    5.9441   -8.9295    0.0000 C   0  0  2  0  0  0  0  0  0  0  0  0
    3.7931  -10.1537    0.0000 O   0  0  0  0  0  0  0  0  0  0  0  0
    6.6560   -9.3464    0.0000 C   0  0  0  0  0  0  0  0  0  0  0  0
    9.1262   -5.3471    0.0000 C   0  0  0  0  0  0  0  0  0  0  0  0
    9.9511   -5.3522    0.0000 C   0  0  0  0  0  0  0  0  0  0  0  0
   10.2359   -8.1310    0.0000 C   0  0  0  0  0  0  0  0  0  0  0  0
    8.0849   -9.3552    0.0000 C   0  0  0  0  0  0  0  0  0  0  0  0
    5.9339  -10.5795    0.0000 C   0  0  0  0  0  0  0  0  0  0  0  0
    5.2169  -10.9875    0.0000 C   0  0  0  0  0  0  0  0  0  0  0  0
    8.1002   -6.8803    0.0000 C   0  0  0  0  0  0  0  0  0  0  0  0
    5.9492   -8.1045    0.0000 H   0  0  0  0  0  0  0  0  0  0  0  0
    7.3781   -8.1133    0.0000 H   0  0  0  0  0  0  0  0  0  0  0  0
    8.8070   -8.1222    0.0000 H   0  0  0  0  0  0  0  0  0  0  0  0
  1  2  1  0  0  0  0
  2  3  1  0  0  0  0
  3  4  1  0  0  0  0
  4  5  1  0  0  0  0
  5  6  1  0  0  0  0
  6  7  1  0  0  0  0
  7  8  1  0  0  0  0
  8  9  1  0  0  0  0
  9 10  1  0  0  0  0
 10 11  1  0  0  0  0
 11 12  1  0  0  0  0
 12 13  1  0  0  0  0
 13 14  1  0  0  0  0
 14 15  1  0  0  0  0
 15 16  1  0  0  0  0
 16 17  1  0  0  0  0
 12 17  1  0  0  0  0
 17 18  1  0  0  0  0
  9 18  1  0  0  0  0
 18 19  1  0  0  0  0
 19 20  1  0  0  0  0
 20 21  1  0  0  0  0
  8 21  1  0  0  0  0
 21 22  1  0  0  0  0
  5 22  1  0  0  0  0
  1 22  1  0  0  0  0
  3 23  1  1  0  0  0
 21 24  1  1  0  0  0
 15 25  1  0  0  0  0
 15 26  1  0  0  0  0
 12 27  1  1  0  0  0
  9 28  1  1  0  0  0
  5 29  1  1  0  0  0
  4 30  1  1  0  0  0
 18 31  1  6  0  0  0
 22 32  1  6  0  0  0
  8 33  1  6  0  0  0
 17 34  1  1  0  0  0
M  END
>  <cdx:fragmentId>
6

$$$$
