1013.cdx
  Mrv1902 05222410252D          

 53 60  0  0  0  0            999 V2000
    7.9742   -6.9324    0.0000 C   0  0  0  0  0  0  0  0  0  0  0  0
    7.9819   -6.1075    0.0000 C   0  0  0  0  0  0  0  0  0  0  0  0
    7.2713   -5.6883    0.0000 C   0  0  0  0  0  0  0  0  0  0  0  0
    6.5530   -6.0941    0.0000 C   0  0  0  0  0  0  0  0  0  0  0  0
    6.5453   -6.9190    0.0000 C   0  0  0  0  0  0  0  0  0  0  0  0
    7.2559   -7.3382    0.0000 C   0  0  0  0  0  0  0  0  0  0  0  0
   12.5355   -6.7457    0.0000 O   0  0  0  0  0  0  0  0  0  0  0  0
   11.8155   -5.2611    0.0000 O   0  0  0  0  0  0  0  0  0  0  0  0
   10.4268   -7.3098    0.0000 C   0  0  0  0  0  0  0  0  0  0  0  0
   11.2497   -7.3692    0.0000 C   0  0  0  0  0  0  0  0  0  0  0  0
    1.9644   -6.5009    0.0000 O   0  0  0  0  0  0  0  0  0  0  0  0
    2.7855   -5.0697    0.0000 O   0  0  0  0  0  0  0  0  0  0  0  0
    4.0249   -5.7808    0.0000 C   0  0  0  0  0  0  0  0  0  0  0  0
    3.1999   -5.7830    0.0000 C   0  0  0  0  0  0  0  0  0  0  0  0
   11.7126   -6.6863    0.0000 C   0  0  0  0  0  0  0  0  0  0  0  0
   11.3526   -5.9440    0.0000 C   0  0  0  0  0  0  0  0  0  0  0  0
   10.5298   -5.8845    0.0000 C   0  0  0  0  0  0  0  0  0  0  0  0
   10.0669   -6.5674    0.0000 C   0  0  0  0  0  0  0  0  0  0  0  0
    2.7894   -6.4986    0.0000 C   0  0  0  0  0  0  0  0  0  0  0  0
    3.2039   -7.2120    0.0000 C   0  0  0  0  0  0  0  0  0  0  0  0
    4.0288   -7.2097    0.0000 C   0  0  0  0  0  0  0  0  0  0  0  0
    4.4394   -6.4941    0.0000 C   0  0  0  0  0  0  0  0  0  0  0  0
    5.4729   -8.0068    0.0000 C   0  0  0  0  0  0  0  0  0  0  0  0
    4.6787   -8.2301    0.0000 C   0  0  0  0  0  0  0  0  0  0  0  0
    4.4750   -9.0295    0.0000 C   0  0  0  0  0  0  0  0  0  0  0  0
    5.0655   -9.6057    0.0000 C   0  0  0  0  0  0  0  0  0  0  0  0
    5.8597   -9.3824    0.0000 C   0  0  0  0  0  0  0  0  0  0  0  0
    6.0634   -8.5829    0.0000 C   0  0  0  0  0  0  0  0  0  0  0  0
    6.4502   -9.9585    0.0000 O   0  0  0  0  0  0  0  0  0  0  0  0
    3.6808   -9.2528    0.0000 O   0  0  0  0  0  0  0  0  0  0  0  0
    9.3500   -7.8540    0.0000 C   0  0  0  0  0  0  0  0  0  0  0  0
    9.0331   -8.6157    0.0000 C   0  0  0  0  0  0  0  0  0  0  0  0
    9.5344   -9.2710    0.0000 C   0  0  0  0  0  0  0  0  0  0  0  0
   10.3525   -9.1645    0.0000 C   0  0  0  0  0  0  0  0  0  0  0  0
   10.6693   -8.4028    0.0000 C   0  0  0  0  0  0  0  0  0  0  0  0
   10.1681   -7.7475    0.0000 C   0  0  0  0  0  0  0  0  0  0  0  0
   11.4874   -8.2963    0.0000 O   0  0  0  0  0  0  0  0  0  0  0  0
    9.2175  -10.0327    0.0000 O   0  0  0  0  0  0  0  0  0  0  0  0
    8.7564   -7.1947    0.0000 C   0  0  1  0  0  0  0  0  0  0  0  0
    9.2475   -6.5319    0.0000 C   0  0  1  0  0  0  0  0  0  0  0  0
    8.7689   -5.8599    0.0000 O   0  0  0  0  0  0  0  0  0  0  0  0
    5.7708   -5.8318    0.0000 O   0  0  0  0  0  0  0  0  0  0  0  0
    5.2797   -6.4947    0.0000 C   0  0  2  0  0  0  0  0  0  0  0  0
    5.7583   -7.1666    0.0000 C   0  0  1  0  0  0  0  0  0  0  0  0
    7.2481   -8.1632    0.0000 C   0  0  0  0  0  0  0  0  0  0  0  0
    7.9587   -8.5824    0.0000 C   0  0  0  0  0  0  0  0  0  0  0  0
    7.9510   -9.4073    0.0000 C   0  0  0  0  0  0  0  0  0  0  0  0
    7.2314   -9.8109    0.0000 C   0  0  0  0  0  0  0  0  0  0  0  0
    7.2211  -10.6358    0.0000 C   0  0  0  0  0  0  0  0  0  0  0  0
    7.9303  -11.0572    0.0000 C   0  0  0  0  0  0  0  0  0  0  0  0
    8.6499  -10.6537    0.0000 C   0  0  0  0  0  0  0  0  0  0  0  0
    8.6602   -9.8288    0.0000 C   0  0  0  0  0  0  0  0  0  0  0  0
    7.9200  -11.8821    0.0000 O   0  0  0  0  0  0  0  0  0  0  0  0
  1  2  2  0  0  0  0
  2  3  1  0  0  0  0
  3  4  2  0  0  0  0
  4  5  1  0  0  0  0
  5  6  2  0  0  0  0
  6  1  1  0  0  0  0
 19 11  1  0  0  0  0
 15  7  1  0  0  0  0
 16  8  1  0  0  0  0
  9 18  1  0  0  0  0
 10  9  2  0  0  0  0
 15 10  1  0  0  0  0
 16 15  2  0  0  0  0
 17 16  1  0  0  0  0
 18 17  2  0  0  0  0
 14 12  1  0  0  0  0
 13 22  1  0  0  0  0
 14 13  2  0  0  0  0
 19 14  1  0  0  0  0
 20 19  2  0  0  0  0
 21 20  1  0  0  0  0
 22 21  2  0  0  0  0
 23 24  2  0  0  0  0
 24 25  1  0  0  0  0
 25 26  2  0  0  0  0
 26 27  1  0  0  0  0
 27 28  2  0  0  0  0
 28 23  1  0  0  0  0
 27 29  1  0  0  0  0
 25 30  1  0  0  0  0
 31 32  2  0  0  0  0
 32 33  1  0  0  0  0
 33 34  2  0  0  0  0
 34 35  1  0  0  0  0
 35 36  2  0  0  0  0
 36 31  1  0  0  0  0
 35 37  1  0  0  0  0
 33 38  1  0  0  0  0
  1 39  1  0  0  0  0
 39 40  1  0  0  0  0
 40 41  1  0  0  0  0
 41  2  1  0  0  0  0
  4 42  1  0  0  0  0
 42 43  1  0  0  0  0
 43 44  1  0  0  0  0
 44  5  1  0  0  0  0
 40 18  1  1  0  0  0
 43 22  1  6  0  0  0
 39 31  1  6  0  0  0
 44 23  1  1  0  0  0
  6 45  1  0  0  0  0
 45 46  2  0  0  0  0
 46 47  1  0  0  0  0
 47 48  2  0  0  0  0
 48 49  1  0  0  0  0
 49 50  2  0  0  0  0
 50 51  1  0  0  0  0
 51 52  2  0  0  0  0
 52 47  1  0  0  0  0
 50 53  1  0  0  0  0
M  END
>  <cdx:fragmentId>
23

$$$$
