101300.cdx
  Mrv1902 05222410212D          

 26 30  0  0  0  0            999 V2000
    8.3860   -6.1315    0.0000 C   0  0  0  0  0  0  0  0  0  0  0  0
    8.3860   -5.3065    0.0000 C   0  0  0  0  0  0  0  0  0  0  0  0
    7.7729   -4.7545    0.0000 O   0  0  0  0  0  0  0  0  0  0  0  0
    8.1085   -4.0008    0.0000 C   0  0  0  0  0  0  0  0  0  0  0  0
    8.9290   -4.0870    0.0000 O   0  0  0  0  0  0  0  0  0  0  0  0
    9.1005   -4.8940    0.0000 C   0  0  0  0  0  0  0  0  0  0  0  0
    9.8150   -5.3065    0.0000 C   0  0  0  0  0  0  0  0  0  0  0  0
    9.8150   -6.1315    0.0000 C   0  0  0  0  0  0  0  0  0  0  0  0
   10.5300   -6.5431    0.0000 C   0  0  0  0  0  0  0  0  0  0  0  0
   10.5297   -7.3681    0.0000 C   0  0  0  0  0  0  0  0  0  0  0  0
    9.8154   -7.7808    0.0000 N   0  0  0  0  0  0  0  0  0  0  0  0
    9.1005   -7.3690    0.0000 C   0  0  1  0  0  0  0  0  0  0  0  0
    8.3860   -7.7815    0.0000 C   0  0  0  0  0  0  0  0  0  0  0  0
    7.6715   -7.3690    0.0000 C   0  0  0  0  0  0  0  0  0  0  0  0
    6.9571   -7.7815    0.0000 C   0  0  0  0  0  0  0  0  0  0  0  0
    6.2426   -7.3690    0.0000 C   0  0  0  0  0  0  0  0  0  0  0  0
    6.2426   -6.5440    0.0000 C   0  0  0  0  0  0  0  0  0  0  0  0
    6.9571   -6.1315    0.0000 C   0  0  0  0  0  0  0  0  0  0  0  0
    7.6715   -6.5440    0.0000 C   0  0  0  0  0  0  0  0  0  0  0  0
    9.1005   -6.5440    0.0000 C   0  0  0  0  0  0  0  0  0  0  0  0
    9.8154   -8.6058    0.0000 C   0  0  0  0  0  0  0  0  0  0  0  0
    5.5281   -6.1315    0.0000 O   0  0  0  0  0  0  0  0  0  0  0  0
    4.8137   -6.5440    0.0000 C   0  0  0  0  0  0  0  0  0  0  0  0
    5.5281   -7.7815    0.0000 O   0  0  0  0  0  0  0  0  0  0  0  0
    4.8137   -7.3690    0.0000 C   0  0  0  0  0  0  0  0  0  0  0  0
    9.1005   -8.1940    0.0000 H   0  0  0  0  0  0  0  0  0  0  0  0
  1  2  1  0  0  0  0
  2  3  1  0  0  0  0
  3  4  1  0  0  0  0
  4  5  1  0  0  0  0
  5  6  1  0  0  0  0
  6  7  1  0  0  0  0
  7  8  2  0  0  0  0
  8  9  1  0  0  0  0
  9 10  1  0  0  0  0
 10 11  1  0  0  0  0
 11 12  1  0  0  0  0
 12 13  1  0  0  0  0
 13 14  1  0  0  0  0
 14 15  2  0  0  0  0
 15 16  1  0  0  0  0
 16 17  2  0  0  0  0
 17 18  1  0  0  0  0
 18 19  2  0  0  0  0
  1 19  1  0  0  0  0
  1 20  2  0  0  0  0
 20 12  1  0  0  0  0
 14 19  1  0  0  0  0
  2  6  2  0  0  0  0
  8 20  1  0  0  0  0
 11 21  1  0  0  0  0
 22 23  1  0  0  0  0
 17 22  1  0  0  0  0
 24 25  1  0  0  0  0
 16 24  1  0  0  0  0
 12 26  1  6  0  0  0
M  END
>  <cdx:fragmentId>
5

$$$$
