101399.cdx
  Mrv1902 05222410192D          

 12 12  0  0  0  0            999 V2000
    7.7919   -4.7894    0.0000 C   0  0  0  0  0  0  0  0  0  0  0  0
    7.0774   -5.2019    0.0000 C   0  0  0  0  0  0  0  0  0  0  0  0
    7.0774   -6.0269    0.0000 C   0  0  0  0  0  0  0  0  0  0  0  0
    7.7919   -6.4394    0.0000 N   0  0  0  0  0  0  0  0  0  0  0  0
    6.3629   -6.4394    0.0000 C   0  0  0  0  0  0  0  0  0  0  0  0
    5.6484   -6.0269    0.0000 C   0  0  0  0  0  0  0  0  0  0  0  0
    5.6484   -5.2019    0.0000 C   0  0  0  0  0  0  0  0  0  0  0  0
    6.3629   -4.7894    0.0000 C   0  0  0  0  0  0  0  0  0  0  0  0
    7.7919   -3.9644    0.0000 O   0  0  0  0  0  0  0  0  0  0  0  0
    8.5063   -5.2019    0.0000 O   0  0  0  0  0  0  0  0  0  0  0  0
    8.5063   -6.0269    0.0000 C   0  0  0  0  0  0  0  0  0  0  0  0
    9.2208   -6.4394    0.0000 O   0  0  0  0  0  0  0  0  0  0  0  0
  1  2  1  0  0  0  0
  2  3  1  0  0  0  0
  3  4  1  0  0  0  0
  3  5  2  0  0  0  0
  5  6  1  0  0  0  0
  6  7  2  0  0  0  0
  7  8  1  0  0  0  0
  2  8  2  0  0  0  0
  1  9  2  0  0  0  0
  1 10  1  0  0  0  0
 11 12  2  0  0  0  0
  4 11  1  0  0  0  0
M  END
>  <cdx:fragmentId>
5

$$$$
