10135.cdx
  Mrv1902 05222410232D          

 16 17  0  0  0  0            999 V2000
    4.7264   -5.8575    0.0000 C   0  0  0  0  0  0  0  0  0  0  0  0
    4.7264   -6.6825    0.0000 C   0  0  0  0  0  0  0  0  0  0  0  0
    5.4409   -7.0950    0.0000 C   0  0  0  0  0  0  0  0  0  0  0  0
    6.1553   -6.6825    0.0000 C   0  0  0  0  0  0  0  0  0  0  0  0
    6.1553   -5.8575    0.0000 C   0  0  0  0  0  0  0  0  0  0  0  0
    5.4409   -5.4450    0.0000 C   0  0  0  0  0  0  0  0  0  0  0  0
    6.9400   -6.9374    0.0000 C   0  0  0  0  0  0  0  0  0  0  0  0
    7.4249   -6.2700    0.0000 O   0  0  0  0  0  0  0  0  0  0  0  0
    6.9400   -5.6026    0.0000 C   0  0  0  0  0  0  0  0  0  0  0  0
    7.1535   -4.8057    0.0000 C   0  0  0  0  0  0  0  0  0  0  0  0
    6.5701   -4.2223    0.0000 C   0  0  0  0  0  0  0  0  0  0  0  0
    7.1535   -7.7343    0.0000 O   0  0  0  0  0  0  0  0  0  0  0  0
    5.4409   -7.9200    0.0000 O   0  0  0  0  0  0  0  0  0  0  0  0
    4.0119   -7.0950    0.0000 O   0  0  0  0  0  0  0  0  0  0  0  0
    6.7837   -3.4254    0.0000 C   0  0  0  0  0  0  0  0  0  0  0  0
    6.2003   -2.8421    0.0000 C   0  0  0  0  0  0  0  0  0  0  0  0
  1  2  1  0  0  0  0
  2  3  1  0  0  0  0
  3  4  1  0  0  0  0
  4  5  2  0  0  0  0
  5  6  1  0  0  0  0
  6  1  1  0  0  0  0
  4  7  1  0  0  0  0
  7  8  1  0  0  0  0
  8  9  1  0  0  0  0
  9  5  1  0  0  0  0
  9 10  2  0  0  0  0
 10 11  1  0  0  0  0
  7 12  2  0  0  0  0
  3 13  1  0  0  0  0
  2 14  1  0  0  0  0
 11 15  1  0  0  0  0
 15 16  1  0  0  0  0
M  END
>  <cdx:fragmentId>
5

$$$$
