101301.cdx
  Mrv1902 05222410212D          

 28 31  0  0  0  0            999 V2000
    6.8918   -7.9406    0.0000 C   0  0  0  0  0  0  0  0  0  0  0  0
    7.6062   -7.5281    0.0000 N   0  0  0  0  0  0  0  0  0  0  0  0
    7.6062   -6.7031    0.0000 C   0  0  2  0  0  0  0  0  0  0  0  0
    6.8918   -6.2906    0.0000 C   0  0  2  0  0  0  0  0  0  0  0  0
    6.1773   -6.7031    0.0000 C   0  0  0  0  0  0  0  0  0  0  0  0
    5.4628   -6.2906    0.0000 C   0  0  0  0  0  0  0  0  0  0  0  0
    4.7484   -6.7031    0.0000 C   0  0  0  0  0  0  0  0  0  0  0  0
    4.7484   -7.5281    0.0000 C   0  0  0  0  0  0  0  0  0  0  0  0
    5.4628   -7.9406    0.0000 C   0  0  0  0  0  0  0  0  0  0  0  0
    6.1773   -7.5281    0.0000 C   0  0  0  0  0  0  0  0  0  0  0  0
    8.3207   -7.9406    0.0000 C   0  0  0  0  0  0  0  0  0  0  0  0
    9.0352   -7.5281    0.0000 C   0  0  0  0  0  0  0  0  0  0  0  0
    9.0352   -6.7031    0.0000 C   0  0  0  0  0  0  0  0  0  0  0  0
    9.7496   -6.2906    0.0000 C   0  0  0  0  0  0  0  0  0  0  0  0
    9.7496   -5.4656    0.0000 C   0  0  0  0  0  0  0  0  0  0  0  0
    9.0352   -5.0531    0.0000 C   0  0  0  0  0  0  0  0  0  0  0  0
    8.3207   -5.4656    0.0000 C   0  0  0  0  0  0  0  0  0  0  0  0
    8.3207   -6.2906    0.0000 C   0  0  0  0  0  0  0  0  0  0  0  0
    6.8918   -5.4656    0.0000 C   0  0  0  0  0  0  0  0  0  0  0  0
    4.0339   -7.9406    0.0000 O   0  0  0  0  0  0  0  0  0  0  0  0
    3.3194   -7.5281    0.0000 C   0  0  0  0  0  0  0  0  0  0  0  0
    5.4628   -8.7656    0.0000 O   0  0  0  0  0  0  0  0  0  0  0  0
    4.7484   -9.1781    0.0000 C   0  0  0  0  0  0  0  0  0  0  0  0
   10.4641   -5.0531    0.0000 O   0  0  0  0  0  0  0  0  0  0  0  0
   11.1786   -5.4656    0.0000 C   0  0  0  0  0  0  0  0  0  0  0  0
    9.0352   -4.2281    0.0000 O   0  0  0  0  0  0  0  0  0  0  0  0
    9.7496   -3.8156    0.0000 C   0  0  0  0  0  0  0  0  0  0  0  0
    7.6062   -5.8781    0.0000 H   0  0  0  0  0  0  0  0  0  0  0  0
  1  2  1  0  0  0  0
  2  3  1  0  0  0  0
  3  4  1  0  0  0  0
  4  5  1  0  0  0  0
  5  6  1  0  0  0  0
  6  7  2  0  0  0  0
  7  8  1  0  0  0  0
  8  9  2  0  0  0  0
  9 10  1  0  0  0  0
  1 10  1  0  0  0  0
  5 10  2  0  0  0  0
 11 12  1  0  0  0  0
 12 13  1  0  0  0  0
 13 14  1  0  0  0  0
 14 15  2  0  0  0  0
 15 16  1  0  0  0  0
 16 17  2  0  0  0  0
 17 18  1  0  0  0  0
 13 18  2  0  0  0  0
 11  2  1  0  0  0  0
 18  3  1  0  0  0  0
  4 19  1  6  0  0  0
 20 21  1  0  0  0  0
  8 20  1  0  0  0  0
 22 23  1  0  0  0  0
  9 22  1  0  0  0  0
 24 25  1  0  0  0  0
 15 24  1  0  0  0  0
 26 27  1  0  0  0  0
 16 26  1  0  0  0  0
  3 28  1  1  0  0  0
M  END
>  <cdx:fragmentId>
5

$$$$
