10147.cdx
  Mrv1902 05222410182D          

 10 10  0  0  0  0            999 V2000
    6.2320   -7.5556    0.0000 C   0  0  0  0  0  0  0  0  0  0  0  0
    6.2320   -8.3806    0.0000 C   0  0  0  0  0  0  0  0  0  0  0  0
    6.9465   -8.7931    0.0000 C   0  0  0  0  0  0  0  0  0  0  0  0
    7.6610   -8.3806    0.0000 C   0  0  0  0  0  0  0  0  0  0  0  0
    7.6610   -7.5556    0.0000 C   0  0  0  0  0  0  0  0  0  0  0  0
    6.9465   -7.1431    0.0000 C   0  0  0  0  0  0  0  0  0  0  0  0
    6.9465   -6.3181    0.0000 C   0  0  0  0  0  0  0  0  0  0  0  0
    7.6610   -5.9056    0.0000 C   0  0  0  0  0  0  0  0  0  0  0  0
    7.6610   -5.0806    0.0000 C   0  0  0  0  0  0  0  0  0  0  0  0
    8.3754   -4.6681    0.0000 O   0  0  0  0  0  0  0  0  0  0  0  0
  1  2  2  0  0  0  0
  2  3  1  0  0  0  0
  3  4  2  0  0  0  0
  4  5  1  0  0  0  0
  5  6  2  0  0  0  0
  6  1  1  0  0  0  0
  6  7  1  0  0  0  0
  7  8  2  0  0  0  0
  8  9  1  0  0  0  0
  9 10  2  0  0  0  0
M  END
>  <cdx:fragmentId>
5

$$$$
