10143.cdx
  Mrv1902 05222410202D          

 26 29  0  0  0  0            999 V2000
    8.9143   -7.0945    0.0000 N   0  0  0  0  0  0  0  0  0  0  0  0
    9.6286   -6.6818    0.0000 C   0  0  0  0  0  0  0  0  0  0  0  0
    9.6289   -5.8568    0.0000 C   0  0  0  0  0  0  0  0  0  0  0  0
    8.9148   -5.4436    0.0000 C   0  0  0  0  0  0  0  0  0  0  0  0
    8.2003   -5.8561    0.0000 C   0  0  0  0  0  0  0  0  0  0  0  0
    7.4859   -5.4436    0.0000 C   0  0  0  0  0  0  0  0  0  0  0  0
    6.7714   -5.8561    0.0000 C   0  0  0  0  0  0  0  0  0  0  0  0
    6.7714   -6.6811    0.0000 C   0  0  0  0  0  0  0  0  0  0  0  0
    7.4859   -7.0936    0.0000 C   0  0  0  0  0  0  0  0  0  0  0  0
    8.2003   -6.6811    0.0000 C   0  0  2  0  0  0  0  0  0  0  0  0
    7.4859   -4.6186    0.0000 C   0  0  0  0  0  0  0  0  0  0  0  0
    8.2003   -4.2061    0.0000 C   0  0  0  0  0  0  0  0  0  0  0  0
    8.9148   -4.6186    0.0000 C   0  0  0  0  0  0  0  0  0  0  0  0
    6.0569   -7.0936    0.0000 C   0  0  0  0  0  0  0  0  0  0  0  0
    5.3424   -6.6811    0.0000 C   0  0  0  0  0  0  0  0  0  0  0  0
    5.3424   -5.8561    0.0000 C   0  0  0  0  0  0  0  0  0  0  0  0
    6.0569   -5.4436    0.0000 C   0  0  0  0  0  0  0  0  0  0  0  0
    6.0569   -4.6186    0.0000 O   0  0  0  0  0  0  0  0  0  0  0  0
    8.9143   -7.9195    0.0000 C   0  0  0  0  0  0  0  0  0  0  0  0
    4.6280   -5.4436    0.0000 O   0  0  0  0  0  0  0  0  0  0  0  0
    3.9135   -5.8561    0.0000 C   0  0  0  0  0  0  0  0  0  0  0  0
    8.2003   -3.3811    0.0000 O   0  0  0  0  0  0  0  0  0  0  0  0
    8.9148   -2.9686    0.0000 C   0  0  0  0  0  0  0  0  0  0  0  0
    6.7714   -4.2061    0.0000 O   0  0  0  0  0  0  0  0  0  0  0  0
    6.7714   -3.3811    0.0000 C   0  0  0  0  0  0  0  0  0  0  0  0
    8.2003   -7.5061    0.0000 H   0  0  0  0  0  0  0  0  0  0  0  0
  1  2  1  0  0  0  0
  2  3  1  0  0  0  0
  3  4  1  0  0  0  0
  4  5  1  0  0  0  0
  5  6  2  0  0  0  0
  6  7  1  0  0  0  0
  7  8  1  0  0  0  0
  8  9  1  0  0  0  0
  9 10  1  0  0  0  0
  1 10  1  0  0  0  0
  5 10  1  0  0  0  0
 11 12  2  0  0  0  0
 12 13  1  0  0  0  0
 13  4  2  0  0  0  0
 11  6  1  0  0  0  0
 14 15  1  0  0  0  0
 15 16  2  0  0  0  0
 16 17  1  0  0  0  0
 17  7  2  0  0  0  0
 14  8  2  0  0  0  0
 17 18  1  0  0  0  0
  1 19  1  0  0  0  0
 20 21  1  0  0  0  0
 16 20  1  0  0  0  0
 22 23  1  0  0  0  0
 12 22  1  0  0  0  0
 24 25  1  0  0  0  0
 11 24  1  0  0  0  0
 10 26  1  6  0  0  0
M  END
>  <cdx:fragmentId>
5

$$$$
