10140.cdx
  Mrv1902 05222410192D          

 25 26  0  0  0  0            999 V2000
    6.8894   -6.3731    0.0000 C   0  0  0  0  0  0  0  0  0  0  0  0
    6.1749   -5.9606    0.0000 O   0  0  0  0  0  0  0  0  0  0  0  0
    7.6039   -5.9606    0.0000 C   0  0  0  0  0  0  0  0  0  0  0  0
    4.7460   -7.6106    0.0000 C   0  0  0  0  0  0  0  0  0  0  0  0
    5.4604   -7.1981    0.0000 O   0  0  0  0  0  0  0  0  0  0  0  0
    6.8894   -9.6731    0.0000 O   0  0  0  0  0  0  0  0  0  0  0  0
    8.3183   -8.8481    0.0000 C   0  0  0  0  0  0  0  0  0  0  0  0
    8.3183   -7.1981    0.0000 O   0  0  0  0  0  0  0  0  0  0  0  0
    6.8894   -7.1981    0.0000 C   0  0  0  0  0  0  0  0  0  0  0  0
    6.1749   -7.6106    0.0000 C   0  0  0  0  0  0  0  0  0  0  0  0
    6.1749   -8.4356    0.0000 C   0  0  0  0  0  0  0  0  0  0  0  0
    6.8894   -8.8481    0.0000 C   0  0  0  0  0  0  0  0  0  0  0  0
    7.6039   -8.4356    0.0000 C   0  0  0  0  0  0  0  0  0  0  0  0
    7.6039   -7.6106    0.0000 C   0  0  0  0  0  0  0  0  0  0  0  0
    6.1749  -10.0856    0.0000 C   0  0  2  0  0  0  0  0  0  0  0  0
    5.4604   -9.6731    0.0000 O   0  0  0  0  0  0  0  0  0  0  0  0
    4.7460  -10.0856    0.0000 C   0  0  1  0  0  0  0  0  0  0  0  0
    4.7460  -10.9106    0.0000 C   0  0  2  0  0  0  0  0  0  0  0  0
    5.4604  -11.3231    0.0000 C   0  0  1  0  0  0  0  0  0  0  0  0
    6.1749  -10.9106    0.0000 C   0  0  1  0  0  0  0  0  0  0  0  0
    4.0315   -9.6731    0.0000 C   0  0  0  0  0  0  0  0  0  0  0  0
    5.4604  -12.1481    0.0000 O   0  0  0  0  0  0  0  0  0  0  0  0
    6.8894  -11.3231    0.0000 O   0  0  0  0  0  0  0  0  0  0  0  0
    4.0315  -11.3231    0.0000 O   0  0  0  0  0  0  0  0  0  0  0  0
    3.3170  -10.0856    0.0000 O   0  0  0  0  0  0  0  0  0  0  0  0
  1  2  2  0  0  0  0
  9  1  1  0  0  0  0
  1  3  1  0  0  0  0
  5  4  1  0  0  0  0
 10  5  1  0  0  0  0
 12  6  1  0  0  0  0
 13  7  1  0  0  0  0
 14  8  1  0  0  0  0
  9 14  1  0  0  0  0
 10  9  2  0  0  0  0
 11 10  1  0  0  0  0
 12 11  2  0  0  0  0
 13 12  1  0  0  0  0
 14 13  2  0  0  0  0
 15  6  1  1  0  0  0
 15 16  1  0  0  0  0
 16 17  1  0  0  0  0
 17 18  1  0  0  0  0
 18 19  1  0  0  0  0
 19 20  1  0  0  0  0
 20 15  1  0  0  0  0
 17 21  1  1  0  0  0
 19 22  1  1  0  0  0
 20 23  1  6  0  0  0
 18 24  1  6  0  0  0
 21 25  1  0  0  0  0
M  END
>  <cdx:fragmentId>
5

$$$$
