10142.cdx
  Mrv1902 05222410202D          

 22 22  0  0  0  0            999 V2000
   10.8393   -8.9100    0.0000 C   0  0  0  0  0  0  0  0  0  0  0  0
   10.8393   -8.0850    0.0000 C   0  0  0  0  0  0  0  0  0  0  0  0
   10.1249   -7.6725    0.0000 C   0  0  0  0  0  0  0  0  0  0  0  0
    9.4104   -8.0850    0.0000 C   0  0  0  0  0  0  0  0  0  0  0  0
    9.4104   -8.9100    0.0000 C   0  0  0  0  0  0  0  0  0  0  0  0
   10.1249   -9.3225    0.0000 C   0  0  0  0  0  0  0  0  0  0  0  0
    8.6959   -7.6725    0.0000 C   0  0  0  0  0  0  0  0  0  0  0  0
    7.9815   -8.0850    0.0000 O   0  0  0  0  0  0  0  0  0  0  0  0
    7.2670   -7.6725    0.0000 C   0  0  0  0  0  0  0  0  0  0  0  0
    6.5525   -8.0850    0.0000 C   0  0  0  0  0  0  0  0  0  0  0  0
    5.8380   -7.6725    0.0000 C   0  0  0  0  0  0  0  0  0  0  0  0
    5.1236   -8.0850    0.0000 C   0  0  0  0  0  0  0  0  0  0  0  0
    4.4091   -7.6725    0.0000 C   0  0  0  0  0  0  0  0  0  0  0  0
    3.6946   -8.0850    0.0000 C   0  0  0  0  0  0  0  0  0  0  0  0
    2.9802   -7.6725    0.0000 C   0  0  0  0  0  0  0  0  0  0  0  0
    2.2657   -8.0850    0.0000 C   0  0  0  0  0  0  0  0  0  0  0  0
    1.5512   -7.6725    0.0000 C   0  0  0  0  0  0  0  0  0  0  0  0
    2.2657   -8.9100    0.0000 C   0  0  0  0  0  0  0  0  0  0  0  0
    7.2670   -6.8475    0.0000 O   0  0  0  0  0  0  0  0  0  0  0  0
   11.5538   -9.3225    0.0000 O   0  0  0  0  0  0  0  0  0  0  0  0
   11.5538   -7.6725    0.0000 O   0  0  0  0  0  0  0  0  0  0  0  0
   12.2683   -8.0850    0.0000 C   0  0  0  0  0  0  0  0  0  0  0  0
  1  2  2  0  0  0  0
  2  3  1  0  0  0  0
  3  4  2  0  0  0  0
  4  5  1  0  0  0  0
  5  6  2  0  0  0  0
  6  1  1  0  0  0  0
  4  7  1  0  0  0  0
  7  8  1  0  0  0  0
  8  9  1  0  0  0  0
  9 10  1  0  0  0  0
 10 11  1  0  0  0  0
 11 12  1  0  0  0  0
 12 13  1  0  0  0  0
 13 14  1  0  0  0  0
 14 15  2  0  0  0  0
 15 16  1  0  0  0  0
 16 17  1  0  0  0  0
 16 18  1  0  0  0  0
  9 19  2  0  0  0  0
  1 20  1  0  0  0  0
  2 21  1  0  0  0  0
 21 22  1  0  0  0  0
M  END
>  <cdx:fragmentId>
5

$$$$
