10144.cdx
  Mrv1902 05222410192D          

 21 25  0  0  0  0            999 V2000
    6.7702   -8.1139    0.0000 C   0  0  0  0  0  0  0  0  0  0  0  0
    6.0454   -7.7198    0.0000 C   0  0  0  0  0  0  0  0  0  0  0  0
    5.2671   -7.9934    0.0000 O   0  0  0  0  0  0  0  0  0  0  0  0
    4.7664   -7.3377    0.0000 C   0  0  0  0  0  0  0  0  0  0  0  0
    5.2352   -6.6589    0.0000 O   0  0  0  0  0  0  0  0  0  0  0  0
    6.0257   -6.8950    0.0000 C   0  0  0  0  0  0  0  0  0  0  0  0
    6.7299   -6.4651    0.0000 C   0  0  0  0  0  0  0  0  0  0  0  0
    7.4545   -6.8595    0.0000 C   0  0  0  0  0  0  0  0  0  0  0  0
    8.1588   -6.4298    0.0000 C   0  0  0  0  0  0  0  0  0  0  0  0
    8.8830   -6.8249    0.0000 C   0  0  0  0  0  0  0  0  0  0  0  0
    8.9030   -7.6496    0.0000 N   0  0  0  0  0  0  0  0  0  0  0  0
    8.1987   -8.0793    0.0000 C   0  0  0  0  0  0  0  0  0  0  0  0
    8.2187   -8.9041    0.0000 C   0  0  0  0  0  0  0  0  0  0  0  0
    7.5144   -9.3337    0.0000 C   0  0  0  0  0  0  0  0  0  0  0  0
    7.5344  -10.1585    0.0000 C   0  0  0  0  0  0  0  0  0  0  0  0
    6.8301  -10.5882    0.0000 C   0  0  0  0  0  0  0  0  0  0  0  0
    6.1059  -10.1931    0.0000 C   0  0  0  0  0  0  0  0  0  0  0  0
    6.0859   -9.3683    0.0000 C   0  0  0  0  0  0  0  0  0  0  0  0
    6.7902   -8.9387    0.0000 C   0  0  0  0  0  0  0  0  0  0  0  0
    7.4745   -7.6842    0.0000 C   0  0  0  0  0  0  0  0  0  0  0  0
    8.9429   -9.2991    0.0000 O   0  0  0  0  0  0  0  0  0  0  0  0
  1  2  1  0  0  0  0
  2  3  1  0  0  0  0
  3  4  1  0  0  0  0
  4  5  1  0  0  0  0
  5  6  1  0  0  0  0
  6  7  1  0  0  0  0
  7  8  2  0  0  0  0
  8  9  1  0  0  0  0
  9 10  2  0  0  0  0
 10 11  1  0  0  0  0
 11 12  2  0  0  0  0
 12 13  1  0  0  0  0
 13 14  1  0  0  0  0
 14 15  2  0  0  0  0
 15 16  1  0  0  0  0
 16 17  2  0  0  0  0
 17 18  1  0  0  0  0
 18 19  2  0  0  0  0
  1 19  1  0  0  0  0
  1 20  2  0  0  0  0
 20 12  1  0  0  0  0
 14 19  1  0  0  0  0
  2  6  2  0  0  0  0
  8 20  1  0  0  0  0
 13 21  2  0  0  0  0
M  END
>  <cdx:groupId>
69

>  <cdx:fragmentId>
5

$$$$
