1014.cdx
  Mrv1902 05222410242D          

 26 29  0  0  0  0            999 V2000
    5.4722   -8.5269    0.0000 C   0  0  0  0  0  0  0  0  0  0  0  0
    4.8025   -8.0450    0.0000 C   0  0  0  0  0  0  0  0  0  0  0  0
    4.1373   -8.5330    0.0000 N   0  0  0  0  0  0  0  0  0  0  0  0
    5.2273  -10.7416    0.0000 C   0  0  0  0  0  0  0  0  0  0  0  0
    5.6366  -10.0253    0.0000 C   0  0  0  0  0  0  0  0  0  0  0  0
    5.2208   -9.3127    0.0000 C   0  0  0  0  0  0  0  0  0  0  0  0
    4.3958   -9.3164    0.0000 C   0  0  0  0  0  0  0  0  0  0  0  0
    3.9866  -10.0328    0.0000 C   0  0  0  0  0  0  0  0  0  0  0  0
    4.4024  -10.7454    0.0000 C   0  0  0  0  0  0  0  0  0  0  0  0
    6.1848   -8.1112    0.0000 C   0  0  2  0  0  0  0  0  0  0  0  0
    6.1810   -7.2862    0.0000 C   0  0  0  0  0  0  0  0  0  0  0  0
    6.8936   -6.8704    0.0000 C   0  0  0  0  0  0  0  0  0  0  0  0
    6.8898   -6.0454    0.0000 C   0  0  0  0  0  0  0  0  0  0  0  0
    6.1735   -5.6362    0.0000 C   0  0  0  0  0  0  0  0  0  0  0  0
    5.4609   -6.0519    0.0000 C   0  0  0  0  0  0  0  0  0  0  0  0
    5.4647   -6.8769    0.0000 C   0  0  0  0  0  0  0  0  0  0  0  0
    7.6794   -7.1218    0.0000 N   0  0  0  0  0  0  0  0  0  0  0  0
    8.1612   -6.4521    0.0000 C   0  0  0  0  0  0  0  0  0  0  0  0
    7.6733   -5.7869    0.0000 C   0  0  0  0  0  0  0  0  0  0  0  0
    6.1697   -4.8112    0.0000 O   0  0  0  0  0  0  0  0  0  0  0  0
    8.0825   -5.0706    0.0000 C   0  0  0  0  0  0  0  0  0  0  0  0
    8.9075   -5.0668    0.0000 C   0  0  0  0  0  0  0  0  0  0  0  0
    9.7325   -5.0630    0.0000 N   0  0  0  0  0  0  0  0  0  0  0  0
    6.9011   -8.5204    0.0000 C   0  0  0  0  0  0  0  0  0  0  0  0
    7.6175   -8.9296    0.0000 N   0  0  0  0  0  0  0  0  0  0  0  0
    5.4534   -4.4019    0.0000 C   0  0  0  0  0  0  0  0  0  0  0  0
  1  6  1  0  0  0  0
  2  1  2  0  0  0  0
  3  2  1  0  0  0  0
  7  3  1  0  0  0  0
  4  9  1  0  0  0  0
  5  4  2  0  0  0  0
  6  5  1  0  0  0  0
  7  6  2  0  0  0  0
  8  7  1  0  0  0  0
  9  8  2  0  0  0  0
  1 10  1  0  0  0  0
 10 11  1  0  0  0  0
 11 12  2  0  0  0  0
 12 13  1  0  0  0  0
 13 14  2  0  0  0  0
 14 15  1  0  0  0  0
 15 16  2  0  0  0  0
 16 11  1  0  0  0  0
 12 17  1  0  0  0  0
 17 18  1  0  0  0  0
 18 19  2  0  0  0  0
 19 13  1  0  0  0  0
 14 20  1  0  0  0  0
 19 21  1  0  0  0  0
 21 22  1  0  0  0  0
 22 23  3  0  0  0  0
 10 24  1  6  0  0  0
 24 25  3  0  0  0  0
 20 26  1  0  0  0  0
M  END
>  <cdx:fragmentId>
5

$$$$
