10146.cdx
  Mrv1902 05222410182D          

 23 26  0  0  0  0            999 V2000
    5.5701   -5.7814    0.0000 N   0  0  0  0  0  0  0  0  0  0  0  0
    6.2844   -5.3687    0.0000 C   0  0  0  0  0  0  0  0  0  0  0  0
    6.2847   -4.5437    0.0000 C   0  0  0  0  0  0  0  0  0  0  0  0
    5.5706   -4.1305    0.0000 C   0  0  0  0  0  0  0  0  0  0  0  0
    4.8562   -4.5430    0.0000 C   0  0  0  0  0  0  0  0  0  0  0  0
    4.1417   -4.1305    0.0000 C   0  0  0  0  0  0  0  0  0  0  0  0
    3.4272   -4.5430    0.0000 C   0  0  0  0  0  0  0  0  0  0  0  0
    3.4272   -5.3680    0.0000 C   0  0  0  0  0  0  0  0  0  0  0  0
    4.1417   -5.7805    0.0000 C   0  0  0  0  0  0  0  0  0  0  0  0
    4.8562   -5.3680    0.0000 C   0  0  1  0  0  0  0  0  0  0  0  0
    4.1417   -3.3055    0.0000 C   0  0  0  0  0  0  0  0  0  0  0  0
    4.8562   -2.8930    0.0000 C   0  0  0  0  0  0  0  0  0  0  0  0
    5.5706   -3.3055    0.0000 C   0  0  0  0  0  0  0  0  0  0  0  0
    2.7128   -5.7805    0.0000 C   0  0  0  0  0  0  0  0  0  0  0  0
    1.9983   -5.3680    0.0000 C   0  0  0  0  0  0  0  0  0  0  0  0
    1.9983   -4.5430    0.0000 C   0  0  0  0  0  0  0  0  0  0  0  0
    2.7128   -4.1305    0.0000 C   0  0  0  0  0  0  0  0  0  0  0  0
    5.5701   -6.6064    0.0000 C   0  0  0  0  0  0  0  0  0  0  0  0
    4.8562   -2.0680    0.0000 O   0  0  0  0  0  0  0  0  0  0  0  0
    5.5706   -1.6555    0.0000 C   0  0  0  0  0  0  0  0  0  0  0  0
    3.4272   -2.8930    0.0000 O   0  0  0  0  0  0  0  0  0  0  0  0
    2.7128   -3.3055    0.0000 C   0  0  0  0  0  0  0  0  0  0  0  0
    4.8562   -6.1930    0.0000 H   0  0  0  0  0  0  0  0  0  0  0  0
  1  2  1  0  0  0  0
  2  3  1  0  0  0  0
  3  4  1  0  0  0  0
  4  5  1  0  0  0  0
  5  6  2  0  0  0  0
  6  7  1  0  0  0  0
  7  8  1  0  0  0  0
  8  9  1  0  0  0  0
  9 10  1  0  0  0  0
  1 10  1  0  0  0  0
  5 10  1  0  0  0  0
 11 12  2  0  0  0  0
 12 13  1  0  0  0  0
 13  4  2  0  0  0  0
 11  6  1  0  0  0  0
 14 15  1  0  0  0  0
 15 16  2  0  0  0  0
 16 17  1  0  0  0  0
 17  7  2  0  0  0  0
 14  8  2  0  0  0  0
  1 18  1  0  0  0  0
 19 20  1  0  0  0  0
 12 19  1  0  0  0  0
 21 22  1  0  0  0  0
 11 21  1  0  0  0  0
 10 23  1  1  0  0  0
M  END
>  <cdx:groupId>
74

>  <cdx:fragmentId>
5

$$$$
