10154.cdx
  Mrv1902 05222410192D          

 25 28  0  0  0  0            999 V2000
    9.0174   -7.0344    0.0000 N   0  0  0  0  0  0  0  0  0  0  0  0
    9.7317   -6.6217    0.0000 C   0  0  0  0  0  0  0  0  0  0  0  0
    9.7320   -5.7967    0.0000 C   0  0  0  0  0  0  0  0  0  0  0  0
    9.0179   -5.3835    0.0000 C   0  0  0  0  0  0  0  0  0  0  0  0
    8.3035   -5.7960    0.0000 C   0  0  0  0  0  0  0  0  0  0  0  0
    7.5890   -5.3835    0.0000 C   0  0  0  0  0  0  0  0  0  0  0  0
    6.8745   -5.7960    0.0000 C   0  0  0  0  0  0  0  0  0  0  0  0
    6.8745   -6.6210    0.0000 C   0  0  0  0  0  0  0  0  0  0  0  0
    7.5890   -7.0335    0.0000 C   0  0  0  0  0  0  0  0  0  0  0  0
    8.3035   -6.6210    0.0000 C   0  0  2  0  0  0  0  0  0  0  0  0
    7.5890   -4.5585    0.0000 C   0  0  0  0  0  0  0  0  0  0  0  0
    8.3035   -4.1460    0.0000 C   0  0  0  0  0  0  0  0  0  0  0  0
    9.0179   -4.5585    0.0000 C   0  0  0  0  0  0  0  0  0  0  0  0
    6.1600   -7.0335    0.0000 C   0  0  0  0  0  0  0  0  0  0  0  0
    5.4456   -6.6210    0.0000 C   0  0  0  0  0  0  0  0  0  0  0  0
    5.4456   -5.7960    0.0000 C   0  0  0  0  0  0  0  0  0  0  0  0
    6.1600   -5.3835    0.0000 C   0  0  0  0  0  0  0  0  0  0  0  0
    8.3035   -3.3210    0.0000 O   0  0  0  0  0  0  0  0  0  0  0  0
    4.7311   -7.0335    0.0000 O   0  0  0  0  0  0  0  0  0  0  0  0
    9.0174   -7.8594    0.0000 C   0  0  0  0  0  0  0  0  0  0  0  0
    4.7311   -5.3835    0.0000 O   0  0  0  0  0  0  0  0  0  0  0  0
    4.0166   -5.7960    0.0000 C   0  0  0  0  0  0  0  0  0  0  0  0
    6.8745   -4.1460    0.0000 O   0  0  0  0  0  0  0  0  0  0  0  0
    6.1600   -4.5585    0.0000 C   0  0  0  0  0  0  0  0  0  0  0  0
    8.3035   -7.4460    0.0000 H   0  0  0  0  0  0  0  0  0  0  0  0
  1  2  1  0  0  0  0
  2  3  1  0  0  0  0
  3  4  1  0  0  0  0
  4  5  1  0  0  0  0
  5  6  2  0  0  0  0
  6  7  1  0  0  0  0
  7  8  1  0  0  0  0
  8  9  1  0  0  0  0
  9 10  1  0  0  0  0
  1 10  1  0  0  0  0
  5 10  1  0  0  0  0
 11 12  2  0  0  0  0
 12 13  1  0  0  0  0
 13  4  2  0  0  0  0
 11  6  1  0  0  0  0
 14 15  1  0  0  0  0
 15 16  2  0  0  0  0
 16 17  1  0  0  0  0
 17  7  2  0  0  0  0
 14  8  2  0  0  0  0
 12 18  1  0  0  0  0
 15 19  1  0  0  0  0
  1 20  1  0  0  0  0
 21 22  1  0  0  0  0
 16 21  1  0  0  0  0
 23 24  1  0  0  0  0
 11 23  1  0  0  0  0
 10 25  1  6  0  0  0
M  END
>  <cdx:fragmentId>
5

$$$$
