101530.cdx
  Mrv1902 05222410232D          

 63 62  0  0  0  0            999 V2000
    7.4250   -9.2400    0.0000 C   0  0  0  0  0  0  0  0  0  0  0  0
    8.1395   -8.8275    0.0000 C   0  0  0  0  0  0  0  0  0  0  0  0
    8.8539   -9.2400    0.0000 C   0  0  0  0  0  0  0  0  0  0  0  0
    9.5684   -8.8275    0.0000 C   0  0  0  0  0  0  0  0  0  0  0  0
   10.2829   -9.2400    0.0000 C   0  0  0  0  0  0  0  0  0  0  0  0
   10.9974   -8.8275    0.0000 C   0  0  0  0  0  0  0  0  0  0  0  0
   11.7118   -9.2400    0.0000 C   0  0  0  0  0  0  0  0  0  0  0  0
   12.4263   -8.8275    0.0000 C   0  0  0  0  0  0  0  0  0  0  0  0
   13.1408   -9.2400    0.0000 C   0  0  0  0  0  0  0  0  0  0  0  0
   13.8552   -8.8275    0.0000 C   0  0  0  0  0  0  0  0  0  0  0  0
   14.5697   -9.2400    0.0000 O   0  0  0  0  0  0  0  0  0  0  0  0
   15.2842   -8.8275    0.0000 C   0  0  0  0  0  0  0  0  0  0  0  0
   15.9987   -9.2400    0.0000 C   0  0  0  0  0  0  0  0  0  0  0  0
   16.7131   -8.8275    0.0000 O   0  0  0  0  0  0  0  0  0  0  0  0
   17.4276   -9.2400    0.0000 C   0  0  0  0  0  0  0  0  0  0  0  0
   18.1421   -8.8275    0.0000 C   0  0  0  0  0  0  0  0  0  0  0  0
   18.8565   -9.2400    0.0000 C   0  0  0  0  0  0  0  0  0  0  0  0
   19.5710   -8.8275    0.0000 C   0  0  0  0  0  0  0  0  0  0  0  0
   20.2855   -9.2400    0.0000 C   0  0  0  0  0  0  0  0  0  0  0  0
   20.9999   -8.8275    0.0000 C   0  0  0  0  0  0  0  0  0  0  0  0
   21.7144   -9.2400    0.0000 C   0  0  0  0  0  0  0  0  0  0  0  0
   22.4289   -8.8275    0.0000 C   0  0  0  0  0  0  0  0  0  0  0  0
    7.4250  -10.0650    0.0000 C   0  0  0  0  0  0  0  0  0  0  0  0
    6.7105  -10.4775    0.0000 C   0  0  0  0  0  0  0  0  0  0  0  0
    6.7105  -11.3025    0.0000 C   0  0  0  0  0  0  0  0  0  0  0  0
    5.9961  -11.7150    0.0000 C   0  0  0  0  0  0  0  0  0  0  0  0
    5.9961  -12.5400    0.0000 C   0  0  0  0  0  0  0  0  0  0  0  0
    5.2816  -12.9525    0.0000 C   0  0  0  0  0  0  0  0  0  0  0  0
    5.2816  -13.7775    0.0000 C   0  0  0  0  0  0  0  0  0  0  0  0
    4.5671  -14.1900    0.0000 C   0  0  0  0  0  0  0  0  0  0  0  0
   13.8552   -8.0025    0.0000 O   0  0  0  0  0  0  0  0  0  0  0  0
   15.9987  -10.0650    0.0000 C   0  0  0  0  0  0  0  0  0  0  0  0
   15.2842  -10.4775    0.0000 O   0  0  0  0  0  0  0  0  0  0  0  0
   17.4276  -10.0650    0.0000 O   0  0  0  0  0  0  0  0  0  0  0  0
   23.1434   -9.2400    0.0000 C   0  0  0  0  0  0  0  0  0  0  0  0
   23.8578   -8.8275    0.0000 C   0  0  0  0  0  0  0  0  0  0  0  0
   23.8578   -8.0025    0.0000 C   0  0  0  0  0  0  0  0  0  0  0  0
   24.5723   -7.5900    0.0000 C   0  0  0  0  0  0  0  0  0  0  0  0
   24.5723   -6.7650    0.0000 C   0  0  0  0  0  0  0  0  0  0  0  0
   25.2868   -6.3525    0.0000 C   0  0  0  0  0  0  0  0  0  0  0  0
   25.2868   -5.5275    0.0000 C   0  0  0  0  0  0  0  0  0  0  0  0
   26.0012   -5.1150    0.0000 C   0  0  0  0  0  0  0  0  0  0  0  0
   26.0012   -4.2900    0.0000 C   0  0  0  0  0  0  0  0  0  0  0  0
   26.7157   -3.8775    0.0000 C   0  0  0  0  0  0  0  0  0  0  0  0
   15.2842  -11.3025    0.0000 C   0  0  0  0  0  0  0  0  0  0  0  0
   14.5697  -11.7150    0.0000 C   0  0  0  0  0  0  0  0  0  0  0  0
   14.5697  -12.5400    0.0000 C   0  0  0  0  0  0  0  0  0  0  0  0
   13.8552  -12.9525    0.0000 C   0  0  0  0  0  0  0  0  0  0  0  0
   13.8552  -13.7775    0.0000 C   0  0  0  0  0  0  0  0  0  0  0  0
   13.1408  -14.1900    0.0000 C   0  0  0  0  0  0  0  0  0  0  0  0
   13.1408  -15.0150    0.0000 C   0  0  0  0  0  0  0  0  0  0  0  0
   12.4263  -15.4275    0.0000 C   0  0  0  0  0  0  0  0  0  0  0  0
   15.9987  -11.7150    0.0000 O   0  0  0  0  0  0  0  0  0  0  0  0
   12.4263  -16.2525    0.0000 C   0  0  0  0  0  0  0  0  0  0  0  0
   11.7118  -16.6650    0.0000 C   0  0  0  0  0  0  0  0  0  0  0  0
   10.9974  -16.2525    0.0000 C   0  0  0  0  0  0  0  0  0  0  0  0
   10.2829  -16.6650    0.0000 C   0  0  0  0  0  0  0  0  0  0  0  0
    9.5684  -16.2525    0.0000 C   0  0  0  0  0  0  0  0  0  0  0  0
    8.8539  -16.6650    0.0000 C   0  0  0  0  0  0  0  0  0  0  0  0
    8.1395  -16.2525    0.0000 C   0  0  0  0  0  0  0  0  0  0  0  0
    7.4250  -16.6650    0.0000 C   0  0  0  0  0  0  0  0  0  0  0  0
    6.7105  -16.2525    0.0000 C   0  0  0  0  0  0  0  0  0  0  0  0
    5.9961  -16.6650    0.0000 C   0  0  0  0  0  0  0  0  0  0  0  0
  1  2  2  0  0  0  0
  2  3  1  0  0  0  0
  3  4  1  0  0  0  0
  4  5  1  0  0  0  0
  5  6  1  0  0  0  0
  6  7  1  0  0  0  0
  7  8  1  0  0  0  0
  8  9  1  0  0  0  0
  9 10  1  0  0  0  0
 10 11  1  0  0  0  0
 11 12  1  0  0  0  0
 12 13  1  0  0  0  0
 13 14  1  0  0  0  0
 14 15  1  0  0  0  0
 15 16  1  0  0  0  0
 16 17  1  0  0  0  0
 17 18  1  0  0  0  0
 18 19  1  0  0  0  0
 19 20  1  0  0  0  0
 20 21  1  0  0  0  0
 21 22  1  0  0  0  0
  1 23  1  0  0  0  0
 23 24  1  0  0  0  0
 24 25  1  0  0  0  0
 25 26  1  0  0  0  0
 26 27  1  0  0  0  0
 27 28  1  0  0  0  0
 28 29  1  0  0  0  0
 29 30  1  0  0  0  0
 10 31  2  0  0  0  0
 13 32  1  0  0  0  0
 32 33  1  0  0  0  0
 15 34  2  0  0  0  0
 22 35  1  0  0  0  0
 35 36  2  0  0  0  0
 36 37  1  0  0  0  0
 37 38  1  0  0  0  0
 38 39  1  0  0  0  0
 39 40  1  0  0  0  0
 40 41  1  0  0  0  0
 41 42  1  0  0  0  0
 42 43  1  0  0  0  0
 43 44  1  0  0  0  0
 33 45  1  0  0  0  0
 45 46  1  0  0  0  0
 46 47  1  0  0  0  0
 47 48  1  0  0  0  0
 48 49  1  0  0  0  0
 49 50  1  0  0  0  0
 50 51  1  0  0  0  0
 51 52  1  0  0  0  0
 45 53  2  0  0  0  0
 52 54  1  0  0  0  0
 54 55  2  0  0  0  0
 55 56  1  0  0  0  0
 56 57  1  0  0  0  0
 57 58  1  0  0  0  0
 58 59  1  0  0  0  0
 59 60  1  0  0  0  0
 60 61  1  0  0  0  0
 61 62  1  0  0  0  0
 62 63  1  0  0  0  0
M  END
>  <cdx:fragmentId>
785

$$$$
