101595.cdx
  Mrv1902 05222410282D          

 32 37  0  0  0  0            999 V2000
    4.5821   -5.2371    0.0000 C   0  0  1  0  0  0  0  0  0  0  0  0
    4.4711   -6.0548    0.0000 C   0  0  0  0  0  0  0  0  0  0  0  0
    4.9582   -6.7206    0.0000 C   0  0  0  0  0  0  0  0  0  0  0  0
    5.7708   -6.8630    0.0000 N   0  0  0  0  0  0  0  0  0  0  0  0
    6.4553   -6.4024    0.0000 C   0  0  0  0  0  0  0  0  0  0  0  0
    6.6294   -5.5960    0.0000 C   0  0  0  0  0  0  0  0  0  0  0  0
    7.1728   -4.9748    0.0000 C   0  0  0  0  0  0  0  0  0  0  0  0
    7.1620   -4.1499    0.0000 C   0  0  0  0  0  0  0  0  0  0  0  0
    6.6023   -3.5437    0.0000 O   0  0  0  0  0  0  0  0  0  0  0  0
    5.7809   -3.4672    0.0000 C   0  0  1  0  0  0  0  0  0  0  0  0
    5.1606   -2.9233    0.0000 C   0  0  0  0  0  0  0  0  0  0  0  0
    4.3727   -3.1679    0.0000 C   0  0  0  0  0  0  0  0  0  0  0  0
    4.1696   -3.9675    0.0000 N   0  0  0  0  0  0  0  0  0  0  0  0
    3.5022   -4.4524    0.0000 C   0  0  0  0  0  0  0  0  0  0  0  0
    2.6952   -4.2809    0.0000 C   0  0  0  0  0  0  0  0  0  0  0  0
    2.1432   -4.8940    0.0000 C   0  0  0  0  0  0  0  0  0  0  0  0
    2.3981   -5.6786    0.0000 C   0  0  0  0  0  0  0  0  0  0  0  0
    3.2051   -5.8502    0.0000 C   0  0  0  0  0  0  0  0  0  0  0  0
    3.7571   -5.2371    0.0000 C   0  0  0  0  0  0  0  0  0  0  0  0
    5.1342   -5.8502    0.0000 C   0  0  0  0  0  0  0  0  0  0  0  0
    5.9411   -5.6786    0.0000 C   0  0  0  0  0  0  0  0  0  0  0  0
    6.1961   -4.8940    0.0000 C   0  0  2  0  0  0  0  0  0  0  0  0
    5.6440   -4.2809    0.0000 C   0  0  2  0  0  0  0  0  0  0  0  0
    4.8371   -4.4524    0.0000 C   0  0  1  0  0  0  0  0  0  0  0  0
    3.7743   -2.6000    0.0000 O   0  0  0  0  0  0  0  0  0  0  0  0
    5.1716   -6.9220    0.0000 O   0  0  0  0  0  0  0  0  0  0  0  0
    5.9423   -7.6700    0.0000 C   0  0  0  0  0  0  0  0  0  0  0  0
    2.4403   -3.4963    0.0000 O   0  0  0  0  0  0  0  0  0  0  0  0
    6.1070   -2.7094    0.0000 H   0  0  0  0  0  0  0  0  0  0  0  0
    6.6913   -4.5230    0.0000 H   0  0  0  0  0  0  0  0  0  0  0  0
    5.6440   -5.1059    0.0000 H   0  0  0  0  0  0  0  0  0  0  0  0
    4.8371   -3.6274    0.0000 H   0  0  0  0  0  0  0  0  0  0  0  0
  1  2  1  6  0  0  0
  2  3  1  0  0  0  0
  3  4  1  0  0  0  0
  4  5  1  0  0  0  0
  5  6  1  0  0  0  0
  6  7  2  0  0  0  0
  7  8  1  0  0  0  0
  8  9  1  0  0  0  0
  9 10  1  0  0  0  0
 10 11  1  0  0  0  0
 11 12  1  0  0  0  0
 12 13  1  0  0  0  0
 13 14  1  0  0  0  0
 14 15  1  0  0  0  0
 15 16  2  0  0  0  0
 16 17  1  0  0  0  0
 17 18  2  0  0  0  0
 18 19  1  0  0  0  0
 20 21  1  0  0  0  0
 22 21  1  1  0  0  0
 22 23  1  0  0  0  0
 23 24  1  0  0  0  0
  1 19  1  0  0  0  0
  1 20  1  0  0  0  0
 24 13  1  0  0  0  0
 10 23  1  0  0  0  0
  6 22  1  0  0  0  0
 14 19  2  0  0  0  0
  1 24  1  0  0  0  0
 12 25  2  0  0  0  0
 20 26  2  0  0  0  0
  4 27  1  0  0  0  0
 15 28  1  0  0  0  0
 10 29  1  1  0  0  0
 22 30  1  0  0  0  0
 23 31  1  1  0  0  0
 24 32  1  6  0  0  0
M  END
>  <cdx:groupId>
103

>  <cdx:fragmentId>
5

$$$$
