10159.cdx
  Mrv1902 05222410272D          

 40 40  0  0  0  0            999 V2000
    6.0403   -8.4842    0.0000 C   0  0  0  0  0  0  0  0  0  0  0  0
    5.3201   -8.8867    0.0000 C   0  0  0  0  0  0  0  0  0  0  0  0
    4.6115   -8.4642    0.0000 C   0  0  0  0  0  0  0  0  0  0  0  0
    3.8913   -8.8667    0.0000 C   0  0  0  0  0  0  0  0  0  0  0  0
    3.1827   -8.4442    0.0000 C   0  0  0  0  0  0  0  0  0  0  0  0
    2.4625   -8.8466    0.0000 C   0  0  0  0  0  0  0  0  0  0  0  0
    1.7539   -8.4242    0.0000 O   0  0  0  0  0  0  0  0  0  0  0  0
    1.0337   -8.8266    0.0000 C   0  0  0  0  0  0  0  0  0  0  0  0
    2.4509   -9.6716    0.0000 C   0  0  0  0  0  0  0  0  0  0  0  0
    1.7308  -10.0740    0.0000 O   0  0  0  0  0  0  0  0  0  0  0  0
    3.1596  -10.0940    0.0000 C   0  0  0  0  0  0  0  0  0  0  0  0
    3.8797   -9.6916    0.0000 C   0  0  0  0  0  0  0  0  0  0  0  0
    6.0518   -7.6593    0.0000 O   0  0  0  0  0  0  0  0  0  0  0  0
    6.7489   -8.9067    0.0000 O   0  0  0  0  0  0  0  0  0  0  0  0
    7.4691   -8.5042    0.0000 C   0  0  0  0  0  0  0  0  0  0  0  0
    8.1777   -8.9267    0.0000 C   0  0  0  0  0  0  0  0  0  0  0  0
    8.8979   -8.5243    0.0000 C   0  0  0  0  0  0  0  0  0  0  0  0
    9.6065   -8.9467    0.0000 C   0  0  0  0  0  0  0  0  0  0  0  0
   10.3267   -8.5443    0.0000 C   0  0  0  0  0  0  0  0  0  0  0  0
   11.0353   -8.9668    0.0000 C   0  0  0  0  0  0  0  0  0  0  0  0
   11.7555   -8.5643    0.0000 C   0  0  0  0  0  0  0  0  0  0  0  0
   12.4641   -8.9868    0.0000 C   0  0  0  0  0  0  0  0  0  0  0  0
   13.1843   -8.5843    0.0000 C   0  0  0  0  0  0  0  0  0  0  0  0
   13.8929   -9.0068    0.0000 C   0  0  0  0  0  0  0  0  0  0  0  0
   14.6131   -8.6043    0.0000 C   0  0  0  0  0  0  0  0  0  0  0  0
   15.3217   -9.0268    0.0000 C   0  0  0  0  0  0  0  0  0  0  0  0
   16.0419   -8.6244    0.0000 C   0  0  0  0  0  0  0  0  0  0  0  0
   16.7505   -9.0468    0.0000 C   0  0  0  0  0  0  0  0  0  0  0  0
   17.4707   -8.6444    0.0000 C   0  0  0  0  0  0  0  0  0  0  0  0
   18.1793   -9.0669    0.0000 C   0  0  0  0  0  0  0  0  0  0  0  0
   18.8995   -8.6644    0.0000 C   0  0  0  0  0  0  0  0  0  0  0  0
   19.6081   -9.0869    0.0000 C   0  0  0  0  0  0  0  0  0  0  0  0
   20.3283   -8.6844    0.0000 C   0  0  0  0  0  0  0  0  0  0  0  0
   21.0369   -9.1069    0.0000 C   0  0  0  0  0  0  0  0  0  0  0  0
   21.7571   -8.7044    0.0000 C   0  0  0  0  0  0  0  0  0  0  0  0
   22.4657   -9.1269    0.0000 C   0  0  0  0  0  0  0  0  0  0  0  0
   23.1859   -8.7245    0.0000 C   0  0  0  0  0  0  0  0  0  0  0  0
   23.8945   -9.1469    0.0000 C   0  0  0  0  0  0  0  0  0  0  0  0
   24.6147   -8.7445    0.0000 C   0  0  0  0  0  0  0  0  0  0  0  0
   25.3233   -9.1670    0.0000 C   0  0  0  0  0  0  0  0  0  0  0  0
  1  2  1  0  0  0  0
  2  3  2  0  0  0  0
  3  4  1  0  0  0  0
  4  5  1  0  0  0  0
  5  6  2  0  0  0  0
  6  7  1  0  0  0  0
  7  8  1  0  0  0  0
  6  9  1  0  0  0  0
  9 10  1  0  0  0  0
  9 11  2  0  0  0  0
 11 12  1  0  0  0  0
  4 12  2  0  0  0  0
  1 13  2  0  0  0  0
  1 14  1  0  0  0  0
 15 16  1  0  0  0  0
 16 17  1  0  0  0  0
 17 18  1  0  0  0  0
 18 19  1  0  0  0  0
 19 20  1  0  0  0  0
 20 21  1  0  0  0  0
 21 22  1  0  0  0  0
 22 23  1  0  0  0  0
 23 24  1  0  0  0  0
 24 25  1  0  0  0  0
 25 26  1  0  0  0  0
 26 27  1  0  0  0  0
 27 28  1  0  0  0  0
 28 29  1  0  0  0  0
 29 30  1  0  0  0  0
 30 31  1  0  0  0  0
 31 32  1  0  0  0  0
 32 33  1  0  0  0  0
 33 34  1  0  0  0  0
 34 35  1  0  0  0  0
 35 36  1  0  0  0  0
 36 37  1  0  0  0  0
 37 38  1  0  0  0  0
 38 39  1  0  0  0  0
 39 40  1  0  0  0  0
 14 15  1  0  0  0  0
M  END
>  <cdx:fragmentId>
33

$$$$
