101531.cdx
  Mrv1902 05222410232D          

 33 36  0  0  0  0            999 V2000
    5.5825   -9.9550    0.0000 C   0  0  1  0  0  0  0  0  0  0  0  0
    6.2970   -9.5425    0.0000 C   0  0  0  0  0  0  0  0  0  0  0  0
    4.8680   -9.5425    0.0000 C   0  0  0  0  0  0  0  0  0  0  0  0
    4.1536   -9.9550    0.0000 C   0  0  0  0  0  0  0  0  0  0  0  0
    4.1536  -10.7800    0.0000 C   0  0  1  0  0  0  0  0  0  0  0  0
    4.8680  -11.1925    0.0000 C   0  0  0  0  0  0  0  0  0  0  0  0
    5.5825  -10.7800    0.0000 C   0  0  2  0  0  0  0  0  0  0  0  0
    6.2970  -11.1925    0.0000 C   0  0  0  0  0  0  0  0  0  0  0  0
    7.0114  -10.7800    0.0000 C   0  0  0  0  0  0  0  0  0  0  0  0
    7.0114   -9.9550    0.0000 C   0  0  0  0  0  0  0  0  0  0  0  0
    7.7259   -9.5425    0.0000 C   0  0  2  0  0  0  0  0  0  0  0  0
    7.7259   -8.7175    0.0000 C   0  0  1  0  0  0  0  0  0  0  0  0
    7.0114   -8.3050    0.0000 C   0  0  0  0  0  0  0  0  0  0  0  0
    6.2970   -8.7175    0.0000 C   0  0  0  0  0  0  0  0  0  0  0  0
    8.5105   -9.7974    0.0000 C   0  0  0  0  0  0  0  0  0  0  0  0
    8.9955   -9.1300    0.0000 C   0  0  0  0  0  0  0  0  0  0  0  0
    8.5105   -8.4626    0.0000 C   0  0  1  0  0  0  0  0  0  0  0  0
    3.4391  -11.1925    0.0000 O   0  0  0  0  0  0  0  0  0  0  0  0
    5.5825   -9.1300    0.0000 C   0  0  0  0  0  0  0  0  0  0  0  0
    7.7259  -10.3675    0.0000 C   0  0  0  0  0  0  0  0  0  0  0  0
    7.7259   -7.8925    0.0000 C   0  0  0  0  0  0  0  0  0  0  0  0
    5.5825  -11.6050    0.0000 H   0  0  0  0  0  0  0  0  0  0  0  0
    5.2805  -11.9070    0.0000 C   0  0  0  0  0  0  0  0  0  0  0  0
    4.4555  -11.9070    0.0000 C   0  0  0  0  0  0  0  0  0  0  0  0
    8.7655   -7.6779    0.0000 C   0  0  1  0  0  0  0  0  0  0  0  0
    9.2952   -8.2076    0.0000 H   0  0  0  0  0  0  0  0  0  0  0  0
    9.5724   -7.5064    0.0000 C   0  0  0  0  0  0  0  0  0  0  0  0
    8.1821   -7.0946    0.0000 C   0  0  0  0  0  0  0  0  0  0  0  0
    9.8274   -6.7218    0.0000 C   0  0  0  0  0  0  0  0  0  0  0  0
   10.6344   -6.5503    0.0000 C   0  0  0  0  0  0  0  0  0  0  0  0
   10.8893   -5.7656    0.0000 C   0  0  0  0  0  0  0  0  0  0  0  0
   10.3373   -5.1525    0.0000 C   0  0  0  0  0  0  0  0  0  0  0  0
   11.6963   -5.5941    0.0000 C   0  0  0  0  0  0  0  0  0  0  0  0
  1  2  1  0  0  0  0
  1  3  1  0  0  0  0
  3  4  1  0  0  0  0
  4  5  1  0  0  0  0
  5  6  1  0  0  0  0
  6  7  1  0  0  0  0
  7  1  1  0  0  0  0
  7  8  1  0  0  0  0
  8  9  1  0  0  0  0
  9 10  1  0  0  0  0
 10  2  2  0  0  0  0
 10 11  1  0  0  0  0
 11 12  1  0  0  0  0
 12 13  1  0  0  0  0
 13 14  1  0  0  0  0
 14  2  1  0  0  0  0
 11 15  1  0  0  0  0
 15 16  1  0  0  0  0
 16 17  1  0  0  0  0
 17 12  1  0  0  0  0
  5 18  1  1  0  0  0
  1 19  1  1  0  0  0
 11 20  1  1  0  0  0
 12 21  1  6  0  0  0
  7 22  1  6  0  0  0
  6 23  1  0  0  0  0
  6 24  1  0  0  0  0
 17 25  1  0  0  0  0
 17 26  1  1  0  0  0
 25 27  1  0  0  0  0
 25 28  1  6  0  0  0
 27 29  1  0  0  0  0
 29 30  1  0  0  0  0
 30 31  2  0  0  0  0
 31 32  1  0  0  0  0
 31 33  1  0  0  0  0
M  END
>  <cdx:fragmentId>
1112

$$$$
