101513.cdx
  Mrv1902 05222410212D          

 24 26  0  0  0  0            999 V2000
    2.5516   -9.5755    0.0000 C   0  0  0  0  0  0  0  0  0  0  0  0
    3.2661   -9.9880    0.0000 O   0  0  0  0  0  0  0  0  0  0  0  0
   11.1252   -8.7505    0.0000 O   0  0  0  0  0  0  0  0  0  0  0  0
   11.8397   -7.5130    0.0000 C   0  0  0  0  0  0  0  0  0  0  0  0
   11.1252   -7.1005    0.0000 O   0  0  0  0  0  0  0  0  0  0  0  0
    8.9818   -7.5130    0.0000 C   0  0  0  0  0  0  0  0  0  0  0  0
    9.6963   -7.1005    0.0000 C   0  0  0  0  0  0  0  0  0  0  0  0
   10.4108   -7.5130    0.0000 C   0  0  0  0  0  0  0  0  0  0  0  0
   10.4108   -8.3380    0.0000 C   0  0  0  0  0  0  0  0  0  0  0  0
    9.6963   -8.7505    0.0000 C   0  0  0  0  0  0  0  0  0  0  0  0
    8.9818   -8.3380    0.0000 C   0  0  0  0  0  0  0  0  0  0  0  0
    8.2674   -8.7505    0.0000 C   0  0  0  0  0  0  0  0  0  0  0  0
    7.5529   -8.3380    0.0000 C   0  0  0  0  0  0  0  0  0  0  0  0
    6.1239   -8.3380    0.0000 O   0  0  0  0  0  0  0  0  0  0  0  0
    5.4095   -8.7505    0.0000 C   0  0  0  0  0  0  0  0  0  0  0  0
    4.6950   -8.3380    0.0000 C   0  0  0  0  0  0  0  0  0  0  0  0
    3.9805   -8.7505    0.0000 C   0  0  0  0  0  0  0  0  0  0  0  0
    3.9805   -9.5755    0.0000 C   0  0  0  0  0  0  0  0  0  0  0  0
    4.6950   -9.9880    0.0000 C   0  0  0  0  0  0  0  0  0  0  0  0
    5.4095   -9.5755    0.0000 C   0  0  0  0  0  0  0  0  0  0  0  0
    6.1239  -10.8130    0.0000 O   0  0  0  0  0  0  0  0  0  0  0  0
    6.1239   -9.9880    0.0000 C   0  0  0  0  0  0  0  0  0  0  0  0
    6.8384   -9.5755    0.0000 C   0  0  0  0  0  0  0  0  0  0  0  0
    6.8384   -8.7505    0.0000 C   0  0  0  0  0  0  0  0  0  0  0  0
 18  2  1  0  0  0  0
  2  1  1  0  0  0  0
 24 13  1  0  0  0  0
 12 11  1  0  0  0  0
  9  3  1  0  0  0  0
  8  5  1  0  0  0  0
  5  4  1  0  0  0  0
 11  6  2  0  0  0  0
  7  6  1  0  0  0  0
  8  7  2  0  0  0  0
  9  8  1  0  0  0  0
 10  9  2  0  0  0  0
 11 10  1  0  0  0  0
 13 12  1  0  0  0  0
 24 14  1  0  0  0  0
 15 14  1  0  0  0  0
 20 15  2  0  0  0  0
 16 15  1  0  0  0  0
 17 16  2  0  0  0  0
 18 17  1  0  0  0  0
 19 18  2  0  0  0  0
 20 19  1  0  0  0  0
 22 20  1  0  0  0  0
 22 21  2  0  0  0  0
 23 22  1  0  0  0  0
 24 23  2  0  0  0  0
M  END
>  <cdx:fragmentId>
5

$$$$
