101512.cdx
  Mrv1902 05222410212D          

 20 22  0  0  0  0            999 V2000
    9.7145   -4.7477    0.0000 C   0  0  0  0  0  0  0  0  0  0  0  0
   10.4289   -4.3352    0.0000 C   0  0  0  0  0  0  0  0  0  0  0  0
   11.1434   -4.7477    0.0000 C   0  0  0  0  0  0  0  0  0  0  0  0
   11.1434   -5.5727    0.0000 C   0  0  0  0  0  0  0  0  0  0  0  0
   10.4289   -5.9852    0.0000 C   0  0  0  0  0  0  0  0  0  0  0  0
    9.7145   -5.5727    0.0000 C   0  0  0  0  0  0  0  0  0  0  0  0
    9.0000   -5.9852    0.0000 C   0  0  0  0  0  0  0  0  0  0  0  0
    8.2855   -5.5727    0.0000 C   0  0  0  0  0  0  0  0  0  0  0  0
    6.8566   -8.0477    0.0000 O   0  0  0  0  0  0  0  0  0  0  0  0
    6.8566   -5.5727    0.0000 O   0  0  0  0  0  0  0  0  0  0  0  0
    6.1421   -5.9852    0.0000 C   0  0  0  0  0  0  0  0  0  0  0  0
    5.4276   -5.5727    0.0000 C   0  0  0  0  0  0  0  0  0  0  0  0
    4.7132   -5.9852    0.0000 C   0  0  0  0  0  0  0  0  0  0  0  0
    4.7132   -6.8102    0.0000 C   0  0  0  0  0  0  0  0  0  0  0  0
    5.4276   -7.2227    0.0000 C   0  0  0  0  0  0  0  0  0  0  0  0
    6.1421   -6.8102    0.0000 C   0  0  0  0  0  0  0  0  0  0  0  0
    6.8566   -7.2227    0.0000 C   0  0  0  0  0  0  0  0  0  0  0  0
    7.5710   -6.8102    0.0000 C   0  0  0  0  0  0  0  0  0  0  0  0
    7.5710   -5.9852    0.0000 C   0  0  0  0  0  0  0  0  0  0  0  0
    3.9987   -7.2227    0.0000 O   0  0  0  0  0  0  0  0  0  0  0  0
 19  8  1  0  0  0  0
  7  6  1  0  0  0  0
  6  1  2  0  0  0  0
  2  1  1  0  0  0  0
  3  2  2  0  0  0  0
  4  3  1  0  0  0  0
  5  4  2  0  0  0  0
  6  5  1  0  0  0  0
  8  7  1  0  0  0  0
 17  9  2  0  0  0  0
 19 10  1  0  0  0  0
 11 10  1  0  0  0  0
 16 11  2  0  0  0  0
 12 11  1  0  0  0  0
 13 12  2  0  0  0  0
 14 13  1  0  0  0  0
 15 14  2  0  0  0  0
 16 15  1  0  0  0  0
 17 16  1  0  0  0  0
 18 17  1  0  0  0  0
 19 18  2  0  0  0  0
 14 20  1  0  0  0  0
M  END
>  <cdx:fragmentId>
561

$$$$
