10158.cdx
  Mrv1902 05222410262D          

 28 30  0  0  0  0            999 V2000
    5.2133   -9.1400    0.0000 C   0  0  0  0  0  0  0  0  0  0  0  0
    4.4988   -8.7275    0.0000 C   0  0  0  0  0  0  0  0  0  0  0  0
    3.7843   -9.1400    0.0000 C   0  0  0  0  0  0  0  0  0  0  0  0
    3.7843   -9.9650    0.0000 C   0  0  0  0  0  0  0  0  0  0  0  0
    5.2133   -9.9650    0.0000 O   0  0  0  0  0  0  0  0  0  0  0  0
    5.9277   -8.7275    0.0000 O   0  0  0  0  0  0  0  0  0  0  0  0
    3.0699   -8.7275    0.0000 C   0  0  0  0  0  0  0  0  0  0  0  0
    6.6422   -9.9650    0.0000 C   0  0  0  0  0  0  0  0  0  0  0  0
    6.6422   -9.1400    0.0000 C   0  0  1  0  0  0  0  0  0  0  0  0
    7.3567   -8.7275    0.0000 C   0  0  1  0  0  0  0  0  0  0  0  0
    8.0712   -9.1400    0.0000 C   0  0  0  0  0  0  0  0  0  0  0  0
    8.7856   -8.7275    0.0000 C   0  0  0  0  0  0  0  0  0  0  0  0
    9.5001   -9.1400    0.0000 C   0  0  0  0  0  0  0  0  0  0  0  0
    9.5001   -9.9650    0.0000 C   0  0  0  0  0  0  0  0  0  0  0  0
    8.7856  -10.3775    0.0000 C   0  0  0  0  0  0  0  0  0  0  0  0
    8.0712   -9.9650    0.0000 C   0  0  0  0  0  0  0  0  0  0  0  0
    7.3567  -10.3775    0.0000 O   0  0  0  0  0  0  0  0  0  0  0  0
   10.2146   -8.7275    0.0000 C   0  0  0  0  0  0  0  0  0  0  0  0
   10.2146   -7.9025    0.0000 C   0  0  0  0  0  0  0  0  0  0  0  0
    9.5001   -7.4900    0.0000 C   0  0  0  0  0  0  0  0  0  0  0  0
    8.7856   -7.9025    0.0000 O   0  0  0  0  0  0  0  0  0  0  0  0
    9.5001   -6.6650    0.0000 O   0  0  0  0  0  0  0  0  0  0  0  0
    6.2297  -10.6795    0.0000 C   0  0  0  0  0  0  0  0  0  0  0  0
    5.8172   -9.9650    0.0000 C   0  0  0  0  0  0  0  0  0  0  0  0
    7.3567   -7.9025    0.0000 O   0  0  0  0  0  0  0  0  0  0  0  0
    6.6422   -7.4900    0.0000 C   0  0  0  0  0  0  0  0  0  0  0  0
    6.6422   -6.6650    0.0000 O   0  0  0  0  0  0  0  0  0  0  0  0
    5.9277   -7.9025    0.0000 C   0  0  0  0  0  0  0  0  0  0  0  0
  1  2  1  0  0  0  0
  2  3  2  0  0  0  0
  3  4  1  0  0  0  0
  1  5  2  0  0  0  0
  1  6  1  0  0  0  0
  3  7  1  0  0  0  0
  8  9  1  0  0  0  0
  9 10  1  0  0  0  0
 10 11  1  0  0  0  0
 11 12  1  0  0  0  0
 12 13  2  0  0  0  0
 13 14  1  0  0  0  0
 14 15  2  0  0  0  0
 15 16  1  0  0  0  0
 11 16  2  0  0  0  0
 16 17  1  0  0  0  0
  8 17  1  0  0  0  0
 18 19  2  0  0  0  0
 19 20  1  0  0  0  0
 20 21  1  0  0  0  0
 21 12  1  0  0  0  0
 18 13  1  0  0  0  0
 20 22  2  0  0  0  0
  8 23  1  0  0  0  0
  8 24  1  0  0  0  0
 26 27  2  0  0  0  0
 26 28  1  0  0  0  0
 25 26  1  0  0  0  0
 10 25  1  6  0  0  0
  9  6  1  6  0  0  0
M  END
>  <cdx:fragmentId>
950

$$$$
