1016.cdx
  Mrv1902 05222410232D          

 28 31  0  0  0  0            999 V2000
    6.5348   -7.9082    0.0000 C   0  0  0  0  0  0  0  0  0  0  0  0
    5.8710   -7.4184    0.0000 C   0  0  0  0  0  0  0  0  0  0  0  0
    5.2000   -7.8983    0.0000 N   0  0  0  0  0  0  0  0  0  0  0  0
    6.2635  -10.1198    0.0000 C   0  0  0  0  0  0  0  0  0  0  0  0
    6.6813   -9.4084    0.0000 C   0  0  0  0  0  0  0  0  0  0  0  0
    7.2523   -7.5010    0.0000 C   0  0  2  0  0  0  0  0  0  0  0  0
    7.2585   -6.6761    0.0000 C   0  0  0  0  0  0  0  0  0  0  0  0
    7.9760   -6.2689    0.0000 C   0  0  0  0  0  0  0  0  0  0  0  0
    7.9821   -5.4439    0.0000 C   0  0  0  0  0  0  0  0  0  0  0  0
    7.2707   -5.0261    0.0000 C   0  0  0  0  0  0  0  0  0  0  0  0
    6.5532   -5.4333    0.0000 C   0  0  0  0  0  0  0  0  0  0  0  0
    6.5471   -6.2583    0.0000 C   0  0  0  0  0  0  0  0  0  0  0  0
    8.7587   -6.5296    0.0000 N   0  0  0  0  0  0  0  0  0  0  0  0
    9.2486   -5.8658    0.0000 C   0  0  0  0  0  0  0  0  0  0  0  0
    8.7686   -5.1948    0.0000 C   0  0  0  0  0  0  0  0  0  0  0  0
    7.2768   -4.2011    0.0000 O   0  0  0  0  0  0  0  0  0  0  0  0
    9.1864   -4.4834    0.0000 C   0  0  0  0  0  0  0  0  0  0  0  0
   10.0114   -4.4895    0.0000 C   0  0  0  0  0  0  0  0  0  0  0  0
   10.8363   -4.4956    0.0000 N   0  0  0  0  0  0  0  0  0  0  0  0
    7.9637   -7.9188    0.0000 C   0  0  0  0  0  0  0  0  0  0  0  0
    8.6751   -8.3366    0.0000 N   0  0  0  0  0  0  0  0  0  0  0  0
    6.2741   -8.6909    0.0000 C   0  0  0  0  0  0  0  0  0  0  0  0
    5.4491   -8.6848    0.0000 C   0  0  0  0  0  0  0  0  0  0  0  0
    6.5655   -3.7833    0.0000 C   0  0  0  0  0  0  0  0  0  0  0  0
    5.0313   -9.3962    0.0000 C   0  0  0  0  0  0  0  0  0  0  0  0
    5.4385  -10.1137    0.0000 C   0  0  0  0  0  0  0  0  0  0  0  0
    7.5062   -9.4146    0.0000 O   0  0  0  0  0  0  0  0  0  0  0  0
    7.9134  -10.1321    0.0000 C   0  0  0  0  0  0  0  0  0  0  0  0
  1 22  1  0  0  0  0
  2  1  2  0  0  0  0
  3  2  1  0  0  0  0
 23  3  1  0  0  0  0
  4 26  1  0  0  0  0
  5  4  2  0  0  0  0
 22  5  1  0  0  0  0
 23 22  2  0  0  0  0
 25 23  1  0  0  0  0
 26 25  2  0  0  0  0
  1  6  1  0  0  0  0
  6  7  1  0  0  0  0
  7  8  2  0  0  0  0
  8  9  1  0  0  0  0
  9 10  2  0  0  0  0
 10 11  1  0  0  0  0
 11 12  2  0  0  0  0
 12  7  1  0  0  0  0
  8 13  1  0  0  0  0
 13 14  1  0  0  0  0
 14 15  2  0  0  0  0
 15  9  1  0  0  0  0
 10 16  1  0  0  0  0
 15 17  1  0  0  0  0
 17 18  1  0  0  0  0
 18 19  3  0  0  0  0
  6 20  1  6  0  0  0
 20 21  3  0  0  0  0
 16 24  1  0  0  0  0
  5 27  1  0  0  0  0
 27 28  1  0  0  0  0
M  END
>  <cdx:fragmentId>
5

$$$$
