10163.cdx
  Mrv1902 05222410282D          

 20 22  0  0  0  0            999 V2000
    8.3674   -5.4871    0.0000 C   0  0  0  0  0  0  0  0  0  0  0  0
    9.0819   -5.8996    0.0000 C   0  0  0  0  0  0  0  0  0  0  0  0
    9.0819   -6.7246    0.0000 C   0  0  0  0  0  0  0  0  0  0  0  0
    8.3674   -7.1371    0.0000 C   0  0  0  0  0  0  0  0  0  0  0  0
    7.6530   -6.7246    0.0000 C   0  0  0  0  0  0  0  0  0  0  0  0
    6.9385   -7.1371    0.0000 C   0  0  0  0  0  0  0  0  0  0  0  0
    6.2240   -6.7246    0.0000 C   0  0  0  0  0  0  0  0  0  0  0  0
    5.5095   -7.1371    0.0000 C   0  0  0  0  0  0  0  0  0  0  0  0
    4.7951   -6.7246    0.0000 C   0  0  0  0  0  0  0  0  0  0  0  0
    4.7951   -5.8996    0.0000 C   0  0  0  0  0  0  0  0  0  0  0  0
    5.5095   -5.4871    0.0000 C   0  0  0  0  0  0  0  0  0  0  0  0
    6.2240   -5.8996    0.0000 C   0  0  0  0  0  0  0  0  0  0  0  0
    6.9385   -5.4871    0.0000 C   0  0  0  0  0  0  0  0  0  0  0  0
    7.6530   -5.8996    0.0000 C   0  0  0  0  0  0  0  0  0  0  0  0
    6.9385   -4.6621    0.0000 O   0  0  0  0  0  0  0  0  0  0  0  0
    6.9385   -7.9621    0.0000 O   0  0  0  0  0  0  0  0  0  0  0  0
    9.7964   -5.4871    0.0000 C   0  0  0  0  0  0  0  0  0  0  0  0
   10.5108   -5.8996    0.0000 O   0  0  0  0  0  0  0  0  0  0  0  0
    9.7964   -7.1371    0.0000 O   0  0  0  0  0  0  0  0  0  0  0  0
    8.3674   -4.6621    0.0000 O   0  0  0  0  0  0  0  0  0  0  0  0
  1  2  1  0  0  0  0
  2  3  2  0  0  0  0
  3  4  1  0  0  0  0
  4  5  2  0  0  0  0
  5  6  1  0  0  0  0
  6  7  1  0  0  0  0
  7  8  1  0  0  0  0
  8  9  2  0  0  0  0
  9 10  1  0  0  0  0
 10 11  2  0  0  0  0
 11 12  1  0  0  0  0
  7 12  2  0  0  0  0
 12 13  1  0  0  0  0
 13 14  1  0  0  0  0
  5 14  1  0  0  0  0
  1 14  2  0  0  0  0
 13 15  2  0  0  0  0
  6 16  2  0  0  0  0
 17 18  1  0  0  0  0
  2 17  1  0  0  0  0
  3 19  1  0  0  0  0
  1 20  1  0  0  0  0
M  END
>  <cdx:fragmentId>
5

$$$$
