10161.cdx
  Mrv1902 05222410272D          

 22 21  0  0  0  0            999 V2000
   16.2589  -10.0208    0.0000 C   0  0  0  0  0  0  0  0  0  0  0  0
   15.5444  -10.4333    0.0000 C   0  0  0  0  0  0  0  0  0  0  0  0
   14.8299  -10.0208    0.0000 C   0  0  0  0  0  0  0  0  0  0  0  0
   14.1155  -10.4333    0.0000 C   0  0  0  0  0  0  0  0  0  0  0  0
   13.4010  -10.0208    0.0000 C   0  0  0  0  0  0  0  0  0  0  0  0
   12.6865  -10.4333    0.0000 C   0  0  0  0  0  0  0  0  0  0  0  0
   11.9721  -10.0208    0.0000 C   0  0  0  0  0  0  0  0  0  0  0  0
   11.2576  -10.4333    0.0000 C   0  0  0  0  0  0  0  0  0  0  0  0
   10.5431  -10.0208    0.0000 C   0  0  0  0  0  0  0  0  0  0  0  0
    9.8286  -10.4333    0.0000 C   0  0  0  0  0  0  0  0  0  0  0  0
    9.1142  -10.0208    0.0000 C   0  0  0  0  0  0  0  0  0  0  0  0
    8.3997  -10.4333    0.0000 C   0  0  0  0  0  0  0  0  0  0  0  0
    7.6852  -10.0208    0.0000 C   0  0  0  0  0  0  0  0  0  0  0  0
    6.9708  -10.4333    0.0000 C   0  0  0  0  0  0  0  0  0  0  0  0
    6.2563  -10.0208    0.0000 C   0  0  0  0  0  0  0  0  0  0  0  0
    5.5418  -10.4333    0.0000 C   0  0  0  0  0  0  0  0  0  0  0  0
    4.8273  -10.0208    0.0000 C   0  0  0  0  0  0  0  0  0  0  0  0
    4.1129  -10.4333    0.0000 C   0  0  0  0  0  0  0  0  0  0  0  0
    3.3984  -10.0208    0.0000 C   0  0  0  0  0  0  0  0  0  0  0  0
    2.6839  -10.4333    0.0000 C   0  0  0  0  0  0  0  0  0  0  0  0
   16.2589   -9.1958    0.0000 O   0  0  0  0  0  0  0  0  0  0  0  0
   16.9733  -10.4333    0.0000 O   0  0  0  0  0  0  0  0  0  0  0  0
  1  2  1  0  0  0  0
  2  3  2  3  0  0  0
  3  4  1  0  0  0  0
  4  5  2  3  0  0  0
  5  6  1  0  0  0  0
  6  7  1  0  0  0  0
  7  8  1  0  0  0  0
  8  9  1  0  0  0  0
  9 10  1  0  0  0  0
 10 11  1  0  0  0  0
 11 12  1  0  0  0  0
 12 13  1  0  0  0  0
 13 14  1  0  0  0  0
 14 15  1  0  0  0  0
 15 16  1  0  0  0  0
 16 17  1  0  0  0  0
 17 18  1  0  0  0  0
 18 19  1  0  0  0  0
 19 20  1  0  0  0  0
  1 21  2  0  0  0  0
  1 22  1  0  0  0  0
M  END
>  <cdx:groupId>
292

>  <cdx:fragmentId>
230

$$$$
