101681.cdx
  Mrv1902 05222410252D          

 12 13  0  0  0  0            999 V2000
    3.9236   -4.7195    0.0000 C   0  0  2  0  0  0  0  0  0  0  0  0
    3.1193   -4.5360    0.0000 C   0  0  0  0  0  0  0  0  0  0  0  0
    2.7613   -3.7927    0.0000 N   0  0  0  0  0  0  0  0  0  0  0  0
    3.1193   -3.0494    0.0000 C   0  0  0  0  0  0  0  0  0  0  0  0
    3.9236   -2.8658    0.0000 C   0  0  1  0  0  0  0  0  0  0  0  0
    4.5686   -3.3802    0.0000 C   0  0  0  0  0  0  0  0  0  0  0  0
    4.5686   -4.2052    0.0000 C   0  0  0  0  0  0  0  0  0  0  0  0
    3.3890   -3.7917    0.0000 C   0  0  0  0  0  0  0  0  0  0  0  0
    2.6745   -4.2042    0.0000 C   0  0  0  0  0  0  0  0  0  0  0  0
    2.6745   -3.3792    0.0000 C   0  0  0  0  0  0  0  0  0  0  0  0
    4.1072   -5.5239    0.0000 C   0  0  0  0  0  0  0  0  0  0  0  0
    4.1072   -2.0615    0.0000 H   0  0  0  0  0  0  0  0  0  0  0  0
  1  2  1  0  0  0  0
  2  3  1  0  0  0  0
  3  4  1  0  0  0  0
  4  5  1  0  0  0  0
  5  6  1  0  0  0  0
  6  7  1  0  0  0  0
  1  7  1  0  0  0  0
  1  8  1  6  0  0  0
  5  8  1  6  0  0  0
  8  9  1  0  0  0  0
  8 10  1  0  0  0  0
  1 11  1  0  0  0  0
  5 12  1  0  0  0  0
M  END
>  <cdx:groupId>
39

>  <cdx:fragmentId>
5

$$$$
