10168.cdx
  Mrv1902 05222410192D          

 21 23  0  0  0  0            999 V2000
    8.3468   -6.7177    0.0000 C   0  0  0  0  0  0  0  0  0  0  0  0
    9.0613   -6.3052    0.0000 C   0  0  0  0  0  0  0  0  0  0  0  0
    9.0613   -5.4802    0.0000 C   0  0  0  0  0  0  0  0  0  0  0  0
    8.3468   -5.0677    0.0000 C   0  0  0  0  0  0  0  0  0  0  0  0
    7.6323   -5.4802    0.0000 C   0  0  0  0  0  0  0  0  0  0  0  0
    6.9179   -5.0677    0.0000 C   0  0  0  0  0  0  0  0  0  0  0  0
    6.2034   -5.4802    0.0000 C   0  0  0  0  0  0  0  0  0  0  0  0
    5.4889   -5.0677    0.0000 C   0  0  0  0  0  0  0  0  0  0  0  0
    4.7744   -5.4802    0.0000 C   0  0  0  0  0  0  0  0  0  0  0  0
    4.7744   -6.3052    0.0000 C   0  0  0  0  0  0  0  0  0  0  0  0
    5.4889   -6.7177    0.0000 C   0  0  0  0  0  0  0  0  0  0  0  0
    6.2034   -6.3052    0.0000 C   0  0  0  0  0  0  0  0  0  0  0  0
    6.9179   -6.7177    0.0000 C   0  0  0  0  0  0  0  0  0  0  0  0
    7.6323   -6.3052    0.0000 C   0  0  0  0  0  0  0  0  0  0  0  0
    9.7757   -6.7177    0.0000 C   0  0  0  0  0  0  0  0  0  0  0  0
    9.7757   -7.5427    0.0000 O   0  0  0  0  0  0  0  0  0  0  0  0
   10.4902   -6.3052    0.0000 O   0  0  0  0  0  0  0  0  0  0  0  0
    6.9179   -4.2427    0.0000 O   0  0  0  0  0  0  0  0  0  0  0  0
    6.9179   -7.5427    0.0000 O   0  0  0  0  0  0  0  0  0  0  0  0
    5.4889   -4.2427    0.0000 O   0  0  0  0  0  0  0  0  0  0  0  0
    8.3468   -4.2427    0.0000 O   0  0  0  0  0  0  0  0  0  0  0  0
  1  2  1  0  0  0  0
  2  3  2  0  0  0  0
  3  4  1  0  0  0  0
  4  5  2  0  0  0  0
  5  6  1  0  0  0  0
  6  7  1  0  0  0  0
  7  8  1  0  0  0  0
  8  9  2  0  0  0  0
  9 10  1  0  0  0  0
 10 11  2  0  0  0  0
 11 12  1  0  0  0  0
  7 12  2  0  0  0  0
 12 13  1  0  0  0  0
 13 14  1  0  0  0  0
  5 14  1  0  0  0  0
  1 14  2  0  0  0  0
 15 16  2  0  0  0  0
 15 17  1  0  0  0  0
  2 15  1  0  0  0  0
  6 18  2  0  0  0  0
 13 19  2  0  0  0  0
  8 20  1  0  0  0  0
  4 21  1  0  0  0  0
M  END
>  <cdx:fragmentId>
5

$$$$
