E-isoeugenol.cdx
  Mrv1902 05222410262D          

 12 12  0  0  0  0            999 V2000
    6.5620   -7.6313    0.0000 C   0  0  0  0  0  0  0  0  0  0  0  0
    6.5620   -8.4563    0.0000 C   0  0  0  0  0  0  0  0  0  0  0  0
    7.2765   -8.8688    0.0000 C   0  0  0  0  0  0  0  0  0  0  0  0
    7.9910   -8.4563    0.0000 C   0  0  0  0  0  0  0  0  0  0  0  0
    7.9910   -7.6313    0.0000 C   0  0  0  0  0  0  0  0  0  0  0  0
    7.2765   -7.2188    0.0000 C   0  0  0  0  0  0  0  0  0  0  0  0
    7.2765   -6.3937    0.0000 C   0  0  0  0  0  0  0  0  0  0  0  0
    7.9910   -5.9813    0.0000 C   0  0  0  0  0  0  0  0  0  0  0  0
    7.9910   -5.1563    0.0000 C   0  0  0  0  0  0  0  0  0  0  0  0
    5.8476   -8.8688    0.0000 O   0  0  0  0  0  0  0  0  0  0  0  0
    5.1331   -8.4563    0.0000 C   0  0  0  0  0  0  0  0  0  0  0  0
    7.2765   -9.6937    0.0000 O   0  0  0  0  0  0  0  0  0  0  0  0
  1  2  2  0  0  0  0
  2  3  1  0  0  0  0
  3  4  2  0  0  0  0
  4  5  1  0  0  0  0
  5  6  2  0  0  0  0
  6  1  1  0  0  0  0
  6  7  1  0  0  0  0
  7  8  2  0  0  0  0
  8  9  1  0  0  0  0
  2 10  1  0  0  0  0
 10 11  1  0  0  0  0
  3 12  1  0  0  0  0
M  END
>  <cdx:fragmentId>
5

$$$$
