101696.cdx
  Mrv1902 05222410252D          

 14 14  0  0  0  0            999 V2000
    9.0960   -5.8735    0.0000 C   0  0  0  0  0  0  0  0  0  0  0  0
    9.0963   -6.6985    0.0000 C   0  0  0  0  0  0  0  0  0  0  0  0
    8.3820   -7.1113    0.0000 C   0  0  0  0  0  0  0  0  0  0  0  0
    7.6673   -6.6991    0.0000 C   0  0  0  0  0  0  0  0  0  0  0  0
    9.8109   -7.1107    0.0000 O   0  0  0  0  0  0  0  0  0  0  0  0
    6.9530   -7.1118    0.0000 C   0  0  0  0  0  0  0  0  0  0  0  0
    6.9533   -7.9368    0.0000 C   0  0  0  0  0  0  0  0  0  0  0  0
    6.2390   -8.3496    0.0000 C   0  0  0  0  0  0  0  0  0  0  0  0
    5.5244   -7.9374    0.0000 C   0  0  0  0  0  0  0  0  0  0  0  0
    5.5241   -7.1124    0.0000 C   0  0  0  0  0  0  0  0  0  0  0  0
    6.2384   -6.6996    0.0000 C   0  0  0  0  0  0  0  0  0  0  0  0
    5.8256   -5.9853    0.0000 C   0  0  0  0  0  0  0  0  0  0  0  0
    6.6506   -5.9850    0.0000 C   0  0  0  0  0  0  0  0  0  0  0  0
    7.6680   -8.3491    0.0000 C   0  0  0  0  0  0  0  0  0  0  0  0
  1  2  1  0  0  0  0
  2  3  1  0  0  0  0
  3  4  2  0  0  0  0
  2  5  1  0  0  0  0
  6  7  1  0  0  0  0
  7  8  2  0  0  0  0
  8  9  1  0  0  0  0
  9 10  1  0  0  0  0
 10 11  1  0  0  0  0
  6 11  1  0  0  0  0
 11 12  1  0  0  0  0
 11 13  1  0  0  0  0
  7 14  1  0  0  0  0
  4  6  1  0  0  0  0
M  END
>  <cdx:fragmentId>
32161

$$$$
