101746.cdx
  Mrv1902 05222410272D          

 29 34  0  0  0  0            999 V2000
   11.3715   -4.1756    0.0000 O   0  0  0  0  0  0  0  0  0  0  0  0
   11.8564   -4.8430    0.0000 C   0  0  0  0  0  0  0  0  0  0  0  0
   11.3715   -5.5105    0.0000 O   0  0  0  0  0  0  0  0  0  0  0  0
   10.5868   -5.2555    0.0000 C   0  0  0  0  0  0  0  0  0  0  0  0
   10.5868   -4.4305    0.0000 C   0  0  0  0  0  0  0  0  0  0  0  0
    9.8724   -5.6680    0.0000 C   0  0  0  0  0  0  0  0  0  0  0  0
    9.1579   -5.2555    0.0000 C   0  0  0  0  0  0  0  0  0  0  0  0
    9.1579   -4.4305    0.0000 C   0  0  0  0  0  0  0  0  0  0  0  0
    9.8724   -4.0180    0.0000 C   0  0  0  0  0  0  0  0  0  0  0  0
    8.4434   -5.6680    0.0000 O   0  0  0  0  0  0  0  0  0  0  0  0
    5.7558   -6.1340    0.0000 O   0  0  0  0  0  0  0  0  0  0  0  0
    6.5628   -6.3056    0.0000 C   0  0  0  0  0  0  0  0  0  0  0  0
    6.9753   -5.5911    0.0000 C   0  0  1  0  0  0  0  0  0  0  0  0
    6.4232   -4.9780    0.0000 C   0  0  1  0  0  0  0  0  0  0  0  0
    5.6696   -5.3135    0.0000 C   0  0  1  0  0  0  0  0  0  0  0  0
    7.6427   -4.4350    0.0000 O   0  0  0  0  0  0  0  0  0  0  0  0
    7.7290   -5.2555    0.0000 C   0  0  2  0  0  0  0  0  0  0  0  0
    6.8357   -4.2635    0.0000 C   0  0  0  0  0  0  0  0  0  0  0  0
    2.7415   -3.8211    0.0000 O   0  0  0  0  0  0  0  0  0  0  0  0
    2.2566   -4.4885    0.0000 C   0  0  0  0  0  0  0  0  0  0  0  0
    2.7415   -5.1560    0.0000 O   0  0  0  0  0  0  0  0  0  0  0  0
    3.5262   -4.9010    0.0000 C   0  0  0  0  0  0  0  0  0  0  0  0
    3.5262   -4.0760    0.0000 C   0  0  0  0  0  0  0  0  0  0  0  0
    4.2406   -5.3135    0.0000 C   0  0  0  0  0  0  0  0  0  0  0  0
    4.9551   -4.9010    0.0000 C   0  0  0  0  0  0  0  0  0  0  0  0
    4.9551   -4.0760    0.0000 C   0  0  0  0  0  0  0  0  0  0  0  0
    4.2406   -3.6635    0.0000 C   0  0  0  0  0  0  0  0  0  0  0  0
    5.8712   -4.3649    0.0000 H   0  0  0  0  0  0  0  0  0  0  0  0
    7.5273   -6.2042    0.0000 H   0  0  0  0  0  0  0  0  0  0  0  0
  1  2  1  0  0  0  0
  2  3  1  0  0  0  0
  3  4  1  0  0  0  0
  4  5  1  0  0  0  0
  1  5  1  0  0  0  0
  6  7  1  0  0  0  0
  7  8  2  0  0  0  0
  8  9  1  0  0  0  0
  9  5  2  0  0  0  0
  6  4  2  0  0  0  0
 11 12  1  0  0  0  0
 12 13  1  0  0  0  0
 13 14  1  0  0  0  0
 14 15  1  0  0  0  0
 11 15  1  0  0  0  0
 16 17  1  0  0  0  0
 16 18  1  0  0  0  0
 17 13  1  0  0  0  0
 18 14  1  0  0  0  0
 19 20  1  0  0  0  0
 20 21  1  0  0  0  0
 21 22  1  0  0  0  0
 22 23  1  0  0  0  0
 19 23  1  0  0  0  0
 24 25  1  0  0  0  0
 25 26  2  0  0  0  0
 26 27  1  0  0  0  0
 27 23  2  0  0  0  0
 24 22  2  0  0  0  0
 15 25  1  6  0  0  0
 17 10  1  6  0  0  0
  7 10  1  0  0  0  0
 14 28  1  6  0  0  0
 13 29  1  6  0  0  0
M  END
>  <cdx:groupId>
94

>  <cdx:fragmentId>
41

$$$$
