10177.cdx
  Mrv1902 05222410282D          

 20 23  0  0  0  0            999 V2000
    8.2264   -7.4541    0.0000 O   0  0  0  0  0  0  0  0  0  0  0  0
    6.1334   -7.8745    0.0000 C   0  0  0  0  0  0  0  0  0  0  0  0
    5.4205   -8.2897    0.0000 C   0  0  0  0  0  0  0  0  0  0  0  0
    4.7045   -7.8799    0.0000 C   0  0  0  0  0  0  0  0  0  0  0  0
    4.7014   -7.0549    0.0000 C   0  0  0  0  0  0  0  0  0  0  0  0
    5.4143   -6.6397    0.0000 C   0  0  0  0  0  0  0  0  0  0  0  0
    6.1303   -7.0495    0.0000 C   0  0  0  0  0  0  0  0  0  0  0  0
    6.9139   -6.7916    0.0000 C   0  0  0  0  0  0  0  0  0  0  0  0
    7.4014   -7.4572    0.0000 C   0  0  0  0  0  0  0  0  0  0  0  0
    6.9190   -8.1265    0.0000 N   0  0  0  0  0  0  0  0  0  0  0  0
    5.8535   -5.3435    0.0000 O   0  0  0  0  0  0  0  0  0  0  0  0
    7.9465   -4.9231    0.0000 C   0  0  0  0  0  0  0  0  0  0  0  0
    8.5575   -4.3688    0.0000 C   0  0  0  0  0  0  0  0  0  0  0  0
    8.3829   -3.5625    0.0000 C   0  0  0  0  0  0  0  0  0  0  0  0
    7.5973   -3.3105    0.0000 C   0  0  0  0  0  0  0  0  0  0  0  0
    6.9863   -3.8649    0.0000 C   0  0  0  0  0  0  0  0  0  0  0  0
    7.1609   -4.6712    0.0000 C   0  0  0  0  0  0  0  0  0  0  0  0
    6.6785   -5.3404    0.0000 C   0  0  0  0  0  0  0  0  0  0  0  0
    7.1659   -6.0060    0.0000 C   0  0  0  0  0  0  0  0  0  0  0  0
    7.9496   -5.7481    0.0000 N   0  0  0  0  0  0  0  0  0  0  0  0
 19  8  1  0  0  0  0
  9  1  1  0  0  0  0
  7  2  2  0  0  0  0
 10  2  1  0  0  0  0
  3  2  1  0  0  0  0
  4  3  2  0  0  0  0
  5  4  1  0  0  0  0
  6  5  2  0  0  0  0
  7  6  1  0  0  0  0
  8  7  1  0  0  0  0
  9  8  2  0  0  0  0
 10  9  1  0  0  0  0
 18 11  2  0  0  0  0
 17 12  2  0  0  0  0
 20 12  1  0  0  0  0
 13 12  1  0  0  0  0
 14 13  2  0  0  0  0
 15 14  1  0  0  0  0
 16 15  2  0  0  0  0
 17 16  1  0  0  0  0
 18 17  1  0  0  0  0
 19 18  1  0  0  0  0
 20 19  2  0  0  0  0
M  END
>  <cdx:fragmentId>
25

$$$$
