1017.cdx
  Mrv1902 05222410232D          

 12 12  0  0  0  0            999 V2000
    4.5449   -3.5964    0.0000 C   0  0  0  0  0  0  0  0  0  0  0  0
    3.8305   -3.1839    0.0000 C   0  0  0  0  0  0  0  0  0  0  0  0
    3.8305   -2.3589    0.0000 C   0  0  0  0  0  0  0  0  0  0  0  0
    4.5449   -1.9464    0.0000 C   0  0  0  0  0  0  0  0  0  0  0  0
    3.1160   -1.9464    0.0000 C   0  0  0  0  0  0  0  0  0  0  0  0
    2.4015   -2.3589    0.0000 C   0  0  0  0  0  0  0  0  0  0  0  0
    2.4015   -3.1839    0.0000 C   0  0  0  0  0  0  0  0  0  0  0  0
    3.1160   -3.5964    0.0000 C   0  0  0  0  0  0  0  0  0  0  0  0
    4.5449   -4.4214    0.0000 O   0  0  0  0  0  0  0  0  0  0  0  0
    5.2594   -3.1839    0.0000 O   0  0  0  0  0  0  0  0  0  0  0  0
    4.5449   -1.1214    0.0000 O   0  0  0  0  0  0  0  0  0  0  0  0
    5.2594   -2.3589    0.0000 O   0  0  0  0  0  0  0  0  0  0  0  0
  1  2  1  0  0  0  0
  2  3  1  0  0  0  0
  3  4  1  0  0  0  0
  3  5  2  0  0  0  0
  5  6  1  0  0  0  0
  6  7  2  0  0  0  0
  7  8  1  0  0  0  0
  2  8  2  0  0  0  0
  1  9  2  0  0  0  0
  1 10  1  0  0  0  0
  4 11  2  0  0  0  0
  4 12  1  0  0  0  0
M  END
>  <cdx:groupId>
38

>  <cdx:fragmentId>
5

$$$$
