101731.cdx
  Mrv1902 05222410242D          

 15 17  0  0  0  0            999 V2000
    8.2742   -6.7527    0.0000 C   0  0  0  0  0  0  0  0  0  0  0  0
    4.8304   -6.0276    0.0000 C   0  0  0  0  0  0  0  0  0  0  0  0
    8.2951   -4.3952    0.0000 C   0  0  0  0  0  0  0  0  0  0  0  0
    8.6156   -5.1554    0.0000 C   0  0  0  0  0  0  0  0  0  0  0  0
    7.5456   -5.2001    0.0000 C   0  0  0  0  0  0  0  0  0  0  0  0
    8.0831   -5.3687    0.0000 C   0  0  0  0  0  0  0  0  0  0  0  0
    7.7066   -4.6346    0.0000 C   0  0  0  0  0  0  0  0  0  0  0  0
    6.8979   -4.4713    0.0000 C   0  0  0  0  0  0  0  0  0  0  0  0
    6.2660   -5.0017    0.0000 C   0  0  0  0  0  0  0  0  0  0  0  0
    6.2867   -5.8264    0.0000 C   0  0  0  0  0  0  0  0  0  0  0  0
    5.6098   -6.2980    0.0000 C   0  0  0  0  0  0  0  0  0  0  0  0
    5.8491   -7.0875    0.0000 C   0  0  0  0  0  0  0  0  0  0  0  0
    6.6740   -7.1039    0.0000 C   0  0  0  0  0  0  0  0  0  0  0  0
    6.9444   -6.3244    0.0000 C   0  0  0  0  0  0  0  0  0  0  0  0
    7.7438   -6.1208    0.0000 C   0  0  0  0  0  0  0  0  0  0  0  0
 15  1  1  0  0  0  0
 11  2  1  0  0  0  0
  5  3  1  0  0  0  0
  5  4  1  0  0  0  0
 14 10  2  0  0  0  0
  5  8  1  0  0  0  0
 15  5  1  0  0  0  0
 15  6  1  0  0  0  0
  7  6  1  0  0  0  0
  8  7  1  0  0  0  0
  9  8  1  0  0  0  0
 10  9  1  0  0  0  0
 11 10  1  0  0  0  0
 12 11  1  0  0  0  0
 13 12  1  0  0  0  0
 14 13  1  0  0  0  0
 15 14  1  0  0  0  0
M  END
>  <cdx:fragmentId>
5

$$$$
