1018.cdx
  Mrv1902 05222410222D          

  9  9  0  0  0  0            999 V2000
    7.2790   -6.1845    0.0000 C   0  0  0  0  0  0  0  0  0  0  0  0
    6.5645   -5.7720    0.0000 C   0  0  0  0  0  0  0  0  0  0  0  0
    5.8500   -6.1845    0.0000 C   0  0  0  0  0  0  0  0  0  0  0  0
    5.8500   -7.0095    0.0000 C   0  0  0  0  0  0  0  0  0  0  0  0
    6.5645   -7.4220    0.0000 C   0  0  0  0  0  0  0  0  0  0  0  0
    7.2790   -7.0095    0.0000 N   0  0  0  0  0  0  0  0  0  0  0  0
    7.9934   -5.7720    0.0000 C   0  0  0  0  0  0  0  0  0  0  0  0
    7.9934   -4.9470    0.0000 O   0  0  0  0  0  0  0  0  0  0  0  0
    8.7079   -6.1845    0.0000 O   0  0  0  0  0  0  0  0  0  0  0  0
  1  2  1  0  0  0  0
  2  3  2  0  0  0  0
  3  4  1  0  0  0  0
  4  5  2  0  0  0  0
  5  6  1  0  0  0  0
  1  6  2  0  0  0  0
  7  8  2  0  0  0  0
  7  9  1  0  0  0  0
  1  7  1  0  0  0  0
M  END
>  <cdx:groupId>
29

>  <cdx:fragmentId>
5

$$$$
