10189.cdx
  Mrv1902 05222410282D          

 15 16  0  0  0  0            999 V2000
    8.9252   -4.9371    0.0000 C   0  0  0  0  0  0  0  0  0  0  0  0
    8.9252   -4.1121    0.0000 C   0  0  0  0  0  0  0  0  0  0  0  0
    8.2107   -3.6996    0.0000 C   0  0  0  0  0  0  0  0  0  0  0  0
    7.4962   -4.1121    0.0000 C   0  0  0  0  0  0  0  0  0  0  0  0
    6.7818   -3.6996    0.0000 C   0  0  0  0  0  0  0  0  0  0  0  0
    6.0673   -4.1121    0.0000 C   0  0  0  0  0  0  0  0  0  0  0  0
    6.0673   -4.9371    0.0000 C   0  0  0  0  0  0  0  0  0  0  0  0
    6.7818   -5.3496    0.0000 C   0  0  0  0  0  0  0  0  0  0  0  0
    7.4962   -4.9371    0.0000 C   0  0  0  0  0  0  0  0  0  0  0  0
    8.2107   -5.3496    0.0000 O   0  0  0  0  0  0  0  0  0  0  0  0
    8.2107   -2.8746    0.0000 O   0  0  0  0  0  0  0  0  0  0  0  0
    9.6396   -5.3496    0.0000 C   0  0  0  0  0  0  0  0  0  0  0  0
    5.3528   -5.3496    0.0000 O   0  0  0  0  0  0  0  0  0  0  0  0
    4.6384   -4.9371    0.0000 C   0  0  0  0  0  0  0  0  0  0  0  0
    6.7818   -2.8746    0.0000 O   0  0  0  0  0  0  0  0  0  0  0  0
  1  2  2  0  0  0  0
  2  3  1  0  0  0  0
  3  4  1  0  0  0  0
  4  5  1  0  0  0  0
  5  6  2  0  0  0  0
  6  7  1  0  0  0  0
  7  8  2  0  0  0  0
  8  9  1  0  0  0  0
  4  9  2  0  0  0  0
  9 10  1  0  0  0  0
  1 10  1  0  0  0  0
  3 11  2  0  0  0  0
  1 12  1  0  0  0  0
 13 14  1  0  0  0  0
  7 13  1  0  0  0  0
  5 15  1  0  0  0  0
M  END
>  <cdx:fragmentId>
5

$$$$
