101975.cdx
  Mrv1902 05222410272D          

 10  9  0  0  0  0            999 V2000
    5.9866   -3.3878    0.0000 N   0  0  0  0  0  0  0  0  0  0  0  0
    5.2241   -7.0907    0.0000 C   0  0  0  0  0  0  0  0  0  0  0  0
    5.2348   -6.2658    0.0000 C   0  0  0  0  0  0  0  0  0  0  0  0
    5.9545   -5.8626    0.0000 C   0  0  0  0  0  0  0  0  0  0  0  0
    5.9652   -5.0376    0.0000 S   0  0  0  0  0  0  0  0  0  0  0  0
    7.4261   -2.5813    0.0000 O   0  0  0  0  0  0  0  0  0  0  0  0
    8.1245   -3.8280    0.0000 O   0  0  0  0  0  0  0  0  0  0  0  0
    6.6850   -4.6344    0.0000 C   0  0  0  0  0  0  0  0  0  0  0  0
    6.6957   -3.8095    0.0000 C   0  0  1  0  0  0  0  0  0  0  0  0
    7.4154   -3.4063    0.0000 C   0  0  0  0  0  0  0  0  0  0  0  0
  9  1  1  6  0  0  0
  8  5  1  0  0  0  0
  5  4  1  0  0  0  0
  3  2  1  0  0  0  0
  4  3  1  0  0  0  0
 10  6  1  0  0  0  0
 10  7  2  0  0  0  0
  9  8  1  0  0  0  0
 10  9  1  0  0  0  0
M  END
>  <cdx:groupId>
31

>  <cdx:fragmentId>
5

$$$$
