10192.cdx
  Mrv1902 05222410182D          

 15 15  0  0  0  0            999 V2000
    5.7164   -6.7444    0.0000 C   0  0  0  0  0  0  0  0  0  0  0  0
    5.7164   -7.5694    0.0000 C   0  0  0  0  0  0  0  0  0  0  0  0
    6.4309   -7.9819    0.0000 C   0  0  0  0  0  0  0  0  0  0  0  0
    7.1453   -7.5694    0.0000 C   0  0  0  0  0  0  0  0  0  0  0  0
    7.1453   -6.7444    0.0000 C   0  0  0  0  0  0  0  0  0  0  0  0
    6.4309   -6.3319    0.0000 C   0  0  0  0  0  0  0  0  0  0  0  0
    5.0019   -6.3319    0.0000 O   0  0  0  0  0  0  0  0  0  0  0  0
    4.2875   -6.7444    0.0000 C   0  0  0  0  0  0  0  0  0  0  0  0
    6.4309   -5.5069    0.0000 O   0  0  0  0  0  0  0  0  0  0  0  0
    7.1453   -5.0944    0.0000 C   0  0  0  0  0  0  0  0  0  0  0  0
    7.8598   -6.3319    0.0000 O   0  0  0  0  0  0  0  0  0  0  0  0
    8.5743   -6.7444    0.0000 C   0  0  0  0  0  0  0  0  0  0  0  0
    6.4309   -8.8069    0.0000 C   0  0  0  0  0  0  0  0  0  0  0  0
    5.7164   -9.2194    0.0000 C   0  0  0  0  0  0  0  0  0  0  0  0
    5.7164  -10.0444    0.0000 C   0  0  0  0  0  0  0  0  0  0  0  0
  1  2  2  0  0  0  0
  2  3  1  0  0  0  0
  3  4  2  0  0  0  0
  4  5  1  0  0  0  0
  5  6  2  0  0  0  0
  6  1  1  0  0  0  0
  1  7  1  0  0  0  0
  7  8  1  0  0  0  0
  6  9  1  0  0  0  0
  9 10  1  0  0  0  0
  5 11  1  0  0  0  0
 11 12  1  0  0  0  0
  3 13  1  0  0  0  0
 13 14  1  0  0  0  0
 14 15  2  0  0  0  0
M  END
>  <cdx:fragmentId>
5

$$$$
