102.cdx
  Mrv1902 05222410202D          

 52 56  0  0  0  0            999 V2000
   14.3858   -8.9719    0.0000 C   0  0  0  0  0  0  0  0  0  0  0  0
   14.3858   -9.7969    0.0000 C   0  0  1  0  0  0  0  0  0  0  0  0
   15.1002  -10.2094    0.0000 C   0  0  0  0  0  0  0  0  0  0  0  0
   15.8147   -9.7969    0.0000 C   0  0  0  0  0  0  0  0  0  0  0  0
   15.8147   -8.9719    0.0000 C   0  0  2  0  0  0  0  0  0  0  0  0
   15.1002   -8.5594    0.0000 C   0  0  0  0  0  0  0  0  0  0  0  0
   16.5292  -10.2094    0.0000 C   0  0  0  0  0  0  0  0  0  0  0  0
   17.2437   -9.7969    0.0000 C   0  0  0  0  0  0  0  0  0  0  0  0
   17.2437   -8.9719    0.0000 C   0  0  2  0  0  0  0  0  0  0  0  0
   16.5292   -8.5594    0.0000 C   0  0  2  0  0  0  0  0  0  0  0  0
   17.9581   -8.5594    0.0000 C   0  0  2  0  0  0  0  0  0  0  0  0
   17.9581   -7.7344    0.0000 C   0  0  2  0  0  0  0  0  0  0  0  0
   17.2437   -7.3219    0.0000 C   0  0  0  0  0  0  0  0  0  0  0  0
   16.5292   -7.7344    0.0000 C   0  0  0  0  0  0  0  0  0  0  0  0
   18.7428   -8.8143    0.0000 C   0  0  0  0  0  0  0  0  0  0  0  0
   19.2277   -8.1469    0.0000 C   0  0  0  0  0  0  0  0  0  0  0  0
   18.7428   -7.4794    0.0000 C   0  0  2  0  0  0  0  0  0  0  0  0
   18.9977   -6.6948    0.0000 C   0  0  0  0  0  0  0  0  0  0  0  0
   18.0444   -6.9139    0.0000 C   0  0  0  0  0  0  0  0  0  0  0  0
   18.0444   -9.3799    0.0000 O   0  0  0  0  0  0  0  0  0  0  0  0
   15.8147   -8.1469    0.0000 C   0  0  0  0  0  0  0  0  0  0  0  0
   13.6713  -10.2094    0.0000 O   0  0  0  0  0  0  0  0  0  0  0  0
   19.8047   -6.5233    0.0000 C   0  0  0  0  0  0  0  0  0  0  0  0
   20.0596   -5.7387    0.0000 C   0  0  0  0  0  0  0  0  0  0  0  0
   19.5076   -5.1256    0.0000 C   0  0  0  0  0  0  0  0  0  0  0  0
   18.7006   -5.2971    0.0000 O   0  0  0  0  0  0  0  0  0  0  0  0
   18.4457   -6.0817    0.0000 C   0  0  0  0  0  0  0  0  0  0  0  0
   19.7625   -4.3409    0.0000 O   0  0  0  0  0  0  0  0  0  0  0  0
   12.9568   -9.7969    0.0000 C   0  0  0  0  0  0  0  0  0  0  0  0
   12.2424  -10.2094    0.0000 C   0  0  0  0  0  0  0  0  0  0  0  0
   12.9568   -8.9719    0.0000 O   0  0  0  0  0  0  0  0  0  0  0  0
   11.5279   -9.7969    0.0000 C   0  0  0  0  0  0  0  0  0  0  0  0
   10.8134  -10.2094    0.0000 C   0  0  0  0  0  0  0  0  0  0  0  0
   10.0990   -9.7969    0.0000 C   0  0  0  0  0  0  0  0  0  0  0  0
    4.3882  -13.9270    0.0000 N   0  0  0  0  0  0  0  0  0  0  0  0
    5.8172  -13.9270    0.0000 N   0  0  0  0  0  0  0  0  0  0  0  0
    5.1027  -13.5145    0.0000 C   0  0  0  0  0  0  0  0  0  0  0  0
    5.1027  -12.6895    0.0000 N   0  0  0  0  0  0  0  0  0  0  0  0
    5.8172  -12.2770    0.0000 C   0  0  0  0  0  0  0  0  0  0  0  0
    5.8172  -11.4520    0.0000 C   0  0  0  0  0  0  0  0  0  0  0  0
    5.8172   -8.9770    0.0000 O   0  0  0  0  0  0  0  0  0  0  0  0
    5.1027  -10.2145    0.0000 O   0  0  0  0  0  0  0  0  0  0  0  0
    6.5316  -11.0395    0.0000 C   0  0  0  0  0  0  0  0  0  0  0  0
    5.8172   -9.8020    0.0000 C   0  0  0  0  0  0  0  0  0  0  0  0
    6.5316  -10.2145    0.0000 C   0  0  1  0  0  0  0  0  0  0  0  0
    7.2461   -9.8020    0.0000 N   0  0  0  0  0  0  0  0  0  0  0  0
    7.9606  -11.0395    0.0000 O   0  0  0  0  0  0  0  0  0  0  0  0
    7.9606  -10.2145    0.0000 C   0  0  0  0  0  0  0  0  0  0  0  0
    8.6751   -9.8020    0.0000 C   0  0  0  0  0  0  0  0  0  0  0  0
    9.3845  -10.2094    0.0000 C   0  0  0  0  0  0  0  0  0  0  0  0
   16.5292   -9.3844    0.0000 H   0  0  0  0  0  0  0  0  0  0  0  0
   17.2437   -8.1469    0.0000 H   0  0  0  0  0  0  0  0  0  0  0  0
  1  2  1  0  0  0  0
  2  3  1  0  0  0  0
  3  4  2  0  0  0  0
  4  5  1  0  0  0  0
  5  6  1  0  0  0  0
  6  1  1  0  0  0  0
  4  7  1  0  0  0  0
  7  8  1  0  0  0  0
  8  9  1  0  0  0  0
  9 10  1  0  0  0  0
 10  5  1  0  0  0  0
  9 11  1  0  0  0  0
 11 12  1  0  0  0  0
 12 13  1  0  0  0  0
 13 14  1  0  0  0  0
 14 10  1  0  0  0  0
 11 15  1  0  0  0  0
 15 16  1  0  0  0  0
 16 17  1  0  0  0  0
 17 12  1  0  0  0  0
 17 18  1  1  0  0  0
 12 19  1  1  0  0  0
 11 20  1  1  0  0  0
  5 21  1  1  0  0  0
  2 22  1  1  0  0  0
 18 23  1  0  0  0  0
 23 24  2  0  0  0  0
 24 25  1  0  0  0  0
 25 26  1  0  0  0  0
 26 27  1  0  0  0  0
 27 18  2  0  0  0  0
 25 28  2  0  0  0  0
 22 29  1  0  0  0  0
 29 30  1  0  0  0  0
 29 31  2  0  0  0  0
 30 32  1  0  0  0  0
 32 33  1  0  0  0  0
 33 34  1  0  0  0  0
 37 35  1  0  0  0  0
 37 36  1  0  0  0  0
 38 37  2  0  0  0  0
 39 38  1  0  0  0  0
 40 39  1  0  0  0  0
 43 40  1  0  0  0  0
 44 41  2  0  0  0  0
 44 42  1  0  0  0  0
 45 43  1  0  0  0  0
 45 44  1  0  0  0  0
 45 46  1  1  0  0  0
 48 46  1  0  0  0  0
 48 47  2  0  0  0  0
 49 48  1  0  0  0  0
 34 50  1  0  0  0  0
 49 50  1  0  0  0  0
 10 51  1  6  0  0  0
  9 52  1  1  0  0  0
M  END
>  <cdx:fragmentId>
5

$$$$
