1020.cdx
  Mrv1902 05222410212D          

 22 23  0  0  0  0            999 V2000
    4.6852  -12.3750    0.0000 C   0  0  0  0  0  0  0  0  0  0  0  0
    4.6852  -13.2000    0.0000 C   0  0  0  0  0  0  0  0  0  0  0  0
    5.3996  -13.6125    0.0000 C   0  0  0  0  0  0  0  0  0  0  0  0
    6.1141  -13.2000    0.0000 C   0  0  0  0  0  0  0  0  0  0  0  0
    6.1141  -12.3750    0.0000 C   0  0  0  0  0  0  0  0  0  0  0  0
    5.3996  -11.9625    0.0000 C   0  0  0  0  0  0  0  0  0  0  0  0
    5.3996  -14.4375    0.0000 O   0  0  0  0  0  0  0  0  0  0  0  0
    5.3996  -11.1375    0.0000 C   0  0  0  0  0  0  0  0  0  0  0  0
    6.1141  -10.7250    0.0000 C   0  0  0  0  0  0  0  0  0  0  0  0
    6.1141   -9.9000    0.0000 C   0  0  0  0  0  0  0  0  0  0  0  0
    6.8286   -9.4875    0.0000 C   0  0  0  0  0  0  0  0  0  0  0  0
    6.8286   -8.6625    0.0000 C   0  0  1  0  0  0  0  0  0  0  0  0
    7.5430   -8.2500    0.0000 C   0  0  0  0  0  0  0  0  0  0  0  0
    7.5430   -7.4250    0.0000 C   0  0  0  0  0  0  0  0  0  0  0  0
    8.2575   -7.0125    0.0000 C   0  0  0  0  0  0  0  0  0  0  0  0
    8.9720   -7.4250    0.0000 C   0  0  0  0  0  0  0  0  0  0  0  0
    9.6865   -7.0125    0.0000 C   0  0  0  0  0  0  0  0  0  0  0  0
    9.6865   -6.1875    0.0000 C   0  0  0  0  0  0  0  0  0  0  0  0
    8.9720   -5.7750    0.0000 C   0  0  0  0  0  0  0  0  0  0  0  0
    8.2575   -6.1875    0.0000 C   0  0  0  0  0  0  0  0  0  0  0  0
    5.3996   -9.4875    0.0000 O   0  0  0  0  0  0  0  0  0  0  0  0
    6.1141   -8.2500    0.0000 O   0  0  0  0  0  0  0  0  0  0  0  0
  1  2  2  0  0  0  0
  2  3  1  0  0  0  0
  3  4  2  0  0  0  0
  4  5  1  0  0  0  0
  5  6  2  0  0  0  0
  6  1  1  0  0  0  0
  3  7  1  0  0  0  0
  6  8  1  0  0  0  0
  8  9  2  0  0  0  0
  9 10  1  0  0  0  0
 10 11  1  0  0  0  0
 11 12  1  0  0  0  0
 12 13  1  0  0  0  0
 13 14  1  0  0  0  0
 14 15  1  0  0  0  0
 15 16  2  0  0  0  0
 16 17  1  0  0  0  0
 17 18  2  0  0  0  0
 18 19  1  0  0  0  0
 19 20  2  0  0  0  0
 20 15  1  0  0  0  0
 10 21  2  0  0  0  0
 12 22  1  6  0  0  0
M  END
>  <cdx:fragmentId>
5

$$$$
