10205.cdx
  Mrv1902 05222410262D          

 33 37  0  0  0  0            999 V2000
    3.8734   -6.5868    0.0000 C   0  0  0  0  0  0  0  0  0  0  0  0
    3.4609   -7.3012    0.0000 C   0  0  0  0  0  0  0  0  0  0  0  0
    3.8734   -8.0157    0.0000 C   0  0  0  0  0  0  0  0  0  0  0  0
    4.6984   -8.0157    0.0000 C   0  0  0  0  0  0  0  0  0  0  0  0
    5.1109   -7.3012    0.0000 C   0  0  0  0  0  0  0  0  0  0  0  0
    4.6984   -6.5868    0.0000 C   0  0  0  0  0  0  0  0  0  0  0  0
    5.9359   -7.3012    0.0000 C   0  0  0  0  0  0  0  0  0  0  0  0
    6.3484   -6.5868    0.0000 C   0  0  0  0  0  0  0  0  0  0  0  0
    5.9359   -5.8723    0.0000 C   0  0  0  0  0  0  0  0  0  0  0  0
    5.1109   -5.8723    0.0000 O   0  0  0  0  0  0  0  0  0  0  0  0
    5.1109   -8.7302    0.0000 C   0  0  0  0  0  0  0  0  0  0  0  0
    5.9359   -8.7302    0.0000 O   0  0  0  0  0  0  0  0  0  0  0  0
    6.3484   -8.0157    0.0000 C   0  0  0  0  0  0  0  0  0  0  0  0
    7.1734   -8.0157    0.0000 C   0  0  0  0  0  0  0  0  0  0  0  0
    7.5859   -7.3012    0.0000 C   0  0  0  0  0  0  0  0  0  0  0  0
    7.1734   -6.5868    0.0000 C   0  0  0  0  0  0  0  0  0  0  0  0
    3.4609   -5.8723    0.0000 O   0  0  0  0  0  0  0  0  0  0  0  0
    2.6359   -7.3012    0.0000 O   0  0  0  0  0  0  0  0  0  0  0  0
    6.3484   -5.1578    0.0000 O   0  0  0  0  0  0  0  0  0  0  0  0
    4.6984   -9.4447    0.0000 O   0  0  0  0  0  0  0  0  0  0  0  0
    7.5859   -8.7302    0.0000 O   0  0  0  0  0  0  0  0  0  0  0  0
    8.4109   -7.3012    0.0000 O   0  0  0  0  0  0  0  0  0  0  0  0
    8.8234   -8.0157    0.0000 C   0  0  2  0  0  0  0  0  0  0  0  0
    8.4109   -8.7302    0.0000 O   0  0  0  0  0  0  0  0  0  0  0  0
    8.8234   -9.4447    0.0000 C   0  0  1  0  0  0  0  0  0  0  0  0
    9.6484   -9.4447    0.0000 C   0  0  2  0  0  0  0  0  0  0  0  0
   10.0609   -8.7302    0.0000 C   0  0  1  0  0  0  0  0  0  0  0  0
    9.6484   -8.0157    0.0000 C   0  0  1  0  0  0  0  0  0  0  0  0
   10.8859   -8.7302    0.0000 O   0  0  0  0  0  0  0  0  0  0  0  0
   10.0609  -10.1591    0.0000 O   0  0  0  0  0  0  0  0  0  0  0  0
    8.4109  -10.1591    0.0000 C   0  0  0  0  0  0  0  0  0  0  0  0
    8.8234  -10.8736    0.0000 O   0  0  0  0  0  0  0  0  0  0  0  0
   10.0609   -7.3012    0.0000 O   0  0  0  0  0  0  0  0  0  0  0  0
  1  2  2  0  0  0  0
  2  3  1  0  0  0  0
  3  4  2  0  0  0  0
  4  5  1  0  0  0  0
  5  6  2  0  0  0  0
  6  1  1  0  0  0  0
  5  7  1  0  0  0  0
  7  8  2  0  0  0  0
  8  9  1  0  0  0  0
  9 10  1  0  0  0  0
 10  6  1  0  0  0  0
  4 11  1  0  0  0  0
 11 12  1  0  0  0  0
 12 13  1  0  0  0  0
 13  7  1  0  0  0  0
 13 14  2  0  0  0  0
 14 15  1  0  0  0  0
 15 16  2  0  0  0  0
 16  8  1  0  0  0  0
  1 17  1  0  0  0  0
  2 18  1  0  0  0  0
  9 19  2  0  0  0  0
 11 20  2  0  0  0  0
 14 21  1  0  0  0  0
 15 22  1  0  0  0  0
 23 22  1  1  0  0  0
 23 24  1  0  0  0  0
 24 25  1  0  0  0  0
 25 26  1  0  0  0  0
 26 27  1  0  0  0  0
 27 28  1  0  0  0  0
 28 23  1  0  0  0  0
 27 29  1  1  0  0  0
 26 30  1  6  0  0  0
 25 31  1  1  0  0  0
 31 32  1  0  0  0  0
 28 33  1  6  0  0  0
M  END
>  <cdx:fragmentId>
5

$$$$
