1021.cdx
  Mrv1902 05222410212D          

 19 21  0  0  0  0            999 V2000
    3.3239   -6.6619    0.0000 C   0  0  0  0  0  0  0  0  0  0  0  0
    3.3239   -7.4869    0.0000 C   0  0  0  0  0  0  0  0  0  0  0  0
    4.0384   -7.8994    0.0000 C   0  0  0  0  0  0  0  0  0  0  0  0
    4.7528   -7.4869    0.0000 C   0  0  0  0  0  0  0  0  0  0  0  0
    4.7528   -6.6619    0.0000 C   0  0  0  0  0  0  0  0  0  0  0  0
    4.0384   -6.2494    0.0000 C   0  0  0  0  0  0  0  0  0  0  0  0
    5.4673   -7.8994    0.0000 N   0  0  0  0  0  0  0  0  0  0  0  0
    6.1818   -7.4869    0.0000 C   0  0  0  0  0  0  0  0  0  0  0  0
    6.1818   -6.6619    0.0000 C   0  0  0  0  0  0  0  0  0  0  0  0
    5.4673   -6.2494    0.0000 C   0  0  0  0  0  0  0  0  0  0  0  0
    6.9664   -7.7418    0.0000 O   0  0  0  0  0  0  0  0  0  0  0  0
    7.4513   -7.0744    0.0000 C   0  0  2  0  0  0  0  0  0  0  0  0
    6.9664   -6.4069    0.0000 C   0  0  0  0  0  0  0  0  0  0  0  0
    8.2763   -7.0744    0.0000 C   0  0  0  0  0  0  0  0  0  0  0  0
    5.4673   -5.4244    0.0000 O   0  0  0  0  0  0  0  0  0  0  0  0
    9.1013   -7.0744    0.0000 O   0  0  0  0  0  0  0  0  0  0  0  0
    8.6888   -6.3599    0.0000 C   0  0  0  0  0  0  0  0  0  0  0  0
    8.6888   -7.7888    0.0000 C   0  0  0  0  0  0  0  0  0  0  0  0
    4.7528   -5.0119    0.0000 C   0  0  0  0  0  0  0  0  0  0  0  0
  1  2  1  0  0  0  0
  2  3  2  0  0  0  0
  3  4  1  0  0  0  0
  4  5  1  0  0  0  0
  5  6  1  0  0  0  0
  6  1  2  0  0  0  0
  4  7  1  0  0  0  0
  7  8  2  0  0  0  0
  8  9  1  0  0  0  0
  9 10  2  0  0  0  0
 10  5  1  0  0  0  0
  8 11  1  0  0  0  0
 11 12  1  0  0  0  0
 12 13  1  0  0  0  0
 13  9  1  0  0  0  0
 12 14  1  6  0  0  0
 10 15  1  0  0  0  0
 14 16  1  0  0  0  0
 14 17  1  0  0  0  0
 14 18  1  0  0  0  0
 15 19  1  0  0  0  0
M  END
>  <cdx:fragmentId>
5

$$$$
