10211.cdx
  Mrv1902 05222410262D          

 24 26  0  0  0  0            999 V2000
    4.8864   -7.9003    0.0000 C   0  0  0  0  0  0  0  0  0  0  0  0
    4.8864   -8.7253    0.0000 C   0  0  0  0  0  0  0  0  0  0  0  0
    5.6009   -9.1378    0.0000 C   0  0  0  0  0  0  0  0  0  0  0  0
    6.3153   -8.7253    0.0000 C   0  0  0  0  0  0  0  0  0  0  0  0
    7.0298   -9.1378    0.0000 C   0  0  0  0  0  0  0  0  0  0  0  0
    7.7443   -8.7253    0.0000 C   0  0  0  0  0  0  0  0  0  0  0  0
    7.7443   -7.9003    0.0000 C   0  0  0  0  0  0  0  0  0  0  0  0
    7.0298   -7.4878    0.0000 C   0  0  0  0  0  0  0  0  0  0  0  0
    6.3153   -7.9003    0.0000 C   0  0  0  0  0  0  0  0  0  0  0  0
    5.6009   -7.4878    0.0000 O   0  0  0  0  0  0  0  0  0  0  0  0
    8.5289   -7.6454    0.0000 O   0  0  0  0  0  0  0  0  0  0  0  0
    8.5289   -8.9802    0.0000 C   0  0  0  0  0  0  0  0  0  0  0  0
    9.0138   -8.3128    0.0000 C   0  0  0  0  0  0  0  0  0  0  0  0
    4.1719   -7.4878    0.0000 O   0  0  0  0  0  0  0  0  0  0  0  0
    7.0298   -9.9628    0.0000 O   0  0  0  0  0  0  0  0  0  0  0  0
    7.7443  -10.3753    0.0000 C   0  0  0  0  0  0  0  0  0  0  0  0
    7.0298   -6.6628    0.0000 O   0  0  0  0  0  0  0  0  0  0  0  0
    7.7443   -6.2503    0.0000 C   0  0  0  0  0  0  0  0  0  0  0  0
    7.7443   -5.4253    0.0000 C   0  0  2  0  0  0  0  0  0  0  0  0
    8.4588   -5.0128    0.0000 C   0  0  0  0  0  0  0  0  0  0  0  0
    8.4588   -4.1878    0.0000 C   0  0  0  0  0  0  0  0  0  0  0  0
    9.1732   -5.4253    0.0000 C   0  0  0  0  0  0  0  0  0  0  0  0
    9.1732   -4.6003    0.0000 O   0  0  0  0  0  0  0  0  0  0  0  0
    7.0298   -5.0128    0.0000 O   0  0  0  0  0  0  0  0  0  0  0  0
  1  2  1  0  0  0  0
  2  3  2  0  0  0  0
  3  4  1  0  0  0  0
  4  5  2  0  0  0  0
  5  6  1  0  0  0  0
  6  7  2  0  0  0  0
  7  8  1  0  0  0  0
  8  9  2  0  0  0  0
  4  9  1  0  0  0  0
  9 10  1  0  0  0  0
  1 10  1  0  0  0  0
 12 13  2  0  0  0  0
 11 13  1  0  0  0  0
 12  6  1  0  0  0  0
 11  7  1  0  0  0  0
  1 14  2  0  0  0  0
 15 16  1  0  0  0  0
  5 15  1  0  0  0  0
 18 19  1  0  0  0  0
 19 20  1  0  0  0  0
 20 21  1  0  0  0  0
 17 18  1  0  0  0  0
 20 22  1  0  0  0  0
 20 23  1  0  0  0  0
 19 24  1  1  0  0  0
  8 17  1  0  0  0  0
M  END
>  <cdx:fragmentId>
5

$$$$
