10217.cdx
  Mrv1902 05222410272D          

 25 29  0  0  0  0            999 V2000
    7.6065   -6.5308    0.0000 C   0  0  0  0  0  0  0  0  0  0  0  0
    8.3209   -6.1183    0.0000 C   0  0  0  0  0  0  0  0  0  0  0  0
    8.3209   -5.2933    0.0000 C   0  0  0  0  0  0  0  0  0  0  0  0
    9.0354   -4.8808    0.0000 C   0  0  0  0  0  0  0  0  0  0  0  0
    9.2069   -4.0739    0.0000 O   0  0  0  0  0  0  0  0  0  0  0  0
   10.0274   -3.9876    0.0000 C   0  0  0  0  0  0  0  0  0  0  0  0
   10.3630   -4.7413    0.0000 O   0  0  0  0  0  0  0  0  0  0  0  0
    9.7499   -5.2933    0.0000 C   0  0  0  0  0  0  0  0  0  0  0  0
    9.7499   -6.1183    0.0000 C   0  0  0  0  0  0  0  0  0  0  0  0
    9.0354   -6.5308    0.0000 C   0  0  0  0  0  0  0  0  0  0  0  0
    9.0354   -7.3558    0.0000 C   0  0  0  0  0  0  0  0  0  0  0  0
    8.3209   -7.7683    0.0000 C   0  0  0  0  0  0  0  0  0  0  0  0
    7.6065   -7.3558    0.0000 N   0  0  0  0  0  0  0  0  0  0  0  0
    6.8920   -7.7683    0.0000 C   0  0  0  0  0  0  0  0  0  0  0  0
    6.1775   -7.3558    0.0000 C   0  0  0  0  0  0  0  0  0  0  0  0
    5.4631   -7.7683    0.0000 C   0  0  0  0  0  0  0  0  0  0  0  0
    4.7486   -7.3558    0.0000 C   0  0  0  0  0  0  0  0  0  0  0  0
    4.7486   -6.5308    0.0000 C   0  0  0  0  0  0  0  0  0  0  0  0
    5.4631   -6.1183    0.0000 C   0  0  0  0  0  0  0  0  0  0  0  0
    6.1775   -6.5308    0.0000 C   0  0  0  0  0  0  0  0  0  0  0  0
    6.8920   -6.1183    0.0000 C   0  0  0  0  0  0  0  0  0  0  0  0
    4.0341   -7.7683    0.0000 O   0  0  0  0  0  0  0  0  0  0  0  0
    3.3196   -7.3558    0.0000 C   0  0  0  0  0  0  0  0  0  0  0  0
    5.4631   -8.5933    0.0000 O   0  0  0  0  0  0  0  0  0  0  0  0
    4.7486   -9.0058    0.0000 C   0  0  0  0  0  0  0  0  0  0  0  0
  1  2  1  0  0  0  0
  2  3  2  0  0  0  0
  3  4  1  0  0  0  0
  4  5  1  0  0  0  0
  5  6  1  0  0  0  0
  6  7  1  0  0  0  0
  7  8  1  0  0  0  0
  8  9  1  0  0  0  0
  9 10  2  0  0  0  0
 10 11  1  0  0  0  0
 11 12  1  0  0  0  0
 12 13  1  0  0  0  0
 13 14  1  0  0  0  0
 14 15  1  0  0  0  0
 15 16  1  0  0  0  0
 16 17  2  0  0  0  0
 17 18  1  0  0  0  0
 18 19  2  0  0  0  0
 19 20  1  0  0  0  0
 20 21  1  0  0  0  0
  1 21  2  0  0  0  0
  1 13  1  0  0  0  0
 15 20  2  0  0  0  0
  2 10  1  0  0  0  0
  4  8  2  0  0  0  0
 22 23  1  0  0  0  0
 17 22  1  0  0  0  0
 24 25  1  0  0  0  0
 16 24  1  0  0  0  0
M  END
>  <cdx:fragmentId>
5

$$$$
