10228.cdx
  Mrv1902 05222410282D          

 18 19  0  0  0  0            999 V2000
    5.0111   -5.2093    0.0000 C   0  0  0  0  0  0  0  0  0  0  0  0
    5.0111   -6.0343    0.0000 C   0  0  0  0  0  0  0  0  0  0  0  0
    5.7256   -6.4468    0.0000 C   0  0  0  0  0  0  0  0  0  0  0  0
    6.4401   -6.0343    0.0000 C   0  0  0  0  0  0  0  0  0  0  0  0
    7.1545   -6.4468    0.0000 C   0  0  0  0  0  0  0  0  0  0  0  0
    7.8690   -6.0343    0.0000 C   0  0  0  0  0  0  0  0  0  0  0  0
    7.8690   -5.2093    0.0000 C   0  0  0  0  0  0  0  0  0  0  0  0
    7.1545   -4.7968    0.0000 C   0  0  0  0  0  0  0  0  0  0  0  0
    6.4401   -5.2093    0.0000 C   0  0  0  0  0  0  0  0  0  0  0  0
    5.7256   -4.7968    0.0000 O   0  0  0  0  0  0  0  0  0  0  0  0
    4.2967   -4.7968    0.0000 O   0  0  0  0  0  0  0  0  0  0  0  0
    7.1545   -3.9718    0.0000 C   0  0  0  0  0  0  0  0  0  0  0  0
    7.8690   -3.5593    0.0000 C   0  0  0  0  0  0  0  0  0  0  0  0
    7.8690   -2.7343    0.0000 C   0  0  0  0  0  0  0  0  0  0  0  0
    7.1545   -2.3218    0.0000 C   0  0  0  0  0  0  0  0  0  0  0  0
    8.5835   -2.3218    0.0000 C   0  0  0  0  0  0  0  0  0  0  0  0
    8.5835   -4.7968    0.0000 O   0  0  0  0  0  0  0  0  0  0  0  0
    9.2980   -5.2093    0.0000 C   0  0  0  0  0  0  0  0  0  0  0  0
  1  2  1  0  0  0  0
  2  3  2  0  0  0  0
  3  4  1  0  0  0  0
  4  5  1  0  0  0  0
  5  6  2  0  0  0  0
  6  7  1  0  0  0  0
  7  8  2  0  0  0  0
  8  9  1  0  0  0  0
  4  9  2  0  0  0  0
  9 10  1  0  0  0  0
  1 10  1  0  0  0  0
  1 11  2  0  0  0  0
 12 13  1  0  0  0  0
 13 14  2  0  0  0  0
 14 15  1  0  0  0  0
 14 16  1  0  0  0  0
  8 12  1  0  0  0  0
 17 18  1  0  0  0  0
  7 17  1  0  0  0  0
M  END
>  <cdx:fragmentId>
5

$$$$
