10226.cdx
  Mrv1902 05222410192D          

 37 40  0  0  0  0            999 V2000
    7.0757   -7.6203    0.0000 O   0  0  0  0  0  0  0  0  0  0  0  0
    6.3564   -7.2163    0.0000 C   0  0  2  0  0  0  0  0  0  0  0  0
    6.3467   -6.3914    0.0000 O   0  0  0  0  0  0  0  0  0  0  0  0
    5.6274   -5.9873    0.0000 C   0  0  1  0  0  0  0  0  0  0  0  0
    4.9178   -6.4082    0.0000 C   0  0  2  0  0  0  0  0  0  0  0  0
    4.9276   -7.2332    0.0000 C   0  0  1  0  0  0  0  0  0  0  0  0
    5.6469   -7.6372    0.0000 C   0  0  1  0  0  0  0  0  0  0  0  0
    5.6177   -5.1624    0.0000 C   0  0  0  0  0  0  0  0  0  0  0  0
    4.2180   -7.6541    0.0000 O   0  0  0  0  0  0  0  0  0  0  0  0
    5.6566   -8.4621    0.0000 O   0  0  0  0  0  0  0  0  0  0  0  0
    4.1986   -6.0042    0.0000 O   0  0  0  0  0  0  0  0  0  0  0  0
    4.8984   -4.7583    0.0000 O   0  0  0  0  0  0  0  0  0  0  0  0
   11.3668  -10.0879    0.0000 O   0  0  0  0  0  0  0  0  0  0  0  0
    9.9336   -7.6154    0.0000 O   0  0  0  0  0  0  0  0  0  0  0  0
    8.5047   -7.6179    0.0000 O   0  0  0  0  0  0  0  0  0  0  0  0
    8.5104  -10.9178    0.0000 O   0  0  0  0  0  0  0  0  0  0  0  0
    5.6511  -10.0978    0.0000 C   0  0  0  0  0  0  0  0  0  0  0  0
    9.9379  -10.0904    0.0000 C   0  0  0  0  0  0  0  0  0  0  0  0
   10.6516   -9.6766    0.0000 C   0  0  0  0  0  0  0  0  0  0  0  0
   10.6502   -8.8516    0.0000 C   0  0  0  0  0  0  0  0  0  0  0  0
    9.9350   -8.4404    0.0000 C   0  0  0  0  0  0  0  0  0  0  0  0
    8.5090  -10.0928    0.0000 C   0  0  0  0  0  0  0  0  0  0  0  0
    9.2227   -9.6791    0.0000 C   0  0  0  0  0  0  0  0  0  0  0  0
    9.2213   -8.8541    0.0000 C   0  0  0  0  0  0  0  0  0  0  0  0
    8.5061   -8.4429    0.0000 C   0  0  0  0  0  0  0  0  0  0  0  0
    7.0800  -10.0953    0.0000 C   0  0  0  0  0  0  0  0  0  0  0  0
    7.7938   -9.6816    0.0000 C   0  0  0  0  0  0  0  0  0  0  0  0
    7.7923   -8.8566    0.0000 C   0  0  0  0  0  0  0  0  0  0  0  0
    7.0772   -8.4453    0.0000 C   0  0  0  0  0  0  0  0  0  0  0  0
    6.3634   -8.8591    0.0000 C   0  0  0  0  0  0  0  0  0  0  0  0
    6.3648   -9.6841    0.0000 C   0  0  0  0  0  0  0  0  0  0  0  0
    4.8886   -3.9334    0.0000 C   0  0  0  0  0  0  0  0  0  0  0  0
    4.1693   -3.5294    0.0000 C   0  0  0  0  0  0  0  0  0  0  0  0
    5.5982   -3.5125    0.0000 O   0  0  0  0  0  0  0  0  0  0  0  0
    4.1596   -2.7044    0.0000 C   0  0  0  0  0  0  0  0  0  0  0  0
    4.8691   -2.2835    0.0000 O   0  0  0  0  0  0  0  0  0  0  0  0
    3.4403   -2.3004    0.0000 O   0  0  0  0  0  0  0  0  0  0  0  0
  2  1  1  1  0  0  0
  2  3  1  0  0  0  0
  3  4  1  0  0  0  0
  4  5  1  0  0  0  0
  5  6  1  0  0  0  0
  6  7  1  0  0  0  0
  7  2  1  0  0  0  0
  4  8  1  1  0  0  0
  6  9  1  1  0  0  0
  7 10  1  6  0  0  0
  5 11  1  6  0  0  0
 19 13  1  0  0  0  0
 21 14  1  0  0  0  0
 25 15  2  0  0  0  0
 22 16  2  0  0  0  0
 29  1  1  0  0  0  0
  8 12  1  0  0  0  0
 31 17  1  0  0  0  0
 18 23  1  0  0  0  0
 19 18  2  0  0  0  0
 20 19  1  0  0  0  0
 21 20  2  0  0  0  0
 24 21  1  0  0  0  0
 22 27  1  0  0  0  0
 23 22  1  0  0  0  0
 24 23  2  0  0  0  0
 25 24  1  0  0  0  0
 28 25  1  0  0  0  0
 26 31  2  0  0  0  0
 27 26  1  0  0  0  0
 28 27  2  0  0  0  0
 29 28  1  0  0  0  0
 30 29  2  0  0  0  0
 31 30  1  0  0  0  0
 12 32  1  0  0  0  0
 32 33  1  0  0  0  0
 32 34  2  0  0  0  0
 33 35  1  0  0  0  0
 35 36  2  0  0  0  0
 35 37  1  0  0  0  0
M  END
>  <cdx:fragmentId>
5

$$$$
