10224.cdx
  Mrv1902 05222410182D          

 15 16  0  0  0  0            999 V2000
    8.3119   -3.2605    0.0000 C   0  0  0  0  0  0  0  0  0  0  0  0
    5.4520   -5.7333    0.0000 C   0  0  0  0  0  0  0  0  0  0  0  0
    9.0234   -6.9736    0.0000 C   0  0  0  0  0  0  0  0  0  0  0  0
    8.3093   -6.5605    0.0000 C   0  0  0  0  0  0  0  0  0  0  0  0
    7.5945   -6.9725    0.0000 C   0  0  0  0  0  0  0  0  0  0  0  0
    7.5964   -4.4975    0.0000 C   0  0  0  0  0  0  0  0  0  0  0  0
    6.8823   -4.0844    0.0000 C   0  0  0  0  0  0  0  0  0  0  0  0
    6.1675   -4.4963    0.0000 C   0  0  0  0  0  0  0  0  0  0  0  0
    6.1668   -5.3213    0.0000 C   0  0  0  0  0  0  0  0  0  0  0  0
    6.8810   -5.7344    0.0000 C   0  0  0  0  0  0  0  0  0  0  0  0
    7.5958   -5.3225    0.0000 C   0  0  0  0  0  0  0  0  0  0  0  0
    8.3099   -5.7355    0.0000 C   0  0  0  0  0  0  0  0  0  0  0  0
    9.0247   -5.3236    0.0000 C   0  0  0  0  0  0  0  0  0  0  0  0
    9.0254   -4.4986    0.0000 C   0  0  0  0  0  0  0  0  0  0  0  0
    8.3112   -4.0855    0.0000 C   0  0  0  0  0  0  0  0  0  0  0  0
 15  1  1  0  0  0  0
  9  2  1  0  0  0  0
 12  4  1  0  0  0  0
  4  3  1  0  0  0  0
  5  4  1  0  0  0  0
 11  6  2  0  0  0  0
 15  6  1  0  0  0  0
  7  6  1  0  0  0  0
  8  7  2  0  0  0  0
  9  8  1  0  0  0  0
 10  9  2  0  0  0  0
 11 10  1  0  0  0  0
 12 11  1  0  0  0  0
 13 12  1  0  0  0  0
 14 13  1  0  0  0  0
 15 14  1  0  0  0  0
M  END
>  <cdx:fragmentId>
5

$$$$
