102213.cdx
  Mrv1902 05222410242D          

 20 22  0  0  0  0            999 V2000
    7.1189  -10.1498    0.0000 N   0  0  0  0  0  0  0  0  0  0  0  0
    7.6039   -9.4824    0.0000 C   0  0  0  0  0  0  0  0  0  0  0  0
    6.3343   -9.0699    0.0000 C   0  0  0  0  0  0  0  0  0  0  0  0
    5.6199   -8.6574    0.0000 N   0  0  0  0  0  0  0  0  0  0  0  0
    4.9054   -9.0699    0.0000 C   0  0  0  0  0  0  0  0  0  0  0  0
    4.9054   -9.8949    0.0000 N   0  0  0  0  0  0  0  0  0  0  0  0
    5.6199  -10.3074    0.0000 C   0  0  0  0  0  0  0  0  0  0  0  0
    6.3343   -9.8949    0.0000 C   0  0  0  0  0  0  0  0  0  0  0  0
    5.6199  -11.1324    0.0000 N   0  0  0  0  0  0  0  0  0  0  0  0
    7.1189   -8.8150    0.0000 N   0  0  0  0  0  0  0  0  0  0  0  0
    8.8259   -5.6405    0.0000 O   0  0  0  0  0  0  0  0  0  0  0  0
    8.8259   -6.4655    0.0000 C   0  0  0  0  0  0  0  0  0  0  0  0
    5.6515   -6.6484    0.0000 C   0  0  0  0  0  0  0  0  0  0  0  0
    6.0640   -7.3629    0.0000 O   0  0  0  0  0  0  0  0  0  0  0  0
    7.1189   -5.9108    0.0000 O   0  0  0  0  0  0  0  0  0  0  0  0
    7.3739   -8.0303    0.0000 C   0  0  1  0  0  0  0  0  0  0  0  0
    6.8890   -7.3629    0.0000 C   0  0  1  0  0  0  0  0  0  0  0  0
    7.3739   -6.6955    0.0000 C   0  0  1  0  0  0  0  0  0  0  0  0
    8.1585   -6.9504    0.0000 C   0  0  2  0  0  0  0  0  0  0  0  0
    8.1585   -7.7754    0.0000 O   0  0  0  0  0  0  0  0  0  0  0  0
 16 10  1  1  0  0  0
 19 12  1  1  0  0  0
 12 11  1  0  0  0  0
 17 14  1  6  0  0  0
 14 13  1  0  0  0  0
 18 15  1  6  0  0  0
 20 16  1  0  0  0  0
 17 16  1  0  0  0  0
 18 17  1  0  0  0  0
 19 18  1  0  0  0  0
 20 19  1  0  0  0  0
  1  2  2  0  0  0  0
  2 10  1  0  0  0  0
 10  3  1  0  0  0  0
  3  4  2  0  0  0  0
  4  5  1  0  0  0  0
  5  6  2  0  0  0  0
  6  7  1  0  0  0  0
  7  8  2  0  0  0  0
  1  8  1  0  0  0  0
  3  8  1  0  0  0  0
  7  9  1  0  0  0  0
M  END
>  <cdx:fragmentId>
25

$$$$
