1022.cdx
  Mrv1902 05222410212D          

 14 15  0  0  0  0            999 V2000
    3.7570   -6.6619    0.0000 C   0  0  0  0  0  0  0  0  0  0  0  0
    3.7570   -7.4869    0.0000 C   0  0  0  0  0  0  0  0  0  0  0  0
    4.4715   -7.8994    0.0000 C   0  0  0  0  0  0  0  0  0  0  0  0
    5.1860   -7.4869    0.0000 C   0  0  0  0  0  0  0  0  0  0  0  0
    5.1860   -6.6619    0.0000 C   0  0  0  0  0  0  0  0  0  0  0  0
    4.4715   -6.2494    0.0000 C   0  0  0  0  0  0  0  0  0  0  0  0
    5.9706   -7.7418    0.0000 N   0  0  0  0  0  0  0  0  0  0  0  0
    6.4555   -7.0744    0.0000 C   0  0  0  0  0  0  0  0  0  0  0  0
    5.9706   -6.4069    0.0000 C   0  0  1  0  0  0  0  0  0  0  0  0
    7.2805   -7.0744    0.0000 O   0  0  0  0  0  0  0  0  0  0  0  0
    5.7571   -5.6100    0.0000 O   0  0  0  0  0  0  0  0  0  0  0  0
    6.5540   -5.8236    0.0000 C   0  0  0  0  0  0  0  0  0  0  0  0
    6.3404   -5.0267    0.0000 C   0  0  0  0  0  0  0  0  0  0  0  0
    6.1269   -4.2298    0.0000 N   0  0  0  0  0  0  0  0  0  0  0  0
  1  2  2  0  0  0  0
  2  3  1  0  0  0  0
  3  4  2  0  0  0  0
  4  5  1  0  0  0  0
  5  6  2  0  0  0  0
  6  1  1  0  0  0  0
  4  7  1  0  0  0  0
  7  8  1  0  0  0  0
  8  9  1  0  0  0  0
  9  5  1  0  0  0  0
  8 10  2  0  0  0  0
  9 11  1  6  0  0  0
  9 12  1  0  0  0  0
 12 13  1  0  0  0  0
 13 14  3  0  0  0  0
M  END
>  <cdx:fragmentId>
5

$$$$
