10220.cdx
  Mrv1902 05222410202D          

 25 28  0  0  0  0            999 V2000
    7.1888   -8.9282    0.0000 C   0  0  0  0  0  0  0  0  0  0  0  0
    7.9032   -8.5157    0.0000 N   0  0  0  0  0  0  0  0  0  0  0  0
    7.9032   -7.6907    0.0000 C   0  0  0  0  0  0  0  0  0  0  0  0
    7.1888   -7.2782    0.0000 C   0  0  0  0  0  0  0  0  0  0  0  0
    6.4743   -7.6907    0.0000 C   0  0  0  0  0  0  0  0  0  0  0  0
    5.7598   -7.2782    0.0000 C   0  0  0  0  0  0  0  0  0  0  0  0
    5.0454   -7.6907    0.0000 C   0  0  0  0  0  0  0  0  0  0  0  0
    5.0454   -8.5157    0.0000 C   0  0  0  0  0  0  0  0  0  0  0  0
    5.7598   -8.9282    0.0000 C   0  0  0  0  0  0  0  0  0  0  0  0
    6.4743   -8.5157    0.0000 C   0  0  0  0  0  0  0  0  0  0  0  0
    8.6177   -8.9282    0.0000 C   0  0  0  0  0  0  0  0  0  0  0  0
    9.3322   -8.5157    0.0000 C   0  0  0  0  0  0  0  0  0  0  0  0
    9.3322   -7.6907    0.0000 C   0  0  0  0  0  0  0  0  0  0  0  0
   10.0466   -7.2782    0.0000 C   0  0  0  0  0  0  0  0  0  0  0  0
   10.0466   -6.4532    0.0000 C   0  0  0  0  0  0  0  0  0  0  0  0
    9.3322   -6.0407    0.0000 C   0  0  0  0  0  0  0  0  0  0  0  0
    8.6177   -6.4532    0.0000 C   0  0  0  0  0  0  0  0  0  0  0  0
    8.6177   -7.2782    0.0000 C   0  0  0  0  0  0  0  0  0  0  0  0
    9.3322   -5.2157    0.0000 O   0  0  0  0  0  0  0  0  0  0  0  0
    4.3309   -8.9282    0.0000 O   0  0  0  0  0  0  0  0  0  0  0  0
    3.6164   -8.5157    0.0000 C   0  0  0  0  0  0  0  0  0  0  0  0
    5.7598   -9.7532    0.0000 O   0  0  0  0  0  0  0  0  0  0  0  0
    5.0454  -10.1657    0.0000 C   0  0  0  0  0  0  0  0  0  0  0  0
   10.7611   -6.0407    0.0000 O   0  0  0  0  0  0  0  0  0  0  0  0
   11.4756   -6.4532    0.0000 C   0  0  0  0  0  0  0  0  0  0  0  0
  1  2  1  0  0  0  0
  2  3  1  0  0  0  0
  3  4  1  0  0  0  0
  4  5  1  0  0  0  0
  5  6  1  0  0  0  0
  6  7  2  0  0  0  0
  7  8  1  0  0  0  0
  8  9  2  0  0  0  0
  9 10  1  0  0  0  0
  1 10  1  0  0  0  0
  5 10  2  0  0  0  0
 11 12  1  0  0  0  0
 12 13  1  0  0  0  0
 13 14  1  0  0  0  0
 14 15  2  0  0  0  0
 15 16  1  0  0  0  0
 16 17  2  0  0  0  0
 17 18  1  0  0  0  0
 13 18  2  0  0  0  0
 11  2  1  0  0  0  0
 18  3  1  0  0  0  0
 16 19  1  0  0  0  0
 20 21  1  0  0  0  0
  8 20  1  0  0  0  0
 22 23  1  0  0  0  0
  9 22  1  0  0  0  0
 24 25  1  0  0  0  0
 15 24  1  0  0  0  0
M  END
>  <cdx:fragmentId>
14500

$$$$
