10237.cdx
  Mrv1902 05222410192D          

 27 32  0  0  0  0            999 V2000
    4.2084   -6.8347    0.0000 O   0  0  0  0  0  0  0  0  0  0  0  0
    4.9620   -7.1702    0.0000 C   0  0  0  0  0  0  0  0  0  0  0  0
    5.5141   -6.5571    0.0000 O   0  0  0  0  0  0  0  0  0  0  0  0
    5.1016   -5.8426    0.0000 C   0  0  0  0  0  0  0  0  0  0  0  0
    4.2946   -6.0142    0.0000 C   0  0  0  0  0  0  0  0  0  0  0  0
    5.3565   -5.0580    0.0000 C   0  0  0  0  0  0  0  0  0  0  0  0
    4.8045   -4.4449    0.0000 C   0  0  0  0  0  0  0  0  0  0  0  0
    3.9975   -4.6165    0.0000 C   0  0  0  0  0  0  0  0  0  0  0  0
    3.7426   -5.4011    0.0000 C   0  0  0  0  0  0  0  0  0  0  0  0
    2.6626   -4.6165    0.0000 O   0  0  0  0  0  0  0  0  0  0  0  0
    3.3301   -4.1315    0.0000 C   0  0  1  0  0  0  0  0  0  0  0  0
    2.9176   -5.4011    0.0000 C   0  0  0  0  0  0  0  0  0  0  0  0
    2.4326   -6.0685    0.0000 O   0  0  0  0  0  0  0  0  0  0  0  0
    3.3301   -3.3065    0.0000 C   0  0  1  0  0  0  0  0  0  0  0  0
    2.6156   -2.8940    0.0000 N   0  0  0  0  0  0  0  0  0  0  0  0
    2.6156   -2.0690    0.0000 C   0  0  0  0  0  0  0  0  0  0  0  0
    3.3301   -1.6565    0.0000 C   0  0  0  0  0  0  0  0  0  0  0  0
    4.0445   -2.0690    0.0000 C   0  0  0  0  0  0  0  0  0  0  0  0
    4.7590   -1.6565    0.0000 C   0  0  0  0  0  0  0  0  0  0  0  0
    5.4735   -2.0690    0.0000 C   0  0  0  0  0  0  0  0  0  0  0  0
    5.4735   -2.8940    0.0000 C   0  0  0  0  0  0  0  0  0  0  0  0
    4.7590   -3.3065    0.0000 C   0  0  0  0  0  0  0  0  0  0  0  0
    4.0445   -2.8940    0.0000 C   0  0  0  0  0  0  0  0  0  0  0  0
    6.2581   -3.1490    0.0000 O   0  0  0  0  0  0  0  0  0  0  0  0
    6.7430   -2.4815    0.0000 C   0  0  0  0  0  0  0  0  0  0  0  0
    6.2581   -1.8141    0.0000 O   0  0  0  0  0  0  0  0  0  0  0  0
    1.9011   -3.3065    0.0000 C   0  0  0  0  0  0  0  0  0  0  0  0
  1  2  1  0  0  0  0
  2  3  1  0  0  0  0
  3  4  1  0  0  0  0
  4  5  1  0  0  0  0
  1  5  1  0  0  0  0
  6  7  1  0  0  0  0
  7  8  2  0  0  0  0
  8  9  1  0  0  0  0
  9  5  2  0  0  0  0
  6  4  2  0  0  0  0
 11 10  1  1  0  0  0
 10 12  1  0  0  0  0
 11  8  1  0  0  0  0
 12  9  1  0  0  0  0
 12 13  2  0  0  0  0
 14 15  1  1  0  0  0
 15 16  1  0  0  0  0
 16 17  1  0  0  0  0
 17 18  1  0  0  0  0
 18 19  2  0  0  0  0
 19 20  1  0  0  0  0
 20 21  2  0  0  0  0
 21 22  1  0  0  0  0
 22 23  2  0  0  0  0
 14 23  1  0  0  0  0
 18 23  1  0  0  0  0
 24 25  1  0  0  0  0
 25 26  1  0  0  0  0
 26 20  1  0  0  0  0
 24 21  1  0  0  0  0
 15 27  1  0  0  0  0
 11 14  1  0  0  0  0
M  END
>  <cdx:groupId>
88

>  <cdx:fragmentId>
31

$$$$
