10235.cdx
  Mrv1902 05222410202D          

 16 18  0  0  0  0            999 V2000
    4.8463   -2.8383    0.0000 C   0  0  1  0  0  0  0  0  0  0  0  0
    4.1318   -3.2508    0.0000 C   0  0  0  0  0  0  0  0  0  0  0  0
    3.4174   -2.8383    0.0000 C   0  0  0  0  0  0  0  0  0  0  0  0
    2.7029   -3.2508    0.0000 C   0  0  0  0  0  0  0  0  0  0  0  0
    2.7029   -4.0758    0.0000 C   0  0  0  0  0  0  0  0  0  0  0  0
    3.4174   -4.4883    0.0000 C   0  0  0  0  0  0  0  0  0  0  0  0
    4.1318   -4.0758    0.0000 N   0  0  0  0  0  0  0  0  0  0  0  0
    4.8463   -4.4883    0.0000 C   0  0  0  0  0  0  0  0  0  0  0  0
    5.5608   -4.0758    0.0000 C   0  0  2  0  0  0  0  0  0  0  0  0
    6.2494   -3.6601    0.0000 C   0  0  0  0  0  0  0  0  0  0  0  0
    6.2444   -2.8557    0.0000 N   0  0  0  0  0  0  0  0  0  0  0  0
    5.5503   -2.4492    0.0000 C   0  0  0  0  0  0  0  0  0  0  0  0
    5.5608   -3.2508    0.0000 C   0  0  0  0  0  0  0  0  0  0  0  0
    3.4174   -5.3133    0.0000 O   0  0  0  0  0  0  0  0  0  0  0  0
    4.4338   -2.1238    0.0000 H   0  0  0  0  0  0  0  0  0  0  0  0
    5.9733   -4.7903    0.0000 H   0  0  0  0  0  0  0  0  0  0  0  0
  1  2  1  0  0  0  0
  2  3  2  0  0  0  0
  3  4  1  0  0  0  0
  4  5  2  0  0  0  0
  5  6  1  0  0  0  0
  6  7  1  0  0  0  0
  7  8  1  0  0  0  0
  8  9  1  0  0  0  0
  9 10  1  0  0  0  0
 10 11  1  0  0  0  0
 11 12  1  0  0  0  0
  1 12  1  0  0  0  0
  1 13  1  6  0  0  0
  9 13  1  6  0  0  0
  2  7  1  0  0  0  0
  6 14  2  0  0  0  0
  1 15  1  0  0  0  0
  9 16  1  0  0  0  0
M  END
>  <cdx:groupId>
52

>  <cdx:fragmentId>
5

$$$$
