10231.cdx
  Mrv1902 05222410182D          

 16 17  0  0  0  0            999 V2000
    2.8293   -4.7908    0.0000 O   0  0  0  0  0  0  0  0  0  0  0  0
    2.3444   -4.1234    0.0000 C   0  0  0  0  0  0  0  0  0  0  0  0
    2.8293   -3.4559    0.0000 O   0  0  0  0  0  0  0  0  0  0  0  0
    3.6139   -3.7109    0.0000 C   0  0  0  0  0  0  0  0  0  0  0  0
    3.6139   -4.5359    0.0000 C   0  0  0  0  0  0  0  0  0  0  0  0
    4.3284   -3.2984    0.0000 C   0  0  0  0  0  0  0  0  0  0  0  0
    5.0428   -3.7109    0.0000 C   0  0  0  0  0  0  0  0  0  0  0  0
    5.0428   -4.5359    0.0000 C   0  0  0  0  0  0  0  0  0  0  0  0
    4.3284   -4.9484    0.0000 C   0  0  0  0  0  0  0  0  0  0  0  0
    5.7573   -4.9484    0.0000 C   0  0  0  0  0  0  0  0  0  0  0  0
    6.4718   -4.5359    0.0000 C   0  0  0  0  0  0  0  0  0  0  0  0
    7.1863   -4.9484    0.0000 C   0  0  0  0  0  0  0  0  0  0  0  0
    5.7573   -3.2984    0.0000 O   0  0  0  0  0  0  0  0  0  0  0  0
    6.4718   -3.7109    0.0000 C   0  0  0  0  0  0  0  0  0  0  0  0
    4.3284   -2.4734    0.0000 O   0  0  0  0  0  0  0  0  0  0  0  0
    5.0428   -2.0609    0.0000 C   0  0  0  0  0  0  0  0  0  0  0  0
  1  2  1  0  0  0  0
  2  3  1  0  0  0  0
  3  4  1  0  0  0  0
  4  5  1  0  0  0  0
  1  5  1  0  0  0  0
  6  7  1  0  0  0  0
  7  8  2  0  0  0  0
  8  9  1  0  0  0  0
  9  5  2  0  0  0  0
  6  4  2  0  0  0  0
 10 11  1  0  0  0  0
 11 12  2  0  0  0  0
  8 10  1  0  0  0  0
 13 14  1  0  0  0  0
  7 13  1  0  0  0  0
 15 16  1  0  0  0  0
  6 15  1  0  0  0  0
M  END
>  <cdx:groupId>
51

>  <cdx:fragmentId>
5

$$$$
