10233.cdx
  Mrv1902 05222410192D          

 24 26  0  0  0  0            999 V2000
   10.2094   -7.2462    0.0000 O   0  0  0  0  0  0  0  0  0  0  0  0
   10.9179   -8.4871    0.0000 C   0  0  0  0  0  0  0  0  0  0  0  0
   10.2015   -8.8962    0.0000 O   0  0  0  0  0  0  0  0  0  0  0  0
    8.0601   -8.4734    0.0000 C   0  0  0  0  0  0  0  0  0  0  0  0
    8.7725   -8.8894    0.0000 C   0  0  0  0  0  0  0  0  0  0  0  0
    9.4890   -8.4803    0.0000 C   0  0  0  0  0  0  0  0  0  0  0  0
    9.4929   -7.6553    0.0000 C   0  0  0  0  0  0  0  0  0  0  0  0
    8.7804   -7.2394    0.0000 C   0  0  0  0  0  0  0  0  0  0  0  0
    8.0640   -7.6484    0.0000 C   0  0  0  0  0  0  0  0  0  0  0  0
    7.3515   -7.2325    0.0000 C   0  0  0  0  0  0  0  0  0  0  0  0
    3.7891   -5.1530    0.0000 C   0  0  0  0  0  0  0  0  0  0  0  0
    4.5055   -4.7439    0.0000 O   0  0  0  0  0  0  0  0  0  0  0  0
    8.7844   -6.4144    0.0000 C   0  0  0  0  0  0  0  0  0  0  0  0
    4.4976   -6.3939    0.0000 O   0  0  0  0  0  0  0  0  0  0  0  0
    6.6430   -5.9916    0.0000 C   0  0  0  0  0  0  0  0  0  0  0  0
    5.9265   -6.4007    0.0000 C   0  0  0  0  0  0  0  0  0  0  0  0
    5.2141   -5.9848    0.0000 C   0  0  0  0  0  0  0  0  0  0  0  0
    5.2180   -5.1598    0.0000 C   0  0  0  0  0  0  0  0  0  0  0  0
    5.9344   -4.7507    0.0000 C   0  0  0  0  0  0  0  0  0  0  0  0
    6.6469   -5.1666    0.0000 C   0  0  0  0  0  0  0  0  0  0  0  0
    7.3634   -4.7576    0.0000 C   0  0  0  0  0  0  0  0  0  0  0  0
    8.0759   -5.1735    0.0000 C   0  0  0  0  0  0  0  0  0  0  0  0
    8.0719   -5.9985    0.0000 N   0  0  0  0  0  0  0  0  0  0  0  0
    7.3555   -6.4075    0.0000 C   0  0  1  0  0  0  0  0  0  0  0  0
 24 10  1  1  0  0  0
 10  9  1  0  0  0  0
  7  1  1  0  0  0  0
  6  3  1  0  0  0  0
  3  2  1  0  0  0  0
  9  4  2  0  0  0  0
  5  4  1  0  0  0  0
  6  5  2  0  0  0  0
  7  6  1  0  0  0  0
  8  7  2  0  0  0  0
  9  8  1  0  0  0  0
 18 12  1  0  0  0  0
 12 11  1  0  0  0  0
 23 13  1  0  0  0  0
 17 14  1  0  0  0  0
 20 15  2  0  0  0  0
 24 15  1  0  0  0  0
 16 15  1  0  0  0  0
 17 16  2  0  0  0  0
 18 17  1  0  0  0  0
 19 18  2  0  0  0  0
 20 19  1  0  0  0  0
 21 20  1  0  0  0  0
 22 21  1  0  0  0  0
 23 22  1  0  0  0  0
 24 23  1  0  0  0  0
M  END
>  <cdx:fragmentId>
19106

$$$$
