10241.cdx
  Mrv1902 05222410222D          

 14 16  0  0  0  0            999 V2000
    3.3165   -2.5376    0.0000 C   0  0  0  0  0  0  0  0  0  0  0  0
    3.9839   -3.0225    0.0000 C   0  0  0  0  0  0  0  0  0  0  0  0
    4.7909   -2.8510    0.0000 C   0  0  0  0  0  0  0  0  0  0  0  0
    5.3429   -3.4640    0.0000 C   0  0  0  0  0  0  0  0  0  0  0  0
    5.0880   -4.2487    0.0000 C   0  0  0  0  0  0  0  0  0  0  0  0
    4.2810   -4.4202    0.0000 C   0  0  0  0  0  0  0  0  0  0  0  0
    3.7290   -3.8071    0.0000 C   0  0  0  0  0  0  0  0  0  0  0  0
    2.9040   -3.8071    0.0000 C   0  0  0  0  0  0  0  0  0  0  0  0
    2.3520   -4.4202    0.0000 C   0  0  0  0  0  0  0  0  0  0  0  0
    1.5450   -4.2487    0.0000 C   0  0  0  0  0  0  0  0  0  0  0  0
    1.2901   -3.4640    0.0000 C   0  0  0  0  0  0  0  0  0  0  0  0
    1.8421   -2.8510    0.0000 C   0  0  0  0  0  0  0  0  0  0  0  0
    2.6491   -3.0225    0.0000 C   0  0  0  0  0  0  0  0  0  0  0  0
    3.3165   -1.7126    0.0000 O   0  0  0  0  0  0  0  0  0  0  0  0
  1  2  1  0  0  0  0
  2  3  1  0  0  0  0
  3  4  2  0  0  0  0
  4  5  1  0  0  0  0
  5  6  2  0  0  0  0
  6  7  1  0  0  0  0
  2  7  2  0  0  0  0
  7  8  1  0  0  0  0
  8  9  1  0  0  0  0
  9 10  2  0  0  0  0
 10 11  1  0  0  0  0
 11 12  2  0  0  0  0
 12 13  1  0  0  0  0
  8 13  2  0  0  0  0
  1 13  1  0  0  0  0
  1 14  2  0  0  0  0
M  END
>  <cdx:groupId>
46

>  <cdx:fragmentId>
5

$$$$
