102424.cdx
  Mrv1902 05222410232D          

 13 12  0  0  0  0            999 V2000
    4.6934   -5.1124    0.0000 O   0  0  0  0  0  0  0  0  0  0  0  0
    5.4078   -4.6999    0.0000 C   0  0  0  0  0  0  0  0  0  0  0  0
    6.1223   -5.1124    0.0000 C   0  0  2  0  0  0  0  0  0  0  0  0
    6.1223   -5.9374    0.0000 O   0  0  0  0  0  0  0  0  0  0  0  0
    6.8368   -4.6999    0.0000 C   0  0  1  0  0  0  0  0  0  0  0  0
    6.8368   -3.8749    0.0000 O   0  0  0  0  0  0  0  0  0  0  0  0
    7.5512   -5.1124    0.0000 C   0  0  2  0  0  0  0  0  0  0  0  0
    7.5512   -5.9374    0.0000 O   0  0  0  0  0  0  0  0  0  0  0  0
    8.2657   -4.6999    0.0000 C   0  0  0  0  0  0  0  0  0  0  0  0
    8.2657   -3.8749    0.0000 O   0  0  0  0  0  0  0  0  0  0  0  0
    8.9802   -5.1124    0.0000 C   0  0  0  0  0  0  0  0  0  0  0  0
    9.6946   -4.6999    0.0000 O   0  0  0  0  0  0  0  0  0  0  0  0
    8.9802   -5.9374    0.0000 O   0  0  0  0  0  0  0  0  0  0  0  0
  1  2  1  0  0  0  0
  2  3  1  0  0  0  0
  3  4  1  1  0  0  0
  3  5  1  0  0  0  0
  5  6  1  1  0  0  0
  5  7  1  0  0  0  0
  7  8  1  1  0  0  0
  7  9  1  0  0  0  0
  9 10  2  0  0  0  0
  9 11  1  0  0  0  0
 11 12  1  0  0  0  0
 11 13  2  0  0  0  0
M  END
>  <cdx:fragmentId>
3

$$$$
