102459.cdx
  Mrv1902 05222410272D          

 21 20  0  0  0  0            999 V2000
    2.5113   -3.4306    0.0000 C   0  0  0  0  0  0  0  0  0  0  0  0
    3.2258   -3.8431    0.0000 C   0  0  0  0  0  0  0  0  0  0  0  0
    3.9403   -3.4306    0.0000 C   0  0  0  0  0  0  0  0  0  0  0  0
    4.6547   -3.8431    0.0000 C   0  0  0  0  0  0  0  0  0  0  0  0
    5.3692   -3.4306    0.0000 C   0  0  0  0  0  0  0  0  0  0  0  0
    6.0837   -3.8431    0.0000 C   0  0  0  0  0  0  0  0  0  0  0  0
    6.7981   -3.4306    0.0000 C   0  0  0  0  0  0  0  0  0  0  0  0
    7.5126   -3.8431    0.0000 C   0  0  0  0  0  0  0  0  0  0  0  0
    8.2271   -3.4306    0.0000 C   0  0  0  0  0  0  0  0  0  0  0  0
    8.9416   -3.8431    0.0000 C   0  0  0  0  0  0  0  0  0  0  0  0
    9.6560   -3.4306    0.0000 C   0  0  0  0  0  0  0  0  0  0  0  0
   10.3705   -3.8431    0.0000 C   0  0  0  0  0  0  0  0  0  0  0  0
   11.0850   -3.4306    0.0000 C   0  0  0  0  0  0  0  0  0  0  0  0
   11.7994   -3.8431    0.0000 C   0  0  0  0  0  0  0  0  0  0  0  0
   12.5139   -3.4306    0.0000 C   0  0  0  0  0  0  0  0  0  0  0  0
   12.5139   -2.6056    0.0000 C   0  0  0  0  0  0  0  0  0  0  0  0
    1.7968   -3.8431    0.0000 O   0  0  0  0  0  0  0  0  0  0  0  0
   13.2284   -3.8431    0.0000 C   0  0  0  0  0  0  0  0  0  0  0  0
    9.6560   -2.6056    0.0000 C   0  0  0  0  0  0  0  0  0  0  0  0
    6.7981   -2.6056    0.0000 C   0  0  0  0  0  0  0  0  0  0  0  0
    3.9403   -2.6056    0.0000 C   0  0  0  0  0  0  0  0  0  0  0  0
  1  2  1  0  0  0  0
  2  3  1  0  0  0  0
  3  4  1  0  0  0  0
  4  5  1  0  0  0  0
  5  6  1  0  0  0  0
  6  7  1  0  0  0  0
  7  8  1  0  0  0  0
  8  9  1  0  0  0  0
  9 10  1  0  0  0  0
 10 11  1  0  0  0  0
 11 12  1  0  0  0  0
 12 13  1  0  0  0  0
 13 14  1  0  0  0  0
 14 15  1  0  0  0  0
 15 16  1  0  0  0  0
  1 17  1  0  0  0  0
 15 18  1  0  0  0  0
 11 19  1  0  0  0  0
  7 20  1  0  0  0  0
  3 21  1  0  0  0  0
M  END
>  <cdx:groupId>
64

>  <cdx:fragmentId>
5

$$$$
