10253.cdx
  Mrv1902 05222410202D          

 14 14  0  0  0  0            999 V2000
    8.7998   -5.3839    0.0000 C   0  0  0  0  0  0  0  0  0  0  0  0
    8.0853   -5.7964    0.0000 C   0  0  0  0  0  0  0  0  0  0  0  0
    8.7998   -4.5589    0.0000 O   0  0  0  0  0  0  0  0  0  0  0  0
    9.5142   -5.7964    0.0000 O   0  0  0  0  0  0  0  0  0  0  0  0
    7.3708   -5.3839    0.0000 N   0  0  0  0  0  0  0  0  0  0  0  0
    6.6563   -5.7964    0.0000 C   0  0  0  0  0  0  0  0  0  0  0  0
    5.9419   -5.3839    0.0000 C   0  0  0  0  0  0  0  0  0  0  0  0
    5.9419   -4.5589    0.0000 C   0  0  0  0  0  0  0  0  0  0  0  0
    5.2274   -4.1464    0.0000 C   0  0  0  0  0  0  0  0  0  0  0  0
    4.5129   -4.5589    0.0000 C   0  0  0  0  0  0  0  0  0  0  0  0
    4.5129   -5.3839    0.0000 C   0  0  0  0  0  0  0  0  0  0  0  0
    5.2274   -5.7964    0.0000 C   0  0  0  0  0  0  0  0  0  0  0  0
    6.6563   -6.6214    0.0000 O   0  0  0  0  0  0  0  0  0  0  0  0
    6.6563   -4.1464    0.0000 O   0  0  0  0  0  0  0  0  0  0  0  0
  1  2  1  0  0  0  0
  1  3  2  0  0  0  0
  1  4  1  0  0  0  0
  6  7  1  0  0  0  0
  7  8  1  0  0  0  0
  8  9  2  0  0  0  0
  9 10  1  0  0  0  0
 10 11  2  0  0  0  0
 11 12  1  0  0  0  0
  7 12  2  0  0  0  0
  6 13  2  0  0  0  0
  8 14  1  0  0  0  0
  5  6  1  0  0  0  0
  2  5  1  0  0  0  0
M  END
>  <cdx:fragmentId>
15

$$$$
