10256.cdx
  Mrv1902 05222410222D          

 11 12  0  0  0  0            999 V2000
    4.6242   -4.5632    0.0000 N   0  0  0  0  0  0  0  0  0  0  0  0
    5.1091   -3.8957    0.0000 C   0  0  0  0  0  0  0  0  0  0  0  0
    4.6242   -3.2283    0.0000 C   0  0  0  0  0  0  0  0  0  0  0  0
    3.8396   -3.4832    0.0000 C   0  0  0  0  0  0  0  0  0  0  0  0
    3.1251   -3.0707    0.0000 C   0  0  0  0  0  0  0  0  0  0  0  0
    2.4106   -3.4832    0.0000 C   0  0  0  0  0  0  0  0  0  0  0  0
    2.4106   -4.3082    0.0000 C   0  0  0  0  0  0  0  0  0  0  0  0
    3.1251   -4.7207    0.0000 C   0  0  0  0  0  0  0  0  0  0  0  0
    3.8396   -4.3082    0.0000 C   0  0  0  0  0  0  0  0  0  0  0  0
    4.8791   -2.4437    0.0000 C   0  0  0  0  0  0  0  0  0  0  0  0
    5.6861   -2.2721    0.0000 O   0  0  0  0  0  0  0  0  0  0  0  0
  1  2  1  0  0  0  0
  2  3  2  0  0  0  0
  3  4  1  0  0  0  0
  4  5  1  0  0  0  0
  5  6  2  0  0  0  0
  6  7  1  0  0  0  0
  7  8  2  0  0  0  0
  8  9  1  0  0  0  0
  1  9  1  0  0  0  0
  4  9  2  0  0  0  0
 10 11  2  0  0  0  0
  3 10  1  0  0  0  0
M  END
>  <cdx:groupId>
36

>  <cdx:fragmentId>
5

$$$$
