14102500.cdx
  Mrv1902 05222410262D          

 21 22  0  0  0  0            999 V2000
    5.5323  -15.6779    0.0000 C   0  0  0  0  0  0  0  0  0  0  0  0
    5.5323  -16.5029    0.0000 C   0  0  0  0  0  0  0  0  0  0  0  0
    6.2467  -16.9154    0.0000 C   0  0  0  0  0  0  0  0  0  0  0  0
    6.9612  -16.5029    0.0000 C   0  0  0  0  0  0  0  0  0  0  0  0
    7.6757  -16.9154    0.0000 C   0  0  0  0  0  0  0  0  0  0  0  0
    8.3901  -16.5029    0.0000 C   0  0  0  0  0  0  0  0  0  0  0  0
    8.3901  -15.6779    0.0000 C   0  0  0  0  0  0  0  0  0  0  0  0
    7.6757  -15.2654    0.0000 C   0  0  0  0  0  0  0  0  0  0  0  0
    6.9612  -15.6779    0.0000 C   0  0  0  0  0  0  0  0  0  0  0  0
    6.2467  -15.2654    0.0000 O   0  0  0  0  0  0  0  0  0  0  0  0
    4.8178  -15.2654    0.0000 O   0  0  0  0  0  0  0  0  0  0  0  0
    9.1046  -15.2654    0.0000 O   0  0  0  0  0  0  0  0  0  0  0  0
    9.8191  -15.6779    0.0000 C   0  0  0  0  0  0  0  0  0  0  0  0
    7.6757  -14.4404    0.0000 C   0  0  1  0  0  0  0  0  0  0  0  0
    6.9612  -14.0279    0.0000 C   0  0  1  0  0  0  0  0  0  0  0  0
    6.9612  -13.2029    0.0000 C   0  0  0  0  0  0  0  0  0  0  0  0
    7.6757  -12.7904    0.0000 C   0  0  0  0  0  0  0  0  0  0  0  0
    6.2467  -12.7904    0.0000 C   0  0  0  0  0  0  0  0  0  0  0  0
    8.3901  -14.0279    0.0000 O   0  0  0  0  0  0  0  0  0  0  0  0
    9.1046  -14.4404    0.0000 C   0  0  0  0  0  0  0  0  0  0  0  0
    6.2467  -14.4404    0.0000 O   0  0  0  0  0  0  0  0  0  0  0  0
  1  2  1  0  0  0  0
  2  3  2  0  0  0  0
  3  4  1  0  0  0  0
  4  5  1  0  0  0  0
  5  6  2  0  0  0  0
  6  7  1  0  0  0  0
  7  8  2  0  0  0  0
  8  9  1  0  0  0  0
  4  9  2  0  0  0  0
  9 10  1  0  0  0  0
  1 10  1  0  0  0  0
  1 11  2  0  0  0  0
 12 13  1  0  0  0  0
  7 12  1  0  0  0  0
 14 15  1  0  0  0  0
 15 16  1  0  0  0  0
 16 17  2  0  0  0  0
 16 18  1  0  0  0  0
 19 20  1  0  0  0  0
 14 19  1  1  0  0  0
 15 21  1  6  0  0  0
  8 14  1  0  0  0  0
M  END
>  <cdx:groupId>
101297

>  <cdx:fragmentId>
101236

$$$$
