102583.cdx
  Mrv1902 05222410212D          

 76 84  0  0  0  0            999 V2000
   15.0860   -8.6680    0.0000 C   0  0  0  0  0  0  0  0  0  0  0  0
   15.8004   -8.2555    0.0000 C   0  0  0  0  0  0  0  0  0  0  0  0
   16.5149   -8.6680    0.0000 C   0  0  0  0  0  0  0  0  0  0  0  0
   16.5149   -9.4930    0.0000 C   0  0  0  0  0  0  0  0  0  0  0  0
   15.8004   -9.9055    0.0000 C   0  0  2  0  0  0  0  0  0  0  0  0
   15.8004  -10.7305    0.0000 C   0  0  0  0  0  0  0  0  0  0  0  0
   15.0860  -11.1430    0.0000 C   0  0  0  0  0  0  0  0  0  0  0  0
   14.3715  -10.7305    0.0000 C   0  0  1  0  0  0  0  0  0  0  0  0
   13.6570  -11.1430    0.0000 C   0  0  2  0  0  0  0  0  0  0  0  0
   13.6570  -11.9680    0.0000 C   0  0  0  0  0  0  0  0  0  0  0  0
   12.9426  -12.3805    0.0000 C   0  0  0  0  0  0  0  0  0  0  0  0
   12.2281  -11.9680    0.0000 C   0  0  1  0  0  0  0  0  0  0  0  0
   11.5136  -12.3805    0.0000 C   0  0  2  0  0  0  0  0  0  0  0  0
   10.7991  -11.9680    0.0000 C   0  0  2  0  0  0  0  0  0  0  0  0
   10.7991  -11.1430    0.0000 C   0  0  0  0  0  0  0  0  0  0  0  0
   11.5136  -10.7305    0.0000 C   0  0  0  0  0  0  0  0  0  0  0  0
   12.2281  -11.1430    0.0000 C   0  0  2  0  0  0  0  0  0  0  0  0
   12.9426  -10.7305    0.0000 C   0  0  1  0  0  0  0  0  0  0  0  0
   12.9426   -9.9055    0.0000 C   0  0  0  0  0  0  0  0  0  0  0  0
   13.6570   -9.4930    0.0000 C   0  0  0  0  0  0  0  0  0  0  0  0
   14.3715   -9.9055    0.0000 C   0  0  0  0  0  0  0  0  0  0  0  0
   15.0860   -9.4930    0.0000 C   0  0  2  0  0  0  0  0  0  0  0  0
   16.5149  -10.3180    0.0000 C   0  0  0  0  0  0  0  0  0  0  0  0
   16.5149  -11.1430    0.0000 O   0  0  0  0  0  0  0  0  0  0  0  0
   17.2294   -9.9055    0.0000 O   0  0  0  0  0  0  0  0  0  0  0  0
   10.0847  -12.3805    0.0000 O   0  0  0  0  0  0  0  0  0  0  0  0
    9.3702  -11.1430    0.0000 O   0  0  0  0  0  0  0  0  0  0  0  0
    9.3702  -11.9680    0.0000 C   0  0  2  0  0  0  0  0  0  0  0  0
    8.6557  -12.3805    0.0000 C   0  0  1  0  0  0  0  0  0  0  0  0
    7.9413  -11.9680    0.0000 C   0  0  2  0  0  0  0  0  0  0  0  0
    7.9413  -11.1430    0.0000 C   0  0  2  0  0  0  0  0  0  0  0  0
    8.6557  -10.7305    0.0000 C   0  0  0  0  0  0  0  0  0  0  0  0
    7.2268  -10.7305    0.0000 O   0  0  0  0  0  0  0  0  0  0  0  0
    7.2268  -12.3805    0.0000 O   0  0  0  0  0  0  0  0  0  0  0  0
    8.6557  -13.2055    0.0000 O   0  0  0  0  0  0  0  0  0  0  0  0
   11.1011  -13.0949    0.0000 C   0  0  0  0  0  0  0  0  0  0  0  0
   15.3879   -7.5410    0.0000 C   0  0  0  0  0  0  0  0  0  0  0  0
   16.2129   -7.5410    0.0000 C   0  0  0  0  0  0  0  0  0  0  0  0
   11.9261  -13.0949    0.0000 C   0  0  0  0  0  0  0  0  0  0  0  0
   11.5136  -13.8094    0.0000 O   0  0  0  0  0  0  0  0  0  0  0  0
   12.2281  -12.7930    0.0000 H   0  0  0  0  0  0  0  0  0  0  0  0
   14.3715   -9.0805    0.0000 H   0  0  0  0  0  0  0  0  0  0  0  0
   17.9439  -11.1430    0.0000 O   0  0  0  0  0  0  0  0  0  0  0  0
   17.9439  -10.3180    0.0000 C   0  0  2  0  0  0  0  0  0  0  0  0
   18.6583   -9.9055    0.0000 C   0  0  1  0  0  0  0  0  0  0  0  0
   19.3728  -10.3180    0.0000 C   0  0  2  0  0  0  0  0  0  0  0  0
   19.3728  -11.1430    0.0000 C   0  0  1  0  0  0  0  0  0  0  0  0
   18.6583  -11.5555    0.0000 C   0  0  1  0  0  0  0  0  0  0  0  0
   18.6583  -12.3805    0.0000 C   0  0  0  0  0  0  0  0  0  0  0  0
   19.3728  -12.7930    0.0000 O   0  0  0  0  0  0  0  0  0  0  0  0
   18.6583  -14.0305    0.0000 O   0  0  0  0  0  0  0  0  0  0  0  0
   19.3728  -13.6180    0.0000 C   0  0  2  0  0  0  0  0  0  0  0  0
   20.0873  -14.0305    0.0000 C   0  0  1  0  0  0  0  0  0  0  0  0
   20.0873  -14.8555    0.0000 C   0  0  2  0  0  0  0  0  0  0  0  0
   19.3728  -15.2680    0.0000 C   0  0  1  0  0  0  0  0  0  0  0  0
   18.6583  -14.8555    0.0000 C   0  0  0  0  0  0  0  0  0  0  0  0
   19.3728  -16.0930    0.0000 O   0  0  0  0  0  0  0  0  0  0  0  0
   20.8017  -15.2680    0.0000 O   0  0  0  0  0  0  0  0  0  0  0  0
   20.8017  -13.6180    0.0000 O   0  0  0  0  0  0  0  0  0  0  0  0
   18.6583   -9.0805    0.0000 O   0  0  0  0  0  0  0  0  0  0  0  0
   20.0873   -9.0805    0.0000 O   0  0  0  0  0  0  0  0  0  0  0  0
   19.3728   -8.6680    0.0000 C   0  0  2  0  0  0  0  0  0  0  0  0
   19.3728   -7.8430    0.0000 C   0  0  1  0  0  0  0  0  0  0  0  0
   20.0873   -7.4305    0.0000 C   0  0  1  0  0  0  0  0  0  0  0  0
   20.8017   -7.8430    0.0000 C   0  0  2  0  0  0  0  0  0  0  0  0
   20.8017   -8.6680    0.0000 C   0  0  2  0  0  0  0  0  0  0  0  0
   21.5162   -9.0805    0.0000 C   0  0  0  0  0  0  0  0  0  0  0  0
   21.5162   -7.4305    0.0000 O   0  0  0  0  0  0  0  0  0  0  0  0
   20.0873   -6.6055    0.0000 O   0  0  0  0  0  0  0  0  0  0  0  0
   18.6583   -7.4305    0.0000 O   0  0  0  0  0  0  0  0  0  0  0  0
   20.0873  -11.5555    0.0000 O   0  0  0  0  0  0  0  0  0  0  0  0
   20.0873   -9.9055    0.0000 O   0  0  0  0  0  0  0  0  0  0  0  0
   12.2281  -10.3180    0.0000 C   0  0  0  0  0  0  0  0  0  0  0  0
   13.6570  -10.3180    0.0000 C   0  0  0  0  0  0  0  0  0  0  0  0
   12.9426  -11.5610    0.0000 H   0  0  0  0  0  0  0  0  0  0  0  0
   14.3715  -11.5555    0.0000 C   0  0  0  0  0  0  0  0  0  0  0  0
  1  2  1  0  0  0  0
  2  3  1  0  0  0  0
  3  4  1  0  0  0  0
  4  5  1  0  0  0  0
  5  6  1  0  0  0  0
  6  7  1  0  0  0  0
  7  8  1  0  0  0  0
  8  9  1  0  0  0  0
  9 10  1  0  0  0  0
 10 11  1  0  0  0  0
 11 12  1  0  0  0  0
 12 13  1  0  0  0  0
 13 14  1  0  0  0  0
 14 15  1  0  0  0  0
 15 16  1  0  0  0  0
 16 17  1  0  0  0  0
 12 17  1  0  0  0  0
 17 18  1  0  0  0  0
  9 18  1  0  0  0  0
 18 19  1  0  0  0  0
 19 20  1  0  0  0  0
 20 21  2  0  0  0  0
  8 21  1  0  0  0  0
 21 22  1  0  0  0  0
  5 22  1  0  0  0  0
  1 22  1  0  0  0  0
 23 24  2  0  0  0  0
 23 25  1  0  0  0  0
  5 23  1  1  0  0  0
 27 28  1  0  0  0  0
 28 29  1  0  0  0  0
 29 30  1  0  0  0  0
 30 31  1  0  0  0  0
 31 32  1  0  0  0  0
 27 32  1  0  0  0  0
 31 33  1  1  0  0  0
 30 34  1  1  0  0  0
 29 35  1  6  0  0  0
 28 26  1  1  0  0  0
 14 26  1  1  0  0  0
 13 36  1  1  0  0  0
  2 37  1  0  0  0  0
  2 38  1  0  0  0  0
 39 40  1  0  0  0  0
 13 39  1  6  0  0  0
 12 41  1  6  0  0  0
 22 42  1  1  0  0  0
 43 44  1  0  0  0  0
 44 45  1  0  0  0  0
 45 46  1  0  0  0  0
 46 47  1  0  0  0  0
 47 48  1  0  0  0  0
 43 48  1  0  0  0  0
 51 52  1  0  0  0  0
 52 53  1  0  0  0  0
 53 54  1  0  0  0  0
 54 55  1  0  0  0  0
 55 56  1  0  0  0  0
 51 56  1  0  0  0  0
 55 57  1  6  0  0  0
 54 58  1  1  0  0  0
 53 59  1  6  0  0  0
 52 50  1  1  0  0  0
 49 50  1  0  0  0  0
 48 49  1  1  0  0  0
 61 62  1  0  0  0  0
 62 63  1  0  0  0  0
 63 64  1  0  0  0  0
 64 65  1  0  0  0  0
 65 66  1  0  0  0  0
 61 66  1  0  0  0  0
 66 67  1  6  0  0  0
 65 68  1  1  0  0  0
 64 69  1  6  0  0  0
 63 70  1  6  0  0  0
 62 60  1  1  0  0  0
 45 60  1  6  0  0  0
 47 71  1  6  0  0  0
 46 72  1  1  0  0  0
 44 25  1  1  0  0  0
 17 73  1  1  0  0  0
  9 74  1  1  0  0  0
 18 75  1  6  0  0  0
  8 76  1  6  0  0  0
M  END
>  <cdx:fragmentId>
41047

$$$$
