102553.cdx
  Mrv1902 05222410222D          

 14 15  0  0  0  0            999 V2000
    3.3620   -4.6782    0.0000 C   0  0  0  0  0  0  0  0  0  0  0  0
    2.6475   -5.0907    0.0000 C   0  0  0  0  0  0  0  0  0  0  0  0
    3.3620   -3.8532    0.0000 O   0  0  0  0  0  0  0  0  0  0  0  0
    4.0765   -5.0907    0.0000 O   0  0  0  0  0  0  0  0  0  0  0  0
    5.5054   -3.4407    0.0000 C   0  0  0  0  0  0  0  0  0  0  0  0
    4.7909   -3.8532    0.0000 C   0  0  0  0  0  0  0  0  0  0  0  0
    4.7909   -4.6782    0.0000 C   0  0  0  0  0  0  0  0  0  0  0  0
    5.5054   -5.0907    0.0000 C   0  0  0  0  0  0  0  0  0  0  0  0
    6.2199   -4.6782    0.0000 C   0  0  0  0  0  0  0  0  0  0  0  0
    6.2199   -3.8532    0.0000 C   0  0  0  0  0  0  0  0  0  0  0  0
    5.6880   -4.1601    0.0000 C   0  0  0  0  0  0  0  0  0  0  0  0
    4.0765   -3.4407    0.0000 C   0  0  0  0  0  0  0  0  0  0  0  0
    6.6324   -3.1387    0.0000 C   0  0  0  0  0  0  0  0  0  0  0  0
    7.0449   -3.8532    0.0000 C   0  0  0  0  0  0  0  0  0  0  0  0
  1  2  1  0  0  0  0
  1  3  2  0  0  0  0
  1  4  1  0  0  0  0
  5  6  1  0  0  0  0
  6  7  1  0  0  0  0
  7  8  1  0  0  0  0
  8  9  1  0  0  0  0
  9 10  1  0  0  0  0
  5 10  1  0  0  0  0
  5 11  1  0  0  0  0
 11  9  1  0  0  0  0
  6 12  2  0  0  0  0
 10 13  1  0  0  0  0
 10 14  1  0  0  0  0
  4  7  1  0  0  0  0
M  END
>  <cdx:groupId>
45

>  <cdx:fragmentId>
13

$$$$
