10257.cdx
  Mrv1902 05222410232D          

  7  7  0  0  0  0            999 V2000
    6.0230   -4.8950    0.0000 C   0  0  0  0  0  0  0  0  0  0  0  0
    6.0230   -5.7200    0.0000 C   0  0  0  0  0  0  0  0  0  0  0  0
    6.7375   -6.1325    0.0000 N   0  0  0  0  0  0  0  0  0  0  0  0
    7.4520   -5.7200    0.0000 C   0  0  0  0  0  0  0  0  0  0  0  0
    7.4520   -4.8950    0.0000 C   0  0  0  0  0  0  0  0  0  0  0  0
    6.7375   -4.4825    0.0000 C   0  0  0  0  0  0  0  0  0  0  0  0
    5.3086   -6.1325    0.0000 O   0  0  0  0  0  0  0  0  0  0  0  0
  1  2  1  0  0  0  0
  2  3  1  0  0  0  0
  3  4  1  0  0  0  0
  4  5  1  0  0  0  0
  5  6  1  0  0  0  0
  6  1  1  0  0  0  0
  2  7  2  0  0  0  0
M  END
>  <cdx:fragmentId>
54

$$$$
