10254.cdx
  Mrv1902 05222410222D          

 11 11  0  0  0  0            999 V2000
    3.1695   -2.9827    0.0000 C   0  0  0  0  0  0  0  0  0  0  0  0
    3.8840   -3.3952    0.0000 C   0  0  0  0  0  0  0  0  0  0  0  0
    4.5984   -2.9827    0.0000 C   0  0  0  0  0  0  0  0  0  0  0  0
    5.3129   -3.3952    0.0000 C   0  0  0  0  0  0  0  0  0  0  0  0
    5.3129   -4.2202    0.0000 C   0  0  0  0  0  0  0  0  0  0  0  0
    4.5984   -4.6327    0.0000 C   0  0  0  0  0  0  0  0  0  0  0  0
    3.8840   -4.2202    0.0000 C   0  0  0  0  0  0  0  0  0  0  0  0
    2.4550   -3.3952    0.0000 O   0  0  0  0  0  0  0  0  0  0  0  0
    3.1695   -4.6327    0.0000 C   0  0  0  0  0  0  0  0  0  0  0  0
    6.0274   -4.6327    0.0000 C   0  0  0  0  0  0  0  0  0  0  0  0
    4.5984   -2.1577    0.0000 C   0  0  0  0  0  0  0  0  0  0  0  0
  1  2  1  0  0  0  0
  2  3  1  0  0  0  0
  3  4  2  0  0  0  0
  4  5  1  0  0  0  0
  5  6  2  0  0  0  0
  6  7  1  0  0  0  0
  2  7  2  0  0  0  0
  1  8  2  0  0  0  0
  7  9  1  0  0  0  0
  5 10  1  0  0  0  0
  3 11  1  0  0  0  0
M  END
>  <cdx:groupId>
35

>  <cdx:fragmentId>
5

$$$$
