102684.cdx
  Mrv1902 05222410192D          

 11 11  0  0  0  0            999 V2000
    6.5427   -5.1436    0.0000 C   0  0  0  0  0  0  0  0  0  0  0  0
    5.7890   -5.4792    0.0000 C   0  0  0  0  0  0  0  0  0  0  0  0
    5.2370   -4.8661    0.0000 C   0  0  0  0  0  0  0  0  0  0  0  0
    5.6495   -4.1516    0.0000 C   0  0  0  0  0  0  0  0  0  0  0  0
    6.4565   -4.3231    0.0000 C   0  0  0  0  0  0  0  0  0  0  0  0
    7.2572   -5.5561    0.0000 C   0  0  0  0  0  0  0  0  0  0  0  0
    7.9717   -5.1436    0.0000 O   0  0  0  0  0  0  0  0  0  0  0  0
    6.8980   -2.9641    0.0000 C   0  0  0  0  0  0  0  0  0  0  0  0
    7.0696   -3.7711    0.0000 C   0  0  0  0  0  0  0  0  0  0  0  0
    7.8542   -4.0260    0.0000 C   0  0  0  0  0  0  0  0  0  0  0  0
    5.6175   -6.2862    0.0000 C   0  0  0  0  0  0  0  0  0  0  0  0
  1  2  1  0  0  0  0
  2  3  1  0  0  0  0
  3  4  1  0  0  0  0
  4  5  1  0  0  0  0
  1  5  1  0  0  0  0
  6  7  2  0  0  0  0
  1  6  1  0  0  0  0
  8  9  2  0  0  0  0
  9 10  1  0  0  0  0
  5  9  1  0  0  0  0
  2 11  1  0  0  0  0
M  END
>  <cdx:fragmentId>
5

$$$$
