1026.cdx
  Mrv1902 05222410232D          

 23 26  0  0  0  0            999 V2000
    4.3758   -7.6725    0.0000 C   0  0  0  0  0  0  0  0  0  0  0  0
    4.3758   -8.4975    0.0000 C   0  0  0  0  0  0  0  0  0  0  0  0
    5.0902   -8.9100    0.0000 C   0  0  0  0  0  0  0  0  0  0  0  0
    5.8047   -8.4975    0.0000 N   0  0  0  0  0  0  0  0  0  0  0  0
    5.8047   -7.6725    0.0000 C   0  0  1  0  0  0  0  0  0  0  0  0
    5.0902   -7.2600    0.0000 C   0  0  2  0  0  0  0  0  0  0  0  0
    6.5192   -8.9100    0.0000 C   0  0  0  0  0  0  0  0  0  0  0  0
    7.2337   -8.4975    0.0000 C   0  0  0  0  0  0  0  0  0  0  0  0
    7.2337   -7.6725    0.0000 C   0  0  0  0  0  0  0  0  0  0  0  0
    6.5192   -7.2600    0.0000 C   0  0  2  0  0  0  0  0  0  0  0  0
    6.5192   -6.4350    0.0000 C   0  0  2  0  0  0  0  0  0  0  0  0
    5.8047   -6.0225    0.0000 N   0  0  0  0  0  0  0  0  0  0  0  0
    5.0902   -6.4350    0.0000 C   0  0  0  0  0  0  0  0  0  0  0  0
    7.2337   -6.0225    0.0000 C   0  0  0  0  0  0  0  0  0  0  0  0
    7.2337   -5.1975    0.0000 C   0  0  0  0  0  0  0  0  0  0  0  0
    6.5192   -4.7850    0.0000 C   0  0  1  0  0  0  0  0  0  0  0  0
    5.8047   -5.1975    0.0000 C   0  0  0  0  0  0  0  0  0  0  0  0
    6.5192   -3.9600    0.0000 O   0  0  0  0  0  0  0  0  0  0  0  0
    7.2337   -6.8475    0.0000 H   0  0  0  0  0  0  0  0  0  0  0  0
    5.0902   -8.0850    0.0000 H   0  0  0  0  0  0  0  0  0  0  0  0
    6.5192   -8.0850    0.0000 H   0  0  0  0  0  0  0  0  0  0  0  0
    5.8047   -6.8475    0.0000 H   0  0  0  0  0  0  0  0  0  0  0  0
    5.0902   -4.7850    0.0000 O   0  0  0  0  0  0  0  0  0  0  0  0
  1  2  1  0  0  0  0
  2  3  1  0  0  0  0
  3  4  1  0  0  0  0
  4  5  1  0  0  0  0
  5  6  1  0  0  0  0
  6  1  1  0  0  0  0
  4  7  1  0  0  0  0
  7  8  1  0  0  0  0
  8  9  1  0  0  0  0
  9 10  1  0  0  0  0
 10  5  1  0  0  0  0
 10 11  1  0  0  0  0
 11 12  1  0  0  0  0
 12 13  1  0  0  0  0
 13  6  1  0  0  0  0
 11 14  1  0  0  0  0
 14 15  1  0  0  0  0
 15 16  1  0  0  0  0
 16 17  1  0  0  0  0
 17 12  1  0  0  0  0
 16 18  1  1  0  0  0
 11 19  1  1  0  0  0
  6 20  1  6  0  0  0
 10 21  1  6  0  0  0
  5 22  1  6  0  0  0
 17 23  2  0  0  0  0
M  END
>  <cdx:fragmentId>
5

$$$$
