102611.cdx
  Mrv1902 05222410252D          

 12 12  0  0  0  0            999 V2000
    6.2621   -4.5589    0.0000 C   0  0  0  0  0  0  0  0  0  0  0  0
    6.9766   -4.9714    0.0000 C   0  0  0  0  0  0  0  0  0  0  0  0
    7.6911   -4.5589    0.0000 C   0  0  0  0  0  0  0  0  0  0  0  0
    8.4055   -4.9714    0.0000 C   0  0  0  0  0  0  0  0  0  0  0  0
    9.1200   -4.5589    0.0000 C   0  0  0  0  0  0  0  0  0  0  0  0
    4.7226   -4.9714    0.0000 O   0  0  0  0  0  0  0  0  0  0  0  0
    5.5476   -4.9714    0.0000 C   0  0  0  0  0  0  0  0  0  0  0  0
    5.1351   -5.6859    0.0000 C   0  0  0  0  0  0  0  0  0  0  0  0
    5.7185   -6.2693    0.0000 C   0  0  0  0  0  0  0  0  0  0  0  0
    4.5518   -6.2693    0.0000 C   0  0  0  0  0  0  0  0  0  0  0  0
    8.2744   -3.9756    0.0000 O   0  0  0  0  0  0  0  0  0  0  0  0
    7.1077   -3.9756    0.0000 C   0  0  0  0  0  0  0  0  0  0  0  0
  1  2  1  0  0  0  0
  2  3  1  0  0  0  0
  3  4  1  0  0  0  0
  4  5  2  0  0  0  0
  6  7  1  0  0  0  0
  7  8  1  0  0  0  0
  6  8  1  0  0  0  0
  1  7  1  0  0  0  0
  8  9  1  0  0  0  0
  8 10  1  0  0  0  0
  3 11  1  0  0  0  0
  3 12  1  0  0  0  0
M  END
>  <cdx:fragmentId>
5

$$$$
