10276.cdx
  Mrv1902 05222410252D          

 15 15  0  0  0  0            999 V2000
    8.3772   -3.9608    0.0000 C   0  0  0  0  0  0  0  0  0  0  0  0
    7.6627   -4.3733    0.0000 C   0  0  0  0  0  0  0  0  0  0  0  0
    7.6627   -5.1983    0.0000 C   0  0  0  0  0  0  0  0  0  0  0  0
    6.9483   -5.6108    0.0000 C   0  0  0  0  0  0  0  0  0  0  0  0
    6.2338   -5.1983    0.0000 C   0  0  0  0  0  0  0  0  0  0  0  0
    6.2338   -4.3733    0.0000 C   0  0  0  0  0  0  0  0  0  0  0  0
    6.9483   -3.9608    0.0000 C   0  0  0  0  0  0  0  0  0  0  0  0
    8.3772   -3.1358    0.0000 O   0  0  0  0  0  0  0  0  0  0  0  0
    9.0917   -4.3733    0.0000 O   0  0  0  0  0  0  0  0  0  0  0  0
    5.5193   -3.9608    0.0000 O   0  0  0  0  0  0  0  0  0  0  0  0
    4.8049   -4.3733    0.0000 C   0  0  0  0  0  0  0  0  0  0  0  0
    5.5193   -5.6108    0.0000 O   0  0  0  0  0  0  0  0  0  0  0  0
    4.8049   -5.1983    0.0000 C   0  0  0  0  0  0  0  0  0  0  0  0
    8.3772   -5.6108    0.0000 O   0  0  0  0  0  0  0  0  0  0  0  0
    9.0917   -5.1983    0.0000 C   0  0  0  0  0  0  0  0  0  0  0  0
  1  2  1  0  0  0  0
  2  3  1  0  0  0  0
  3  4  2  0  0  0  0
  4  5  1  0  0  0  0
  5  6  2  0  0  0  0
  6  7  1  0  0  0  0
  2  7  2  0  0  0  0
  1  8  2  0  0  0  0
  1  9  1  0  0  0  0
 10 11  1  0  0  0  0
  6 10  1  0  0  0  0
 12 13  1  0  0  0  0
  5 12  1  0  0  0  0
 14 15  1  0  0  0  0
  3 14  1  0  0  0  0
M  END
>  <cdx:fragmentId>
5

$$$$
