1027.cdx
  Mrv1902 05222410232D          

 23 26  0  0  0  0            999 V2000
    7.2947   -6.5263    0.0000 C   0  0  0  0  0  0  0  0  0  0  0  0
    6.5803   -6.1137    0.0000 C   0  0  1  0  0  0  0  0  0  0  0  0
    5.8658   -6.5262    0.0000 C   0  0  0  0  0  0  0  0  0  0  0  0
    5.8657   -7.3512    0.0000 N   0  0  0  0  0  0  0  0  0  0  0  0
    6.5802   -7.7637    0.0000 C   0  0  2  0  0  0  0  0  0  0  0  0
    7.2947   -7.3513    0.0000 C   0  0  0  0  0  0  0  0  0  0  0  0
    5.1513   -7.7637    0.0000 C   0  0  0  0  0  0  0  0  0  0  0  0
    5.1512   -8.5887    0.0000 C   0  0  2  0  0  0  0  0  0  0  0  0
    5.8657   -9.0012    0.0000 C   0  0  1  0  0  0  0  0  0  0  0  0
    6.5802   -8.5887    0.0000 C   0  0  2  0  0  0  0  0  0  0  0  0
    4.4367   -9.0011    0.0000 C   0  0  0  0  0  0  0  0  0  0  0  0
    4.4367   -9.8261    0.0000 C   0  0  0  0  0  0  0  0  0  0  0  0
    5.1511  -10.2387    0.0000 C   0  0  0  0  0  0  0  0  0  0  0  0
    5.8656   -9.8262    0.0000 N   0  0  0  0  0  0  0  0  0  0  0  0
    6.5801  -10.2387    0.0000 C   0  0  0  0  0  0  0  0  0  0  0  0
    7.2946   -9.8263    0.0000 C   0  0  0  0  0  0  0  0  0  0  0  0
    7.2946   -9.0013    0.0000 C   0  0  0  0  0  0  0  0  0  0  0  0
    5.1513   -6.1137    0.0000 O   0  0  0  0  0  0  0  0  0  0  0  0
    5.8657   -8.1762    0.0000 H   0  0  0  0  0  0  0  0  0  0  0  0
    4.4368   -8.1761    0.0000 H   0  0  0  0  0  0  0  0  0  0  0  0
    7.2947   -8.1763    0.0000 H   0  0  0  0  0  0  0  0  0  0  0  0
    6.5801   -9.4137    0.0000 H   0  0  0  0  0  0  0  0  0  0  0  0
    6.5803   -5.2887    0.0000 O   0  0  0  0  0  0  0  0  0  0  0  0
  1  2  1  0  0  0  0
  2  3  1  0  0  0  0
  3  4  1  0  0  0  0
  4  5  1  0  0  0  0
  5  6  1  0  0  0  0
  6  1  1  0  0  0  0
  4  7  1  0  0  0  0
  7  8  1  0  0  0  0
  8  9  1  0  0  0  0
  9 10  1  0  0  0  0
 10  5  1  0  0  0  0
  8 11  1  0  0  0  0
 11 12  1  0  0  0  0
 12 13  1  0  0  0  0
 13 14  1  0  0  0  0
 14  9  1  0  0  0  0
 14 15  1  0  0  0  0
 15 16  1  0  0  0  0
 16 17  1  0  0  0  0
 17 10  1  0  0  0  0
  3 18  2  0  0  0  0
  5 19  1  1  0  0  0
  8 20  1  1  0  0  0
 10 21  1  6  0  0  0
  9 22  1  6  0  0  0
  2 23  1  1  0  0  0
M  END
>  <cdx:fragmentId>
5

$$$$
