102855.cdx
  Mrv1902 05222410272D          

 13 12  0  0  0  0            999 V2000
    5.0696   -4.7239    0.0000 C   0  0  0  0  0  0  0  0  0  0  0  0
    4.3552   -5.1364    0.0000 C   0  0  0  0  0  0  0  0  0  0  0  0
    3.6407   -4.7239    0.0000 C   0  0  0  0  0  0  0  0  0  0  0  0
    2.9262   -5.1364    0.0000 C   0  0  0  0  0  0  0  0  0  0  0  0
    2.2117   -4.7239    0.0000 C   0  0  0  0  0  0  0  0  0  0  0  0
    1.4973   -5.1364    0.0000 C   0  0  0  0  0  0  0  0  0  0  0  0
    5.0696   -3.8989    0.0000 O   0  0  0  0  0  0  0  0  0  0  0  0
    5.7841   -5.1364    0.0000 O   0  0  0  0  0  0  0  0  0  0  0  0
    6.4986   -4.7239    0.0000 C   0  0  0  0  0  0  0  0  0  0  0  0
    7.2130   -5.1364    0.0000 C   0  0  0  0  0  0  0  0  0  0  0  0
    7.9275   -4.7239    0.0000 C   0  0  0  0  0  0  0  0  0  0  0  0
    8.6420   -5.1364    0.0000 C   0  0  0  0  0  0  0  0  0  0  0  0
    7.2130   -5.9614    0.0000 C   0  0  0  0  0  0  0  0  0  0  0  0
  1  2  1  0  0  0  0
  2  3  1  0  0  0  0
  3  4  1  0  0  0  0
  4  5  1  0  0  0  0
  5  6  1  0  0  0  0
  1  7  2  0  0  0  0
  1  8  1  0  0  0  0
  9 10  1  0  0  0  0
 10 11  1  0  0  0  0
 11 12  1  0  0  0  0
 10 13  1  0  0  0  0
  8  9  1  0  0  0  0
M  END
>  <cdx:groupId>
40

>  <cdx:fragmentId>
5

$$$$
