102817.cdx
  Mrv1902 05222410222D          

 10  9  0  0  0  0            999 V2000
    4.4723   -2.6408    0.0000 C   0  0  0  0  0  0  0  0  0  0  0  0
    3.7578   -3.0533    0.0000 C   0  0  0  0  0  0  0  0  0  0  0  0
    3.0434   -2.6408    0.0000 C   0  0  0  0  0  0  0  0  0  0  0  0
    4.4723   -1.8158    0.0000 O   0  0  0  0  0  0  0  0  0  0  0  0
    5.1868   -3.0533    0.0000 O   0  0  0  0  0  0  0  0  0  0  0  0
    5.9012   -2.6408    0.0000 C   0  0  0  0  0  0  0  0  0  0  0  0
    6.6157   -3.0533    0.0000 C   0  0  0  0  0  0  0  0  0  0  0  0
    7.3302   -2.6408    0.0000 C   0  0  0  0  0  0  0  0  0  0  0  0
    8.0446   -3.0533    0.0000 C   0  0  0  0  0  0  0  0  0  0  0  0
    6.6157   -3.8783    0.0000 C   0  0  0  0  0  0  0  0  0  0  0  0
  1  2  1  0  0  0  0
  2  3  1  0  0  0  0
  1  4  2  0  0  0  0
  1  5  1  0  0  0  0
  6  7  1  0  0  0  0
  7  8  1  0  0  0  0
  8  9  1  0  0  0  0
  7 10  1  0  0  0  0
  5  6  1  0  0  0  0
M  END
>  <cdx:groupId>
31

>  <cdx:fragmentId>
15

$$$$
