1028.cdx
  Mrv1902 05222410242D          

 19 19  0  0  0  0            999 V2000
    9.0737   -5.9668    0.0000 O   0  0  0  0  0  0  0  0  0  0  0  0
    9.7899   -7.2033    0.0000 O   0  0  0  0  0  0  0  0  0  0  0  0
    9.0772   -8.4418    0.0000 O   0  0  0  0  0  0  0  0  0  0  0  0
    8.3598   -6.3804    0.0000 C   0  0  0  0  0  0  0  0  0  0  0  0
    9.0761   -7.6168    0.0000 C   0  0  0  0  0  0  0  0  0  0  0  0
    8.3610   -7.2054    0.0000 C   0  0  0  0  0  0  0  0  0  0  0  0
    6.9309   -6.3824    0.0000 O   0  0  0  0  0  0  0  0  0  0  0  0
    7.6471   -7.6189    0.0000 O   0  0  0  0  0  0  0  0  0  0  0  0
    6.9321   -7.2074    0.0000 C   0  0  0  0  0  0  0  0  0  0  0  0
    6.2182   -7.6209    0.0000 C   0  0  0  0  0  0  0  0  0  0  0  0
    5.5031   -7.2095    0.0000 C   0  0  0  0  0  0  0  0  0  0  0  0
    2.6452   -7.2136    0.0000 O   0  0  0  0  0  0  0  0  0  0  0  0
    2.6476   -8.8636    0.0000 O   0  0  0  0  0  0  0  0  0  0  0  0
    4.7904   -8.4480    0.0000 C   0  0  0  0  0  0  0  0  0  0  0  0
    4.7892   -7.6230    0.0000 C   0  0  0  0  0  0  0  0  0  0  0  0
    4.0742   -7.2115    0.0000 C   0  0  0  0  0  0  0  0  0  0  0  0
    3.3603   -7.6250    0.0000 C   0  0  0  0  0  0  0  0  0  0  0  0
    3.3615   -8.4500    0.0000 C   0  0  0  0  0  0  0  0  0  0  0  0
    4.0765   -8.8615    0.0000 C   0  0  0  0  0  0  0  0  0  0  0  0
  4  1  1  0  0  0  0
  5  2  1  0  0  0  0
  5  3  2  0  0  0  0
  6  4  1  0  0  0  0
  6  5  1  0  0  0  0
  8  6  1  0  0  0  0
  9  7  2  0  0  0  0
  9  8  1  0  0  0  0
 10  9  1  0  0  0  0
 11 10  2  0  0  0  0
 15 11  1  0  0  0  0
 17 12  1  0  0  0  0
 18 13  1  0  0  0  0
 14 19  1  0  0  0  0
 15 14  2  0  0  0  0
 16 15  1  0  0  0  0
 17 16  2  0  0  0  0
 18 17  1  0  0  0  0
 19 18  2  0  0  0  0
M  END
>  <cdx:fragmentId>
5

$$$$
