10281.cdx
  Mrv1902 05222410222D          

 12 12  0  0  0  0            999 V2000
    7.9140   -6.8609    0.0000 C   0  0  0  0  0  0  0  0  0  0  0  0
    7.1983   -7.2714    0.0000 C   0  0  0  0  0  0  0  0  0  0  0  0
    6.4850   -6.8568    0.0000 C   0  0  0  0  0  0  0  0  0  0  0  0
    6.4874   -6.0318    0.0000 C   0  0  0  0  0  0  0  0  0  0  0  0
    7.2031   -5.6214    0.0000 C   0  0  0  0  0  0  0  0  0  0  0  0
    7.9163   -6.0359    0.0000 C   0  0  0  0  0  0  0  0  0  0  0  0
    8.6272   -7.2755    0.0000 O   0  0  0  0  0  0  0  0  0  0  0  0
    5.7741   -5.6173    0.0000 O   0  0  0  0  0  0  0  0  0  0  0  0
    7.9211   -4.3860    0.0000 C   0  0  0  0  0  0  0  0  0  0  0  0
    7.2054   -4.7964    0.0000 C   0  0  0  0  0  0  0  0  0  0  0  0
    6.4921   -4.3818    0.0000 C   0  0  0  0  0  0  0  0  0  0  0  0
    7.1959   -8.0964    0.0000 C   0  0  0  0  0  0  0  0  0  0  0  0
  1  2  1  0  0  0  0
  2  3  2  0  0  0  0
  3  4  1  0  0  0  0
  4  5  1  0  0  0  0
  5  6  2  0  0  0  0
  1  6  1  0  0  0  0
  1  7  2  0  0  0  0
  4  8  2  0  0  0  0
  9 10  1  0  0  0  0
 10 11  1  0  0  0  0
  5 10  1  0  0  0  0
  2 12  1  0  0  0  0
M  END
>  <cdx:fragmentId>
5

$$$$
