10297.cdx
  Mrv1902 05222410222D          

 11 11  0  0  0  0            999 V2000
    6.7468   -7.7105    0.0000 C   0  0  2  0  0  0  0  0  0  0  0  0
    7.4615   -7.2983    0.0000 C   0  0  1  0  0  0  0  0  0  0  0  0
    7.4619   -6.4733    0.0000 N   0  0  0  0  0  0  0  0  0  0  0  0
    6.0326   -7.2977    0.0000 O   0  0  0  0  0  0  0  0  0  0  0  0
    6.7464   -8.5355    0.0000 C   0  0  0  0  0  0  0  0  0  0  0  0
    7.4607   -8.9483    0.0000 C   0  0  0  0  0  0  0  0  0  0  0  0
    7.4603   -9.7733    0.0000 C   0  0  0  0  0  0  0  0  0  0  0  0
    6.7457  -10.1855    0.0000 C   0  0  0  0  0  0  0  0  0  0  0  0
    6.0314   -9.7727    0.0000 C   0  0  0  0  0  0  0  0  0  0  0  0
    6.0318   -8.9477    0.0000 C   0  0  0  0  0  0  0  0  0  0  0  0
    8.1758   -7.7112    0.0000 C   0  0  0  0  0  0  0  0  0  0  0  0
  1  2  1  0  0  0  0
  2  3  1  1  0  0  0
  1  4  1  1  0  0  0
  5  6  1  0  0  0  0
  6  7  2  0  0  0  0
  7  8  1  0  0  0  0
  8  9  2  0  0  0  0
  9 10  1  0  0  0  0
  5 10  2  0  0  0  0
  1  5  1  0  0  0  0
  2 11  1  0  0  0  0
M  END
>  <cdx:fragmentId>
13

$$$$
