1029.cdx
  Mrv1902 05222410242D          

 20 21  0  0  0  0            999 V2000
    8.9253   -6.6061    0.0000 O   0  0  0  0  0  0  0  0  0  0  0  0
   10.3693   -9.1258    0.0000 O   0  0  0  0  0  0  0  0  0  0  0  0
   10.2003   -8.3183    0.0000 C   0  0  1  0  0  0  0  0  0  0  0  0
   10.7543   -7.7070    0.0000 C   0  0  0  0  0  0  0  0  0  0  0  0
   10.3441   -6.9912    0.0000 O   0  0  0  0  0  0  0  0  0  0  0  0
    9.5366   -7.1601    0.0000 C   0  0  0  0  0  0  0  0  0  0  0  0
    9.4477   -7.9803    0.0000 C   0  0  2  0  0  0  0  0  0  0  0  0
    8.0214   -7.1507    0.0000 O   0  0  0  0  0  0  0  0  0  0  0  0
    8.7319   -8.3905    0.0000 O   0  0  0  0  0  0  0  0  0  0  0  0
    8.0188   -7.9757    0.0000 C   0  0  0  0  0  0  0  0  0  0  0  0
    7.3030   -8.3859    0.0000 C   0  0  0  0  0  0  0  0  0  0  0  0
    6.5899   -7.9712    0.0000 C   0  0  0  0  0  0  0  0  0  0  0  0
    3.7320   -7.9620    0.0000 O   0  0  0  0  0  0  0  0  0  0  0  0
    3.7267   -9.6120    0.0000 O   0  0  0  0  0  0  0  0  0  0  0  0
    5.8714   -9.2064    0.0000 C   0  0  0  0  0  0  0  0  0  0  0  0
    5.8741   -8.3814    0.0000 C   0  0  0  0  0  0  0  0  0  0  0  0
    5.1609   -7.9666    0.0000 C   0  0  0  0  0  0  0  0  0  0  0  0
    4.4451   -8.3768    0.0000 C   0  0  0  0  0  0  0  0  0  0  0  0
    4.4425   -9.2018    0.0000 C   0  0  0  0  0  0  0  0  0  0  0  0
    5.1556   -9.6166    0.0000 C   0  0  0  0  0  0  0  0  0  0  0  0
  6  1  2  0  0  0  0
  3  2  1  6  0  0  0
  3  7  1  0  0  0  0
  4  3  1  0  0  0  0
  5  4  1  0  0  0  0
  6  5  1  0  0  0  0
  7  6  1  0  0  0  0
  7  9  1  1  0  0  0
 10  8  2  0  0  0  0
 10  9  1  0  0  0  0
 11 10  1  0  0  0  0
 12 11  2  0  0  0  0
 16 12  1  0  0  0  0
 18 13  1  0  0  0  0
 19 14  1  0  0  0  0
 15 20  1  0  0  0  0
 16 15  2  0  0  0  0
 17 16  1  0  0  0  0
 18 17  2  0  0  0  0
 19 18  1  0  0  0  0
 20 19  2  0  0  0  0
M  END
>  <cdx:fragmentId>
90

$$$$
