103.cdx
  Mrv1902 05222410202D          

 30 34  0  0  0  0            999 V2000
    4.1197   -8.7801    0.0000 C   0  0  0  0  0  0  0  0  0  0  0  0
    4.1197   -9.6051    0.0000 C   0  0  1  0  0  0  0  0  0  0  0  0
    4.8341  -10.0176    0.0000 C   0  0  0  0  0  0  0  0  0  0  0  0
    5.5486   -9.6051    0.0000 C   0  0  2  0  0  0  0  0  0  0  0  0
    5.5486   -8.7801    0.0000 C   0  0  2  0  0  0  0  0  0  0  0  0
    4.8341   -8.3676    0.0000 C   0  0  0  0  0  0  0  0  0  0  0  0
    6.2631  -10.0176    0.0000 C   0  0  0  0  0  0  0  0  0  0  0  0
    6.9775   -9.6051    0.0000 C   0  0  0  0  0  0  0  0  0  0  0  0
    6.9775   -8.7801    0.0000 C   0  0  0  0  0  0  0  0  0  0  0  0
    6.2631   -8.3676    0.0000 C   0  0  2  0  0  0  0  0  0  0  0  0
    7.6920   -8.3676    0.0000 C   0  0  0  0  0  0  0  0  0  0  0  0
    7.6920   -7.5426    0.0000 C   0  0  2  0  0  0  0  0  0  0  0  0
    6.9775   -7.1301    0.0000 C   0  0  0  0  0  0  0  0  0  0  0  0
    6.2631   -7.5426    0.0000 C   0  0  0  0  0  0  0  0  0  0  0  0
    8.4766   -8.6226    0.0000 C   0  0  0  0  0  0  0  0  0  0  0  0
    8.9616   -7.9551    0.0000 C   0  0  1  0  0  0  0  0  0  0  0  0
    8.4766   -7.2877    0.0000 C   0  0  2  0  0  0  0  0  0  0  0  0
    8.7316   -6.5031    0.0000 C   0  0  0  0  0  0  0  0  0  0  0  0
    9.5385   -6.3316    0.0000 C   0  0  0  0  0  0  0  0  0  0  0  0
    8.1795   -5.8900    0.0000 C   0  0  0  0  0  0  0  0  0  0  0  0
    9.7935   -5.5469    0.0000 C   0  0  0  0  0  0  0  0  0  0  0  0
    8.4345   -5.1054    0.0000 O   0  0  0  0  0  0  0  0  0  0  0  0
    9.2415   -4.9338    0.0000 C   0  0  0  0  0  0  0  0  0  0  0  0
    9.4964   -4.1492    0.0000 O   0  0  0  0  0  0  0  0  0  0  0  0
    3.4052  -10.0176    0.0000 O   0  0  0  0  0  0  0  0  0  0  0  0
    5.5486   -7.9551    0.0000 C   0  0  0  0  0  0  0  0  0  0  0  0
    5.5486  -10.4301    0.0000 H   0  0  0  0  0  0  0  0  0  0  0  0
    7.7783   -6.7222    0.0000 C   0  0  0  0  0  0  0  0  0  0  0  0
    9.7866   -7.9551    0.0000 O   0  0  0  0  0  0  0  0  0  0  0  0
    6.2631   -9.1926    0.0000 H   0  0  0  0  0  0  0  0  0  0  0  0
  1  2  1  0  0  0  0
  2  3  1  0  0  0  0
  3  4  1  0  0  0  0
  4  5  1  0  0  0  0
  5  6  1  0  0  0  0
  6  1  1  0  0  0  0
  4  7  1  0  0  0  0
  7  8  1  0  0  0  0
  8  9  1  0  0  0  0
  9 10  1  0  0  0  0
 10  5  1  0  0  0  0
  9 11  2  0  0  0  0
 11 12  1  0  0  0  0
 12 13  1  0  0  0  0
 13 14  1  0  0  0  0
 14 10  1  0  0  0  0
 11 15  1  0  0  0  0
 15 16  1  0  0  0  0
 16 17  1  0  0  0  0
 17 12  1  0  0  0  0
 17 18  1  1  0  0  0
 18 19  1  0  0  0  0
 18 20  2  0  0  0  0
 19 21  2  0  0  0  0
 20 22  1  0  0  0  0
 21 23  1  0  0  0  0
 22 23  1  0  0  0  0
 23 24  2  0  0  0  0
  2 25  1  1  0  0  0
  5 26  1  1  0  0  0
  4 27  1  1  0  0  0
 12 28  1  1  0  0  0
 16 29  1  1  0  0  0
 10 30  1  6  0  0  0
M  END
>  <cdx:fragmentId>
362

$$$$
