10319.cdx
  Mrv1902 05222410212D          

 31 34  0  0  0  0            999 V2000
    7.0731  -11.1176    0.0000 C   0  0  1  0  0  0  0  0  0  0  0  0
    7.7864  -11.5321    0.0000 C   0  0  1  0  0  0  0  0  0  0  0  0
    8.5021  -11.1216    0.0000 C   0  0  2  0  0  0  0  0  0  0  0  0
    8.5044  -10.2966    0.0000 C   0  0  2  0  0  0  0  0  0  0  0  0
    7.7910   -9.8821    0.0000 C   0  0  1  0  0  0  0  0  0  0  0  0
    7.0754  -10.2926    0.0000 O   0  0  0  0  0  0  0  0  0  0  0  0
    7.7934   -9.0571    0.0000 O   0  0  0  0  0  0  0  0  0  0  0  0
    7.0800   -8.6427    0.0000 C   0  0  1  0  0  0  0  0  0  0  0  0
    6.3644   -9.0532    0.0000 C   0  0  0  0  0  0  0  0  0  0  0  0
    6.3621   -9.8781    0.0000 O   0  0  0  0  0  0  0  0  0  0  0  0
    7.0823   -7.8177    0.0000 C   0  0  2  0  0  0  0  0  0  0  0  0
    6.3690   -7.4032    0.0000 O   0  0  0  0  0  0  0  0  0  0  0  0
    5.6534   -7.8137    0.0000 C   0  0  0  0  0  0  0  0  0  0  0  0
    5.6511   -8.6387    0.0000 C   0  0  0  0  0  0  0  0  0  0  0  0
    4.9401   -7.3992    0.0000 C   0  0  0  0  0  0  0  0  0  0  0  0
    4.2245   -7.8097    0.0000 C   0  0  0  0  0  0  0  0  0  0  0  0
    4.2222   -8.6347    0.0000 C   0  0  0  0  0  0  0  0  0  0  0  0
    4.9355   -9.0492    0.0000 C   0  0  0  0  0  0  0  0  0  0  0  0
    8.5113   -7.8217    0.0000 C   0  0  0  0  0  0  0  0  0  0  0  0
    7.7980   -7.4072    0.0000 C   0  0  0  0  0  0  0  0  0  0  0  0
    9.2269   -7.4111    0.0000 C   0  0  0  0  0  0  0  0  0  0  0  0
    9.2292   -6.5862    0.0000 C   0  0  0  0  0  0  0  0  0  0  0  0
    8.5159   -6.1717    0.0000 C   0  0  0  0  0  0  0  0  0  0  0  0
    7.8003   -6.5822    0.0000 C   0  0  0  0  0  0  0  0  0  0  0  0
    4.9332   -9.8742    0.0000 O   0  0  0  0  0  0  0  0  0  0  0  0
    3.5112   -7.3952    0.0000 O   0  0  0  0  0  0  0  0  0  0  0  0
    9.9448   -6.1757    0.0000 O   0  0  0  0  0  0  0  0  0  0  0  0
    7.7841  -12.3571    0.0000 O   0  0  0  0  0  0  0  0  0  0  0  0
    6.3575  -11.5281    0.0000 C   0  0  0  0  0  0  0  0  0  0  0  0
    9.2154  -11.5361    0.0000 O   0  0  0  0  0  0  0  0  0  0  0  0
    9.2200   -9.8861    0.0000 O   0  0  0  0  0  0  0  0  0  0  0  0
  1  2  1  0  0  0  0
  2  3  1  0  0  0  0
  3  4  1  0  0  0  0
  4  5  1  0  0  0  0
  5  6  1  0  0  0  0
  6  1  1  0  0  0  0
  5  7  1  1  0  0  0
  8  7  1  1  0  0  0
  8  9  1  0  0  0  0
  9 10  2  0  0  0  0
  8 11  1  0  0  0  0
 11 12  1  0  0  0  0
 12 13  1  0  0  0  0
 13 14  1  0  0  0  0
 14  9  1  0  0  0  0
 13 15  2  0  0  0  0
 15 16  1  0  0  0  0
 16 17  2  0  0  0  0
 17 18  1  0  0  0  0
 18 14  2  0  0  0  0
 19 20  1  0  0  0  0
 11 20  1  6  0  0  0
 19 21  2  0  0  0  0
 21 22  1  0  0  0  0
 22 23  2  0  0  0  0
 23 24  1  0  0  0  0
 24 20  2  0  0  0  0
 18 25  1  0  0  0  0
 16 26  1  0  0  0  0
 22 27  1  0  0  0  0
  2 28  1  1  0  0  0
  1 29  1  6  0  0  0
  3 30  1  6  0  0  0
  4 31  1  6  0  0  0
M  END
>  <cdx:fragmentId>
5

$$$$
