10315.cdx
  Mrv1902 05222410252D          

 11 11  0  0  0  0            999 V2000
    4.9699   -2.8597    0.0000 C   0  0  0  0  0  0  0  0  0  0  0  0
    5.6844   -3.2722    0.0000 C   0  0  0  0  0  0  0  0  0  0  0  0
    6.3989   -2.8597    0.0000 C   0  0  0  0  0  0  0  0  0  0  0  0
    7.1134   -3.2722    0.0000 C   0  0  0  0  0  0  0  0  0  0  0  0
    4.9699   -2.0347    0.0000 O   0  0  0  0  0  0  0  0  0  0  0  0
    4.2555   -3.2722    0.0000 C   0  0  0  0  0  0  0  0  0  0  0  0
    4.2555   -4.0972    0.0000 C   0  0  0  0  0  0  0  0  0  0  0  0
    3.5410   -4.5097    0.0000 C   0  0  0  0  0  0  0  0  0  0  0  0
    2.8265   -4.0972    0.0000 C   0  0  0  0  0  0  0  0  0  0  0  0
    2.8265   -3.2722    0.0000 C   0  0  0  0  0  0  0  0  0  0  0  0
    3.5410   -2.8597    0.0000 C   0  0  0  0  0  0  0  0  0  0  0  0
  1  2  1  0  0  0  0
  2  3  1  0  0  0  0
  3  4  1  0  0  0  0
  1  5  2  0  0  0  0
  6  7  1  0  0  0  0
  7  8  2  0  0  0  0
  8  9  1  0  0  0  0
  9 10  2  0  0  0  0
 10 11  1  0  0  0  0
  6 11  2  0  0  0  0
  1  6  1  0  0  0  0
M  END
>  <cdx:groupId>
35

>  <cdx:fragmentId>
15

$$$$
