1031.cdx
  Mrv1902 05222410222D          

  4  3  0  0  0  0            999 V2000
    3.0263   -2.3647    0.0000 C   0  0  0  0  0  0  0  0  0  0  0  0
    3.7407   -1.9522    0.0000 C   0  0  0  0  0  0  0  0  0  0  0  0
    4.4552   -2.3647    0.0000 C   0  0  0  0  0  0  0  0  0  0  0  0
    2.3118   -1.9522    0.0000 O   0  0  0  0  0  0  0  0  0  0  0  0
  1  2  1  0  0  0  0
  2  3  1  0  0  0  0
  1  4  1  0  0  0  0
M  END
>  <cdx:groupId>
42

>  <cdx:fragmentId>
34

$$$$
