1032.cdx
  Mrv1902 05222410232D          

  5  4  0  0  0  0            999 V2000
    4.1224   -2.9158    0.0000 C   0  0  0  0  0  0  0  0  0  0  0  0
    3.4079   -3.3283    0.0000 C   0  0  0  0  0  0  0  0  0  0  0  0
    2.6934   -2.9158    0.0000 C   0  0  0  0  0  0  0  0  0  0  0  0
    4.1224   -2.0908    0.0000 O   0  0  0  0  0  0  0  0  0  0  0  0
    4.8368   -3.3283    0.0000 O   0  0  0  0  0  0  0  0  0  0  0  0
  1  2  1  0  0  0  0
  2  3  1  0  0  0  0
  1  4  2  0  0  0  0
  1  5  1  0  0  0  0
M  END
>  <cdx:groupId>
16

>  <cdx:fragmentId>
5

$$$$
