10326.cdx
  Mrv1902 05222410212D          

  9 10  0  0  0  0            999 V2000
    5.3548   -4.4888    0.0000 C   0  0  0  0  0  0  0  0  0  0  0  0
    5.8397   -5.1563    0.0000 C   0  0  0  0  0  0  0  0  0  0  0  0
    5.3548   -5.8237    0.0000 C   0  0  0  0  0  0  0  0  0  0  0  0
    4.5702   -5.5687    0.0000 C   0  0  0  0  0  0  0  0  0  0  0  0
    3.8557   -5.9813    0.0000 C   0  0  0  0  0  0  0  0  0  0  0  0
    3.1413   -5.5687    0.0000 C   0  0  0  0  0  0  0  0  0  0  0  0
    3.1413   -4.7438    0.0000 C   0  0  0  0  0  0  0  0  0  0  0  0
    3.8557   -4.3313    0.0000 C   0  0  0  0  0  0  0  0  0  0  0  0
    4.5702   -4.7438    0.0000 C   0  0  0  0  0  0  0  0  0  0  0  0
  1  2  1  0  0  0  0
  2  3  1  0  0  0  0
  3  4  1  0  0  0  0
  4  5  1  0  0  0  0
  5  6  2  0  0  0  0
  6  7  1  0  0  0  0
  7  8  2  0  0  0  0
  8  9  1  0  0  0  0
  1  9  1  0  0  0  0
  4  9  2  0  0  0  0
M  END
>  <cdx:groupId>
30

>  <cdx:fragmentId>
5

$$$$
