10329.cdx
  Mrv1902 05222410252D          

  9 10  0  0  0  0            999 V2000
    6.3036   -2.2819    0.0000 O   0  0  0  0  0  0  0  0  0  0  0  0
    6.7885   -2.9494    0.0000 C   0  0  0  0  0  0  0  0  0  0  0  0
    6.3036   -3.6168    0.0000 C   0  0  0  0  0  0  0  0  0  0  0  0
    5.5190   -3.3619    0.0000 C   0  0  0  0  0  0  0  0  0  0  0  0
    4.8045   -3.7744    0.0000 C   0  0  0  0  0  0  0  0  0  0  0  0
    4.0900   -3.3619    0.0000 C   0  0  0  0  0  0  0  0  0  0  0  0
    4.0900   -2.5369    0.0000 C   0  0  0  0  0  0  0  0  0  0  0  0
    4.8045   -2.1244    0.0000 C   0  0  0  0  0  0  0  0  0  0  0  0
    5.5190   -2.5369    0.0000 C   0  0  0  0  0  0  0  0  0  0  0  0
  1  2  1  0  0  0  0
  2  3  1  0  0  0  0
  3  4  1  0  0  0  0
  4  5  1  0  0  0  0
  5  6  2  0  0  0  0
  6  7  1  0  0  0  0
  7  8  2  0  0  0  0
  8  9  1  0  0  0  0
  4  9  2  0  0  0  0
  1  9  1  0  0  0  0
M  END
>  <cdx:groupId>
30

>  <cdx:fragmentId>
5

$$$$
