3010330.cdx
  Mrv1902 05222410212D          

 54 60  0  0  0  0            999 V2000
   11.3030   -5.4725    0.0000 C   0  0  0  0  0  0  0  0  0  0  0  0
   11.3030   -6.2975    0.0000 C   0  0  2  0  0  0  0  0  0  0  0  0
   12.0175   -6.7100    0.0000 C   0  0  2  0  0  0  0  0  0  0  0  0
   12.7320   -6.2975    0.0000 C   0  0  0  0  0  0  0  0  0  0  0  0
   12.7320   -5.4725    0.0000 C   0  0  0  0  0  0  0  0  0  0  0  0
   12.0175   -5.0600    0.0000 C   0  0  0  0  0  0  0  0  0  0  0  0
   10.5886   -6.7100    0.0000 C   0  0  0  0  0  0  0  0  0  0  0  0
   10.5886   -7.5350    0.0000 C   0  0  1  0  0  0  0  0  0  0  0  0
   11.3030   -7.9475    0.0000 C   0  0  0  0  0  0  0  0  0  0  0  0
   12.0175   -7.5350    0.0000 C   0  0  0  0  0  0  0  0  0  0  0  0
    9.8741   -6.2975    0.0000 C   0  0  0  0  0  0  0  0  0  0  0  0
    9.1596   -6.7100    0.0000 C   0  0  0  0  0  0  0  0  0  0  0  0
    9.1596   -7.5350    0.0000 C   0  0  0  0  0  0  0  0  0  0  0  0
    9.8741   -7.9475    0.0000 C   0  0  1  0  0  0  0  0  0  0  0  0
    8.4451   -7.9475    0.0000 C   0  0  2  0  0  0  0  0  0  0  0  0
    8.4451   -8.7725    0.0000 C   0  0  1  0  0  0  0  0  0  0  0  0
    9.1596   -9.1850    0.0000 C   0  0  0  0  0  0  0  0  0  0  0  0
    9.8741   -8.7725    0.0000 C   0  0  0  0  0  0  0  0  0  0  0  0
    7.7307   -7.5350    0.0000 C   0  0  0  0  0  0  0  0  0  0  0  0
    7.0162   -7.9475    0.0000 C   0  0  0  0  0  0  0  0  0  0  0  0
    7.0162   -8.7725    0.0000 C   0  0  1  0  0  0  0  0  0  0  0  0
    7.7307   -9.1850    0.0000 C   0  0  0  0  0  0  0  0  0  0  0  0
   12.7320   -4.6475    0.0000 C   0  0  0  0  0  0  0  0  0  0  0  0
   11.3030   -4.6475    0.0000 C   0  0  0  0  0  0  0  0  0  0  0  0
   12.7320   -7.1225    0.0000 C   0  0  0  0  0  0  0  0  0  0  0  0
   11.3030   -7.1225    0.0000 H   0  0  0  0  0  0  0  0  0  0  0  0
    9.8741   -7.1225    0.0000 C   0  0  0  0  0  0  0  0  0  0  0  0
    8.4451   -7.1225    0.0000 C   0  0  0  0  0  0  0  0  0  0  0  0
    8.4451   -9.5975    0.0000 C   0  0  0  0  0  0  0  0  0  0  0  0
    7.0162   -9.5975    0.0000 C   0  0  0  0  0  0  0  0  0  0  0  0
    6.3017   -9.1850    0.0000 O   0  0  0  0  0  0  0  0  0  0  0  0
   13.4464   -6.7100    0.0000 O   0  0  0  0  0  0  0  0  0  0  0  0
   12.7320   -7.9475    0.0000 O   0  0  0  0  0  0  0  0  0  0  0  0
   10.5886   -8.3600    0.0000 C   0  0  0  0  0  0  0  0  0  0  0  0
    9.1596   -8.3600    0.0000 H   0  0  0  0  0  0  0  0  0  0  0  0
    5.5873   -8.7725    0.0000 C   0  0  2  0  0  0  0  0  0  0  0  0
    5.5873   -7.9475    0.0000 O   0  0  0  0  0  0  0  0  0  0  0  0
    4.8728   -7.5350    0.0000 C   0  0  0  0  0  0  0  0  0  0  0  0
    4.1583   -7.9475    0.0000 C   0  0  1  0  0  0  0  0  0  0  0  0
    4.1583   -8.7725    0.0000 C   0  0  1  0  0  0  0  0  0  0  0  0
    4.8728   -9.1850    0.0000 C   0  0  1  0  0  0  0  0  0  0  0  0
    4.8728  -10.0100    0.0000 O   0  0  0  0  0  0  0  0  0  0  0  0
    4.1583  -10.4225    0.0000 C   0  0  2  0  0  0  0  0  0  0  0  0
    3.4438  -10.0100    0.0000 O   0  0  0  0  0  0  0  0  0  0  0  0
    2.7294  -10.4225    0.0000 C   0  0  2  0  0  0  0  0  0  0  0  0
    2.7294  -11.2475    0.0000 C   0  0  1  0  0  0  0  0  0  0  0  0
    3.4438  -11.6600    0.0000 C   0  0  2  0  0  0  0  0  0  0  0  0
    4.1583  -11.2475    0.0000 C   0  0  1  0  0  0  0  0  0  0  0  0
    3.4438   -7.5350    0.0000 O   0  0  0  0  0  0  0  0  0  0  0  0
    3.4438   -9.1850    0.0000 O   0  0  0  0  0  0  0  0  0  0  0  0
    2.0149  -10.0100    0.0000 C   0  0  0  0  0  0  0  0  0  0  0  0
    2.0149  -11.6600    0.0000 O   0  0  0  0  0  0  0  0  0  0  0  0
    3.4438  -12.4850    0.0000 O   0  0  0  0  0  0  0  0  0  0  0  0
    4.8728  -11.6600    0.0000 O   0  0  0  0  0  0  0  0  0  0  0  0
  1  2  1  0  0  0  0
  2  3  1  0  0  0  0
  3  4  1  0  0  0  0
  4  5  1  0  0  0  0
  5  6  1  0  0  0  0
  6  1  1  0  0  0  0
  2  7  1  0  0  0  0
  7  8  1  0  0  0  0
  8  9  1  0  0  0  0
  9 10  1  0  0  0  0
 10  3  1  0  0  0  0
  7 11  2  0  0  0  0
 11 12  1  0  0  0  0
 12 13  1  0  0  0  0
 13 14  1  0  0  0  0
 14  8  1  0  0  0  0
 13 15  1  0  0  0  0
 15 16  1  0  0  0  0
 16 17  1  0  0  0  0
 17 18  1  0  0  0  0
 18 14  1  0  0  0  0
 15 19  1  0  0  0  0
 19 20  1  0  0  0  0
 20 21  1  0  0  0  0
 21 22  1  0  0  0  0
 22 16  1  0  0  0  0
  6 23  1  0  0  0  0
  6 24  1  0  0  0  0
  3 25  1  1  0  0  0
  2 26  1  1  0  0  0
 14 27  1  1  0  0  0
 15 28  1  1  0  0  0
 22 29  1  0  0  0  0
 22 30  1  0  0  0  0
 21 31  1  1  0  0  0
 25 32  1  0  0  0  0
 25 33  2  0  0  0  0
  8 34  1  6  0  0  0
 16 35  1  6  0  0  0
 36 31  1  1  0  0  0
 36 37  1  0  0  0  0
 37 38  1  0  0  0  0
 38 39  1  0  0  0  0
 39 40  1  0  0  0  0
 40 41  1  0  0  0  0
 41 36  1  0  0  0  0
 41 42  1  6  0  0  0
 43 42  1  1  0  0  0
 43 44  1  0  0  0  0
 44 45  1  0  0  0  0
 45 46  1  0  0  0  0
 46 47  1  0  0  0  0
 47 48  1  0  0  0  0
 48 43  1  0  0  0  0
 39 49  1  1  0  0  0
 40 50  1  1  0  0  0
 45 51  1  6  0  0  0
 46 52  1  1  0  0  0
 47 53  1  6  0  0  0
 48 54  1  6  0  0  0
M  END
>  <cdx:fragmentId>
5

$$$$
