1033.cdx
  Mrv1902 05222410232D          

 21 21  0  0  0  0            999 V2000
   11.1293   -6.8735    0.0000 O   0  0  0  0  0  0  0  0  0  0  0  0
   10.4095   -8.1079    0.0000 O   0  0  0  0  0  0  0  0  0  0  0  0
    9.7039   -6.0423    0.0000 O   0  0  0  0  0  0  0  0  0  0  0  0
   10.4130   -7.2829    0.0000 C   0  0  0  0  0  0  0  0  0  0  0  0
    8.9806   -8.1018    0.0000 O   0  0  0  0  0  0  0  0  0  0  0  0
    9.7003   -6.8673    0.0000 C   0  0  0  0  0  0  0  0  0  0  0  0
    8.9841   -7.2768    0.0000 C   0  0  0  0  0  0  0  0  0  0  0  0
    8.2714   -6.8612    0.0000 C   0  0  0  0  0  0  0  0  0  0  0  0
    6.8460   -6.0301    0.0000 O   0  0  0  0  0  0  0  0  0  0  0  0
    7.5552   -7.2706    0.0000 O   0  0  0  0  0  0  0  0  0  0  0  0
    6.8425   -6.8551    0.0000 C   0  0  0  0  0  0  0  0  0  0  0  0
    6.1262   -7.2645    0.0000 C   0  0  0  0  0  0  0  0  0  0  0  0
    5.4135   -6.8489    0.0000 C   0  0  0  0  0  0  0  0  0  0  0  0
    2.5557   -6.8366    0.0000 O   0  0  0  0  0  0  0  0  0  0  0  0
    2.5486   -8.4866    0.0000 O   0  0  0  0  0  0  0  0  0  0  0  0
    4.6938   -8.0833    0.0000 C   0  0  0  0  0  0  0  0  0  0  0  0
    4.6973   -7.2583    0.0000 C   0  0  0  0  0  0  0  0  0  0  0  0
    3.9846   -6.8428    0.0000 C   0  0  0  0  0  0  0  0  0  0  0  0
    3.2684   -7.2522    0.0000 C   0  0  0  0  0  0  0  0  0  0  0  0
    3.2648   -8.0772    0.0000 C   0  0  0  0  0  0  0  0  0  0  0  0
    3.9775   -8.4928    0.0000 C   0  0  0  0  0  0  0  0  0  0  0  0
  4  1  1  0  0  0  0
  4  2  2  0  0  0  0
  6  3  1  0  0  0  0
  6  4  1  0  0  0  0
  7  5  1  0  0  0  0
  7  6  1  0  0  0  0
  8  7  1  0  0  0  0
 10  8  1  0  0  0  0
 11  9  2  0  0  0  0
 11 10  1  0  0  0  0
 12 11  1  0  0  0  0
 13 12  2  0  0  0  0
 17 13  1  0  0  0  0
 19 14  1  0  0  0  0
 20 15  1  0  0  0  0
 16 21  1  0  0  0  0
 17 16  2  0  0  0  0
 18 17  1  0  0  0  0
 19 18  2  0  0  0  0
 20 19  1  0  0  0  0
 21 20  2  0  0  0  0
M  END
>  <cdx:fragmentId>
91

$$$$
