10334.cdx
  Mrv1902 05222410222D          

 25 28  0  0  0  0            999 V2000
    4.8020   -6.3731    0.0000 C   0  0  0  0  0  0  0  0  0  0  0  0
    4.8020   -7.1981    0.0000 C   0  0  0  0  0  0  0  0  0  0  0  0
    5.5165   -7.6106    0.0000 C   0  0  1  0  0  0  0  0  0  0  0  0
    6.2310   -7.1981    0.0000 C   0  0  2  0  0  0  0  0  0  0  0  0
    6.2310   -6.3731    0.0000 C   0  0  1  0  0  0  0  0  0  0  0  0
    5.5165   -5.9606    0.0000 C   0  0  0  0  0  0  0  0  0  0  0  0
    6.9454   -7.6106    0.0000 C   0  0  0  0  0  0  0  0  0  0  0  0
    7.6599   -7.1981    0.0000 C   0  0  0  0  0  0  0  0  0  0  0  0
    7.6599   -6.3731    0.0000 C   0  0  1  0  0  0  0  0  0  0  0  0
    6.9454   -5.9606    0.0000 C   0  0  1  0  0  0  0  0  0  0  0  0
    8.3744   -5.9606    0.0000 C   0  0  0  0  0  0  0  0  0  0  0  0
    8.3744   -5.1356    0.0000 C   0  0  1  0  0  0  0  0  0  0  0  0
    7.6599   -4.7231    0.0000 C   0  0  2  0  0  0  0  0  0  0  0  0
    6.9454   -5.1356    0.0000 C   0  0  0  0  0  0  0  0  0  0  0  0
    4.0876   -7.6106    0.0000 O   0  0  0  0  0  0  0  0  0  0  0  0
    5.1040   -8.3251    0.0000 C   0  0  0  0  0  0  0  0  0  0  0  0
    5.9290   -8.3251    0.0000 C   0  0  0  0  0  0  0  0  0  0  0  0
    7.9090   -5.3419    0.0000 C   0  0  0  0  0  0  0  0  0  0  0  0
    7.3934   -5.7131    0.0000 C   0  0  0  0  0  0  0  0  0  0  0  0
    9.0889   -4.7231    0.0000 O   0  0  0  0  0  0  0  0  0  0  0  0
    9.0889   -5.5481    0.0000 C   0  0  0  0  0  0  0  0  0  0  0  0
    6.2310   -5.5481    0.0000 C   0  0  0  0  0  0  0  0  0  0  0  0
    6.2310   -8.0231    0.0000 H   0  0  0  0  0  0  0  0  0  0  0  0
    6.9454   -6.7856    0.0000 H   0  0  0  0  0  0  0  0  0  0  0  0
    9.8033   -5.1356    0.0000 O   0  0  0  0  0  0  0  0  0  0  0  0
  1  2  1  0  0  0  0
  2  3  1  0  0  0  0
  3  4  1  0  0  0  0
  4  5  1  0  0  0  0
  5  6  1  0  0  0  0
  6  1  1  0  0  0  0
  4  7  1  0  0  0  0
  7  8  1  0  0  0  0
  8  9  1  0  0  0  0
  9 10  1  0  0  0  0
 10  5  1  0  0  0  0
  9 11  1  0  0  0  0
 11 12  1  0  0  0  0
 12 13  1  0  0  0  0
 13 14  1  0  0  0  0
 14 10  1  0  0  0  0
  2 15  2  0  0  0  0
  3 16  1  1  0  0  0
  3 17  1  6  0  0  0
 13 18  1  6  0  0  0
  9 19  1  6  0  0  0
 18 19  1  0  0  0  0
 12 20  1  1  0  0  0
 12 21  1  6  0  0  0
  5 22  1  6  0  0  0
  4 23  1  1  0  0  0
 10 24  1  1  0  0  0
 21 25  1  0  0  0  0
M  END
>  <cdx:fragmentId>
5

$$$$
