10346.cdx
  Mrv1902 05222410192D          

 24 27  0  0  0  0            999 V2000
    4.7195   -6.9781    0.0000 C   0  0  0  0  0  0  0  0  0  0  0  0
    4.7195   -7.8031    0.0000 C   0  0  0  0  0  0  0  0  0  0  0  0
    5.4340   -8.2156    0.0000 C   0  0  1  0  0  0  0  0  0  0  0  0
    6.1485   -7.8031    0.0000 C   0  0  2  0  0  0  0  0  0  0  0  0
    6.1485   -6.9781    0.0000 C   0  0  1  0  0  0  0  0  0  0  0  0
    5.4340   -6.5656    0.0000 C   0  0  0  0  0  0  0  0  0  0  0  0
    6.8629   -8.2156    0.0000 C   0  0  0  0  0  0  0  0  0  0  0  0
    7.5774   -7.8031    0.0000 C   0  0  0  0  0  0  0  0  0  0  0  0
    7.5774   -6.9781    0.0000 C   0  0  0  0  0  0  0  0  0  0  0  0
    6.8629   -6.5656    0.0000 C   0  0  1  0  0  0  0  0  0  0  0  0
    8.2919   -6.5656    0.0000 C   0  0  0  0  0  0  0  0  0  0  0  0
    8.2919   -5.7406    0.0000 C   0  0  0  0  0  0  0  0  0  0  0  0
    7.5774   -5.3281    0.0000 C   0  0  0  0  0  0  0  0  0  0  0  0
    6.8629   -5.7406    0.0000 C   0  0  0  0  0  0  0  0  0  0  0  0
    4.0051   -8.2156    0.0000 O   0  0  0  0  0  0  0  0  0  0  0  0
    5.0215   -8.9301    0.0000 C   0  0  0  0  0  0  0  0  0  0  0  0
    5.8465   -8.9301    0.0000 C   0  0  0  0  0  0  0  0  0  0  0  0
    6.1485   -6.1531    0.0000 C   0  0  0  0  0  0  0  0  0  0  0  0
    8.2919   -7.3906    0.0000 C   0  0  0  0  0  0  0  0  0  0  0  0
    9.0064   -6.1531    0.0000 C   0  0  2  0  0  0  0  0  0  0  0  0
    9.8032   -5.9396    0.0000 C   0  0  0  0  0  0  0  0  0  0  0  0
    6.1485   -8.6281    0.0000 H   0  0  0  0  0  0  0  0  0  0  0  0
    6.8629   -7.3906    0.0000 H   0  0  0  0  0  0  0  0  0  0  0  0
   10.3866   -6.5230    0.0000 O   0  0  0  0  0  0  0  0  0  0  0  0
  1  2  1  0  0  0  0
  2  3  1  0  0  0  0
  3  4  1  0  0  0  0
  4  5  1  0  0  0  0
  5  6  1  0  0  0  0
  6  1  1  0  0  0  0
  4  7  1  0  0  0  0
  7  8  1  0  0  0  0
  8  9  1  0  0  0  0
  9 10  1  0  0  0  0
 10  5  1  0  0  0  0
  9 11  1  0  0  0  0
 11 12  1  0  0  0  0
 12 13  1  0  0  0  0
 13 14  1  0  0  0  0
 14 10  1  0  0  0  0
  2 15  2  0  0  0  0
  3 16  1  1  0  0  0
  3 17  1  6  0  0  0
  5 18  1  6  0  0  0
  9 19  1  0  0  0  0
 12 20  1  0  0  0  0
 20 19  1  0  0  0  0
 20 21  1  1  0  0  0
  4 22  1  1  0  0  0
 10 23  1  1  0  0  0
 21 24  1  0  0  0  0
M  END
>  <cdx:fragmentId>
5

$$$$
