10340.cdx
  Mrv1902 05222410202D          

 24 27  0  0  0  0            999 V2000
    3.3033   -7.7344    0.0000 C   0  0  0  0  0  0  0  0  0  0  0  0
    3.3033   -8.5594    0.0000 C   0  0  0  0  0  0  0  0  0  0  0  0
    4.0177   -8.9719    0.0000 C   0  0  2  0  0  0  0  0  0  0  0  0
    4.7322   -8.5594    0.0000 C   0  0  0  0  0  0  0  0  0  0  0  0
    4.7322   -7.7344    0.0000 C   0  0  1  0  0  0  0  0  0  0  0  0
    4.0177   -7.3219    0.0000 C   0  0  0  0  0  0  0  0  0  0  0  0
    5.4467   -8.9719    0.0000 C   0  0  0  0  0  0  0  0  0  0  0  0
    6.1612   -8.5594    0.0000 C   0  0  0  0  0  0  0  0  0  0  0  0
    6.1612   -7.7344    0.0000 C   0  0  2  0  0  0  0  0  0  0  0  0
    5.4467   -7.3219    0.0000 C   0  0  0  0  0  0  0  0  0  0  0  0
    6.8756   -7.3219    0.0000 C   0  0  0  0  0  0  0  0  0  0  0  0
    6.8756   -6.4969    0.0000 C   0  0  0  0  0  0  0  0  0  0  0  0
    6.1612   -6.0844    0.0000 C   0  0  0  0  0  0  0  0  0  0  0  0
    5.4467   -6.4969    0.0000 C   0  0  0  0  0  0  0  0  0  0  0  0
    4.7322   -6.9094    0.0000 C   0  0  0  0  0  0  0  0  0  0  0  0
    4.4302   -9.6863    0.0000 C   0  0  0  0  0  0  0  0  0  0  0  0
    5.2552   -9.6863    0.0000 O   0  0  0  0  0  0  0  0  0  0  0  0
    4.0177  -10.4008    0.0000 O   0  0  0  0  0  0  0  0  0  0  0  0
    7.5901   -6.9094    0.0000 C   0  0  0  0  0  0  0  0  0  0  0  0
    6.8756   -8.1469    0.0000 C   0  0  0  0  0  0  0  0  0  0  0  0
    8.3046   -7.3219    0.0000 O   0  0  0  0  0  0  0  0  0  0  0  0
    8.0026   -6.1949    0.0000 C   0  0  0  0  0  0  0  0  0  0  0  0
    8.8276   -6.1949    0.0000 O   0  0  0  0  0  0  0  0  0  0  0  0
    3.6052   -9.6863    0.0000 C   0  0  0  0  0  0  0  0  0  0  0  0
  1  2  1  0  0  0  0
  2  3  1  0  0  0  0
  3  4  1  0  0  0  0
  4  5  1  0  0  0  0
  5  6  1  0  0  0  0
  6  1  1  0  0  0  0
  4  7  1  0  0  0  0
  7  8  1  0  0  0  0
  8  9  1  0  0  0  0
  9 10  1  0  0  0  0
 10  5  1  0  0  0  0
  9 11  1  0  0  0  0
 11 12  1  0  0  0  0
 12 13  1  0  0  0  0
 13 14  1  0  0  0  0
 14 10  1  0  0  0  0
  5 15  1  6  0  0  0
  3 16  1  6  0  0  0
  9 20  1  1  0  0  0
 20 19  1  0  0  0  0
 19 21  1  6  0  0  0
 19 22  1  0  0  0  0
 22 23  1  0  0  0  0
  3 24  1  1  0  0  0
 19 12  1  1  0  0  0
 16 17  2  0  0  0  0
 16 18  1  0  0  0  0
M  STY  1   1 SUP
M  SAL   1  3  16  17  18
M  SBL   1  1  18
M  SMT   1 COOH
M  SAP   1  1  16   3  1
M  END
>  <cdx:fragmentId>
5

$$$$
