10349.cdx
  Mrv1902 05222410282D          

  9  8  0  0  0  0            999 V2000
    5.2751   -2.6889    0.0000 C   0  0  0  0  0  0  0  0  0  0  0  0
    4.5606   -3.1014    0.0000 C   0  0  0  0  0  0  0  0  0  0  0  0
    3.8461   -2.6889    0.0000 C   0  0  0  0  0  0  0  0  0  0  0  0
    3.1317   -3.1014    0.0000 C   0  0  0  0  0  0  0  0  0  0  0  0
    5.2751   -1.8639    0.0000 O   0  0  0  0  0  0  0  0  0  0  0  0
    5.9896   -3.1014    0.0000 O   0  0  0  0  0  0  0  0  0  0  0  0
    3.1317   -3.9264    0.0000 O   0  0  0  0  0  0  0  0  0  0  0  0
    2.4172   -2.6889    0.0000 O   0  0  0  0  0  0  0  0  0  0  0  0
    4.5606   -3.9264    0.0000 C   0  0  0  0  0  0  0  0  0  0  0  0
  1  2  1  0  0  0  0
  2  3  1  0  0  0  0
  3  4  1  0  0  0  0
  1  5  2  0  0  0  0
  1  6  1  0  0  0  0
  4  7  2  0  0  0  0
  4  8  1  0  0  0  0
  2  9  1  0  0  0  0
M  END
>  <cdx:groupId>
28

>  <cdx:fragmentId>
5

$$$$
