10357.cdx
  Mrv1902 05222410192D          

 24 26  0  0  0  0            999 V2000
    5.1320   -7.8031    0.0000 C   0  0  0  0  0  0  0  0  0  0  0  0
    5.1320   -8.6281    0.0000 C   0  0  0  0  0  0  0  0  0  0  0  0
    5.8465   -9.0406    0.0000 C   0  0  2  0  0  0  0  0  0  0  0  0
    6.5610   -8.6281    0.0000 C   0  0  2  0  0  0  0  0  0  0  0  0
    6.5610   -7.8031    0.0000 C   0  0  1  0  0  0  0  0  0  0  0  0
    5.8465   -7.3906    0.0000 C   0  0  0  0  0  0  0  0  0  0  0  0
    7.2754   -9.0406    0.0000 C   0  0  0  0  0  0  0  0  0  0  0  0
    7.9899   -8.6281    0.0000 C   0  0  0  0  0  0  0  0  0  0  0  0
    7.9899   -7.8031    0.0000 C   0  0  0  0  0  0  0  0  0  0  0  0
    7.2754   -7.3906    0.0000 C   0  0  1  0  0  0  0  0  0  0  0  0
    8.7044   -7.3906    0.0000 C   0  0  0  0  0  0  0  0  0  0  0  0
    8.7044   -6.5656    0.0000 C   0  0  2  0  0  0  0  0  0  0  0  0
    7.9899   -6.1531    0.0000 C   0  0  0  0  0  0  0  0  0  0  0  0
    7.2754   -6.5656    0.0000 C   0  0  0  0  0  0  0  0  0  0  0  0
    6.5610   -9.4531    0.0000 H   0  0  0  0  0  0  0  0  0  0  0  0
    7.2754   -8.2156    0.0000 H   0  0  0  0  0  0  0  0  0  0  0  0
    6.2590   -9.7551    0.0000 C   0  0  0  0  0  0  0  0  0  0  0  0
    6.5610   -6.9781    0.0000 C   0  0  0  0  0  0  0  0  0  0  0  0
    9.4189   -6.1531    0.0000 C   0  0  0  0  0  0  0  0  0  0  0  0
    8.7044   -5.7406    0.0000 C   0  0  0  0  0  0  0  0  0  0  0  0
   10.2439   -6.1531    0.0000 C   0  0  0  0  0  0  0  0  0  0  0  0
    4.1965  -10.4696    0.0000 O   0  0  0  0  0  0  0  0  0  0  0  0
    4.6090   -9.7551    0.0000 O   0  0  0  0  0  0  0  0  0  0  0  0
    5.4340   -9.7551    0.0000 C   0  0  0  0  0  0  0  0  0  0  0  0
  1  2  1  0  0  0  0
  2  3  1  0  0  0  0
  3  4  1  0  0  0  0
  4  5  1  0  0  0  0
  5  6  1  0  0  0  0
  6  1  1  0  0  0  0
  4  7  1  0  0  0  0
  7  8  1  0  0  0  0
  8  9  1  0  0  0  0
  9 10  1  0  0  0  0
 10  5  1  0  0  0  0
  9 11  2  0  0  0  0
 11 12  1  0  0  0  0
 12 13  1  0  0  0  0
 13 14  1  0  0  0  0
 14 10  1  0  0  0  0
  4 15  1  1  0  0  0
 10 16  1  1  0  0  0
  3 17  1  6  0  0  0
 23 22  1  0  0  0  0
  3 24  1  1  0  0  0
  5 18  1  6  0  0  0
 12 19  1  6  0  0  0
 12 20  1  1  0  0  0
 19 21  2  0  0  0  0
 24 23  1  0  0  0  0
M  END
>  <cdx:fragmentId>
5

$$$$
