1035.cdx
  Mrv1902 05222410212D          

 23 26  0  0  0  0            999 V2000
    3.1589   -7.1362    0.0000 C   0  0  0  0  0  0  0  0  0  0  0  0
    3.1589   -7.9612    0.0000 C   0  0  0  0  0  0  0  0  0  0  0  0
    3.8734   -8.3737    0.0000 C   0  0  0  0  0  0  0  0  0  0  0  0
    4.5878   -7.9612    0.0000 N   0  0  0  0  0  0  0  0  0  0  0  0
    4.5878   -7.1362    0.0000 C   0  0  2  0  0  0  0  0  0  0  0  0
    3.8734   -6.7237    0.0000 C   0  0  0  0  0  0  0  0  0  0  0  0
    5.3023   -8.3737    0.0000 C   0  0  0  0  0  0  0  0  0  0  0  0
    6.0168   -7.9612    0.0000 C   0  0  1  0  0  0  0  0  0  0  0  0
    6.0168   -7.1362    0.0000 C   0  0  1  0  0  0  0  0  0  0  0  0
    5.3023   -6.7237    0.0000 C   0  0  2  0  0  0  0  0  0  0  0  0
    6.7313   -8.3737    0.0000 C   0  0  0  0  0  0  0  0  0  0  0  0
    7.4457   -7.9612    0.0000 C   0  0  0  0  0  0  0  0  0  0  0  0
    7.4457   -7.1362    0.0000 C   0  0  0  0  0  0  0  0  0  0  0  0
    6.7313   -6.7237    0.0000 N   0  0  0  0  0  0  0  0  0  0  0  0
    6.7313   -5.8988    0.0000 C   0  0  0  0  0  0  0  0  0  0  0  0
    6.0168   -5.4863    0.0000 C   0  0  2  0  0  0  0  0  0  0  0  0
    5.3023   -5.8988    0.0000 C   0  0  0  0  0  0  0  0  0  0  0  0
    3.8734   -9.1987    0.0000 O   0  0  0  0  0  0  0  0  0  0  0  0
    4.5878   -6.3113    0.0000 H   0  0  0  0  0  0  0  0  0  0  0  0
    6.0168   -6.3113    0.0000 H   0  0  0  0  0  0  0  0  0  0  0  0
    6.0168   -8.7862    0.0000 H   0  0  0  0  0  0  0  0  0  0  0  0
    5.3023   -7.5488    0.0000 H   0  0  0  0  0  0  0  0  0  0  0  0
    6.0168   -4.6612    0.0000 O   0  0  0  0  0  0  0  0  0  0  0  0
  1  2  2  0  0  0  0
  2  3  1  0  0  0  0
  3  4  1  0  0  0  0
  4  5  1  0  0  0  0
  5  6  1  0  0  0  0
  6  1  1  0  0  0  0
  4  7  1  0  0  0  0
  7  8  1  0  0  0  0
  8  9  1  0  0  0  0
  9 10  1  0  0  0  0
 10  5  1  0  0  0  0
  8 11  1  0  0  0  0
 11 12  1  0  0  0  0
 12 13  1  0  0  0  0
 13 14  1  0  0  0  0
 14  9  1  0  0  0  0
 14 15  1  0  0  0  0
 15 16  1  0  0  0  0
 16 17  1  0  0  0  0
 17 10  1  0  0  0  0
  3 18  2  0  0  0  0
 10 19  1  6  0  0  0
  9 20  1  6  0  0  0
  8 21  1  6  0  0  0
  5 22  1  1  0  0  0
 16 23  1  6  0  0  0
M  END
>  <cdx:fragmentId>
5

$$$$
