10355.cdx
  Mrv1902 05222410202D          

 10 10  0  0  0  0            999 V2000
    3.3534   -4.0354    0.0000 C   0  0  0  0  0  0  0  0  0  0  0  0
    4.0679   -4.4479    0.0000 C   0  0  0  0  0  0  0  0  0  0  0  0
    4.7824   -4.0354    0.0000 C   0  0  0  0  0  0  0  0  0  0  0  0
    4.7824   -3.2104    0.0000 C   0  0  0  0  0  0  0  0  0  0  0  0
    4.0679   -2.7979    0.0000 C   0  0  0  0  0  0  0  0  0  0  0  0
    3.3534   -3.2104    0.0000 N   0  0  0  0  0  0  0  0  0  0  0  0
    5.4968   -2.7979    0.0000 C   0  0  0  0  0  0  0  0  0  0  0  0
    5.4968   -1.9729    0.0000 O   0  0  0  0  0  0  0  0  0  0  0  0
    6.2113   -3.2104    0.0000 O   0  0  0  0  0  0  0  0  0  0  0  0
    2.6390   -2.7979    0.0000 C   0  0  0  0  0  0  0  0  0  0  0  0
  1  2  1  0  0  0  0
  2  3  1  0  0  0  0
  3  4  2  0  0  0  0
  4  5  1  0  0  0  0
  5  6  1  0  0  0  0
  1  6  1  0  0  0  0
  7  8  2  0  0  0  0
  7  9  1  0  0  0  0
  4  7  1  0  0  0  0
  6 10  1  0  0  0  0
M  END
>  <cdx:groupId>
32

>  <cdx:fragmentId>
5

$$$$
