10356.cdx
  Mrv1902 05222410192D          

 25 28  0  0  0  0            999 V2000
    4.4995   -8.1056    0.0000 C   0  0  0  0  0  0  0  0  0  0  0  0
    4.4995   -8.9306    0.0000 C   0  0  2  0  0  0  0  0  0  0  0  0
    5.2140   -9.3431    0.0000 C   0  0  1  0  0  0  0  0  0  0  0  0
    5.9285   -8.9306    0.0000 C   0  0  2  0  0  0  0  0  0  0  0  0
    5.9285   -8.1056    0.0000 C   0  0  1  0  0  0  0  0  0  0  0  0
    5.2140   -7.6931    0.0000 C   0  0  0  0  0  0  0  0  0  0  0  0
    6.6429   -9.3431    0.0000 C   0  0  0  0  0  0  0  0  0  0  0  0
    7.3574   -8.9306    0.0000 C   0  0  0  0  0  0  0  0  0  0  0  0
    7.3574   -8.1056    0.0000 C   0  0  1  0  0  0  0  0  0  0  0  0
    6.6429   -7.6931    0.0000 C   0  0  1  0  0  0  0  0  0  0  0  0
    8.0719   -7.6931    0.0000 C   0  0  0  0  0  0  0  0  0  0  0  0
    8.0719   -6.8681    0.0000 C   0  0  1  0  0  0  0  0  0  0  0  0
    7.3574   -6.4556    0.0000 C   0  0  2  0  0  0  0  0  0  0  0  0
    6.6429   -6.8681    0.0000 C   0  0  0  0  0  0  0  0  0  0  0  0
    4.8015  -10.0576    0.0000 C   0  0  0  0  0  0  0  0  0  0  0  0
    8.6552   -6.2848    0.0000 O   0  0  0  0  0  0  0  0  0  0  0  0
    3.7851   -9.3431    0.0000 O   0  0  0  0  0  0  0  0  0  0  0  0
    5.6265  -10.0576    0.0000 C   0  0  0  0  0  0  0  0  0  0  0  0
    5.9285   -7.2806    0.0000 C   0  0  0  0  0  0  0  0  0  0  0  0
    8.8688   -7.0817    0.0000 C   0  0  0  0  0  0  0  0  0  0  0  0
    7.1439   -7.4944    0.0000 C   0  0  0  0  0  0  0  0  0  0  0  0
    7.6668   -7.1495    0.0000 C   0  0  0  0  0  0  0  0  0  0  0  0
    9.4521   -6.4983    0.0000 O   0  0  0  0  0  0  0  0  0  0  0  0
    5.9285   -9.7556    0.0000 H   0  0  0  0  0  0  0  0  0  0  0  0
    6.6429   -8.5181    0.0000 H   0  0  0  0  0  0  0  0  0  0  0  0
  1  2  1  0  0  0  0
  2  3  1  0  0  0  0
  3  4  1  0  0  0  0
  4  5  1  0  0  0  0
  5  6  1  0  0  0  0
  6  1  1  0  0  0  0
  4  7  1  0  0  0  0
  7  8  1  0  0  0  0
  8  9  1  0  0  0  0
  9 10  1  0  0  0  0
 10  5  1  0  0  0  0
  9 11  1  0  0  0  0
 11 12  1  0  0  0  0
 12 13  1  0  0  0  0
 13 14  1  0  0  0  0
 14 10  1  0  0  0  0
  3 15  1  1  0  0  0
 12 16  1  1  0  0  0
  2 17  1  6  0  0  0
  3 18  1  6  0  0  0
  5 19  1  6  0  0  0
 12 20  1  6  0  0  0
  9 21  1  6  0  0  0
 13 22  1  6  0  0  0
 21 22  1  0  0  0  0
 20 23  1  0  0  0  0
  4 24  1  1  0  0  0
 10 25  1  1  0  0  0
M  END
>  <cdx:fragmentId>
5

$$$$
