10351.cdx
  Mrv1902 05222410182D          

  7  7  0  0  0  0            999 V2000
    8.7116   -5.4618    0.0000 O   0  0  0  0  0  0  0  0  0  0  0  0
    7.8886   -5.4050    0.0000 C   0  0  0  0  0  0  0  0  0  0  0  0
    6.3769   -6.9124    0.0000 C   0  0  0  0  0  0  0  0  0  0  0  0
    6.6035   -6.1191    0.0000 C   0  0  0  0  0  0  0  0  0  0  0  0
    7.4280   -6.0895    0.0000 C   0  0  0  0  0  0  0  0  0  0  0  0
    7.7109   -6.8644    0.0000 C   0  0  0  0  0  0  0  0  0  0  0  0
    7.0613   -7.3730    0.0000 O   0  0  0  0  0  0  0  0  0  0  0  0
  5  2  1  0  0  0  0
  2  1  2  0  0  0  0
  7  3  1  0  0  0  0
  4  3  2  0  0  0  0
  5  4  1  0  0  0  0
  6  5  2  0  0  0  0
  7  6  1  0  0  0  0
M  END
>  <cdx:fragmentId>
5

$$$$
