10369.cdx
  Mrv1902 05222410202D          

 10 10  0  0  0  0            999 V2000
    3.2068   -2.6733    0.0000 C   0  0  0  0  0  0  0  0  0  0  0  0
    3.9212   -2.2608    0.0000 C   0  0  0  0  0  0  0  0  0  0  0  0
    4.6357   -2.6733    0.0000 C   0  0  0  0  0  0  0  0  0  0  0  0
    4.6357   -3.4983    0.0000 C   0  0  0  0  0  0  0  0  0  0  0  0
    3.9212   -3.9108    0.0000 C   0  0  0  0  0  0  0  0  0  0  0  0
    3.2068   -3.4983    0.0000 C   0  0  0  0  0  0  0  0  0  0  0  0
    2.4923   -1.4358    0.0000 C   0  0  0  0  0  0  0  0  0  0  0  0
    2.4923   -2.2608    0.0000 C   0  0  0  0  0  0  0  0  0  0  0  0
    1.7778   -2.6733    0.0000 C   0  0  0  0  0  0  0  0  0  0  0  0
    5.3502   -3.9108    0.0000 C   0  0  0  0  0  0  0  0  0  0  0  0
  1  2  2  0  0  0  0
  2  3  1  0  0  0  0
  3  4  1  0  0  0  0
  4  5  1  0  0  0  0
  5  6  1  0  0  0  0
  1  6  1  0  0  0  0
  7  8  1  0  0  0  0
  8  9  1  0  0  0  0
  1  8  1  0  0  0  0
  4 10  1  0  0  0  0
M  END
>  <cdx:groupId>
32

>  <cdx:fragmentId>
5

$$$$
