103653.cdx
  Mrv1902 05222410252D          

 14 14  0  0  0  0            999 V2000
    3.6780   -4.4272    0.0000 C   0  0  0  0  0  0  0  0  0  0  0  0
    2.9635   -4.8397    0.0000 C   0  0  0  0  0  0  0  0  0  0  0  0
    2.9635   -5.6647    0.0000 C   0  0  0  0  0  0  0  0  0  0  0  0
    2.2490   -6.0772    0.0000 C   0  0  0  0  0  0  0  0  0  0  0  0
    1.5346   -5.6647    0.0000 C   0  0  0  0  0  0  0  0  0  0  0  0
    1.5346   -4.8397    0.0000 C   0  0  0  0  0  0  0  0  0  0  0  0
    2.2490   -4.4272    0.0000 C   0  0  0  0  0  0  0  0  0  0  0  0
    3.6780   -3.6022    0.0000 O   0  0  0  0  0  0  0  0  0  0  0  0
    4.3924   -4.8397    0.0000 O   0  0  0  0  0  0  0  0  0  0  0  0
    5.1069   -4.4272    0.0000 C   0  0  0  0  0  0  0  0  0  0  0  0
    5.8214   -4.8397    0.0000 C   0  0  0  0  0  0  0  0  0  0  0  0
    6.5359   -4.4272    0.0000 C   0  0  0  0  0  0  0  0  0  0  0  0
    7.2503   -4.8397    0.0000 C   0  0  0  0  0  0  0  0  0  0  0  0
    5.8214   -5.6647    0.0000 C   0  0  0  0  0  0  0  0  0  0  0  0
  1  2  1  0  0  0  0
  2  3  1  0  0  0  0
  3  4  2  0  0  0  0
  4  5  1  0  0  0  0
  5  6  2  0  0  0  0
  6  7  1  0  0  0  0
  2  7  2  0  0  0  0
  1  8  2  0  0  0  0
  1  9  1  0  0  0  0
 10 11  1  0  0  0  0
 11 12  1  0  0  0  0
 12 13  1  0  0  0  0
 11 14  1  0  0  0  0
  9 10  1  0  0  0  0
M  END
>  <cdx:groupId>
44

>  <cdx:fragmentId>
5

$$$$
