10363.cdx
  Mrv1902 05222410272D          

 11 11  0  0  0  0            999 V2000
    2.4806   -3.3492    0.0000 C   0  0  0  0  0  0  0  0  0  0  0  0
    3.1951   -3.7617    0.0000 C   0  0  0  0  0  0  0  0  0  0  0  0
    3.9095   -3.3492    0.0000 C   0  0  0  0  0  0  0  0  0  0  0  0
    3.9095   -2.5242    0.0000 C   0  0  0  0  0  0  0  0  0  0  0  0
    3.1951   -2.1117    0.0000 C   0  0  0  0  0  0  0  0  0  0  0  0
    2.4806   -2.5242    0.0000 C   0  0  0  0  0  0  0  0  0  0  0  0
    1.7661   -3.7617    0.0000 O   0  0  0  0  0  0  0  0  0  0  0  0
    4.6240   -4.5867    0.0000 C   0  0  0  0  0  0  0  0  0  0  0  0
    4.6240   -3.7617    0.0000 C   0  0  0  0  0  0  0  0  0  0  0  0
    5.3385   -3.3492    0.0000 C   0  0  0  0  0  0  0  0  0  0  0  0
    1.7661   -2.1117    0.0000 C   0  0  0  0  0  0  0  0  0  0  0  0
  1  2  1  0  0  0  0
  2  3  2  0  0  0  0
  3  4  1  0  0  0  0
  4  5  1  0  0  0  0
  5  6  1  0  0  0  0
  1  6  1  0  0  0  0
  1  7  2  0  0  0  0
  8  9  1  0  0  0  0
  9 10  1  0  0  0  0
  3  9  1  0  0  0  0
  6 11  1  0  0  0  0
M  END
>  <cdx:groupId>
35

>  <cdx:fragmentId>
5

$$$$
