103862.cdx
  Mrv1902 05222410252D          

 10  9  0  0  0  0            999 V2000
    6.7169   -4.6266    0.0000 C   0  0  0  0  0  0  0  0  0  0  0  0
    6.7169   -5.4516    0.0000 C   0  0  0  0  0  0  0  0  0  0  0  0
    7.4313   -5.8641    0.0000 C   0  0  0  0  0  0  0  0  0  0  0  0
    8.1458   -5.4516    0.0000 C   0  0  0  0  0  0  0  0  0  0  0  0
    8.1458   -4.6266    0.0000 C   0  0  0  0  0  0  0  0  0  0  0  0
    6.0024   -4.2141    0.0000 O   0  0  0  0  0  0  0  0  0  0  0  0
    6.0024   -5.8641    0.0000 C   0  0  0  0  0  0  0  0  0  0  0  0
    5.2879   -5.4516    0.0000 C   0  0  0  0  0  0  0  0  0  0  0  0
    4.5735   -5.8641    0.0000 C   0  0  0  0  0  0  0  0  0  0  0  0
    8.8603   -5.8641    0.0000 C   0  0  0  0  0  0  0  0  0  0  0  0
  1  2  1  0  0  0  0
  2  3  1  0  0  0  0
  3  4  1  0  0  0  0
  4  5  1  0  0  0  0
  1  6  1  0  0  0  0
  7  8  1  0  0  0  0
  8  9  1  0  0  0  0
  2  7  1  0  0  0  0
  4 10  1  0  0  0  0
M  END
>  <cdx:groupId>
31

>  <cdx:fragmentId>
5

$$$$
