103884.cdx
  Mrv1902 05222410212D          

 37 39  0  0  0  0            999 V2000
    9.1009   -6.3892    0.0000 N   0  0  0  0  0  0  0  0  0  0  0  0
    8.3865   -5.9767    0.0000 C   0  0  0  0  0  0  0  0  0  0  0  0
    8.2150   -5.1698    0.0000 C   0  0  0  0  0  0  0  0  0  0  0  0
    7.4303   -4.9148    0.0000 N   0  0  0  0  0  0  0  0  0  0  0  0
    6.8172   -5.4669    0.0000 C   0  0  0  0  0  0  0  0  0  0  0  0
    5.9968   -5.3806    0.0000 C   0  0  1  0  0  0  0  0  0  0  0  0
    5.5118   -6.0481    0.0000 N   0  0  0  0  0  0  0  0  0  0  0  0
    5.8474   -6.8017    0.0000 C   0  0  0  0  0  0  0  0  0  0  0  0
    5.5118   -7.5554    0.0000 C   0  0  1  0  0  0  0  0  0  0  0  0
    5.9968   -8.2229    0.0000 N   0  0  0  0  0  0  0  0  0  0  0  0
    6.8172   -8.1366    0.0000 C   0  0  0  0  0  0  0  0  0  0  0  0
    7.4303   -8.6887    0.0000 C   0  0  1  0  0  0  0  0  0  0  0  0
    8.2150   -8.4337    0.0000 N   0  0  0  0  0  0  0  0  0  0  0  0
    8.3865   -7.6267    0.0000 C   0  0  0  0  0  0  0  0  0  0  0  0
    9.1009   -7.2142    0.0000 C   0  0  2  0  0  0  0  0  0  0  0  0
    9.8856   -7.4692    0.0000 C   0  0  0  0  0  0  0  0  0  0  0  0
   10.3705   -6.8017    0.0000 C   0  0  0  0  0  0  0  0  0  0  0  0
    9.8856   -6.1343    0.0000 C   0  0  0  0  0  0  0  0  0  0  0  0
    7.7190   -6.4617    0.0000 O   0  0  0  0  0  0  0  0  0  0  0  0
    7.0722   -6.2515    0.0000 O   0  0  0  0  0  0  0  0  0  0  0  0
    6.6724   -6.8017    0.0000 O   0  0  0  0  0  0  0  0  0  0  0  0
    7.0722   -7.3520    0.0000 O   0  0  0  0  0  0  0  0  0  0  0  0
    7.7190   -7.1418    0.0000 O   0  0  0  0  0  0  0  0  0  0  0  0
    4.6914   -7.6417    0.0000 C   0  0  0  0  0  0  0  0  0  0  0  0
    4.2064   -6.9742    0.0000 C   0  0  0  0  0  0  0  0  0  0  0  0
    4.5420   -6.2205    0.0000 C   0  0  0  0  0  0  0  0  0  0  0  0
    3.3859   -7.0604    0.0000 C   0  0  0  0  0  0  0  0  0  0  0  0
    5.6612   -4.6270    0.0000 C   0  0  0  0  0  0  0  0  0  0  0  0
    7.2588   -9.4956    0.0000 C   0  0  0  0  0  0  0  0  0  0  0  0
    6.4742   -9.7506    0.0000 C   0  0  0  0  0  0  0  0  0  0  0  0
    6.3027  -10.5575    0.0000 C   0  0  0  0  0  0  0  0  0  0  0  0
    5.5180  -10.8125    0.0000 C   0  0  0  0  0  0  0  0  0  0  0  0
    4.9049  -10.2604    0.0000 C   0  0  0  0  0  0  0  0  0  0  0  0
    5.0765   -9.4535    0.0000 C   0  0  0  0  0  0  0  0  0  0  0  0
    5.8611   -9.1985    0.0000 C   0  0  0  0  0  0  0  0  0  0  0  0
    4.1203  -10.5154    0.0000 O   0  0  0  0  0  0  0  0  0  0  0  0
    9.1872   -8.0347    0.0000 H   0  0  0  0  0  0  0  0  0  0  0  0
  1  2  1  0  0  0  0
  2  3  1  0  0  0  0
  3  4  1  0  0  0  0
  4  5  1  0  0  0  0
  5  6  1  0  0  0  0
  6  7  1  0  0  0  0
  7  8  1  0  0  0  0
  8  9  1  0  0  0  0
  9 10  1  0  0  0  0
 10 11  1  0  0  0  0
 11 12  1  0  0  0  0
 12 13  1  0  0  0  0
 13 14  1  0  0  0  0
 14 15  1  0  0  0  0
 15 16  1  0  0  0  0
 16 17  1  0  0  0  0
 17 18  1  0  0  0  0
  1 18  1  0  0  0  0
  1 15  1  0  0  0  0
  2 19  2  0  0  0  0
  5 20  2  0  0  0  0
  8 21  2  0  0  0  0
 11 22  2  0  0  0  0
 14 23  2  0  0  0  0
 24 25  1  0  0  0  0
 25 26  1  0  0  0  0
 25 27  1  0  0  0  0
  9 24  1  1  0  0  0
  6 28  1  1  0  0  0
 30 31  1  0  0  0  0
 31 32  2  0  0  0  0
 32 33  1  0  0  0  0
 33 34  2  0  0  0  0
 34 35  1  0  0  0  0
 30 35  2  0  0  0  0
 33 36  1  0  0  0  0
 29 30  1  0  0  0  0
 12 29  1  1  0  0  0
 15 37  1  6  0  0  0
M  END
>  <cdx:fragmentId>
48002

$$$$
