10392.cdx
  Mrv1902 05222410182D          

 32 34  0  0  0  0            999 V2000
   10.2852   -6.1607    0.0000 C   0  0  0  0  0  0  0  0  0  0  0  0
    9.5646   -6.5625    0.0000 C   0  0  0  0  0  0  0  0  0  0  0  0
    8.8564   -6.1394    0.0000 O   0  0  0  0  0  0  0  0  0  0  0  0
   13.1181   -7.8532    0.0000 O   0  0  0  0  0  0  0  0  0  0  0  0
   11.6893   -7.8319    0.0000 C   0  0  0  0  0  0  0  0  0  0  0  0
   10.9811   -7.4087    0.0000 C   0  0  0  0  0  0  0  0  0  0  0  0
   10.9934   -6.5838    0.0000 C   0  0  0  0  0  0  0  0  0  0  0  0
   11.7140   -6.1821    0.0000 C   0  0  0  0  0  0  0  0  0  0  0  0
   12.4222   -6.6052    0.0000 C   0  0  0  0  0  0  0  0  0  0  0  0
   12.4099   -7.4301    0.0000 C   0  0  0  0  0  0  0  0  0  0  0  0
    8.1358   -6.5411    0.0000 C   0  0  2  0  0  0  0  0  0  0  0  0
    7.4293   -6.1151    0.0000 O   0  0  0  0  0  0  0  0  0  0  0  0
    6.7072   -6.5140    0.0000 C   0  0  1  0  0  0  0  0  0  0  0  0
    6.7066   -7.3477    0.0000 C   0  0  2  0  0  0  0  0  0  0  0  0
    7.4182   -7.7650    0.0000 C   0  0  1  0  0  0  0  0  0  0  0  0
    8.1455   -7.3574    0.0000 C   0  0  1  0  0  0  0  0  0  0  0  0
    5.9893   -6.0900    0.0000 C   0  0  0  0  0  0  0  0  0  0  0  0
    7.4101   -8.5986    0.0000 O   0  0  0  0  0  0  0  0  0  0  0  0
    8.8673   -7.7746    0.0000 O   0  0  0  0  0  0  0  0  0  0  0  0
    5.9830   -7.7619    0.0000 O   0  0  0  0  0  0  0  0  0  0  0  0
    5.2632   -6.4998    0.0000 O   0  0  0  0  0  0  0  0  0  0  0  0
    4.5453   -6.0758    0.0000 C   0  0  0  0  0  0  0  0  0  0  0  0
    3.8192   -6.4856    0.0000 C   0  0  0  0  0  0  0  0  0  0  0  0
    4.5535   -5.2421    0.0000 O   0  0  0  0  0  0  0  0  0  0  0  0
    3.1095   -6.0649    0.0000 C   0  0  0  0  0  0  0  0  0  0  0  0
    2.3904   -6.4693    0.0000 C   0  0  0  0  0  0  0  0  0  0  0  0
    2.3867   -7.2976    0.0000 C   0  0  0  0  0  0  0  0  0  0  0  0
    3.0984   -7.7149    0.0000 C   0  0  0  0  0  0  0  0  0  0  0  0
    3.8194   -7.3072    0.0000 C   0  0  0  0  0  0  0  0  0  0  0  0
    1.6671   -7.7077    0.0000 O   0  0  0  0  0  0  0  0  0  0  0  0
    3.0918   -8.5432    0.0000 O   0  0  0  0  0  0  0  0  0  0  0  0
    1.6763   -6.0495    0.0000 O   0  0  0  0  0  0  0  0  0  0  0  0
  7  1  1  0  0  0  0
 10  4  1  0  0  0  0
 10  5  2  0  0  0  0
  6  5  1  0  0  0  0
  7  6  2  0  0  0  0
  2  3  1  0  0  0  0
  8  7  1  0  0  0  0
  9  8  2  0  0  0  0
 10  9  1  0  0  0  0
  1  2  1  0  0  0  0
 11  3  1  1  0  0  0
 11 12  1  0  0  0  0
 12 13  1  0  0  0  0
 13 14  1  0  0  0  0
 14 15  1  0  0  0  0
 15 16  1  0  0  0  0
 16 11  1  0  0  0  0
 13 17  1  1  0  0  0
 15 18  1  1  0  0  0
 16 19  1  6  0  0  0
 14 20  1  6  0  0  0
 17 21  1  0  0  0  0
 21 22  1  0  0  0  0
 22 23  1  0  0  0  0
 22 24  2  0  0  0  0
 23 25  2  0  0  0  0
 25 26  1  0  0  0  0
 26 27  2  0  0  0  0
 27 28  1  0  0  0  0
 28 29  2  0  0  0  0
 29 23  1  0  0  0  0
 27 30  1  0  0  0  0
 28 31  1  0  0  0  0
 26 32  1  0  0  0  0
M  END
>  <cdx:fragmentId>
5

$$$$
