10390.cdx
  Mrv1902 05222410182D          

 14 15  0  0  0  0            999 V2000
    3.0978   -3.8541    0.0000 C   0  0  0  0  0  0  0  0  0  0  0  0
    3.8123   -4.2666    0.0000 C   0  0  0  0  0  0  0  0  0  0  0  0
    3.8123   -5.0916    0.0000 C   0  0  0  0  0  0  0  0  0  0  0  0
    3.0978   -5.5041    0.0000 C   0  0  0  0  0  0  0  0  0  0  0  0
    2.3834   -5.0916    0.0000 C   0  0  0  0  0  0  0  0  0  0  0  0
    2.3834   -4.2666    0.0000 C   0  0  0  0  0  0  0  0  0  0  0  0
    4.5268   -3.8541    0.0000 C   0  0  0  0  0  0  0  0  0  0  0  0
    5.2412   -3.4416    0.0000 C   0  0  0  0  0  0  0  0  0  0  0  0
    5.9557   -3.0291    0.0000 C   0  0  0  0  0  0  0  0  0  0  0  0
    5.9557   -2.2041    0.0000 C   0  0  0  0  0  0  0  0  0  0  0  0
    6.6702   -1.7916    0.0000 C   0  0  0  0  0  0  0  0  0  0  0  0
    7.3846   -2.2041    0.0000 C   0  0  0  0  0  0  0  0  0  0  0  0
    7.3846   -3.0291    0.0000 C   0  0  0  0  0  0  0  0  0  0  0  0
    6.6702   -3.4416    0.0000 C   0  0  0  0  0  0  0  0  0  0  0  0
  1  2  1  0  0  0  0
  2  3  2  0  0  0  0
  3  4  1  0  0  0  0
  4  5  2  0  0  0  0
  5  6  1  0  0  0  0
  1  6  2  0  0  0  0
  7  8  3  0  0  0  0
  9 10  1  0  0  0  0
 10 11  2  0  0  0  0
 11 12  1  0  0  0  0
 12 13  2  0  0  0  0
 13 14  1  0  0  0  0
  9 14  2  0  0  0  0
  8  9  1  0  0  0  0
  2  7  1  0  0  0  0
M  END
>  <cdx:groupId>
45

>  <cdx:fragmentId>
21

$$$$
