1039.cdx
  Mrv1902 05222410252D          

 31 33  0  0  0  0            999 V2000
    5.7302   -5.0325    0.0000 C   0  0  0  0  0  0  0  0  0  0  0  0
    5.7302   -5.8575    0.0000 C   0  0  0  0  0  0  0  0  0  0  0  0
    6.4446   -6.2700    0.0000 C   0  0  0  0  0  0  0  0  0  0  0  0
    7.1591   -5.8575    0.0000 C   0  0  0  0  0  0  0  0  0  0  0  0
    7.1591   -5.0325    0.0000 C   0  0  0  0  0  0  0  0  0  0  0  0
    6.4446   -4.6200    0.0000 C   0  0  0  0  0  0  0  0  0  0  0  0
    6.4446   -3.7950    0.0000 O   0  0  0  0  0  0  0  0  0  0  0  0
    7.8736   -4.6200    0.0000 O   0  0  0  0  0  0  0  0  0  0  0  0
    5.0157   -6.2700    0.0000 O   0  0  0  0  0  0  0  0  0  0  0  0
    6.4446   -7.0950    0.0000 C   0  0  2  0  0  0  0  0  0  0  0  0
    5.7772   -7.5799    0.0000 C   0  0  2  0  0  0  0  0  0  0  0  0
    6.0321   -8.3645    0.0000 O   0  0  0  0  0  0  0  0  0  0  0  0
    6.8571   -8.3645    0.0000 C   0  0  1  0  0  0  0  0  0  0  0  0
    7.1121   -7.5799    0.0000 C   0  0  2  0  0  0  0  0  0  0  0  0
    7.9090   -7.3664    0.0000 C   0  0  0  0  0  0  0  0  0  0  0  0
    7.2696   -9.0790    0.0000 C   0  0  0  0  0  0  0  0  0  0  0  0
    4.9803   -7.3664    0.0000 C   0  0  0  0  0  0  0  0  0  0  0  0
    6.8571   -9.7935    0.0000 C   0  0  0  0  0  0  0  0  0  0  0  0
    7.2696  -10.5080    0.0000 C   0  0  0  0  0  0  0  0  0  0  0  0
    8.0946  -10.5080    0.0000 C   0  0  0  0  0  0  0  0  0  0  0  0
    8.5071   -9.7935    0.0000 C   0  0  0  0  0  0  0  0  0  0  0  0
    8.0946   -9.0790    0.0000 C   0  0  0  0  0  0  0  0  0  0  0  0
    9.3321   -9.7935    0.0000 O   0  0  0  0  0  0  0  0  0  0  0  0
    8.5071  -11.2224    0.0000 O   0  0  0  0  0  0  0  0  0  0  0  0
    6.0321   -9.7935    0.0000 O   0  0  0  0  0  0  0  0  0  0  0  0
    7.0280   -3.2116    0.0000 C   0  0  0  0  0  0  0  0  0  0  0  0
    8.5880   -5.0325    0.0000 C   0  0  0  0  0  0  0  0  0  0  0  0
    4.3012   -5.8575    0.0000 C   0  0  0  0  0  0  0  0  0  0  0  0
    5.4488   -9.2101    0.0000 C   0  0  0  0  0  0  0  0  0  0  0  0
    9.7446  -10.5080    0.0000 C   0  0  0  0  0  0  0  0  0  0  0  0
    8.0946  -11.9369    0.0000 C   0  0  0  0  0  0  0  0  0  0  0  0
  1  2  2  0  0  0  0
  2  3  1  0  0  0  0
  3  4  2  0  0  0  0
  4  5  1  0  0  0  0
  5  6  2  0  0  0  0
  6  1  1  0  0  0  0
  6  7  1  0  0  0  0
  5  8  1  0  0  0  0
  2  9  1  0  0  0  0
 10  3  1  1  0  0  0
 10 11  1  0  0  0  0
 11 12  1  0  0  0  0
 12 13  1  0  0  0  0
 13 14  1  0  0  0  0
 14 10  1  0  0  0  0
 14 15  1  1  0  0  0
 13 16  1  1  0  0  0
 11 17  1  6  0  0  0
 16 18  2  0  0  0  0
 18 19  1  0  0  0  0
 19 20  2  0  0  0  0
 20 21  1  0  0  0  0
 21 22  2  0  0  0  0
 22 16  1  0  0  0  0
 21 23  1  0  0  0  0
 20 24  1  0  0  0  0
 18 25  1  0  0  0  0
  7 26  1  0  0  0  0
  8 27  1  0  0  0  0
  9 28  1  0  0  0  0
 25 29  1  0  0  0  0
 23 30  1  0  0  0  0
 24 31  1  0  0  0  0
M  END
>  <cdx:fragmentId>
5

$$$$
