10394.cdx
  Mrv1902 05222410192D          

 12 12  0  0  0  0            999 V2000
    6.3402   -3.3489    0.0000 C   0  0  0  0  0  0  0  0  0  0  0  0
    5.6257   -3.7614    0.0000 C   0  0  0  0  0  0  0  0  0  0  0  0
    4.9112   -3.3489    0.0000 C   0  0  0  0  0  0  0  0  0  0  0  0
    6.3402   -2.5239    0.0000 O   0  0  0  0  0  0  0  0  0  0  0  0
    7.0546   -3.7614    0.0000 O   0  0  0  0  0  0  0  0  0  0  0  0
    4.1968   -3.7614    0.0000 C   0  0  0  0  0  0  0  0  0  0  0  0
    4.1968   -4.5864    0.0000 C   0  0  0  0  0  0  0  0  0  0  0  0
    3.4823   -4.9989    0.0000 C   0  0  0  0  0  0  0  0  0  0  0  0
    2.7678   -4.5864    0.0000 C   0  0  0  0  0  0  0  0  0  0  0  0
    2.7678   -3.7614    0.0000 C   0  0  0  0  0  0  0  0  0  0  0  0
    3.4823   -3.3489    0.0000 C   0  0  0  0  0  0  0  0  0  0  0  0
    2.0534   -4.9989    0.0000 O   0  0  0  0  0  0  0  0  0  0  0  0
  1  2  1  0  0  0  0
  2  3  1  0  0  0  0
  1  4  2  0  0  0  0
  1  5  1  0  0  0  0
  6  7  1  0  0  0  0
  7  8  2  0  0  0  0
  8  9  1  0  0  0  0
  9 10  2  0  0  0  0
 10 11  1  0  0  0  0
  6 11  2  0  0  0  0
  9 12  1  0  0  0  0
  3  6  1  0  0  0  0
M  END
>  <cdx:groupId>
38

>  <cdx:fragmentId>
15

$$$$
