10393.cdx
  Mrv1902 05222410182D          

 10 10  0  0  0  0            999 V2000
    9.1936   -6.2582    0.0000 C   0  0  0  0  0  0  0  0  0  0  0  0
    8.7752   -6.9692    0.0000 C   0  0  0  0  0  0  0  0  0  0  0  0
    7.9503   -6.9625    0.0000 C   0  0  0  0  0  0  0  0  0  0  0  0
    7.5436   -6.2446    0.0000 C   0  0  0  0  0  0  0  0  0  0  0  0
    7.9620   -5.5336    0.0000 C   0  0  0  0  0  0  0  0  0  0  0  0
    8.7869   -5.5403    0.0000 C   0  0  0  0  0  0  0  0  0  0  0  0
   10.0185   -6.2649    0.0000 O   0  0  0  0  0  0  0  0  0  0  0  0
    5.4871   -5.5133    0.0000 O   0  0  0  0  0  0  0  0  0  0  0  0
    6.3120   -5.5200    0.0000 C   0  0  0  0  0  0  0  0  0  0  0  0
    6.7187   -6.2379    0.0000 C   0  0  0  0  0  0  0  0  0  0  0  0
  9  8  1  0  0  0  0
 10  9  1  0  0  0  0
  1  2  1  0  0  0  0
  2  3  2  0  0  0  0
  3  4  1  0  0  0  0
  4  5  2  0  0  0  0
  5  6  1  0  0  0  0
  1  6  2  0  0  0  0
  1  7  1  0  0  0  0
  4 10  1  0  0  0  0
M  END
>  <cdx:fragmentId>
5

$$$$
