104.cdx
  Mrv1902 05222410182D          

 33 37  0  0  0  0            999 V2000
    3.9265   -9.4446    0.0000 C   0  0  0  0  0  0  0  0  0  0  0  0
    3.9265  -10.2696    0.0000 C   0  0  0  0  0  0  0  0  0  0  0  0
    4.6409  -10.6821    0.0000 C   0  0  0  0  0  0  0  0  0  0  0  0
    5.3554  -10.2696    0.0000 C   0  0  0  0  0  0  0  0  0  0  0  0
    5.3554   -9.4446    0.0000 C   0  0  2  0  0  0  0  0  0  0  0  0
    4.6409   -9.0321    0.0000 C   0  0  0  0  0  0  0  0  0  0  0  0
    6.0699  -10.6821    0.0000 C   0  0  0  0  0  0  0  0  0  0  0  0
    6.7843  -10.2696    0.0000 C   0  0  0  0  0  0  0  0  0  0  0  0
    6.7843   -9.4446    0.0000 C   0  0  2  0  0  0  0  0  0  0  0  0
    6.0699   -9.0321    0.0000 C   0  0  2  0  0  0  0  0  0  0  0  0
    7.4988   -9.0321    0.0000 C   0  0  2  0  0  0  0  0  0  0  0  0
    7.4988   -8.2071    0.0000 C   0  0  2  0  0  0  0  0  0  0  0  0
    6.7843   -7.7946    0.0000 C   0  0  0  0  0  0  0  0  0  0  0  0
    6.0699   -8.2071    0.0000 C   0  0  0  0  0  0  0  0  0  0  0  0
    8.2834   -9.2870    0.0000 C   0  0  0  0  0  0  0  0  0  0  0  0
    8.7684   -8.6196    0.0000 C   0  0  1  0  0  0  0  0  0  0  0  0
    8.2834   -7.9521    0.0000 C   0  0  2  0  0  0  0  0  0  0  0  0
    8.5384   -7.1675    0.0000 C   0  0  0  0  0  0  0  0  0  0  0  0
    9.3454   -6.9960    0.0000 C   0  0  0  0  0  0  0  0  0  0  0  0
    7.9863   -6.5544    0.0000 C   0  0  0  0  0  0  0  0  0  0  0  0
    9.6003   -6.2114    0.0000 C   0  0  0  0  0  0  0  0  0  0  0  0
    8.2413   -5.7698    0.0000 O   0  0  0  0  0  0  0  0  0  0  0  0
    9.0483   -5.5983    0.0000 C   0  0  0  0  0  0  0  0  0  0  0  0
    9.3032   -4.8137    0.0000 O   0  0  0  0  0  0  0  0  0  0  0  0
    5.3554   -8.6196    0.0000 C   0  0  0  0  0  0  0  0  0  0  0  0
    7.5851   -7.3866    0.0000 C   0  0  0  0  0  0  0  0  0  0  0  0
    9.5934   -8.6196    0.0000 O   0  0  0  0  0  0  0  0  0  0  0  0
    7.5851   -9.8526    0.0000 O   0  0  0  0  0  0  0  0  0  0  0  0
    6.7843   -8.6196    0.0000 H   0  0  0  0  0  0  0  0  0  0  0  0
    9.8069   -9.4165    0.0000 C   0  0  0  0  0  0  0  0  0  0  0  0
   10.6319   -9.4165    0.0000 C   0  0  0  0  0  0  0  0  0  0  0  0
    9.3944  -10.1309    0.0000 O   0  0  0  0  0  0  0  0  0  0  0  0
    6.0699   -9.8571    0.0000 H   0  0  0  0  0  0  0  0  0  0  0  0
  1  2  1  0  0  0  0
  2  3  1  0  0  0  0
  3  4  1  0  0  0  0
  4  5  1  0  0  0  0
  5  6  1  0  0  0  0
  6  1  1  0  0  0  0
  4  7  2  0  0  0  0
  7  8  1  0  0  0  0
  8  9  1  0  0  0  0
  9 10  1  0  0  0  0
 10  5  1  0  0  0  0
  9 11  1  0  0  0  0
 11 12  1  0  0  0  0
 12 13  1  0  0  0  0
 13 14  1  0  0  0  0
 14 10  1  0  0  0  0
 11 15  1  0  0  0  0
 15 16  1  0  0  0  0
 16 17  1  0  0  0  0
 17 12  1  0  0  0  0
 17 18  1  1  0  0  0
 18 19  1  0  0  0  0
 18 20  2  0  0  0  0
 19 21  2  0  0  0  0
 20 22  1  0  0  0  0
 21 23  1  0  0  0  0
 22 23  1  0  0  0  0
 23 24  2  0  0  0  0
  5 25  1  1  0  0  0
 12 26  1  1  0  0  0
 16 27  1  1  0  0  0
 11 28  1  1  0  0  0
  9 29  1  1  0  0  0
 27 30  1  0  0  0  0
 30 31  1  0  0  0  0
 30 32  2  0  0  0  0
 10 33  1  6  0  0  0
M  END
>  <cdx:fragmentId>
434

$$$$
