10403.cdx
  Mrv1902 05222410262D          

  9  9  0  0  0  0            999 V2000
    5.5139   -4.1456    0.0000 C   0  0  0  0  0  0  0  0  0  0  0  0
    5.5139   -4.9706    0.0000 C   0  0  0  0  0  0  0  0  0  0  0  0
    4.9305   -5.5540    0.0000 C   0  0  0  0  0  0  0  0  0  0  0  0
    4.1055   -5.5540    0.0000 C   0  0  0  0  0  0  0  0  0  0  0  0
    3.5222   -4.9706    0.0000 C   0  0  0  0  0  0  0  0  0  0  0  0
    3.5222   -4.1456    0.0000 C   0  0  0  0  0  0  0  0  0  0  0  0
    4.1055   -3.5623    0.0000 C   0  0  0  0  0  0  0  0  0  0  0  0
    4.9305   -3.5623    0.0000 C   0  0  0  0  0  0  0  0  0  0  0  0
    6.2761   -3.8299    0.0000 O   0  0  0  0  0  0  0  0  0  0  0  0
  1  2  1  0  0  0  0
  2  3  1  0  0  0  0
  3  4  1  0  0  0  0
  4  5  1  0  0  0  0
  5  6  1  0  0  0  0
  6  7  1  0  0  0  0
  7  8  1  0  0  0  0
  1  8  1  0  0  0  0
  1  9  2  0  0  0  0
M  END
>  <cdx:groupId>
29

>  <cdx:fragmentId>
5

$$$$
