10408.cdx
  Mrv1902 05222410192D          

 19 18  0  0  0  0            999 V2000
   12.0688   -3.8635    0.0000 C   0  0  0  0  0  0  0  0  0  0  0  0
   11.3543   -3.4510    0.0000 C   0  0  0  0  0  0  0  0  0  0  0  0
   10.6399   -3.8635    0.0000 C   0  0  0  0  0  0  0  0  0  0  0  0
    9.9254   -3.4510    0.0000 C   0  0  0  0  0  0  0  0  0  0  0  0
    9.2109   -3.8635    0.0000 C   0  0  0  0  0  0  0  0  0  0  0  0
    8.4964   -3.4510    0.0000 C   0  0  0  0  0  0  0  0  0  0  0  0
    7.7820   -3.8635    0.0000 C   0  0  0  0  0  0  0  0  0  0  0  0
    7.0675   -3.4510    0.0000 C   0  0  0  0  0  0  0  0  0  0  0  0
    6.3530   -3.8635    0.0000 C   0  0  0  0  0  0  0  0  0  0  0  0
    5.6386   -3.4510    0.0000 C   0  0  0  0  0  0  0  0  0  0  0  0
    4.9241   -3.8635    0.0000 C   0  0  0  0  0  0  0  0  0  0  0  0
    4.2096   -3.4510    0.0000 C   0  0  0  0  0  0  0  0  0  0  0  0
    3.4951   -3.8635    0.0000 C   0  0  0  0  0  0  0  0  0  0  0  0
    2.7807   -3.4510    0.0000 C   0  0  0  0  0  0  0  0  0  0  0  0
    2.7807   -2.6260    0.0000 C   0  0  0  0  0  0  0  0  0  0  0  0
   11.3543   -2.6260    0.0000 O   0  0  0  0  0  0  0  0  0  0  0  0
    2.0662   -3.8635    0.0000 C   0  0  0  0  0  0  0  0  0  0  0  0
    5.6386   -2.6260    0.0000 C   0  0  0  0  0  0  0  0  0  0  0  0
    8.4964   -2.6260    0.0000 C   0  0  0  0  0  0  0  0  0  0  0  0
  1  2  1  0  0  0  0
  2  3  1  0  0  0  0
  3  4  1  0  0  0  0
  4  5  1  0  0  0  0
  5  6  1  0  0  0  0
  6  7  1  0  0  0  0
  7  8  1  0  0  0  0
  8  9  1  0  0  0  0
  9 10  1  0  0  0  0
 10 11  1  0  0  0  0
 11 12  1  0  0  0  0
 12 13  1  0  0  0  0
 13 14  1  0  0  0  0
 14 15  1  0  0  0  0
  2 16  2  0  0  0  0
 14 17  1  0  0  0  0
 10 18  1  0  0  0  0
  6 19  1  0  0  0  0
M  END
>  <cdx:fragmentId>
5

$$$$
