1040.cdx
  Mrv1902 05222410182D          

 32 35  0  0  0  0            999 V2000
    4.2589   -5.1013    0.0000 C   0  0  0  0  0  0  0  0  0  0  0  0
    4.2589   -5.9262    0.0000 C   0  0  0  0  0  0  0  0  0  0  0  0
    4.9734   -6.3388    0.0000 C   0  0  0  0  0  0  0  0  0  0  0  0
    5.6878   -5.9262    0.0000 C   0  0  0  0  0  0  0  0  0  0  0  0
    5.6878   -5.1013    0.0000 C   0  0  0  0  0  0  0  0  0  0  0  0
    4.9734   -4.6888    0.0000 C   0  0  0  0  0  0  0  0  0  0  0  0
    4.9734   -3.8638    0.0000 O   0  0  0  0  0  0  0  0  0  0  0  0
    3.5444   -6.3388    0.0000 O   0  0  0  0  0  0  0  0  0  0  0  0
    6.4023   -6.3388    0.0000 C   0  0  1  0  0  0  0  0  0  0  0  0
    6.4886   -7.1592    0.0000 C   0  0  1  0  0  0  0  0  0  0  0  0
    7.2955   -7.3308    0.0000 C   0  0  1  0  0  0  0  0  0  0  0  0
    7.7080   -6.6163    0.0000 C   0  0  0  0  0  0  0  0  0  0  0  0
    7.1560   -6.0032    0.0000 O   0  0  0  0  0  0  0  0  0  0  0  0
    6.0761   -7.8737    0.0000 C   0  0  0  0  0  0  0  0  0  0  0  0
    6.6281   -8.4868    0.0000 O   0  0  0  0  0  0  0  0  0  0  0  0
    7.3818   -8.1512    0.0000 C   0  0  1  0  0  0  0  0  0  0  0  0
    5.6917   -6.9457    0.0000 H   0  0  0  0  0  0  0  0  0  0  0  0
    8.0924   -7.5443    0.0000 H   0  0  0  0  0  0  0  0  0  0  0  0
    8.0962   -8.5637    0.0000 C   0  0  0  0  0  0  0  0  0  0  0  0
    8.0962   -9.3887    0.0000 C   0  0  0  0  0  0  0  0  0  0  0  0
    8.8107   -9.8012    0.0000 C   0  0  0  0  0  0  0  0  0  0  0  0
    9.5252   -9.3887    0.0000 C   0  0  0  0  0  0  0  0  0  0  0  0
    9.5252   -8.5637    0.0000 C   0  0  0  0  0  0  0  0  0  0  0  0
    8.8107   -8.1512    0.0000 C   0  0  0  0  0  0  0  0  0  0  0  0
    8.8107  -10.6262    0.0000 O   0  0  0  0  0  0  0  0  0  0  0  0
   10.2396   -9.8012    0.0000 O   0  0  0  0  0  0  0  0  0  0  0  0
   10.2396   -8.1512    0.0000 O   0  0  0  0  0  0  0  0  0  0  0  0
    5.6878   -3.4513    0.0000 C   0  0  0  0  0  0  0  0  0  0  0  0
    2.8300   -5.9262    0.0000 C   0  0  0  0  0  0  0  0  0  0  0  0
   10.9541   -8.5637    0.0000 C   0  0  0  0  0  0  0  0  0  0  0  0
   10.2396  -10.6262    0.0000 C   0  0  0  0  0  0  0  0  0  0  0  0
    8.2273  -11.2096    0.0000 C   0  0  0  0  0  0  0  0  0  0  0  0
  1  2  2  0  0  0  0
  2  3  1  0  0  0  0
  3  4  2  0  0  0  0
  4  5  1  0  0  0  0
  5  6  2  0  0  0  0
  6  1  1  0  0  0  0
  6  7  1  0  0  0  0
  2  8  1  0  0  0  0
  9  4  1  6  0  0  0
  9 10  1  0  0  0  0
 10 11  1  0  0  0  0
 11 12  1  0  0  0  0
 12 13  1  0  0  0  0
 13  9  1  0  0  0  0
 10 14  1  0  0  0  0
 14 15  1  0  0  0  0
 15 16  1  0  0  0  0
 16 11  1  0  0  0  0
 10 17  1  6  0  0  0
 11 18  1  6  0  0  0
 16 19  1  6  0  0  0
 19 20  2  0  0  0  0
 20 21  1  0  0  0  0
 21 22  2  0  0  0  0
 22 23  1  0  0  0  0
 23 24  2  0  0  0  0
 24 19  1  0  0  0  0
 21 25  1  0  0  0  0
 22 26  1  0  0  0  0
 23 27  1  0  0  0  0
  7 28  1  0  0  0  0
  8 29  1  0  0  0  0
 27 30  1  0  0  0  0
 26 31  1  0  0  0  0
 25 32  1  0  0  0  0
M  END
>  <cdx:fragmentId>
5

$$$$
