104285.cdx
  Mrv1902 05222410202D          

 10  9  0  0  0  0            999 V2000
    5.5993   -4.0208    0.0000 S   0  0  0  0  0  0  0  0  0  0  0  0
    6.3137   -3.6083    0.0000 S   0  0  0  0  0  0  0  0  0  0  0  0
    4.8848   -3.6083    0.0000 S   0  0  0  0  0  0  0  0  0  0  0  0
    7.0282   -4.0208    0.0000 S   0  0  0  0  0  0  0  0  0  0  0  0
    4.1703   -4.0208    0.0000 C   0  0  0  0  0  0  0  0  0  0  0  0
    3.4559   -3.6083    0.0000 C   0  0  0  0  0  0  0  0  0  0  0  0
    2.7414   -4.0208    0.0000 C   0  0  0  0  0  0  0  0  0  0  0  0
    7.7427   -3.6083    0.0000 C   0  0  0  0  0  0  0  0  0  0  0  0
    8.4571   -4.0208    0.0000 C   0  0  0  0  0  0  0  0  0  0  0  0
    9.1716   -3.6083    0.0000 C   0  0  0  0  0  0  0  0  0  0  0  0
  1  2  1  0  0  0  0
  1  3  1  0  0  0  0
  2  4  1  0  0  0  0
  5  6  1  0  0  0  0
  6  7  1  0  0  0  0
  3  5  1  0  0  0  0
  8  9  1  0  0  0  0
  9 10  1  0  0  0  0
  4  8  1  0  0  0  0
M  END
>  <cdx:groupId>
31

>  <cdx:fragmentId>
5

$$$$
