1042.cdx
  Mrv1902 05222410192D          

 29 34  0  0  0  0            999 V2000
    3.5625   -8.9951    0.0000 O   0  0  0  0  0  0  0  0  0  0  0  0
    3.0775   -9.6625    0.0000 C   0  0  0  0  0  0  0  0  0  0  0  0
    3.5625  -10.3300    0.0000 O   0  0  0  0  0  0  0  0  0  0  0  0
    8.5398   -6.8558    0.0000 C   0  0  0  0  0  0  0  0  0  0  0  0
    9.2543   -7.2683    0.0000 C   0  0  0  0  0  0  0  0  0  0  0  0
    9.9688   -6.8558    0.0000 C   0  0  0  0  0  0  0  0  0  0  0  0
    9.9688   -6.0308    0.0000 C   0  0  0  0  0  0  0  0  0  0  0  0
    9.2543   -5.6183    0.0000 C   0  0  0  0  0  0  0  0  0  0  0  0
    8.5398   -6.0308    0.0000 C   0  0  0  0  0  0  0  0  0  0  0  0
    5.0615   -8.8375    0.0000 C   0  0  0  0  0  0  0  0  0  0  0  0
    4.3471   -9.2500    0.0000 C   0  0  0  0  0  0  0  0  0  0  0  0
    4.3471  -10.0750    0.0000 C   0  0  0  0  0  0  0  0  0  0  0  0
    5.0615  -10.4875    0.0000 C   0  0  0  0  0  0  0  0  0  0  0  0
    5.7760  -10.0750    0.0000 C   0  0  0  0  0  0  0  0  0  0  0  0
   10.7534   -7.1107    0.0000 O   0  0  0  0  0  0  0  0  0  0  0  0
   11.2383   -6.4433    0.0000 C   0  0  0  0  0  0  0  0  0  0  0  0
   10.7534   -5.7758    0.0000 O   0  0  0  0  0  0  0  0  0  0  0  0
    5.7760   -9.2500    0.0000 C   0  0  0  0  0  0  0  0  0  0  0  0
    8.3954   -8.0529    0.0000 H   0  0  0  0  0  0  0  0  0  0  0  0
    5.9204   -8.0529    0.0000 H   0  0  0  0  0  0  0  0  0  0  0  0
    7.8254   -7.2683    0.0000 C   0  0  1  0  0  0  0  0  0  0  0  0
    7.1579   -6.7834    0.0000 O   0  0  0  0  0  0  0  0  0  0  0  0
    6.4905   -7.2683    0.0000 C   0  0  0  0  0  0  0  0  0  0  0  0
    6.7454   -8.0529    0.0000 C   0  0  2  0  0  0  0  0  0  0  0  0
    6.4905   -8.8375    0.0000 C   0  0  2  0  0  0  0  0  0  0  0  0
    7.1579   -9.3225    0.0000 O   0  0  0  0  0  0  0  0  0  0  0  0
    7.8254   -8.8375    0.0000 C   0  0  0  0  0  0  0  0  0  0  0  0
    7.5704   -8.0529    0.0000 C   0  0  2  0  0  0  0  0  0  0  0  0
    8.6100   -9.0925    0.0000 O   0  0  0  0  0  0  0  0  0  0  0  0
  1 11  1  0  0  0  0
  2  1  1  0  0  0  0
  3  2  1  0  0  0  0
 12  3  1  0  0  0  0
  4  5  2  0  0  0  0
 10 18  1  0  0  0  0
 11 10  2  0  0  0  0
 12 11  1  0  0  0  0
 13 12  2  0  0  0  0
 14 13  1  0  0  0  0
 18 14  2  0  0  0  0
  5  6  1  0  0  0  0
  6  7  2  0  0  0  0
  7  8  1  0  0  0  0
  8  9  2  0  0  0  0
  9  4  1  0  0  0  0
  6 15  1  0  0  0  0
 15 16  1  0  0  0  0
 16 17  1  0  0  0  0
 25 18  1  6  0  0  0
 21  4  1  6  0  0  0
 17  7  1  0  0  0  0
 28 19  1  6  0  0  0
 24 20  1  6  0  0  0
 21 28  1  0  0  0  0
 22 21  1  0  0  0  0
 23 22  1  0  0  0  0
 24 23  1  0  0  0  0
 24 28  1  0  0  0  0
 25 24  1  0  0  0  0
 26 25  1  0  0  0  0
 27 26  1  0  0  0  0
 28 27  1  0  0  0  0
 27 29  2  0  0  0  0
M  END
>  <cdx:fragmentId>
5

$$$$
