104307.cdx
  Mrv1902 05222410232D          

  9  8  0  0  0  0            999 V2000
    6.5292   -3.2096    0.0000 C   0  0  0  0  0  0  0  0  0  0  0  0
    5.8148   -2.7971    0.0000 C   0  0  0  0  0  0  0  0  0  0  0  0
    5.1003   -3.2096    0.0000 C   0  0  0  0  0  0  0  0  0  0  0  0
    4.3858   -2.7971    0.0000 C   0  0  0  0  0  0  0  0  0  0  0  0
    3.6714   -3.2096    0.0000 C   0  0  0  0  0  0  0  0  0  0  0  0
    2.9569   -2.7971    0.0000 C   0  0  0  0  0  0  0  0  0  0  0  0
    2.2424   -3.2096    0.0000 C   0  0  0  0  0  0  0  0  0  0  0  0
    7.2437   -2.7971    0.0000 O   0  0  0  0  0  0  0  0  0  0  0  0
    2.9569   -1.9721    0.0000 C   0  0  0  0  0  0  0  0  0  0  0  0
  1  2  1  0  0  0  0
  2  3  1  0  0  0  0
  3  4  1  0  0  0  0
  4  5  1  0  0  0  0
  5  6  1  0  0  0  0
  6  7  1  0  0  0  0
  1  8  2  0  0  0  0
  6  9  1  0  0  0  0
M  END
>  <cdx:groupId>
28

>  <cdx:fragmentId>
5

$$$$
