10438.cdx
  Mrv1902 05222410272D          

 10  9  0  0  0  0            999 V2000
    6.1686   -2.2204    0.0000 C   0  0  0  0  0  0  0  0  0  0  0  0
    6.1686   -3.0454    0.0000 C   0  0  0  0  0  0  0  0  0  0  0  0
    5.4541   -3.4579    0.0000 C   0  0  0  0  0  0  0  0  0  0  0  0
    4.7396   -3.0454    0.0000 C   0  0  0  0  0  0  0  0  0  0  0  0
    4.0252   -3.4579    0.0000 C   0  0  0  0  0  0  0  0  0  0  0  0
    3.3107   -3.0454    0.0000 C   0  0  0  0  0  0  0  0  0  0  0  0
    2.5962   -3.4579    0.0000 C   0  0  0  0  0  0  0  0  0  0  0  0
    4.7396   -2.2204    0.0000 O   0  0  0  0  0  0  0  0  0  0  0  0
    3.3107   -2.2204    0.0000 C   0  0  0  0  0  0  0  0  0  0  0  0
    6.8830   -3.4579    0.0000 C   0  0  0  0  0  0  0  0  0  0  0  0
  1  2  1  0  0  0  0
  2  3  2  0  0  0  0
  3  4  1  0  0  0  0
  4  5  1  0  0  0  0
  5  6  2  0  0  0  0
  6  7  1  0  0  0  0
  4  8  2  0  0  0  0
  6  9  1  0  0  0  0
  2 10  1  0  0  0  0
M  END
>  <cdx:groupId>
31

>  <cdx:fragmentId>
5

$$$$
