10433.cdx
  Mrv1902 05222410202D          

 16 17  0  0  0  0            999 V2000
    6.5345   -5.8781    0.0000 C   0  0  1  0  0  0  0  0  0  0  0  0
    6.5345   -6.7031    0.0000 C   0  0  0  0  0  0  0  0  0  0  0  0
    7.2490   -7.1156    0.0000 C   0  0  0  0  0  0  0  0  0  0  0  0
    7.9635   -6.7031    0.0000 C   0  0  2  0  0  0  0  0  0  0  0  0
    7.9635   -5.8781    0.0000 C   0  0  1  0  0  0  0  0  0  0  0  0
    7.2490   -5.4656    0.0000 C   0  0  0  0  0  0  0  0  0  0  0  0
    8.6779   -7.1156    0.0000 C   0  0  0  0  0  0  0  0  0  0  0  0
    9.3924   -6.7031    0.0000 C   0  0  0  0  0  0  0  0  0  0  0  0
    9.3924   -5.8781    0.0000 C   0  0  0  0  0  0  0  0  0  0  0  0
    8.6779   -5.4656    0.0000 C   0  0  0  0  0  0  0  0  0  0  0  0
    5.8201   -5.4656    0.0000 C   0  0  0  0  0  0  0  0  0  0  0  0
    7.9635   -5.0531    0.0000 H   0  0  0  0  0  0  0  0  0  0  0  0
    7.9635   -7.5281    0.0000 C   0  0  0  0  0  0  0  0  0  0  0  0
    5.1056   -5.8781    0.0000 C   0  0  0  0  0  0  0  0  0  0  0  0
    5.8201   -4.6406    0.0000 C   0  0  0  0  0  0  0  0  0  0  0  0
    8.6779   -4.6406    0.0000 C   0  0  0  0  0  0  0  0  0  0  0  0
  1  2  1  0  0  0  0
  2  3  1  0  0  0  0
  3  4  1  0  0  0  0
  4  5  1  0  0  0  0
  5  6  1  0  0  0  0
  6  1  1  0  0  0  0
  4  7  1  0  0  0  0
  7  8  1  0  0  0  0
  8  9  1  0  0  0  0
  9 10  2  0  0  0  0
 10  5  1  0  0  0  0
  1 11  1  6  0  0  0
  5 12  1  6  0  0  0
  4 13  1  1  0  0  0
 11 14  1  0  0  0  0
 11 15  2  0  0  0  0
 10 16  1  0  0  0  0
M  END
>  <cdx:fragmentId>
5

$$$$
