10430.cdx
  Mrv1902 05222410192D          

  7  6  0  0  0  0            999 V2000
    4.7271   -2.9777    0.0000 C   0  0  0  0  0  0  0  0  0  0  0  0
    4.0126   -3.3902    0.0000 C   0  0  0  0  0  0  0  0  0  0  0  0
    3.2982   -2.9777    0.0000 C   0  0  0  0  0  0  0  0  0  0  0  0
    2.5837   -3.3902    0.0000 C   0  0  0  0  0  0  0  0  0  0  0  0
    4.7271   -2.1527    0.0000 O   0  0  0  0  0  0  0  0  0  0  0  0
    5.4416   -3.3902    0.0000 O   0  0  0  0  0  0  0  0  0  0  0  0
    3.2982   -2.1527    0.0000 C   0  0  0  0  0  0  0  0  0  0  0  0
  1  2  1  0  0  0  0
  2  3  1  0  0  0  0
  3  4  1  0  0  0  0
  1  5  2  0  0  0  0
  1  6  1  0  0  0  0
  3  7  1  0  0  0  0
M  END
>  <cdx:groupId>
22

>  <cdx:fragmentId>
5

$$$$
