10436.cdx
  Mrv1902 05222410182D          

  9  9  0  0  0  0            999 V2000
    4.7477   -2.4414    0.0000 C   0  0  0  0  0  0  0  0  0  0  0  0
    4.7477   -3.2664    0.0000 C   0  0  0  0  0  0  0  0  0  0  0  0
    4.0333   -3.6789    0.0000 C   0  0  0  0  0  0  0  0  0  0  0  0
    3.3188   -3.2664    0.0000 C   0  0  0  0  0  0  0  0  0  0  0  0
    3.3188   -2.4414    0.0000 C   0  0  0  0  0  0  0  0  0  0  0  0
    4.0333   -2.0289    0.0000 C   0  0  0  0  0  0  0  0  0  0  0  0
    5.4622   -2.0289    0.0000 O   0  0  0  0  0  0  0  0  0  0  0  0
    4.0333   -4.5039    0.0000 O   0  0  0  0  0  0  0  0  0  0  0  0
    2.6043   -2.0289    0.0000 C   0  0  0  0  0  0  0  0  0  0  0  0
  1  2  1  0  0  0  0
  2  3  2  0  0  0  0
  3  4  1  0  0  0  0
  4  5  2  0  0  0  0
  5  6  1  0  0  0  0
  1  6  2  0  0  0  0
  1  7  1  0  0  0  0
  3  8  1  0  0  0  0
  5  9  1  0  0  0  0
M  END
>  <cdx:groupId>
29

>  <cdx:fragmentId>
5

$$$$
