1043.cdx
  Mrv1902 05222410192D          

 24 26  0  0  0  0            999 V2000
    4.0870   -7.1362    0.0000 C   0  0  0  0  0  0  0  0  0  0  0  0
    4.0870   -7.9612    0.0000 C   0  0  0  0  0  0  0  0  0  0  0  0
    4.8015   -8.3737    0.0000 C   0  0  0  0  0  0  0  0  0  0  0  0
    5.5160   -7.9612    0.0000 C   0  0  0  0  0  0  0  0  0  0  0  0
    5.5160   -7.1362    0.0000 C   0  0  0  0  0  0  0  0  0  0  0  0
    4.8015   -6.7237    0.0000 C   0  0  0  0  0  0  0  0  0  0  0  0
    6.2304   -8.3737    0.0000 C   0  0  0  0  0  0  0  0  0  0  0  0
    6.9449   -7.9612    0.0000 C   0  0  0  0  0  0  0  0  0  0  0  0
    7.6594   -8.3737    0.0000 C   0  0  0  0  0  0  0  0  0  0  0  0
    8.3739   -7.9612    0.0000 O   0  0  0  0  0  0  0  0  0  0  0  0
    7.6594   -9.1987    0.0000 O   0  0  0  0  0  0  0  0  0  0  0  0
    3.3726   -6.7237    0.0000 O   0  0  0  0  0  0  0  0  0  0  0  0
    3.3726   -8.3737    0.0000 O   0  0  0  0  0  0  0  0  0  0  0  0
    8.3739   -7.1362    0.0000 C   0  0  0  0  0  0  0  0  0  0  0  0
    9.1840   -6.9804    0.0000 C   0  0  0  0  0  0  0  0  0  0  0  0
    9.9631   -7.2517    0.0000 C   0  0  0  0  0  0  0  0  0  0  0  0
   10.4274   -6.5698    0.0000 C   0  0  0  0  0  0  0  0  0  0  0  0
    8.8381   -6.4544    0.0000 C   0  0  0  0  0  0  0  0  0  0  0  0
    9.6483   -6.2985    0.0000 C   0  0  0  0  0  0  0  0  0  0  0  0
    9.2888   -5.5568    0.0000 C   0  0  0  0  0  0  0  0  0  0  0  0
    9.3975   -7.7773    0.0000 C   0  0  0  0  0  0  0  0  0  0  0  0
   10.0033   -5.1443    0.0000 C   0  0  0  0  0  0  0  0  0  0  0  0
    8.5744   -5.1443    0.0000 C   0  0  0  0  0  0  0  0  0  0  0  0
    3.3726   -9.1987    0.0000 C   0  0  0  0  0  0  0  0  0  0  0  0
  1  2  2  0  0  0  0
  2  3  1  0  0  0  0
  3  4  2  0  0  0  0
  4  5  1  0  0  0  0
  5  6  2  0  0  0  0
  6  1  1  0  0  0  0
  4  7  1  0  0  0  0
  7  8  2  0  0  0  0
  8  9  1  0  0  0  0
  9 10  1  0  0  0  0
  9 11  2  0  0  0  0
  1 12  1  0  0  0  0
  2 13  1  0  0  0  0
 10 14  1  0  0  0  0
 14 15  1  0  0  0  0
 15 16  1  0  0  0  0
 16 17  1  0  0  0  0
 14 18  1  0  0  0  0
 18 19  1  0  0  0  0
 17 19  1  0  0  0  0
 19 20  1  0  0  0  0
 15 20  1  0  0  0  0
 15 21  1  0  0  0  0
 20 22  1  0  0  0  0
 20 23  1  0  0  0  0
 13 24  1  0  0  0  0
M  END
>  <cdx:fragmentId>
800

$$$$
