10441.cdx
  Mrv1902 05222410202D          

 31 34  0  0  0  0            999 V2000
    3.4339   -7.5213    0.0000 C   0  0  0  0  0  0  0  0  0  0  0  0
    3.4339   -8.3462    0.0000 C   0  0  0  0  0  0  0  0  0  0  0  0
    4.1484   -8.7588    0.0000 C   0  0  0  0  0  0  0  0  0  0  0  0
    4.8628   -8.3462    0.0000 C   0  0  0  0  0  0  0  0  0  0  0  0
    4.8628   -7.5213    0.0000 C   0  0  2  0  0  0  0  0  0  0  0  0
    4.1484   -7.1088    0.0000 C   0  0  0  0  0  0  0  0  0  0  0  0
    5.5773   -8.7588    0.0000 C   0  0  0  0  0  0  0  0  0  0  0  0
    6.2918   -8.3462    0.0000 C   0  0  0  0  0  0  0  0  0  0  0  0
    6.2918   -7.5213    0.0000 C   0  0  0  0  0  0  0  0  0  0  0  0
    5.5773   -7.1088    0.0000 C   0  0  2  0  0  0  0  0  0  0  0  0
    7.0063   -7.1088    0.0000 C   0  0  0  0  0  0  0  0  0  0  0  0
    7.0063   -6.2837    0.0000 C   0  0  1  0  0  0  0  0  0  0  0  0
    6.2918   -5.8712    0.0000 C   0  0  0  0  0  0  0  0  0  0  0  0
    5.5773   -6.2837    0.0000 C   0  0  0  0  0  0  0  0  0  0  0  0
    7.0063   -5.4588    0.0000 C   0  0  0  0  0  0  0  0  0  0  0  0
    4.8628   -6.6962    0.0000 C   0  0  0  0  0  0  0  0  0  0  0  0
    2.7194   -8.7588    0.0000 O   0  0  0  0  0  0  0  0  0  0  0  0
    7.7909   -7.3637    0.0000 C   0  0  0  0  0  0  0  0  0  0  0  0
    8.2758   -6.6962    0.0000 C   0  0  0  0  0  0  0  0  0  0  0  0
    7.7909   -6.0288    0.0000 C   0  0  2  0  0  0  0  0  0  0  0  0
    8.0458   -5.2442    0.0000 C   0  0  2  0  0  0  0  0  0  0  0  0
    7.4938   -4.6311    0.0000 C   0  0  0  0  0  0  0  0  0  0  0  0
    8.8528   -5.0727    0.0000 C   0  0  0  0  0  0  0  0  0  0  0  0
    9.1077   -4.2880    0.0000 C   0  0  0  0  0  0  0  0  0  0  0  0
    9.9147   -4.1165    0.0000 C   0  0  2  0  0  0  0  0  0  0  0  0
   10.4667   -4.7296    0.0000 C   0  0  0  0  0  0  0  0  0  0  0  0
   10.1696   -3.3319    0.0000 C   0  0  0  0  0  0  0  0  0  0  0  0
    9.6176   -2.7188    0.0000 C   0  0  0  0  0  0  0  0  0  0  0  0
   10.9766   -3.1604    0.0000 C   0  0  0  0  0  0  0  0  0  0  0  0
    8.5755   -5.7739    0.0000 H   0  0  0  0  0  0  0  0  0  0  0  0
    5.5773   -7.9337    0.0000 H   0  0  0  0  0  0  0  0  0  0  0  0
  1  2  1  0  0  0  0
  2  3  1  0  0  0  0
  3  4  2  0  0  0  0
  4  5  1  0  0  0  0
  5  6  1  0  0  0  0
  6  1  1  0  0  0  0
  4  7  1  0  0  0  0
  7  8  2  0  0  0  0
  8  9  1  0  0  0  0
  9 10  1  0  0  0  0
 10  5  1  0  0  0  0
  9 11  2  0  0  0  0
 11 12  1  0  0  0  0
 12 13  1  0  0  0  0
 13 14  1  0  0  0  0
 14 10  1  0  0  0  0
 12 15  1  1  0  0  0
  5 16  1  1  0  0  0
  2 17  2  0  0  0  0
 11 18  1  0  0  0  0
 18 19  1  0  0  0  0
 19 20  1  0  0  0  0
 20 12  1  0  0  0  0
 20 21  1  0  0  0  0
 21 22  1  6  0  0  0
 21 23  1  0  0  0  0
 23 24  2  0  0  0  0
 24 25  1  0  0  0  0
 25 26  1  1  0  0  0
 25 27  1  0  0  0  0
 27 28  1  0  0  0  0
 27 29  1  0  0  0  0
 20 30  1  6  0  0  0
 10 31  1  6  0  0  0
M  END
>  <cdx:fragmentId>
5

$$$$
