10444.cdx
  Mrv1902 05222410222D          

  5  5  0  0  0  0            999 V2000
    5.2759   -2.0646    0.0000 S   0  0  0  0  0  0  0  0  0  0  0  0
    5.5308   -2.8492    0.0000 C   0  0  0  0  0  0  0  0  0  0  0  0
    4.8634   -3.3341    0.0000 N   0  0  0  0  0  0  0  0  0  0  0  0
    4.1959   -2.8492    0.0000 C   0  0  0  0  0  0  0  0  0  0  0  0
    4.4509   -2.0646    0.0000 C   0  0  0  0  0  0  0  0  0  0  0  0
  1  2  1  0  0  0  0
  2  3  1  0  0  0  0
  3  4  1  0  0  0  0
  4  5  1  0  0  0  0
  1  5  1  0  0  0  0
M  END
>  <cdx:groupId>
17

>  <cdx:fragmentId>
5

$$$$
