10451.cdx
  Mrv1902 05222410232D          

  6  6  0  0  0  0            999 V2000
    7.9426   -3.8775    0.0000 S   0  0  0  0  0  0  0  0  0  0  0  0
    7.2281   -4.2900    0.0000 C   0  0  0  0  0  0  0  0  0  0  0  0
    6.5136   -3.8775    0.0000 S   0  0  0  0  0  0  0  0  0  0  0  0
    6.5136   -3.0525    0.0000 C   0  0  0  0  0  0  0  0  0  0  0  0
    7.2281   -2.6400    0.0000 C   0  0  0  0  0  0  0  0  0  0  0  0
    7.9426   -3.0525    0.0000 C   0  0  0  0  0  0  0  0  0  0  0  0
  1  2  1  0  0  0  0
  2  3  1  0  0  0  0
  3  4  1  0  0  0  0
  4  5  1  0  0  0  0
  5  6  1  0  0  0  0
  1  6  1  0  0  0  0
M  END
>  <cdx:groupId>
20

>  <cdx:fragmentId>
5

$$$$
