1045.cdx
  Mrv1902 05222410202D          

  6  5  0  0  0  0            999 V2000
    2.8429   -3.0297    0.0000 C   0  0  0  0  0  0  0  0  0  0  0  0
    3.5574   -3.4422    0.0000 C   0  0  0  0  0  0  0  0  0  0  0  0
    4.2719   -3.0297    0.0000 C   0  0  0  0  0  0  0  0  0  0  0  0
    4.9863   -3.4422    0.0000 C   0  0  0  0  0  0  0  0  0  0  0  0
    2.1284   -3.4422    0.0000 N   0  0  0  0  0  0  0  0  0  0  0  0
    5.7008   -3.0297    0.0000 N   0  0  0  0  0  0  0  0  0  0  0  0
  1  2  1  0  0  0  0
  2  3  1  0  0  0  0
  3  4  1  0  0  0  0
  1  5  1  0  0  0  0
  4  6  1  0  0  0  0
M  END
>  <cdx:groupId>
19

>  <cdx:fragmentId>
5

$$$$
