10450.cdx
  Mrv1902 05222410222D          

 31 33  0  0  0  0            999 V2000
    6.3577   -4.3473    0.0000 C   0  0  0  0  0  0  0  0  0  0  0  0
    5.6432   -4.7598    0.0000 C   0  0  0  0  0  0  0  0  0  0  0  0
    4.9288   -4.3473    0.0000 C   0  0  0  0  0  0  0  0  0  0  0  0
    6.3577   -3.5223    0.0000 O   0  0  0  0  0  0  0  0  0  0  0  0
    7.0722   -4.7598    0.0000 O   0  0  0  0  0  0  0  0  0  0  0  0
    4.2143   -4.7598    0.0000 C   0  0  0  0  0  0  0  0  0  0  0  0
    3.4998   -4.3473    0.0000 C   0  0  0  0  0  0  0  0  0  0  0  0
    2.7853   -4.7598    0.0000 C   0  0  0  0  0  0  0  0  0  0  0  0
    2.7853   -5.5848    0.0000 C   0  0  0  0  0  0  0  0  0  0  0  0
    3.4998   -5.9973    0.0000 C   0  0  0  0  0  0  0  0  0  0  0  0
    4.2143   -5.5848    0.0000 C   0  0  0  0  0  0  0  0  0  0  0  0
    2.0709   -5.9973    0.0000 O   0  0  0  0  0  0  0  0  0  0  0  0
    2.0709   -4.3473    0.0000 O   0  0  0  0  0  0  0  0  0  0  0  0
    7.7866   -4.3473    0.0000 C   0  0  0  0  0  0  0  0  0  0  0  0
    9.2156   -4.3473    0.0000 O   0  0  0  0  0  0  0  0  0  0  0  0
    8.5011   -4.7598    0.0000 C   0  0  1  0  0  0  0  0  0  0  0  0
    8.5011   -5.5848    0.0000 C   0  0  2  0  0  0  0  0  0  0  0  0
    9.2156   -5.9973    0.0000 C   0  0  1  0  0  0  0  0  0  0  0  0
    9.9301   -5.5848    0.0000 C   0  0  2  0  0  0  0  0  0  0  0  0
    9.9301   -4.7598    0.0000 C   0  0  2  0  0  0  0  0  0  0  0  0
   10.6445   -4.3473    0.0000 O   0  0  0  0  0  0  0  0  0  0  0  0
   11.3590   -5.5848    0.0000 C   0  0  0  0  0  0  0  0  0  0  0  0
   11.3590   -4.7598    0.0000 C   0  0  0  0  0  0  0  0  0  0  0  0
   12.0735   -4.3473    0.0000 C   0  0  0  0  0  0  0  0  0  0  0  0
   12.7879   -4.7598    0.0000 C   0  0  0  0  0  0  0  0  0  0  0  0
   12.7879   -5.5848    0.0000 C   0  0  0  0  0  0  0  0  0  0  0  0
   12.0735   -5.9973    0.0000 O   0  0  0  0  0  0  0  0  0  0  0  0
   12.0735   -3.5223    0.0000 O   0  0  0  0  0  0  0  0  0  0  0  0
   10.6445   -5.9973    0.0000 O   0  0  0  0  0  0  0  0  0  0  0  0
    9.2156   -6.8223    0.0000 O   0  0  0  0  0  0  0  0  0  0  0  0
    7.7866   -5.9973    0.0000 O   0  0  0  0  0  0  0  0  0  0  0  0
  1  2  1  0  0  0  0
  2  3  2  0  0  0  0
  1  4  2  0  0  0  0
  1  5  1  0  0  0  0
  6  7  1  0  0  0  0
  7  8  2  0  0  0  0
  8  9  1  0  0  0  0
  9 10  2  0  0  0  0
 10 11  1  0  0  0  0
  6 11  2  0  0  0  0
  9 12  1  0  0  0  0
  8 13  1  0  0  0  0
  3  6  1  0  0  0  0
 15 16  1  0  0  0  0
 16 17  1  0  0  0  0
 17 18  1  0  0  0  0
 18 19  1  0  0  0  0
 19 20  1  0  0  0  0
 15 20  1  0  0  0  0
 22 23  2  0  0  0  0
 23 24  1  0  0  0  0
 24 25  1  0  0  0  0
 25 26  2  0  0  0  0
 26 27  1  0  0  0  0
 22 27  1  0  0  0  0
 24 28  2  0  0  0  0
 21 23  1  0  0  0  0
 20 21  1  1  0  0  0
 19 29  1  6  0  0  0
 18 30  1  1  0  0  0
 17 31  1  6  0  0  0
 16 14  1  1  0  0  0
  5 14  1  0  0  0  0
M  END
>  <cdx:fragmentId>
30108

$$$$
