10457.cdx
  Mrv1902 05222410212D          

 12 11  0  0  0  0            999 V2000
    3.5837   -3.0808    0.0000 C   0  0  0  0  0  0  0  0  0  0  0  0
    4.2982   -2.6683    0.0000 C   0  0  0  0  0  0  0  0  0  0  0  0
    5.0127   -3.0808    0.0000 C   0  0  0  0  0  0  0  0  0  0  0  0
    5.7271   -2.6683    0.0000 C   0  0  0  0  0  0  0  0  0  0  0  0
    6.4416   -3.0808    0.0000 C   0  0  0  0  0  0  0  0  0  0  0  0
    7.1561   -2.6683    0.0000 C   0  0  0  0  0  0  0  0  0  0  0  0
    7.8706   -3.0808    0.0000 C   0  0  0  0  0  0  0  0  0  0  0  0
    8.5850   -2.6683    0.0000 C   0  0  0  0  0  0  0  0  0  0  0  0
    3.5837   -3.9058    0.0000 O   0  0  0  0  0  0  0  0  0  0  0  0
    2.8693   -2.6683    0.0000 O   0  0  0  0  0  0  0  0  0  0  0  0
    8.5850   -1.8433    0.0000 O   0  0  0  0  0  0  0  0  0  0  0  0
    9.2995   -3.0808    0.0000 O   0  0  0  0  0  0  0  0  0  0  0  0
  1  2  1  0  0  0  0
  2  3  1  0  0  0  0
  3  4  1  0  0  0  0
  4  5  1  0  0  0  0
  5  6  1  0  0  0  0
  6  7  1  0  0  0  0
  7  8  1  0  0  0  0
  1  9  2  0  0  0  0
  1 10  1  0  0  0  0
  8 11  2  0  0  0  0
  8 12  1  0  0  0  0
M  END
>  <cdx:groupId>
37

>  <cdx:fragmentId>
5

$$$$
