10458.cdx
  Mrv1902 05222410252D          

 33 36  0  0  0  0            999 V2000
    3.8415   -7.6265    0.0000 C   0  0  2  0  0  0  0  0  0  0  0  0
    3.8420   -8.4515    0.0000 C   0  0  2  0  0  0  0  0  0  0  0  0
    4.5568   -8.8635    0.0000 C   0  0  1  0  0  0  0  0  0  0  0  0
    5.2710   -8.4505    0.0000 C   0  0  2  0  0  0  0  0  0  0  0  0
    5.2704   -7.6255    0.0000 C   0  0  1  0  0  0  0  0  0  0  0  0
    4.5556   -7.2135    0.0000 O   0  0  0  0  0  0  0  0  0  0  0  0
    7.4095   -9.6898    0.0000 O   0  0  0  0  0  0  0  0  0  0  0  0
    8.8384   -9.6922    0.0000 O   0  0  0  0  0  0  0  0  0  0  0  0
   10.9892   -5.1582    0.0000 O   0  0  0  0  0  0  0  0  0  0  0  0
   12.4168   -5.9855    0.0000 O   0  0  0  0  0  0  0  0  0  0  0  0
   11.7003   -7.2218    0.0000 C   0  0  0  0  0  0  0  0  0  0  0  0
   11.7017   -6.3968    0.0000 C   0  0  0  0  0  0  0  0  0  0  0  0
   10.9879   -5.9832    0.0000 C   0  0  0  0  0  0  0  0  0  0  0  0
   10.2727   -6.3945    0.0000 C   0  0  0  0  0  0  0  0  0  0  0  0
   10.9852   -7.6332    0.0000 C   0  0  0  0  0  0  0  0  0  0  0  0
   10.2714   -7.2195    0.0000 C   0  0  0  0  0  0  0  0  0  0  0  0
    8.8397   -8.8672    0.0000 C   0  0  0  0  0  0  0  0  0  0  0  0
    9.5549   -8.4558    0.0000 C   0  0  0  0  0  0  0  0  0  0  0  0
    9.5562   -7.6308    0.0000 C   0  0  1  0  0  0  0  0  0  0  0  0
    8.8425   -7.2172    0.0000 O   0  0  0  0  0  0  0  0  0  0  0  0
    7.4108   -8.8648    0.0000 C   0  0  0  0  0  0  0  0  0  0  0  0
    8.1260   -8.4535    0.0000 C   0  0  0  0  0  0  0  0  0  0  0  0
    8.1273   -7.6285    0.0000 C   0  0  0  0  0  0  0  0  0  0  0  0
    7.4135   -7.2148    0.0000 C   0  0  0  0  0  0  0  0  0  0  0  0
    5.9846   -7.2125    0.0000 O   0  0  0  0  0  0  0  0  0  0  0  0
    6.6970   -8.4511    0.0000 C   0  0  0  0  0  0  0  0  0  0  0  0
    6.6984   -7.6261    0.0000 C   0  0  0  0  0  0  0  0  0  0  0  0
    3.1267   -7.2145    0.0000 C   0  0  0  0  0  0  0  0  0  0  0  0
    3.1261   -6.3895    0.0000 O   0  0  0  0  0  0  0  0  0  0  0  0
    2.4125   -7.6275    0.0000 O   0  0  0  0  0  0  0  0  0  0  0  0
    4.5574   -9.6885    0.0000 O   0  0  0  0  0  0  0  0  0  0  0  0
    3.1279   -8.8645    0.0000 O   0  0  0  0  0  0  0  0  0  0  0  0
    5.9858   -8.8625    0.0000 O   0  0  0  0  0  0  0  0  0  0  0  0
  1  2  1  0  0  0  0
  2  3  1  0  0  0  0
  3  4  1  0  0  0  0
  4  5  1  0  0  0  0
  5  6  1  0  0  0  0
  6  1  1  0  0  0  0
 21  7  1  0  0  0  0
 17  8  2  0  0  0  0
 13  9  1  0  0  0  0
 12 10  1  0  0  0  0
 11 15  2  0  0  0  0
 12 11  1  0  0  0  0
 13 12  2  0  0  0  0
 14 13  1  0  0  0  0
 16 14  2  0  0  0  0
 16 15  1  0  0  0  0
 19 16  1  1  0  0  0
 17 22  1  0  0  0  0
 18 17  1  0  0  0  0
 19 18  1  0  0  0  0
 20 19  1  0  0  0  0
 23 20  1  0  0  0  0
 21 26  1  0  0  0  0
 22 21  2  0  0  0  0
 23 22  1  0  0  0  0
 24 23  2  0  0  0  0
 27 24  1  0  0  0  0
 27 26  2  0  0  0  0
 25 27  1  0  0  0  0
  5 25  1  1  0  0  0
  1 28  1  1  0  0  0
 28 29  2  0  0  0  0
 28 30  1  0  0  0  0
  3 31  1  1  0  0  0
  2 32  1  6  0  0  0
  4 33  1  6  0  0  0
M  END
>  <cdx:fragmentId>
5

$$$$
