10465.cdx
  Mrv1902 05222410252D          

 19 18  0  0  0  0            999 V2000
   12.2834   -3.1221    0.0000 C   0  0  0  0  0  0  0  0  0  0  0  0
   11.5690   -3.5346    0.0000 C   0  0  0  0  0  0  0  0  0  0  0  0
   10.8545   -3.1221    0.0000 C   0  0  0  0  0  0  0  0  0  0  0  0
   10.1400   -3.5346    0.0000 C   0  0  0  0  0  0  0  0  0  0  0  0
    9.4255   -3.1221    0.0000 C   0  0  0  0  0  0  0  0  0  0  0  0
    8.7111   -3.5346    0.0000 C   0  0  0  0  0  0  0  0  0  0  0  0
    7.9966   -3.1221    0.0000 C   0  0  0  0  0  0  0  0  0  0  0  0
    7.2821   -3.5346    0.0000 C   0  0  0  0  0  0  0  0  0  0  0  0
    6.5677   -3.1221    0.0000 C   0  0  0  0  0  0  0  0  0  0  0  0
    5.8532   -3.5346    0.0000 C   0  0  0  0  0  0  0  0  0  0  0  0
    5.1387   -3.1221    0.0000 C   0  0  0  0  0  0  0  0  0  0  0  0
    4.4242   -3.5346    0.0000 C   0  0  0  0  0  0  0  0  0  0  0  0
    3.7098   -3.1221    0.0000 C   0  0  0  0  0  0  0  0  0  0  0  0
    2.9953   -3.5346    0.0000 C   0  0  0  0  0  0  0  0  0  0  0  0
    2.2808   -3.1221    0.0000 C   0  0  0  0  0  0  0  0  0  0  0  0
    1.5664   -3.5346    0.0000 C   0  0  0  0  0  0  0  0  0  0  0  0
    0.8519   -3.1221    0.0000 C   0  0  0  0  0  0  0  0  0  0  0  0
   12.2834   -2.2971    0.0000 O   0  0  0  0  0  0  0  0  0  0  0  0
   12.9979   -3.5346    0.0000 O   0  0  0  0  0  0  0  0  0  0  0  0
  1  2  1  0  0  0  0
  2  3  1  0  0  0  0
  3  4  1  0  0  0  0
  4  5  1  0  0  0  0
  5  6  1  0  0  0  0
  6  7  1  0  0  0  0
  7  8  1  0  0  0  0
  8  9  1  0  0  0  0
  9 10  1  0  0  0  0
 10 11  1  0  0  0  0
 11 12  1  0  0  0  0
 12 13  1  0  0  0  0
 13 14  1  0  0  0  0
 14 15  1  0  0  0  0
 15 16  1  0  0  0  0
 16 17  1  0  0  0  0
  1 18  2  0  0  0  0
  1 19  1  0  0  0  0
M  END
>  <cdx:groupId>
58

>  <cdx:fragmentId>
5

$$$$
