104660.cdx
  Mrv1902 05222410242D          

 10  9  0  0  0  0            999 V2000
    8.7550   -3.9397    0.0000 C   0  0  0  0  0  0  0  0  0  0  0  0
    8.0405   -3.5272    0.0000 C   0  0  0  0  0  0  0  0  0  0  0  0
    7.3261   -3.1147    0.0000 C   0  0  0  0  0  0  0  0  0  0  0  0
    6.6116   -3.5272    0.0000 C   0  0  0  0  0  0  0  0  0  0  0  0
    5.8971   -3.1147    0.0000 C   0  0  0  0  0  0  0  0  0  0  0  0
    5.1826   -2.7022    0.0000 C   0  0  0  0  0  0  0  0  0  0  0  0
    4.4682   -2.2897    0.0000 C   0  0  0  0  0  0  0  0  0  0  0  0
    3.7537   -2.7022    0.0000 C   0  0  0  0  0  0  0  0  0  0  0  0
    3.0392   -2.2897    0.0000 C   0  0  0  0  0  0  0  0  0  0  0  0
    2.3248   -2.7022    0.0000 C   0  0  0  0  0  0  0  0  0  0  0  0
  1  2  3  0  0  0  0
  2  3  1  0  0  0  0
  3  4  1  0  0  0  0
  4  5  1  0  0  0  0
  5  6  3  0  0  0  0
  6  7  1  0  0  0  0
  7  8  1  0  0  0  0
  8  9  1  0  0  0  0
  9 10  1  0  0  0  0
M  END
>  <cdx:groupId>
31

>  <cdx:fragmentId>
5

$$$$
