10468.cdx
  Mrv1902 05222410212D          

 27 26  0  0  0  0            999 V2000
    0.5868   -4.8958    0.0000 O   0  0  0  0  0  0  0  0  0  0  0  0
    1.3012   -3.6583    0.0000 O   0  0  0  0  0  0  0  0  0  0  0  0
   18.4485   -4.4833    0.0000 C   0  0  0  0  0  0  0  0  0  0  0  0
   17.7341   -4.8958    0.0000 C   0  0  0  0  0  0  0  0  0  0  0  0
   17.0196   -4.4833    0.0000 C   0  0  0  0  0  0  0  0  0  0  0  0
   16.3051   -4.8958    0.0000 C   0  0  0  0  0  0  0  0  0  0  0  0
   15.5907   -4.4833    0.0000 C   0  0  0  0  0  0  0  0  0  0  0  0
   14.8762   -4.8958    0.0000 C   0  0  0  0  0  0  0  0  0  0  0  0
   14.1617   -4.4833    0.0000 C   0  0  0  0  0  0  0  0  0  0  0  0
   13.4473   -4.8958    0.0000 C   0  0  0  0  0  0  0  0  0  0  0  0
   12.7328   -4.4833    0.0000 C   0  0  0  0  0  0  0  0  0  0  0  0
   12.0183   -4.8958    0.0000 C   0  0  0  0  0  0  0  0  0  0  0  0
   11.3038   -4.4833    0.0000 C   0  0  0  0  0  0  0  0  0  0  0  0
   10.5894   -4.8958    0.0000 C   0  0  0  0  0  0  0  0  0  0  0  0
    9.8749   -4.4833    0.0000 C   0  0  0  0  0  0  0  0  0  0  0  0
    9.1604   -4.8958    0.0000 C   0  0  0  0  0  0  0  0  0  0  0  0
    8.4460   -4.4833    0.0000 C   0  0  0  0  0  0  0  0  0  0  0  0
    7.7315   -4.8958    0.0000 C   0  0  0  0  0  0  0  0  0  0  0  0
    7.0170   -4.4833    0.0000 C   0  0  0  0  0  0  0  0  0  0  0  0
    6.3025   -4.8958    0.0000 C   0  0  0  0  0  0  0  0  0  0  0  0
    5.5881   -4.4833    0.0000 C   0  0  0  0  0  0  0  0  0  0  0  0
    4.8736   -4.8958    0.0000 C   0  0  0  0  0  0  0  0  0  0  0  0
    4.1591   -4.4833    0.0000 C   0  0  0  0  0  0  0  0  0  0  0  0
    3.4447   -4.8958    0.0000 C   0  0  0  0  0  0  0  0  0  0  0  0
    2.7302   -4.4833    0.0000 C   0  0  0  0  0  0  0  0  0  0  0  0
    2.0157   -4.8958    0.0000 C   0  0  0  0  0  0  0  0  0  0  0  0
    1.3012   -4.4833    0.0000 C   0  0  0  0  0  0  0  0  0  0  0  0
 27  1  1  0  0  0  0
 27  2  2  0  0  0  0
  4  3  1  0  0  0  0
  5  4  1  0  0  0  0
  6  5  1  0  0  0  0
  7  6  1  0  0  0  0
  8  7  1  0  0  0  0
  9  8  1  0  0  0  0
 10  9  1  0  0  0  0
 11 10  1  0  0  0  0
 12 11  1  0  0  0  0
 13 12  1  0  0  0  0
 14 13  1  0  0  0  0
 15 14  1  0  0  0  0
 16 15  1  0  0  0  0
 17 16  1  0  0  0  0
 18 17  1  0  0  0  0
 19 18  1  0  0  0  0
 20 19  1  0  0  0  0
 21 20  1  0  0  0  0
 22 21  1  0  0  0  0
 23 22  1  0  0  0  0
 24 23  1  0  0  0  0
 25 24  1  0  0  0  0
 26 25  1  0  0  0  0
 27 26  1  0  0  0  0
M  END
>  <cdx:fragmentId>
5

$$$$
