10469.cdx
  Mrv1902 05222410202D          

 28 27  0  0  0  0            999 V2000
    1.5524   -4.2977    0.0000 C   0  0  0  0  0  0  0  0  0  0  0  0
    2.2669   -3.8852    0.0000 C   0  0  0  0  0  0  0  0  0  0  0  0
    2.9814   -4.2977    0.0000 C   0  0  0  0  0  0  0  0  0  0  0  0
    3.6959   -3.8852    0.0000 C   0  0  0  0  0  0  0  0  0  0  0  0
    4.4103   -4.2977    0.0000 C   0  0  0  0  0  0  0  0  0  0  0  0
    5.1248   -3.8852    0.0000 C   0  0  0  0  0  0  0  0  0  0  0  0
    5.8393   -4.2977    0.0000 C   0  0  0  0  0  0  0  0  0  0  0  0
    6.5537   -3.8852    0.0000 C   0  0  0  0  0  0  0  0  0  0  0  0
    7.2682   -4.2977    0.0000 C   0  0  0  0  0  0  0  0  0  0  0  0
    7.9827   -3.8852    0.0000 C   0  0  0  0  0  0  0  0  0  0  0  0
    8.6972   -4.2977    0.0000 C   0  0  0  0  0  0  0  0  0  0  0  0
    9.4116   -3.8852    0.0000 C   0  0  0  0  0  0  0  0  0  0  0  0
   10.1261   -4.2977    0.0000 C   0  0  0  0  0  0  0  0  0  0  0  0
   10.8406   -3.8852    0.0000 C   0  0  0  0  0  0  0  0  0  0  0  0
   11.5550   -4.2977    0.0000 C   0  0  0  0  0  0  0  0  0  0  0  0
   12.2695   -3.8852    0.0000 C   0  0  0  0  0  0  0  0  0  0  0  0
   12.9840   -4.2977    0.0000 C   0  0  0  0  0  0  0  0  0  0  0  0
   13.6985   -3.8852    0.0000 C   0  0  0  0  0  0  0  0  0  0  0  0
   14.4129   -4.2977    0.0000 C   0  0  0  0  0  0  0  0  0  0  0  0
   15.1274   -3.8852    0.0000 C   0  0  0  0  0  0  0  0  0  0  0  0
   15.8419   -4.2977    0.0000 C   0  0  0  0  0  0  0  0  0  0  0  0
   16.5563   -3.8852    0.0000 C   0  0  0  0  0  0  0  0  0  0  0  0
   17.2708   -4.2977    0.0000 C   0  0  0  0  0  0  0  0  0  0  0  0
   17.9853   -3.8852    0.0000 C   0  0  0  0  0  0  0  0  0  0  0  0
   18.6997   -4.2977    0.0000 C   0  0  0  0  0  0  0  0  0  0  0  0
   19.4142   -3.8852    0.0000 C   0  0  0  0  0  0  0  0  0  0  0  0
    1.5524   -5.1227    0.0000 O   0  0  0  0  0  0  0  0  0  0  0  0
    0.8380   -3.8852    0.0000 O   0  0  0  0  0  0  0  0  0  0  0  0
  1  2  1  0  0  0  0
  2  3  1  0  0  0  0
  3  4  1  0  0  0  0
  4  5  1  0  0  0  0
  5  6  1  0  0  0  0
  6  7  1  0  0  0  0
  7  8  1  0  0  0  0
  8  9  1  0  0  0  0
  9 10  1  0  0  0  0
 10 11  1  0  0  0  0
 11 12  1  0  0  0  0
 12 13  1  0  0  0  0
 13 14  1  0  0  0  0
 14 15  1  0  0  0  0
 15 16  1  0  0  0  0
 16 17  1  0  0  0  0
 17 18  1  0  0  0  0
 18 19  1  0  0  0  0
 19 20  1  0  0  0  0
 20 21  1  0  0  0  0
 21 22  1  0  0  0  0
 22 23  1  0  0  0  0
 23 24  1  0  0  0  0
 24 25  1  0  0  0  0
 25 26  1  0  0  0  0
  1 27  2  0  0  0  0
  1 28  1  0  0  0  0
M  END
>  <cdx:fragmentId>
5

$$$$
