104775.cdx
  Mrv1902 05222410262D          

  6  5  0  0  0  0            999 V2000
    6.0689   -6.7067    0.0000 O   0  5  0  0  0  0  0  0  0  0  0  0
    6.7833   -5.4692    0.0000 O   0  0  0  0  0  0  0  0  0  0  0  0
    8.9268   -6.7067    0.0000 C   0  0  0  0  0  0  0  0  0  0  0  0
    8.2123   -6.2942    0.0000 C   0  0  0  0  0  0  0  0  0  0  0  0
    7.4978   -6.7067    0.0000 C   0  0  0  0  0  0  0  0  0  0  0  0
    6.7833   -6.2942    0.0000 C   0  0  0  0  0  0  0  0  0  0  0  0
  6  1  1  0  0  0  0
  6  2  2  0  0  0  0
  4  3  1  0  0  0  0
  5  4  1  0  0  0  0
  6  5  1  0  0  0  0
M  CHG  1   1  -1
M  END
>  <cdx:groupId>
19

>  <cdx:fragmentId>
5

$$$$
