1047.cdx
  Mrv1902 05222410192D          

 25 27  0  0  0  0            999 V2000
    4.1410   -6.0349    0.0000 C   0  0  0  0  0  0  0  0  0  0  0  0
    5.8841   -8.7991    0.0000 C   0  0  0  0  0  0  0  0  0  0  0  0
    9.1349   -4.7677    0.0000 O   0  0  0  0  0  0  0  0  0  0  0  0
    4.1459   -6.8599    0.0000 C   0  0  0  0  0  0  0  0  0  0  0  0
    3.4339   -7.2766    0.0000 C   0  0  0  0  0  0  0  0  0  0  0  0
    3.4388   -8.1016    0.0000 C   0  0  0  0  0  0  0  0  0  0  0  0
    6.9988   -6.0179    0.0000 O   0  0  0  0  0  0  0  0  0  0  0  0
    5.5748   -6.8514    0.0000 O   0  0  0  0  0  0  0  0  0  0  0  0
    4.8628   -7.2681    0.0000 C   0  0  0  0  0  0  0  0  0  0  0  0
    4.8677   -8.0931    0.0000 O   0  0  0  0  0  0  0  0  0  0  0  0
    5.4716   -8.0846    0.0000 C   0  0  0  0  0  0  0  0  0  0  0  0
    7.0037   -6.8429    0.0000 C   0  0  1  0  0  0  0  0  0  0  0  0
    6.2917   -7.2596    0.0000 C   0  0  2  0  0  0  0  0  0  0  0  0
    6.2966   -8.0846    0.0000 C   0  0  0  0  0  0  0  0  0  0  0  0
    7.0136   -8.4929    0.0000 O   0  0  0  0  0  0  0  0  0  0  0  0
    9.8616   -6.8259    0.0000 C   0  0  0  0  0  0  0  0  0  0  0  0
    9.8567   -6.0009    0.0000 C   0  0  0  0  0  0  0  0  0  0  0  0
    9.1398   -5.5927    0.0000 C   0  0  0  0  0  0  0  0  0  0  0  0
    8.4278   -6.0094    0.0000 O   0  0  0  0  0  0  0  0  0  0  0  0
    9.1545   -8.0676    0.0000 C   0  0  0  0  0  0  0  0  0  0  0  0
    9.1496   -7.2426    0.0000 C   0  0  0  0  0  0  0  0  0  0  0  0
    8.4327   -6.8344    0.0000 C   0  0  0  0  0  0  0  0  0  0  0  0
    7.7207   -7.2511    0.0000 C   0  0  0  0  0  0  0  0  0  0  0  0
    7.7256   -8.0761    0.0000 C   0  0  0  0  0  0  0  0  0  0  0  0
    8.4425   -8.4844    0.0000 C   0  0  0  0  0  0  0  0  0  0  0  0
  4  1  1  0  0  0  0
 14  2  1  0  0  0  0
 18  3  2  0  0  0  0
  4  9  1  0  0  0  0
  5  4  2  0  0  0  0
  6  5  1  0  0  0  0
 12  7  1  6  0  0  0
 13  8  1  6  0  0  0
  9  8  1  0  0  0  0
 10  9  2  0  0  0  0
 14 11  1  0  0  0  0
 12 23  1  0  0  0  0
 13 12  1  0  0  0  0
 14 13  1  0  0  0  0
 15 14  1  0  0  0  0
 24 15  1  0  0  0  0
 16 21  1  0  0  0  0
 17 16  2  0  0  0  0
 18 17  1  0  0  0  0
 19 18  1  0  0  0  0
 22 19  1  0  0  0  0
 20 25  2  0  0  0  0
 21 20  1  0  0  0  0
 22 21  2  0  0  0  0
 23 22  1  0  0  0  0
 24 23  2  0  0  0  0
 25 24  1  0  0  0  0
M  END
>  <cdx:fragmentId>
5

$$$$
