14104879.cdx
  Mrv1902 05222410242D          

 34 37  0  0  0  0            999 V2000
   10.3461   -3.7073    0.0000 C   0  0  0  0  0  0  0  0  0  0  0  0
   10.8981   -4.3204    0.0000 C   0  0  0  0  0  0  0  0  0  0  0  0
   10.6432   -5.1051    0.0000 C   0  0  0  0  0  0  0  0  0  0  0  0
    9.8362   -5.2766    0.0000 C   0  0  0  0  0  0  0  0  0  0  0  0
    9.5813   -6.0612    0.0000 C   0  0  0  0  0  0  0  0  0  0  0  0
    8.7743   -6.2327    0.0000 C   0  0  1  0  0  0  0  0  0  0  0  0
    8.2223   -5.6196    0.0000 C   0  0  0  0  0  0  0  0  0  0  0  0
   10.6010   -2.9227    0.0000 O   0  0  0  0  0  0  0  0  0  0  0  0
    9.5391   -3.8789    0.0000 O   0  0  0  0  0  0  0  0  0  0  0  0
   11.7051   -4.1489    0.0000 C   0  0  0  0  0  0  0  0  0  0  0  0
    4.8768   -8.0973    0.0000 C   0  0  0  0  0  0  0  0  0  0  0  0
    4.1624   -8.5098    0.0000 C   0  0  0  0  0  0  0  0  0  0  0  0
    4.1624   -9.3348    0.0000 C   0  0  2  0  0  0  0  0  0  0  0  0
    4.8768   -9.7473    0.0000 C   0  0  0  0  0  0  0  0  0  0  0  0
    5.5913   -9.3348    0.0000 C   0  0  2  0  0  0  0  0  0  0  0  0
    6.3058   -9.7473    0.0000 C   0  0  0  0  0  0  0  0  0  0  0  0
    7.0203   -9.3348    0.0000 C   0  0  0  0  0  0  0  0  0  0  0  0
    7.0203   -8.5098    0.0000 C   0  0  0  0  0  0  0  0  0  0  0  0
    7.7347   -8.0973    0.0000 C   0  0  2  0  0  0  0  0  0  0  0  0
    8.5194   -8.3522    0.0000 C   0  0  0  0  0  0  0  0  0  0  0  0
    9.0043   -7.6848    0.0000 C   0  0  0  0  0  0  0  0  0  0  0  0
    8.5194   -7.0174    0.0000 C   0  0  1  0  0  0  0  0  0  0  0  0
    7.7347   -7.2723    0.0000 C   0  0  1  0  0  0  0  0  0  0  0  0
    7.0203   -6.8598    0.0000 C   0  0  0  0  0  0  0  0  0  0  0  0
    6.3058   -7.2723    0.0000 C   0  0  0  0  0  0  0  0  0  0  0  0
    6.3058   -8.0973    0.0000 C   0  0  0  0  0  0  0  0  0  0  0  0
    5.5913   -8.5098    0.0000 C   0  0  1  0  0  0  0  0  0  0  0  0
    7.8210   -8.9178    0.0000 C   0  0  0  0  0  0  0  0  0  0  0  0
    7.8210   -6.4518    0.0000 C   0  0  0  0  0  0  0  0  0  0  0  0
    5.5913   -7.6848    0.0000 C   0  0  0  0  0  0  0  0  0  0  0  0
    5.2893  -10.4618    0.0000 C   0  0  0  0  0  0  0  0  0  0  0  0
    4.4643  -10.4618    0.0000 C   0  0  0  0  0  0  0  0  0  0  0  0
    3.4479   -9.7473    0.0000 O   0  0  0  0  0  0  0  0  0  0  0  0
    5.5913  -10.1598    0.0000 H   0  0  0  0  0  0  0  0  0  0  0  0
  1  2  1  0  0  0  0
  2  3  2  0  0  0  0
  3  4  1  0  0  0  0
  4  5  1  0  0  0  0
  5  6  1  0  0  0  0
  6  7  1  6  0  0  0
  1  8  2  0  0  0  0
  1  9  1  0  0  0  0
  2 10  1  0  0  0  0
 11 12  1  0  0  0  0
 12 13  1  0  0  0  0
 13 14  1  0  0  0  0
 14 15  1  0  0  0  0
 15 16  1  0  0  0  0
 16 17  1  0  0  0  0
 17 18  1  0  0  0  0
 18 19  1  0  0  0  0
 19 20  1  0  0  0  0
 20 21  1  0  0  0  0
 22 21  1  1  0  0  0
 22 23  1  0  0  0  0
 19 23  1  0  0  0  0
 23 24  1  0  0  0  0
 24 25  1  0  0  0  0
 25 26  1  0  0  0  0
 18 26  2  0  0  0  0
 26 27  1  0  0  0  0
 15 27  1  0  0  0  0
 11 27  1  0  0  0  0
 19 28  1  6  0  0  0
 23 29  1  1  0  0  0
 27 30  1  1  0  0  0
 14 31  1  0  0  0  0
 14 32  1  0  0  0  0
 13 33  1  6  0  0  0
  6 22  1  0  0  0  0
 15 34  1  6  0  0  0
M  END
>  <cdx:groupId>
107

>  <cdx:fragmentId>
25

$$$$
