1049.cdx
  Mrv1902 05222410262D          

  6  6  0  0  0  0            999 V2000
    4.8130   -3.1556    0.0000 C   0  0  0  0  0  0  0  0  0  0  0  0
    4.0986   -3.5681    0.0000 C   0  0  0  0  0  0  0  0  0  0  0  0
    3.3841   -3.1556    0.0000 C   0  0  0  0  0  0  0  0  0  0  0  0
    3.3841   -2.3306    0.0000 C   0  0  0  0  0  0  0  0  0  0  0  0
    4.0986   -1.9181    0.0000 C   0  0  0  0  0  0  0  0  0  0  0  0
    4.8130   -2.3306    0.0000 N   0  0  0  0  0  0  0  0  0  0  0  0
  1  2  1  0  0  0  0
  2  3  2  0  0  0  0
  3  4  1  0  0  0  0
  4  5  2  0  0  0  0
  5  6  1  0  0  0  0
  1  6  2  0  0  0  0
M  END
>  <cdx:groupId>
20

>  <cdx:fragmentId>
5

$$$$
