10495.cdx
  Mrv1902 05222410212D          

 29 30  0  0  0  0            999 V2000
    9.3358   -8.2156    0.0000 C   0  0  0  0  0  0  0  0  0  0  0  0
    8.6135   -7.8169    0.0000 O   0  0  0  0  0  0  0  0  0  0  0  0
    5.0498   -8.2983    0.0000 C   0  0  0  0  0  0  0  0  0  0  0  0
    5.7562   -7.8721    0.0000 O   0  0  0  0  0  0  0  0  0  0  0  0
    8.5978   -7.0121    0.0000 C   0  0  0  0  0  0  0  0  0  0  0  0
    9.3101   -6.5958    0.0000 O   0  0  0  0  0  0  0  0  0  0  0  0
   10.7258   -4.1132    0.0000 O   0  0  0  0  0  0  0  0  0  0  0  0
   10.0048   -2.8795    0.0000 C   0  0  0  0  0  0  0  0  0  0  0  0
    9.2925   -3.2958    0.0000 O   0  0  0  0  0  0  0  0  0  0  0  0
    6.5263  -10.7453    0.0000 C   0  0  0  0  0  0  0  0  0  0  0  0
    7.2326  -10.3191    0.0000 C   0  0  0  0  0  0  0  0  0  0  0  0
    5.8358  -11.9964    0.0000 O   0  0  0  0  0  0  0  0  0  0  0  0
    6.5422  -11.5701    0.0000 C   0  0  0  0  0  0  0  0  0  0  0  0
    6.4785   -8.2707    0.0000 C   0  0  0  0  0  0  0  0  0  0  0  0
    6.4944   -9.0956    0.0000 C   0  0  0  0  0  0  0  0  0  0  0  0
    7.2167   -9.4942    0.0000 C   0  0  0  0  0  0  0  0  0  0  0  0
    7.9231   -9.0680    0.0000 C   0  0  0  0  0  0  0  0  0  0  0  0
    7.9071   -8.2432    0.0000 C   0  0  0  0  0  0  0  0  0  0  0  0
    7.1848   -7.8445    0.0000 C   0  0  0  0  0  0  0  0  0  0  0  0
    7.1601   -5.3697    0.0000 O   0  0  0  0  0  0  0  0  0  0  0  0
    7.1689   -7.0197    0.0000 O   0  0  0  0  0  0  0  0  0  0  0  0
    7.8768   -5.7784    0.0000 C   0  0  2  0  0  0  0  0  0  0  0  0
    7.8812   -6.6034    0.0000 C   0  0  1  0  0  0  0  0  0  0  0  0
    8.5846   -4.5371    0.0000 C   0  0  0  0  0  0  0  0  0  0  0  0
    8.5890   -5.3621    0.0000 C   0  0  0  0  0  0  0  0  0  0  0  0
    9.3057   -5.7708    0.0000 C   0  0  0  0  0  0  0  0  0  0  0  0
   10.0180   -5.3545    0.0000 C   0  0  0  0  0  0  0  0  0  0  0  0
   10.0136   -4.5295    0.0000 C   0  0  0  0  0  0  0  0  0  0  0  0
    9.2969   -4.1208    0.0000 C   0  0  0  0  0  0  0  0  0  0  0  0
  2  1  1  0  0  0  0
 18  2  1  0  0  0  0
  4  3  1  0  0  0  0
 14  4  1  0  0  0  0
 28  7  1  0  0  0  0
  9  8  1  0  0  0  0
 29  9  1  0  0  0  0
 10 11  2  0  0  0  0
 11 16  1  0  0  0  0
 12 13  1  0  0  0  0
 13 10  1  0  0  0  0
 14 19  1  0  0  0  0
 15 14  2  0  0  0  0
 16 15  1  0  0  0  0
 17 16  2  0  0  0  0
 18 17  1  0  0  0  0
 19 18  2  0  0  0  0
 21 19  1  0  0  0  0
 22 20  1  1  0  0  0
 23 21  1  1  0  0  0
 22 25  1  0  0  0  0
 23 22  1  0  0  0  0
  5 23  1  0  0  0  0
  5  6  1  0  0  0  0
 24 29  1  0  0  0  0
 25 24  2  0  0  0  0
 26 25  1  0  0  0  0
 27 26  2  0  0  0  0
 28 27  1  0  0  0  0
 29 28  2  0  0  0  0
M  END
>  <cdx:fragmentId>
5

$$$$
