10496.cdx
  Mrv1902 05222410202D          

 14 16  0  0  0  0            999 V2000
    6.0144   -5.1563    0.0000 C   0  0  0  0  0  0  0  0  0  0  0  0
    6.0144   -5.9813    0.0000 C   0  0  0  0  0  0  0  0  0  0  0  0
    6.7990   -6.2362    0.0000 C   0  0  0  0  0  0  0  0  0  0  0  0
    7.2839   -5.5687    0.0000 C   0  0  0  0  0  0  0  0  0  0  0  0
    6.7990   -4.9013    0.0000 O   0  0  0  0  0  0  0  0  0  0  0  0
    7.8673   -6.1521    0.0000 C   0  0  0  0  0  0  0  0  0  0  0  0
    8.4506   -5.5687    0.0000 C   0  0  0  0  0  0  0  0  0  0  0  0
    7.8673   -4.9854    0.0000 C   0  0  0  0  0  0  0  0  0  0  0  0
    7.1998   -6.6370    0.0000 C   0  0  0  0  0  0  0  0  0  0  0  0
    7.4548   -7.4217    0.0000 C   0  0  0  0  0  0  0  0  0  0  0  0
    8.2798   -7.4217    0.0000 C   0  0  0  0  0  0  0  0  0  0  0  0
    8.5347   -6.6370    0.0000 O   0  0  0  0  0  0  0  0  0  0  0  0
    5.2999   -4.7438    0.0000 O   0  0  0  0  0  0  0  0  0  0  0  0
    8.6923   -8.1361    0.0000 O   0  0  0  0  0  0  0  0  0  0  0  0
  1  2  1  0  0  0  0
  2  3  2  0  0  0  0
  3  4  1  0  0  0  0
  4  5  1  0  0  0  0
  5  1  1  0  0  0  0
  4  6  1  0  0  0  0
  6  7  1  0  0  0  0
  7  8  1  0  0  0  0
  8  4  1  0  0  0  0
  6  9  1  0  0  0  0
  9 10  2  0  0  0  0
 10 11  1  0  0  0  0
 11 12  1  0  0  0  0
 12  6  1  0  0  0  0
  1 13  2  0  0  0  0
 11 14  2  0  0  0  0
M  END
>  <cdx:fragmentId>
5

$$$$
