serotonin.cdx
  Mrv1902 05222410192D          

 13 14  0  0  0  0            999 V2000
    4.4706   -9.3844    0.0000 C   0  0  0  0  0  0  0  0  0  0  0  0
    4.4706  -10.2094    0.0000 C   0  0  0  0  0  0  0  0  0  0  0  0
    5.1850  -10.6219    0.0000 C   0  0  0  0  0  0  0  0  0  0  0  0
    5.8995  -10.2094    0.0000 C   0  0  0  0  0  0  0  0  0  0  0  0
    5.8995   -9.3844    0.0000 C   0  0  0  0  0  0  0  0  0  0  0  0
    5.1850   -8.9719    0.0000 C   0  0  0  0  0  0  0  0  0  0  0  0
    6.6841  -10.4643    0.0000 N   0  0  0  0  0  0  0  0  0  0  0  0
    7.1690   -9.7969    0.0000 C   0  0  0  0  0  0  0  0  0  0  0  0
    6.6841   -9.1294    0.0000 C   0  0  0  0  0  0  0  0  0  0  0  0
    3.7561   -8.9719    0.0000 O   0  0  0  0  0  0  0  0  0  0  0  0
    6.9391   -8.3448    0.0000 C   0  0  0  0  0  0  0  0  0  0  0  0
    7.7460   -8.1733    0.0000 C   0  0  0  0  0  0  0  0  0  0  0  0
    8.0010   -7.3887    0.0000 N   0  0  0  0  0  0  0  0  0  0  0  0
  1  2  2  0  0  0  0
  2  3  1  0  0  0  0
  3  4  2  0  0  0  0
  4  5  1  0  0  0  0
  5  6  2  0  0  0  0
  6  1  1  0  0  0  0
  4  7  1  0  0  0  0
  7  8  1  0  0  0  0
  8  9  2  0  0  0  0
  9  5  1  0  0  0  0
  1 10  1  0  0  0  0
  9 11  1  0  0  0  0
 11 12  1  0  0  0  0
 12 13  1  0  0  0  0
M  END
>  <cdx:fragmentId>
5

$$$$
