1050.cdx
  Mrv1902 05222410202D          

 12 12  0  0  0  0            999 V2000
    5.3424   -3.3149    0.0000 O   0  0  0  0  0  0  0  0  0  0  0  0
    8.9215   -3.6645    0.0000 O   0  0  0  0  0  0  0  0  0  0  0  0
    8.1999   -3.2646    0.0000 C   0  0  0  0  0  0  0  0  0  0  0  0
    5.3715   -4.9646    0.0000 C   0  0  0  0  0  0  0  0  0  0  0  0
    7.4637   -2.0399    0.0000 O   0  0  0  0  0  0  0  0  0  0  0  0
    6.7566   -2.4649    0.0000 C   0  0  0  0  0  0  0  0  0  0  0  0
    6.8002   -4.9395    0.0000 N   0  0  0  0  0  0  0  0  0  0  0  0
    7.5073   -4.5145    0.0000 C   0  0  0  0  0  0  0  0  0  0  0  0
    7.4928   -3.6896    0.0000 C   0  0  0  0  0  0  0  0  0  0  0  0
    6.7711   -3.2897    0.0000 C   0  0  0  0  0  0  0  0  0  0  0  0
    6.0640   -3.7147    0.0000 C   0  0  0  0  0  0  0  0  0  0  0  0
    6.0786   -4.5396    0.0000 C   0  0  0  0  0  0  0  0  0  0  0  0
 11  1  1  0  0  0  0
  9  3  1  0  0  0  0
  3  2  1  0  0  0  0
 12  4  1  0  0  0  0
 10  6  1  0  0  0  0
  6  5  2  0  0  0  0
 12  7  2  0  0  0  0
  8  7  1  0  0  0  0
  9  8  2  0  0  0  0
 10  9  1  0  0  0  0
 11 10  2  0  0  0  0
 12 11  1  0  0  0  0
M  END
>  <cdx:groupId>
38

>  <cdx:fragmentId>
5

$$$$
