105031.cdx
  Mrv1902 05222410232D          

 30 33  0  0  0  0            999 V2000
   10.4836   -9.3950    0.0000 C   0  0  0  0  0  0  0  0  0  0  0  0
    9.7682   -8.9841    0.0000 C   0  0  0  0  0  0  0  0  0  0  0  0
    9.0546   -9.3982    0.0000 C   0  0  0  0  0  0  0  0  0  0  0  0
    8.3392   -8.9872    0.0000 C   0  0  0  0  0  0  0  0  0  0  0  0
   10.4854  -10.2200    0.0000 O   0  0  0  0  0  0  0  0  0  0  0  0
   11.1971   -8.9809    0.0000 O   0  0  0  0  0  0  0  0  0  0  0  0
    5.8865   -6.3043    0.0000 C   0  0  1  0  0  0  0  0  0  0  0  0
    5.0615   -6.3062    0.0000 C   0  0  0  0  0  0  0  0  0  0  0  0
    4.5564   -6.9585    0.0000 C   0  0  0  0  0  0  0  0  0  0  0  0
    4.7642   -7.7577    0.0000 C   0  0  1  0  0  0  0  0  0  0  0  0
    4.0506   -8.1717    0.0000 C   0  0  1  0  0  0  0  0  0  0  0  0
    4.0524   -8.9967    0.0000 C   0  0  0  0  0  0  0  0  0  0  0  0
    4.7678   -9.4077    0.0000 C   0  0  0  0  0  0  0  0  0  0  0  0
    5.4814   -8.9936    0.0000 C   0  0  1  0  0  0  0  0  0  0  0  0
    6.1967   -9.4045    0.0000 C   0  0  2  0  0  0  0  0  0  0  0  0
    6.9103   -8.9904    0.0000 C   0  0  1  0  0  0  0  0  0  0  0  0
    6.9085   -8.1654    0.0000 O   0  0  0  0  0  0  0  0  0  0  0  0
    6.1931   -7.7545    0.0000 C   0  0  1  0  0  0  0  0  0  0  0  0
    5.4795   -8.1686    0.0000 C   0  0  1  0  0  0  0  0  0  0  0  0
    5.1546   -7.5014    0.0000 O   0  0  0  0  0  0  0  0  0  0  0  0
    5.3130   -6.7760    0.0000 O   0  0  0  0  0  0  0  0  0  0  0  0
    6.3944   -6.9544    0.0000 O   0  0  0  0  0  0  0  0  0  0  0  0
    6.1986  -10.2295    0.0000 C   0  0  0  0  0  0  0  0  0  0  0  0
    3.3352   -7.7608    0.0000 C   0  0  0  0  0  0  0  0  0  0  0  0
    6.2974   -5.5890    0.0000 C   0  0  0  0  0  0  0  0  0  0  0  0
    8.3374   -8.1622    0.0000 O   0  0  0  0  0  0  0  0  0  0  0  0
    4.0028   -7.4399    0.0000 H   0  0  0  0  0  0  0  0  0  0  0  0
    5.4832   -9.8186    0.0000 H   0  0  0  0  0  0  0  0  0  0  0  0
    6.9525   -7.4321    0.0000 H   0  0  0  0  0  0  0  0  0  0  0  0
    7.6257   -9.4013    0.0000 O   0  0  0  0  0  0  0  0  0  0  0  0
  4 30  1  0  0  0  0
  1  2  1  0  0  0  0
  2  3  1  0  0  0  0
  3  4  1  0  0  0  0
  1  5  2  0  0  0  0
  7  8  1  0  0  0  0
  8  9  1  0  0  0  0
  9 10  1  0  0  0  0
 10 11  1  0  0  0  0
 11 12  1  0  0  0  0
 12 13  1  0  0  0  0
 13 14  1  0  0  0  0
 14 15  1  0  0  0  0
 15 16  1  0  0  0  0
 16 17  1  0  0  0  0
 17 18  1  0  0  0  0
 18 19  1  0  0  0  0
 19 20  1  1  0  0  0
 20 21  1  0  0  0  0
  7 21  1  1  0  0  0
  7 22  1  0  0  0  0
 22 18  1  0  0  0  0
 14 19  1  0  0  0  0
 10 19  1  0  0  0  0
 15 23  1  6  0  0  0
 11 24  1  1  0  0  0
  7 25  1  0  0  0  0
 16 30  1  1  0  0  0
  1  6  1  0  0  0  0
  4 26  2  0  0  0  0
 10 27  1  1  0  0  0
 14 28  1  1  0  0  0
 18 29  1  6  0  0  0
M  END
>  <cdx:fragmentId>
19

$$$$
