10505.cdx
  Mrv1902 05222410253D          

 26 25  0  0  0  0            999 V2000
   10.8535  -17.5855    0.4405 C   0  0  0  0  0  0  0  0  0  0  0  0
   12.1568  -18.3480    0.7429 C   0  0  0  0  0  0  0  0  0  0  0  0
   13.5051  -17.6039    0.7296 C   0  0  0  0  0  0  0  0  0  0  0  0
   14.8084  -18.3664    1.0321 C   0  0  0  0  0  0  0  0  0  0  0  0
   16.1566  -17.6222    1.0188 C   0  0  0  0  0  0  0  0  0  0  0  0
   17.4600  -18.3847    1.3212 C   0  0  0  0  0  0  0  0  0  0  0  0
   18.8082  -17.6406    1.3080 C   0  0  0  0  0  0  0  0  0  0  0  0
   20.1116  -18.4031    1.6104 C   0  0  0  0  0  0  0  0  0  0  0  0
   21.4598  -17.6589    1.5971 C   0  0  0  0  0  0  0  0  0  0  0  0
   22.7631  -18.4214    1.8995 C   0  0  0  0  0  0  0  0  0  0  0  0
   25.4024  -18.4546    3.2684 C   0  0  0  0  0  0  0  0  0  0  0  0
   26.7061  -17.6920    2.9678 C   0  0  0  0  0  0  0  0  0  0  0  0
   27.9972  -18.4693    2.6505 C   0  0  0  0  0  0  0  0  0  0  0  0
   29.3009  -17.7067    2.3499 C   0  0  0  0  0  0  0  0  0  0  0  0
   30.5919  -18.4840    2.0326 C   0  0  0  0  0  0  0  0  0  0  0  0
   31.8957  -17.7215    1.7320 C   0  0  0  0  0  0  0  0  0  0  0  0
   33.1867  -18.4988    1.4148 C   0  0  0  0  0  0  0  0  0  0  0  0
   34.4904  -17.7362    1.1141 C   0  0  0  0  0  0  0  0  0  0  0  0
   35.7815  -18.5135    0.7969 C   0  0  0  0  0  0  0  0  0  0  0  0
   37.0852  -17.7509    0.4963 C   0  0  0  0  0  0  0  0  0  0  0  0
   24.1114  -17.6773   -0.6527 C   0  0  0  0  0  0  0  0  0  0  0  0
    9.5053  -18.3296    0.9075 C   0  0  0  0  0  0  0  0  0  0  0  0
    8.1867  -17.5341    0.9075 O   0  0  0  0  0  0  0  0  0  0  0  0
    9.4756  -19.8694    0.9075 O   0  0  0  0  0  0  0  0  0  0  0  0
    6.8384  -18.2783    0.9075 C   0  0  0  0  0  0  0  0  0  0  0  0
    5.5198  -17.4827    0.9075 C   0  0  0  0  0  0  0  0  0  0  0  0
 22  1  1  0  0  0  0
  1  2  1  0  0  0  0
  2  3  1  0  0  0  0
  3  4  1  0  0  0  0
  4  5  1  0  0  0  0
  5  6  1  0  0  0  0
  6  7  1  0  0  0  0
  7  8  1  0  0  0  0
  8  9  1  0  0  0  0
  9 10  1  0  0  0  0
 10 21  1  0  0  0  0
 11 12  2  0  0  0  0
 12 13  1  0  0  0  0
 13 14  1  0  0  0  0
 14 15  1  0  0  0  0
 15 16  1  0  0  0  0
 16 17  1  0  0  0  0
 17 18  1  0  0  0  0
 18 19  1  0  0  0  0
 21 11  1  0  0  0  0
 19 20  1  0  0  0  0
 22 23  1  0  0  0  0
 22 24  2  0  0  0  0
 23 25  1  0  0  0  0
 25 26  1  0  0  0  0
M  END
>  <cdx:fragmentId>
3

$$$$
