105070.cdx
  Mrv1902 05222410182D          

 29 30  0  0  0  0            999 V2000
    6.7507   -5.6551    0.0000 C   0  0  0  0  0  0  0  0  0  0  0  0
    8.8442  -10.2158    0.0000 C   0  0  0  0  0  0  0  0  0  0  0  0
    8.8533   -9.3909    0.0000 C   0  0  0  0  0  0  0  0  0  0  0  0
   11.0101   -8.1769    0.0000 C   0  0  0  0  0  0  0  0  0  0  0  0
   10.3002   -7.7566    0.0000 O   0  0  0  0  0  0  0  0  0  0  0  0
    9.5722   -8.9862    0.0000 O   0  0  0  0  0  0  0  0  0  0  0  0
    9.5813   -8.1613    0.0000 C   0  0  0  0  0  0  0  0  0  0  0  0
    8.8714   -7.7410    0.0000 C   0  0  0  0  0  0  0  0  0  0  0  0
    7.3973  -11.8501    0.0000 O   0  0  0  0  0  0  0  0  0  0  0  0
    5.9594  -12.6593    0.0000 O   0  0  0  0  0  0  0  0  0  0  0  0
    4.5396  -11.8187    0.0000 O   0  0  0  0  0  0  0  0  0  0  0  0
    3.8387  -10.5735    0.0000 O   0  0  0  0  0  0  0  0  0  0  0  0
    4.5577  -10.1688    0.0000 C   0  0  0  0  0  0  0  0  0  0  0  0
    5.2676  -10.5891    0.0000 C   0  0  2  0  0  0  0  0  0  0  0  0
    5.2585  -11.4141    0.0000 C   0  0  2  0  0  0  0  0  0  0  0  0
    5.9684  -11.8344    0.0000 C   0  0  1  0  0  0  0  0  0  0  0  0
    6.6874  -11.4297    0.0000 C   0  0  2  0  0  0  0  0  0  0  0  0
    6.6964  -10.6048    0.0000 C   0  0  1  0  0  0  0  0  0  0  0  0
    5.9865  -10.1845    0.0000 O   0  0  0  0  0  0  0  0  0  0  0  0
    7.4154  -10.2002    0.0000 O   0  0  0  0  0  0  0  0  0  0  0  0
    6.7417   -6.4800    0.0000 O   0  0  0  0  0  0  0  0  0  0  0  0
    8.1705   -6.4957    0.0000 O   0  0  0  0  0  0  0  0  0  0  0  0
    7.4516   -6.9003    0.0000 C   0  0  0  0  0  0  0  0  0  0  0  0
    6.7145   -8.9549    0.0000 O   0  0  0  0  0  0  0  0  0  0  0  0
    6.7236   -8.1299    0.0000 C   0  0  0  0  0  0  0  0  0  0  0  0
    7.4425   -7.7253    0.0000 C   0  0  0  0  0  0  0  0  0  0  0  0
    8.1524   -8.1456    0.0000 C   0  0  2  0  0  0  0  0  0  0  0  0
    8.1434   -8.9706    0.0000 C   0  0  2  0  0  0  0  0  0  0  0  0
    7.4244   -9.3752    0.0000 C   0  0  2  0  0  0  0  0  0  0  0  0
 21  1  1  0  0  0  0
 28  3  1  1  0  0  0
  3  2  2  0  0  0  0
 27  8  1  1  0  0  0
  7  5  1  0  0  0  0
  5  4  1  0  0  0  0
  7  6  2  0  0  0  0
  8  7  1  0  0  0  0
 29 20  1  6  0  0  0
 18 20  1  1  0  0  0
 17  9  1  6  0  0  0
 16 10  1  1  0  0  0
 15 11  1  6  0  0  0
 14 13  1  1  0  0  0
 13 12  1  0  0  0  0
 19 14  1  0  0  0  0
 15 14  1  0  0  0  0
 16 15  1  0  0  0  0
 17 16  1  0  0  0  0
 18 17  1  0  0  0  0
 19 18  1  0  0  0  0
 26 23  1  0  0  0  0
 23 21  1  0  0  0  0
 23 22  2  0  0  0  0
 29 24  1  0  0  0  0
 25 24  1  0  0  0  0
 26 25  2  0  0  0  0
 27 26  1  0  0  0  0
 28 27  1  0  0  0  0
 29 28  1  0  0  0  0
M  END
>  <cdx:fragmentId>
101326

$$$$
