1051.cdx
  Mrv1902 05222410202D          

 16 16  0  0  0  0            999 V2000
    8.7028   -3.6285    0.0000 P   0  0  0  0  0  0  0  0  0  0  0  0
    8.2923   -2.9128    0.0000 O   0  0  0  0  0  0  0  0  0  0  0  0
    9.1132   -4.3441    0.0000 O   0  0  0  0  0  0  0  0  0  0  0  0
    9.4184   -3.2180    0.0000 O   0  0  0  0  0  0  0  0  0  0  0  0
    7.9871   -4.0389    0.0000 O   0  0  0  0  0  0  0  0  0  0  0  0
    6.5629   -2.3848    0.0000 O   0  0  0  0  0  0  0  0  0  0  0  0
    5.8473   -2.7953    0.0000 C   0  0  0  0  0  0  0  0  0  0  0  0
    4.4160   -3.6162    0.0000 O   0  0  0  0  0  0  0  0  0  0  0  0
    4.4112   -5.2662    0.0000 C   0  0  0  0  0  0  0  0  0  0  0  0
    5.8402   -5.2703    0.0000 N   0  0  0  0  0  0  0  0  0  0  0  0
    5.1269   -4.8557    0.0000 C   0  0  0  0  0  0  0  0  0  0  0  0
    5.1293   -4.0307    0.0000 C   0  0  0  0  0  0  0  0  0  0  0  0
    5.8449   -3.6203    0.0000 C   0  0  0  0  0  0  0  0  0  0  0  0
    6.5582   -4.0348    0.0000 C   0  0  0  0  0  0  0  0  0  0  0  0
    6.5558   -4.8598    0.0000 C   0  0  0  0  0  0  0  0  0  0  0  0
    7.2738   -3.6244    0.0000 C   0  0  0  0  0  0  0  0  0  0  0  0
 16 14  1  0  0  0  0
 13  7  1  0  0  0  0
  7  6  2  0  0  0  0
 12  8  1  0  0  0  0
 11  9  1  0  0  0  0
 15 10  2  0  0  0  0
 11 10  1  0  0  0  0
 12 11  2  0  0  0  0
 13 12  1  0  0  0  0
 14 13  2  0  0  0  0
 15 14  1  0  0  0  0
  1  2  2  0  0  0  0
  1  3  1  0  0  0  0
  1  4  1  0  0  0  0
  1  5  1  0  0  0  0
  5 16  1  0  0  0  0
M  END
>  <cdx:groupId>
50

>  <cdx:fragmentId>
17

$$$$
