105119.cdx
  Mrv1902 05222410272D          

 21 24  0  0  0  0            999 V2000
    9.1628   -5.9757    0.0000 O   0  0  0  0  0  0  0  0  0  0  0  0
    9.6477   -5.3083    0.0000 C   0  0  0  0  0  0  0  0  0  0  0  0
    9.1628   -4.6409    0.0000 C   0  0  0  0  0  0  0  0  0  0  0  0
    8.3782   -4.8958    0.0000 C   0  0  0  0  0  0  0  0  0  0  0  0
    7.6637   -4.4833    0.0000 C   0  0  0  0  0  0  0  0  0  0  0  0
    6.9492   -4.8958    0.0000 C   0  0  0  0  0  0  0  0  0  0  0  0
    6.9492   -5.7208    0.0000 C   0  0  0  0  0  0  0  0  0  0  0  0
    7.6637   -6.1333    0.0000 C   0  0  0  0  0  0  0  0  0  0  0  0
    8.3782   -5.7208    0.0000 C   0  0  0  0  0  0  0  0  0  0  0  0
    7.6637   -6.9583    0.0000 C   0  0  0  0  0  0  0  0  0  0  0  0
    6.9492   -7.3708    0.0000 C   0  0  0  0  0  0  0  0  0  0  0  0
    6.2347   -6.9583    0.0000 C   0  0  0  0  0  0  0  0  0  0  0  0
    5.5203   -7.3708    0.0000 C   0  0  0  0  0  0  0  0  0  0  0  0
    4.8058   -6.9583    0.0000 C   0  0  0  0  0  0  0  0  0  0  0  0
    4.8058   -6.1333    0.0000 C   0  0  0  0  0  0  0  0  0  0  0  0
    5.5203   -5.7208    0.0000 C   0  0  0  0  0  0  0  0  0  0  0  0
    6.2347   -6.1333    0.0000 C   0  0  0  0  0  0  0  0  0  0  0  0
    6.2347   -4.4833    0.0000 O   0  0  0  0  0  0  0  0  0  0  0  0
    7.6637   -3.6583    0.0000 O   0  0  0  0  0  0  0  0  0  0  0  0
    5.5203   -8.1958    0.0000 C   0  0  0  0  0  0  0  0  0  0  0  0
    9.4177   -3.8562    0.0000 C   0  0  0  0  0  0  0  0  0  0  0  0
  1  2  1  0  0  0  0
  2  3  2  0  0  0  0
  3  4  1  0  0  0  0
  4  5  1  0  0  0  0
  5  6  1  0  0  0  0
  6  7  1  0  0  0  0
  7  8  2  0  0  0  0
  8  9  1  0  0  0  0
  4  9  2  0  0  0  0
  1  9  1  0  0  0  0
 10 11  2  0  0  0  0
 11 12  1  0  0  0  0
 12 13  1  0  0  0  0
 13 14  2  0  0  0  0
 14 15  1  0  0  0  0
 15 16  1  0  0  0  0
 16 17  1  0  0  0  0
 12 17  2  0  0  0  0
 17  7  1  0  0  0  0
 10  8  1  0  0  0  0
  6 18  2  0  0  0  0
  5 19  2  0  0  0  0
 13 20  1  0  0  0  0
  3 21  1  0  0  0  0
M  END
>  <cdx:fragmentId>
5

$$$$
