105118.cdx
  Mrv1902 05222410272D          

 21 24  0  0  0  0            999 V2000
    9.3834   -2.8902    0.0000 C   0  0  0  0  0  0  0  0  0  0  0  0
    9.1286   -3.6750    0.0000 C   0  0  0  0  0  0  0  0  0  0  0  0
    9.6134   -4.3424    0.0000 C   0  0  0  0  0  0  0  0  0  0  0  0
    9.1286   -5.0097    0.0000 O   0  0  0  0  0  0  0  0  0  0  0  0
    8.3437   -4.7549    0.0000 C   0  0  0  0  0  0  0  0  0  0  0  0
    8.3437   -3.9299    0.0000 C   0  0  0  0  0  0  0  0  0  0  0  0
    7.6292   -3.5174    0.0000 C   0  0  0  0  0  0  0  0  0  0  0  0
    7.6292   -2.6924    0.0000 O   0  0  0  0  0  0  0  0  0  0  0  0
    6.9148   -3.9299    0.0000 C   0  0  0  0  0  0  0  0  0  0  0  0
    6.2003   -3.5174    0.0000 O   0  0  0  0  0  0  0  0  0  0  0  0
    6.9148   -4.7549    0.0000 C   0  0  0  0  0  0  0  0  0  0  0  0
    7.6292   -5.1674    0.0000 C   0  0  0  0  0  0  0  0  0  0  0  0
    7.6292   -5.9924    0.0000 C   0  0  0  0  0  0  0  0  0  0  0  0
    6.9148   -6.4049    0.0000 C   0  0  0  0  0  0  0  0  0  0  0  0
    6.2003   -5.9924    0.0000 C   0  0  0  0  0  0  0  0  0  0  0  0
    6.2003   -5.1674    0.0000 C   0  0  0  0  0  0  0  0  0  0  0  0
    5.4857   -4.7549    0.0000 C   0  0  0  0  0  0  0  0  0  0  0  0
    4.7714   -5.1674    0.0000 C   0  0  0  0  0  0  0  0  0  0  0  0
    4.7714   -5.9924    0.0000 C   0  0  0  0  0  0  0  0  0  0  0  0
    5.4857   -6.4049    0.0000 C   0  0  0  0  0  0  0  0  0  0  0  0
    5.4857   -7.2299    0.0000 C   0  0  0  0  0  0  0  0  0  0  0  0
  1  2  1  0  0  0  0
  2  3  2  0  0  0  0
  3  4  1  0  0  0  0
  4  5  1  0  0  0  0
  5  6  2  0  0  0  0
  2  6  1  0  0  0  0
  6  7  1  0  0  0  0
  7  8  2  0  0  0  0
  7  9  1  0  0  0  0
  9 10  2  0  0  0  0
  9 11  1  0  0  0  0
 11 12  2  0  0  0  0
  5 12  1  0  0  0  0
 12 13  1  0  0  0  0
 13 14  2  0  0  0  0
 14 15  1  0  0  0  0
 15 16  2  0  0  0  0
 11 16  1  0  0  0  0
 16 17  1  0  0  0  0
 17 18  1  0  0  0  0
 18 19  1  0  0  0  0
 19 20  1  0  0  0  0
 15 20  1  0  0  0  0
 20 21  2  0  0  0  0
M  END
>  <cdx:fragmentId>
1

$$$$
