1053.cdx
  Mrv1902 05222410192D          

 16 16  0  0  0  0            999 V2000
    8.4898   -4.8176    0.0000 P   0  0  0  0  0  0  0  0  0  0  0  0
    8.0773   -4.1031    0.0000 O   0  0  0  0  0  0  0  0  0  0  0  0
    8.9023   -5.5320    0.0000 O   0  0  0  0  0  0  0  0  0  0  0  0
    9.2042   -4.4051    0.0000 O   0  0  0  0  0  0  0  0  0  0  0  0
    7.7781   -5.2348    0.0000 O   0  0  0  0  0  0  0  0  0  0  0  0
    6.3382   -3.5943    0.0000 N   0  0  0  0  0  0  0  0  0  0  0  0
    5.6265   -4.0115    0.0000 C   0  0  0  0  0  0  0  0  0  0  0  0
    4.2030   -4.8459    0.0000 O   0  0  0  0  0  0  0  0  0  0  0  0
    4.2140   -6.4959    0.0000 C   0  0  0  0  0  0  0  0  0  0  0  0
    5.6429   -6.4864    0.0000 N   0  0  0  0  0  0  0  0  0  0  0  0
    4.9257   -6.0787    0.0000 C   0  0  0  0  0  0  0  0  0  0  0  0
    4.9202   -5.2537    0.0000 C   0  0  0  0  0  0  0  0  0  0  0  0
    5.6320   -4.8365    0.0000 C   0  0  0  0  0  0  0  0  0  0  0  0
    6.3491   -5.2442    0.0000 C   0  0  0  0  0  0  0  0  0  0  0  0
    6.3546   -6.0692    0.0000 C   0  0  0  0  0  0  0  0  0  0  0  0
    7.0609   -4.8270    0.0000 C   0  0  0  0  0  0  0  0  0  0  0  0
 16 14  1  0  0  0  0
 13  7  1  0  0  0  0
  7  6  1  0  0  0  0
 12  8  1  0  0  0  0
 11  9  1  0  0  0  0
 15 10  2  0  0  0  0
 11 10  1  0  0  0  0
 12 11  2  0  0  0  0
 13 12  1  0  0  0  0
 14 13  2  0  0  0  0
 15 14  1  0  0  0  0
  1  2  2  0  0  0  0
  1  3  1  0  0  0  0
  1  4  1  0  0  0  0
  1  5  1  0  0  0  0
  5 16  1  0  0  0  0
M  END
>  <cdx:groupId>
50

>  <cdx:fragmentId>
17

$$$$
