1054.cdx
  Mrv1902 05222410182D          

 12 12  0  0  0  0            999 V2000
    6.4276   -5.2545    0.0000 C   0  0  0  0  0  0  0  0  0  0  0  0
    6.4165   -4.4295    0.0000 C   0  0  0  0  0  0  0  0  0  0  0  0
    7.1254   -4.0075    0.0000 C   0  0  0  0  0  0  0  0  0  0  0  0
    7.8453   -4.4103    0.0000 C   0  0  0  0  0  0  0  0  0  0  0  0
    7.8564   -5.2352    0.0000 C   0  0  0  0  0  0  0  0  0  0  0  0
    7.1476   -5.6573    0.0000 N   0  0  0  0  0  0  0  0  0  0  0  0
    5.6966   -4.0267    0.0000 O   0  0  0  0  0  0  0  0  0  0  0  0
    5.7188   -5.6766    0.0000 C   0  0  0  0  0  0  0  0  0  0  0  0
    8.5542   -3.9882    0.0000 C   0  0  0  0  0  0  0  0  0  0  0  0
    9.2687   -4.4007    0.0000 O   0  0  0  0  0  0  0  0  0  0  0  0
    7.1143   -3.1825    0.0000 C   0  0  0  0  0  0  0  0  0  0  0  0
    7.8231   -2.7605    0.0000 O   0  0  0  0  0  0  0  0  0  0  0  0
  1  2  1  0  0  0  0
  2  3  2  0  0  0  0
  3  4  1  0  0  0  0
  4  5  2  0  0  0  0
  5  6  1  0  0  0  0
  1  6  2  0  0  0  0
  2  7  1  0  0  0  0
  1  8  1  0  0  0  0
  9 10  1  0  0  0  0
  4  9  1  0  0  0  0
 11 12  1  0  0  0  0
  3 11  1  0  0  0  0
M  END
>  <cdx:groupId>
38

>  <cdx:fragmentId>
5

$$$$
