10547.cdx
  Mrv1902 05222410202D          

 18 19  0  0  0  0            999 V2000
    4.8089   -6.6000    0.0000 C   0  0  0  0  0  0  0  0  0  0  0  0
    4.8089   -7.4250    0.0000 C   0  0  0  0  0  0  0  0  0  0  0  0
    5.5234   -7.8375    0.0000 C   0  0  0  0  0  0  0  0  0  0  0  0
    6.2378   -7.4250    0.0000 C   0  0  1  0  0  0  0  0  0  0  0  0
    6.2378   -6.6000    0.0000 C   0  0  2  0  0  0  0  0  0  0  0  0
    5.5234   -6.1875    0.0000 C   0  0  0  0  0  0  0  0  0  0  0  0
    6.9523   -7.8375    0.0000 C   0  0  0  0  0  0  0  0  0  0  0  0
    7.6668   -7.4250    0.0000 C   0  0  0  0  0  0  0  0  0  0  0  0
    7.6668   -6.6000    0.0000 C   0  0  0  0  0  0  0  0  0  0  0  0
    6.9523   -6.1875    0.0000 C   0  0  1  0  0  0  0  0  0  0  0  0
    6.2378   -5.7750    0.0000 C   0  0  0  0  0  0  0  0  0  0  0  0
    6.9523   -5.3625    0.0000 O   0  0  0  0  0  0  0  0  0  0  0  0
    5.5234   -8.6625    0.0000 C   0  0  0  0  0  0  0  0  0  0  0  0
    8.3813   -7.8375    0.0000 C   0  0  0  0  0  0  0  0  0  0  0  0
    9.0957   -7.4250    0.0000 C   0  0  0  0  0  0  0  0  0  0  0  0
    8.3813   -8.6625    0.0000 C   0  0  0  0  0  0  0  0  0  0  0  0
    9.0957   -8.2500    0.0000 O   0  0  0  0  0  0  0  0  0  0  0  0
    6.2378   -8.2500    0.0000 H   0  0  0  0  0  0  0  0  0  0  0  0
  1  2  1  0  0  0  0
  2  3  1  0  0  0  0
  3  4  1  0  0  0  0
  4  5  1  0  0  0  0
  5  6  1  0  0  0  0
  6  1  1  0  0  0  0
  4  7  1  0  0  0  0
  7  8  1  0  0  0  0
  8  9  2  0  0  0  0
  9 10  1  0  0  0  0
 10  5  1  0  0  0  0
  5 11  1  1  0  0  0
 10 12  1  6  0  0  0
  3 13  2  0  0  0  0
  8 14  1  0  0  0  0
 14 15  1  0  0  0  0
 14 16  1  0  0  0  0
 14 17  1  0  0  0  0
  4 18  1  6  0  0  0
M  END
>  <cdx:fragmentId>
5

$$$$
