10550.cdx
  Mrv1902 05222410192D          

 11 12  0  0  0  0            999 V2000
    6.7478   -5.2900    0.0000 C   0  0  0  0  0  0  0  0  0  0  0  0
    7.5338   -5.5407    0.0000 C   0  0  0  0  0  0  0  0  0  0  0  0
    8.0151   -4.8706    0.0000 C   0  0  0  0  0  0  0  0  0  0  0  0
    7.5266   -4.2058    0.0000 C   0  0  0  0  0  0  0  0  0  0  0  0
    6.7434   -4.4650    0.0000 C   0  0  0  0  0  0  0  0  0  0  0  0
    6.0311   -4.8813    0.0000 C   0  0  0  0  0  0  0  0  0  0  0  0
    8.8401   -4.8662    0.0000 O   0  0  0  0  0  0  0  0  0  0  0  0
    6.9048   -6.7103    0.0000 C   0  0  0  0  0  0  0  0  0  0  0  0
    6.4163   -6.0454    0.0000 C   0  0  0  0  0  0  0  0  0  0  0  0
    5.5963   -6.1361    0.0000 C   0  0  0  0  0  0  0  0  0  0  0  0
    7.7773   -3.4198    0.0000 C   0  0  0  0  0  0  0  0  0  0  0  0
  1  2  1  0  0  0  0
  2  3  1  0  0  0  0
  3  4  1  0  0  0  0
  4  5  1  0  0  0  0
  5  6  1  0  0  0  0
  1  6  1  0  0  0  0
  1  5  1  0  0  0  0
  3  7  1  0  0  0  0
  8  9  1  0  0  0  0
  9 10  1  0  0  0  0
  1  9  1  0  0  0  0
  4 11  1  0  0  0  0
M  END
>  <cdx:fragmentId>
5

$$$$
