10557.cdx
  Mrv1902 05222410182D          

 18 19  0  0  0  0            999 V2000
    7.1698   -8.2734    0.0000 C   0  0  0  0  0  0  0  0  0  0  0  0
    7.1302   -5.7987    0.0000 H   0  0  0  0  0  0  0  0  0  0  0  0
    8.5589   -5.7759    0.0000 H   0  0  0  0  0  0  0  0  0  0  0  0
    6.4092   -5.3977    0.0000 C   0  0  0  0  0  0  0  0  0  0  0  0
    9.7038   -6.8847    0.0000 C   0  0  0  0  0  0  0  0  0  0  0  0
    8.8560   -5.4691    0.0000 C   0  0  0  0  0  0  0  0  0  0  0  0
    9.9877   -5.7530    0.0000 O   0  0  0  0  0  0  0  0  0  0  0  0
    9.2799   -6.1769    0.0000 C   0  0  0  0  0  0  0  0  0  0  0  0
    6.4224   -6.2226    0.0000 C   0  0  0  0  0  0  0  0  0  0  0  0
    5.7146   -6.6465    0.0000 C   0  0  0  0  0  0  0  0  0  0  0  0
    5.7278   -7.4714    0.0000 C   0  0  0  0  0  0  0  0  0  0  0  0
    6.4488   -7.8724    0.0000 C   0  0  0  0  0  0  0  0  0  0  0  0
    7.8512   -6.1997    0.0000 C   0  0  0  0  0  0  0  0  0  0  0  0
    7.1434   -6.6236    0.0000 C   0  0  2  0  0  0  0  0  0  0  0  0
    7.1566   -7.4485    0.0000 C   0  0  2  0  0  0  0  0  0  0  0  0
    7.8776   -7.8495    0.0000 C   0  0  0  0  0  0  0  0  0  0  0  0
    8.5853   -7.4256    0.0000 C   0  0  0  0  0  0  0  0  0  0  0  0
    8.5721   -6.6008    0.0000 C   0  0  1  0  0  0  0  0  0  0  0  0
 15  1  1  6  0  0  0
 14  2  1  1  0  0  0
 18  3  1  1  0  0  0
  9  4  2  0  0  0  0
  8  5  1  0  0  0  0
  8  6  1  0  0  0  0
  8  7  1  0  0  0  0
 18  8  1  0  0  0  0
  9 14  1  0  0  0  0
 10  9  1  0  0  0  0
 11 10  1  0  0  0  0
 12 11  1  0  0  0  0
 15 12  1  0  0  0  0
 13 18  1  0  0  0  0
 14 13  1  0  0  0  0
 15 14  1  0  0  0  0
 16 15  1  0  0  0  0
 17 16  1  0  0  0  0
 18 17  1  0  0  0  0
M  END
>  <cdx:fragmentId>
5

$$$$
