10556.cdx
  Mrv1902 05222410182D          

 17 19  0  0  0  0            999 V2000
    4.6027   -6.2287    0.0000 C   0  0  0  0  0  0  0  0  0  0  0  0
    4.6027   -7.0537    0.0000 C   0  0  0  0  0  0  0  0  0  0  0  0
    5.3171   -7.4663    0.0000 C   0  0  0  0  0  0  0  0  0  0  0  0
    6.0316   -7.0537    0.0000 C   0  0  0  0  0  0  0  0  0  0  0  0
    6.0316   -6.2287    0.0000 C   0  0  0  0  0  0  0  0  0  0  0  0
    5.3171   -5.8163    0.0000 C   0  0  0  0  0  0  0  0  0  0  0  0
    6.7461   -7.4663    0.0000 C   0  0  0  0  0  0  0  0  0  0  0  0
    7.4605   -7.0537    0.0000 C   0  0  0  0  0  0  0  0  0  0  0  0
    7.4605   -6.2287    0.0000 C   0  0  0  0  0  0  0  0  0  0  0  0
    6.7461   -5.8163    0.0000 C   0  0  0  0  0  0  0  0  0  0  0  0
    8.2452   -7.3087    0.0000 C   0  0  0  0  0  0  0  0  0  0  0  0
    8.7301   -6.6413    0.0000 C   0  0  0  0  0  0  0  0  0  0  0  0
    8.2452   -5.9738    0.0000 O   0  0  0  0  0  0  0  0  0  0  0  0
    6.0316   -5.4037    0.0000 C   0  0  0  0  0  0  0  0  0  0  0  0
    5.3171   -8.2912    0.0000 C   0  0  0  0  0  0  0  0  0  0  0  0
    9.5551   -6.6413    0.0000 O   0  0  0  0  0  0  0  0  0  0  0  0
    8.4587   -8.1056    0.0000 C   0  0  0  0  0  0  0  0  0  0  0  0
  1  2  1  0  0  0  0
  2  3  1  0  0  0  0
  3  4  1  0  0  0  0
  4  5  1  0  0  0  0
  5  6  1  0  0  0  0
  6  1  1  0  0  0  0
  4  7  2  0  0  0  0
  7  8  1  0  0  0  0
  8  9  1  0  0  0  0
  9 10  1  0  0  0  0
 10  5  1  0  0  0  0
  8 11  1  0  0  0  0
 11 12  1  0  0  0  0
 12 13  1  0  0  0  0
 13  9  1  0  0  0  0
  5 14  1  0  0  0  0
  3 15  1  0  0  0  0
 12 16  2  0  0  0  0
 11 17  2  0  0  0  0
M  END
>  <cdx:fragmentId>
5

$$$$
