10105633.cdx
  Mrv1902 05222410252D          

 17 16  0  0  0  0            999 V2000
    3.3139  -14.9787    0.0000 C   0  0  0  0  0  0  0  0  0  0  0  0
    4.0284  -14.5662    0.0000 C   0  0  0  0  0  0  0  0  0  0  0  0
    4.7429  -14.9787    0.0000 C   0  0  2  0  0  0  0  0  0  0  0  0
    5.4573  -14.5662    0.0000 C   0  0  0  0  0  0  0  0  0  0  0  0
    6.1718  -14.9787    0.0000 C   0  0  0  0  0  0  0  0  0  0  0  0
    6.8863  -14.5662    0.0000 C   0  0  0  0  0  0  0  0  0  0  0  0
    7.6007  -14.9787    0.0000 C   0  0  0  0  0  0  0  0  0  0  0  0
    8.3152  -14.5662    0.0000 C   0  0  2  0  0  0  0  0  0  0  0  0
    9.0297  -14.9787    0.0000 C   0  0  0  0  0  0  0  0  0  0  0  0
    9.7441  -14.5662    0.0000 C   0  0  0  0  0  0  0  0  0  0  0  0
   10.4586  -14.9787    0.0000 C   0  0  0  0  0  0  0  0  0  0  0  0
   11.1731  -14.5662    0.0000 C   0  0  0  0  0  0  0  0  0  0  0  0
    5.1554  -15.6931    0.0000 O   0  0  0  0  0  0  0  0  0  0  0  0
    8.3152  -13.7412    0.0000 O   0  0  0  0  0  0  0  0  0  0  0  0
   10.4586  -15.8037    0.0000 C   0  0  0  0  0  0  0  0  0  0  0  0
    7.6007  -15.8037    0.0000 C   0  0  0  0  0  0  0  0  0  0  0  0
    4.3304  -15.6931    0.0000 C   0  0  0  0  0  0  0  0  0  0  0  0
  1  2  2  0  0  0  0
  2  3  1  0  0  0  0
  3  4  1  0  0  0  0
  4  5  1  0  0  0  0
  5  6  1  0  0  0  0
  6  7  2  0  0  0  0
  7  8  1  0  0  0  0
  8  9  1  0  0  0  0
  9 10  1  0  0  0  0
 10 11  2  0  0  0  0
 11 12  1  0  0  0  0
  3 13  1  6  0  0  0
  8 14  1  1  0  0  0
 11 15  1  0  0  0  0
  7 16  1  0  0  0  0
  3 17  1  1  0  0  0
M  END
>  <cdx:groupId>
41529

>  <cdx:fragmentId>
41482

$$$$
