1056.cdx
  Mrv1902 05222410192D          

 43 47  0  0  0  0            999 V2000
    4.2520   -7.7344    0.0000 C   0  0  0  0  0  0  0  0  0  0  0  0
    4.2520   -8.5594    0.0000 C   0  0  0  0  0  0  0  0  0  0  0  0
    4.9665   -8.9719    0.0000 C   0  0  0  0  0  0  0  0  0  0  0  0
    5.6810   -8.5594    0.0000 C   0  0  0  0  0  0  0  0  0  0  0  0
    5.6810   -7.7344    0.0000 C   0  0  0  0  0  0  0  0  0  0  0  0
    4.9665   -7.3219    0.0000 C   0  0  0  0  0  0  0  0  0  0  0  0
    6.3954   -8.9719    0.0000 C   0  0  0  0  0  0  0  0  0  0  0  0
    7.1099   -8.5594    0.0000 C   0  0  2  0  0  0  0  0  0  0  0  0
    7.1099   -7.7344    0.0000 C   0  0  2  0  0  0  0  0  0  0  0  0
    6.3954   -7.3219    0.0000 O   0  0  0  0  0  0  0  0  0  0  0  0
    7.8244   -7.3219    0.0000 C   0  0  0  0  0  0  0  0  0  0  0  0
    7.8244   -6.4969    0.0000 C   0  0  0  0  0  0  0  0  0  0  0  0
    8.5389   -7.7344    0.0000 C   0  0  0  0  0  0  0  0  0  0  0  0
    9.2533   -7.3219    0.0000 C   0  0  0  0  0  0  0  0  0  0  0  0
    9.2533   -6.4969    0.0000 C   0  0  0  0  0  0  0  0  0  0  0  0
    8.5389   -6.0844    0.0000 C   0  0  0  0  0  0  0  0  0  0  0  0
    3.5376   -7.3219    0.0000 O   0  0  0  0  0  0  0  0  0  0  0  0
    4.9665   -9.7969    0.0000 O   0  0  0  0  0  0  0  0  0  0  0  0
    9.9678   -6.0844    0.0000 O   0  0  0  0  0  0  0  0  0  0  0  0
    7.8244   -8.9719    0.0000 O   0  0  0  0  0  0  0  0  0  0  0  0
    9.9678   -7.7344    0.0000 O   0  0  0  0  0  0  0  0  0  0  0  0
    9.2478  -10.6286    0.0000 C   0  0  0  0  0  0  0  0  0  0  0  0
    8.5341  -10.2147    0.0000 C   0  0  0  0  0  0  0  0  0  0  0  0
    7.8188  -10.6259    0.0000 C   0  0  0  0  0  0  0  0  0  0  0  0
    7.8173  -11.4509    0.0000 C   0  0  0  0  0  0  0  0  0  0  0  0
    8.5310  -11.8647    0.0000 C   0  0  0  0  0  0  0  0  0  0  0  0
    9.2462  -11.4536    0.0000 C   0  0  0  0  0  0  0  0  0  0  0  0
    8.5356   -9.3897    0.0000 C   0  0  0  0  0  0  0  0  0  0  0  0
    9.2508   -8.9786    0.0000 O   0  0  0  0  0  0  0  0  0  0  0  0
    9.9599  -11.8674    0.0000 O   0  0  0  0  0  0  0  0  0  0  0  0
    8.5295  -12.6897    0.0000 O   0  0  0  0  0  0  0  0  0  0  0  0
    7.1021  -11.8621    0.0000 O   0  0  0  0  0  0  0  0  0  0  0  0
    4.2466  -11.8733    0.0000 C   0  0  0  0  0  0  0  0  0  0  0  0
    4.2483  -11.0483    0.0000 C   0  0  0  0  0  0  0  0  0  0  0  0
    3.5346  -10.6343    0.0000 C   0  0  0  0  0  0  0  0  0  0  0  0
    2.8193  -11.0453    0.0000 C   0  0  0  0  0  0  0  0  0  0  0  0
    2.8176  -11.8703    0.0000 C   0  0  0  0  0  0  0  0  0  0  0  0
    3.5313  -12.2843    0.0000 C   0  0  0  0  0  0  0  0  0  0  0  0
    4.9636  -10.6372    0.0000 C   0  0  0  0  0  0  0  0  0  0  0  0
    5.6772  -11.0512    0.0000 O   0  0  0  0  0  0  0  0  0  0  0  0
    3.5296  -13.1093    0.0000 O   0  0  0  0  0  0  0  0  0  0  0  0
    2.1023  -12.2814    0.0000 O   0  0  0  0  0  0  0  0  0  0  0  0
    2.1057  -10.6314    0.0000 O   0  0  0  0  0  0  0  0  0  0  0  0
  1  2  2  0  0  0  0
  2  3  1  0  0  0  0
  3  4  2  0  0  0  0
  4  5  1  0  0  0  0
  5  6  2  0  0  0  0
  6  1  1  0  0  0  0
  4  7  1  0  0  0  0
  7  8  1  0  0  0  0
  8  9  1  0  0  0  0
  9 10  1  0  0  0  0
 10  5  1  0  0  0  0
  9 11  1  6  0  0  0
 11 12  2  0  0  0  0
 11 13  1  0  0  0  0
 13 14  2  0  0  0  0
 14 15  1  0  0  0  0
 15 16  2  0  0  0  0
 16 12  1  0  0  0  0
  1 17  1  0  0  0  0
  3 18  1  0  0  0  0
 15 19  1  0  0  0  0
  8 20  1  6  0  0  0
 14 21  1  0  0  0  0
 22 23  2  0  0  0  0
 23 24  1  0  0  0  0
 24 25  2  0  0  0  0
 25 26  1  0  0  0  0
 26 27  2  0  0  0  0
 27 22  1  0  0  0  0
 23 28  1  0  0  0  0
 28 29  2  0  0  0  0
 27 30  1  0  0  0  0
 26 31  1  0  0  0  0
 25 32  1  0  0  0  0
 33 34  2  0  0  0  0
 34 35  1  0  0  0  0
 35 36  2  0  0  0  0
 36 37  1  0  0  0  0
 37 38  2  0  0  0  0
 38 33  1  0  0  0  0
 34 39  1  0  0  0  0
 39 40  2  0  0  0  0
 38 41  1  0  0  0  0
 37 42  1  0  0  0  0
 36 43  1  0  0  0  0
 39 18  1  0  0  0  0
 28 20  1  0  0  0  0
M  END
>  <cdx:fragmentId>
5

$$$$
