10574.cdx
  Mrv1902 05222410262D          

 30 34  0  0  0  0            999 V2000
    7.3330   -1.1629    0.0000 O   0  0  0  0  0  0  0  0  0  0  0  0
    6.8480   -1.8304    0.0000 C   0  0  0  0  0  0  0  0  0  0  0  0
    7.3330   -2.4978    0.0000 C   0  0  0  0  0  0  0  0  0  0  0  0
    8.1176   -2.2429    0.0000 C   0  0  0  0  0  0  0  0  0  0  0  0
    8.1176   -1.4179    0.0000 C   0  0  0  0  0  0  0  0  0  0  0  0
    8.7850   -0.9330    0.0000 O   0  0  0  0  0  0  0  0  0  0  0  0
    3.4355   -4.3624    0.0000 C   0  0  0  0  0  0  0  0  0  0  0  0
    2.7210   -4.7749    0.0000 C   0  0  0  0  0  0  0  0  0  0  0  0
    2.7210   -5.5999    0.0000 C   0  0  1  0  0  0  0  0  0  0  0  0
    3.4355   -6.0124    0.0000 C   0  0  0  0  0  0  0  0  0  0  0  0
    4.1500   -5.5999    0.0000 C   0  0  1  0  0  0  0  0  0  0  0  0
    4.8645   -6.0124    0.0000 C   0  0  0  0  0  0  0  0  0  0  0  0
    5.5789   -5.5999    0.0000 C   0  0  0  0  0  0  0  0  0  0  0  0
    5.5789   -4.7749    0.0000 C   0  0  1  0  0  0  0  0  0  0  0  0
    6.2934   -4.3624    0.0000 C   0  0  1  0  0  0  0  0  0  0  0  0
    7.0780   -4.6173    0.0000 C   0  0  0  0  0  0  0  0  0  0  0  0
    7.5629   -3.9499    0.0000 C   0  0  0  0  0  0  0  0  0  0  0  0
    7.0780   -3.2824    0.0000 C   0  0  1  0  0  0  0  0  0  0  0  0
    6.2934   -3.5374    0.0000 C   0  0  1  0  0  0  0  0  0  0  0  0
    5.5789   -3.1249    0.0000 C   0  0  0  0  0  0  0  0  0  0  0  0
    4.8645   -3.5374    0.0000 C   0  0  0  0  0  0  0  0  0  0  0  0
    4.8645   -4.3624    0.0000 C   0  0  2  0  0  0  0  0  0  0  0  0
    4.1500   -4.7749    0.0000 C   0  0  1  0  0  0  0  0  0  0  0  0
    6.3796   -2.7169    0.0000 C   0  0  0  0  0  0  0  0  0  0  0  0
    4.1500   -3.9499    0.0000 C   0  0  0  0  0  0  0  0  0  0  0  0
    6.2934   -5.1874    0.0000 O   0  0  0  0  0  0  0  0  0  0  0  0
    4.1500   -6.4249    0.0000 O   0  0  0  0  0  0  0  0  0  0  0  0
    2.0066   -6.0124    0.0000 O   0  0  0  0  0  0  0  0  0  0  0  0
    5.5789   -3.9499    0.0000 H   0  0  0  0  0  0  0  0  0  0  0  0
    4.8645   -5.1874    0.0000 H   0  0  0  0  0  0  0  0  0  0  0  0
  1  2  1  0  0  0  0
  2  3  1  0  0  0  0
  3  4  2  0  0  0  0
  4  5  1  0  0  0  0
  1  5  1  0  0  0  0
  5  6  2  0  0  0  0
  7  8  1  0  0  0  0
  8  9  1  0  0  0  0
  9 10  1  0  0  0  0
 10 11  1  0  0  0  0
 11 12  1  0  0  0  0
 12 13  1  0  0  0  0
 13 14  1  0  0  0  0
 14 15  1  0  0  0  0
 15 16  1  0  0  0  0
 16 17  1  0  0  0  0
 17 18  1  0  0  0  0
 18 19  1  0  0  0  0
 15 19  1  0  0  0  0
 19 20  1  0  0  0  0
 20 21  1  0  0  0  0
 21 22  1  0  0  0  0
 14 22  1  0  0  0  0
 22 23  1  0  0  0  0
 11 23  1  0  0  0  0
  7 23  1  0  0  0  0
 19 24  1  1  0  0  0
 23 25  1  1  0  0  0
 15 26  1  1  0  0  0
 11 27  1  1  0  0  0
  9 28  1  1  0  0  0
 18  3  1  1  0  0  0
 14 29  1  1  0  0  0
 22 30  1  6  0  0  0
M  END
>  <cdx:groupId>
96

>  <cdx:fragmentId>
17

$$$$
