10575.cdx
  Mrv1902 05222410272D          

 47 51  0  0  0  0            999 V2000
    5.1870   -8.7656    0.0000 C   0  0  0  0  0  0  0  0  0  0  0  0
    5.1870   -9.5906    0.0000 C   0  0  0  0  0  0  0  0  0  0  0  0
    5.9015  -10.0031    0.0000 C   0  0  0  0  0  0  0  0  0  0  0  0
    6.6160   -9.5906    0.0000 C   0  0  0  0  0  0  0  0  0  0  0  0
    6.6160   -8.7656    0.0000 C   0  0  0  0  0  0  0  0  0  0  0  0
    5.9015   -8.3531    0.0000 C   0  0  0  0  0  0  0  0  0  0  0  0
    7.3304  -10.0031    0.0000 C   0  0  0  0  0  0  0  0  0  0  0  0
    8.0449   -9.5906    0.0000 C   0  0  0  0  0  0  0  0  0  0  0  0
    8.0449   -8.7656    0.0000 C   0  0  2  0  0  0  0  0  0  0  0  0
    7.3304   -8.3531    0.0000 O   0  0  0  0  0  0  0  0  0  0  0  0
    8.7594   -8.3531    0.0000 C   0  0  0  0  0  0  0  0  0  0  0  0
    9.4739   -8.7656    0.0000 C   0  0  0  0  0  0  0  0  0  0  0  0
   10.1883   -8.3531    0.0000 C   0  0  0  0  0  0  0  0  0  0  0  0
   10.1883   -7.5281    0.0000 C   0  0  0  0  0  0  0  0  0  0  0  0
    9.4739   -7.1156    0.0000 C   0  0  0  0  0  0  0  0  0  0  0  0
    8.7594   -7.5281    0.0000 C   0  0  0  0  0  0  0  0  0  0  0  0
    7.3304  -10.8281    0.0000 O   0  0  0  0  0  0  0  0  0  0  0  0
    4.4726   -8.3531    0.0000 O   0  0  0  0  0  0  0  0  0  0  0  0
    5.9015  -10.8281    0.0000 O   0  0  0  0  0  0  0  0  0  0  0  0
    5.9015   -7.5281    0.0000 C   0  0  0  0  0  0  0  0  0  0  0  0
    5.1870   -7.1156    0.0000 C   0  0  0  0  0  0  0  0  0  0  0  0
    5.1870   -6.2906    0.0000 C   0  0  0  0  0  0  0  0  0  0  0  0
    4.4726   -5.8781    0.0000 C   0  0  0  0  0  0  0  0  0  0  0  0
    5.9015   -5.8781    0.0000 C   0  0  0  0  0  0  0  0  0  0  0  0
   10.9028   -7.1156    0.0000 O   0  0  0  0  0  0  0  0  0  0  0  0
   11.6044   -4.8831    0.0000 C   0  0  2  0  0  0  0  0  0  0  0  0
   10.8937   -4.4641    0.0000 C   0  0  2  0  0  0  0  0  0  0  0  0
   10.1755   -4.8700    0.0000 C   0  0  1  0  0  0  0  0  0  0  0  0
   10.1679   -5.6950    0.0000 C   0  0  2  0  0  0  0  0  0  0  0  0
   10.8786   -6.1140    0.0000 C   0  0  1  0  0  0  0  0  0  0  0  0
   11.5968   -5.7081    0.0000 O   0  0  0  0  0  0  0  0  0  0  0  0
   12.3226   -4.4772    0.0000 C   0  0  0  0  0  0  0  0  0  0  0  0
    9.4648   -4.4510    0.0000 O   0  0  0  0  0  0  0  0  0  0  0  0
    9.4497   -6.1009    0.0000 O   0  0  0  0  0  0  0  0  0  0  0  0
   10.9012   -3.6391    0.0000 O   0  0  0  0  0  0  0  0  0  0  0  0
   12.3226   -3.6522    0.0000 O   0  0  0  0  0  0  0  0  0  0  0  0
    2.1964   -8.8146    0.0000 C   0  0  2  0  0  0  0  0  0  0  0  0
    2.1964   -9.6396    0.0000 C   0  0  2  0  0  0  0  0  0  0  0  0
    2.9109  -10.0521    0.0000 C   0  0  1  0  0  0  0  0  0  0  0  0
    3.6253   -9.6396    0.0000 C   0  0  2  0  0  0  0  0  0  0  0  0
    3.6253   -8.8146    0.0000 C   0  0  1  0  0  0  0  0  0  0  0  0
    2.9109   -8.4021    0.0000 O   0  0  0  0  0  0  0  0  0  0  0  0
    1.4819   -8.4021    0.0000 C   0  0  0  0  0  0  0  0  0  0  0  0
    2.9109  -10.8771    0.0000 O   0  0  0  0  0  0  0  0  0  0  0  0
    4.3398  -10.0521    0.0000 O   0  0  0  0  0  0  0  0  0  0  0  0
    1.4819  -10.0521    0.0000 O   0  0  0  0  0  0  0  0  0  0  0  0
    0.7675   -8.8146    0.0000 O   0  0  0  0  0  0  0  0  0  0  0  0
  1  2  2  0  0  0  0
  2  3  1  0  0  0  0
  3  4  2  0  0  0  0
  4  5  1  0  0  0  0
  5  6  2  0  0  0  0
  6  1  1  0  0  0  0
  4  7  1  0  0  0  0
  7  8  1  0  0  0  0
  8  9  1  0  0  0  0
  9 10  1  0  0  0  0
 10  5  1  0  0  0  0
  9 11  1  6  0  0  0
 11 12  2  0  0  0  0
 12 13  1  0  0  0  0
 13 14  2  0  0  0  0
 14 15  1  0  0  0  0
 15 16  2  0  0  0  0
 16 11  1  0  0  0  0
  7 17  2  0  0  0  0
  1 18  1  0  0  0  0
  3 19  1  0  0  0  0
  6 20  1  0  0  0  0
 20 21  1  0  0  0  0
 21 22  2  0  0  0  0
 22 23  1  0  0  0  0
 22 24  1  0  0  0  0
 14 25  1  0  0  0  0
 26 27  1  0  0  0  0
 27 28  1  0  0  0  0
 28 29  1  0  0  0  0
 29 30  1  0  0  0  0
 30 31  1  0  0  0  0
 31 26  1  0  0  0  0
 26 32  1  1  0  0  0
 28 33  1  1  0  0  0
 29 34  1  6  0  0  0
 27 35  1  6  0  0  0
 32 36  1  0  0  0  0
 37 38  1  0  0  0  0
 38 39  1  0  0  0  0
 39 40  1  0  0  0  0
 40 41  1  0  0  0  0
 41 42  1  0  0  0  0
 42 37  1  0  0  0  0
 37 43  1  1  0  0  0
 39 44  1  1  0  0  0
 40 45  1  6  0  0  0
 38 46  1  6  0  0  0
 43 47  1  0  0  0  0
 41 18  1  1  0  0  0
 30 25  1  1  0  0  0
M  END
>  <cdx:fragmentId>
5

$$$$
