1057.cdx
  Mrv1902 05222410192D          

  9  9  0  0  0  0            999 V2000
    3.8445   -4.6689    0.0000 C   0  0  0  0  0  0  0  0  0  0  0  0
    4.5589   -5.0814    0.0000 C   0  0  0  0  0  0  0  0  0  0  0  0
    4.5589   -5.9064    0.0000 C   0  0  0  0  0  0  0  0  0  0  0  0
    3.8445   -6.3189    0.0000 C   0  0  0  0  0  0  0  0  0  0  0  0
    3.1300   -5.9064    0.0000 C   0  0  0  0  0  0  0  0  0  0  0  0
    3.1300   -5.0814    0.0000 C   0  0  0  0  0  0  0  0  0  0  0  0
    3.8445   -3.8439    0.0000 O   0  0  0  0  0  0  0  0  0  0  0  0
    5.2734   -4.6689    0.0000 O   0  0  0  0  0  0  0  0  0  0  0  0
    5.2734   -6.3189    0.0000 O   0  0  0  0  0  0  0  0  0  0  0  0
  1  2  1  0  0  0  0
  2  3  2  0  0  0  0
  3  4  1  0  0  0  0
  4  5  2  0  0  0  0
  5  6  1  0  0  0  0
  1  6  2  0  0  0  0
  1  7  1  0  0  0  0
  2  8  1  0  0  0  0
  3  9  1  0  0  0  0
M  END
>  <cdx:groupId>
29

>  <cdx:fragmentId>
5

$$$$
