11105753.cdx
  Mrv1902 05222410252D          

 12 12  0  0  0  0            999 V2000
    6.0725  -11.2837    0.0000 C   0  0  0  0  0  0  0  0  0  0  0  0
    6.0725  -12.1087    0.0000 C   0  0  0  0  0  0  0  0  0  0  0  0
    6.7870  -12.5212    0.0000 C   0  0  0  0  0  0  0  0  0  0  0  0
    7.5014  -12.1087    0.0000 C   0  0  2  0  0  0  0  0  0  0  0  0
    7.5014  -11.2837    0.0000 C   0  0  0  0  0  0  0  0  0  0  0  0
    6.7870  -10.8712    0.0000 C   0  0  0  0  0  0  0  0  0  0  0  0
    5.3580  -10.8712    0.0000 O   0  0  0  0  0  0  0  0  0  0  0  0
    7.9139  -10.5692    0.0000 C   0  0  0  0  0  0  0  0  0  0  0  0
    8.3264  -11.2837    0.0000 C   0  0  0  0  0  0  0  0  0  0  0  0
    6.7870  -13.3462    0.0000 C   0  0  0  0  0  0  0  0  0  0  0  0
    8.2159  -12.5212    0.0000 C   0  0  0  0  0  0  0  0  0  0  0  0
    8.9304  -12.1087    0.0000 O   0  0  0  0  0  0  0  0  0  0  0  0
  1  2  1  0  0  0  0
  2  3  2  0  0  0  0
  3  4  1  0  0  0  0
  4  5  1  0  0  0  0
  5  6  1  0  0  0  0
  1  6  1  0  0  0  0
  1  7  2  0  0  0  0
  5  8  1  0  0  0  0
  5  9  1  0  0  0  0
  3 10  1  0  0  0  0
 11 12  1  0  0  0  0
  4 11  1  6  0  0  0
M  END
>  <cdx:groupId>
66550

>  <cdx:fragmentId>
66517

$$$$
