10570.cdx
  Mrv1902 05222410272D          

 25 27  0  0  0  0            999 V2000
    6.4041   -7.1035    0.0000 H   0  0  0  0  0  0  0  0  0  0  0  0
    7.1227   -5.8675    0.0000 H   0  0  0  0  0  0  0  0  0  0  0  0
    6.1030   -7.4041    0.0000 C   0  0  0  0  0  0  0  0  0  0  0  0
    6.4074   -4.6285    0.0000 C   0  0  0  0  0  0  0  0  0  0  0  0
    9.2703   -2.9843    0.0000 C   0  0  0  0  0  0  0  0  0  0  0  0
    9.2686   -3.8093    0.0000 C   0  0  0  0  0  0  0  0  0  0  0  0
    9.9823   -4.2232    0.0000 C   0  0  0  0  0  0  0  0  0  0  0  0
    6.4058   -6.2785    0.0000 C   0  0  2  0  0  0  0  0  0  0  0  0
    7.1194   -6.6925    0.0000 C   0  0  0  0  0  0  0  0  0  0  0  0
    7.8347   -6.2814    0.0000 C   0  0  0  0  0  0  0  0  0  0  0  0
    7.8364   -5.4564    0.0000 C   0  0  0  0  0  0  0  0  0  0  0  0
    8.5517   -5.0453    0.0000 C   0  0  0  0  0  0  0  0  0  0  0  0
    8.5533   -4.2203    0.0000 C   0  0  0  0  0  0  0  0  0  0  0  0
    7.8397   -3.8064    0.0000 C   0  0  0  0  0  0  0  0  0  0  0  0
    7.1244   -4.2175    0.0000 C   0  0  0  0  0  0  0  0  0  0  0  0
    7.1227   -5.0425    0.0000 C   0  0  2  0  0  0  0  0  0  0  0  0
    6.4074   -5.4535    0.0000 C   0  0  2  0  0  0  0  0  0  0  0  0
    5.6938   -5.0396    0.0000 C   0  0  0  0  0  0  0  0  0  0  0  0
    4.9785   -5.4507    0.0000 C   0  0  0  0  0  0  0  0  0  0  0  0
    4.9768   -6.2757    0.0000 C   0  0  0  0  0  0  0  0  0  0  0  0
    5.6905   -6.6896    0.0000 C   0  0  2  0  0  0  0  0  0  0  0  0
    5.2780   -7.4041    0.0000 C   0  0  0  0  0  0  0  0  0  0  0  0
    5.6905   -8.1185    0.0000 O   0  0  0  0  0  0  0  0  0  0  0  0
    4.4530   -7.4041    0.0000 O   0  0  0  0  0  0  0  0  0  0  0  0
    7.8413   -2.9814    0.0000 O   0  0  0  0  0  0  0  0  0  0  0  0
  8  1  1  6  0  0  0
 16  2  1  6  0  0  0
 21  3  1  1  0  0  0
 17  4  1  1  0  0  0
 13  6  1  0  0  0  0
  6  5  1  0  0  0  0
  7  6  1  0  0  0  0
 17  8  1  0  0  0  0
 21  8  1  0  0  0  0
  9  8  1  0  0  0  0
 10  9  1  0  0  0  0
 11 10  2  0  0  0  0
 16 11  1  0  0  0  0
 12 11  1  0  0  0  0
 13 12  2  0  0  0  0
 14 13  1  0  0  0  0
 15 14  1  0  0  0  0
 16 15  1  0  0  0  0
 17 16  1  0  0  0  0
 18 17  1  0  0  0  0
 19 18  1  0  0  0  0
 20 19  1  0  0  0  0
 21 20  1  0  0  0  0
 21 22  1  0  0  0  0
 22 23  2  0  0  0  0
 22 24  1  0  0  0  0
 14 25  1  0  0  0  0
M  END
>  <cdx:groupId>
76

>  <cdx:fragmentId>
5

$$$$
