1058.cdx
  Mrv1902 05222410282D          

 32 35  0  0  0  0            999 V2000
    4.2520   -7.7344    0.0000 C   0  0  0  0  0  0  0  0  0  0  0  0
    4.2520   -8.5594    0.0000 C   0  0  0  0  0  0  0  0  0  0  0  0
    4.9665   -8.9719    0.0000 C   0  0  0  0  0  0  0  0  0  0  0  0
    5.6810   -8.5594    0.0000 C   0  0  0  0  0  0  0  0  0  0  0  0
    5.6810   -7.7344    0.0000 C   0  0  0  0  0  0  0  0  0  0  0  0
    4.9665   -7.3219    0.0000 C   0  0  0  0  0  0  0  0  0  0  0  0
    6.3954   -8.9719    0.0000 C   0  0  0  0  0  0  0  0  0  0  0  0
    7.1099   -8.5594    0.0000 C   0  0  2  0  0  0  0  0  0  0  0  0
    7.1099   -7.7344    0.0000 C   0  0  2  0  0  0  0  0  0  0  0  0
    6.3954   -7.3219    0.0000 O   0  0  0  0  0  0  0  0  0  0  0  0
    7.8244   -7.3219    0.0000 C   0  0  0  0  0  0  0  0  0  0  0  0
    7.8244   -6.4969    0.0000 C   0  0  0  0  0  0  0  0  0  0  0  0
    8.5389   -7.7344    0.0000 C   0  0  0  0  0  0  0  0  0  0  0  0
    9.2533   -7.3219    0.0000 C   0  0  0  0  0  0  0  0  0  0  0  0
    9.2533   -6.4969    0.0000 C   0  0  0  0  0  0  0  0  0  0  0  0
    8.5389   -6.0844    0.0000 C   0  0  0  0  0  0  0  0  0  0  0  0
    3.5376   -7.3219    0.0000 O   0  0  0  0  0  0  0  0  0  0  0  0
    4.9665   -9.7969    0.0000 O   0  0  0  0  0  0  0  0  0  0  0  0
    8.5389   -5.2594    0.0000 O   0  0  0  0  0  0  0  0  0  0  0  0
    9.9678   -6.0844    0.0000 O   0  0  0  0  0  0  0  0  0  0  0  0
    7.8244   -8.9719    0.0000 O   0  0  0  0  0  0  0  0  0  0  0  0
    7.1258  -11.0320    0.0000 C   0  0  2  0  0  0  0  0  0  0  0  0
    7.8409  -11.4433    0.0000 C   0  0  2  0  0  0  0  0  0  0  0  0
    8.5547  -11.0296    0.0000 C   0  0  1  0  0  0  0  0  0  0  0  0
    8.5534  -10.2046    0.0000 C   0  0  2  0  0  0  0  0  0  0  0  0
    7.8382   -9.7933    0.0000 C   0  0  1  0  0  0  0  0  0  0  0  0
    7.1244  -10.2070    0.0000 O   0  0  0  0  0  0  0  0  0  0  0  0
    6.4120  -11.4457    0.0000 C   0  0  0  0  0  0  0  0  0  0  0  0
    9.2699  -11.4410    0.0000 O   0  0  0  0  0  0  0  0  0  0  0  0
    9.2672   -9.7910    0.0000 O   0  0  0  0  0  0  0  0  0  0  0  0
    7.8423  -12.2683    0.0000 O   0  0  0  0  0  0  0  0  0  0  0  0
    6.4134  -12.2707    0.0000 O   0  0  0  0  0  0  0  0  0  0  0  0
  1  2  2  0  0  0  0
  2  3  1  0  0  0  0
  3  4  2  0  0  0  0
  4  5  1  0  0  0  0
  5  6  2  0  0  0  0
  6  1  1  0  0  0  0
  4  7  1  0  0  0  0
  7  8  1  0  0  0  0
  8  9  1  0  0  0  0
  9 10  1  0  0  0  0
 10  5  1  0  0  0  0
  9 11  1  6  0  0  0
 11 12  2  0  0  0  0
 11 13  1  0  0  0  0
 13 14  2  0  0  0  0
 14 15  1  0  0  0  0
 15 16  2  0  0  0  0
 16 12  1  0  0  0  0
  1 17  1  0  0  0  0
  3 18  1  0  0  0  0
 16 19  1  0  0  0  0
 15 20  1  0  0  0  0
  8 21  1  6  0  0  0
 22 23  1  0  0  0  0
 23 24  1  0  0  0  0
 24 25  1  0  0  0  0
 25 26  1  0  0  0  0
 26 27  1  0  0  0  0
 27 22  1  0  0  0  0
 22 28  1  1  0  0  0
 24 29  1  1  0  0  0
 25 30  1  6  0  0  0
 23 31  1  6  0  0  0
 28 32  1  0  0  0  0
 26 21  1  1  0  0  0
M  END
>  <cdx:fragmentId>
5

$$$$
