10581.cdx
  Mrv1902 05222410182D          

 10 10  0  0  0  0            999 V2000
    3.7152   -3.8257    0.0000 C   0  0  0  0  0  0  0  0  0  0  0  0
    3.0008   -3.4132    0.0000 C   0  0  0  0  0  0  0  0  0  0  0  0
    3.0008   -2.5882    0.0000 C   0  0  0  0  0  0  0  0  0  0  0  0
    3.7152   -2.1757    0.0000 C   0  0  0  0  0  0  0  0  0  0  0  0
    4.4297   -2.5882    0.0000 C   0  0  0  0  0  0  0  0  0  0  0  0
    4.4297   -3.4132    0.0000 C   0  0  0  0  0  0  0  0  0  0  0  0
    5.1442   -3.8257    0.0000 C   0  0  0  0  0  0  0  0  0  0  0  0
    4.8422   -1.8737    0.0000 C   0  0  0  0  0  0  0  0  0  0  0  0
    5.2547   -2.5882    0.0000 C   0  0  0  0  0  0  0  0  0  0  0  0
    3.7152   -4.6507    0.0000 C   0  0  0  0  0  0  0  0  0  0  0  0
  1  2  2  0  0  0  0
  2  3  1  0  0  0  0
  3  4  2  0  0  0  0
  4  5  1  0  0  0  0
  5  6  1  0  0  0  0
  1  6  1  0  0  0  0
  6  7  1  0  0  0  0
  5  8  1  0  0  0  0
  5  9  1  0  0  0  0
  1 10  1  0  0  0  0
M  END
>  <cdx:groupId>
32

>  <cdx:fragmentId>
5

$$$$
