10587.cdx
  Mrv1902 05222410192D          

 17 17  0  0  0  0            999 V2000
    5.9402   -8.3872    0.0000 C   0  0  0  0  0  0  0  0  0  0  0  0
    6.7652   -8.3872    0.0000 C   0  0  1  0  0  0  0  0  0  0  0  0
    7.5902   -8.3872    0.0000 O   0  0  0  0  0  0  0  0  0  0  0  0
    6.7829   -9.2120    0.0000 C   0  0  1  0  0  0  0  0  0  0  0  0
    7.5061   -9.6090    0.0000 C   0  0  0  0  0  0  0  0  0  0  0  0
    7.5239  -10.4339    0.0000 C   0  0  0  0  0  0  0  0  0  0  0  0
    6.8185  -10.8616    0.0000 C   0  0  0  0  0  0  0  0  0  0  0  0
    6.0953  -10.4646    0.0000 C   0  0  0  0  0  0  0  0  0  0  0  0
    6.0775   -9.6398    0.0000 C   0  0  0  0  0  0  0  0  0  0  0  0
    6.8362  -11.6865    0.0000 C   0  0  0  0  0  0  0  0  0  0  0  0
    6.7652   -7.5622    0.0000 C   0  0  0  0  0  0  0  0  0  0  0  0
    7.4797   -7.1497    0.0000 C   0  0  0  0  0  0  0  0  0  0  0  0
    7.4797   -6.3247    0.0000 C   0  0  0  0  0  0  0  0  0  0  0  0
    8.1941   -5.9122    0.0000 C   0  0  0  0  0  0  0  0  0  0  0  0
    8.9086   -6.3247    0.0000 C   0  0  0  0  0  0  0  0  0  0  0  0
    8.1941   -5.0872    0.0000 C   0  0  0  0  0  0  0  0  0  0  0  0
    7.4974   -8.7995    0.0000 H   0  0  0  0  0  0  0  0  0  0  0  0
  1  2  1  0  0  0  0
  2  3  1  1  0  0  0
  4  5  1  0  0  0  0
  5  6  1  0  0  0  0
  6  7  2  0  0  0  0
  7  8  1  0  0  0  0
  8  9  1  0  0  0  0
  4  9  1  0  0  0  0
  7 10  1  0  0  0  0
  2  4  1  0  0  0  0
  2 11  1  0  0  0  0
 11 12  1  0  0  0  0
 12 13  1  0  0  0  0
 13 14  2  0  0  0  0
 14 15  1  0  0  0  0
 14 16  1  0  0  0  0
  4 17  1  6  0  0  0
M  END
>  <cdx:fragmentId>
3526

$$$$
