10599.cdx
  Mrv1902 05222410282D          

 33 36  0  0  0  0            999 V2000
    6.3352   -6.6000    0.0000 C   0  0  0  0  0  0  0  0  0  0  0  0
    6.3352   -7.4250    0.0000 C   0  0  0  0  0  0  0  0  0  0  0  0
    7.0496   -7.8375    0.0000 C   0  0  0  0  0  0  0  0  0  0  0  0
    7.7641   -7.4250    0.0000 C   0  0  0  0  0  0  0  0  0  0  0  0
    7.7641   -6.6000    0.0000 C   0  0  0  0  0  0  0  0  0  0  0  0
    7.0496   -6.1875    0.0000 C   0  0  0  0  0  0  0  0  0  0  0  0
    8.4786   -7.8375    0.0000 C   0  0  0  0  0  0  0  0  0  0  0  0
    9.1930   -7.4250    0.0000 C   0  0  0  0  0  0  0  0  0  0  0  0
    9.1930   -6.6000    0.0000 C   0  0  0  0  0  0  0  0  0  0  0  0
    8.4786   -6.1875    0.0000 O   0  0  0  0  0  0  0  0  0  0  0  0
    9.9075   -6.1875    0.0000 C   0  0  0  0  0  0  0  0  0  0  0  0
    9.9075   -5.3625    0.0000 C   0  0  0  0  0  0  0  0  0  0  0  0
   10.6220   -6.6000    0.0000 C   0  0  0  0  0  0  0  0  0  0  0  0
   11.3365   -6.1875    0.0000 C   0  0  0  0  0  0  0  0  0  0  0  0
   11.3365   -5.3625    0.0000 C   0  0  0  0  0  0  0  0  0  0  0  0
   10.6220   -4.9500    0.0000 C   0  0  0  0  0  0  0  0  0  0  0  0
    5.6207   -6.1875    0.0000 O   0  0  0  0  0  0  0  0  0  0  0  0
    7.0496   -8.6625    0.0000 O   0  0  0  0  0  0  0  0  0  0  0  0
    8.4786   -8.6625    0.0000 O   0  0  0  0  0  0  0  0  0  0  0  0
   12.0509   -4.9500    0.0000 O   0  0  0  0  0  0  0  0  0  0  0  0
    7.0496   -5.3625    0.0000 C   0  0  0  0  0  0  0  0  0  0  0  0
    5.6207   -7.8375    0.0000 C   0  0  0  0  0  0  0  0  0  0  0  0
    3.5587   -5.4590    0.0000 C   0  0  2  0  0  0  0  0  0  0  0  0
    3.1420   -6.1711    0.0000 C   0  0  2  0  0  0  0  0  0  0  0  0
    3.5504   -6.8879    0.0000 C   0  0  1  0  0  0  0  0  0  0  0  0
    4.3754   -6.8926    0.0000 C   0  0  2  0  0  0  0  0  0  0  0  0
    4.7920   -6.1806    0.0000 C   0  0  1  0  0  0  0  0  0  0  0  0
    4.3836   -5.4637    0.0000 O   0  0  0  0  0  0  0  0  0  0  0  0
    3.1503   -4.7421    0.0000 C   0  0  0  0  0  0  0  0  0  0  0  0
    3.1338   -7.6000    0.0000 O   0  0  0  0  0  0  0  0  0  0  0  0
    4.7838   -7.6095    0.0000 O   0  0  0  0  0  0  0  0  0  0  0  0
    2.3171   -6.1663    0.0000 O   0  0  0  0  0  0  0  0  0  0  0  0
    2.3253   -4.7374    0.0000 O   0  0  0  0  0  0  0  0  0  0  0  0
  1  2  2  0  0  0  0
  2  3  1  0  0  0  0
  3  4  2  0  0  0  0
  4  5  1  0  0  0  0
  5  6  2  0  0  0  0
  6  1  1  0  0  0  0
  4  7  1  0  0  0  0
  7  8  1  0  0  0  0
  8  9  1  0  0  0  0
  9 10  1  0  0  0  0
 10  5  1  0  0  0  0
  9 11  1  0  0  0  0
 11 12  1  0  0  0  0
 11 13  2  0  0  0  0
 13 14  1  0  0  0  0
 14 15  2  0  0  0  0
 15 16  1  0  0  0  0
 16 12  2  0  0  0  0
  1 17  1  0  0  0  0
  3 18  1  0  0  0  0
  7 19  2  0  0  0  0
 15 20  1  0  0  0  0
  6 21  1  0  0  0  0
  2 22  1  0  0  0  0
 23 24  1  0  0  0  0
 24 25  1  0  0  0  0
 25 26  1  0  0  0  0
 26 27  1  0  0  0  0
 27 28  1  0  0  0  0
 28 23  1  0  0  0  0
 23 29  1  1  0  0  0
 25 30  1  1  0  0  0
 26 31  1  6  0  0  0
 24 32  1  6  0  0  0
 29 33  1  0  0  0  0
 27 17  1  1  0  0  0
M  END
>  <cdx:fragmentId>
5

$$$$
