1060.cdx
  Mrv1902 05222410262D          

  6  5  0  0  0  0            999 V2000
    3.6892   -3.1427    0.0000 C   0  0  0  0  0  0  0  0  0  0  0  0
    2.9748   -2.7302    0.0000 C   0  0  0  0  0  0  0  0  0  0  0  0
    2.2603   -3.1427    0.0000 C   0  0  0  0  0  0  0  0  0  0  0  0
    3.6892   -3.9677    0.0000 O   0  0  0  0  0  0  0  0  0  0  0  0
    4.4037   -2.7302    0.0000 O   0  0  0  0  0  0  0  0  0  0  0  0
    2.9748   -1.9052    0.0000 O   0  0  0  0  0  0  0  0  0  0  0  0
  1  2  1  0  0  0  0
  2  3  1  0  0  0  0
  1  4  2  0  0  0  0
  1  5  1  0  0  0  0
  2  6  2  0  0  0  0
M  END
>  <cdx:groupId>
19

>  <cdx:fragmentId>
5

$$$$
