10615.cdx
  Mrv1902 05222410262D          

 15 15  0  0  0  0            999 V2000
    5.9227   -7.9406    0.0000 C   0  0  0  0  0  0  0  0  0  0  0  0
    5.9227   -8.7656    0.0000 C   0  0  0  0  0  0  0  0  0  0  0  0
    6.6371   -9.1781    0.0000 C   0  0  0  0  0  0  0  0  0  0  0  0
    7.3516   -8.7656    0.0000 C   0  0  0  0  0  0  0  0  0  0  0  0
    7.3516   -7.9406    0.0000 C   0  0  0  0  0  0  0  0  0  0  0  0
    6.6371   -7.5281    0.0000 C   0  0  0  0  0  0  0  0  0  0  0  0
    6.6371  -10.0031    0.0000 C   0  0  0  0  0  0  0  0  0  0  0  0
    5.9227  -10.4156    0.0000 C   0  0  0  0  0  0  0  0  0  0  0  0
    5.2082  -10.0031    0.0000 C   0  0  0  0  0  0  0  0  0  0  0  0
    6.6371   -6.7031    0.0000 O   0  0  0  0  0  0  0  0  0  0  0  0
    7.3516   -6.2906    0.0000 C   0  0  0  0  0  0  0  0  0  0  0  0
    7.3516   -5.4656    0.0000 C   0  0  0  0  0  0  0  0  0  0  0  0
    8.0661   -5.0531    0.0000 C   0  0  0  0  0  0  0  0  0  0  0  0
    8.7805   -5.4656    0.0000 C   0  0  0  0  0  0  0  0  0  0  0  0
    8.0661   -4.2281    0.0000 C   0  0  0  0  0  0  0  0  0  0  0  0
  1  2  2  0  0  0  0
  2  3  1  0  0  0  0
  3  4  2  0  0  0  0
  4  5  1  0  0  0  0
  5  6  2  0  0  0  0
  6  1  1  0  0  0  0
  3  7  1  0  0  0  0
  7  8  2  0  0  0  0
  8  9  1  0  0  0  0
  6 10  1  0  0  0  0
 10 11  1  0  0  0  0
 11 12  1  0  0  0  0
 12 13  2  0  0  0  0
 13 14  1  0  0  0  0
 13 15  1  0  0  0  0
M  END
>  <cdx:fragmentId>
5

$$$$
