106262.cdx
  Mrv1902 05222410232D          

 18 17  0  0  0  0            999 V2000
   10.9136   -6.2612    0.0000 C   0  0  0  0  0  0  0  0  0  0  0  0
   10.1991   -6.6737    0.0000 C   0  0  0  0  0  0  0  0  0  0  0  0
    9.4847   -6.2612    0.0000 C   0  0  0  0  0  0  0  0  0  0  0  0
    8.7702   -6.6737    0.0000 C   0  0  0  0  0  0  0  0  0  0  0  0
    8.0557   -6.2612    0.0000 C   0  0  0  0  0  0  0  0  0  0  0  0
   10.9136   -5.4362    0.0000 O   0  0  0  0  0  0  0  0  0  0  0  0
   11.6281   -6.6737    0.0000 O   0  0  0  0  0  0  0  0  0  0  0  0
    7.3412   -6.6737    0.0000 C   0  0  0  0  0  0  0  0  0  0  0  0
    7.3412   -7.4987    0.0000 C   0  0  0  0  0  0  0  0  0  0  0  0
    6.6268   -7.9112    0.0000 C   0  0  0  0  0  0  0  0  0  0  0  0
    6.6268   -8.7362    0.0000 C   0  0  0  0  0  0  0  0  0  0  0  0
    5.9123   -9.1487    0.0000 C   0  0  0  0  0  0  0  0  0  0  0  0
    5.1978   -8.7362    0.0000 C   0  0  0  0  0  0  0  0  0  0  0  0
    4.4834   -9.1487    0.0000 C   0  0  0  0  0  0  0  0  0  0  0  0
    3.7689   -8.7362    0.0000 C   0  0  0  0  0  0  0  0  0  0  0  0
    3.0544   -9.1487    0.0000 C   0  0  0  0  0  0  0  0  0  0  0  0
    2.3400   -8.7362    0.0000 C   0  0  0  0  0  0  0  0  0  0  0  0
    3.0544   -9.9737    0.0000 C   0  0  0  0  0  0  0  0  0  0  0  0
  1  2  1  0  0  0  0
  2  3  1  0  0  0  0
  3  4  1  0  0  0  0
  4  5  1  0  0  0  0
  1  6  2  0  0  0  0
  1  7  1  0  0  0  0
  5  8  2  0  0  0  0
  8  9  1  0  0  0  0
  9 10  1  0  0  0  0
 10 11  1  0  0  0  0
 11 12  2  0  0  0  0
 12 13  1  0  0  0  0
 13 14  1  0  0  0  0
 14 15  1  0  0  0  0
 15 16  1  0  0  0  0
 16 17  1  0  0  0  0
 16 18  1  0  0  0  0
M  END
>  <cdx:groupId>
41588

>  <cdx:fragmentId>
41592

$$$$
