10624.cdx
  Mrv1902 05222410202D          

 20 22  0  0  0  0            999 V2000
   10.7492   -5.1222    0.0000 C   0  0  0  0  0  0  0  0  0  0  0  0
   10.0397   -5.5432    0.0000 O   0  0  0  0  0  0  0  0  0  0  0  0
    6.4627   -5.1733    0.0000 O   0  0  0  0  0  0  0  0  0  0  0  0
    3.5755   -2.7325    0.0000 O   0  0  0  0  0  0  0  0  0  0  0  0
    8.6109   -5.5602    0.0000 C   0  0  0  0  0  0  0  0  0  0  0  0
    9.3204   -5.1392    0.0000 C   0  0  0  0  0  0  0  0  0  0  0  0
    9.3106   -4.3143    0.0000 C   0  0  0  0  0  0  0  0  0  0  0  0
    8.5912   -3.9103    0.0000 C   0  0  0  0  0  0  0  0  0  0  0  0
    7.8916   -5.1562    0.0000 C   0  0  0  0  0  0  0  0  0  0  0  0
    7.8817   -4.3313    0.0000 C   0  0  0  0  0  0  0  0  0  0  0  0
    6.4529   -4.3483    0.0000 C   0  0  0  0  0  0  0  0  0  0  0  0
    7.1624   -3.9273    0.0000 C   0  0  0  0  0  0  0  0  0  0  0  0
    7.1526   -3.1024    0.0000 C   0  0  0  0  0  0  0  0  0  0  0  0
    6.4332   -2.6985    0.0000 O   0  0  0  0  0  0  0  0  0  0  0  0
    5.0241   -4.3654    0.0000 C   0  0  0  0  0  0  0  0  0  0  0  0
    5.7336   -3.9444    0.0000 C   0  0  0  0  0  0  0  0  0  0  0  0
    5.7237   -3.1194    0.0000 C   0  0  0  0  0  0  0  0  0  0  0  0
    5.0044   -2.7155    0.0000 C   0  0  0  0  0  0  0  0  0  0  0  0
    4.2949   -3.1365    0.0000 C   0  0  0  0  0  0  0  0  0  0  0  0
    4.3047   -3.9614    0.0000 C   0  0  0  0  0  0  0  0  0  0  0  0
  2  1  1  0  0  0  0
  6  2  1  0  0  0  0
 11  3  2  0  0  0  0
 19  4  1  0  0  0  0
  5  9  1  0  0  0  0
  6  5  2  0  0  0  0
  7  6  1  0  0  0  0
  8  7  2  0  0  0  0
 10  8  1  0  0  0  0
 10  9  2  0  0  0  0
 12 10  1  0  0  0  0
 11 16  1  0  0  0  0
 12 11  1  0  0  0  0
 13 12  2  0  0  0  0
 14 13  1  0  0  0  0
 17 14  1  0  0  0  0
 15 20  2  0  0  0  0
 16 15  1  0  0  0  0
 17 16  2  0  0  0  0
 18 17  1  0  0  0  0
 19 18  2  0  0  0  0
 20 19  1  0  0  0  0
M  END
>  <cdx:fragmentId>
5

$$$$
