102106320.cdx
  Mrv1902 05222410212D          

 48 53  0  0  0  0            999 V2000
    5.2950  -12.8860    0.0000 C   0  0  0  0  0  0  0  0  0  0  0  0
    4.6204  -12.4111    0.0000 C   0  0  0  0  0  0  0  0  0  0  0  0
    5.2210  -13.7077    0.0000 O   0  0  0  0  0  0  0  0  0  0  0  0
    6.0436  -12.5392    0.0000 O   0  0  0  0  0  0  0  0  0  0  0  0
    6.1175  -11.7175    0.0000 C   0  0  0  0  0  0  0  0  0  0  0  0
    6.8661  -11.3707    0.0000 C   0  0  0  0  0  0  0  0  0  0  0  0
    6.9400  -10.5490    0.0000 C   0  0  0  0  0  0  0  0  0  0  0  0
    7.6886  -10.2022    0.0000 C   0  0  2  0  0  0  0  0  0  0  0  0
    8.3632  -10.6771    0.0000 C   0  0  0  0  0  0  0  0  0  0  0  0
    8.1536   -6.9489    0.0000 O   0  0  0  0  0  0  0  0  0  0  0  0
    8.9785   -6.9365    0.0000 C   0  0  0  0  0  0  0  0  0  0  0  0
    9.2452   -7.7172    0.0000 C   0  0  2  0  0  0  0  0  0  0  0  0
    8.5851   -8.2121    0.0000 C   0  0  1  0  0  0  0  0  0  0  0  0
    8.5111   -9.0338    0.0000 C   0  0  1  0  0  0  0  0  0  0  0  0
    7.7626   -9.3806    0.0000 C   0  0  0  0  0  0  0  0  0  0  0  0
    7.0879   -8.9057    0.0000 C   0  0  0  0  0  0  0  0  0  0  0  0
    7.1619   -8.0840    0.0000 C   0  0  0  0  0  0  0  0  0  0  0  0
    7.9105   -7.7372    0.0000 C   0  0  1  0  0  0  0  0  0  0  0  0
   10.6383   -7.3993    0.0000 C   0  0  2  0  0  0  0  0  0  0  0  0
   11.1527   -6.7543    0.0000 C   0  0  2  0  0  0  0  0  0  0  0  0
   11.9777   -6.7543    0.0000 C   0  0  0  0  0  0  0  0  0  0  0  0
   12.4921   -7.3993    0.0000 C   0  0  2  0  0  0  0  0  0  0  0  0
   13.3137   -7.3253    0.0000 O   0  0  0  0  0  0  0  0  0  0  0  0
   13.6380   -8.0839    0.0000 C   0  0  0  0  0  0  0  0  0  0  0  0
   13.0167   -8.6267    0.0000 C   0  0  0  0  0  0  0  0  0  0  0  0
   12.3085   -8.2036    0.0000 C   0  0  1  0  0  0  0  0  0  0  0  0
   11.5652   -8.5615    0.0000 C   0  0  0  0  0  0  0  0  0  0  0  0
   10.8219   -8.2036    0.0000 C   0  0  0  0  0  0  0  0  0  0  0  0
   10.2171   -8.7647    0.0000 C   0  0  0  0  0  0  0  0  0  0  0  0
    9.4288   -8.5216    0.0000 C   0  0  1  0  0  0  0  0  0  0  0  0
    9.8500   -7.1561    0.0000 C   0  0  0  0  0  0  0  0  0  0  0  0
    9.8050   -7.7147    0.0000 C   0  0  0  0  0  0  0  0  0  0  0  0
   14.4423   -8.2675    0.0000 O   0  0  0  0  0  0  0  0  0  0  0  0
    9.4534   -6.2619    0.0000 O   0  0  0  0  0  0  0  0  0  0  0  0
   13.0907   -9.4484    0.0000 C   0  0  0  0  0  0  0  0  0  0  0  0
   10.4007   -9.5690    0.0000 C   0  0  0  0  0  0  0  0  0  0  0  0
    6.3394   -9.2525    0.0000 C   0  0  0  0  0  0  0  0  0  0  0  0
   11.1527   -5.9293    0.0000 C   0  0  0  0  0  0  0  0  0  0  0  0
    8.9826   -9.7107    0.0000 O   0  0  0  0  0  0  0  0  0  0  0  0
    9.4844   -6.9545    0.0000 O   0  0  0  0  0  0  0  0  0  0  0  0
    9.9824   -6.2968    0.0000 C   0  0  0  0  0  0  0  0  0  0  0  0
   10.7967   -6.4296    0.0000 O   0  0  0  0  0  0  0  0  0  0  0  0
    9.6904   -5.5252    0.0000 C   0  0  0  0  0  0  0  0  0  0  0  0
    7.8365   -8.5589    0.0000 H   0  0  0  0  0  0  0  0  0  0  0  0
   12.8163   -6.6407    0.0000 H   0  0  0  0  0  0  0  0  0  0  0  0
    7.2892   -7.1944    0.0000 H   0  0  0  0  0  0  0  0  0  0  0  0
   12.3085   -9.0286    0.0000 H   0  0  0  0  0  0  0  0  0  0  0  0
    9.1856   -9.3099    0.0000 H   0  0  0  0  0  0  0  0  0  0  0  0
  1  2  1  0  0  0  0
  1  3  2  0  0  0  0
  1  4  1  0  0  0  0
  5  6  1  0  0  0  0
  6  7  1  0  0  0  0
  7  8  1  0  0  0  0
  8  9  1  1  0  0  0
 10 11  1  0  0  0  0
 12 11  1  1  0  0  0
 12 13  1  0  0  0  0
 13 14  1  0  0  0  0
 14 15  1  0  0  0  0
 15 16  2  0  0  0  0
 16 17  1  0  0  0  0
 17 18  1  0  0  0  0
 13 18  1  0  0  0  0
 10 18  1  0  0  0  0
 19 20  1  0  0  0  0
 20 21  1  0  0  0  0
 21 22  1  0  0  0  0
 22 23  1  0  0  0  0
 23 24  1  0  0  0  0
 24 25  1  0  0  0  0
 25 26  1  0  0  0  0
 26 27  1  0  0  0  0
 27 28  1  0  0  0  0
 28 29  2  0  0  0  0
 30 29  1  6  0  0  0
 19 31  1  6  0  0  0
 19 32  1  0  0  0  0
 32 30  1  0  0  0  0
 19 28  1  0  0  0  0
 22 26  1  0  0  0  0
 30 12  1  0  0  0  0
 31 12  1  0  0  0  0
 24 33  2  0  0  0  0
 11 34  2  0  0  0  0
 25 35  2  0  0  0  0
 29 36  1  0  0  0  0
 16 37  1  0  0  0  0
 20 38  1  1  0  0  0
 14 39  1  6  0  0  0
 41 42  2  0  0  0  0
 41 43  1  0  0  0  0
 40 41  1  0  0  0  0
 32 40  1  0  0  0  0
  8 15  1  0  0  0  0
  4  5  1  0  0  0  0
 13 44  1  6  0  0  0
 22 45  1  1  0  0  0
 18 46  1  6  0  0  0
 26 47  1  6  0  0  0
 30 48  1  0  0  0  0
M  END
>  <cdx:groupId>
12546

>  <cdx:fragmentId>
12436

$$$$
