1063.cdx
  Mrv1902 05222410272D          

 25 27  0  0  0  0            999 V2000
    4.3208   -5.7819    0.0000 C   0  0  0  0  0  0  0  0  0  0  0  0
    4.3208   -6.6069    0.0000 C   0  0  0  0  0  0  0  0  0  0  0  0
    5.0352   -7.0194    0.0000 C   0  0  0  0  0  0  0  0  0  0  0  0
    5.7497   -6.6069    0.0000 C   0  0  0  0  0  0  0  0  0  0  0  0
    5.7497   -5.7819    0.0000 C   0  0  0  0  0  0  0  0  0  0  0  0
    5.0352   -5.3694    0.0000 C   0  0  0  0  0  0  0  0  0  0  0  0
    6.4642   -7.0194    0.0000 C   0  0  0  0  0  0  0  0  0  0  0  0
    7.1787   -6.6069    0.0000 C   0  0  1  0  0  0  0  0  0  0  0  0
    7.1787   -5.7819    0.0000 C   0  0  0  0  0  0  0  0  0  0  0  0
    6.4642   -5.3694    0.0000 O   0  0  0  0  0  0  0  0  0  0  0  0
    7.8931   -7.0194    0.0000 C   0  0  0  0  0  0  0  0  0  0  0  0
    8.6076   -6.6069    0.0000 C   0  0  0  0  0  0  0  0  0  0  0  0
    8.6076   -5.7819    0.0000 C   0  0  0  0  0  0  0  0  0  0  0  0
    9.3221   -7.0194    0.0000 C   0  0  0  0  0  0  0  0  0  0  0  0
   10.0365   -6.6069    0.0000 C   0  0  0  0  0  0  0  0  0  0  0  0
   10.0365   -5.7819    0.0000 C   0  0  0  0  0  0  0  0  0  0  0  0
    9.3221   -5.3694    0.0000 C   0  0  0  0  0  0  0  0  0  0  0  0
    3.6063   -5.3694    0.0000 O   0  0  0  0  0  0  0  0  0  0  0  0
    3.6063   -7.0194    0.0000 C   0  0  0  0  0  0  0  0  0  0  0  0
    5.0352   -7.8444    0.0000 O   0  0  0  0  0  0  0  0  0  0  0  0
    6.4642   -7.8444    0.0000 O   0  0  0  0  0  0  0  0  0  0  0  0
    9.3221   -7.8444    0.0000 O   0  0  0  0  0  0  0  0  0  0  0  0
   10.7510   -5.3694    0.0000 O   0  0  0  0  0  0  0  0  0  0  0  0
    7.8931   -6.1944    0.0000 H   0  0  0  0  0  0  0  0  0  0  0  0
    2.8918   -5.7819    0.0000 C   0  0  0  0  0  0  0  0  0  0  0  0
  1  2  2  0  0  0  0
  2  3  1  0  0  0  0
  3  4  2  0  0  0  0
  4  5  1  0  0  0  0
  5  6  2  0  0  0  0
  6  1  1  0  0  0  0
  4  7  1  0  0  0  0
  7  8  1  0  0  0  0
  8  9  1  0  0  0  0
  9 10  1  0  0  0  0
 10  5  1  0  0  0  0
  8 11  1  0  0  0  0
 11 12  1  0  0  0  0
 12 13  1  0  0  0  0
 12 14  2  0  0  0  0
 14 15  1  0  0  0  0
 15 16  2  0  0  0  0
 16 17  1  0  0  0  0
 17 13  2  0  0  0  0
  1 18  1  0  0  0  0
  2 19  1  0  0  0  0
  3 20  1  0  0  0  0
  7 21  2  0  0  0  0
 14 22  1  0  0  0  0
 16 23  1  0  0  0  0
  8 24  1  6  0  0  0
 18 25  1  0  0  0  0
M  END
>  <cdx:fragmentId>
5

$$$$
