ferulic hexadecyl ester.cdx
  Mrv1902 05222410182D          

 28 28  0  0  0  0            999 V2000
    4.0045  -13.0763    0.0000 C   0  0  0  0  0  0  0  0  0  0  0  0
    4.0045  -13.9013    0.0000 C   0  0  0  0  0  0  0  0  0  0  0  0
    4.7190  -14.3138    0.0000 C   0  0  0  0  0  0  0  0  0  0  0  0
    5.4335  -13.9013    0.0000 C   0  0  0  0  0  0  0  0  0  0  0  0
    5.4335  -13.0763    0.0000 C   0  0  0  0  0  0  0  0  0  0  0  0
    4.7190  -12.6637    0.0000 C   0  0  0  0  0  0  0  0  0  0  0  0
    3.2901  -14.3138    0.0000 O   0  0  0  0  0  0  0  0  0  0  0  0
    2.5756  -13.9013    0.0000 C   0  0  0  0  0  0  0  0  0  0  0  0
    4.7190  -15.1387    0.0000 O   0  0  0  0  0  0  0  0  0  0  0  0
    4.7190  -11.8387    0.0000 C   0  0  0  0  0  0  0  0  0  0  0  0
    5.4335  -11.4262    0.0000 C   0  0  0  0  0  0  0  0  0  0  0  0
    5.4335  -10.6013    0.0000 C   0  0  0  0  0  0  0  0  0  0  0  0
    4.7190  -10.1888    0.0000 O   0  0  0  0  0  0  0  0  0  0  0  0
    6.1479  -10.1888    0.0000 O   0  0  0  0  0  0  0  0  0  0  0  0
    6.1479   -9.3637    0.0000 C   0  0  0  0  0  0  0  0  0  0  0  0
    6.8624   -8.9513    0.0000 C   0  0  0  0  0  0  0  0  0  0  0  0
    6.8624   -8.1263    0.0000 C   0  0  0  0  0  0  0  0  0  0  0  0
    7.5769   -7.7138    0.0000 C   0  0  0  0  0  0  0  0  0  0  0  0
    7.5769   -6.8888    0.0000 C   0  0  0  0  0  0  0  0  0  0  0  0
    8.2914   -6.4763    0.0000 C   0  0  0  0  0  0  0  0  0  0  0  0
    8.2914   -5.6512    0.0000 C   0  0  0  0  0  0  0  0  0  0  0  0
    9.0058   -5.2387    0.0000 C   0  0  0  0  0  0  0  0  0  0  0  0
    9.0058   -4.4138    0.0000 C   0  0  0  0  0  0  0  0  0  0  0  0
    9.7203   -4.0012    0.0000 C   0  0  0  0  0  0  0  0  0  0  0  0
    9.7203   -3.1763    0.0000 C   0  0  0  0  0  0  0  0  0  0  0  0
   10.4348   -2.7637    0.0000 C   0  0  0  0  0  0  0  0  0  0  0  0
   10.4348   -1.9388    0.0000 C   0  0  0  0  0  0  0  0  0  0  0  0
   11.1492   -1.5263    0.0000 C   0  0  0  0  0  0  0  0  0  0  0  0
  1  2  2  0  0  0  0
  2  3  1  0  0  0  0
  3  4  2  0  0  0  0
  4  5  1  0  0  0  0
  5  6  2  0  0  0  0
  6  1  1  0  0  0  0
  2  7  1  0  0  0  0
  7  8  1  0  0  0  0
  3  9  1  0  0  0  0
  6 10  1  0  0  0  0
 10 11  2  0  0  0  0
 11 12  1  0  0  0  0
 12 13  2  0  0  0  0
 12 14  1  0  0  0  0
 14 15  1  0  0  0  0
 15 16  1  0  0  0  0
 16 17  1  0  0  0  0
 17 18  1  0  0  0  0
 18 19  1  0  0  0  0
 19 20  1  0  0  0  0
 20 21  1  0  0  0  0
 21 22  1  0  0  0  0
 22 23  1  0  0  0  0
 23 24  1  0  0  0  0
 24 25  1  0  0  0  0
 25 26  1  0  0  0  0
 26 27  1  0  0  0  0
 27 28  1  0  0  0  0
M  END
>  <cdx:fragmentId>
5

$$$$
