102106317.cdx
  Mrv1902 05222410232D          

 44 50  0  0  0  0            999 V2000
    9.6092   -7.8614    0.0000 C   0  0  0  0  0  0  0  0  0  0  0  0
    9.3172   -7.0899    0.0000 C   0  0  0  0  0  0  0  0  0  0  0  0
   10.4234   -7.9943    0.0000 O   0  0  0  0  0  0  0  0  0  0  0  0
    9.1112   -8.5191    0.0000 O   0  0  0  0  0  0  0  0  0  0  0  0
    7.7804   -8.5135    0.0000 O   0  0  0  0  0  0  0  0  0  0  0  0
    8.6053   -8.5012    0.0000 C   0  0  0  0  0  0  0  0  0  0  0  0
    8.8720   -9.2819    0.0000 C   0  0  1  0  0  0  0  0  0  0  0  0
    8.2119   -9.7767    0.0000 C   0  0  1  0  0  0  0  0  0  0  0  0
    8.1379  -10.5984    0.0000 C   0  0  0  0  0  0  0  0  0  0  0  0
    7.3893  -10.9452    0.0000 C   0  0  0  0  0  0  0  0  0  0  0  0
    6.7147  -10.4703    0.0000 C   0  0  1  0  0  0  0  0  0  0  0  0
    6.7887   -9.6486    0.0000 C   0  0  0  0  0  0  0  0  0  0  0  0
    7.5372   -9.3019    0.0000 C   0  0  1  0  0  0  0  0  0  0  0  0
    5.9661  -10.8171    0.0000 C   0  0  1  0  0  0  0  0  0  0  0  0
    5.8922  -11.6388    0.0000 C   0  0  0  0  0  0  0  0  0  0  0  0
    6.5668  -12.1137    0.0000 C   0  0  0  0  0  0  0  0  0  0  0  0
    7.3154  -11.7669    0.0000 C   0  0  0  0  0  0  0  0  0  0  0  0
   10.2651   -8.9639    0.0000 C   0  0  2  0  0  0  0  0  0  0  0  0
   10.7795   -8.3189    0.0000 C   0  0  2  0  0  0  0  0  0  0  0  0
   11.6045   -8.3189    0.0000 C   0  0  0  0  0  0  0  0  0  0  0  0
   12.1188   -8.9639    0.0000 C   0  0  2  0  0  0  0  0  0  0  0  0
   12.9405   -8.8900    0.0000 O   0  0  0  0  0  0  0  0  0  0  0  0
   13.2648   -9.6486    0.0000 C   0  0  0  0  0  0  0  0  0  0  0  0
   12.6435  -10.1914    0.0000 C   0  0  0  0  0  0  0  0  0  0  0  0
   11.9353   -9.7682    0.0000 C   0  0  1  0  0  0  0  0  0  0  0  0
   11.1920  -10.1262    0.0000 C   0  0  0  0  0  0  0  0  0  0  0  0
   10.4487   -9.7682    0.0000 C   0  0  0  0  0  0  0  0  0  0  0  0
    9.8439  -10.3294    0.0000 C   0  0  0  0  0  0  0  0  0  0  0  0
    9.0555  -10.0862    0.0000 C   0  0  1  0  0  0  0  0  0  0  0  0
    9.4767   -8.7207    0.0000 C   0  0  0  0  0  0  0  0  0  0  0  0
    9.4318   -9.2793    0.0000 C   0  0  0  0  0  0  0  0  0  0  0  0
   14.0691   -9.8322    0.0000 O   0  0  0  0  0  0  0  0  0  0  0  0
    9.0802   -7.8265    0.0000 O   0  0  0  0  0  0  0  0  0  0  0  0
   12.7174  -11.0131    0.0000 C   0  0  0  0  0  0  0  0  0  0  0  0
   10.0275  -11.1337    0.0000 C   0  0  0  0  0  0  0  0  0  0  0  0
    6.0401   -9.9954    0.0000 C   0  0  0  0  0  0  0  0  0  0  0  0
    7.9900  -12.2418    0.0000 C   0  0  0  0  0  0  0  0  0  0  0  0
   10.7795   -7.4939    0.0000 C   0  0  0  0  0  0  0  0  0  0  0  0
    5.2915  -10.3422    0.0000 O   0  0  0  0  0  0  0  0  0  0  0  0
    7.4633  -10.1235    0.0000 H   0  0  0  0  0  0  0  0  0  0  0  0
   12.4431   -8.2053    0.0000 H   0  0  0  0  0  0  0  0  0  0  0  0
   11.9353  -10.5932    0.0000 H   0  0  0  0  0  0  0  0  0  0  0  0
    6.9159   -8.7591    0.0000 H   0  0  0  0  0  0  0  0  0  0  0  0
    8.5574  -10.7438    0.0000 H   0  0  0  0  0  0  0  0  0  0  0  0
  1  2  1  0  0  0  0
  1  3  2  0  0  0  0
  1  4  1  0  0  0  0
  5  6  1  0  0  0  0
  7  6  1  6  0  0  0
  7  8  1  0  0  0  0
  8  9  1  0  0  0  0
  9 10  2  0  0  0  0
 10 11  1  0  0  0  0
 11 12  1  0  0  0  0
 12 13  1  0  0  0  0
  8 13  1  0  0  0  0
  5 13  1  0  0  0  0
 14 15  1  0  0  0  0
 15 16  1  0  0  0  0
 16 17  1  0  0  0  0
 17 10  1  0  0  0  0
 14 11  1  0  0  0  0
 18 19  1  0  0  0  0
 19 20  1  0  0  0  0
 20 21  1  0  0  0  0
 21 22  1  0  0  0  0
 22 23  1  0  0  0  0
 23 24  1  0  0  0  0
 24 25  1  0  0  0  0
 25 26  1  0  0  0  0
 26 27  1  0  0  0  0
 27 28  2  0  0  0  0
 28 29  1  0  0  0  0
 18 30  1  6  0  0  0
 18 31  1  0  0  0  0
 31 29  1  0  0  0  0
 18 27  1  0  0  0  0
 21 25  1  0  0  0  0
 29  7  1  0  0  0  0
 30  7  1  0  0  0  0
 23 32  2  0  0  0  0
  6 33  2  0  0  0  0
 24 34  2  0  0  0  0
 28 35  1  0  0  0  0
 11 36  1  1  0  0  0
 17 37  1  0  0  0  0
 19 38  1  1  0  0  0
 14 39  1  1  0  0  0
  4 31  1  0  0  0  0
  8 40  1  6  0  0  0
 21 41  1  1  0  0  0
 25 42  1  6  0  0  0
 13 43  1  6  0  0  0
 29 44  1  1  0  0  0
M  END
>  <cdx:groupId>
12226

>  <cdx:fragmentId>
12125

$$$$
