102106319.cdx
  Mrv1902 05222410222D          

 44 49  0  0  0  0            999 V2000
    7.0823  -12.2435    0.0000 C   0  0  0  0  0  0  0  0  0  0  0  0
    6.7903  -11.4719    0.0000 C   0  0  0  0  0  0  0  0  0  0  0  0
    7.8965  -12.3764    0.0000 O   0  0  0  0  0  0  0  0  0  0  0  0
    6.5843  -12.9012    0.0000 O   0  0  0  0  0  0  0  0  0  0  0  0
    7.7382  -13.3460    0.0000 C   0  0  2  0  0  0  0  0  0  0  0  0
    8.2526  -12.7010    0.0000 C   0  0  2  0  0  0  0  0  0  0  0  0
    9.0776  -12.7010    0.0000 C   0  0  0  0  0  0  0  0  0  0  0  0
    9.5919  -13.3460    0.0000 C   0  0  2  0  0  0  0  0  0  0  0  0
   10.4136  -13.2721    0.0000 O   0  0  0  0  0  0  0  0  0  0  0  0
   10.7379  -14.0307    0.0000 C   0  0  0  0  0  0  0  0  0  0  0  0
   10.1166  -14.5735    0.0000 C   0  0  0  0  0  0  0  0  0  0  0  0
    9.4084  -14.1503    0.0000 C   0  0  1  0  0  0  0  0  0  0  0  0
    8.6651  -14.5083    0.0000 C   0  0  0  0  0  0  0  0  0  0  0  0
    7.9218  -14.1503    0.0000 C   0  0  0  0  0  0  0  0  0  0  0  0
    7.3170  -14.7115    0.0000 C   0  0  0  0  0  0  0  0  0  0  0  0
    6.5286  -14.4683    0.0000 C   0  0  2  0  0  0  0  0  0  0  0  0
    6.3451  -13.6640    0.0000 C   0  0  2  0  0  0  0  0  0  0  0  0
    6.9498  -13.1028    0.0000 C   0  0  0  0  0  0  0  0  0  0  0  0
    6.9049  -13.6614    0.0000 C   0  0  0  0  0  0  0  0  0  0  0  0
    5.2535  -12.8956    0.0000 O   0  0  0  0  0  0  0  0  0  0  0  0
    6.0784  -12.8833    0.0000 C   0  0  0  0  0  0  0  0  0  0  0  0
    5.6849  -14.1588    0.0000 C   0  0  0  0  0  0  0  0  0  0  0  0
    5.6110  -14.9805    0.0000 C   0  0  0  0  0  0  0  0  0  0  0  0
    4.8624  -15.3273    0.0000 C   0  0  0  0  0  0  0  0  0  0  0  0
    4.1878  -14.8524    0.0000 C   0  0  0  0  0  0  0  0  0  0  0  0
    4.2618  -14.0307    0.0000 C   0  0  0  0  0  0  0  0  0  0  0  0
    5.0103  -13.6839    0.0000 C   0  0  1  0  0  0  0  0  0  0  0  0
   11.5422  -14.2142    0.0000 O   0  0  0  0  0  0  0  0  0  0  0  0
    6.5533  -12.2086    0.0000 O   0  0  0  0  0  0  0  0  0  0  0  0
   10.1905  -15.3951    0.0000 C   0  0  0  0  0  0  0  0  0  0  0  0
    7.5006  -15.5158    0.0000 C   0  0  0  0  0  0  0  0  0  0  0  0
    3.3661  -14.7785    0.0000 C   0  0  0  0  0  0  0  0  0  0  0  0
    8.2526  -11.8760    0.0000 C   0  0  0  0  0  0  0  0  0  0  0  0
    5.4631  -16.6239    0.0000 C   0  0  0  0  0  0  0  0  0  0  0  0
    4.7885  -16.1490    0.0000 C   0  0  0  0  0  0  0  0  0  0  0  0
    4.0399  -16.4958    0.0000 C   0  0  0  0  0  0  0  0  0  0  0  0
    3.9659  -17.3175    0.0000 C   0  0  0  0  0  0  0  0  0  0  0  0
    3.2174  -17.6642    0.0000 C   0  0  0  0  0  0  0  0  0  0  0  0
    3.1434  -18.4859    0.0000 O   0  0  0  0  0  0  0  0  0  0  0  0
    3.7129  -15.5270    0.0000 O   0  0  0  0  0  0  0  0  0  0  0  0
    9.9162  -12.5874    0.0000 H   0  0  0  0  0  0  0  0  0  0  0  0
    4.3890  -13.1411    0.0000 H   0  0  0  0  0  0  0  0  0  0  0  0
    9.4084  -14.9753    0.0000 H   0  0  0  0  0  0  0  0  0  0  0  0
    6.0751  -14.8891    0.0000 H   0  0  0  0  0  0  0  0  0  0  0  0
  1  2  1  0  0  0  0
  1  3  2  0  0  0  0
  1  4  1  0  0  0  0
  5  6  1  0  0  0  0
  6  7  1  0  0  0  0
  7  8  1  0  0  0  0
  8  9  1  0  0  0  0
  9 10  1  0  0  0  0
 10 11  1  0  0  0  0
 11 12  1  0  0  0  0
 12 13  1  0  0  0  0
 13 14  1  0  0  0  0
 14 15  2  0  0  0  0
 15 16  1  0  0  0  0
 16 17  1  0  0  0  0
 17 18  1  0  0  0  0
  5 18  1  6  0  0  0
  5 19  1  0  0  0  0
 19 16  1  0  0  0  0
  5 14  1  0  0  0  0
  8 12  1  0  0  0  0
 20 21  1  0  0  0  0
 22 23  1  0  0  0  0
 23 24  2  0  0  0  0
 24 25  1  0  0  0  0
 25 26  1  0  0  0  0
 26 27  1  0  0  0  0
 22 27  1  0  0  0  0
 20 27  1  0  0  0  0
 17 21  1  1  0  0  0
 17 22  1  6  0  0  0
 10 28  2  0  0  0  0
 21 29  2  0  0  0  0
 11 30  2  0  0  0  0
 15 31  1  0  0  0  0
 25 32  1  0  0  0  0
  6 33  1  1  0  0  0
 34 35  1  0  0  0  0
 35 36  1  0  0  0  0
 36 37  1  0  0  0  0
 37 38  1  0  0  0  0
 38 39  1  0  0  0  0
 24 35  1  0  0  0  0
 25 40  1  0  0  0  0
  4 19  1  0  0  0  0
  8 41  1  1  0  0  0
 27 42  1  6  0  0  0
 12 43  1  6  0  0  0
 16 44  1  1  0  0  0
M  END
>  <cdx:groupId>
18799

>  <cdx:fragmentId>
18673

$$$$
