102106318.cdx
  Mrv1902 05222410222D          

 41 47  0  0  0  0            999 V2000
    5.4464  -13.6419    0.0000 O   0  0  0  0  0  0  0  0  0  0  0  0
    6.2713  -13.6296    0.0000 C   0  0  0  0  0  0  0  0  0  0  0  0
    6.5380  -14.4103    0.0000 C   0  0  1  0  0  0  0  0  0  0  0  0
    5.8779  -14.9052    0.0000 C   0  0  1  0  0  0  0  0  0  0  0  0
    5.8039  -15.7268    0.0000 C   0  0  0  0  0  0  0  0  0  0  0  0
    5.0553  -16.0736    0.0000 C   0  0  0  0  0  0  0  0  0  0  0  0
    4.3807  -15.5987    0.0000 C   0  0  1  0  0  0  0  0  0  0  0  0
    4.4547  -14.7771    0.0000 C   0  0  0  0  0  0  0  0  0  0  0  0
    5.2032  -14.4303    0.0000 C   0  0  1  0  0  0  0  0  0  0  0  0
    3.6322  -15.9455    0.0000 C   0  0  1  0  0  0  0  0  0  0  0  0
    3.5582  -16.7672    0.0000 C   0  0  0  0  0  0  0  0  0  0  0  0
    4.2328  -17.2421    0.0000 C   0  0  0  0  0  0  0  0  0  0  0  0
    4.9814  -16.8953    0.0000 C   0  0  0  0  0  0  0  0  0  0  0  0
    7.9311  -14.0923    0.0000 C   0  0  2  0  0  0  0  0  0  0  0  0
    8.4455  -13.4473    0.0000 C   0  0  2  0  0  0  0  0  0  0  0  0
    9.2705  -13.4473    0.0000 C   0  0  0  0  0  0  0  0  0  0  0  0
    9.7848  -14.0923    0.0000 C   0  0  2  0  0  0  0  0  0  0  0  0
   10.6065  -14.0184    0.0000 O   0  0  0  0  0  0  0  0  0  0  0  0
   10.9308  -14.7770    0.0000 C   0  0  0  0  0  0  0  0  0  0  0  0
   10.3095  -15.3198    0.0000 C   0  0  0  0  0  0  0  0  0  0  0  0
    9.6013  -14.8966    0.0000 C   0  0  1  0  0  0  0  0  0  0  0  0
    8.8580  -15.2546    0.0000 C   0  0  0  0  0  0  0  0  0  0  0  0
    8.1147  -14.8966    0.0000 C   0  0  0  0  0  0  0  0  0  0  0  0
    7.5099  -15.4578    0.0000 C   0  0  0  0  0  0  0  0  0  0  0  0
    6.7216  -15.2146    0.0000 C   0  0  1  0  0  0  0  0  0  0  0  0
    7.1427  -13.8492    0.0000 C   0  0  0  0  0  0  0  0  0  0  0  0
    7.0983  -14.4072    0.0000 C   0  0  0  0  0  0  0  0  0  0  0  0
    6.7361  -12.9479    0.0000 O   0  0  0  0  0  0  0  0  0  0  0  0
   11.7351  -14.9606    0.0000 O   0  0  0  0  0  0  0  0  0  0  0  0
   10.3834  -16.1415    0.0000 C   0  0  0  0  0  0  0  0  0  0  0  0
    7.6935  -16.2621    0.0000 C   0  0  0  0  0  0  0  0  0  0  0  0
    3.6991  -15.1340    0.0000 C   0  0  0  0  0  0  0  0  0  0  0  0
    5.6630  -17.3600    0.0000 C   0  0  0  0  0  0  0  0  0  0  0  0
    8.0330  -12.7328    0.0000 C   0  0  0  0  0  0  0  0  0  0  0  0
    6.7780  -13.6469    0.0000 O   0  0  0  0  0  0  0  0  0  0  0  0
    2.9505  -15.4808    0.0000 O   0  0  0  0  0  0  0  0  0  0  0  0
    5.1293  -15.2519    0.0000 H   0  0  0  0  0  0  0  0  0  0  0  0
   10.1091  -13.3337    0.0000 H   0  0  0  0  0  0  0  0  0  0  0  0
    9.6013  -15.7216    0.0000 H   0  0  0  0  0  0  0  0  0  0  0  0
    4.5820  -13.8875    0.0000 H   0  0  0  0  0  0  0  0  0  0  0  0
    6.2234  -15.8722    0.0000 H   0  0  0  0  0  0  0  0  0  0  0  0
  1  2  1  0  0  0  0
  3  2  1  6  0  0  0
  3  4  1  0  0  0  0
  4  5  1  0  0  0  0
  5  6  2  0  0  0  0
  6  7  1  0  0  0  0
  7  8  1  0  0  0  0
  8  9  1  0  0  0  0
  4  9  1  0  0  0  0
  1  9  1  0  0  0  0
 10 11  1  0  0  0  0
 11 12  1  0  0  0  0
 12 13  1  0  0  0  0
 13  6  1  0  0  0  0
 10  7  1  0  0  0  0
 14 15  1  0  0  0  0
 15 16  1  0  0  0  0
 16 17  1  0  0  0  0
 17 18  1  0  0  0  0
 18 19  1  0  0  0  0
 19 20  1  0  0  0  0
 20 21  1  0  0  0  0
 21 22  1  0  0  0  0
 22 23  1  0  0  0  0
 23 24  2  0  0  0  0
 24 25  1  0  0  0  0
 14 26  1  6  0  0  0
 14 27  1  0  0  0  0
 27 25  1  0  0  0  0
 14 23  1  0  0  0  0
 17 21  1  0  0  0  0
 25  3  1  0  0  0  0
 26  3  1  0  0  0  0
  2 28  2  0  0  0  0
 19 29  2  0  0  0  0
 20 30  2  0  0  0  0
 24 31  1  0  0  0  0
  7 32  1  1  0  0  0
 13 33  1  0  0  0  0
 15 34  1  1  0  0  0
 27 35  1  0  0  0  0
 10 36  1  1  0  0  0
  4 37  1  6  0  0  0
 17 38  1  1  0  0  0
 21 39  1  6  0  0  0
  9 40  1  6  0  0  0
 25 41  1  1  0  0  0
M  END
>  <cdx:groupId>
18655

>  <cdx:fragmentId>
18555

$$$$
