106484.cdx
  Mrv1902 05222410212D          

 17 18  0  0  0  0            999 V2000
    6.9850   -5.9675    0.0000 C   0  0  0  0  0  0  0  0  0  0  0  0
    8.0300   -5.7200    0.0000 C   0  0  2  0  0  0  0  0  0  0  0  0
    7.1985   -6.7644    0.0000 C   0  0  1  0  0  0  0  0  0  0  0  0
    8.1675   -6.5725    0.0000 C   0  0  1  0  0  0  0  0  0  0  0  0
    9.1300   -6.8475    0.0000 C   0  0  0  0  0  0  0  0  0  0  0  0
    9.2675   -6.0225    0.0000 C   0  0  0  0  0  0  0  0  0  0  0  0
    8.5250   -4.7850    0.0000 C   0  0  0  0  0  0  0  0  0  0  0  0
    6.6152   -7.3478    0.0000 C   0  0  0  0  0  0  0  0  0  0  0  0
    6.6323   -8.1726    0.0000 C   0  0  0  0  0  0  0  0  0  0  0  0
    5.9266   -8.5998    0.0000 C   0  0  0  0  0  0  0  0  0  0  0  0
    5.9437   -9.4247    0.0000 C   0  0  0  0  0  0  0  0  0  0  0  0
    5.2380   -9.8519    0.0000 C   0  0  0  0  0  0  0  0  0  0  0  0
    6.6666   -9.8222    0.0000 C   0  0  0  0  0  0  0  0  0  0  0  0
    6.2705   -5.5550    0.0000 C   0  0  0  0  0  0  0  0  0  0  0  0
    7.4121   -7.5613    0.0000 C   0  0  0  0  0  0  0  0  0  0  0  0
    8.3810   -7.3694    0.0000 H   0  0  0  0  0  0  0  0  0  0  0  0
    7.5684   -4.9571    0.0000 H   0  0  0  0  0  0  0  0  0  0  0  0
  1  2  1  0  0  0  0
  1  3  1  0  0  0  0
  3  4  1  0  0  0  0
  4  5  1  0  0  0  0
  5  6  1  0  0  0  0
  6  2  1  0  0  0  0
  2  7  1  0  0  0  0
  7  4  1  0  0  0  0
  3  8  1  0  0  0  0
  8  9  1  0  0  0  0
  9 10  1  0  0  0  0
 10 11  2  0  0  0  0
 11 12  1  0  0  0  0
 11 13  1  0  0  0  0
  1 14  2  0  0  0  0
  3 15  1  6  0  0  0
  4 16  1  1  0  0  0
  2 17  1  6  0  0  0
M  END
>  <cdx:fragmentId>
138

$$$$
