10643.cdx
  Mrv1902 05222410202D          

 27 29  0  0  0  0            999 V2000
    9.1727   -9.0139    0.0000 C   0  0  0  0  0  0  0  0  0  0  0  0
    8.4582   -9.4264    0.0000 O   0  0  0  0  0  0  0  0  0  0  0  0
    3.4569   -9.0139    0.0000 C   0  0  0  0  0  0  0  0  0  0  0  0
    4.1714   -9.4264    0.0000 O   0  0  0  0  0  0  0  0  0  0  0  0
    3.4569   -8.1889    0.0000 C   0  0  0  0  0  0  0  0  0  0  0  0
    4.1714   -7.7764    0.0000 O   0  0  0  0  0  0  0  0  0  0  0  0
    4.8859   -6.5389    0.0000 C   0  0  0  0  0  0  0  0  0  0  0  0
    5.6003   -6.9514    0.0000 O   0  0  0  0  0  0  0  0  0  0  0  0
   11.3161   -6.9514    0.0000 C   0  0  0  0  0  0  0  0  0  0  0  0
   10.6016   -6.5389    0.0000 O   0  0  0  0  0  0  0  0  0  0  0  0
    8.4582   -6.9514    0.0000 C   0  0  0  0  0  0  0  0  0  0  0  0
    9.1727   -6.5389    0.0000 C   0  0  0  0  0  0  0  0  0  0  0  0
    9.8871   -6.9514    0.0000 C   0  0  0  0  0  0  0  0  0  0  0  0
    9.8871   -7.7764    0.0000 C   0  0  0  0  0  0  0  0  0  0  0  0
    9.1727   -8.1889    0.0000 C   0  0  0  0  0  0  0  0  0  0  0  0
    8.4582   -7.7764    0.0000 C   0  0  0  0  0  0  0  0  0  0  0  0
    7.0293  -10.2514    0.0000 O   0  0  0  0  0  0  0  0  0  0  0  0
    7.0293   -7.7764    0.0000 O   0  0  0  0  0  0  0  0  0  0  0  0
    6.3148   -8.1889    0.0000 C   0  0  0  0  0  0  0  0  0  0  0  0
    5.6003   -7.7764    0.0000 C   0  0  0  0  0  0  0  0  0  0  0  0
    4.8859   -8.1889    0.0000 C   0  0  0  0  0  0  0  0  0  0  0  0
    4.8859   -9.0139    0.0000 C   0  0  0  0  0  0  0  0  0  0  0  0
    5.6003   -9.4264    0.0000 C   0  0  0  0  0  0  0  0  0  0  0  0
    6.3148   -9.0139    0.0000 C   0  0  0  0  0  0  0  0  0  0  0  0
    7.0293   -9.4264    0.0000 C   0  0  0  0  0  0  0  0  0  0  0  0
    7.7437   -9.0139    0.0000 C   0  0  0  0  0  0  0  0  0  0  0  0
    7.7437   -8.1889    0.0000 C   0  0  0  0  0  0  0  0  0  0  0  0
 26  2  1  0  0  0  0
  2  1  1  0  0  0  0
 22  4  1  0  0  0  0
  4  3  1  0  0  0  0
 21  6  1  0  0  0  0
  6  5  1  0  0  0  0
 20  8  1  0  0  0  0
  8  7  1  0  0  0  0
 27 16  1  0  0  0  0
 13 10  1  0  0  0  0
 10  9  1  0  0  0  0
 16 11  2  0  0  0  0
 12 11  1  0  0  0  0
 13 12  2  0  0  0  0
 14 13  1  0  0  0  0
 15 14  2  0  0  0  0
 16 15  1  0  0  0  0
 25 17  2  0  0  0  0
 27 18  1  0  0  0  0
 19 18  1  0  0  0  0
 24 19  2  0  0  0  0
 20 19  1  0  0  0  0
 21 20  2  0  0  0  0
 22 21  1  0  0  0  0
 23 22  2  0  0  0  0
 24 23  1  0  0  0  0
 25 24  1  0  0  0  0
 26 25  1  0  0  0  0
 27 26  2  0  0  0  0
M  END
>  <cdx:fragmentId>
5

$$$$
