10657.cdx
  Mrv1902 05222410202D          

 17 18  0  0  0  0            999 V2000
    5.9835   -6.6612    0.0000 H   0  0  0  0  0  0  0  0  0  0  0  0
    5.9944   -4.1863    0.0000 H   0  0  0  0  0  0  0  0  0  0  0  0
    5.2817   -3.7706    0.0000 C   0  0  0  0  0  0  0  0  0  0  0  0
    8.1287   -6.2582    0.0000 C   0  0  0  0  0  0  0  0  0  0  0  0
    4.5509   -7.4799    0.0000 C   0  0  0  0  0  0  0  0  0  0  0  0
    5.2672   -7.0706    0.0000 C   0  0  0  0  0  0  0  0  0  0  0  0
    5.9798   -7.4862    0.0000 C   0  0  0  0  0  0  0  0  0  0  0  0
    5.9871   -5.8362    0.0000 C   0  0  2  0  0  0  0  0  0  0  0  0
    6.6997   -6.2519    0.0000 C   0  0  0  0  0  0  0  0  0  0  0  0
    7.4160   -5.8425    0.0000 C   0  0  0  0  0  0  0  0  0  0  0  0
    7.4197   -5.0175    0.0000 C   0  0  0  0  0  0  0  0  0  0  0  0
    6.7070   -4.6019    0.0000 C   0  0  0  0  0  0  0  0  0  0  0  0
    5.9907   -5.0112    0.0000 C   0  0  1  0  0  0  0  0  0  0  0  0
    5.2781   -4.5956    0.0000 C   0  0  0  0  0  0  0  0  0  0  0  0
    4.5618   -5.0050    0.0000 C   0  0  0  0  0  0  0  0  0  0  0  0
    4.5582   -5.8299    0.0000 C   0  0  0  0  0  0  0  0  0  0  0  0
    5.2708   -6.2456    0.0000 C   0  0  1  0  0  0  0  0  0  0  0  0
  8  1  1  6  0  0  0
 13  2  1  1  0  0  0
 14  3  1  0  0  0  0
 10  4  1  0  0  0  0
 17  6  1  6  0  0  0
  6  5  1  0  0  0  0
  7  6  1  0  0  0  0
 13  8  1  0  0  0  0
 17  8  1  0  0  0  0
  9  8  1  0  0  0  0
 10  9  1  0  0  0  0
 11 10  2  0  0  0  0
 12 11  1  0  0  0  0
 13 12  1  0  0  0  0
 14 13  1  0  0  0  0
 15 14  2  0  0  0  0
 16 15  1  0  0  0  0
 17 16  1  0  0  0  0
M  END
>  <cdx:groupId>
54

>  <cdx:fragmentId>
5

$$$$
