10654.cdx
  Mrv1902 05222410212D          

 24 28  0  0  0  0            999 V2000
    4.1695   -9.2194    0.0000 C   0  0  0  0  0  0  0  0  0  0  0  0
    4.1695  -10.0444    0.0000 C   0  0  0  0  0  0  0  0  0  0  0  0
    4.8840  -10.4569    0.0000 C   0  0  0  0  0  0  0  0  0  0  0  0
    5.5985  -10.0444    0.0000 C   0  0  0  0  0  0  0  0  0  0  0  0
    5.5985   -9.2194    0.0000 C   0  0  2  0  0  0  0  0  0  0  0  0
    4.8840   -8.8069    0.0000 C   0  0  0  0  0  0  0  0  0  0  0  0
    6.3129  -10.4569    0.0000 C   0  0  0  0  0  0  0  0  0  0  0  0
    7.0274  -10.0444    0.0000 C   0  0  0  0  0  0  0  0  0  0  0  0
    7.0274   -9.2194    0.0000 C   0  0  1  0  0  0  0  0  0  0  0  0
    6.3129   -8.8069    0.0000 C   0  0  0  0  0  0  0  0  0  0  0  0
    7.7419   -8.8069    0.0000 C   0  0  2  0  0  0  0  0  0  0  0  0
    7.7419   -7.9819    0.0000 C   0  0  0  0  0  0  0  0  0  0  0  0
    7.0274   -7.5694    0.0000 C   0  0  0  0  0  0  0  0  0  0  0  0
    6.3129   -7.9819    0.0000 C   0  0  0  0  0  0  0  0  0  0  0  0
    8.3550   -7.4298    0.0000 C   0  0  0  0  0  0  0  0  0  0  0  0
    8.0194   -6.6762    0.0000 C   0  0  0  0  0  0  0  0  0  0  0  0
    7.1989   -6.7624    0.0000 O   0  0  0  0  0  0  0  0  0  0  0  0
    8.4319   -5.9617    0.0000 O   0  0  0  0  0  0  0  0  0  0  0  0
    4.4715  -11.1713    0.0000 C   0  0  0  0  0  0  0  0  0  0  0  0
    5.2965  -11.1713    0.0000 C   0  0  0  0  0  0  0  0  0  0  0  0
    9.1519   -7.6434    0.0000 C   0  0  0  0  0  0  0  0  0  0  0  0
    5.5985   -8.3944    0.0000 C   0  0  0  0  0  0  0  0  0  0  0  0
    7.7419   -9.6319    0.0000 O   0  0  0  0  0  0  0  0  0  0  0  0
    9.7352   -7.0600    0.0000 O   0  0  0  0  0  0  0  0  0  0  0  0
  1  2  1  0  0  0  0
  2  3  1  0  0  0  0
  3  4  1  0  0  0  0
  4  5  1  0  0  0  0
  5  6  1  0  0  0  0
  6  1  1  0  0  0  0
  4  7  1  0  0  0  0
  7  8  1  0  0  0  0
  8  9  1  0  0  0  0
  9 10  1  0  0  0  0
 10  5  1  0  0  0  0
  9 11  1  0  0  0  0
 11 12  1  0  0  0  0
 12 13  1  0  0  0  0
 13 14  2  0  0  0  0
 14 10  1  0  0  0  0
 12 15  2  0  0  0  0
 15 16  1  0  0  0  0
 16 17  1  0  0  0  0
 17 13  1  0  0  0  0
 16 18  2  0  0  0  0
  3 19  1  0  0  0  0
  3 20  1  0  0  0  0
 15 21  1  0  0  0  0
  5 22  1  1  0  0  0
  9 23  1  6  0  0  0
 11 23  1  6  0  0  0
 21 24  1  0  0  0  0
M  END
>  <cdx:fragmentId>
5

$$$$
