10659.cdx
  Mrv1902 05222410252D          

 16 17  0  0  0  0            999 V2000
    2.8499   -4.7924    0.0000 O   0  0  0  0  0  0  0  0  0  0  0  0
    2.3650   -4.1250    0.0000 C   0  0  0  0  0  0  0  0  0  0  0  0
    2.8499   -3.4576    0.0000 O   0  0  0  0  0  0  0  0  0  0  0  0
    3.6345   -3.7125    0.0000 C   0  0  0  0  0  0  0  0  0  0  0  0
    3.6345   -4.5375    0.0000 C   0  0  0  0  0  0  0  0  0  0  0  0
    4.3490   -3.3000    0.0000 C   0  0  0  0  0  0  0  0  0  0  0  0
    5.0635   -3.7125    0.0000 C   0  0  0  0  0  0  0  0  0  0  0  0
    5.0635   -4.5375    0.0000 C   0  0  0  0  0  0  0  0  0  0  0  0
    4.3490   -4.9500    0.0000 C   0  0  0  0  0  0  0  0  0  0  0  0
    5.7779   -3.3000    0.0000 C   0  0  0  0  0  0  0  0  0  0  0  0
    6.4924   -3.7125    0.0000 C   0  0  0  0  0  0  0  0  0  0  0  0
    7.2069   -3.3000    0.0000 C   0  0  0  0  0  0  0  0  0  0  0  0
    4.3490   -5.7750    0.0000 O   0  0  0  0  0  0  0  0  0  0  0  0
    5.0635   -6.1875    0.0000 C   0  0  0  0  0  0  0  0  0  0  0  0
    4.3490   -2.4750    0.0000 O   0  0  0  0  0  0  0  0  0  0  0  0
    5.0635   -2.0625    0.0000 C   0  0  0  0  0  0  0  0  0  0  0  0
  1  2  1  0  0  0  0
  2  3  1  0  0  0  0
  3  4  1  0  0  0  0
  4  5  1  0  0  0  0
  1  5  1  0  0  0  0
  6  7  1  0  0  0  0
  7  8  2  0  0  0  0
  8  9  1  0  0  0  0
  9  5  2  0  0  0  0
  6  4  2  0  0  0  0
 10 11  1  0  0  0  0
 11 12  2  0  0  0  0
  7 10  1  0  0  0  0
 13 14  1  0  0  0  0
  9 13  1  0  0  0  0
 15 16  1  0  0  0  0
  6 15  1  0  0  0  0
M  END
>  <cdx:groupId>
51

>  <cdx:fragmentId>
5

$$$$
