10658.cdx
  Mrv1902 05222410242D          

 14 16  0  0  0  0            999 V2000
    9.1423   -5.0935    0.0000 O   0  0  0  0  0  0  0  0  0  0  0  0
    5.2925   -4.2003    0.0000 C   0  0  0  0  0  0  0  0  0  0  0  0
    6.1129   -4.2866    0.0000 C   0  0  0  0  0  0  0  0  0  0  0  0
    4.9569   -4.9540    0.0000 O   0  0  0  0  0  0  0  0  0  0  0  0
    7.7134   -5.0935    0.0000 O   0  0  0  0  0  0  0  0  0  0  0  0
    6.9989   -5.5060    0.0000 C   0  0  0  0  0  0  0  0  0  0  0  0
    6.2845   -5.0935    0.0000 C   0  0  0  0  0  0  0  0  0  0  0  0
    5.5700   -5.5060    0.0000 C   0  0  0  0  0  0  0  0  0  0  0  0
    5.5700   -6.3310    0.0000 C   0  0  0  0  0  0  0  0  0  0  0  0
    6.2845   -6.7435    0.0000 C   0  0  0  0  0  0  0  0  0  0  0  0
    6.9989   -6.3310    0.0000 C   0  0  0  0  0  0  0  0  0  0  0  0
    7.7134   -6.7435    0.0000 C   0  0  0  0  0  0  0  0  0  0  0  0
    8.4279   -6.3310    0.0000 C   0  0  0  0  0  0  0  0  0  0  0  0
    8.4279   -5.5060    0.0000 C   0  0  0  0  0  0  0  0  0  0  0  0
 14  1  2  0  0  0  0
  3  7  1  0  0  0  0
  4  8  1  0  0  0  0
  4  2  1  0  0  0  0
  3  2  2  0  0  0  0
 14  5  1  0  0  0  0
  6  5  1  0  0  0  0
 11  6  2  0  0  0  0
  7  6  1  0  0  0  0
  8  7  2  0  0  0  0
  9  8  1  0  0  0  0
 10  9  2  0  0  0  0
 11 10  1  0  0  0  0
 12 11  1  0  0  0  0
 13 12  2  0  0  0  0
 14 13  1  0  0  0  0
M  END
>  <cdx:fragmentId>
5

$$$$
