1066.cdx
  Mrv1902 05222410272D          

 12 12  0  0  0  0            999 V2000
    6.7386   -5.2258    0.0000 C   0  0  0  0  0  0  0  0  0  0  0  0
    6.7386   -4.4008    0.0000 C   0  0  0  0  0  0  0  0  0  0  0  0
    6.0241   -3.9883    0.0000 C   0  0  0  0  0  0  0  0  0  0  0  0
    5.3096   -4.4008    0.0000 C   0  0  0  0  0  0  0  0  0  0  0  0
    5.3096   -5.2258    0.0000 C   0  0  0  0  0  0  0  0  0  0  0  0
    6.0241   -5.6383    0.0000 N   0  0  0  0  0  0  0  0  0  0  0  0
    7.4530   -5.6383    0.0000 C   0  0  0  0  0  0  0  0  0  0  0  0
    7.4530   -6.4633    0.0000 O   0  0  0  0  0  0  0  0  0  0  0  0
    8.1675   -5.2258    0.0000 O   0  0  0  0  0  0  0  0  0  0  0  0
    7.4530   -3.9883    0.0000 C   0  0  0  0  0  0  0  0  0  0  0  0
    7.4530   -3.1633    0.0000 O   0  0  0  0  0  0  0  0  0  0  0  0
    8.1675   -4.4008    0.0000 O   0  0  0  0  0  0  0  0  0  0  0  0
  1  2  1  0  0  0  0
  2  3  2  0  0  0  0
  3  4  1  0  0  0  0
  4  5  2  0  0  0  0
  5  6  1  0  0  0  0
  1  6  2  0  0  0  0
  7  8  2  0  0  0  0
  7  9  1  0  0  0  0
  1  7  1  0  0  0  0
 10 11  2  0  0  0  0
 10 12  1  0  0  0  0
  2 10  1  0  0  0  0
M  END
>  <cdx:fragmentId>
5

$$$$
