10666.cdx
  Mrv1902 05222410262D          

 12 12  0  0  0  0            999 V2000
    6.8248   -3.0533    0.0000 C   0  0  0  0  0  0  0  0  0  0  0  0
    7.5392   -3.4658    0.0000 C   0  0  0  0  0  0  0  0  0  0  0  0
    7.5392   -4.2908    0.0000 C   0  0  0  0  0  0  0  0  0  0  0  0
    6.8248   -4.7033    0.0000 C   0  0  0  0  0  0  0  0  0  0  0  0
    6.1103   -4.2908    0.0000 C   0  0  0  0  0  0  0  0  0  0  0  0
    6.1103   -3.4658    0.0000 N   0  0  0  0  0  0  0  0  0  0  0  0
    8.2537   -3.0533    0.0000 C   0  0  0  0  0  0  0  0  0  0  0  0
    8.9682   -2.6408    0.0000 N   0  0  0  0  0  0  0  0  0  0  0  0
    6.8248   -2.2283    0.0000 O   0  0  0  0  0  0  0  0  0  0  0  0
    5.3958   -3.0533    0.0000 C   0  0  0  0  0  0  0  0  0  0  0  0
    8.2537   -4.7033    0.0000 O   0  0  0  0  0  0  0  0  0  0  0  0
    8.9682   -4.2908    0.0000 C   0  0  0  0  0  0  0  0  0  0  0  0
  1  2  1  0  0  0  0
  2  3  2  0  0  0  0
  3  4  1  0  0  0  0
  4  5  2  0  0  0  0
  5  6  1  0  0  0  0
  1  6  1  0  0  0  0
  7  8  3  0  0  0  0
  2  7  1  0  0  0  0
  1  9  2  0  0  0  0
  6 10  1  0  0  0  0
 11 12  1  0  0  0  0
  3 11  1  0  0  0  0
M  END
>  <cdx:fragmentId>
5

$$$$
