1067.cdx
  Mrv1902 05222410272D          

 39 43  0  0  0  0            999 V2000
    6.7683   -7.0950    0.0000 C   0  0  0  0  0  0  0  0  0  0  0  0
    6.7683   -7.9200    0.0000 C   0  0  0  0  0  0  0  0  0  0  0  0
    7.4827   -8.3325    0.0000 C   0  0  0  0  0  0  0  0  0  0  0  0
    8.1972   -7.9200    0.0000 C   0  0  0  0  0  0  0  0  0  0  0  0
    8.1972   -7.0950    0.0000 C   0  0  0  0  0  0  0  0  0  0  0  0
    7.4827   -6.6825    0.0000 C   0  0  0  0  0  0  0  0  0  0  0  0
    8.9117   -8.3325    0.0000 C   0  0  1  0  0  0  0  0  0  0  0  0
    9.6262   -7.9200    0.0000 C   0  0  1  0  0  0  0  0  0  0  0  0
    9.6262   -7.0950    0.0000 C   0  0  0  0  0  0  0  0  0  0  0  0
    8.9117   -6.6825    0.0000 O   0  0  0  0  0  0  0  0  0  0  0  0
    9.0832   -9.1395    0.0000 O   0  0  0  0  0  0  0  0  0  0  0  0
    9.9037   -9.2257    0.0000 C   0  0  0  0  0  0  0  0  0  0  0  0
   10.2393   -8.4720    0.0000 C   0  0  0  0  0  0  0  0  0  0  0  0
   10.3886   -9.8931    0.0000 C   0  0  0  0  0  0  0  0  0  0  0  0
   11.2091   -9.8069    0.0000 C   0  0  0  0  0  0  0  0  0  0  0  0
   11.5447   -9.0532    0.0000 C   0  0  0  0  0  0  0  0  0  0  0  0
   11.0597   -8.3858    0.0000 C   0  0  0  0  0  0  0  0  0  0  0  0
    6.0538   -6.6825    0.0000 O   0  0  0  0  0  0  0  0  0  0  0  0
    9.9761  -10.6076    0.0000 O   0  0  0  0  0  0  0  0  0  0  0  0
   11.6216  -10.5214    0.0000 O   0  0  0  0  0  0  0  0  0  0  0  0
    3.9014   -7.0950    0.0000 C   0  0  2  0  0  0  0  0  0  0  0  0
    3.9014   -7.9200    0.0000 C   0  0  2  0  0  0  0  0  0  0  0  0
    4.6159   -8.3325    0.0000 C   0  0  1  0  0  0  0  0  0  0  0  0
    5.3303   -7.9200    0.0000 C   0  0  2  0  0  0  0  0  0  0  0  0
    5.3303   -7.0950    0.0000 C   0  0  1  0  0  0  0  0  0  0  0  0
    4.6159   -6.6825    0.0000 O   0  0  0  0  0  0  0  0  0  0  0  0
    4.6159   -9.1575    0.0000 O   0  0  0  0  0  0  0  0  0  0  0  0
    3.1869   -6.6825    0.0000 O   0  0  0  0  0  0  0  0  0  0  0  0
    6.0448   -8.3325    0.0000 O   0  0  0  0  0  0  0  0  0  0  0  0
    3.1869   -8.3325    0.0000 O   0  0  0  0  0  0  0  0  0  0  0  0
   10.3886  -11.3221    0.0000 C   0  0  0  0  0  0  0  0  0  0  0  0
   12.4185  -10.7349    0.0000 C   0  0  0  0  0  0  0  0  0  0  0  0
    3.1825   -5.8608    0.0000 C   0  0  0  0  0  0  0  0  0  0  0  0
    2.4701   -5.4446    0.0000 C   0  0  0  0  0  0  0  0  0  0  0  0
    3.8991   -5.4520    0.0000 O   0  0  0  0  0  0  0  0  0  0  0  0
    2.4744   -4.6196    0.0000 C   0  0  0  0  0  0  0  0  0  0  0  0
    1.7621   -4.2034    0.0000 C   0  0  0  0  0  0  0  0  0  0  0  0
    8.2443   -8.8174    0.0000 H   0  0  0  0  0  0  0  0  0  0  0  0
   10.3798   -7.5844    0.0000 H   0  0  0  0  0  0  0  0  0  0  0  0
  1  2  2  0  0  0  0
  2  3  1  0  0  0  0
  3  4  2  0  0  0  0
  4  5  1  0  0  0  0
  5  6  2  0  0  0  0
  6  1  1  0  0  0  0
  4  7  1  0  0  0  0
  7  8  1  0  0  0  0
  8  9  1  0  0  0  0
  9 10  1  0  0  0  0
 10  5  1  0  0  0  0
  7 11  1  0  0  0  0
 11 12  1  0  0  0  0
 12 13  2  0  0  0  0
 13  8  1  0  0  0  0
 12 14  1  0  0  0  0
 14 15  2  0  0  0  0
 15 16  1  0  0  0  0
 16 17  2  0  0  0  0
 17 13  1  0  0  0  0
  1 18  1  0  0  0  0
 14 19  1  0  0  0  0
 15 20  1  0  0  0  0
 21 22  1  0  0  0  0
 22 23  1  0  0  0  0
 23 24  1  0  0  0  0
 24 25  1  0  0  0  0
 25 26  1  0  0  0  0
 26 21  1  0  0  0  0
 23 27  1  1  0  0  0
 21 28  1  1  0  0  0
 24 29  1  6  0  0  0
 22 30  1  6  0  0  0
 25 18  1  1  0  0  0
 19 31  1  0  0  0  0
 20 32  1  0  0  0  0
 33 34  1  0  0  0  0
 33 35  2  0  0  0  0
 34 36  2  0  0  0  0
 36 37  1  0  0  0  0
 33 28  1  0  0  0  0
  7 38  1  6  0  0  0
  8 39  1  6  0  0  0
M  END
>  <cdx:fragmentId>
5

$$$$
