1068.cdx
  Mrv1902 05222410182D          

  3  2  0  0  0  0            999 V2000
    3.9633   -3.2742    0.0000 C   0  0  0  0  0  0  0  0  0  0  0  0
    4.6777   -2.8617    0.0000 S   0  0  0  0  0  0  0  0  0  0  0  0
    5.3922   -3.2742    0.0000 C   0  0  0  0  0  0  0  0  0  0  0  0
  2  3  1  0  0  0  0
  1  2  1  0  0  0  0
M  END
>  <cdx:groupId>
10

>  <cdx:fragmentId>
7

$$$$
