10686.cdx
  Mrv1902 05222410222D          

  9  9  0  0  0  0            999 V2000
    3.2927   -2.5496    0.0000 C   0  0  0  0  0  0  0  0  0  0  0  0
    4.0072   -2.9621    0.0000 C   0  0  0  0  0  0  0  0  0  0  0  0
    4.0072   -3.7871    0.0000 C   0  0  0  0  0  0  0  0  0  0  0  0
    3.2927   -4.1996    0.0000 C   0  0  0  0  0  0  0  0  0  0  0  0
    2.5782   -3.7871    0.0000 C   0  0  0  0  0  0  0  0  0  0  0  0
    2.5782   -2.9621    0.0000 C   0  0  0  0  0  0  0  0  0  0  0  0
    4.7216   -4.1996    0.0000 C   0  0  0  0  0  0  0  0  0  0  0  0
    4.7216   -2.5496    0.0000 C   0  0  0  0  0  0  0  0  0  0  0  0
    3.2927   -1.7246    0.0000 C   0  0  0  0  0  0  0  0  0  0  0  0
  1  2  1  0  0  0  0
  2  3  2  0  0  0  0
  3  4  1  0  0  0  0
  4  5  2  0  0  0  0
  5  6  1  0  0  0  0
  1  6  2  0  0  0  0
  3  7  1  0  0  0  0
  2  8  1  0  0  0  0
  1  9  1  0  0  0  0
M  END
>  <cdx:groupId>
29

>  <cdx:fragmentId>
5

$$$$
