10695.cdx
  Mrv1902 05222410212D          

 10 10  0  0  0  0            999 V2000
    5.2759   -3.1064    0.0000 C   0  0  0  0  0  0  0  0  0  0  0  0
    5.9903   -3.5189    0.0000 C   0  0  0  0  0  0  0  0  0  0  0  0
    5.9903   -4.3439    0.0000 C   0  0  0  0  0  0  0  0  0  0  0  0
    5.2759   -4.7564    0.0000 C   0  0  0  0  0  0  0  0  0  0  0  0
    4.5614   -4.3439    0.0000 C   0  0  0  0  0  0  0  0  0  0  0  0
    4.5614   -3.5189    0.0000 C   0  0  0  0  0  0  0  0  0  0  0  0
    3.8469   -4.7564    0.0000 C   0  0  0  0  0  0  0  0  0  0  0  0
    6.7048   -4.7564    0.0000 C   0  0  0  0  0  0  0  0  0  0  0  0
    6.7048   -3.1064    0.0000 C   0  0  0  0  0  0  0  0  0  0  0  0
    5.2759   -2.2814    0.0000 C   0  0  0  0  0  0  0  0  0  0  0  0
  1  2  1  0  0  0  0
  2  3  2  0  0  0  0
  3  4  1  0  0  0  0
  4  5  2  0  0  0  0
  5  6  1  0  0  0  0
  1  6  2  0  0  0  0
  5  7  1  0  0  0  0
  3  8  1  0  0  0  0
  2  9  1  0  0  0  0
  1 10  1  0  0  0  0
M  END
>  <cdx:groupId>
32

>  <cdx:fragmentId>
5

$$$$
