10690.cdx
  Mrv1902 05222410232D          

 13 12  0  0  0  0            999 V2000
    6.1958   -3.3283    0.0000 C   0  0  0  0  0  0  0  0  0  0  0  0
    5.4813   -3.7408    0.0000 C   0  0  1  0  0  0  0  0  0  0  0  0
    4.7669   -3.3283    0.0000 C   0  0  2  0  0  0  0  0  0  0  0  0
    4.0524   -3.7408    0.0000 C   0  0  1  0  0  0  0  0  0  0  0  0
    3.3379   -3.3283    0.0000 C   0  0  1  0  0  0  0  0  0  0  0  0
    2.6234   -3.7408    0.0000 C   0  0  0  0  0  0  0  0  0  0  0  0
    6.1958   -2.5033    0.0000 O   0  0  0  0  0  0  0  0  0  0  0  0
    6.9103   -3.7408    0.0000 O   0  0  0  0  0  0  0  0  0  0  0  0
    1.9090   -3.3283    0.0000 O   0  0  0  0  0  0  0  0  0  0  0  0
    3.3379   -2.5033    0.0000 O   0  0  0  0  0  0  0  0  0  0  0  0
    4.0524   -4.5658    0.0000 O   0  0  0  0  0  0  0  0  0  0  0  0
    4.7669   -2.5033    0.0000 O   0  0  0  0  0  0  0  0  0  0  0  0
    5.4813   -4.5658    0.0000 O   0  0  0  0  0  0  0  0  0  0  0  0
  1  2  1  0  0  0  0
  2  3  1  0  0  0  0
  3  4  1  0  0  0  0
  4  5  1  0  0  0  0
  5  6  1  0  0  0  0
  1  7  2  0  0  0  0
  1  8  1  0  0  0  0
  6  9  1  0  0  0  0
  5 10  1  1  0  0  0
  4 11  1  6  0  0  0
  3 12  1  6  0  0  0
  2 13  1  6  0  0  0
M  END
>  <cdx:groupId>
40

>  <cdx:fragmentId>
5

$$$$
