10694.cdx
  Mrv1902 05222410202D          

 11 11  0  0  0  0            999 V2000
    4.4302   -2.6535    0.0000 C   0  0  0  0  0  0  0  0  0  0  0  0
    5.1447   -3.0660    0.0000 C   0  0  0  0  0  0  0  0  0  0  0  0
    5.1447   -3.8910    0.0000 C   0  0  0  0  0  0  0  0  0  0  0  0
    4.4302   -4.3035    0.0000 C   0  0  0  0  0  0  0  0  0  0  0  0
    3.7158   -3.8910    0.0000 C   0  0  0  0  0  0  0  0  0  0  0  0
    3.7158   -3.0660    0.0000 C   0  0  0  0  0  0  0  0  0  0  0  0
    4.4302   -1.8285    0.0000 O   0  0  0  0  0  0  0  0  0  0  0  0
    3.0013   -2.6535    0.0000 C   0  0  0  0  0  0  0  0  0  0  0  0
    3.0013   -4.3035    0.0000 C   0  0  0  0  0  0  0  0  0  0  0  0
    5.8592   -4.3035    0.0000 C   0  0  0  0  0  0  0  0  0  0  0  0
    5.8592   -2.6535    0.0000 C   0  0  0  0  0  0  0  0  0  0  0  0
  1  2  1  0  0  0  0
  2  3  2  0  0  0  0
  3  4  1  0  0  0  0
  4  5  2  0  0  0  0
  5  6  1  0  0  0  0
  1  6  2  0  0  0  0
  1  7  1  0  0  0  0
  6  8  1  0  0  0  0
  5  9  1  0  0  0  0
  3 10  1  0  0  0  0
  2 11  1  0  0  0  0
M  END
>  <cdx:groupId>
35

>  <cdx:fragmentId>
5

$$$$
