107.cdx
  Mrv1902 05222410182D          

 11 11  0  0  0  0            999 V2000
    5.7338   -2.4988    0.0000 C   0  0  0  0  0  0  0  0  0  0  0  0
    5.0193   -2.9113    0.0000 C   0  0  0  0  0  0  0  0  0  0  0  0
    4.3048   -2.4988    0.0000 C   0  0  0  0  0  0  0  0  0  0  0  0
    3.5904   -2.9113    0.0000 C   0  0  0  0  0  0  0  0  0  0  0  0
    3.5904   -3.7363    0.0000 C   0  0  0  0  0  0  0  0  0  0  0  0
    2.8759   -4.1488    0.0000 C   0  0  0  0  0  0  0  0  0  0  0  0
    2.1614   -3.7363    0.0000 C   0  0  0  0  0  0  0  0  0  0  0  0
    2.1614   -2.9113    0.0000 C   0  0  0  0  0  0  0  0  0  0  0  0
    2.8759   -2.4988    0.0000 C   0  0  0  0  0  0  0  0  0  0  0  0
    5.7338   -1.6738    0.0000 O   0  0  0  0  0  0  0  0  0  0  0  0
    6.4482   -2.9113    0.0000 O   0  0  0  0  0  0  0  0  0  0  0  0
  1  2  1  0  0  0  0
  2  3  2  0  0  0  0
  3  4  1  0  0  0  0
  4  5  1  0  0  0  0
  5  6  2  0  0  0  0
  6  7  1  0  0  0  0
  7  8  2  0  0  0  0
  8  9  1  0  0  0  0
  4  9  2  0  0  0  0
  1 10  2  0  0  0  0
  1 11  1  0  0  0  0
M  END
>  <cdx:groupId>
35

>  <cdx:fragmentId>
5

$$$$
