107059.cdx
  Mrv1902 05222410192D          

 12 11  0  0  0  0            999 V2000
    4.5135   -3.5896    0.0000 C   0  0  0  0  0  0  0  0  0  0  0  0
    3.7991   -4.0021    0.0000 C   0  0  0  0  0  0  0  0  0  0  0  0
    3.0846   -3.5896    0.0000 C   0  0  0  0  0  0  0  0  0  0  0  0
    2.3701   -4.0021    0.0000 C   0  0  0  0  0  0  0  0  0  0  0  0
    4.5135   -2.7646    0.0000 O   0  0  0  0  0  0  0  0  0  0  0  0
    5.2280   -4.0021    0.0000 O   0  0  0  0  0  0  0  0  0  0  0  0
    3.7991   -4.8271    0.0000 C   0  0  0  0  0  0  0  0  0  0  0  0
    5.9425   -3.5896    0.0000 C   0  0  0  0  0  0  0  0  0  0  0  0
    6.6570   -4.0021    0.0000 C   0  0  0  0  0  0  0  0  0  0  0  0
    7.3714   -3.5896    0.0000 C   0  0  0  0  0  0  0  0  0  0  0  0
    8.0859   -4.0021    0.0000 C   0  0  0  0  0  0  0  0  0  0  0  0
    8.8004   -3.5896    0.0000 C   0  0  0  0  0  0  0  0  0  0  0  0
  1  2  1  0  0  0  0
  2  3  1  0  0  0  0
  3  4  1  0  0  0  0
  1  5  2  0  0  0  0
  1  6  1  0  0  0  0
  2  7  1  0  0  0  0
  8  9  1  0  0  0  0
  9 10  1  0  0  0  0
 10 11  1  0  0  0  0
 11 12  1  0  0  0  0
  6  8  1  0  0  0  0
M  END
>  <cdx:groupId>
37

>  <cdx:fragmentId>
5

$$$$
