107036.cdx
  Mrv1902 05222410242D          

 25 24  0  0  0  0            999 V2000
    2.9325  -10.4783    0.0000 O   0  0  0  0  0  0  0  0  0  0  0  0
    1.5035   -9.6533    0.0000 O   0  0  0  0  0  0  0  0  0  0  0  0
    2.2180   -9.2408    0.0000 C   0  0  0  0  0  0  0  0  0  0  0  0
    2.9325   -9.6533    0.0000 C   0  0  0  0  0  0  0  0  0  0  0  0
    3.6469   -9.2408    0.0000 C   0  0  0  0  0  0  0  0  0  0  0  0
    4.3614   -9.6533    0.0000 O   0  0  0  0  0  0  0  0  0  0  0  0
    5.0759   -8.4158    0.0000 O   0  0  0  0  0  0  0  0  0  0  0  0
   16.5074   -9.2408    0.0000 C   0  0  0  0  0  0  0  0  0  0  0  0
   15.7929   -9.6533    0.0000 C   0  0  0  0  0  0  0  0  0  0  0  0
   15.0785   -9.2408    0.0000 C   0  0  0  0  0  0  0  0  0  0  0  0
   14.3640   -9.6533    0.0000 C   0  0  0  0  0  0  0  0  0  0  0  0
   13.6495   -9.2408    0.0000 C   0  0  0  0  0  0  0  0  0  0  0  0
   12.9351   -9.6533    0.0000 C   0  0  0  0  0  0  0  0  0  0  0  0
   12.2206   -9.2408    0.0000 C   0  0  0  0  0  0  0  0  0  0  0  0
   11.5061   -9.6533    0.0000 C   0  0  0  0  0  0  0  0  0  0  0  0
   10.7917   -9.2408    0.0000 C   0  0  0  0  0  0  0  0  0  0  0  0
   10.0772   -9.6533    0.0000 C   0  0  0  0  0  0  0  0  0  0  0  0
    9.3627   -9.2408    0.0000 C   0  0  0  0  0  0  0  0  0  0  0  0
    8.6482   -9.6533    0.0000 C   0  0  0  0  0  0  0  0  0  0  0  0
    7.9338   -9.2408    0.0000 C   0  0  0  0  0  0  0  0  0  0  0  0
    7.2193   -9.6533    0.0000 C   0  0  0  0  0  0  0  0  0  0  0  0
    6.5048   -9.2408    0.0000 C   0  0  0  0  0  0  0  0  0  0  0  0
    5.7904   -9.6533    0.0000 C   0  0  0  0  0  0  0  0  0  0  0  0
    5.0759   -9.2408    0.0000 C   0  0  0  0  0  0  0  0  0  0  0  0
   17.2219   -9.6533    0.0000 C   0  0  0  0  0  0  0  0  0  0  0  0
  6  5  1  0  0  0  0
  4  1  1  0  0  0  0
  3  2  1  0  0  0  0
  4  3  1  0  0  0  0
  5  4  1  0  0  0  0
 24  6  1  0  0  0  0
 24  7  2  0  0  0  0
  9  8  1  0  0  0  0
 10  9  1  0  0  0  0
 11 10  1  0  0  0  0
 12 11  1  0  0  0  0
 13 12  1  0  0  0  0
 14 13  1  0  0  0  0
 15 14  1  0  0  0  0
 16 15  1  0  0  0  0
 17 16  1  0  0  0  0
 18 17  1  0  0  0  0
 19 18  1  0  0  0  0
 20 19  1  0  0  0  0
 21 20  1  0  0  0  0
 22 21  1  0  0  0  0
 23 22  1  0  0  0  0
 24 23  1  0  0  0  0
  8 25  1  0  0  0  0
M  END
>  <cdx:fragmentId>
5

$$$$
