10712.cdx
  Mrv1902 05222410252D          

 23 24  0  0  0  0            999 V2000
   16.5314   -8.2577    0.0000 C   0  0  1  0  0  0  0  0  0  0  0  0
   15.8169   -7.8452    0.0000 C   0  0  1  0  0  0  0  0  0  0  0  0
   15.1025   -8.2577    0.0000 O   0  0  0  0  0  0  0  0  0  0  0  0
   15.1025   -9.0827    0.0000 C   0  0  1  0  0  0  0  0  0  0  0  0
   15.8169   -9.4952    0.0000 C   0  0  2  0  0  0  0  0  0  0  0  0
   16.5314   -9.0827    0.0000 C   0  0  2  0  0  0  0  0  0  0  0  0
   15.8169   -7.0202    0.0000 O   0  0  0  0  0  0  0  0  0  0  0  0
   17.2459   -9.4952    0.0000 O   0  0  0  0  0  0  0  0  0  0  0  0
   15.8169  -10.3202    0.0000 O   0  0  0  0  0  0  0  0  0  0  0  0
   14.3880   -9.4952    0.0000 C   0  0  0  0  0  0  0  0  0  0  0  0
   13.6680  -10.7525    0.0000 C   0  0  2  0  0  0  0  0  0  0  0  0
   13.6680  -11.5775    0.0000 C   0  0  2  0  0  0  0  0  0  0  0  0
   14.3825  -11.9900    0.0000 C   0  0  1  0  0  0  0  0  0  0  0  0
   15.0970  -11.5775    0.0000 C   0  0  2  0  0  0  0  0  0  0  0  0
   15.0970  -10.7525    0.0000 C   0  0  1  0  0  0  0  0  0  0  0  0
   14.3825  -10.3400    0.0000 O   0  0  0  0  0  0  0  0  0  0  0  0
   12.9536  -10.3400    0.0000 C   0  0  0  0  0  0  0  0  0  0  0  0
   14.3825  -12.8150    0.0000 O   0  0  0  0  0  0  0  0  0  0  0  0
   17.2459   -7.8452    0.0000 O   0  0  0  0  0  0  0  0  0  0  0  0
   15.8114  -11.9900    0.0000 O   0  0  0  0  0  0  0  0  0  0  0  0
   12.9536  -11.9900    0.0000 O   0  0  0  0  0  0  0  0  0  0  0  0
   12.2391  -10.7525    0.0000 O   0  0  0  0  0  0  0  0  0  0  0  0
   13.6735   -9.0827    0.0000 O   0  0  0  0  0  0  0  0  0  0  0  0
  1  2  1  0  0  0  0
  2  3  1  0  0  0  0
  3  4  1  0  0  0  0
  4  5  1  0  0  0  0
  5  6  1  0  0  0  0
  1  6  1  0  0  0  0
  2  7  1  1  0  0  0
  6  8  1  1  0  0  0
  5  9  1  6  0  0  0
  4 10  1  1  0  0  0
 11 12  1  0  0  0  0
 12 13  1  0  0  0  0
 13 14  1  0  0  0  0
 14 15  1  0  0  0  0
 15 16  1  0  0  0  0
 16 11  1  0  0  0  0
 15  9  1  1  0  0  0
 11 17  1  1  0  0  0
 13 18  1  1  0  0  0
  1 19  1  6  0  0  0
 14 20  1  6  0  0  0
 12 21  1  6  0  0  0
 17 22  1  0  0  0  0
 10 23  1  0  0  0  0
M  END
>  <cdx:groupId>
11949

>  <cdx:fragmentId>
11902

$$$$
