1071.cdx
  Mrv1902 05222410282D          

 40 44  0  0  0  0            999 V2000
    5.8977  -10.5553    0.0000 O   0  0  0  0  0  0  0  0  0  0  0  0
    4.4842   -8.0714    0.0000 C   0  0  0  0  0  0  0  0  0  0  0  0
    3.7672   -8.4794    0.0000 O   0  0  0  0  0  0  0  0  0  0  0  0
    3.0553   -8.0625    0.0000 C   0  0  2  0  0  0  0  0  0  0  0  0
    3.0605   -7.2375    0.0000 O   0  0  0  0  0  0  0  0  0  0  0  0
    4.4740   -9.7214    0.0000 O   0  0  0  0  0  0  0  0  0  0  0  0
    2.3486   -6.8206    0.0000 C   0  0  2  0  0  0  0  0  0  0  0  0
    1.6316   -7.2286    0.0000 C   0  0  1  0  0  0  0  0  0  0  0  0
    1.6264   -8.0536    0.0000 C   0  0  2  0  0  0  0  0  0  0  0  0
    2.3383   -8.4705    0.0000 C   0  0  1  0  0  0  0  0  0  0  0  0
    0.9197   -6.8116    0.0000 O   0  0  0  0  0  0  0  0  0  0  0  0
    2.3537   -5.9956    0.0000 C   0  0  0  0  0  0  0  0  0  0  0  0
    2.3332   -9.2955    0.0000 O   0  0  0  0  0  0  0  0  0  0  0  0
    0.9094   -8.4616    0.0000 O   0  0  0  0  0  0  0  0  0  0  0  0
    8.7555  -10.5731    0.0000 O   0  0  0  0  0  0  0  0  0  0  0  0
   10.1845  -10.5820    0.0000 O   0  0  0  0  0  0  0  0  0  0  0  0
   13.0577   -8.1249    0.0000 C   0  0  0  0  0  0  0  0  0  0  0  0
   13.0629   -7.2999    0.0000 C   0  0  0  0  0  0  0  0  0  0  0  0
   12.3510   -6.8830    0.0000 C   0  0  0  0  0  0  0  0  0  0  0  0
   11.6340   -7.2910    0.0000 C   0  0  0  0  0  0  0  0  0  0  0  0
   12.3407   -8.5329    0.0000 C   0  0  0  0  0  0  0  0  0  0  0  0
   11.6288   -8.1160    0.0000 C   0  0  0  0  0  0  0  0  0  0  0  0
   10.1896   -9.7570    0.0000 C   0  0  0  0  0  0  0  0  0  0  0  0
   10.9066   -9.3490    0.0000 C   0  0  0  0  0  0  0  0  0  0  0  0
   10.9118   -8.5240    0.0000 C   0  0  2  0  0  0  0  0  0  0  0  0
   10.1999   -8.1071    0.0000 O   0  0  0  0  0  0  0  0  0  0  0  0
    8.7607   -9.7481    0.0000 C   0  0  0  0  0  0  0  0  0  0  0  0
    9.4777   -9.3401    0.0000 C   0  0  0  0  0  0  0  0  0  0  0  0
    9.4829   -8.5151    0.0000 C   0  0  0  0  0  0  0  0  0  0  0  0
    8.7710   -8.0982    0.0000 C   0  0  0  0  0  0  0  0  0  0  0  0
    7.3318   -9.7392    0.0000 O   0  0  0  0  0  0  0  0  0  0  0  0
    8.0488   -9.3312    0.0000 C   0  0  0  0  0  0  0  0  0  0  0  0
    8.0540   -8.5062    0.0000 C   0  0  0  0  0  0  0  0  0  0  0  0
    7.3421   -8.0892    0.0000 O   0  0  0  0  0  0  0  0  0  0  0  0
    5.9029   -9.7303    0.0000 C   0  0  2  0  0  0  0  0  0  0  0  0
    6.6199   -9.3223    0.0000 C   0  0  2  0  0  0  0  0  0  0  0  0
    6.6250   -8.4973    0.0000 C   0  0  1  0  0  0  0  0  0  0  0  0
    5.9132   -8.0803    0.0000 O   0  0  0  0  0  0  0  0  0  0  0  0
    5.1961   -8.4884    0.0000 C   0  0  1  0  0  0  0  0  0  0  0  0
    5.1910   -9.3133    0.0000 C   0  0  1  0  0  0  0  0  0  0  0  0
 35  1  1  1  0  0  0
  2  3  1  0  0  0  0
  4  3  1  1  0  0  0
 40  6  1  6  0  0  0
  4  5  1  0  0  0  0
  5  7  1  0  0  0  0
  7  8  1  0  0  0  0
  8  9  1  0  0  0  0
  9 10  1  0  0  0  0
 10  4  1  0  0  0  0
  8 11  1  1  0  0  0
  7 12  1  6  0  0  0
 10 13  1  6  0  0  0
 39  2  1  1  0  0  0
  9 14  1  6  0  0  0
 27 15  1  0  0  0  0
 23 16  2  0  0  0  0
 17 21  2  0  0  0  0
 18 17  1  0  0  0  0
 19 18  2  0  0  0  0
 20 19  1  0  0  0  0
 22 20  2  0  0  0  0
 22 21  1  0  0  0  0
 25 22  1  6  0  0  0
 23 28  1  0  0  0  0
 24 23  1  0  0  0  0
 25 24  1  0  0  0  0
 26 25  1  0  0  0  0
 29 26  1  0  0  0  0
 27 32  1  0  0  0  0
 28 27  2  0  0  0  0
 29 28  1  0  0  0  0
 30 29  2  0  0  0  0
 33 30  1  0  0  0  0
 36 31  1  6  0  0  0
 33 32  2  0  0  0  0
 34 33  1  0  0  0  0
 37 34  1  1  0  0  0
 35 40  1  0  0  0  0
 36 35  1  0  0  0  0
 37 36  1  0  0  0  0
 38 37  1  0  0  0  0
 39 38  1  0  0  0  0
 40 39  1  0  0  0  0
M  END
>  <cdx:fragmentId>
5

$$$$
