10713.cdx
  Mrv1902 05222410252D          

 32 35  0  0  0  0            999 V2000
    6.7064   -6.1875    0.0000 C   0  0  0  0  0  0  0  0  0  0  0  0
    6.7064   -7.0125    0.0000 C   0  0  0  0  0  0  0  0  0  0  0  0
    7.4209   -7.4250    0.0000 C   0  0  0  0  0  0  0  0  0  0  0  0
    8.1353   -7.0125    0.0000 C   0  0  0  0  0  0  0  0  0  0  0  0
    8.1353   -6.1875    0.0000 C   0  0  0  0  0  0  0  0  0  0  0  0
    7.4209   -5.7750    0.0000 C   0  0  0  0  0  0  0  0  0  0  0  0
    8.8498   -7.4250    0.0000 C   0  0  0  0  0  0  0  0  0  0  0  0
    9.5643   -7.0125    0.0000 C   0  0  0  0  0  0  0  0  0  0  0  0
    9.5643   -6.1875    0.0000 C   0  0  0  0  0  0  0  0  0  0  0  0
    8.8498   -5.7750    0.0000 O   0  0  0  0  0  0  0  0  0  0  0  0
   10.2788   -7.4250    0.0000 C   0  0  0  0  0  0  0  0  0  0  0  0
   10.9932   -7.0125    0.0000 C   0  0  0  0  0  0  0  0  0  0  0  0
   10.2788   -8.2500    0.0000 C   0  0  0  0  0  0  0  0  0  0  0  0
   10.9932   -8.6625    0.0000 C   0  0  0  0  0  0  0  0  0  0  0  0
   11.7077   -8.2500    0.0000 C   0  0  0  0  0  0  0  0  0  0  0  0
   11.7077   -7.4250    0.0000 C   0  0  0  0  0  0  0  0  0  0  0  0
    5.9919   -5.7750    0.0000 O   0  0  0  0  0  0  0  0  0  0  0  0
    8.8498   -8.2500    0.0000 O   0  0  0  0  0  0  0  0  0  0  0  0
   12.4222   -8.6625    0.0000 O   0  0  0  0  0  0  0  0  0  0  0  0
    3.8395   -6.1875    0.0000 C   0  0  2  0  0  0  0  0  0  0  0  0
    3.8395   -7.0125    0.0000 C   0  0  2  0  0  0  0  0  0  0  0  0
    4.5540   -7.4250    0.0000 C   0  0  1  0  0  0  0  0  0  0  0  0
    5.2685   -7.0125    0.0000 C   0  0  2  0  0  0  0  0  0  0  0  0
    5.2685   -6.1875    0.0000 C   0  0  1  0  0  0  0  0  0  0  0  0
    4.5540   -5.7750    0.0000 O   0  0  0  0  0  0  0  0  0  0  0  0
    3.1251   -5.7750    0.0000 C   0  0  0  0  0  0  0  0  0  0  0  0
    4.5540   -8.2500    0.0000 O   0  0  0  0  0  0  0  0  0  0  0  0
    5.9829   -7.4250    0.0000 O   0  0  0  0  0  0  0  0  0  0  0  0
    3.1251   -7.4250    0.0000 O   0  0  0  0  0  0  0  0  0  0  0  0
    2.4106   -6.1875    0.0000 O   0  0  0  0  0  0  0  0  0  0  0  0
    3.1251   -4.9500    0.0000 O   0  0  0  0  0  0  0  0  0  0  0  0
   12.4222   -9.4875    0.0000 C   0  0  0  0  0  0  0  0  0  0  0  0
  1  2  2  0  0  0  0
  2  3  1  0  0  0  0
  3  4  2  0  0  0  0
  4  5  1  0  0  0  0
  5  6  2  0  0  0  0
  6  1  1  0  0  0  0
  4  7  1  0  0  0  0
  7  8  1  0  0  0  0
  8  9  2  0  0  0  0
  9 10  1  0  0  0  0
 10  5  1  0  0  0  0
  8 11  1  0  0  0  0
 11 12  1  0  0  0  0
 11 13  2  0  0  0  0
 13 14  1  0  0  0  0
 14 15  2  0  0  0  0
 15 16  1  0  0  0  0
 16 12  2  0  0  0  0
  1 17  1  0  0  0  0
  7 18  2  0  0  0  0
 15 19  1  0  0  0  0
 20 21  1  0  0  0  0
 21 22  1  0  0  0  0
 22 23  1  0  0  0  0
 23 24  1  0  0  0  0
 24 25  1  0  0  0  0
 25 20  1  0  0  0  0
 20 26  1  1  0  0  0
 22 27  1  1  0  0  0
 23 28  1  6  0  0  0
 21 29  1  6  0  0  0
 26 30  1  0  0  0  0
 24 17  1  1  0  0  0
 26 31  2  0  0  0  0
 19 32  1  0  0  0  0
M  END
>  <cdx:fragmentId>
5

$$$$
