10719.cdx
  Mrv1902 05222410222D          

 14 15  0  0  0  0            999 V2000
    3.0013   -4.2095    0.0000 C   0  0  0  0  0  0  0  0  0  0  0  0
    2.5163   -3.5421    0.0000 C   0  0  0  0  0  0  0  0  0  0  0  0
    3.0013   -2.8747    0.0000 C   0  0  0  0  0  0  0  0  0  0  0  0
    3.7859   -3.1296    0.0000 C   0  0  0  0  0  0  0  0  0  0  0  0
    4.4309   -2.6152    0.0000 C   0  0  0  0  0  0  0  0  0  0  0  0
    5.2352   -2.7988    0.0000 C   0  0  0  0  0  0  0  0  0  0  0  0
    5.5932   -3.5421    0.0000 C   0  0  0  0  0  0  0  0  0  0  0  0
    5.2352   -4.2854    0.0000 C   0  0  0  0  0  0  0  0  0  0  0  0
    4.4309   -4.4690    0.0000 C   0  0  0  0  0  0  0  0  0  0  0  0
    3.7859   -3.9546    0.0000 C   0  0  0  0  0  0  0  0  0  0  0  0
    4.2473   -1.8109    0.0000 C   0  0  0  0  0  0  0  0  0  0  0  0
    2.7463   -4.9942    0.0000 C   0  0  0  0  0  0  0  0  0  0  0  0
    5.7496   -4.9304    0.0000 C   0  0  0  0  0  0  0  0  0  0  0  0
    6.5654   -4.8074    0.0000 C   0  0  0  0  0  0  0  0  0  0  0  0
  1  2  1  0  0  0  0
  2  3  2  0  0  0  0
  3  4  1  0  0  0  0
  4  5  2  0  0  0  0
  5  6  1  0  0  0  0
  6  7  2  0  0  0  0
  7  8  1  0  0  0  0
  8  9  2  0  0  0  0
  9 10  1  0  0  0  0
  1 10  2  0  0  0  0
  4 10  1  0  0  0  0
  5 11  1  0  0  0  0
  1 12  1  0  0  0  0
 13 14  1  0  0  0  0
  8 13  1  0  0  0  0
M  END
>  <cdx:groupId>
45

>  <cdx:fragmentId>
5

$$$$
