10727.cdx
  Mrv1902 05222410232D          

 22 25  0  0  0  0            999 V2000
    3.5920   -7.9612    0.0000 C   0  0  0  0  0  0  0  0  0  0  0  0
    3.5920   -8.7862    0.0000 C   0  0  0  0  0  0  0  0  0  0  0  0
    4.3065   -9.1987    0.0000 C   0  0  0  0  0  0  0  0  0  0  0  0
    5.0210   -8.7862    0.0000 C   0  0  0  0  0  0  0  0  0  0  0  0
    5.0210   -7.9612    0.0000 C   0  0  0  0  0  0  0  0  0  0  0  0
    4.3065   -7.5488    0.0000 C   0  0  0  0  0  0  0  0  0  0  0  0
    5.7354   -9.1987    0.0000 C   0  0  0  0  0  0  0  0  0  0  0  0
    6.4499   -8.7862    0.0000 C   0  0  0  0  0  0  0  0  0  0  0  0
    6.4499   -7.9612    0.0000 C   0  0  0  0  0  0  0  0  0  0  0  0
    5.7354   -7.5488    0.0000 C   0  0  0  0  0  0  0  0  0  0  0  0
    7.1644   -7.5488    0.0000 C   0  0  0  0  0  0  0  0  0  0  0  0
    7.1644   -6.7237    0.0000 C   0  0  0  0  0  0  0  0  0  0  0  0
    6.4499   -6.3113    0.0000 C   0  0  0  0  0  0  0  0  0  0  0  0
    5.7354   -6.7237    0.0000 C   0  0  0  0  0  0  0  0  0  0  0  0
    7.9490   -7.8037    0.0000 O   0  0  0  0  0  0  0  0  0  0  0  0
    8.4339   -7.1362    0.0000 C   0  0  0  0  0  0  0  0  0  0  0  0
    7.9490   -6.4688    0.0000 C   0  0  0  0  0  0  0  0  0  0  0  0
    4.3065  -10.0238    0.0000 C   0  0  0  0  0  0  0  0  0  0  0  0
    3.5920  -10.4363    0.0000 O   0  0  0  0  0  0  0  0  0  0  0  0
    8.1625   -5.6719    0.0000 C   0  0  0  0  0  0  0  0  0  0  0  0
    6.4499   -5.4863    0.0000 O   0  0  0  0  0  0  0  0  0  0  0  0
    5.0210   -6.3113    0.0000 O   0  0  0  0  0  0  0  0  0  0  0  0
  1  2  1  0  0  0  0
  2  3  2  0  0  0  0
  3  4  1  0  0  0  0
  4  5  2  0  0  0  0
  5  6  1  0  0  0  0
  6  1  2  0  0  0  0
  4  7  1  0  0  0  0
  7  8  2  0  0  0  0
  8  9  1  0  0  0  0
  9 10  2  0  0  0  0
 10  5  1  0  0  0  0
  9 11  1  0  0  0  0
 11 12  2  0  0  0  0
 12 13  1  0  0  0  0
 13 14  1  0  0  0  0
 14 10  1  0  0  0  0
 11 15  1  0  0  0  0
 15 16  1  0  0  0  0
 16 17  2  0  0  0  0
 17 12  1  0  0  0  0
  3 18  1  0  0  0  0
 18 19  2  0  0  0  0
 17 20  1  0  0  0  0
 13 21  2  0  0  0  0
 14 22  2  0  0  0  0
M  END
>  <cdx:fragmentId>
5

$$$$
