107272.cdx
  Mrv1902 05222410192D          

 14 14  0  0  0  0            999 V2000
    7.1752   -4.3688    0.0000 C   0  0  0  0  0  0  0  0  0  0  0  0
    6.4608   -4.7813    0.0000 C   0  0  0  0  0  0  0  0  0  0  0  0
    5.7463   -4.3688    0.0000 C   0  0  0  0  0  0  0  0  0  0  0  0
    5.0318   -4.7813    0.0000 C   0  0  0  0  0  0  0  0  0  0  0  0
    6.4608   -5.6063    0.0000 O   0  0  0  0  0  0  0  0  0  0  0  0
    4.3173   -4.3688    0.0000 C   0  0  0  0  0  0  0  0  0  0  0  0
    4.3173   -3.5438    0.0000 C   0  0  0  0  0  0  0  0  0  0  0  0
    3.6029   -3.1313    0.0000 C   0  0  0  0  0  0  0  0  0  0  0  0
    2.8884   -3.5438    0.0000 C   0  0  0  0  0  0  0  0  0  0  0  0
    2.8884   -4.3688    0.0000 C   0  0  0  0  0  0  0  0  0  0  0  0
    3.6029   -4.7813    0.0000 C   0  0  0  0  0  0  0  0  0  0  0  0
    3.6029   -5.6063    0.0000 C   0  0  0  0  0  0  0  0  0  0  0  0
    4.7298   -2.8293    0.0000 C   0  0  0  0  0  0  0  0  0  0  0  0
    5.1423   -3.5438    0.0000 C   0  0  0  0  0  0  0  0  0  0  0  0
  1  2  1  0  0  0  0
  2  3  1  0  0  0  0
  3  4  1  0  0  0  0
  2  5  1  0  0  0  0
  6  7  1  0  0  0  0
  7  8  1  0  0  0  0
  8  9  1  0  0  0  0
  9 10  1  0  0  0  0
 10 11  1  0  0  0  0
  6 11  1  0  0  0  0
 11 12  1  0  0  0  0
  7 13  1  0  0  0  0
  7 14  1  0  0  0  0
  4  6  1  0  0  0  0
M  END
>  <cdx:groupId>
121

>  <cdx:fragmentId>
92

$$$$
