107252.cdx
  Mrv1902 05222410272D          

 10 10  0  0  0  0            999 V2000
    3.1483   -2.9494    0.0000 C   0  0  0  0  0  0  0  0  0  0  0  0
    3.1483   -3.7744    0.0000 C   0  0  0  0  0  0  0  0  0  0  0  0
    2.4339   -4.1869    0.0000 C   0  0  0  0  0  0  0  0  0  0  0  0
    1.7194   -3.7744    0.0000 C   0  0  0  0  0  0  0  0  0  0  0  0
    1.7194   -2.9494    0.0000 C   0  0  0  0  0  0  0  0  0  0  0  0
    2.4339   -2.5369    0.0000 C   0  0  0  0  0  0  0  0  0  0  0  0
    3.8628   -4.1869    0.0000 C   0  0  0  0  0  0  0  0  0  0  0  0
    4.5773   -3.7744    0.0000 C   0  0  0  0  0  0  0  0  0  0  0  0
    5.2917   -4.1869    0.0000 C   0  0  0  0  0  0  0  0  0  0  0  0
    3.8628   -2.5369    0.0000 C   0  0  0  0  0  0  0  0  0  0  0  0
  1  2  1  0  0  0  0
  2  3  1  0  0  0  0
  3  4  1  0  0  0  0
  4  5  1  0  0  0  0
  5  6  1  0  0  0  0
  1  6  1  0  0  0  0
  7  8  1  0  0  0  0
  8  9  1  0  0  0  0
  2  7  1  0  0  0  0
  1 10  1  0  0  0  0
M  END
>  <cdx:groupId>
32

>  <cdx:fragmentId>
5

$$$$
