107207.cdx
  Mrv1902 05222410232D          

 12 13  0  0  0  0            999 V2000
    2.1882   -3.8362    0.0000 N   0  0  0  0  0  0  0  0  0  0  0  0
    2.9026   -3.4237    0.0000 C   0  0  0  0  0  0  0  0  0  0  0  0
    3.6171   -3.8362    0.0000 C   0  0  0  0  0  0  0  0  0  0  0  0
    3.6171   -4.6612    0.0000 C   0  0  0  0  0  0  0  0  0  0  0  0
    2.9026   -5.0737    0.0000 C   0  0  0  0  0  0  0  0  0  0  0  0
    2.1882   -4.6612    0.0000 C   0  0  0  0  0  0  0  0  0  0  0  0
    4.3316   -3.4237    0.0000 C   0  0  0  0  0  0  0  0  0  0  0  0
    4.3316   -2.5987    0.0000 C   0  0  0  0  0  0  0  0  0  0  0  0
    5.0461   -2.1863    0.0000 C   0  0  0  0  0  0  0  0  0  0  0  0
    5.7605   -2.5987    0.0000 C   0  0  0  0  0  0  0  0  0  0  0  0
    5.7605   -3.4238    0.0000 C   0  0  0  0  0  0  0  0  0  0  0  0
    5.0461   -3.8363    0.0000 C   0  0  0  0  0  0  0  0  0  0  0  0
  1  2  1  0  0  0  0
  2  3  1  0  0  0  0
  3  4  1  0  0  0  0
  4  5  1  0  0  0  0
  5  6  1  0  0  0  0
  1  6  1  0  0  0  0
  7  8  1  0  0  0  0
  8  9  2  0  0  0  0
  9 10  1  0  0  0  0
 10 11  2  0  0  0  0
 11 12  1  0  0  0  0
  7 12  2  0  0  0  0
  3  7  1  0  0  0  0
M  END
>  <cdx:groupId>
39

>  <cdx:fragmentId>
17

$$$$
