10722.cdx
  Mrv1902 05222410212D          

  9  9  0  0  0  0            999 V2000
    4.4503   -3.4856    0.0000 C   0  0  0  0  0  0  0  0  0  0  0  0
    3.7359   -3.0731    0.0000 C   0  0  0  0  0  0  0  0  0  0  0  0
    3.7359   -2.2481    0.0000 C   0  0  0  0  0  0  0  0  0  0  0  0
    3.0214   -1.8356    0.0000 C   0  0  0  0  0  0  0  0  0  0  0  0
    2.3069   -2.2481    0.0000 C   0  0  0  0  0  0  0  0  0  0  0  0
    2.3069   -3.0731    0.0000 C   0  0  0  0  0  0  0  0  0  0  0  0
    3.0214   -3.4856    0.0000 C   0  0  0  0  0  0  0  0  0  0  0  0
    5.1648   -3.0731    0.0000 O   0  0  0  0  0  0  0  0  0  0  0  0
    4.4503   -1.8356    0.0000 C   0  0  0  0  0  0  0  0  0  0  0  0
  1  2  1  0  0  0  0
  2  3  1  0  0  0  0
  3  4  2  0  0  0  0
  4  5  1  0  0  0  0
  5  6  2  0  0  0  0
  6  7  1  0  0  0  0
  2  7  2  0  0  0  0
  1  8  2  0  0  0  0
  3  9  1  0  0  0  0
M  END
>  <cdx:groupId>
29

>  <cdx:fragmentId>
5

$$$$
