10726.cdx
  Mrv1902 05222410232D          

 12 12  0  0  0  0            999 V2000
    4.9178   -2.5504    0.0000 C   0  0  0  0  0  0  0  0  0  0  0  0
    4.2034   -2.9629    0.0000 C   0  0  0  0  0  0  0  0  0  0  0  0
    3.4889   -2.5504    0.0000 C   0  0  0  0  0  0  0  0  0  0  0  0
    4.9178   -1.7254    0.0000 O   0  0  0  0  0  0  0  0  0  0  0  0
    5.6323   -2.9629    0.0000 O   0  0  0  0  0  0  0  0  0  0  0  0
    4.2034   -3.7879    0.0000 C   0  0  0  0  0  0  0  0  0  0  0  0
    4.9178   -4.2004    0.0000 C   0  0  0  0  0  0  0  0  0  0  0  0
    4.9178   -5.0254    0.0000 C   0  0  0  0  0  0  0  0  0  0  0  0
    4.2034   -5.4379    0.0000 C   0  0  0  0  0  0  0  0  0  0  0  0
    3.4889   -5.0254    0.0000 C   0  0  0  0  0  0  0  0  0  0  0  0
    3.4889   -4.2004    0.0000 C   0  0  0  0  0  0  0  0  0  0  0  0
    2.7744   -2.9629    0.0000 O   0  0  0  0  0  0  0  0  0  0  0  0
  1  2  1  0  0  0  0
  2  3  1  0  0  0  0
  1  4  2  0  0  0  0
  1  5  1  0  0  0  0
  6  7  1  0  0  0  0
  7  8  2  0  0  0  0
  8  9  1  0  0  0  0
  9 10  2  0  0  0  0
 10 11  1  0  0  0  0
  6 11  2  0  0  0  0
  2  6  1  0  0  0  0
  3 12  1  0  0  0  0
M  END
>  <cdx:groupId>
38

>  <cdx:fragmentId>
15

$$$$
