107372.cdx
  Mrv1902 05222410222D          

 11 11  0  0  0  0            999 V2000
    6.6449   -5.9345    0.0000 C   0  0  0  0  0  0  0  0  0  0  0  0
    7.3576   -5.5189    0.0000 C   0  0  0  0  0  0  0  0  0  0  0  0
    8.0738   -5.9283    0.0000 C   0  0  0  0  0  0  0  0  0  0  0  0
    8.0774   -6.7533    0.0000 C   0  0  0  0  0  0  0  0  0  0  0  0
    7.3647   -7.1689    0.0000 C   0  0  0  0  0  0  0  0  0  0  0  0
    6.6484   -6.7595    0.0000 C   0  0  0  0  0  0  0  0  0  0  0  0
    7.3682   -7.9939    0.0000 C   0  0  0  0  0  0  0  0  0  0  0  0
    7.3540   -4.6939    0.0000 C   0  0  0  0  0  0  0  0  0  0  0  0
    8.0667   -4.2784    0.0000 C   0  0  0  0  0  0  0  0  0  0  0  0
    6.6378   -4.2845    0.0000 C   0  0  0  0  0  0  0  0  0  0  0  0
    5.9287   -5.5250    0.0000 O   0  0  0  0  0  0  0  0  0  0  0  0
  1  2  1  0  0  0  0
  2  3  2  0  0  0  0
  3  4  1  0  0  0  0
  4  5  1  0  0  0  0
  5  6  1  0  0  0  0
  1  6  1  0  0  0  0
  5  7  1  0  0  0  0
  8  9  1  0  0  0  0
  8 10  1  0  0  0  0
  2  8  1  0  0  0  0
  1 11  2  0  0  0  0
M  END
>  <cdx:groupId>
35

>  <cdx:fragmentId>
5

$$$$
