10734.cdx
  Mrv1902 05222410212D          

 53 57  0  0  0  0            999 V2000
    4.6349   -7.8201    0.0000 C   0  0  0  0  0  0  0  0  0  0  0  0
    7.4928   -9.4701    0.0000 O   0  0  0  0  0  0  0  0  0  0  0  0
    6.0639  -10.2951    0.0000 O   0  0  0  0  0  0  0  0  0  0  0  0
    3.3073   -4.3805    0.0000 O   0  0  0  0  0  0  0  0  0  0  0  0
    4.6349   -5.3451    0.0000 O   0  0  0  0  0  0  0  0  0  0  0  0
   13.2086   -5.3451    0.0000 O   0  0  0  0  0  0  0  0  0  0  0  0
   13.2086   -6.9951    0.0000 O   0  0  0  0  0  0  0  0  0  0  0  0
    4.6349   -9.4701    0.0000 O   0  0  0  0  0  0  0  0  0  0  0  0
    2.5929   -3.9680    0.0000 O   0  0  0  0  0  0  0  0  0  0  0  0
    3.3073   -3.5555    0.0000 C   0  0  0  0  0  0  0  0  0  0  0  0
    5.1779   -3.3006    0.0000 O   0  0  0  0  0  0  0  0  0  0  0  0
    4.3574   -3.2144    0.0000 C   0  0  0  0  0  0  0  0  0  0  0  0
    4.0218   -3.9680    0.0000 C   0  0  2  0  0  0  0  0  0  0  0  0
    4.6349   -4.5201    0.0000 C   0  0  2  0  0  0  0  0  0  0  0  0
    5.3494   -4.1076    0.0000 C   0  0  2  0  0  0  0  0  0  0  0  0
    6.0639   -4.5201    0.0000 O   0  0  0  0  0  0  0  0  0  0  0  0
    6.0639   -5.3451    0.0000 C   0  0  0  0  0  0  0  0  0  0  0  0
   11.7796   -6.9951    0.0000 C   0  0  0  0  0  0  0  0  0  0  0  0
   12.4941   -6.5826    0.0000 C   0  0  0  0  0  0  0  0  0  0  0  0
   12.4941   -5.7576    0.0000 C   0  0  0  0  0  0  0  0  0  0  0  0
   11.7796   -5.3451    0.0000 C   0  0  0  0  0  0  0  0  0  0  0  0
   11.0652   -6.5826    0.0000 C   0  0  0  0  0  0  0  0  0  0  0  0
   11.0652   -5.7576    0.0000 C   0  0  0  0  0  0  0  0  0  0  0  0
   10.3507   -5.3451    0.0000 C   0  0  0  0  0  0  0  0  0  0  0  0
    8.9217   -6.9951    0.0000 O   0  0  0  0  0  0  0  0  0  0  0  0
    9.6362   -5.7576    0.0000 C   0  0  0  0  0  0  0  0  0  0  0  0
    8.9217   -5.3451    0.0000 O   0  0  0  0  0  0  0  0  0  0  0  0
    8.2073   -6.5826    0.0000 C   0  0  1  0  0  0  0  0  0  0  0  0
    8.2073   -5.7576    0.0000 C   0  0  1  0  0  0  0  0  0  0  0  0
    7.4928   -5.3451    0.0000 O   0  0  0  0  0  0  0  0  0  0  0  0
    6.7783   -5.7576    0.0000 C   0  0  1  0  0  0  0  0  0  0  0  0
    6.0639   -7.8201    0.0000 O   0  0  0  0  0  0  0  0  0  0  0  0
    5.3494   -8.2326    0.0000 C   0  0  2  0  0  0  0  0  0  0  0  0
    5.3494   -9.0576    0.0000 C   0  0  1  0  0  0  0  0  0  0  0  0
    6.0639   -9.4701    0.0000 C   0  0  2  0  0  0  0  0  0  0  0  0
    6.7783   -9.0576    0.0000 C   0  0  2  0  0  0  0  0  0  0  0  0
    6.7783   -8.2326    0.0000 C   0  0  2  0  0  0  0  0  0  0  0  0
    7.4928   -7.8201    0.0000 O   0  0  0  0  0  0  0  0  0  0  0  0
    7.4928   -6.9951    0.0000 C   0  0  1  0  0  0  0  0  0  0  0  0
    6.7783   -6.5826    0.0000 C   0  0  2  0  0  0  0  0  0  0  0  0
    5.3494   -5.7576    0.0000 O   0  0  0  0  0  0  0  0  0  0  0  0
    6.0639   -6.9951    0.0000 O   0  0  0  0  0  0  0  0  0  0  0  0
    5.3494   -6.5826    0.0000 C   0  0  0  0  0  0  0  0  0  0  0  0
    4.6349   -6.9951    0.0000 C   0  0  0  0  0  0  0  0  0  0  0  0
    3.9204   -6.5826    0.0000 C   0  0  0  0  0  0  0  0  0  0  0  0
    1.0626   -6.5826    0.0000 O   0  0  0  0  0  0  0  0  0  0  0  0
    1.0626   -8.2326    0.0000 O   0  0  0  0  0  0  0  0  0  0  0  0
    2.4915   -8.2326    0.0000 C   0  0  0  0  0  0  0  0  0  0  0  0
    3.2060   -7.8201    0.0000 C   0  0  0  0  0  0  0  0  0  0  0  0
    3.2060   -6.9951    0.0000 C   0  0  0  0  0  0  0  0  0  0  0  0
    2.4915   -6.5826    0.0000 C   0  0  0  0  0  0  0  0  0  0  0  0
    1.7770   -6.9951    0.0000 C   0  0  0  0  0  0  0  0  0  0  0  0
    1.7770   -7.8201    0.0000 C   0  0  0  0  0  0  0  0  0  0  0  0
 33  1  1  6  0  0  0
 36  2  1  6  0  0  0
 35  3  1  6  0  0  0
 13  4  1  6  0  0  0
 14  5  1  6  0  0  0
 20  6  1  0  0  0  0
 19  7  1  0  0  0  0
 34  8  1  1  0  0  0
 10  9  1  0  0  0  0
 13 10  1  1  0  0  0
 11 15  1  0  0  0  0
 12 11  1  0  0  0  0
 13 12  1  0  0  0  0
 14 13  1  0  0  0  0
 15 14  1  0  0  0  0
 15 16  1  1  0  0  0
 17 16  1  0  0  0  0
 31 17  1  1  0  0  0
 18 22  1  0  0  0  0
 19 18  2  0  0  0  0
 20 19  1  0  0  0  0
 21 20  2  0  0  0  0
 23 21  1  0  0  0  0
 23 22  2  0  0  0  0
 24 23  1  0  0  0  0
 26 24  1  0  0  0  0
 28 25  1  6  0  0  0
 27 26  1  0  0  0  0
 29 27  1  1  0  0  0
 28 39  1  0  0  0  0
 29 28  1  0  0  0  0
 30 29  1  0  0  0  0
 31 30  1  0  0  0  0
 40 31  1  0  0  0  0
 32 37  1  0  0  0  0
 33 32  1  0  0  0  0
 34 33  1  0  0  0  0
 35 34  1  0  0  0  0
 36 35  1  0  0  0  0
 37 36  1  0  0  0  0
 37 38  1  1  0  0  0
 39 38  1  1  0  0  0
 40 39  1  0  0  0  0
 40 42  1  6  0  0  0
 43 41  2  0  0  0  0
 43 42  1  0  0  0  0
 44 43  1  0  0  0  0
 45 44  2  0  0  0  0
 50 45  1  0  0  0  0
 52 46  1  0  0  0  0
 53 47  1  0  0  0  0
 48 53  1  0  0  0  0
 49 48  2  0  0  0  0
 50 49  1  0  0  0  0
 51 50  2  0  0  0  0
 52 51  1  0  0  0  0
 53 52  2  0  0  0  0
M  END
>  <cdx:fragmentId>
5

$$$$
