1073.cdx
  Mrv1902 05222410272D          

 34 37  0  0  0  0            999 V2000
    2.3958   -8.5181    0.0000 C   0  0  2  0  0  0  0  0  0  0  0  0
    2.3958   -9.3431    0.0000 C   0  0  2  0  0  0  0  0  0  0  0  0
    3.1102   -9.7556    0.0000 C   0  0  1  0  0  0  0  0  0  0  0  0
    3.8247   -9.3431    0.0000 C   0  0  2  0  0  0  0  0  0  0  0  0
    3.8247   -8.5181    0.0000 C   0  0  1  0  0  0  0  0  0  0  0  0
    3.1102   -8.1056    0.0000 O   0  0  0  0  0  0  0  0  0  0  0  0
    4.5392   -8.1056    0.0000 O   0  0  0  0  0  0  0  0  0  0  0  0
    4.5392   -7.2806    0.0000 C   0  0  0  0  0  0  0  0  0  0  0  0
    3.8247   -6.8681    0.0000 C   0  0  0  0  0  0  0  0  0  0  0  0
    5.2537   -6.8681    0.0000 C   0  0  0  0  0  0  0  0  0  0  0  0
    5.2537   -6.0431    0.0000 C   0  0  0  0  0  0  0  0  0  0  0  0
    4.5392   -5.6306    0.0000 C   0  0  0  0  0  0  0  0  0  0  0  0
    3.8247   -6.0431    0.0000 C   0  0  0  0  0  0  0  0  0  0  0  0
    5.9681   -8.1056    0.0000 C   0  0  0  0  0  0  0  0  0  0  0  0
    5.9681   -7.2806    0.0000 C   0  0  0  0  0  0  0  0  0  0  0  0
    6.6826   -8.5181    0.0000 C   0  0  0  0  0  0  0  0  0  0  0  0
    7.3971   -8.1056    0.0000 O   0  0  0  0  0  0  0  0  0  0  0  0
    7.3971   -7.2806    0.0000 C   0  0  2  0  0  0  0  0  0  0  0  0
    8.8260   -8.1056    0.0000 C   0  0  0  0  0  0  0  0  0  0  0  0
    8.8260   -7.2806    0.0000 C   0  0  0  0  0  0  0  0  0  0  0  0
    8.1115   -6.8681    0.0000 C   0  0  0  0  0  0  0  0  0  0  0  0
    9.5405   -8.5181    0.0000 C   0  0  0  0  0  0  0  0  0  0  0  0
   10.2550   -8.1056    0.0000 C   0  0  0  0  0  0  0  0  0  0  0  0
   10.2550   -7.2806    0.0000 C   0  0  0  0  0  0  0  0  0  0  0  0
    9.5405   -6.8681    0.0000 C   0  0  0  0  0  0  0  0  0  0  0  0
   10.9694   -8.5181    0.0000 O   0  0  0  0  0  0  0  0  0  0  0  0
    1.6813   -8.1056    0.0000 C   0  0  0  0  0  0  0  0  0  0  0  0
    0.9668   -8.5181    0.0000 O   0  0  0  0  0  0  0  0  0  0  0  0
    6.6826   -9.3431    0.0000 O   0  0  0  0  0  0  0  0  0  0  0  0
    3.1102   -5.6306    0.0000 O   0  0  0  0  0  0  0  0  0  0  0  0
    2.3958   -6.0431    0.0000 C   0  0  0  0  0  0  0  0  0  0  0  0
    3.1102  -10.5806    0.0000 O   0  0  0  0  0  0  0  0  0  0  0  0
    4.5392   -9.7556    0.0000 O   0  0  0  0  0  0  0  0  0  0  0  0
    1.6813   -9.7556    0.0000 O   0  0  0  0  0  0  0  0  0  0  0  0
  1  2  1  0  0  0  0
  2  3  1  0  0  0  0
  3  4  1  0  0  0  0
  4  5  1  0  0  0  0
  5  6  1  0  0  0  0
  6  1  1  0  0  0  0
  5  7  1  1  0  0  0
  7  8  1  0  0  0  0
  8  9  1  0  0  0  0
  8 10  2  0  0  0  0
 10 11  1  0  0  0  0
 11 12  2  0  0  0  0
 12 13  1  0  0  0  0
 13  9  2  0  0  0  0
 14 15  2  0  0  0  0
 15 10  1  0  0  0  0
 14 16  1  0  0  0  0
 16 17  1  0  0  0  0
 17 18  1  0  0  0  0
 15 18  1  0  0  0  0
 19 20  2  0  0  0  0
 20 21  1  0  0  0  0
 18 21  1  1  0  0  0
 19 22  1  0  0  0  0
 22 23  2  0  0  0  0
 23 24  1  0  0  0  0
 24 25  2  0  0  0  0
 25 20  1  0  0  0  0
 23 26  1  0  0  0  0
  1 27  1  1  0  0  0
 27 28  1  0  0  0  0
 16 29  2  0  0  0  0
 13 30  1  0  0  0  0
 30 31  1  0  0  0  0
  3 32  1  1  0  0  0
  4 33  1  6  0  0  0
  2 34  1  6  0  0  0
M  END
>  <cdx:fragmentId>
5

$$$$
