1074.cdx
  Mrv1902 05222410262D          

 22 26  0  0  0  0            999 V2000
    4.7907   -8.8638    0.0000 C   0  0  0  0  0  0  0  0  0  0  0  0
    4.7955   -9.6888    0.0000 C   0  0  0  0  0  0  0  0  0  0  0  0
    5.5124  -10.0971    0.0000 C   0  0  0  0  0  0  0  0  0  0  0  0
    6.2244   -9.6804    0.0000 C   0  0  0  0  0  0  0  0  0  0  0  0
    6.2196   -8.8554    0.0000 C   0  0  0  0  0  0  0  0  0  0  0  0
    5.5027   -8.4471    0.0000 C   0  0  0  0  0  0  0  0  0  0  0  0
    6.9413  -10.0887    0.0000 C   0  0  0  0  0  0  0  0  0  0  0  0
    7.6533   -9.6721    0.0000 C   0  0  2  0  0  0  0  0  0  0  0  0
    7.6485   -8.8471    0.0000 C   0  0  0  0  0  0  0  0  0  0  0  0
    6.9316   -8.4388    0.0000 C   0  0  0  0  0  0  0  0  0  0  0  0
    8.3702  -10.0804    0.0000 N   0  0  0  0  0  0  0  0  0  0  0  0
    9.0823   -9.6637    0.0000 C   0  0  0  0  0  0  0  0  0  0  0  0
    9.0774   -8.8387    0.0000 C   0  0  0  0  0  0  0  0  0  0  0  0
    8.3605   -8.4304    0.0000 C   0  0  0  0  0  0  0  0  0  0  0  0
    8.3557   -7.6054    0.0000 C   0  0  0  0  0  0  0  0  0  0  0  0
    7.6388   -7.1971    0.0000 C   0  0  0  0  0  0  0  0  0  0  0  0
    6.9268   -7.6138    0.0000 C   0  0  0  0  0  0  0  0  0  0  0  0
    7.4626   -6.3911    0.0000 O   0  0  0  0  0  0  0  0  0  0  0  0
    6.6416   -6.3097    0.0000 C   0  0  0  0  0  0  0  0  0  0  0  0
    6.3105   -7.0653    0.0000 O   0  0  0  0  0  0  0  0  0  0  0  0
    8.3751  -10.9053    0.0000 C   0  0  0  0  0  0  0  0  0  0  0  0
    7.6582  -10.4970    0.0000 H   0  0  0  0  0  0  0  0  0  0  0  0
  1  2  1  0  0  0  0
  2  3  2  0  0  0  0
  3  4  1  0  0  0  0
  4  5  2  0  0  0  0
  5  6  1  0  0  0  0
  6  1  2  0  0  0  0
  4  7  1  0  0  0  0
  7  8  1  0  0  0  0
  8  9  1  0  0  0  0
  9 10  2  0  0  0  0
 10  5  1  0  0  0  0
  8 11  1  0  0  0  0
 11 12  1  0  0  0  0
 12 13  1  0  0  0  0
 13 14  1  0  0  0  0
 14  9  1  0  0  0  0
 14 15  2  0  0  0  0
 15 16  1  0  0  0  0
 16 17  2  0  0  0  0
 17 10  1  0  0  0  0
 16 18  1  0  0  0  0
 18 19  1  0  0  0  0
 19 20  1  0  0  0  0
 20 17  1  0  0  0  0
 11 21  1  0  0  0  0
  8 22  1  1  0  0  0
M  END
>  <cdx:fragmentId>
5

$$$$
