10747.cdx
  Mrv1902 05222410192D          

 41 45  0  0  0  0            999 V2000
    6.7083   -9.9906    0.0000 C   0  0  0  0  0  0  0  0  0  0  0  0
    7.5215  -10.1300    0.0000 C   0  0  0  0  0  0  0  0  0  0  0  0
    8.0488   -9.4956    0.0000 C   0  0  0  0  0  0  0  0  0  0  0  0
    7.7630   -8.7217    0.0000 C   0  0  0  0  0  0  0  0  0  0  0  0
    6.9499   -8.5822    0.0000 C   0  0  0  0  0  0  0  0  0  0  0  0
    6.4225   -9.2167    0.0000 C   0  0  0  0  0  0  0  0  0  0  0  0
    6.1810  -10.6250    0.0000 O   0  0  0  0  0  0  0  0  0  0  0  0
    7.8073  -10.9039    0.0000 O   0  0  0  0  0  0  0  0  0  0  0  0
    6.6641   -7.8083    0.0000 C   0  0  1  0  0  0  0  0  0  0  0  0
    7.1222   -7.1222    0.0000 O   0  0  0  0  0  0  0  0  0  0  0  0
    6.6112   -6.4745    0.0000 C   0  0  0  0  0  0  0  0  0  0  0  0
    5.8373   -6.7603    0.0000 C   0  0  0  0  0  0  0  0  0  0  0  0
    5.8700   -7.5846    0.0000 C   0  0  2  0  0  0  0  0  0  0  0  0
    5.0432   -6.5366    0.0000 C   0  0  2  0  0  0  0  0  0  0  0  0
    4.5851   -7.2227    0.0000 O   0  0  0  0  0  0  0  0  0  0  0  0
    5.0961   -7.8704    0.0000 C   0  0  0  0  0  0  0  0  0  0  0  0
    4.8324   -5.6918    0.0000 C   0  0  0  0  0  0  0  0  0  0  0  0
    5.4257   -5.1185    0.0000 C   0  0  0  0  0  0  0  0  0  0  0  0
    5.2259   -4.3181    0.0000 C   0  0  0  0  0  0  0  0  0  0  0  0
    4.4327   -4.0909    0.0000 C   0  0  0  0  0  0  0  0  0  0  0  0
    3.8394   -4.6642    0.0000 C   0  0  0  0  0  0  0  0  0  0  0  0
    4.0393   -5.4646    0.0000 C   0  0  0  0  0  0  0  0  0  0  0  0
    5.9768   -5.9471    0.0000 O   0  0  0  0  0  0  0  0  0  0  0  0
    6.7507   -5.6613    0.0000 C   0  0  0  0  0  0  0  0  0  0  0  0
    7.3851   -6.1887    0.0000 O   0  0  0  0  0  0  0  0  0  0  0  0
    8.1591   -5.9029    0.0000 C   0  0  0  0  0  0  0  0  0  0  0  0
    8.2985   -5.0897    0.0000 C   0  0  0  0  0  0  0  0  0  0  0  0
    7.6640   -4.5624    0.0000 C   0  0  0  0  0  0  0  0  0  0  0  0
    6.8901   -4.8482    0.0000 C   0  0  0  0  0  0  0  0  0  0  0  0
    6.2557   -4.3209    0.0000 O   0  0  0  0  0  0  0  0  0  0  0  0
    7.8035   -3.7493    0.0000 O   0  0  0  0  0  0  0  0  0  0  0  0
    9.0724   -4.8039    0.0000 O   0  0  0  0  0  0  0  0  0  0  0  0
    8.7935   -6.4302    0.0000 C   0  0  0  0  0  0  0  0  0  0  0  0
    9.5674   -6.1444    0.0000 O   0  0  0  0  0  0  0  0  0  0  0  0
    6.4668  -11.3990    0.0000 C   0  0  0  0  0  0  0  0  0  0  0  0
    3.0463   -4.4370    0.0000 O   0  0  0  0  0  0  0  0  0  0  0  0
    4.2329   -3.2905    0.0000 O   0  0  0  0  0  0  0  0  0  0  0  0
    5.8192   -3.7449    0.0000 O   0  0  0  0  0  0  0  0  0  0  0  0
    2.4530   -5.0102    0.0000 C   0  0  0  0  0  0  0  0  0  0  0  0
    5.6193   -2.9444    0.0000 C   0  0  0  0  0  0  0  0  0  0  0  0
    5.9026   -8.4090    0.0000 H   0  0  0  0  0  0  0  0  0  0  0  0
  1  2  2  0  0  0  0
  2  3  1  0  0  0  0
  3  4  2  0  0  0  0
  4  5  1  0  0  0  0
  5  6  2  0  0  0  0
  6  1  1  0  0  0  0
  1  7  1  0  0  0  0
  2  8  1  0  0  0  0
  9  5  1  6  0  0  0
  9 10  1  0  0  0  0
 10 11  1  0  0  0  0
 11 12  1  0  0  0  0
 12 13  1  0  0  0  0
 13  9  1  0  0  0  0
 12 14  1  0  0  0  0
 14 15  1  0  0  0  0
 15 16  1  0  0  0  0
 16 13  1  0  0  0  0
 14 17  1  6  0  0  0
 17 18  2  0  0  0  0
 18 19  1  0  0  0  0
 19 20  2  0  0  0  0
 20 21  1  0  0  0  0
 21 22  2  0  0  0  0
 22 17  1  0  0  0  0
 12 23  1  0  0  0  0
 23 24  1  0  0  0  0
 24 25  1  0  0  0  0
 25 26  1  0  0  0  0
 26 27  1  0  0  0  0
 27 28  1  0  0  0  0
 28 29  1  0  0  0  0
 29 24  1  0  0  0  0
 29 30  1  0  0  0  0
 28 31  1  0  0  0  0
 27 32  1  0  0  0  0
 26 33  1  0  0  0  0
 33 34  1  0  0  0  0
  7 35  1  0  0  0  0
 21 36  1  0  0  0  0
 20 37  1  0  0  0  0
 19 38  1  0  0  0  0
 36 39  1  0  0  0  0
 38 40  1  0  0  0  0
 13 41  1  6  0  0  0
M  END
>  <cdx:fragmentId>
5

$$$$
