10758.cdx
  Mrv1902 05222410282D          

 10 10  0  0  0  0            999 V2000
    5.5622   -4.0972    0.0000 C   0  0  0  0  0  0  0  0  0  0  0  0
    4.8477   -3.6847    0.0000 C   0  0  0  0  0  0  0  0  0  0  0  0
    6.2766   -4.5097    0.0000 N   0  0  0  0  0  0  0  0  0  0  0  0
    4.1332   -4.0972    0.0000 C   0  0  0  0  0  0  0  0  0  0  0  0
    4.1332   -4.9222    0.0000 C   0  0  0  0  0  0  0  0  0  0  0  0
    3.4187   -5.3347    0.0000 C   0  0  0  0  0  0  0  0  0  0  0  0
    2.7043   -4.9222    0.0000 C   0  0  0  0  0  0  0  0  0  0  0  0
    2.7043   -4.0972    0.0000 C   0  0  0  0  0  0  0  0  0  0  0  0
    3.4187   -3.6847    0.0000 C   0  0  0  0  0  0  0  0  0  0  0  0
    4.8477   -2.8597    0.0000 O   0  0  0  0  0  0  0  0  0  0  0  0
  1  2  1  0  0  0  0
  1  3  3  0  0  0  0
  4  5  1  0  0  0  0
  5  6  2  0  0  0  0
  6  7  1  0  0  0  0
  7  8  2  0  0  0  0
  8  9  1  0  0  0  0
  4  9  2  0  0  0  0
  2  4  1  0  0  0  0
  2 10  1  0  0  0  0
M  END
>  <cdx:groupId>
32

>  <cdx:fragmentId>
11

$$$$
