10769.cdx
  Mrv1902 05222410182D          

 17 19  0  0  0  0            999 V2000
    6.1760   -9.1162    0.0000 H   0  0  0  0  0  0  0  0  0  0  0  0
    8.6031   -9.3431    0.0000 C   0  0  0  0  0  0  0  0  0  0  0  0
    6.1760   -6.6413    0.0000 C   0  0  0  0  0  0  0  0  0  0  0  0
    5.4615   -9.5287    0.0000 C   0  0  0  0  0  0  0  0  0  0  0  0
    8.3895   -8.5462    0.0000 C   0  0  0  0  0  0  0  0  0  0  0  0
    8.8745   -7.8788    0.0000 C   0  0  0  0  0  0  0  0  0  0  0  0
    8.3895   -7.2113    0.0000 O   0  0  0  0  0  0  0  0  0  0  0  0
    6.8904   -8.7037    0.0000 C   0  0  0  0  0  0  0  0  0  0  0  0
    7.6049   -8.2912    0.0000 C   0  0  0  0  0  0  0  0  0  0  0  0
    7.6049   -7.4663    0.0000 C   0  0  0  0  0  0  0  0  0  0  0  0
    6.8904   -7.0537    0.0000 C   0  0  0  0  0  0  0  0  0  0  0  0
    5.4615   -8.7037    0.0000 C   0  0  0  0  0  0  0  0  0  0  0  0
    6.1760   -8.2912    0.0000 C   0  0  1  0  0  0  0  0  0  0  0  0
    6.1760   -7.4663    0.0000 C   0  0  1  0  0  0  0  0  0  0  0  0
    5.4615   -7.0537    0.0000 C   0  0  0  0  0  0  0  0  0  0  0  0
    4.7470   -7.4663    0.0000 C   0  0  0  0  0  0  0  0  0  0  0  0
    4.7470   -8.2912    0.0000 C   0  0  0  0  0  0  0  0  0  0  0  0
 13  1  1  6  0  0  0
  5  2  1  0  0  0  0
 14  3  1  1  0  0  0
 12  4  1  0  0  0  0
  5  9  1  0  0  0  0
  6  5  2  0  0  0  0
  7  6  1  0  0  0  0
 10  7  1  0  0  0  0
  8 13  1  0  0  0  0
  9  8  1  0  0  0  0
 10  9  2  0  0  0  0
 11 10  1  0  0  0  0
 14 11  1  0  0  0  0
 12 17  2  0  0  0  0
 13 12  1  0  0  0  0
 14 13  1  0  0  0  0
 15 14  1  0  0  0  0
 16 15  2  0  0  0  0
 17 16  1  0  0  0  0
M  END
>  <cdx:fragmentId>
5

$$$$
