10772.cdx
  Mrv1902 05222410272D          

 12 13  0  0  0  0            999 V2000
    8.2070   -4.2419    0.0000 O   0  0  0  0  0  0  0  0  0  0  0  0
    8.6919   -4.9094    0.0000 C   0  0  0  0  0  0  0  0  0  0  0  0
    8.2070   -5.5768    0.0000 N   0  0  0  0  0  0  0  0  0  0  0  0
    7.4224   -5.3219    0.0000 C   0  0  0  0  0  0  0  0  0  0  0  0
    7.4224   -4.4969    0.0000 C   0  0  0  0  0  0  0  0  0  0  0  0
    6.7079   -5.7344    0.0000 C   0  0  0  0  0  0  0  0  0  0  0  0
    5.9934   -5.3219    0.0000 C   0  0  0  0  0  0  0  0  0  0  0  0
    5.9934   -4.4969    0.0000 C   0  0  0  0  0  0  0  0  0  0  0  0
    6.7079   -4.0844    0.0000 C   0  0  0  0  0  0  0  0  0  0  0  0
    9.5169   -4.9094    0.0000 O   0  0  0  0  0  0  0  0  0  0  0  0
    5.2789   -4.0844    0.0000 O   0  0  0  0  0  0  0  0  0  0  0  0
    4.5645   -4.4969    0.0000 C   0  0  0  0  0  0  0  0  0  0  0  0
  1  2  1  0  0  0  0
  2  3  1  0  0  0  0
  3  4  1  0  0  0  0
  4  5  1  0  0  0  0
  1  5  1  0  0  0  0
  6  7  1  0  0  0  0
  7  8  2  0  0  0  0
  8  9  1  0  0  0  0
  9  5  2  0  0  0  0
  6  4  2  0  0  0  0
  2 10  2  0  0  0  0
 11 12  1  0  0  0  0
  8 11  1  0  0  0  0
M  END
>  <cdx:fragmentId>
5

$$$$
