107735.cdx
  Mrv1902 05222410282D          

  6  5  0  0  0  0            999 V2000
    7.8446   -5.1612    0.0000 C   0  0  0  0  0  0  0  0  0  0  0  0
    7.1302   -4.7487    0.0000 C   0  0  0  0  0  0  0  0  0  0  0  0
    7.1302   -3.9237    0.0000 O   0  0  0  0  0  0  0  0  0  0  0  0
    6.4157   -5.1612    0.0000 C   0  0  0  0  0  0  0  0  0  0  0  0
    7.8446   -5.9862    0.0000 O   0  0  0  0  0  0  0  0  0  0  0  0
    8.5591   -4.7487    0.0000 O   0  5  0  0  0  0  0  0  0  0  0  0
  1  2  1  0  0  0  0
  2  3  2  0  0  0  0
  2  4  1  0  0  0  0
  1  5  2  0  0  0  0
  1  6  1  0  0  0  0
M  CHG  1   6  -1
M  END
>  <cdx:fragmentId>
5

$$$$
