10773.cdx
  Mrv1902 05222410272D          

 13 13  0  0  0  0            999 V2000
    6.1863   -7.1458    0.0000 C   0  0  0  0  0  0  0  0  0  0  0  0
    5.9319   -7.9306    0.0000 C   0  0  1  0  0  0  0  0  0  0  0  0
    6.5998   -8.4150    0.0000 O   0  0  0  0  0  0  0  0  0  0  0  0
    7.2668   -7.9296    0.0000 C   0  0  1  0  0  0  0  0  0  0  0  0
    7.0113   -7.1451    0.0000 C   0  0  0  0  0  0  0  0  0  0  0  0
    8.0918   -7.9296    0.0000 C   0  0  0  0  0  0  0  0  0  0  0  0
    8.9168   -7.9296    0.0000 O   0  0  0  0  0  0  0  0  0  0  0  0
    8.0918   -7.1046    0.0000 C   0  0  0  0  0  0  0  0  0  0  0  0
    8.0918   -8.7546    0.0000 C   0  0  0  0  0  0  0  0  0  0  0  0
    5.3486   -8.5139    0.0000 C   0  0  0  0  0  0  0  0  0  0  0  0
    5.2175   -7.5181    0.0000 C   0  0  0  0  0  0  0  0  0  0  0  0
    5.0039   -6.7212    0.0000 C   0  0  0  0  0  0  0  0  0  0  0  0
    7.5221   -8.7141    0.0000 H   0  0  0  0  0  0  0  0  0  0  0  0
  1  2  1  0  0  0  0
  2  3  1  0  0  0  0
  3  4  1  0  0  0  0
  4  5  1  0  0  0  0
  5  1  1  0  0  0  0
  4  6  1  0  0  0  0
  6  7  1  0  0  0  0
  6  8  1  0  0  0  0
  6  9  1  0  0  0  0
  2 10  1  1  0  0  0
  2 11  1  0  0  0  0
 11 12  2  0  0  0  0
  4 13  1  6  0  0  0
M  END
>  <cdx:fragmentId>
5

$$$$
