10787.cdx
  Mrv1902 05222410202D          

  9  9  0  0  0  0            999 V2000
    5.8047   -2.9983    0.0000 C   0  0  0  0  0  0  0  0  0  0  0  0
    5.8047   -3.8233    0.0000 C   0  0  0  0  0  0  0  0  0  0  0  0
    5.0902   -4.2358    0.0000 C   0  0  0  0  0  0  0  0  0  0  0  0
    4.3758   -3.8233    0.0000 C   0  0  0  0  0  0  0  0  0  0  0  0
    4.3758   -2.9983    0.0000 C   0  0  0  0  0  0  0  0  0  0  0  0
    5.0902   -2.5858    0.0000 C   0  0  0  0  0  0  0  0  0  0  0  0
    6.5192   -2.5858    0.0000 O   0  0  0  0  0  0  0  0  0  0  0  0
    6.5192   -4.2358    0.0000 O   0  0  0  0  0  0  0  0  0  0  0  0
    3.6613   -4.2358    0.0000 O   0  0  0  0  0  0  0  0  0  0  0  0
  1  2  1  0  0  0  0
  2  3  2  0  0  0  0
  3  4  1  0  0  0  0
  4  5  2  0  0  0  0
  5  6  1  0  0  0  0
  1  6  2  0  0  0  0
  1  7  1  0  0  0  0
  2  8  1  0  0  0  0
  4  9  1  0  0  0  0
M  END
>  <cdx:groupId>
29

>  <cdx:fragmentId>
5

$$$$
