107877.cdx
  Mrv1902 05222410262D          

 44 49  0  0  0  0            999 V2000
    2.9603   -3.0144    0.0000 O   0  0  0  0  0  0  0  0  0  0  0  0
    4.3893   -5.4894    0.0000 O   0  0  0  0  0  0  0  0  0  0  0  0
    5.8182   -6.3419    0.0000 C   0  0  0  0  0  0  0  0  0  0  0  0
    7.2471   -4.6644    0.0000 O   0  0  0  0  0  0  0  0  0  0  0  0
    5.8182   -3.0144    0.0000 O   0  0  0  0  0  0  0  0  0  0  0  0
    5.1037   -3.4269    0.0000 C   0  0  0  0  0  0  0  0  0  0  0  0
    4.3893   -3.0144    0.0000 C   0  0  0  0  0  0  0  0  0  0  0  0
    3.6748   -3.4269    0.0000 C   0  0  0  0  0  0  0  0  0  0  0  0
    3.6748   -4.2519    0.0000 C   0  0  0  0  0  0  0  0  0  0  0  0
    4.3893   -4.6644    0.0000 C   0  0  0  0  0  0  0  0  0  0  0  0
    5.1037   -4.2519    0.0000 C   0  0  0  0  0  0  0  0  0  0  0  0
    5.8182   -4.6644    0.0000 C   0  0  0  0  0  0  0  0  0  0  0  0
    6.5327   -4.2519    0.0000 C   0  0  0  0  0  0  0  0  0  0  0  0
    6.5327   -3.4269    0.0000 C   0  0  0  0  0  0  0  0  0  0  0  0
    7.2471   -3.0144    0.0000 C   0  0  0  0  0  0  0  0  0  0  0  0
    7.9616   -3.4269    0.0000 C   0  0  0  0  0  0  0  0  0  0  0  0
    8.6761   -3.0144    0.0000 C   0  0  0  0  0  0  0  0  0  0  0  0
    8.6761   -2.1894    0.0000 C   0  0  0  0  0  0  0  0  0  0  0  0
    7.9616   -1.7769    0.0000 C   0  0  0  0  0  0  0  0  0  0  0  0
    7.2471   -2.1894    0.0000 C   0  0  0  0  0  0  0  0  0  0  0  0
    7.9616   -0.9519    0.0000 O   0  0  0  0  0  0  0  0  0  0  0  0
    9.3906   -1.7769    0.0000 O   0  0  0  0  0  0  0  0  0  0  0  0
    5.1037   -6.7544    0.0000 C   0  0  0  0  0  0  0  0  0  0  0  0
    5.1037   -7.5794    0.0000 C   0  0  0  0  0  0  0  0  0  0  0  0
    5.8182   -7.9919    0.0000 C   0  0  0  0  0  0  0  0  0  0  0  0
    6.5327   -7.5794    0.0000 C   0  0  0  0  0  0  0  0  0  0  0  0
    6.5327   -6.7544    0.0000 C   0  0  0  0  0  0  0  0  0  0  0  0
    7.2471   -7.9919    0.0000 C   0  0  0  0  0  0  0  0  0  0  0  0
    7.9616   -7.5794    0.0000 C   0  0  0  0  0  0  0  0  0  0  0  0
    7.9616   -6.7544    0.0000 C   0  0  0  0  0  0  0  0  0  0  0  0
    7.2471   -6.3419    0.0000 O   0  0  0  0  0  0  0  0  0  0  0  0
    8.6761   -6.3419    0.0000 C   0  0  0  0  0  0  0  0  0  0  0  0
    9.3906   -6.7544    0.0000 C   0  0  0  0  0  0  0  0  0  0  0  0
   10.1050   -6.3419    0.0000 C   0  0  0  0  0  0  0  0  0  0  0  0
   10.1050   -5.5169    0.0000 C   0  0  0  0  0  0  0  0  0  0  0  0
    9.3906   -5.1044    0.0000 C   0  0  0  0  0  0  0  0  0  0  0  0
    8.6761   -5.5169    0.0000 C   0  0  0  0  0  0  0  0  0  0  0  0
    9.3906   -4.2794    0.0000 O   0  0  0  0  0  0  0  0  0  0  0  0
   10.8195   -5.1044    0.0000 O   0  0  0  0  0  0  0  0  0  0  0  0
    8.6761   -7.9919    0.0000 O   0  0  0  0  0  0  0  0  0  0  0  0
    5.8182   -8.8169    0.0000 O   0  0  0  0  0  0  0  0  0  0  0  0
    4.3893   -6.3419    0.0000 O   0  0  0  0  0  0  0  0  0  0  0  0
   10.8195   -6.7544    0.0000 O   0  0  0  0  0  0  0  0  0  0  0  0
    9.3906   -3.4269    0.0000 O   0  0  0  0  0  0  0  0  0  0  0  0
  8  1  1  0  0  0  0
 10  2  1  0  0  0  0
 12  3  1  0  0  0  0
 13  4  1  0  0  0  0
 14  5  1  0  0  0  0
  6  5  1  0  0  0  0
 11  6  1  0  0  0  0
  7  6  2  0  0  0  0
  8  7  1  0  0  0  0
  9  8  2  0  0  0  0
 10  9  1  0  0  0  0
 11 10  2  0  0  0  0
 12 11  1  0  0  0  0
 13 12  1  0  0  0  0
 14 13  1  0  0  0  0
 14 15  1  0  0  0  0
 15 16  2  0  0  0  0
 16 17  1  0  0  0  0
 17 18  2  0  0  0  0
 18 19  1  0  0  0  0
 19 20  2  0  0  0  0
 20 15  1  0  0  0  0
 19 21  1  0  0  0  0
 18 22  1  0  0  0  0
  3 23  2  0  0  0  0
 23 24  1  0  0  0  0
 24 25  2  0  0  0  0
 25 26  1  0  0  0  0
 26 27  2  0  0  0  0
 27  3  1  0  0  0  0
 26 28  1  0  0  0  0
 28 29  1  0  0  0  0
 29 30  1  0  0  0  0
 30 31  1  0  0  0  0
 31 27  1  0  0  0  0
 30 32  1  0  0  0  0
 32 33  2  0  0  0  0
 33 34  1  0  0  0  0
 34 35  2  0  0  0  0
 35 36  1  0  0  0  0
 36 37  2  0  0  0  0
 37 32  1  0  0  0  0
 36 38  1  0  0  0  0
 35 39  1  0  0  0  0
 29 40  1  0  0  0  0
 25 41  1  0  0  0  0
 23 42  1  0  0  0  0
 34 43  1  0  0  0  0
 17 44  1  0  0  0  0
M  END
>  <cdx:fragmentId>
35

$$$$
