107971.cdx
  Mrv1902 05222410252D          

 30 33  0  0  0  0            999 V2000
   11.9436   -9.0885    0.0000 O   0  0  0  0  0  0  0  0  0  0  0  0
   10.5121   -7.4407    0.0000 C   0  0  0  0  0  0  0  0  0  0  0  0
   11.2272   -7.8521    0.0000 C   0  0  0  0  0  0  0  0  0  0  0  0
   11.2285   -8.6771    0.0000 C   0  0  0  0  0  0  0  0  0  0  0  0
   10.5147   -9.0907    0.0000 C   0  0  0  0  0  0  0  0  0  0  0  0
    9.7996   -8.6793    0.0000 C   0  0  0  0  0  0  0  0  0  0  0  0
    9.7983   -7.8543    0.0000 C   0  0  0  0  0  0  0  0  0  0  0  0
    5.5133   -7.8610    0.0000 O   0  0  0  0  0  0  0  0  0  0  0  0
    4.0866   -8.6899    0.0000 O   0  0  0  0  0  0  0  0  0  0  0  0
    2.6554   -7.8687    0.0000 O   0  0  0  0  0  0  0  0  0  0  0  0
    1.9376   -6.6332    0.0000 O   0  0  0  0  0  0  0  0  0  0  0  0
    2.6510   -6.2187    0.0000 C   0  0  0  0  0  0  0  0  0  0  0  0
    3.3666   -6.6293    0.0000 C   0  0  2  0  0  0  0  0  0  0  0  0
    3.3688   -7.4543    0.0000 C   0  0  2  0  0  0  0  0  0  0  0  0
    4.0844   -7.8649    0.0000 C   0  0  1  0  0  0  0  0  0  0  0  0
    4.7977   -7.4505    0.0000 C   0  0  2  0  0  0  0  0  0  0  0  0
    4.7955   -6.6255    0.0000 C   0  0  1  0  0  0  0  0  0  0  0  0
    4.0799   -6.2149    0.0000 O   0  0  0  0  0  0  0  0  0  0  0  0
    5.5089   -6.2110    0.0000 O   0  0  0  0  0  0  0  0  0  0  0  0
    8.3706   -8.6816    0.0000 O   0  0  0  0  0  0  0  0  0  0  0  0
    8.3667   -6.2066    0.0000 O   0  0  0  0  0  0  0  0  0  0  0  0
    7.6529   -6.6202    0.0000 C   0  0  0  0  0  0  0  0  0  0  0  0
    6.9378   -6.2088    0.0000 C   0  0  0  0  0  0  0  0  0  0  0  0
    6.2240   -6.6224    0.0000 C   0  0  0  0  0  0  0  0  0  0  0  0
    6.2253   -7.4474    0.0000 C   0  0  0  0  0  0  0  0  0  0  0  0
    6.9404   -7.8588    0.0000 C   0  0  0  0  0  0  0  0  0  0  0  0
    7.6542   -7.4452    0.0000 C   0  0  0  0  0  0  0  0  0  0  0  0
    8.3693   -7.8566    0.0000 C   0  0  0  0  0  0  0  0  0  0  0  0
    9.0831   -7.4429    0.0000 C   0  0  0  0  0  0  0  0  0  0  0  0
    9.0819   -6.6179    0.0000 C   0  0  0  0  0  0  0  0  0  0  0  0
 29  7  1  0  0  0  0
  4  1  1  0  0  0  0
  7  2  2  0  0  0  0
  3  2  1  0  0  0  0
  4  3  2  0  0  0  0
  5  4  1  0  0  0  0
  6  5  2  0  0  0  0
  7  6  1  0  0  0  0
 24 19  1  0  0  0  0
 17 19  1  1  0  0  0
 16  8  1  6  0  0  0
 15  9  1  1  0  0  0
 14 10  1  6  0  0  0
 13 12  1  1  0  0  0
 12 11  1  0  0  0  0
 18 13  1  0  0  0  0
 14 13  1  0  0  0  0
 15 14  1  0  0  0  0
 16 15  1  0  0  0  0
 17 16  1  0  0  0  0
 18 17  1  0  0  0  0
 28 20  2  0  0  0  0
 30 21  1  0  0  0  0
 22 21  1  0  0  0  0
 27 22  2  0  0  0  0
 23 22  1  0  0  0  0
 24 23  2  0  0  0  0
 25 24  1  0  0  0  0
 26 25  2  0  0  0  0
 27 26  1  0  0  0  0
 28 27  1  0  0  0  0
 29 28  1  0  0  0  0
 30 29  2  0  0  0  0
M  END
>  <cdx:fragmentId>
29

$$$$
