1097.cdx
  Mrv1902 05222410182D          

  6  6  0  0  0  0            999 V2000
    3.5695   -2.1642    0.0000 O   0  0  0  0  0  0  0  0  0  0  0  0
    4.2370   -2.6491    0.0000 C   0  0  0  0  0  0  0  0  0  0  0  0
    3.9820   -3.4337    0.0000 C   0  0  0  0  0  0  0  0  0  0  0  0
    3.1570   -3.4337    0.0000 C   0  0  0  0  0  0  0  0  0  0  0  0
    2.9021   -2.6491    0.0000 C   0  0  0  0  0  0  0  0  0  0  0  0
    5.0216   -2.3941    0.0000 C   0  0  0  0  0  0  0  0  0  0  0  0
  1  2  1  0  0  0  0
  2  3  2  0  0  0  0
  3  4  1  0  0  0  0
  4  5  2  0  0  0  0
  1  5  1  0  0  0  0
  2  6  1  0  0  0  0
M  END
>  <cdx:groupId>
20

>  <cdx:fragmentId>
5

$$$$
