107905.cdx
  Mrv1902 05222410272D          

 32 35  0  0  0  0            999 V2000
    8.7201  -11.4833    0.0000 O   0  0  0  0  0  0  0  0  0  0  0  0
   10.1592  -10.6762    0.0000 O   0  0  0  0  0  0  0  0  0  0  0  0
   10.1798   -9.0263    0.0000 O   0  0  0  0  0  0  0  0  0  0  0  0
    9.5117   -5.3052    0.0000 O   0  0  0  0  0  0  0  0  0  0  0  0
    8.0932   -4.4624    0.0000 O   0  0  0  0  0  0  0  0  0  0  0  0
    3.0665   -6.4624    0.0000 O   0  0  0  0  0  0  0  0  0  0  0  0
    4.4645   -8.9550    0.0000 O   0  0  0  0  0  0  0  0  0  0  0  0
    8.7304  -10.6584    0.0000 C   0  0  0  0  0  0  0  0  0  0  0  0
    9.4499  -10.2548    0.0000 C   0  0  0  0  0  0  0  0  0  0  0  0
    9.4602   -9.4299    0.0000 C   0  0  0  0  0  0  0  0  0  0  0  0
    8.7510   -9.0085    0.0000 C   0  0  0  0  0  0  0  0  0  0  0  0
    8.0211  -10.2370    0.0000 C   0  0  0  0  0  0  0  0  0  0  0  0
    8.0314   -9.4121    0.0000 C   0  0  0  0  0  0  0  0  0  0  0  0
    6.6026   -9.3942    0.0000 O   0  0  0  0  0  0  0  0  0  0  0  0
    7.3221   -8.9907    0.0000 C   0  0  0  0  0  0  0  0  0  0  0  0
    8.7818   -6.5337    0.0000 C   0  0  0  0  0  0  0  0  0  0  0  0
    8.7921   -5.7088    0.0000 C   0  0  0  0  0  0  0  0  0  0  0  0
    8.0829   -5.2874    0.0000 C   0  0  0  0  0  0  0  0  0  0  0  0
    7.3633   -5.6909    0.0000 C   0  0  0  0  0  0  0  0  0  0  0  0
    7.3324   -8.1657    0.0000 O   0  0  0  0  0  0  0  0  0  0  0  0
    8.0623   -6.9373    0.0000 C   0  0  0  0  0  0  0  0  0  0  0  0
    7.3530   -6.5159    0.0000 C   0  0  0  0  0  0  0  0  0  0  0  0
    5.9036   -8.1479    0.0000 C   0  0  0  0  0  0  0  0  0  0  0  0
    6.6232   -7.7444    0.0000 C   0  0  1  0  0  0  0  0  0  0  0  0
    6.6335   -6.9194    0.0000 C   0  0  2  0  0  0  0  0  0  0  0  0
    5.9242   -6.4980    0.0000 O   0  0  0  0  0  0  0  0  0  0  0  0
    4.4748   -8.1301    0.0000 C   0  0  0  0  0  0  0  0  0  0  0  0
    5.1943   -7.7265    0.0000 C   0  0  0  0  0  0  0  0  0  0  0  0
    5.2046   -6.9016    0.0000 C   0  0  0  0  0  0  0  0  0  0  0  0
    4.4954   -6.4802    0.0000 C   0  0  0  0  0  0  0  0  0  0  0  0
    3.7758   -6.8838    0.0000 C   0  0  0  0  0  0  0  0  0  0  0  0
    3.7655   -7.7087    0.0000 C   0  0  0  0  0  0  0  0  0  0  0  0
  8  1  1  0  0  0  0
  9  2  1  0  0  0  0
 10  3  1  0  0  0  0
 17  4  1  0  0  0  0
 18  5  1  0  0  0  0
 31  6  1  0  0  0  0
 27  7  1  0  0  0  0
  8 12  1  0  0  0  0
  9  8  2  0  0  0  0
 10  9  1  0  0  0  0
 11 10  2  0  0  0  0
 13 11  1  0  0  0  0
 13 12  2  0  0  0  0
 15 13  1  0  0  0  0
 15 14  2  0  0  0  0
 20 15  1  0  0  0  0
 16 21  2  0  0  0  0
 17 16  1  0  0  0  0
 18 17  2  0  0  0  0
 19 18  1  0  0  0  0
 22 19  2  0  0  0  0
 24 20  1  1  0  0  0
 22 21  1  0  0  0  0
 25 22  1  6  0  0  0
 23 28  1  0  0  0  0
 24 23  1  0  0  0  0
 25 24  1  0  0  0  0
 26 25  1  0  0  0  0
 29 26  1  0  0  0  0
 27 32  1  0  0  0  0
 28 27  2  0  0  0  0
 29 28  1  0  0  0  0
 30 29  2  0  0  0  0
 31 30  1  0  0  0  0
 32 31  2  0  0  0  0
M  END
>  <cdx:fragmentId>
5

$$$$
