107982.cdx
  Mrv1902 05222410212D          

 22 22  0  0  0  0            999 V2000
    1.5123   -6.8002    0.0000 C   0  0  0  0  0  0  0  0  0  0  0  0
    9.3715   -8.0377    0.0000 C   0  0  0  0  0  0  0  0  0  0  0  0
   10.0860   -8.4502    0.0000 C   0  0  0  0  0  0  0  0  0  0  0  0
   11.5149   -8.4502    0.0000 O   0  0  0  0  0  0  0  0  0  0  0  0
   10.8005   -8.0377    0.0000 C   0  0  0  0  0  0  0  0  0  0  0  0
   12.2294   -7.2127    0.0000 C   0  0  0  0  0  0  0  0  0  0  0  0
   11.5149   -6.8002    0.0000 O   0  0  0  0  0  0  0  0  0  0  0  0
   10.8005   -7.2127    0.0000 C   0  0  0  0  0  0  0  0  0  0  0  0
   10.0860   -6.8002    0.0000 C   0  0  0  0  0  0  0  0  0  0  0  0
    9.3715   -7.2127    0.0000 C   0  0  0  0  0  0  0  0  0  0  0  0
    8.6571   -6.8002    0.0000 C   0  0  0  0  0  0  0  0  0  0  0  0
    7.9426   -7.2127    0.0000 N   0  0  0  0  0  0  0  0  0  0  0  0
    7.2281   -5.9752    0.0000 O   0  0  0  0  0  0  0  0  0  0  0  0
    2.2268   -8.0377    0.0000 C   0  0  0  0  0  0  0  0  0  0  0  0
    2.2268   -7.2127    0.0000 C   0  0  0  0  0  0  0  0  0  0  0  0
    2.9413   -6.8002    0.0000 C   0  0  0  0  0  0  0  0  0  0  0  0
    3.6558   -7.2127    0.0000 C   0  0  0  0  0  0  0  0  0  0  0  0
    4.3702   -6.8002    0.0000 C   0  0  0  0  0  0  0  0  0  0  0  0
    5.0847   -7.2127    0.0000 C   0  0  0  0  0  0  0  0  0  0  0  0
    5.7992   -6.8002    0.0000 C   0  0  0  0  0  0  0  0  0  0  0  0
    6.5136   -7.2127    0.0000 C   0  0  0  0  0  0  0  0  0  0  0  0
    7.2281   -6.8002    0.0000 C   0  0  0  0  0  0  0  0  0  0  0  0
 15  1  1  0  0  0  0
 12 11  1  0  0  0  0
 10  2  2  0  0  0  0
  3  2  1  0  0  0  0
  5  3  2  0  0  0  0
  5  4  1  0  0  0  0
  8  5  1  0  0  0  0
  7  6  1  0  0  0  0
  8  7  1  0  0  0  0
  9  8  2  0  0  0  0
 10  9  1  0  0  0  0
 11 10  1  0  0  0  0
 22 12  1  0  0  0  0
 22 13  2  0  0  0  0
 15 14  1  0  0  0  0
 16 15  1  0  0  0  0
 17 16  1  0  0  0  0
 18 17  1  0  0  0  0
 19 18  1  0  0  0  0
 20 19  1  0  0  0  0
 21 20  1  0  0  0  0
 22 21  1  0  0  0  0
M  END
>  <cdx:fragmentId>
5

$$$$
