107936.cdx
  Mrv1902 05222410182D          

 17 19  0  0  0  0            999 V2000
    4.7765   -2.9700    0.0000 N   0  0  0  0  0  0  0  0  0  0  0  0
    5.4909   -3.3825    0.0000 C   0  0  0  0  0  0  0  0  0  0  0  0
    5.4909   -4.2075    0.0000 C   0  0  0  0  0  0  0  0  0  0  0  0
    4.7765   -4.6200    0.0000 C   0  0  0  0  0  0  0  0  0  0  0  0
    4.0620   -4.2075    0.0000 C   0  0  0  0  0  0  0  0  0  0  0  0
    3.3475   -4.6200    0.0000 C   0  0  0  0  0  0  0  0  0  0  0  0
    2.6330   -4.2075    0.0000 C   0  0  0  0  0  0  0  0  0  0  0  0
    2.6330   -3.3825    0.0000 C   0  0  0  0  0  0  0  0  0  0  0  0
    3.3475   -2.9700    0.0000 C   0  0  0  0  0  0  0  0  0  0  0  0
    4.0620   -3.3825    0.0000 C   0  0  0  0  0  0  0  0  0  0  0  0
    6.2755   -3.1276    0.0000 O   0  0  0  0  0  0  0  0  0  0  0  0
    6.2755   -4.4624    0.0000 C   0  0  0  0  0  0  0  0  0  0  0  0
    6.7605   -3.7950    0.0000 C   0  0  0  0  0  0  0  0  0  0  0  0
    3.3475   -2.1450    0.0000 O   0  0  0  0  0  0  0  0  0  0  0  0
    2.6330   -1.7325    0.0000 C   0  0  0  0  0  0  0  0  0  0  0  0
    4.7765   -5.4450    0.0000 O   0  0  0  0  0  0  0  0  0  0  0  0
    5.4909   -5.8575    0.0000 C   0  0  0  0  0  0  0  0  0  0  0  0
  1  2  2  0  0  0  0
  2  3  1  0  0  0  0
  3  4  2  0  0  0  0
  4  5  1  0  0  0  0
  5  6  2  0  0  0  0
  6  7  1  0  0  0  0
  7  8  2  0  0  0  0
  8  9  1  0  0  0  0
  9 10  2  0  0  0  0
  1 10  1  0  0  0  0
  5 10  1  0  0  0  0
 12 13  2  0  0  0  0
 11 13  1  0  0  0  0
 11  2  1  0  0  0  0
 12  3  1  0  0  0  0
 14 15  1  0  0  0  0
  9 14  1  0  0  0  0
 16 17  1  0  0  0  0
  4 16  1  0  0  0  0
M  END
>  <cdx:groupId>
55

>  <cdx:fragmentId>
5

$$$$
