107957.cdx
  Mrv1902 05222410212D          

 24 25  0  0  0  0            999 V2000
   10.5403   -5.9559    0.0000 H   0  0  0  0  0  0  0  0  0  0  0  0
   11.2547   -5.5434    0.0000 O   0  0  0  0  0  0  0  0  0  0  0  0
   11.9692   -5.9559    0.0000 H   0  0  0  0  0  0  0  0  0  0  0  0
    5.3589   -5.1906    0.0000 C   0  0  0  0  0  0  0  0  0  0  0  0
    5.3589   -6.0156    0.0000 C   0  0  0  0  0  0  0  0  0  0  0  0
    6.0734   -6.4281    0.0000 C   0  0  0  0  0  0  0  0  0  0  0  0
    6.7878   -6.0156    0.0000 C   0  0  0  0  0  0  0  0  0  0  0  0
    6.7878   -5.1906    0.0000 C   0  0  0  0  0  0  0  0  0  0  0  0
    6.0734   -4.7781    0.0000 C   0  0  0  0  0  0  0  0  0  0  0  0
    7.5023   -6.4281    0.0000 C   0  0  0  0  0  0  0  0  0  0  0  0
    8.2168   -6.0156    0.0000 C   0  0  1  0  0  0  0  0  0  0  0  0
    8.2168   -5.1906    0.0000 C   0  0  2  0  0  0  0  0  0  0  0  0
    7.5023   -4.7781    0.0000 O   0  0  0  0  0  0  0  0  0  0  0  0
    8.9313   -4.7781    0.0000 C   0  0  0  0  0  0  0  0  0  0  0  0
    9.6457   -5.1906    0.0000 C   0  0  0  0  0  0  0  0  0  0  0  0
   10.3602   -4.7781    0.0000 C   0  0  0  0  0  0  0  0  0  0  0  0
   10.3602   -3.9531    0.0000 C   0  0  0  0  0  0  0  0  0  0  0  0
    9.6457   -3.5406    0.0000 C   0  0  0  0  0  0  0  0  0  0  0  0
    8.9313   -3.9531    0.0000 C   0  0  0  0  0  0  0  0  0  0  0  0
    4.6444   -4.7781    0.0000 O   0  0  0  0  0  0  0  0  0  0  0  0
    6.0734   -7.2531    0.0000 O   0  0  0  0  0  0  0  0  0  0  0  0
    9.6457   -2.7156    0.0000 O   0  0  0  0  0  0  0  0  0  0  0  0
   11.0747   -3.5406    0.0000 O   0  0  0  0  0  0  0  0  0  0  0  0
    8.9313   -6.4281    0.0000 O   0  0  0  0  0  0  0  0  0  0  0  0
  1  2  1  0  0  0  0
  2  3  1  0  0  0  0
  4  5  2  0  0  0  0
  5  6  1  0  0  0  0
  6  7  2  0  0  0  0
  7  8  1  0  0  0  0
  8  9  2  0  0  0  0
  9  4  1  0  0  0  0
  7 10  1  0  0  0  0
 10 11  1  0  0  0  0
 11 12  1  0  0  0  0
 12 13  1  0  0  0  0
 13  8  1  0  0  0  0
 14 15  2  0  0  0  0
 15 16  1  0  0  0  0
 16 17  2  0  0  0  0
 17 18  1  0  0  0  0
 18 19  2  0  0  0  0
 19 14  1  0  0  0  0
  4 20  1  0  0  0  0
  6 21  1  0  0  0  0
 18 22  1  0  0  0  0
 17 23  1  0  0  0  0
 12 14  1  6  0  0  0
 11 24  1  1  0  0  0
M  END
>  <cdx:fragmentId>
81

$$$$
