108.cdx
  Mrv1902 05222410272D          

 15 15  0  0  0  0            999 V2000
    5.5858   -4.4344    0.0000 C   0  0  0  0  0  0  0  0  0  0  0  0
    5.5858   -5.2594    0.0000 C   0  0  0  0  0  0  0  0  0  0  0  0
    6.3002   -5.6719    0.0000 C   0  0  0  0  0  0  0  0  0  0  0  0
    7.0147   -5.2594    0.0000 C   0  0  0  0  0  0  0  0  0  0  0  0
    7.0147   -4.4344    0.0000 C   0  0  0  0  0  0  0  0  0  0  0  0
    6.3002   -4.0219    0.0000 C   0  0  0  0  0  0  0  0  0  0  0  0
    7.7292   -4.0219    0.0000 C   0  0  0  0  0  0  0  0  0  0  0  0
    8.4437   -4.4344    0.0000 C   0  0  0  0  0  0  0  0  0  0  0  0
    9.1581   -4.0219    0.0000 C   0  0  0  0  0  0  0  0  0  0  0  0
    9.8726   -4.4344    0.0000 O   0  0  0  0  0  0  0  0  0  0  0  0
    4.8713   -5.6719    0.0000 O   0  0  0  0  0  0  0  0  0  0  0  0
    9.1581   -3.1969    0.0000 O   0  0  0  0  0  0  0  0  0  0  0  0
    4.8713   -4.0219    0.0000 O   0  0  0  0  0  0  0  0  0  0  0  0
    4.1568   -4.4344    0.0000 C   0  0  0  0  0  0  0  0  0  0  0  0
    4.1568   -5.2594    0.0000 C   0  0  0  0  0  0  0  0  0  0  0  0
  1  2  2  0  0  0  0
  2  3  1  0  0  0  0
  3  4  2  0  0  0  0
  4  5  1  0  0  0  0
  5  6  2  0  0  0  0
  6  1  1  0  0  0  0
  5  7  1  0  0  0  0
  8  9  1  0  0  0  0
  9 10  1  0  0  0  0
  2 11  1  0  0  0  0
  9 12  2  0  0  0  0
  7  8  2  0  0  0  0
  1 13  1  0  0  0  0
 13 14  1  0  0  0  0
 11 15  1  0  0  0  0
M  END
>  <cdx:fragmentId>
6

$$$$
