10819.cdx
  Mrv1902 05222410262D          

 11 11  0  0  0  0            999 V2000
    6.1222   -4.3646    0.0000 C   0  0  0  0  0  0  0  0  0  0  0  0
    6.8367   -3.9521    0.0000 O   0  0  0  0  0  0  0  0  0  0  0  0
    5.4077   -3.9521    0.0000 C   0  0  0  0  0  0  0  0  0  0  0  0
    4.6933   -4.3646    0.0000 C   0  0  0  0  0  0  0  0  0  0  0  0
    3.9788   -3.9521    0.0000 C   0  0  0  0  0  0  0  0  0  0  0  0
    3.9788   -3.1271    0.0000 C   0  0  0  0  0  0  0  0  0  0  0  0
    4.6933   -2.7146    0.0000 C   0  0  0  0  0  0  0  0  0  0  0  0
    5.4077   -3.1271    0.0000 C   0  0  0  0  0  0  0  0  0  0  0  0
    3.2643   -1.8896    0.0000 C   0  0  0  0  0  0  0  0  0  0  0  0
    3.2643   -2.7146    0.0000 C   0  0  0  0  0  0  0  0  0  0  0  0
    2.5499   -3.1271    0.0000 C   0  0  0  0  0  0  0  0  0  0  0  0
  1  2  1  0  0  0  0
  3  4  2  0  0  0  0
  4  5  1  0  0  0  0
  5  6  1  0  0  0  0
  6  7  1  0  0  0  0
  7  8  1  0  0  0  0
  3  8  1  0  0  0  0
  9 10  2  0  0  0  0
 10 11  1  0  0  0  0
  6 10  1  0  0  0  0
  1  3  1  0  0  0  0
M  END
>  <cdx:groupId>
35

>  <cdx:fragmentId>
9

$$$$
