10812.cdx
  Mrv1902 05222410182D          

 10 10  0  0  0  0            999 V2000
    2.6160   -3.5967    0.0000 C   0  0  0  0  0  0  0  0  0  0  0  0
    3.3305   -4.0092    0.0000 C   0  0  0  0  0  0  0  0  0  0  0  0
    4.0450   -3.5967    0.0000 C   0  0  0  0  0  0  0  0  0  0  0  0
    4.0450   -2.7717    0.0000 C   0  0  0  0  0  0  0  0  0  0  0  0
    3.3305   -2.3592    0.0000 C   0  0  0  0  0  0  0  0  0  0  0  0
    2.6160   -2.7717    0.0000 C   0  0  0  0  0  0  0  0  0  0  0  0
    4.7595   -4.8342    0.0000 C   0  0  0  0  0  0  0  0  0  0  0  0
    4.7595   -4.0092    0.0000 C   0  0  0  0  0  0  0  0  0  0  0  0
    5.4739   -3.5967    0.0000 C   0  0  0  0  0  0  0  0  0  0  0  0
    1.9016   -4.0092    0.0000 C   0  0  0  0  0  0  0  0  0  0  0  0
  1  2  1  0  0  0  0
  2  3  2  0  0  0  0
  3  4  1  0  0  0  0
  4  5  2  0  0  0  0
  5  6  1  0  0  0  0
  1  6  2  0  0  0  0
  7  8  1  0  0  0  0
  8  9  1  0  0  0  0
  3  8  1  0  0  0  0
  1 10  1  0  0  0  0
M  END
>  <cdx:groupId>
32

>  <cdx:fragmentId>
5

$$$$
