108168.cdx
  Mrv1902 05222410192D          

 23 26  0  0  0  0            999 V2000
    5.1961   -7.7266    0.0000 O   0  0  0  0  0  0  0  0  0  0  0  0
    4.7124   -7.0583    0.0000 C   0  0  0  0  0  0  0  0  0  0  0  0
    5.1985   -6.3917    0.0000 O   0  0  0  0  0  0  0  0  0  0  0  0
    5.9827   -6.6481    0.0000 C   0  0  0  0  0  0  0  0  0  0  0  0
    5.9812   -7.4731    0.0000 C   0  0  0  0  0  0  0  0  0  0  0  0
    7.4116   -6.6507    0.0000 C   0  0  0  0  0  0  0  0  0  0  0  0
    6.6979   -6.2369    0.0000 C   0  0  0  0  0  0  0  0  0  0  0  0
    6.6949   -7.8869    0.0000 C   0  0  0  0  0  0  0  0  0  0  0  0
    6.6934   -8.7119    0.0000 C   0  0  0  0  0  0  0  0  0  0  0  0
    5.9782   -9.1231    0.0000 C   0  0  0  0  0  0  0  0  0  0  0  0
    5.9767   -9.9481    0.0000 C   0  0  0  0  0  0  0  0  0  0  0  0
    6.6904  -10.3619    0.0000 C   0  0  0  0  0  0  0  0  0  0  0  0
    7.4056   -9.9507    0.0000 C   0  0  0  0  0  0  0  0  0  0  0  0
    7.4071   -9.1257    0.0000 C   0  0  0  0  0  0  0  0  0  0  0  0
    8.1224   -8.7145    0.0000 C   0  0  0  0  0  0  0  0  0  0  0  0
    8.1239   -7.8895    0.0000 C   0  0  0  0  0  0  0  0  0  0  0  0
    7.4101   -7.4757    0.0000 C   0  0  0  0  0  0  0  0  0  0  0  0
    8.0446   -6.1215    0.0000 C   0  0  0  0  0  0  0  0  0  0  0  0
    8.8193   -6.4051    0.0000 O   0  0  0  0  0  0  0  0  0  0  0  0
    7.9028   -5.3088    0.0000 O   0  0  0  0  0  0  0  0  0  0  0  0
    8.8996   -7.6087    0.0000 N   0  3  0  0  0  0  0  0  0  0  0  0
    9.5306   -8.1402    0.0000 O   0  0  0  0  0  0  0  0  0  0  0  0
    9.0443   -6.7965    0.0000 O   0  5  0  0  0  0  0  0  0  0  0  0
  1  2  1  0  0  0  0
  2  3  1  0  0  0  0
  3  4  1  0  0  0  0
  4  5  1  0  0  0  0
  1  5  1  0  0  0  0
  6  7  1  0  0  0  0
  8  9  1  0  0  0  0
  9 10  2  0  0  0  0
 10 11  1  0  0  0  0
 11 12  2  0  0  0  0
 12 13  1  0  0  0  0
 13 14  2  0  0  0  0
  9 14  1  0  0  0  0
 14 15  1  0  0  0  0
 15 16  2  0  0  0  0
 16 17  1  0  0  0  0
  6 17  2  0  0  0  0
  8 17  1  0  0  0  0
  7  4  2  0  0  0  0
  8  5  2  0  0  0  0
 18 19  2  0  0  0  0
 18 20  1  0  0  0  0
  6 18  1  0  0  0  0
 21 22  2  0  0  0  0
 21 23  1  0  0  0  0
 16 21  1  0  0  0  0
M  CHG  2  21   1  23  -1
M  END
>  <cdx:groupId>
74

>  <cdx:fragmentId>
19

$$$$
