10824.cdx
  Mrv1902 05222410272D          

 46 51  0  0  0  0            999 V2000
   10.0655   -6.6825    0.0000 C   0  0  2  0  0  0  0  0  0  0  0  0
   10.0655   -7.5075    0.0000 C   0  0  0  0  0  0  0  0  0  0  0  0
   10.7800   -7.9200    0.0000 C   0  0  1  0  0  0  0  0  0  0  0  0
   11.4945   -7.5075    0.0000 C   0  0  1  0  0  0  0  0  0  0  0  0
   11.4945   -6.6825    0.0000 C   0  0  0  0  0  0  0  0  0  0  0  0
   10.7800   -6.2700    0.0000 C   0  0  1  0  0  0  0  0  0  0  0  0
   10.7800   -5.4450    0.0000 C   0  0  0  0  0  0  0  0  0  0  0  0
   12.0450   -6.2975    0.0000 O   0  0  0  0  0  0  0  0  0  0  0  0
   10.7800   -7.0950    0.0000 C   0  0  2  0  0  0  0  0  0  0  0  0
    9.3511   -6.2700    0.0000 O   0  0  0  0  0  0  0  0  0  0  0  0
   11.4945   -8.3325    0.0000 O   0  0  0  0  0  0  0  0  0  0  0  0
   10.1750   -7.8650    0.0000 C   0  0  0  0  0  0  0  0  0  0  0  0
   10.1750   -8.6900    0.0000 O   0  0  0  0  0  0  0  0  0  0  0  0
   12.0450   -7.0950    0.0000 C   0  0  0  0  0  0  0  0  0  0  0  0
    9.4565   -9.0955    0.0000 C   0  0  0  0  0  0  0  0  0  0  0  0
    8.7461   -8.6760    0.0000 O   0  0  0  0  0  0  0  0  0  0  0  0
    9.4484   -9.9204    0.0000 C   0  0  0  0  0  0  0  0  0  0  0  0
   10.1588  -10.3399    0.0000 C   0  0  0  0  0  0  0  0  0  0  0  0
   10.1507  -11.1649    0.0000 C   0  0  0  0  0  0  0  0  0  0  0  0
    9.4323  -11.5704    0.0000 C   0  0  0  0  0  0  0  0  0  0  0  0
    8.7219  -11.1509    0.0000 C   0  0  0  0  0  0  0  0  0  0  0  0
    8.7300  -10.3259    0.0000 C   0  0  0  0  0  0  0  0  0  0  0  0
    8.6366   -6.6825    0.0000 C   0  0  2  0  0  0  0  0  0  0  0  0
    7.9221   -6.2700    0.0000 O   0  0  0  0  0  0  0  0  0  0  0  0
    7.2076   -6.6825    0.0000 C   0  0  1  0  0  0  0  0  0  0  0  0
    7.2076   -7.5075    0.0000 C   0  0  2  0  0  0  0  0  0  0  0  0
    7.9221   -7.9200    0.0000 C   0  0  1  0  0  0  0  0  0  0  0  0
    8.6366   -7.5075    0.0000 C   0  0  1  0  0  0  0  0  0  0  0  0
    6.4932   -6.2700    0.0000 C   0  0  0  0  0  0  0  0  0  0  0  0
    7.9221   -8.7450    0.0000 O   0  0  0  0  0  0  0  0  0  0  0  0
    9.3511   -7.9200    0.0000 O   0  0  0  0  0  0  0  0  0  0  0  0
    6.4932   -7.9200    0.0000 O   0  0  0  0  0  0  0  0  0  0  0  0
    5.7787   -6.6825    0.0000 O   0  0  0  0  0  0  0  0  0  0  0  0
   10.7800   -8.7450    0.0000 H   0  0  0  0  0  0  0  0  0  0  0  0
   12.6284   -7.6784    0.0000 O   0  0  0  0  0  0  0  0  0  0  0  0
    5.0642   -6.2700    0.0000 C   0  0  0  0  0  0  0  0  0  0  0  0
    4.3498   -6.6825    0.0000 C   0  0  0  0  0  0  0  0  0  0  0  0
    5.0642   -5.4450    0.0000 O   0  0  0  0  0  0  0  0  0  0  0  0
    3.6353   -6.2700    0.0000 C   0  0  0  0  0  0  0  0  0  0  0  0
    2.9208   -6.6825    0.0000 C   0  0  0  0  0  0  0  0  0  0  0  0
    2.9208   -7.5075    0.0000 C   0  0  0  0  0  0  0  0  0  0  0  0
    3.6353   -7.9200    0.0000 C   0  0  0  0  0  0  0  0  0  0  0  0
    4.3498   -7.5075    0.0000 C   0  0  0  0  0  0  0  0  0  0  0  0
    2.2063   -6.2700    0.0000 O   0  0  0  0  0  0  0  0  0  0  0  0
    2.2063   -7.9200    0.0000 O   0  0  0  0  0  0  0  0  0  0  0  0
    3.6353   -8.7450    0.0000 O   0  0  0  0  0  0  0  0  0  0  0  0
  1  2  1  0  0  0  0
  2  3  1  0  0  0  0
  3  4  1  0  0  0  0
  4  5  1  0  0  0  0
  5  6  1  0  0  0  0
  6  1  1  0  0  0  0
  6  7  1  6  0  0  0
  6  8  1  0  0  0  0
  3  9  1  0  0  0  0
  1 10  1  1  0  0  0
  4 11  1  1  0  0  0
  9  1  1  0  0  0  0
  9 12  1  1  0  0  0
 12 13  1  0  0  0  0
  8 14  1  0  0  0  0
  9 14  1  0  0  0  0
 13 15  1  0  0  0  0
 15 16  2  0  0  0  0
 15 17  1  0  0  0  0
 17 18  2  0  0  0  0
 18 19  1  0  0  0  0
 19 20  2  0  0  0  0
 20 21  1  0  0  0  0
 21 22  2  0  0  0  0
 22 17  1  0  0  0  0
 23 10  1  1  0  0  0
 23 24  1  0  0  0  0
 24 25  1  0  0  0  0
 25 26  1  0  0  0  0
 26 27  1  0  0  0  0
 27 28  1  0  0  0  0
 28 23  1  0  0  0  0
 25 29  1  1  0  0  0
 27 30  1  1  0  0  0
 28 31  1  6  0  0  0
 26 32  1  6  0  0  0
 29 33  1  0  0  0  0
  3 34  1  1  0  0  0
 14 35  2  0  0  0  0
 33 36  1  0  0  0  0
 36 37  1  0  0  0  0
 36 38  2  0  0  0  0
 37 39  2  0  0  0  0
 39 40  1  0  0  0  0
 40 41  2  0  0  0  0
 41 42  1  0  0  0  0
 42 43  2  0  0  0  0
 43 37  1  0  0  0  0
 40 44  1  0  0  0  0
 41 45  1  0  0  0  0
 42 46  1  0  0  0  0
M  END
>  <cdx:fragmentId>
157

$$$$
