108278.cdx
  Mrv1902 05222410212D          

 29 31  0  0  0  0            999 V2000
    7.6349  -10.2120    0.0000 O   0  0  0  0  0  0  0  0  0  0  0  0
    7.6274   -9.3871    0.0000 C   0  0  2  0  0  0  0  0  0  0  0  0
    8.3381   -8.9681    0.0000 C   0  0  1  0  0  0  0  0  0  0  0  0
    9.0563   -9.3741    0.0000 C   0  0  2  0  0  0  0  0  0  0  0  0
    9.0638  -10.1991    0.0000 C   0  0  1  0  0  0  0  0  0  0  0  0
    8.3530  -10.6180    0.0000 C   0  0  1  0  0  0  0  0  0  0  0  0
    8.3605  -11.4430    0.0000 C   0  0  0  0  0  0  0  0  0  0  0  0
    9.0787  -11.8490    0.0000 O   0  0  0  0  0  0  0  0  0  0  0  0
    9.7819  -10.6051    0.0000 O   0  0  0  0  0  0  0  0  0  0  0  0
    9.7670   -8.9552    0.0000 O   0  0  0  0  0  0  0  0  0  0  0  0
    8.3307   -8.1431    0.0000 O   0  0  0  0  0  0  0  0  0  0  0  0
    8.3046   -5.6747    0.0000 C   0  0  0  0  0  0  0  0  0  0  0  0
    6.1836   -8.5751    0.0000 H   0  0  0  0  0  0  0  0  0  0  0  0
    6.1761   -6.1001    0.0000 O   0  0  0  0  0  0  0  0  0  0  0  0
    5.1535   -8.7990    0.0000 C   0  0  0  0  0  0  0  0  0  0  0  0
    5.1272   -5.8950    0.0000 O   0  0  0  0  0  0  0  0  0  0  0  0
    6.9092   -8.9810    0.0000 O   0  0  0  0  0  0  0  0  0  0  0  0
    7.5901   -5.2622    0.0000 O   0  0  0  0  0  0  0  0  0  0  0  0
    6.1612   -5.2752    0.0000 O   0  0  0  0  0  0  0  0  0  0  0  0
    6.8794   -5.6812    0.0000 C   0  0  0  0  0  0  0  0  0  0  0  0
    5.4013   -8.0121    0.0000 C   0  0  1  0  0  0  0  0  0  0  0  0
    4.9104   -7.3491    0.0000 C   0  0  0  0  0  0  0  0  0  0  0  0
    5.3892   -6.6773    0.0000 C   0  0  0  0  0  0  0  0  0  0  0  0
    7.6125   -7.7371    0.0000 O   0  0  0  0  0  0  0  0  0  0  0  0
    7.6050   -6.9122    0.0000 C   0  0  0  0  0  0  0  0  0  0  0  0
    6.8868   -6.5061    0.0000 C   0  0  0  0  0  0  0  0  0  0  0  0
    6.1761   -6.9251    0.0000 C   0  0  1  0  0  0  0  0  0  0  0  0
    6.1836   -7.7501    0.0000 C   0  0  2  0  0  0  0  0  0  0  0  0
    6.9018   -8.1561    0.0000 C   0  0  2  0  0  0  0  0  0  0  0  0
 18 12  1  0  0  0  0
 28 13  1  1  0  0  0
 27 14  1  1  0  0  0
 21 15  1  1  0  0  0
 23 16  2  0  0  0  0
 29 17  1  1  0  0  0
 26 20  1  0  0  0  0
 20 18  1  0  0  0  0
 20 19  2  0  0  0  0
 23 27  1  0  0  0  0
 21 28  1  0  0  0  0
 22 21  1  0  0  0  0
 23 22  1  0  0  0  0
 29 24  1  0  0  0  0
 25 24  1  0  0  0  0
 26 25  2  0  0  0  0
 27 26  1  0  0  0  0
 28 27  1  0  0  0  0
 29 28  1  0  0  0  0
  1  2  1  0  0  0  0
  2  3  1  0  0  0  0
  3  4  1  0  0  0  0
  4  5  1  0  0  0  0
  5  6  1  0  0  0  0
  1  6  1  0  0  0  0
  7  8  1  0  0  0  0
  6  7  1  1  0  0  0
  5  9  1  6  0  0  0
  4 10  1  1  0  0  0
  3 11  1  6  0  0  0
  2 17  1  1  0  0  0
M  END
>  <cdx:fragmentId>
5

$$$$
