10823.cdx
  Mrv1902 05222410282D          

  8  8  0  0  0  0            999 V2000
    7.4243   -4.7969    0.0000 C   0  0  0  0  0  0  0  0  0  0  0  0
    7.4243   -5.6219    0.0000 C   0  0  0  0  0  0  0  0  0  0  0  0
    6.7098   -6.0344    0.0000 C   0  0  0  0  0  0  0  0  0  0  0  0
    5.9954   -5.6219    0.0000 C   0  0  0  0  0  0  0  0  0  0  0  0
    5.9954   -4.7969    0.0000 C   0  0  0  0  0  0  0  0  0  0  0  0
    6.7098   -4.3844    0.0000 N   0  0  0  0  0  0  0  0  0  0  0  0
    8.1388   -6.0344    0.0000 C   0  0  0  0  0  0  0  0  0  0  0  0
    8.8533   -5.6219    0.0000 C   0  0  0  0  0  0  0  0  0  0  0  0
  1  2  1  0  0  0  0
  2  3  2  0  0  0  0
  3  4  1  0  0  0  0
  4  5  2  0  0  0  0
  5  6  1  0  0  0  0
  1  6  2  0  0  0  0
  7  8  1  0  0  0  0
  2  7  1  0  0  0  0
M  END
>  <cdx:fragmentId>
5

$$$$
