1083.cdx
  Mrv1902 05222410182D          

 29 31  0  0  0  0            999 V2000
    2.9604  -10.0749    0.0000 O   0  0  0  0  0  0  0  0  0  0  0  0
    3.3058   -8.4615    0.0000 O   0  0  0  0  0  0  0  0  0  0  0  0
    7.2433   -6.8237    0.0000 O   0  0  0  0  0  0  0  0  0  0  0  0
   10.9517   -7.5589    0.0000 O   0  0  0  0  0  0  0  0  0  0  0  0
   10.1347   -6.1253    0.0000 O   0  0  0  0  0  0  0  0  0  0  0  0
    5.9080   -7.5828    0.0000 C   0  0  0  0  0  0  0  0  0  0  0  0
    4.7030   -8.7605    0.0000 C   0  0  0  0  0  0  0  0  0  0  0  0
    3.9181   -9.0144    0.0000 C   0  0  0  0  0  0  0  0  0  0  0  0
    3.7454   -9.8211    0.0000 C   0  0  0  0  0  0  0  0  0  0  0  0
    4.3577  -10.3740    0.0000 C   0  0  0  0  0  0  0  0  0  0  0  0
    5.1427  -10.1202    0.0000 C   0  0  0  0  0  0  0  0  0  0  0  0
    5.3154   -9.3134    0.0000 C   0  0  0  0  0  0  0  0  0  0  0  0
    6.3564   -8.2753    0.0000 C   0  0  2  0  0  0  0  0  0  0  0  0
    6.1003   -9.0596    0.0000 C   0  0  2  0  0  0  0  0  0  0  0  0
    6.7671   -9.5455    0.0000 O   0  0  0  0  0  0  0  0  0  0  0  0
    7.6518   -7.5404    0.0000 C   0  0  1  0  0  0  0  0  0  0  0  0
    7.1814   -8.2765    0.0000 C   0  0  2  0  0  0  0  0  0  0  0  0
    7.4352   -9.0615    0.0000 C   0  0  0  0  0  0  0  0  0  0  0  0
    8.8933   -6.8329    0.0000 C   0  0  0  0  0  0  0  0  0  0  0  0
    8.4768   -7.5451    0.0000 C   0  0  0  0  0  0  0  0  0  0  0  0
    8.8853   -8.2618    0.0000 C   0  0  0  0  0  0  0  0  0  0  0  0
    9.7103   -8.2664    0.0000 C   0  0  0  0  0  0  0  0  0  0  0  0
   10.1267   -7.5543    0.0000 C   0  0  0  0  0  0  0  0  0  0  0  0
    9.7182   -6.8375    0.0000 C   0  0  0  0  0  0  0  0  0  0  0  0
    2.5208   -8.7153    0.0000 C   0  0  0  0  0  0  0  0  0  0  0  0
    7.6598   -6.1115    0.0000 C   0  0  0  0  0  0  0  0  0  0  0  0
   11.3682   -6.8467    0.0000 C   0  0  0  0  0  0  0  0  0  0  0  0
    5.0830   -7.5828    0.0000 O   0  0  0  0  0  0  0  0  0  0  0  0
    8.0064   -8.2777    0.0000 H   0  0  0  0  0  0  0  0  0  0  0  0
  9  1  1  0  0  0  0
  8  2  1  0  0  0  0
 16  3  1  6  0  0  0
 23  4  1  0  0  0  0
 24  5  1  0  0  0  0
 13  6  1  1  0  0  0
  7 12  1  0  0  0  0
  8  7  2  0  0  0  0
  9  8  1  0  0  0  0
 10  9  2  0  0  0  0
 11 10  1  0  0  0  0
 12 11  2  0  0  0  0
 14 12  1  6  0  0  0
 13 17  1  0  0  0  0
 14 13  1  0  0  0  0
 15 14  1  0  0  0  0
 18 15  1  0  0  0  0
 16 20  1  0  0  0  0
 17 16  1  0  0  0  0
 18 17  1  0  0  0  0
 19 24  1  0  0  0  0
 20 19  2  0  0  0  0
 21 20  1  0  0  0  0
 22 21  2  0  0  0  0
 23 22  1  0  0  0  0
 24 23  2  0  0  0  0
  2 25  1  0  0  0  0
  3 26  1  0  0  0  0
  4 27  1  0  0  0  0
  6 28  1  0  0  0  0
 17 29  1  1  0  0  0
M  END
>  <cdx:fragmentId>
5

$$$$
