10864.cdx
  Mrv1902 05222410202D          

 11 11  0  0  0  0            999 V2000
    7.4304   -4.1869    0.0000 C   0  0  0  0  0  0  0  0  0  0  0  0
    7.4304   -3.3619    0.0000 C   0  0  0  0  0  0  0  0  0  0  0  0
    8.1449   -2.9494    0.0000 C   0  0  0  0  0  0  0  0  0  0  0  0
    8.8593   -3.3619    0.0000 C   0  0  0  0  0  0  0  0  0  0  0  0
    8.8593   -4.1869    0.0000 C   0  0  0  0  0  0  0  0  0  0  0  0
    8.1449   -4.5994    0.0000 C   0  0  0  0  0  0  0  0  0  0  0  0
    6.7159   -4.5994    0.0000 C   0  0  0  0  0  0  0  0  0  0  0  0
    6.0015   -4.1869    0.0000 C   0  0  0  0  0  0  0  0  0  0  0  0
    5.2870   -4.5994    0.0000 C   0  0  0  0  0  0  0  0  0  0  0  0
    4.5725   -4.1869    0.0000 C   0  0  0  0  0  0  0  0  0  0  0  0
    3.8580   -4.5994    0.0000 C   0  0  0  0  0  0  0  0  0  0  0  0
  1  2  1  0  0  0  0
  2  3  2  0  0  0  0
  3  4  1  0  0  0  0
  4  5  2  0  0  0  0
  5  6  1  0  0  0  0
  1  6  2  0  0  0  0
  7  8  1  0  0  0  0
  8  9  1  0  0  0  0
  9 10  1  0  0  0  0
 10 11  1  0  0  0  0
  1  7  1  0  0  0  0
M  END
>  <cdx:fragmentId>
5

$$$$
