10886.cdx
  Mrv1902 05222410232D          

 13 12  0  0  0  0            999 V2000
    6.0365   -2.8127    0.0000 C   0  0  0  0  0  0  0  0  0  0  0  0
    5.3220   -3.2252    0.0000 C   0  0  0  0  0  0  0  0  0  0  0  0
    4.6076   -2.8127    0.0000 C   0  0  0  0  0  0  0  0  0  0  0  0
    3.8931   -3.2252    0.0000 C   0  0  0  0  0  0  0  0  0  0  0  0
    3.1786   -2.8127    0.0000 C   0  0  0  0  0  0  0  0  0  0  0  0
    2.4642   -3.2252    0.0000 C   0  0  0  0  0  0  0  0  0  0  0  0
    6.0365   -1.9877    0.0000 O   0  0  0  0  0  0  0  0  0  0  0  0
    6.7510   -3.2252    0.0000 O   0  0  0  0  0  0  0  0  0  0  0  0
    7.4655   -2.8127    0.0000 C   0  0  0  0  0  0  0  0  0  0  0  0
    8.1799   -3.2252    0.0000 C   0  0  0  0  0  0  0  0  0  0  0  0
    8.8944   -2.8127    0.0000 C   0  0  0  0  0  0  0  0  0  0  0  0
    9.6089   -3.2252    0.0000 C   0  0  0  0  0  0  0  0  0  0  0  0
   10.3233   -2.8127    0.0000 C   0  0  0  0  0  0  0  0  0  0  0  0
  1  2  1  0  0  0  0
  2  3  1  0  0  0  0
  3  4  1  0  0  0  0
  4  5  1  0  0  0  0
  5  6  1  0  0  0  0
  1  7  2  0  0  0  0
  1  8  1  0  0  0  0
  9 10  1  0  0  0  0
 10 11  1  0  0  0  0
 11 12  1  0  0  0  0
 12 13  1  0  0  0  0
  8  9  1  0  0  0  0
M  END
>  <cdx:groupId>
40

>  <cdx:fragmentId>
5

$$$$
