1088.cdx
  Mrv1902 05222410272D          

  6  5  0  0  0  0            999 V2000
    7.5940   -3.0602    0.0000 C   0  0  0  0  0  0  0  0  0  0  0  0
    6.8795   -3.4727    0.0000 C   0  0  0  0  0  0  0  0  0  0  0  0
    7.5940   -2.2352    0.0000 O   0  0  0  0  0  0  0  0  0  0  0  0
    8.3085   -3.4727    0.0000 O   0  0  0  0  0  0  0  0  0  0  0  0
    6.1650   -3.0602    0.0000 N   0  0  0  0  0  0  0  0  0  0  0  0
    5.4506   -3.4727    0.0000 C   0  0  0  0  0  0  0  0  0  0  0  0
  1  2  1  0  0  0  0
  1  3  2  0  0  0  0
  1  4  1  0  0  0  0
  5  6  1  0  0  0  0
  2  5  1  0  0  0  0
M  END
>  <cdx:groupId>
19

>  <cdx:fragmentId>
5

$$$$
