10885.cdx
  Mrv1902 05222410242D          

 10  9  0  0  0  0            999 V2000
    7.2053   -7.3529    0.0000 C   0  0  0  0  0  0  0  0  0  0  0  0
    6.4908   -7.7654    0.0000 C   0  0  0  0  0  0  0  0  0  0  0  0
    5.7763   -7.3529    0.0000 C   0  0  0  0  0  0  0  0  0  0  0  0
    5.0619   -7.7654    0.0000 C   0  0  0  0  0  0  0  0  0  0  0  0
    7.2053   -6.5279    0.0000 O   0  0  0  0  0  0  0  0  0  0  0  0
    7.9197   -7.7654    0.0000 O   0  0  0  0  0  0  0  0  0  0  0  0
    8.6342   -7.3529    0.0000 C   0  0  0  0  0  0  0  0  0  0  0  0
    9.3487   -7.7654    0.0000 C   0  0  0  0  0  0  0  0  0  0  0  0
   10.0631   -7.3529    0.0000 C   0  0  0  0  0  0  0  0  0  0  0  0
    9.3487   -8.5904    0.0000 C   0  0  0  0  0  0  0  0  0  0  0  0
  1  2  1  0  0  0  0
  2  3  1  0  0  0  0
  3  4  1  0  0  0  0
  1  5  2  0  0  0  0
  1  6  1  0  0  0  0
  7  8  1  0  0  0  0
  8  9  1  0  0  0  0
  8 10  1  0  0  0  0
  6  7  1  0  0  0  0
M  END
>  <cdx:fragmentId>
290

$$$$
