10895.cdx
  Mrv1902 05222410252D          

  9  8  0  0  0  0            999 V2000
    3.5920   -2.6408    0.0000 C   0  0  0  0  0  0  0  0  0  0  0  0
    2.8776   -3.0533    0.0000 C   0  0  0  0  0  0  0  0  0  0  0  0
    2.1631   -2.6408    0.0000 C   0  0  0  0  0  0  0  0  0  0  0  0
    3.5920   -1.8158    0.0000 O   0  0  0  0  0  0  0  0  0  0  0  0
    4.3065   -3.0533    0.0000 O   0  0  0  0  0  0  0  0  0  0  0  0
    5.0210   -2.6408    0.0000 C   0  0  0  0  0  0  0  0  0  0  0  0
    5.7354   -3.0533    0.0000 C   0  0  0  0  0  0  0  0  0  0  0  0
    5.7354   -3.8783    0.0000 C   0  0  0  0  0  0  0  0  0  0  0  0
    6.4499   -2.6408    0.0000 C   0  0  0  0  0  0  0  0  0  0  0  0
  1  2  1  0  0  0  0
  2  3  1  0  0  0  0
  1  4  2  0  0  0  0
  1  5  1  0  0  0  0
  6  7  1  0  0  0  0
  7  8  1  0  0  0  0
  7  9  1  0  0  0  0
  5  6  1  0  0  0  0
M  END
>  <cdx:groupId>
28

>  <cdx:fragmentId>
5

$$$$
