10892.cdx
  Mrv1902 05222410232D          

 43 46  0  0  0  0            999 V2000
    3.8395   -8.6212    0.0000 C   0  0  0  0  0  0  0  0  0  0  0  0
    3.8395   -9.4462    0.0000 C   0  0  1  0  0  0  0  0  0  0  0  0
    4.5540   -9.8588    0.0000 C   0  0  1  0  0  0  0  0  0  0  0  0
    5.2685   -9.4462    0.0000 C   0  0  1  0  0  0  0  0  0  0  0  0
    5.2685   -8.6212    0.0000 C   0  0  2  0  0  0  0  0  0  0  0  0
    4.5540   -8.2088    0.0000 C   0  0  0  0  0  0  0  0  0  0  0  0
    5.9829   -9.8588    0.0000 C   0  0  0  0  0  0  0  0  0  0  0  0
    6.6974   -9.4462    0.0000 C   0  0  1  0  0  0  0  0  0  0  0  0
    6.6974   -8.6212    0.0000 C   0  0  0  0  0  0  0  0  0  0  0  0
    5.9829   -8.2088    0.0000 C   0  0  0  0  0  0  0  0  0  0  0  0
    7.4119   -8.2088    0.0000 C   0  0  1  0  0  0  0  0  0  0  0  0
    7.4119   -7.3838    0.0000 C   0  0  2  0  0  0  0  0  0  0  0  0
    6.6974   -6.9712    0.0000 C   0  0  1  0  0  0  0  0  0  0  0  0
    5.9829   -7.3838    0.0000 C   0  0  0  0  0  0  0  0  0  0  0  0
    8.1965   -8.4637    0.0000 C   0  0  0  0  0  0  0  0  0  0  0  0
    8.6814   -7.7963    0.0000 C   0  0  0  0  0  0  0  0  0  0  0  0
    8.1965   -7.1288    0.0000 C   0  0  2  0  0  0  0  0  0  0  0  0
    3.1251   -9.8588    0.0000 O   0  0  0  0  0  0  0  0  0  0  0  0
    5.2685   -6.9712    0.0000 O   0  0  0  0  0  0  0  0  0  0  0  0
    4.1415  -10.5732    0.0000 C   0  0  0  0  0  0  0  0  0  0  0  0
    5.2685   -7.7963    0.0000 C   0  0  0  0  0  0  0  0  0  0  0  0
    7.4119   -6.5587    0.0000 C   0  0  0  0  0  0  0  0  0  0  0  0
    8.4100   -6.3319    0.0000 C   0  0  0  0  0  0  0  0  0  0  0  0
    4.9665  -10.5732    0.0000 C   0  0  0  0  0  0  0  0  0  0  0  0
    5.2685  -10.2713    0.0000 H   0  0  0  0  0  0  0  0  0  0  0  0
    7.4119   -9.0337    0.0000 C   0  0  0  0  0  0  0  0  0  0  0  0
    7.8267   -5.7486    0.0000 C   0  0  0  0  0  0  0  0  0  0  0  0
    8.8371   -4.7381    0.0000 O   0  0  0  0  0  0  0  0  0  0  0  0
    9.8475   -3.7277    0.0000 C   0  0  0  0  0  0  0  0  0  0  0  0
    8.4100   -9.2606    0.0000 O   0  0  0  0  0  0  0  0  0  0  0  0
   11.2277   -4.0976    0.0000 C   0  0  0  0  0  0  0  0  0  0  0  0
   10.4309   -4.3111    0.0000 C   0  0  0  0  0  0  0  0  0  0  0  0
   10.2173   -5.1080    0.0000 C   0  0  0  0  0  0  0  0  0  0  0  0
    9.4204   -5.3215    0.0000 C   0  0  0  0  0  0  0  0  0  0  0  0
    9.2069   -6.1184    0.0000 C   0  0  0  0  0  0  0  0  0  0  0  0
    7.4119   -9.8588    0.0000 O   0  0  0  0  0  0  0  0  0  0  0  0
    6.6974   -6.1463    0.0000 O   0  0  0  0  0  0  0  0  0  0  0  0
    6.1140   -5.5629    0.0000 C   0  0  0  0  0  0  0  0  0  0  0  0
    6.3276   -4.7660    0.0000 C   0  0  0  0  0  0  0  0  0  0  0  0
    5.3172   -5.7764    0.0000 O   0  0  0  0  0  0  0  0  0  0  0  0
    8.9934   -6.9153    0.0000 H   0  0  0  0  0  0  0  0  0  0  0  0
   11.8111   -4.6809    0.0000 O   0  0  0  0  0  0  0  0  0  0  0  0
   11.4413   -3.3007    0.0000 O   0  0  0  0  0  0  0  0  0  0  0  0
  1  2  1  0  0  0  0
  2  3  1  0  0  0  0
  3  4  1  0  0  0  0
  4  5  1  0  0  0  0
  5  6  1  0  0  0  0
  6  1  1  0  0  0  0
  4  7  1  0  0  0  0
  7  8  1  0  0  0  0
  8  9  1  0  0  0  0
  9 10  2  0  0  0  0
 10  5  1  0  0  0  0
  9 11  1  0  0  0  0
 11 12  1  0  0  0  0
 12 13  1  0  0  0  0
 13 14  1  0  0  0  0
 14 10  1  0  0  0  0
 11 15  1  0  0  0  0
 15 16  1  0  0  0  0
 16 17  1  0  0  0  0
 17 12  1  0  0  0  0
  2 18  1  1  0  0  0
 14 19  2  0  0  0  0
  3 20  1  1  0  0  0
  5 21  1  1  0  0  0
 12 22  1  1  0  0  0
  3 24  1  6  0  0  0
  4 25  1  6  0  0  0
 11 26  1  6  0  0  0
 23 27  1  0  0  0  0
 34 28  2  0  0  0  0
 23 35  2  0  0  0  0
 32 29  1  0  0  0  0
 32 31  1  0  0  0  0
 15 30  2  0  0  0  0
 33 32  1  0  0  0  0
 34 33  1  0  0  0  0
 35 34  1  0  0  0  0
  8 36  1  1  0  0  0
 13 37  1  1  0  0  0
 37 38  1  0  0  0  0
 38 39  1  0  0  0  0
 38 40  2  0  0  0  0
 17 23  1  0  0  0  0
 17 41  1  6  0  0  0
 31 42  2  0  0  0  0
 31 43  1  0  0  0  0
M  END
>  <cdx:fragmentId>
5

$$$$
