10898.cdx
  Mrv1902 05222410212D          

 33 36  0  0  0  0            999 V2000
    3.8602   -9.4875    0.0000 C   0  0  0  0  0  0  0  0  0  0  0  0
    3.8602  -10.3125    0.0000 C   0  0  0  0  0  0  0  0  0  0  0  0
    4.5746  -10.7250    0.0000 C   0  0  0  0  0  0  0  0  0  0  0  0
    5.2891  -10.3125    0.0000 C   0  0  1  0  0  0  0  0  0  0  0  0
    5.2891   -9.4875    0.0000 C   0  0  2  0  0  0  0  0  0  0  0  0
    4.5746   -9.0750    0.0000 C   0  0  0  0  0  0  0  0  0  0  0  0
    6.0036  -10.7250    0.0000 C   0  0  0  0  0  0  0  0  0  0  0  0
    6.7180  -10.3125    0.0000 C   0  0  0  0  0  0  0  0  0  0  0  0
    6.7180   -9.4875    0.0000 C   0  0  0  0  0  0  0  0  0  0  0  0
    6.0036   -9.0750    0.0000 C   0  0  0  0  0  0  0  0  0  0  0  0
    7.4325   -9.0750    0.0000 C   0  0  1  0  0  0  0  0  0  0  0  0
    7.4325   -8.2500    0.0000 C   0  0  2  0  0  0  0  0  0  0  0  0
    6.7180   -7.8375    0.0000 C   0  0  0  0  0  0  0  0  0  0  0  0
    6.0036   -8.2500    0.0000 C   0  0  0  0  0  0  0  0  0  0  0  0
    8.2171   -9.3299    0.0000 C   0  0  2  0  0  0  0  0  0  0  0  0
    8.7021   -8.6625    0.0000 C   0  0  0  0  0  0  0  0  0  0  0  0
    8.2171   -7.9951    0.0000 C   0  0  2  0  0  0  0  0  0  0  0  0
    4.1621  -11.4395    0.0000 C   0  0  0  0  0  0  0  0  0  0  0  0
    5.2891   -8.6625    0.0000 C   0  0  0  0  0  0  0  0  0  0  0  0
    7.4325   -7.4250    0.0000 C   0  0  0  0  0  0  0  0  0  0  0  0
    8.4307   -7.1982    0.0000 C   0  0  2  0  0  0  0  0  0  0  0  0
    7.8473   -6.6148    0.0000 C   0  0  0  0  0  0  0  0  0  0  0  0
    4.9871  -11.4395    0.0000 C   0  0  0  0  0  0  0  0  0  0  0  0
    7.4325   -9.9000    0.0000 C   0  0  0  0  0  0  0  0  0  0  0  0
    8.4307  -10.1268    0.0000 O   0  0  0  0  0  0  0  0  0  0  0  0
    3.1457  -10.7250    0.0000 O   0  0  0  0  0  0  0  0  0  0  0  0
    9.0140   -7.7815    0.0000 H   0  0  0  0  0  0  0  0  0  0  0  0
    9.2275   -6.9846    0.0000 C   0  0  0  0  0  0  0  0  0  0  0  0
    9.4411   -6.1878    0.0000 C   0  0  0  0  0  0  0  0  0  0  0  0
   10.2380   -5.9742    0.0000 C   0  0  0  0  0  0  0  0  0  0  0  0
   10.8213   -6.5576    0.0000 O   0  0  0  0  0  0  0  0  0  0  0  0
   10.4515   -5.1773    0.0000 O   0  0  0  0  0  0  0  0  0  0  0  0
    5.2891  -11.1375    0.0000 H   0  0  0  0  0  0  0  0  0  0  0  0
  1  2  1  0  0  0  0
  2  3  1  0  0  0  0
  3  4  1  0  0  0  0
  4  5  1  0  0  0  0
  5  6  1  0  0  0  0
  6  1  1  0  0  0  0
  4  7  1  0  0  0  0
  7  8  1  0  0  0  0
  8  9  2  0  0  0  0
  9 10  1  0  0  0  0
 10  5  1  0  0  0  0
  9 11  1  0  0  0  0
 11 12  1  0  0  0  0
 12 13  1  0  0  0  0
 13 14  1  0  0  0  0
 14 10  2  0  0  0  0
 11 15  1  0  0  0  0
 15 16  1  0  0  0  0
 16 17  1  0  0  0  0
 17 12  1  0  0  0  0
  3 18  1  0  0  0  0
  5 19  1  1  0  0  0
 12 20  1  1  0  0  0
 21 22  1  6  0  0  0
  3 23  1  0  0  0  0
 11 24  1  6  0  0  0
 15 25  1  6  0  0  0
  2 26  2  0  0  0  0
 17 21  1  0  0  0  0
 17 27  1  6  0  0  0
 21 28  1  0  0  0  0
 28 29  1  0  0  0  0
 29 30  1  0  0  0  0
 30 31  2  0  0  0  0
 30 32  1  0  0  0  0
  4 33  1  6  0  0  0
M  END
>  <cdx:fragmentId>
5

$$$$
