10890.cdx
  Mrv1902 05222410242D          

 11 10  0  0  0  0            999 V2000
    3.7298   -3.3696    0.0000 C   0  0  0  0  0  0  0  0  0  0  0  0
    3.0153   -3.7821    0.0000 C   0  0  0  0  0  0  0  0  0  0  0  0
    2.3009   -3.3696    0.0000 C   0  0  0  0  0  0  0  0  0  0  0  0
    1.5864   -3.7821    0.0000 C   0  0  0  0  0  0  0  0  0  0  0  0
    3.7298   -2.5446    0.0000 O   0  0  0  0  0  0  0  0  0  0  0  0
    4.4443   -3.7821    0.0000 O   0  0  0  0  0  0  0  0  0  0  0  0
    5.1587   -3.3696    0.0000 C   0  0  0  0  0  0  0  0  0  0  0  0
    5.8732   -3.7821    0.0000 C   0  0  0  0  0  0  0  0  0  0  0  0
    6.5877   -3.3696    0.0000 C   0  0  0  0  0  0  0  0  0  0  0  0
    7.3021   -3.7821    0.0000 C   0  0  0  0  0  0  0  0  0  0  0  0
    8.0166   -3.3696    0.0000 C   0  0  0  0  0  0  0  0  0  0  0  0
  1  2  1  0  0  0  0
  2  3  1  0  0  0  0
  3  4  1  0  0  0  0
  1  5  2  0  0  0  0
  1  6  1  0  0  0  0
  7  8  1  0  0  0  0
  8  9  1  0  0  0  0
  9 10  1  0  0  0  0
 10 11  1  0  0  0  0
  6  7  1  0  0  0  0
M  END
>  <cdx:groupId>
34

>  <cdx:fragmentId>
5

$$$$
