109.cdx
  Mrv1902 05222410272D          

 14 14  0  0  0  0            999 V2000
    5.6408   -4.8744    0.0000 C   0  0  0  0  0  0  0  0  0  0  0  0
    5.6408   -5.6994    0.0000 C   0  0  0  0  0  0  0  0  0  0  0  0
    6.3552   -6.1119    0.0000 C   0  0  0  0  0  0  0  0  0  0  0  0
    7.0697   -5.6994    0.0000 C   0  0  0  0  0  0  0  0  0  0  0  0
    7.0697   -4.8744    0.0000 C   0  0  0  0  0  0  0  0  0  0  0  0
    6.3552   -4.4619    0.0000 C   0  0  0  0  0  0  0  0  0  0  0  0
    7.7842   -4.4619    0.0000 C   0  0  0  0  0  0  0  0  0  0  0  0
    8.4987   -4.8744    0.0000 C   0  0  0  0  0  0  0  0  0  0  0  0
    9.2131   -4.4619    0.0000 C   0  0  0  0  0  0  0  0  0  0  0  0
    9.9276   -4.8744    0.0000 O   0  0  0  0  0  0  0  0  0  0  0  0
    4.9263   -6.1119    0.0000 O   0  0  0  0  0  0  0  0  0  0  0  0
    9.2131   -3.6369    0.0000 O   0  0  0  0  0  0  0  0  0  0  0  0
    4.9263   -4.4619    0.0000 O   0  0  0  0  0  0  0  0  0  0  0  0
    4.2118   -4.8744    0.0000 C   0  0  0  0  0  0  0  0  0  0  0  0
  1  2  2  0  0  0  0
  2  3  1  0  0  0  0
  3  4  2  0  0  0  0
  4  5  1  0  0  0  0
  5  6  2  0  0  0  0
  6  1  1  0  0  0  0
  5  7  1  0  0  0  0
  8  9  1  0  0  0  0
  9 10  1  0  0  0  0
  2 11  1  0  0  0  0
  9 12  2  0  0  0  0
  7  8  2  0  0  0  0
  1 13  1  0  0  0  0
 13 14  1  0  0  0  0
M  END
>  <cdx:fragmentId>
6

$$$$
