10902.cdx
  Mrv1902 05222410222D          

 39 42  0  0  0  0            999 V2000
   10.3689   -5.7991    0.0000 C   0  0  0  0  0  0  0  0  0  0  0  0
   10.1139   -6.5838    0.0000 C   0  0  0  0  0  0  0  0  0  0  0  0
    9.3069   -6.7553    0.0000 C   0  0  2  0  0  0  0  0  0  0  0  0
    9.0520   -7.5399    0.0000 C   0  0  0  0  0  0  0  0  0  0  0  0
    8.2450   -7.7114    0.0000 C   0  0  1  0  0  0  0  0  0  0  0  0
    7.6930   -7.0984    0.0000 C   0  0  0  0  0  0  0  0  0  0  0  0
   11.4308   -4.8430    0.0000 O   0  0  0  0  0  0  0  0  0  0  0  0
    4.3476   -9.5760    0.0000 C   0  0  0  0  0  0  0  0  0  0  0  0
    3.6331   -9.9885    0.0000 C   0  0  0  0  0  0  0  0  0  0  0  0
    3.6331  -10.8135    0.0000 C   0  0  0  0  0  0  0  0  0  0  0  0
    4.3476  -11.2260    0.0000 C   0  0  0  0  0  0  0  0  0  0  0  0
    5.0621  -10.8135    0.0000 C   0  0  2  0  0  0  0  0  0  0  0  0
    5.7765  -11.2260    0.0000 C   0  0  0  0  0  0  0  0  0  0  0  0
    6.4910  -10.8135    0.0000 C   0  0  1  0  0  0  0  0  0  0  0  0
    6.4910   -9.9885    0.0000 C   0  0  0  0  0  0  0  0  0  0  0  0
    7.2055   -9.5760    0.0000 C   0  0  2  0  0  0  0  0  0  0  0  0
    7.9901   -9.8309    0.0000 C   0  0  2  0  0  0  0  0  0  0  0  0
    8.4750   -9.1635    0.0000 C   0  0  0  0  0  0  0  0  0  0  0  0
    7.9901   -8.4961    0.0000 C   0  0  1  0  0  0  0  0  0  0  0  0
    7.2055   -8.7510    0.0000 C   0  0  1  0  0  0  0  0  0  0  0  0
    6.4910   -8.3385    0.0000 C   0  0  0  0  0  0  0  0  0  0  0  0
    5.7765   -8.7510    0.0000 C   0  0  0  0  0  0  0  0  0  0  0  0
    5.7765   -9.5760    0.0000 C   0  0  0  0  0  0  0  0  0  0  0  0
    5.0621   -9.9885    0.0000 C   0  0  1  0  0  0  0  0  0  0  0  0
    8.2450  -10.6156    0.0000 O   0  0  0  0  0  0  0  0  0  0  0  0
    5.0621   -8.3385    0.0000 O   0  0  0  0  0  0  0  0  0  0  0  0
    7.2055  -10.4010    0.0000 C   0  0  0  0  0  0  0  0  0  0  0  0
    7.2055   -7.9260    0.0000 C   0  0  0  0  0  0  0  0  0  0  0  0
    5.0621   -9.1635    0.0000 C   0  0  0  0  0  0  0  0  0  0  0  0
    4.7601  -11.9405    0.0000 C   0  0  0  0  0  0  0  0  0  0  0  0
    3.9351  -11.9405    0.0000 C   0  0  0  0  0  0  0  0  0  0  0  0
    7.2055  -11.2260    0.0000 O   0  0  0  0  0  0  0  0  0  0  0  0
    2.9186  -11.2260    0.0000 O   0  0  0  0  0  0  0  0  0  0  0  0
    8.7549   -6.1422    0.0000 O   0  0  0  0  0  0  0  0  0  0  0  0
    9.8168   -5.1861    0.0000 C   0  0  0  0  0  0  0  0  0  0  0  0
    5.0621  -11.6385    0.0000 H   0  0  0  0  0  0  0  0  0  0  0  0
   11.7279   -6.2407    0.0000 O   0  0  0  0  0  0  0  0  0  0  0  0
   11.1758   -5.6276    0.0000 C   0  0  0  0  0  0  0  0  0  0  0  0
    8.7747   -8.2411    0.0000 H   0  0  0  0  0  0  0  0  0  0  0  0
 38  7  1  0  0  0  0
 38 37  2  0  0  0  0
 38  1  1  0  0  0  0
  1  2  2  0  0  0  0
  2  3  1  0  0  0  0
  3  4  1  0  0  0  0
  4  5  1  0  0  0  0
  5  6  1  6  0  0  0
  8  9  1  0  0  0  0
  9 10  1  0  0  0  0
 10 11  1  0  0  0  0
 11 12  1  0  0  0  0
 12 13  1  0  0  0  0
 13 14  1  0  0  0  0
 14 15  1  0  0  0  0
 15 16  1  0  0  0  0
 16 17  1  0  0  0  0
 17 18  1  0  0  0  0
 19 18  1  0  0  0  0
 19 20  1  0  0  0  0
 16 20  1  0  0  0  0
 20 21  1  0  0  0  0
 21 22  1  0  0  0  0
 22 23  1  0  0  0  0
 15 23  2  0  0  0  0
 23 24  1  0  0  0  0
 12 24  1  0  0  0  0
  8 24  1  0  0  0  0
 17 25  1  6  0  0  0
 22 26  2  0  0  0  0
 16 27  1  6  0  0  0
 20 28  1  1  0  0  0
 24 29  1  1  0  0  0
 11 30  1  0  0  0  0
 11 31  1  0  0  0  0
 14 32  1  1  0  0  0
 10 33  2  0  0  0  0
  5 19  1  0  0  0  0
  3 34  1  6  0  0  0
  1 35  1  0  0  0  0
 12 36  1  6  0  0  0
 19 39  1  6  0  0  0
M  END
>  <cdx:fragmentId>
125157

$$$$
