1090.cdx
  Mrv1902 05222410192D          

 31 33  0  0  0  0            999 V2000
    5.3198   -7.7766    0.0000 C   0  0  0  0  0  0  0  0  0  0  0  0
    4.6054   -7.3641    0.0000 C   0  0  0  0  0  0  0  0  0  0  0  0
    3.8909   -7.7766    0.0000 C   0  0  0  0  0  0  0  0  0  0  0  0
    3.8909   -8.6016    0.0000 C   0  0  0  0  0  0  0  0  0  0  0  0
    5.3198   -8.6016    0.0000 O   0  0  0  0  0  0  0  0  0  0  0  0
    6.0343   -7.3641    0.0000 O   0  0  0  0  0  0  0  0  0  0  0  0
    4.6054   -6.5391    0.0000 C   0  0  0  0  0  0  0  0  0  0  0  0
    6.7488   -8.6016    0.0000 C   0  0  0  0  0  0  0  0  0  0  0  0
    6.7488   -7.7766    0.0000 C   0  0  2  0  0  0  0  0  0  0  0  0
    7.4632   -7.3641    0.0000 C   0  0  2  0  0  0  0  0  0  0  0  0
    8.1777   -7.7766    0.0000 C   0  0  0  0  0  0  0  0  0  0  0  0
    8.8922   -7.3641    0.0000 C   0  0  0  0  0  0  0  0  0  0  0  0
    9.6066   -7.7766    0.0000 C   0  0  0  0  0  0  0  0  0  0  0  0
    9.6066   -8.6016    0.0000 C   0  0  0  0  0  0  0  0  0  0  0  0
    8.8922   -9.0141    0.0000 C   0  0  0  0  0  0  0  0  0  0  0  0
    8.1777   -8.6016    0.0000 C   0  0  0  0  0  0  0  0  0  0  0  0
    7.4632   -9.0141    0.0000 O   0  0  0  0  0  0  0  0  0  0  0  0
   10.3211   -7.3641    0.0000 C   0  0  0  0  0  0  0  0  0  0  0  0
   10.3211   -6.5391    0.0000 C   0  0  0  0  0  0  0  0  0  0  0  0
    9.6066   -6.1266    0.0000 C   0  0  0  0  0  0  0  0  0  0  0  0
    8.8922   -6.5391    0.0000 O   0  0  0  0  0  0  0  0  0  0  0  0
    9.6066   -5.3016    0.0000 O   0  0  0  0  0  0  0  0  0  0  0  0
    7.4632   -6.5391    0.0000 O   0  0  0  0  0  0  0  0  0  0  0  0
    6.7488   -6.1266    0.0000 C   0  0  0  0  0  0  0  0  0  0  0  0
    6.7488   -5.3016    0.0000 C   0  0  0  0  0  0  0  0  0  0  0  0
    6.0343   -4.8891    0.0000 C   0  0  0  0  0  0  0  0  0  0  0  0
    6.0343   -4.0641    0.0000 C   0  0  0  0  0  0  0  0  0  0  0  0
    6.0343   -6.5391    0.0000 O   0  0  0  0  0  0  0  0  0  0  0  0
    5.3198   -5.3016    0.0000 C   0  0  0  0  0  0  0  0  0  0  0  0
    6.3363   -9.3160    0.0000 C   0  0  0  0  0  0  0  0  0  0  0  0
    5.9238   -8.6016    0.0000 C   0  0  0  0  0  0  0  0  0  0  0  0
  1  2  1  0  0  0  0
  2  3  2  0  0  0  0
  3  4  1  0  0  0  0
  1  5  2  0  0  0  0
  1  6  1  0  0  0  0
  2  7  1  0  0  0  0
  8  9  1  0  0  0  0
  9 10  1  0  0  0  0
 10 11  1  0  0  0  0
 11 12  1  0  0  0  0
 12 13  2  0  0  0  0
 13 14  1  0  0  0  0
 14 15  2  0  0  0  0
 15 16  1  0  0  0  0
 11 16  2  0  0  0  0
 16 17  1  0  0  0  0
  8 17  1  0  0  0  0
 18 19  2  0  0  0  0
 19 20  1  0  0  0  0
 20 21  1  0  0  0  0
 21 12  1  0  0  0  0
 18 13  1  0  0  0  0
 20 22  2  0  0  0  0
 24 25  1  0  0  0  0
 25 26  1  0  0  0  0
 26 27  1  0  0  0  0
 24 28  2  0  0  0  0
 23 24  1  0  0  0  0
 26 29  1  0  0  0  0
 10 23  1  1  0  0  0
  8 30  1  0  0  0  0
  8 31  1  0  0  0  0
  9  6  1  1  0  0  0
M  END
>  <cdx:fragmentId>
17676

$$$$
