10911.cdx
  Mrv1902 05222410212D          

 24 24  0  0  0  0            999 V2000
    9.0397   -7.2987    0.0000 O   0  0  0  0  0  0  0  0  0  0  0  0
    8.2551   -7.5536    0.0000 Si  0  0  0  0  0  0  0  0  0  0  0  0
    7.7702   -6.8862    0.0000 O   0  0  0  0  0  0  0  0  0  0  0  0
    6.9497   -6.7999    0.0000 Si  0  0  0  0  0  0  0  0  0  0  0  0
    6.6141   -6.0463    0.0000 O   0  0  0  0  0  0  0  0  0  0  0  0
    5.8295   -5.7913    0.0000 Si  0  0  0  0  0  0  0  0  0  0  0  0
    5.8295   -4.9663    0.0000 O   0  0  0  0  0  0  0  0  0  0  0  0
    6.6141   -4.7114    0.0000 Si  0  0  0  0  0  0  0  0  0  0  0  0
    7.0991   -5.3788    0.0000 O   0  0  0  0  0  0  0  0  0  0  0  0
    7.9195   -5.4651    0.0000 Si  0  0  0  0  0  0  0  0  0  0  0  0
    8.2551   -6.2187    0.0000 O   0  0  0  0  0  0  0  0  0  0  0  0
    9.0397   -6.4737    0.0000 Si  0  0  0  0  0  0  0  0  0  0  0  0
    9.8602   -6.3874    0.0000 C   0  0  0  0  0  0  0  0  0  0  0  0
    9.3753   -5.7200    0.0000 C   0  0  0  0  0  0  0  0  0  0  0  0
    8.6732   -5.1295    0.0000 C   0  0  0  0  0  0  0  0  0  0  0  0
    8.0058   -4.6446    0.0000 C   0  0  0  0  0  0  0  0  0  0  0  0
    7.2272   -4.1594    0.0000 C   0  0  0  0  0  0  0  0  0  0  0  0
    6.4426   -3.9044    0.0000 C   0  0  0  0  0  0  0  0  0  0  0  0
    5.0090   -5.8776    0.0000 C   0  0  0  0  0  0  0  0  0  0  0  0
    5.4940   -6.5450    0.0000 C   0  0  0  0  0  0  0  0  0  0  0  0
    6.1960   -7.1355    0.0000 C   0  0  0  0  0  0  0  0  0  0  0  0
    6.8635   -7.6204    0.0000 C   0  0  0  0  0  0  0  0  0  0  0  0
    7.6420   -8.1056    0.0000 C   0  0  0  0  0  0  0  0  0  0  0  0
    8.4266   -8.3606    0.0000 C   0  0  0  0  0  0  0  0  0  0  0  0
  1  2  1  0  0  0  0
  2  3  1  0  0  0  0
  3  4  1  0  0  0  0
  4  5  1  0  0  0  0
  5  6  1  0  0  0  0
  6  7  1  0  0  0  0
  7  8  1  0  0  0  0
  8  9  1  0  0  0  0
  9 10  1  0  0  0  0
 10 11  1  0  0  0  0
 11 12  1  0  0  0  0
  1 12  1  0  0  0  0
 12 13  1  0  0  0  0
 12 14  1  0  0  0  0
 10 15  1  0  0  0  0
 10 16  1  0  0  0  0
  8 17  1  0  0  0  0
  8 18  1  0  0  0  0
  6 19  1  0  0  0  0
  6 20  1  0  0  0  0
  4 21  1  0  0  0  0
  4 22  1  0  0  0  0
  2 23  1  0  0  0  0
  2 24  1  0  0  0  0
M  END
>  <cdx:fragmentId>
5

$$$$
