10912.cdx
  Mrv1902 05222410212D          

 29 28  0  0  0  0            999 V2000
    6.5134   -2.9975    0.0000 Si  0  0  0  0  0  0  0  0  0  0  0  0
    6.9259   -2.2830    0.0000 C   0  0  0  0  0  0  0  0  0  0  0  0
    6.1009   -2.2830    0.0000 C   0  0  0  0  0  0  0  0  0  0  0  0
    7.2278   -3.4100    0.0000 O   0  0  0  0  0  0  0  0  0  0  0  0
    7.9423   -2.9975    0.0000 Si  0  0  0  0  0  0  0  0  0  0  0  0
    8.3548   -2.2830    0.0000 C   0  0  0  0  0  0  0  0  0  0  0  0
    7.5298   -2.2830    0.0000 C   0  0  0  0  0  0  0  0  0  0  0  0
    8.6568   -3.4100    0.0000 O   0  0  0  0  0  0  0  0  0  0  0  0
    9.3713   -2.9975    0.0000 Si  0  0  0  0  0  0  0  0  0  0  0  0
   10.0857   -3.4100    0.0000 O   0  0  0  0  0  0  0  0  0  0  0  0
   10.8002   -2.9975    0.0000 Si  0  0  0  0  0  0  0  0  0  0  0  0
   11.5147   -2.5850    0.0000 C   0  0  0  0  0  0  0  0  0  0  0  0
   10.8002   -2.1725    0.0000 C   0  0  0  0  0  0  0  0  0  0  0  0
   11.5147   -3.4100    0.0000 C   0  0  0  0  0  0  0  0  0  0  0  0
    9.7838   -2.2830    0.0000 C   0  0  0  0  0  0  0  0  0  0  0  0
    8.9588   -2.2830    0.0000 C   0  0  0  0  0  0  0  0  0  0  0  0
    5.7989   -3.4100    0.0000 O   0  0  0  0  0  0  0  0  0  0  0  0
    5.0844   -2.9975    0.0000 Si  0  0  0  0  0  0  0  0  0  0  0  0
    5.4969   -2.2830    0.0000 C   0  0  0  0  0  0  0  0  0  0  0  0
    4.6719   -2.2830    0.0000 C   0  0  0  0  0  0  0  0  0  0  0  0
    4.3700   -3.4100    0.0000 O   0  0  0  0  0  0  0  0  0  0  0  0
    3.6555   -2.9975    0.0000 Si  0  0  0  0  0  0  0  0  0  0  0  0
    2.9410   -3.4100    0.0000 O   0  0  0  0  0  0  0  0  0  0  0  0
    2.2265   -2.9975    0.0000 Si  0  0  0  0  0  0  0  0  0  0  0  0
    1.5121   -3.4100    0.0000 C   0  0  0  0  0  0  0  0  0  0  0  0
    2.2265   -2.1725    0.0000 C   0  0  0  0  0  0  0  0  0  0  0  0
    1.5121   -2.5850    0.0000 C   0  0  0  0  0  0  0  0  0  0  0  0
    4.0680   -2.2830    0.0000 C   0  0  0  0  0  0  0  0  0  0  0  0
    3.2430   -2.2830    0.0000 C   0  0  0  0  0  0  0  0  0  0  0  0
  1  2  1  0  0  0  0
  1  3  1  0  0  0  0
  5  6  1  0  0  0  0
  5  7  1  0  0  0  0
 11 12  1  0  0  0  0
 11 13  1  0  0  0  0
 11 14  1  0  0  0  0
 10 11  1  0  0  0  0
  9 10  1  0  0  0  0
  9 15  1  0  0  0  0
  9 16  1  0  0  0  0
  8  9  1  0  0  0  0
  5  8  1  0  0  0  0
  4  5  1  0  0  0  0
  1  4  1  0  0  0  0
 18 19  1  0  0  0  0
 18 20  1  0  0  0  0
 24 25  1  0  0  0  0
 24 26  1  0  0  0  0
 24 27  1  0  0  0  0
 23 24  1  0  0  0  0
 22 23  1  0  0  0  0
 22 28  1  0  0  0  0
 22 29  1  0  0  0  0
 21 22  1  0  0  0  0
 18 21  1  0  0  0  0
 17 18  1  0  0  0  0
  1 17  1  0  0  0  0
M  END
>  <cdx:groupId>
88

>  <cdx:fragmentId>
25

$$$$
