1093.cdx
  Mrv1902 05222410202D          

 42 45  0  0  0  0            999 V2000
    5.4620   -6.7100    0.0000 C   0  0  0  0  0  0  0  0  0  0  0  0
    5.4620   -7.5350    0.0000 C   0  0  0  0  0  0  0  0  0  0  0  0
    6.1765   -7.9475    0.0000 C   0  0  0  0  0  0  0  0  0  0  0  0
    6.8910   -7.5350    0.0000 C   0  0  0  0  0  0  0  0  0  0  0  0
    6.8910   -6.7100    0.0000 C   0  0  0  0  0  0  0  0  0  0  0  0
    6.1765   -6.2975    0.0000 C   0  0  0  0  0  0  0  0  0  0  0  0
    4.7476   -7.9475    0.0000 O   0  0  0  0  0  0  0  0  0  0  0  0
    6.1765   -8.7725    0.0000 O   0  0  0  0  0  0  0  0  0  0  0  0
    7.6054   -6.2975    0.0000 C   0  0  1  0  0  0  0  0  0  0  0  0
    4.7476   -6.2975    0.0000 O   0  0  0  0  0  0  0  0  0  0  0  0
    4.0331   -8.3600    0.0000 C   0  0  2  0  0  0  0  0  0  0  0  0
    3.3186   -7.9475    0.0000 C   0  0  0  0  0  0  0  0  0  0  0  0
    2.6041   -8.3600    0.0000 O   0  0  0  0  0  0  0  0  0  0  0  0
    2.6041   -9.1850    0.0000 C   0  0  0  0  0  0  0  0  0  0  0  0
    3.3186   -9.5975    0.0000 C   0  0  0  0  0  0  0  0  0  0  0  0
    4.0331   -9.1850    0.0000 C   0  0  2  0  0  0  0  0  0  0  0  0
    1.8897   -9.5975    0.0000 C   0  0  0  0  0  0  0  0  0  0  0  0
    1.8897  -10.4225    0.0000 C   0  0  0  0  0  0  0  0  0  0  0  0
    2.6041  -10.8350    0.0000 C   0  0  0  0  0  0  0  0  0  0  0  0
    3.3186  -10.4225    0.0000 C   0  0  0  0  0  0  0  0  0  0  0  0
    4.7476   -9.5975    0.0000 O   0  0  0  0  0  0  0  0  0  0  0  0
    2.6041  -11.6600    0.0000 O   0  0  0  0  0  0  0  0  0  0  0  0
    1.1752  -10.8350    0.0000 O   0  0  0  0  0  0  0  0  0  0  0  0
    3.3186  -12.0725    0.0000 C   0  0  0  0  0  0  0  0  0  0  0  0
    4.7476   -5.4725    0.0000 C   0  0  0  0  0  0  0  0  0  0  0  0
    6.8910   -9.1850    0.0000 C   0  0  0  0  0  0  0  0  0  0  0  0
    8.3591   -6.6331    0.0000 O   0  0  0  0  0  0  0  0  0  0  0  0
    8.9111   -6.0200    0.0000 C   0  0  0  0  0  0  0  0  0  0  0  0
    8.4986   -5.3055    0.0000 C   0  0  0  0  0  0  0  0  0  0  0  0
    7.6917   -5.4770    0.0000 C   0  0  2  0  0  0  0  0  0  0  0  0
    9.7361   -6.0200    0.0000 C   0  0  0  0  0  0  0  0  0  0  0  0
   10.1486   -5.3055    0.0000 C   0  0  0  0  0  0  0  0  0  0  0  0
    9.7361   -4.5910    0.0000 C   0  0  0  0  0  0  0  0  0  0  0  0
    8.9111   -4.5910    0.0000 C   0  0  0  0  0  0  0  0  0  0  0  0
   10.1486   -3.8766    0.0000 C   0  0  0  0  0  0  0  0  0  0  0  0
   10.9736   -3.8766    0.0000 C   0  0  0  0  0  0  0  0  0  0  0  0
   11.3861   -3.1621    0.0000 C   0  0  0  0  0  0  0  0  0  0  0  0
   12.2111   -3.1621    0.0000 O   0  0  0  0  0  0  0  0  0  0  0  0
   10.1486   -6.7344    0.0000 O   0  0  0  0  0  0  0  0  0  0  0  0
    9.7361   -7.4489    0.0000 C   0  0  0  0  0  0  0  0  0  0  0  0
    7.0786   -4.9250    0.0000 C   0  0  0  0  0  0  0  0  0  0  0  0
    6.2940   -5.1799    0.0000 O   0  0  0  0  0  0  0  0  0  0  0  0
  1  2  2  0  0  0  0
  2  3  1  0  0  0  0
  3  4  2  0  0  0  0
  4  5  1  0  0  0  0
  5  6  2  0  0  0  0
  6  1  1  0  0  0  0
  2  7  1  0  0  0  0
  3  8  1  0  0  0  0
  9  5  1  6  0  0  0
  1 10  1  0  0  0  0
 11  7  1  1  0  0  0
 11 12  1  0  0  0  0
 12 13  1  0  0  0  0
 14 15  2  0  0  0  0
 15 16  1  0  0  0  0
 16 11  1  0  0  0  0
 14 17  1  0  0  0  0
 17 18  2  0  0  0  0
 18 19  1  0  0  0  0
 19 20  2  0  0  0  0
 20 15  1  0  0  0  0
 16 21  1  1  0  0  0
 19 22  1  0  0  0  0
 18 23  1  0  0  0  0
 22 24  1  0  0  0  0
 10 25  1  0  0  0  0
  8 26  1  0  0  0  0
  9 27  1  0  0  0  0
 27 28  1  0  0  0  0
 28 29  2  0  0  0  0
 29 30  1  0  0  0  0
 30  9  1  0  0  0  0
 28 31  1  0  0  0  0
 31 32  2  0  0  0  0
 32 33  1  0  0  0  0
 33 34  2  0  0  0  0
 34 29  1  0  0  0  0
 33 35  1  0  0  0  0
 35 36  2  0  0  0  0
 36 37  1  0  0  0  0
 37 38  1  0  0  0  0
 31 39  1  0  0  0  0
 39 40  1  0  0  0  0
 30 41  1  1  0  0  0
 41 42  1  0  0  0  0
M  END
>  <cdx:fragmentId>
5

$$$$
