10932.cdx
  Mrv1902 05222410242D          

  7  6  0  0  0  0            999 V2000
    4.5415   -3.5139    0.0000 C   0  0  0  0  0  0  0  0  0  0  0  0
    3.8270   -3.9264    0.0000 C   0  0  0  0  0  0  0  0  0  0  0  0
    3.1125   -3.5139    0.0000 C   0  0  0  0  0  0  0  0  0  0  0  0
    4.5415   -2.6889    0.0000 O   0  0  0  0  0  0  0  0  0  0  0  0
    5.2560   -3.9264    0.0000 O   0  0  0  0  0  0  0  0  0  0  0  0
    2.3981   -3.9264    0.0000 N   0  0  0  0  0  0  0  0  0  0  0  0
    3.1125   -2.6889    0.0000 C   0  0  0  0  0  0  0  0  0  0  0  0
  1  2  1  0  0  0  0
  2  3  1  0  0  0  0
  1  4  2  0  0  0  0
  1  5  1  0  0  0  0
  3  6  1  0  0  0  0
  3  7  1  0  0  0  0
M  END
>  <cdx:groupId>
22

>  <cdx:fragmentId>
5

$$$$
