10939.cdx
  Mrv1902 05222410212D          

 40 43  0  0  0  0            999 V2000
    9.2836   -8.7446    0.0000 H   0  0  0  0  0  0  0  0  0  0  0  0
    9.2711   -6.2697    0.0000 H   0  0  0  0  0  0  0  0  0  0  0  0
    8.5612   -9.3019    0.0000 O   0  0  0  0  0  0  0  0  0  0  0  0
   11.0976   -9.1576    0.0000 O   0  0  0  0  0  0  0  0  0  0  0  0
   10.2976   -8.9562    0.0000 C   0  0  0  0  0  0  0  0  0  0  0  0
    7.8173   -5.4666    0.0000 O   0  0  0  0  0  0  0  0  0  0  0  0
    9.2461   -5.4449    0.0000 O   0  0  0  0  0  0  0  0  0  0  0  0
    8.5380   -5.8682    0.0000 C   0  0  0  0  0  0  0  0  0  0  0  0
   10.0720   -8.1626    0.0000 C   0  0  0  0  0  0  0  0  0  0  0  0
   10.5468   -7.4879    0.0000 C   0  0  0  0  0  0  0  0  0  0  0  0
   10.0518   -6.8279    0.0000 C   0  0  0  0  0  0  0  0  0  0  0  0
    6.4210   -9.7306    0.0000 C   0  0  2  0  0  0  0  0  0  0  0  0
    6.4272  -10.5556    0.0000 C   0  0  2  0  0  0  0  0  0  0  0  0
    7.1448  -10.9626    0.0000 C   0  0  1  0  0  0  0  0  0  0  0  0
    7.8561  -10.5447    0.0000 C   0  0  2  0  0  0  0  0  0  0  0  0
    7.8499   -9.7198    0.0000 C   0  0  1  0  0  0  0  0  0  0  0  0
    7.1323   -9.3127    0.0000 O   0  0  0  0  0  0  0  0  0  0  0  0
    8.5505   -6.6931    0.0000 C   0  0  0  0  0  0  0  0  0  0  0  0
    5.7034   -9.3235    0.0000 C   0  0  0  0  0  0  0  0  0  0  0  0
    7.1510  -11.7876    0.0000 O   0  0  0  0  0  0  0  0  0  0  0  0
    5.7159  -10.9735    0.0000 O   0  0  0  0  0  0  0  0  0  0  0  0
    8.5737  -10.9518    0.0000 O   0  0  0  0  0  0  0  0  0  0  0  0
    4.9921   -9.7414    0.0000 O   0  0  0  0  0  0  0  0  0  0  0  0
    3.5469   -8.0982    0.0000 C   0  0  2  0  0  0  0  0  0  0  0  0
    2.8325   -8.5107    0.0000 C   0  0  2  0  0  0  0  0  0  0  0  0
    2.8325   -9.3357    0.0000 C   0  0  1  0  0  0  0  0  0  0  0  0
    3.5469   -9.7482    0.0000 C   0  0  2  0  0  0  0  0  0  0  0  0
    4.2614   -9.3357    0.0000 C   0  0  1  0  0  0  0  0  0  0  0  0
    4.2614   -8.5107    0.0000 O   0  0  0  0  0  0  0  0  0  0  0  0
    3.5469   -7.2732    0.0000 C   0  0  0  0  0  0  0  0  0  0  0  0
    2.1180   -9.7482    0.0000 O   0  0  0  0  0  0  0  0  0  0  0  0
    2.1180   -8.0982    0.0000 O   0  0  0  0  0  0  0  0  0  0  0  0
    3.5469  -10.5732    0.0000 O   0  0  0  0  0  0  0  0  0  0  0  0
    2.8325   -6.8607    0.0000 O   0  0  0  0  0  0  0  0  0  0  0  0
    7.8423   -7.1164    0.0000 C   0  0  0  0  0  0  0  0  0  0  0  0
    7.8548   -7.9413    0.0000 O   0  0  0  0  0  0  0  0  0  0  0  0
    8.5755   -8.3429    0.0000 C   0  0  2  0  0  0  0  0  0  0  0  0
    9.2836   -7.9196    0.0000 C   0  0  1  0  0  0  0  0  0  0  0  0
    9.2711   -7.0947    0.0000 C   0  0  2  0  0  0  0  0  0  0  0  0
    7.8173   -4.6416    0.0000 C   0  0  0  0  0  0  0  0  0  0  0  0
 38  1  1  6  0  0  0
 39  2  1  6  0  0  0
 37  3  1  6  0  0  0
  5  4  1  0  0  0  0
  9  5  1  0  0  0  0
  8  6  1  0  0  0  0
  8  7  2  0  0  0  0
 18  8  1  0  0  0  0
  9 38  1  0  0  0  0
 10  9  2  0  0  0  0
 11 10  1  0  0  0  0
 39 11  1  0  0  0  0
 18 39  1  0  0  0  0
 35 18  2  0  0  0  0
 36 35  1  0  0  0  0
 37 36  1  0  0  0  0
 38 37  1  0  0  0  0
 39 38  1  0  0  0  0
 12 13  1  0  0  0  0
 13 14  1  0  0  0  0
 14 15  1  0  0  0  0
 15 16  1  0  0  0  0
 16 17  1  0  0  0  0
 17 12  1  0  0  0  0
 16  3  1  1  0  0  0
 12 19  1  1  0  0  0
 14 20  1  1  0  0  0
 13 21  1  6  0  0  0
 15 22  1  6  0  0  0
 19 23  1  0  0  0  0
 24 25  1  0  0  0  0
 25 26  1  0  0  0  0
 26 27  1  0  0  0  0
 27 28  1  0  0  0  0
 28 29  1  0  0  0  0
 29 24  1  0  0  0  0
 24 30  1  1  0  0  0
 26 31  1  1  0  0  0
 25 32  1  6  0  0  0
 27 33  1  6  0  0  0
 30 34  1  0  0  0  0
 28 23  1  1  0  0  0
  6 40  1  0  0  0  0
M  END
>  <cdx:fragmentId>
5

$$$$
