10931.cdx
  Mrv1902 05222410232D          

  7  6  0  0  0  0            999 V2000
    7.9118   -5.3221    0.0000 C   0  0  0  0  0  0  0  0  0  0  0  0
    5.7684   -4.0846    0.0000 O   0  0  0  0  0  0  0  0  0  0  0  0
    6.4829   -5.3221    0.0000 O   0  0  0  0  0  0  0  0  0  0  0  0
    8.6263   -4.0846    0.0000 C   0  0  0  0  0  0  0  0  0  0  0  0
    7.9118   -4.4971    0.0000 C   0  0  0  0  0  0  0  0  0  0  0  0
    7.1973   -4.0846    0.0000 C   0  0  0  0  0  0  0  0  0  0  0  0
    6.4829   -4.4971    0.0000 C   0  0  0  0  0  0  0  0  0  0  0  0
  5  1  1  0  0  0  0
  7  2  1  0  0  0  0
  7  3  2  0  0  0  0
  5  4  1  0  0  0  0
  6  5  2  0  0  0  0
  7  6  1  0  0  0  0
M  END
>  <cdx:fragmentId>
5

$$$$
