109318.cdx
  Mrv1902 05222410262D          

 14 13  0  0  0  0            999 V2000
    2.2868   -2.6666    0.0000 C   0  0  0  0  0  0  0  0  0  0  0  0
    1.5724   -3.0791    0.0000 C   0  0  0  0  0  0  0  0  0  0  0  0
    2.2868   -1.8416    0.0000 O   0  0  0  0  0  0  0  0  0  0  0  0
    3.0013   -3.0791    0.0000 O   0  0  0  0  0  0  0  0  0  0  0  0
    3.0013   -1.4291    0.0000 C   0  0  0  0  0  0  0  0  0  0  0  0
    3.7158   -1.8416    0.0000 C   0  0  0  0  0  0  0  0  0  0  0  0
    3.7158   -2.6666    0.0000 C   0  0  0  0  0  0  0  0  0  0  0  0
    4.4302   -3.0791    0.0000 C   0  0  0  0  0  0  0  0  0  0  0  0
    5.1447   -2.6666    0.0000 C   0  0  0  0  0  0  0  0  0  0  0  0
    5.8592   -3.0791    0.0000 C   0  0  0  0  0  0  0  0  0  0  0  0
    6.5737   -2.6666    0.0000 C   0  0  0  0  0  0  0  0  0  0  0  0
    6.5737   -1.8416    0.0000 C   0  0  0  0  0  0  0  0  0  0  0  0
    7.2881   -3.0791    0.0000 C   0  0  0  0  0  0  0  0  0  0  0  0
    3.7158   -3.4916    0.0000 C   0  0  0  0  0  0  0  0  0  0  0  0
  1  2  1  0  0  0  0
  1  3  2  0  0  0  0
  1  4  1  0  0  0  0
  5  6  2  0  0  0  0
  6  7  1  0  0  0  0
  7  8  1  0  0  0  0
  8  9  1  0  0  0  0
  9 10  1  0  0  0  0
 10 11  1  0  0  0  0
 11 12  1  0  0  0  0
 11 13  1  0  0  0  0
  7 14  1  0  0  0  0
  4  7  1  0  0  0  0
M  END
>  <cdx:groupId>
85

>  <cdx:fragmentId>
55

$$$$
