genipin 1-O-ﾥ￢-D-isomaltoside.cdx
  Mrv1902 05222410262D          

 42 45  0  0  0  0            999 V2000
    4.6233   -2.5162    0.0000 C   0  0  1  0  0  0  0  0  0  0  0  0
    4.6233   -3.3413    0.0000 C   0  0  2  0  0  0  0  0  0  0  0  0
    5.3377   -3.7538    0.0000 C   0  0  1  0  0  0  0  0  0  0  0  0
    6.0522   -3.3413    0.0000 O   0  0  0  0  0  0  0  0  0  0  0  0
    6.0522   -2.5162    0.0000 C   0  0  0  0  0  0  0  0  0  0  0  0
    5.3377   -2.1037    0.0000 C   0  0  0  0  0  0  0  0  0  0  0  0
    3.9088   -3.7538    0.0000 C   0  0  0  0  0  0  0  0  0  0  0  0
    3.1943   -3.3413    0.0000 C   0  0  0  0  0  0  0  0  0  0  0  0
    3.1943   -2.5162    0.0000 C   0  0  1  0  0  0  0  0  0  0  0  0
    5.3377   -1.2788    0.0000 C   0  0  0  0  0  0  0  0  0  0  0  0
    4.6233   -0.8663    0.0000 O   0  0  0  0  0  0  0  0  0  0  0  0
    6.0522   -0.8662    0.0000 O   0  0  0  0  0  0  0  0  0  0  0  0
    6.0522   -0.0412    0.0000 C   0  0  0  0  0  0  0  0  0  0  0  0
    3.9088   -4.5788    0.0000 C   0  0  0  0  0  0  0  0  0  0  0  0
    3.1943   -4.9913    0.0000 O   0  0  0  0  0  0  0  0  0  0  0  0
    4.6233   -1.6912    0.0000 H   0  0  0  0  0  0  0  0  0  0  0  0
    4.6233   -4.1662    0.0000 H   0  0  0  0  0  0  0  0  0  0  0  0
    2.3693   -2.5162    0.0000 H   0  0  0  0  0  0  0  0  0  0  0  0
    3.1943   -1.6912    0.0000 H   0  0  0  0  0  0  0  0  0  0  0  0
    5.3377   -4.5788    0.0000 O   0  0  0  0  0  0  0  0  0  0  0  0
    1.6066   -8.5562    0.0000 C   0  0  0  0  0  0  0  0  0  0  0  0
    2.3987   -8.3254    0.0000 C   0  0  0  0  0  0  0  0  0  0  0  0
    2.3853   -7.5005    0.0000 C   0  0  0  0  0  0  0  0  0  0  0  0
    2.7769   -6.7797    0.0000 C   0  0  0  0  0  0  0  0  0  0  0  0
    1.9849   -7.0105    0.0000 O   0  0  0  0  0  0  0  0  0  0  0  0
    1.9982   -7.8354    0.0000 C   0  0  0  0  0  0  0  0  0  0  0  0
    2.8710   -7.1886    0.0000 O   0  0  0  0  0  0  0  0  0  0  0  0
    2.1110   -8.8630    0.0000 O   0  0  0  0  0  0  0  0  0  0  0  0
    1.6434   -9.1308    0.0000 O   0  0  0  0  0  0  0  0  0  0  0  0
    1.4919   -8.1999    0.0000 C   0  0  0  0  0  0  0  0  0  0  0  0
    1.1475   -7.9033    0.0000 O   0  0  0  0  0  0  0  0  0  0  0  0
    3.5783   -6.9758    0.0000 O   0  0  0  0  0  0  0  0  0  0  0  0
    4.1914   -7.3598    0.0000 C   0  0  0  0  0  0  0  0  0  0  0  0
    4.9835   -7.1290    0.0000 C   0  0  0  0  0  0  0  0  0  0  0  0
    4.9701   -6.3041    0.0000 C   0  0  0  0  0  0  0  0  0  0  0  0
    5.3617   -5.5833    0.0000 C   0  0  0  0  0  0  0  0  0  0  0  0
    4.5697   -5.8141    0.0000 O   0  0  0  0  0  0  0  0  0  0  0  0
    4.5830   -6.6390    0.0000 C   0  0  0  0  0  0  0  0  0  0  0  0
    5.4559   -5.9922    0.0000 O   0  0  0  0  0  0  0  0  0  0  0  0
    4.6958   -7.6667    0.0000 O   0  0  0  0  0  0  0  0  0  0  0  0
    4.2282   -7.9344    0.0000 O   0  0  0  0  0  0  0  0  0  0  0  0
    3.9585   -6.7060    0.0000 C   0  0  0  0  0  0  0  0  0  0  0  0
  1  2  1  0  0  0  0
  2  3  1  0  0  0  0
  3  4  1  0  0  0  0
  4  5  1  0  0  0  0
  5  6  2  0  0  0  0
  6  1  1  0  0  0  0
  2  7  1  0  0  0  0
  7  8  2  0  0  0  0
  8  9  1  0  0  0  0
  9  1  1  0  0  0  0
  6 10  1  0  0  0  0
  7 14  1  0  0  0  0
 14 15  1  0  0  0  0
  1 16  1  1  0  0  0
  2 17  1  1  0  0  0
  9 18  1  1  0  0  0
  9 19  1  6  0  0  0
  3 20  1  1  0  0  0
 21 22  1  0  0  0  0
 22 23  1  0  0  0  0
 23 24  1  0  0  0  0
 24 25  1  0  0  0  0
 25 26  1  0  0  0  0
 26 21  1  0  0  0  0
 23 27  1  0  0  0  0
 22 28  1  0  0  0  0
 21 29  1  0  0  0  0
 26 30  1  0  0  0  0
 30 31  1  0  0  0  0
 24 32  1  0  0  0  0
 33 34  1  0  0  0  0
 34 35  1  0  0  0  0
 35 36  1  0  0  0  0
 36 37  1  0  0  0  0
 37 38  1  0  0  0  0
 38 33  1  0  0  0  0
 35 39  1  0  0  0  0
 34 40  1  0  0  0  0
 33 41  1  0  0  0  0
 38 42  1  0  0  0  0
 42 32  1  0  0  0  0
 36 20  1  0  0  0  0
 10 11  2  0  0  0  0
 10 12  1  0  0  0  0
 12 13  1  0  0  0  0
M  STY  1   1 SUP
M  SAL   1  4  10  11  12  13
M  SBL   1  1  11
M  SMT   1 COOCH3
M  SAP   1  1  10   6  1
M  END
>  <cdx:fragmentId>
53

$$$$
