109421.cdx
  Mrv1902 05222410232D          

 16 18  0  0  0  0            999 V2000
    7.4774   -7.4773    0.0000 C   0  0  1  0  0  0  0  0  0  0  0  0
    6.8323   -7.9917    0.0000 C   0  0  1  0  0  0  0  0  0  0  0  0
    6.0477   -7.7367    0.0000 C   0  0  0  0  0  0  0  0  0  0  0  0
    5.5628   -8.4042    0.0000 C   0  0  0  0  0  0  0  0  0  0  0  0
    6.0477   -9.0716    0.0000 C   0  0  0  0  0  0  0  0  0  0  0  0
    6.8323   -8.8167    0.0000 C   0  0  1  0  0  0  0  0  0  0  0  0
    7.4774   -9.3310    0.0000 C   0  0  1  0  0  0  0  0  0  0  0  0
    8.2817   -9.1475    0.0000 C   0  0  0  0  0  0  0  0  0  0  0  0
    8.6396   -8.4042    0.0000 C   0  0  0  0  0  0  0  0  0  0  0  0
    8.2817   -7.6609    0.0000 C   0  0  0  0  0  0  0  0  0  0  0  0
    8.0120   -8.4032    0.0000 C   0  0  0  0  0  0  0  0  0  0  0  0
    8.7960   -9.7925    0.0000 C   0  0  0  0  0  0  0  0  0  0  0  0
    6.6850   -9.6284    0.0000 C   0  0  0  0  0  0  0  0  0  0  0  0
    6.6850   -7.1799    0.0000 C   0  0  0  0  0  0  0  0  0  0  0  0
    7.2938   -6.6730    0.0000 C   0  0  0  0  0  0  0  0  0  0  0  0
    7.2938  -10.1353    0.0000 H   0  0  0  0  0  0  0  0  0  0  0  0
  1  2  1  0  0  0  0
  2  3  1  0  0  0  0
  3  4  1  0  0  0  0
  4  5  1  0  0  0  0
  5  6  1  0  0  0  0
  6  7  1  0  0  0  0
  7  8  1  0  0  0  0
  8  9  1  0  0  0  0
  9 10  1  0  0  0  0
  1 10  1  0  0  0  0
  1 11  1  0  0  0  0
  7 11  1  0  0  0  0
  2  6  1  0  0  0  0
  8 12  2  0  0  0  0
  6 13  1  1  0  0  0
  2 14  1  1  0  0  0
  1 15  1  6  0  0  0
  7 16  1  1  0  0  0
M  END
>  <cdx:fragmentId>
5

$$$$
