109451.cdx
  Mrv1902 05222410272D          

  9  8  0  0  0  0            999 V2000
    6.5413   -3.3333    0.0000 C   0  0  0  0  0  0  0  0  0  0  0  0
    5.8268   -2.9208    0.0000 C   0  0  0  0  0  0  0  0  0  0  0  0
    5.1124   -3.3333    0.0000 C   0  0  0  0  0  0  0  0  0  0  0  0
    4.3979   -2.9208    0.0000 C   0  0  0  0  0  0  0  0  0  0  0  0
    3.6834   -3.3333    0.0000 C   0  0  0  0  0  0  0  0  0  0  0  0
    2.9690   -2.9208    0.0000 C   0  0  0  0  0  0  0  0  0  0  0  0
    2.2545   -3.3333    0.0000 C   0  0  0  0  0  0  0  0  0  0  0  0
    7.2558   -2.9208    0.0000 O   0  0  0  0  0  0  0  0  0  0  0  0
    4.3979   -2.0958    0.0000 C   0  0  0  0  0  0  0  0  0  0  0  0
  1  2  1  0  0  0  0
  2  3  1  0  0  0  0
  3  4  1  0  0  0  0
  4  5  1  0  0  0  0
  5  6  1  0  0  0  0
  6  7  1  0  0  0  0
  1  8  1  0  0  0  0
  4  9  1  0  0  0  0
M  END
>  <cdx:groupId>
28

>  <cdx:fragmentId>
5

$$$$
