109401.cdx
  Mrv1902 05222410212D          

 39 42  0  0  0  0            999 V2000
   10.3139   -5.5389    0.0000 C   0  0  0  0  0  0  0  0  0  0  0  0
   10.0589   -6.3235    0.0000 C   0  0  0  0  0  0  0  0  0  0  0  0
    9.2519   -6.4950    0.0000 C   0  0  0  0  0  0  0  0  0  0  0  0
    8.9970   -7.2796    0.0000 C   0  0  0  0  0  0  0  0  0  0  0  0
    8.1900   -7.4511    0.0000 C   0  0  1  0  0  0  0  0  0  0  0  0
    7.6380   -6.8381    0.0000 C   0  0  0  0  0  0  0  0  0  0  0  0
   11.3758   -4.5827    0.0000 O   0  0  0  0  0  0  0  0  0  0  0  0
    8.6999   -5.8819    0.0000 O   0  0  0  0  0  0  0  0  0  0  0  0
    9.7618   -4.9258    0.0000 C   0  0  0  0  0  0  0  0  0  0  0  0
    4.2926   -9.3157    0.0000 C   0  0  0  0  0  0  0  0  0  0  0  0
    3.5781   -9.7282    0.0000 C   0  0  0  0  0  0  0  0  0  0  0  0
    3.5781  -10.5532    0.0000 C   0  0  1  0  0  0  0  0  0  0  0  0
    4.2926  -10.9657    0.0000 C   0  0  2  0  0  0  0  0  0  0  0  0
    5.0071  -10.5532    0.0000 C   0  0  2  0  0  0  0  0  0  0  0  0
    5.7215  -10.9657    0.0000 C   0  0  0  0  0  0  0  0  0  0  0  0
    6.4360  -10.5532    0.0000 C   0  0  0  0  0  0  0  0  0  0  0  0
    6.4360   -9.7282    0.0000 C   0  0  0  0  0  0  0  0  0  0  0  0
    7.1505   -9.3157    0.0000 C   0  0  2  0  0  0  0  0  0  0  0  0
    7.9351   -9.5706    0.0000 C   0  0  2  0  0  0  0  0  0  0  0  0
    8.4200   -8.9032    0.0000 C   0  0  0  0  0  0  0  0  0  0  0  0
    7.9351   -8.2358    0.0000 C   0  0  1  0  0  0  0  0  0  0  0  0
    7.1505   -8.4907    0.0000 C   0  0  1  0  0  0  0  0  0  0  0  0
    6.4360   -8.0782    0.0000 C   0  0  0  0  0  0  0  0  0  0  0  0
    5.7215   -8.4907    0.0000 C   0  0  0  0  0  0  0  0  0  0  0  0
    5.7215   -9.3157    0.0000 C   0  0  0  0  0  0  0  0  0  0  0  0
    5.0071   -9.7282    0.0000 C   0  0  1  0  0  0  0  0  0  0  0  0
    5.0071   -8.0782    0.0000 O   0  0  0  0  0  0  0  0  0  0  0  0
    7.1505  -10.1407    0.0000 C   0  0  0  0  0  0  0  0  0  0  0  0
    7.1505   -7.6657    0.0000 C   0  0  0  0  0  0  0  0  0  0  0  0
    5.0071   -8.9032    0.0000 C   0  0  0  0  0  0  0  0  0  0  0  0
    4.7051  -11.6802    0.0000 C   0  0  0  0  0  0  0  0  0  0  0  0
    3.8801  -11.6802    0.0000 C   0  0  0  0  0  0  0  0  0  0  0  0
    8.1900  -10.3553    0.0000 O   0  0  0  0  0  0  0  0  0  0  0  0
    2.8636  -10.9657    0.0000 O   0  0  0  0  0  0  0  0  0  0  0  0
    5.0071  -11.3782    0.0000 H   0  0  0  0  0  0  0  0  0  0  0  0
   11.6729   -5.9804    0.0000 O   0  0  0  0  0  0  0  0  0  0  0  0
   11.1208   -5.3673    0.0000 C   0  0  0  0  0  0  0  0  0  0  0  0
    8.7197   -7.9808    0.0000 H   0  0  0  0  0  0  0  0  0  0  0  0
    4.2926  -12.3947    0.0000 O   0  0  0  0  0  0  0  0  0  0  0  0
 37  7  1  0  0  0  0
 37 36  2  0  0  0  0
 37  1  1  0  0  0  0
  1  2  1  0  0  0  0
  2  3  1  0  0  0  0
  3  4  1  0  0  0  0
  4  5  1  0  0  0  0
  5  6  1  6  0  0  0
  3  8  2  0  0  0  0
  1  9  1  0  0  0  0
 10 11  1  0  0  0  0
 11 12  1  0  0  0  0
 12 13  1  0  0  0  0
 13 14  1  0  0  0  0
 14 15  1  0  0  0  0
 15 16  1  0  0  0  0
 16 17  1  0  0  0  0
 17 18  1  0  0  0  0
 18 19  1  0  0  0  0
 19 20  1  0  0  0  0
 21 20  1  0  0  0  0
 21 22  1  0  0  0  0
 18 22  1  0  0  0  0
 22 23  1  0  0  0  0
 23 24  1  0  0  0  0
 24 25  1  0  0  0  0
 17 25  2  0  0  0  0
 25 26  1  0  0  0  0
 14 26  1  0  0  0  0
 10 26  1  0  0  0  0
 24 27  2  0  0  0  0
 18 28  1  6  0  0  0
 22 29  1  1  0  0  0
 26 30  1  1  0  0  0
 13 31  1  6  0  0  0
 13 32  1  1  0  0  0
 19 33  1  6  0  0  0
 12 34  1  1  0  0  0
  5 21  1  0  0  0  0
 14 35  1  6  0  0  0
 21 38  1  6  0  0  0
 32 39  1  0  0  0  0
M  END
>  <cdx:fragmentId>
101425

$$$$
