10109594.cdx
  Mrv1902 05222410242D          

 27 29  0  0  0  0            999 V2000
    3.8206  -13.6862    0.0000 C   0  0  0  0  0  0  0  0  0  0  0  0
    4.5351  -13.2737    0.0000 C   0  0  0  0  0  0  0  0  0  0  0  0
    5.2496  -13.6862    0.0000 C   0  0  0  0  0  0  0  0  0  0  0  0
    5.2496  -14.5112    0.0000 C   0  0  0  0  0  0  0  0  0  0  0  0
    4.5351  -14.9237    0.0000 C   0  0  0  0  0  0  0  0  0  0  0  0
    3.8206  -14.5112    0.0000 C   0  0  0  0  0  0  0  0  0  0  0  0
    3.1062  -13.2737    0.0000 O   0  0  0  0  0  0  0  0  0  0  0  0
    5.9640  -13.2737    0.0000 O   0  0  0  0  0  0  0  0  0  0  0  0
    5.9640  -15.7487    0.0000 C   0  0  0  0  0  0  0  0  0  0  0  0
    5.9640  -14.9237    0.0000 C   0  0  0  0  0  0  0  0  0  0  0  0
    6.6785  -14.5112    0.0000 C   0  0  0  0  0  0  0  0  0  0  0  0
    7.3930  -14.9237    0.0000 C   0  0  0  0  0  0  0  0  0  0  0  0
    8.1075  -14.5112    0.0000 C   0  0  0  0  0  0  0  0  0  0  0  0
    8.8219  -14.9237    0.0000 C   0  0  0  0  0  0  0  0  0  0  0  0
    8.8219  -15.7487    0.0000 C   0  0  0  0  0  0  0  0  0  0  0  0
    8.1075  -16.1612    0.0000 C   0  0  0  0  0  0  0  0  0  0  0  0
    7.3930  -15.7487    0.0000 C   0  0  0  0  0  0  0  0  0  0  0  0
    6.6785  -16.1612    0.0000 O   0  0  0  0  0  0  0  0  0  0  0  0
    9.5364  -14.5112    0.0000 C   0  0  0  0  0  0  0  0  0  0  0  0
   10.2509  -14.9237    0.0000 C   0  0  0  0  0  0  0  0  0  0  0  0
   10.9653  -14.5112    0.0000 C   0  0  0  0  0  0  0  0  0  0  0  0
   10.9653  -13.6862    0.0000 C   0  0  0  0  0  0  0  0  0  0  0  0
   11.6798  -14.9237    0.0000 C   0  0  0  0  0  0  0  0  0  0  0  0
    9.5364  -16.1612    0.0000 O   0  0  0  0  0  0  0  0  0  0  0  0
   10.2509  -15.7487    0.0000 C   0  0  0  0  0  0  0  0  0  0  0  0
    8.1075  -13.6862    0.0000 O   0  0  0  0  0  0  0  0  0  0  0  0
    8.8219  -13.2737    0.0000 C   0  0  0  0  0  0  0  0  0  0  0  0
  1  2  1  0  0  0  0
  2  3  2  0  0  0  0
  3  4  1  0  0  0  0
  4  5  2  0  0  0  0
  5  6  1  0  0  0  0
  1  6  2  0  0  0  0
  1  7  1  0  0  0  0
  3  8  1  0  0  0  0
  9 10  1  0  0  0  0
 10 11  2  0  0  0  0
 11 12  1  0  0  0  0
 12 13  1  0  0  0  0
 13 14  2  0  0  0  0
 14 15  1  0  0  0  0
 15 16  2  0  0  0  0
 16 17  1  0  0  0  0
 12 17  2  0  0  0  0
 17 18  1  0  0  0  0
  9 18  1  0  0  0  0
 19 20  1  0  0  0  0
 20 21  2  0  0  0  0
 21 22  1  0  0  0  0
 21 23  1  0  0  0  0
 14 19  1  0  0  0  0
 24 25  1  0  0  0  0
 15 24  1  0  0  0  0
 26 27  1  0  0  0  0
 13 26  1  0  0  0  0
  4 10  1  0  0  0  0
M  END
>  <cdx:fragmentId>
41615

$$$$
