10966.cdx
  Mrv1902 05222410182D          

 41 45  0  0  0  0            999 V2000
    4.0045  -10.0031    0.0000 C   0  0  0  0  0  0  0  0  0  0  0  0
    4.0045  -10.8281    0.0000 C   0  0  0  0  0  0  0  0  0  0  0  0
    4.7190  -11.2406    0.0000 C   0  0  0  0  0  0  0  0  0  0  0  0
    5.4335  -10.8281    0.0000 C   0  0  0  0  0  0  0  0  0  0  0  0
    5.4335  -10.0031    0.0000 C   0  0  0  0  0  0  0  0  0  0  0  0
    4.7190   -9.5906    0.0000 C   0  0  0  0  0  0  0  0  0  0  0  0
    6.1479  -11.2406    0.0000 C   0  0  0  0  0  0  0  0  0  0  0  0
    6.8624  -10.8281    0.0000 C   0  0  0  0  0  0  0  0  0  0  0  0
    6.8624  -10.0031    0.0000 C   0  0  0  0  0  0  0  0  0  0  0  0
    6.1479   -9.5906    0.0000 O   0  0  0  0  0  0  0  0  0  0  0  0
    7.5769  -11.2406    0.0000 C   0  0  0  0  0  0  0  0  0  0  0  0
    7.5769  -12.0656    0.0000 C   0  0  0  0  0  0  0  0  0  0  0  0
    8.2914  -12.4781    0.0000 C   0  0  0  0  0  0  0  0  0  0  0  0
    9.0058  -12.0656    0.0000 C   0  0  0  0  0  0  0  0  0  0  0  0
    9.0058  -11.2406    0.0000 C   0  0  0  0  0  0  0  0  0  0  0  0
    8.2914  -10.8281    0.0000 C   0  0  0  0  0  0  0  0  0  0  0  0
    3.2901   -9.5906    0.0000 O   0  0  0  0  0  0  0  0  0  0  0  0
    4.7190  -12.0656    0.0000 O   0  0  0  0  0  0  0  0  0  0  0  0
    6.1479  -12.0656    0.0000 O   0  0  0  0  0  0  0  0  0  0  0  0
    9.7203  -12.4781    0.0000 O   0  0  0  0  0  0  0  0  0  0  0  0
    4.7267   -8.6509    0.0000 O   0  0  0  0  0  0  0  0  0  0  0  0
    7.6479   -6.4796    0.0000 O   0  0  0  0  0  0  0  0  0  0  0  0
    6.4031   -7.2091    0.0000 C   0  0  2  0  0  0  0  0  0  0  0  0
    5.9906   -6.4947    0.0000 C   0  0  2  0  0  0  0  0  0  0  0  0
    5.1656   -6.4947    0.0000 C   0  0  1  0  0  0  0  0  0  0  0  0
    4.7531   -7.2092    0.0000 C   0  0  2  0  0  0  0  0  0  0  0  0
    5.1657   -7.9237    0.0000 C   0  0  1  0  0  0  0  0  0  0  0  0
    5.9907   -7.9236    0.0000 O   0  0  0  0  0  0  0  0  0  0  0  0
    7.2281   -7.2090    0.0000 C   0  0  0  0  0  0  0  0  0  0  0  0
    4.7530   -5.7803    0.0000 O   0  0  0  0  0  0  0  0  0  0  0  0
    6.4030   -5.7801    0.0000 O   0  0  0  0  0  0  0  0  0  0  0  0
    3.9281   -7.2093    0.0000 O   0  0  0  0  0  0  0  0  0  0  0  0
    9.7622   -6.8598    0.0000 C   0  0  0  0  0  0  0  0  0  0  0  0
    9.7516   -6.0349    0.0000 C   0  0  1  0  0  0  0  0  0  0  0  0
    8.9637   -5.7901    0.0000 C   0  0  2  0  0  0  0  0  0  0  0  0
    8.4875   -6.4638    0.0000 C   0  0  2  0  0  0  0  0  0  0  0  0
    8.9810   -7.1249    0.0000 O   0  0  0  0  0  0  0  0  0  0  0  0
    8.7399   -4.9960    0.0000 O   0  0  0  0  0  0  0  0  0  0  0  0
    9.8825   -5.2203    0.0000 C   0  0  0  0  0  0  0  0  0  0  0  0
   10.6534   -4.9265    0.0000 O   0  0  0  0  0  0  0  0  0  0  0  0
   10.5661   -6.1658    0.0000 O   0  0  0  0  0  0  0  0  0  0  0  0
  1  2  2  0  0  0  0
  2  3  1  0  0  0  0
  3  4  2  0  0  0  0
  4  5  1  0  0  0  0
  5  6  2  0  0  0  0
  6  1  1  0  0  0  0
  4  7  1  0  0  0  0
  7  8  1  0  0  0  0
  8  9  2  0  0  0  0
  9 10  1  0  0  0  0
 10  5  1  0  0  0  0
  8 11  1  0  0  0  0
 11 12  2  0  0  0  0
 12 13  1  0  0  0  0
 13 14  2  0  0  0  0
 14 15  1  0  0  0  0
 15 16  2  0  0  0  0
 16 11  1  0  0  0  0
  1 17  1  0  0  0  0
  3 18  1  0  0  0  0
  7 19  2  0  0  0  0
 14 20  1  0  0  0  0
  6 21  1  0  0  0  0
 23 24  1  0  0  0  0
 24 25  1  0  0  0  0
 25 26  1  0  0  0  0
 26 27  1  0  0  0  0
 27 28  1  0  0  0  0
 28 23  1  0  0  0  0
 23 29  1  1  0  0  0
 25 30  1  1  0  0  0
 24 31  1  6  0  0  0
 26 32  1  6  0  0  0
 29 22  1  0  0  0  0
 27 21  1  1  0  0  0
 33 34  1  0  0  0  0
 34 35  1  0  0  0  0
 35 36  1  0  0  0  0
 36 37  1  0  0  0  0
 37 33  1  0  0  0  0
 35 38  1  6  0  0  0
 36 22  1  6  0  0  0
 34 39  1  1  0  0  0
 39 40  1  0  0  0  0
 34 41  1  6  0  0  0
M  END
>  <cdx:fragmentId>
5

$$$$
