10964.cdx
  Mrv1902 05222410192D          

  5  4  0  0  0  0            999 V2000
    4.1283   -2.7365    0.0000 C   0  0  0  0  0  0  0  0  0  0  0  0
    4.8427   -3.1490    0.0000 C   0  0  0  0  0  0  0  0  0  0  0  0
    5.5572   -2.7365    0.0000 C   0  0  0  0  0  0  0  0  0  0  0  0
    3.4138   -3.1490    0.0000 O   0  0  0  0  0  0  0  0  0  0  0  0
    6.2717   -3.1490    0.0000 O   0  0  0  0  0  0  0  0  0  0  0  0
  1  2  1  0  0  0  0
  2  3  1  0  0  0  0
  1  4  2  0  0  0  0
  3  5  2  0  0  0  0
M  END
>  <cdx:groupId>
16

>  <cdx:fragmentId>
5

$$$$
