10967.cdx
  Mrv1902 05222410182D          

 32 35  0  0  0  0            999 V2000
    4.0045  -10.0031    0.0000 C   0  0  0  0  0  0  0  0  0  0  0  0
    4.0045  -10.8281    0.0000 C   0  0  0  0  0  0  0  0  0  0  0  0
    4.7190  -11.2406    0.0000 C   0  0  0  0  0  0  0  0  0  0  0  0
    5.4335  -10.8281    0.0000 C   0  0  0  0  0  0  0  0  0  0  0  0
    5.4335  -10.0031    0.0000 C   0  0  0  0  0  0  0  0  0  0  0  0
    4.7190   -9.5906    0.0000 C   0  0  0  0  0  0  0  0  0  0  0  0
    6.1479  -11.2406    0.0000 C   0  0  0  0  0  0  0  0  0  0  0  0
    6.8624  -10.8281    0.0000 C   0  0  0  0  0  0  0  0  0  0  0  0
    6.8624  -10.0031    0.0000 C   0  0  0  0  0  0  0  0  0  0  0  0
    6.1479   -9.5906    0.0000 O   0  0  0  0  0  0  0  0  0  0  0  0
    7.5769  -11.2406    0.0000 C   0  0  0  0  0  0  0  0  0  0  0  0
    7.5769  -12.0656    0.0000 C   0  0  0  0  0  0  0  0  0  0  0  0
    8.2914  -12.4781    0.0000 C   0  0  0  0  0  0  0  0  0  0  0  0
    9.0058  -12.0656    0.0000 C   0  0  0  0  0  0  0  0  0  0  0  0
    9.0058  -11.2406    0.0000 C   0  0  0  0  0  0  0  0  0  0  0  0
    8.2914  -10.8281    0.0000 C   0  0  0  0  0  0  0  0  0  0  0  0
    3.2901   -9.5906    0.0000 O   0  0  0  0  0  0  0  0  0  0  0  0
    4.7190  -12.0656    0.0000 O   0  0  0  0  0  0  0  0  0  0  0  0
    6.1479  -12.0656    0.0000 O   0  0  0  0  0  0  0  0  0  0  0  0
    9.7203  -12.4781    0.0000 O   0  0  0  0  0  0  0  0  0  0  0  0
    4.7267   -8.6509    0.0000 O   0  0  0  0  0  0  0  0  0  0  0  0
    7.6819   -6.5260    0.0000 O   0  0  0  0  0  0  0  0  0  0  0  0
    6.4257   -7.2358    0.0000 C   0  0  2  0  0  0  0  0  0  0  0  0
    6.0245   -6.5149    0.0000 C   0  0  2  0  0  0  0  0  0  0  0  0
    5.1996   -6.5019    0.0000 C   0  0  1  0  0  0  0  0  0  0  0  0
    4.7759   -7.2098    0.0000 C   0  0  2  0  0  0  0  0  0  0  0  0
    5.1771   -7.9307    0.0000 C   0  0  1  0  0  0  0  0  0  0  0  0
    6.0020   -7.9437    0.0000 O   0  0  0  0  0  0  0  0  0  0  0  0
    7.2506   -7.2487    0.0000 C   0  0  0  0  0  0  0  0  0  0  0  0
    4.7984   -5.7811    0.0000 O   0  0  0  0  0  0  0  0  0  0  0  0
    6.4482   -5.8070    0.0000 O   0  0  0  0  0  0  0  0  0  0  0  0
    3.9510   -7.1969    0.0000 O   0  0  0  0  0  0  0  0  0  0  0  0
  1  2  2  0  0  0  0
  2  3  1  0  0  0  0
  3  4  2  0  0  0  0
  4  5  1  0  0  0  0
  5  6  2  0  0  0  0
  6  1  1  0  0  0  0
  4  7  1  0  0  0  0
  7  8  1  0  0  0  0
  8  9  2  0  0  0  0
  9 10  1  0  0  0  0
 10  5  1  0  0  0  0
  8 11  1  0  0  0  0
 11 12  2  0  0  0  0
 12 13  1  0  0  0  0
 13 14  2  0  0  0  0
 14 15  1  0  0  0  0
 15 16  2  0  0  0  0
 16 11  1  0  0  0  0
  1 17  1  0  0  0  0
  3 18  1  0  0  0  0
  7 19  2  0  0  0  0
 14 20  1  0  0  0  0
  6 21  1  0  0  0  0
 23 24  1  0  0  0  0
 24 25  1  0  0  0  0
 25 26  1  0  0  0  0
 26 27  1  0  0  0  0
 27 28  1  0  0  0  0
 28 23  1  0  0  0  0
 23 29  1  1  0  0  0
 25 30  1  1  0  0  0
 24 31  1  6  0  0  0
 26 32  1  6  0  0  0
 29 22  1  0  0  0  0
 27 21  1  1  0  0  0
M  END
>  <cdx:fragmentId>
5

$$$$
