109778.cdx
  Mrv1902 05222410252D          

 80 89  0  0  0  0            999 V2000
   10.3453   -6.3519    0.0000 C   0  0  1  0  0  0  0  0  0  0  0  0
    9.6309   -6.7644    0.0000 C   0  0  2  0  0  0  0  0  0  0  0  0
    9.6309   -7.5894    0.0000 C   0  0  0  0  0  0  0  0  0  0  0  0
    8.9164   -8.0019    0.0000 C   0  0  0  0  0  0  0  0  0  0  0  0
    8.2019   -7.5894    0.0000 C   0  0  1  0  0  0  0  0  0  0  0  0
    7.4875   -8.0019    0.0000 C   0  0  0  0  0  0  0  0  0  0  0  0
    6.7730   -7.5894    0.0000 C   0  0  2  0  0  0  0  0  0  0  0  0
    6.7730   -6.7644    0.0000 C   0  0  0  0  0  0  0  0  0  0  0  0
    7.4875   -6.3519    0.0000 C   0  0  0  0  0  0  0  0  0  0  0  0
    8.2019   -6.7644    0.0000 C   0  0  2  0  0  0  0  0  0  0  0  0
    8.9164   -6.3519    0.0000 C   0  0  1  0  0  0  0  0  0  0  0  0
    8.9164   -5.5269    0.0000 C   0  0  0  0  0  0  0  0  0  0  0  0
    9.6309   -5.1144    0.0000 C   0  0  0  0  0  0  0  0  0  0  0  0
   10.3453   -5.5269    0.0000 C   0  0  0  0  0  0  0  0  0  0  0  0
   11.0598   -5.1144    0.0000 C   0  0  2  0  0  0  0  0  0  0  0  0
   11.0598   -4.2894    0.0000 C   0  0  0  0  0  0  0  0  0  0  0  0
   11.7743   -3.8769    0.0000 C   0  0  1  0  0  0  0  0  0  0  0  0
   12.4888   -4.2894    0.0000 C   0  0  0  0  0  0  0  0  0  0  0  0
   12.4888   -5.1144    0.0000 C   0  0  0  0  0  0  0  0  0  0  0  0
   11.7743   -5.5269    0.0000 C   0  0  2  0  0  0  0  0  0  0  0  0
   11.7743   -6.3519    0.0000 C   0  0  2  0  0  0  0  0  0  0  0  0
   11.7743   -7.1769    0.0000 O   0  0  0  0  0  0  0  0  0  0  0  0
   11.0598   -6.7644    0.0000 C   0  0  2  0  0  0  0  0  0  0  0  0
   12.1868   -3.1625    0.0000 C   0  0  0  0  0  0  0  0  0  0  0  0
    8.2019   -5.9394    0.0000 C   0  0  0  0  0  0  0  0  0  0  0  0
    7.9000   -8.7164    0.0000 C   0  0  0  0  0  0  0  0  0  0  0  0
    7.0750   -8.7164    0.0000 C   0  0  0  0  0  0  0  0  0  0  0  0
    9.6309   -5.9394    0.0000 C   0  0  0  0  0  0  0  0  0  0  0  0
   10.3453   -7.1769    0.0000 C   0  0  0  0  0  0  0  0  0  0  0  0
   12.4888   -5.9394    0.0000 C   0  0  0  0  0  0  0  0  0  0  0  0
   13.2032   -5.5269    0.0000 O   0  0  0  0  0  0  0  0  0  0  0  0
   11.3618   -3.1625    0.0000 C   0  0  0  0  0  0  0  0  0  0  0  0
   10.5368   -3.1625    0.0000 O   0  0  0  0  0  0  0  0  0  0  0  0
    8.2019   -8.4144    0.0000 H   0  0  0  0  0  0  0  0  0  0  0  0
    8.9164   -7.1769    0.0000 H   0  0  0  0  0  0  0  0  0  0  0  0
   11.0598   -5.9394    0.0000 H   0  0  0  0  0  0  0  0  0  0  0  0
   12.5993   -6.3519    0.0000 H   0  0  0  0  0  0  0  0  0  0  0  0
   10.6473   -7.4789    0.0000 H   0  0  0  0  0  0  0  0  0  0  0  0
    6.0585   -8.0019    0.0000 O   0  0  0  0  0  0  0  0  0  0  0  0
    3.2007   -7.9910    0.0000 O   0  0  0  0  0  0  0  0  0  0  0  0
    4.6201  -10.4714    0.0000 O   0  0  0  0  0  0  0  0  0  0  0  0
    3.1880  -11.2910    0.0000 O   0  0  0  0  0  0  0  0  0  0  0  0
    1.7623  -10.4605    0.0000 O   0  0  0  0  0  0  0  0  0  0  0  0
    1.7717   -7.9855    0.0000 O   0  0  0  0  0  0  0  0  0  0  0  0
    1.7686   -8.8105    0.0000 C   0  0  0  0  0  0  0  0  0  0  0  0
    2.4815   -9.2258    0.0000 C   0  0  2  0  0  0  0  0  0  0  0  0
    2.4783  -10.0507    0.0000 C   0  0  2  0  0  0  0  0  0  0  0  0
    3.1912  -10.4660    0.0000 C   0  0  1  0  0  0  0  0  0  0  0  0
    3.9072  -10.0562    0.0000 C   0  0  2  0  0  0  0  0  0  0  0  0
    3.9104   -9.2312    0.0000 C   0  0  1  0  0  0  0  0  0  0  0  0
    3.1975   -8.8160    0.0000 O   0  0  0  0  0  0  0  0  0  0  0  0
    4.6264   -8.8215    0.0000 O   0  0  0  0  0  0  0  0  0  0  0  0
    5.3456   -7.5867    0.0000 C   0  0  1  0  0  0  0  0  0  0  0  0
    4.6296   -7.9965    0.0000 C   0  0  1  0  0  0  0  0  0  0  0  0
    3.9167   -7.5812    0.0000 C   0  0  2  0  0  0  0  0  0  0  0  0
    3.9199   -6.7562    0.0000 C   0  0  2  0  0  0  0  0  0  0  0  0
    4.6359   -6.3465    0.0000 C   0  0  0  0  0  0  0  0  0  0  0  0
    5.3488   -6.7617    0.0000 O   0  0  0  0  0  0  0  0  0  0  0  0
    3.2070   -6.3410    0.0000 O   0  0  0  0  0  0  0  0  0  0  0  0
    4.6454   -3.8715    0.0000 O   0  0  0  0  0  0  0  0  0  0  0  0
    3.2196   -3.0410    0.0000 O   0  0  0  0  0  0  0  0  0  0  0  0
    1.7907   -3.0356    0.0000 O   0  0  0  0  0  0  0  0  0  0  0  0
    1.7875   -3.8606    0.0000 C   0  0  0  0  0  0  0  0  0  0  0  0
    2.5004   -4.2758    0.0000 C   0  0  2  0  0  0  0  0  0  0  0  0
    3.2164   -3.8660    0.0000 C   0  0  2  0  0  0  0  0  0  0  0  0
    3.9293   -4.2813    0.0000 C   0  0  1  0  0  0  0  0  0  0  0  0
    3.9262   -5.1062    0.0000 C   0  0  2  0  0  0  0  0  0  0  0  0
    3.2101   -5.5160    0.0000 C   0  0  1  0  0  0  0  0  0  0  0  0
    2.4972   -5.1008    0.0000 O   0  0  0  0  0  0  0  0  0  0  0  0
    4.6391   -5.5215    0.0000 O   0  0  0  0  0  0  0  0  0  0  0  0
    6.0775   -3.0520    0.0000 C   0  0  0  0  0  0  0  0  0  0  0  0
    7.5032   -3.8824    0.0000 O   0  0  0  0  0  0  0  0  0  0  0  0
    7.4969   -5.5324    0.0000 O   0  0  0  0  0  0  0  0  0  0  0  0
    6.0648   -6.3519    0.0000 O   0  0  0  0  0  0  0  0  0  0  0  0
    6.0743   -3.8770    0.0000 C   0  0  1  0  0  0  0  0  0  0  0  0
    6.7872   -4.2922    0.0000 C   0  0  1  0  0  0  0  0  0  0  0  0
    6.7840   -5.1172    0.0000 C   0  0  2  0  0  0  0  0  0  0  0  0
    6.0680   -5.5269    0.0000 C   0  0  2  0  0  0  0  0  0  0  0  0
    5.3551   -5.1117    0.0000 C   0  0  1  0  0  0  0  0  0  0  0  0
    5.3583   -4.2867    0.0000 O   0  0  0  0  0  0  0  0  0  0  0  0
 79 70  1  6  0  0  0
 67 70  1  1  0  0  0
 68 59  1  6  0  0  0
 56 59  1  1  0  0  0
 53 39  1  1  0  0  0
 55 40  1  1  0  0  0
 54 52  1  6  0  0  0
 50 52  1  1  0  0  0
 49 41  1  6  0  0  0
 48 42  1  1  0  0  0
 47 43  1  6  0  0  0
 46 45  1  1  0  0  0
 45 44  1  0  0  0  0
 51 46  1  0  0  0  0
 47 46  1  0  0  0  0
 48 47  1  0  0  0  0
 49 48  1  0  0  0  0
 50 49  1  0  0  0  0
 51 50  1  0  0  0  0
 58 53  1  0  0  0  0
 54 53  1  0  0  0  0
 55 54  1  0  0  0  0
 56 55  1  0  0  0  0
 57 56  1  0  0  0  0
 58 57  1  0  0  0  0
 66 60  1  6  0  0  0
 65 61  1  1  0  0  0
 64 63  1  6  0  0  0
 63 62  1  0  0  0  0
 69 64  1  0  0  0  0
 65 64  1  0  0  0  0
 66 65  1  0  0  0  0
 67 66  1  0  0  0  0
 68 67  1  0  0  0  0
 69 68  1  0  0  0  0
 75 71  1  1  0  0  0
 76 72  1  6  0  0  0
 77 73  1  1  0  0  0
 78 74  1  1  0  0  0
 80 75  1  0  0  0  0
 76 75  1  0  0  0  0
 77 76  1  0  0  0  0
 78 77  1  0  0  0  0
 79 78  1  0  0  0  0
 80 79  1  0  0  0  0
  1  2  1  0  0  0  0
  2  3  1  0  0  0  0
  3  4  1  0  0  0  0
  4  5  1  0  0  0  0
  5  6  1  0  0  0  0
  6  7  1  0  0  0  0
  7  8  1  0  0  0  0
  8  9  1  0  0  0  0
  9 10  1  0  0  0  0
 10 11  1  0  0  0  0
 11 12  1  0  0  0  0
 12 13  1  0  0  0  0
 13 14  2  0  0  0  0
 14 15  1  0  0  0  0
 15 16  1  0  0  0  0
 16 17  1  0  0  0  0
 17 18  1  0  0  0  0
 18 19  1  0  0  0  0
 19 20  1  0  0  0  0
 20 21  1  0  0  0  0
 21 22  1  0  0  0  0
 22 23  1  0  0  0  0
  1 23  1  0  0  0  0
  1 14  1  0  0  0  0
 15 20  1  0  0  0  0
  2 11  1  0  0  0  0
  5 10  1  0  0  0  0
 21 23  1  0  0  0  0
 17 24  1  6  0  0  0
 10 25  1  1  0  0  0
  6 26  1  0  0  0  0
  6 27  1  0  0  0  0
  2 28  1  1  0  0  0
  1 29  1  6  0  0  0
 30 31  1  0  0  0  0
 20 30  1  1  0  0  0
 32 33  1  0  0  0  0
 17 32  1  1  0  0  0
  7 39  1  1  0  0  0
  5 34  1  6  0  0  0
 11 35  1  6  0  0  0
 15 36  1  1  0  0  0
 21 37  1  1  0  0  0
 23 38  1  1  0  0  0
M  END
>  <cdx:fragmentId>
119138

$$$$
