109783.cdx
  Mrv1902 05222410242D          

 79 88  0  0  0  0            999 V2000
   13.0940   -6.0082    0.0000 C   0  0  2  0  0  0  0  0  0  0  0  0
   13.0940   -6.8332    0.0000 C   0  0  1  0  0  0  0  0  0  0  0  0
   12.3795   -7.2457    0.0000 C   0  0  0  0  0  0  0  0  0  0  0  0
   11.6651   -6.8332    0.0000 C   0  0  1  0  0  0  0  0  0  0  0  0
   10.9506   -7.2457    0.0000 C   0  0  2  0  0  0  0  0  0  0  0  0
   10.9506   -8.0707    0.0000 C   0  0  0  0  0  0  0  0  0  0  0  0
   10.2361   -8.4832    0.0000 C   0  0  0  0  0  0  0  0  0  0  0  0
    9.5217   -8.0707    0.0000 C   0  0  1  0  0  0  0  0  0  0  0  0
    8.8072   -8.4832    0.0000 C   0  0  0  0  0  0  0  0  0  0  0  0
    8.0927   -8.0707    0.0000 C   0  0  2  0  0  0  0  0  0  0  0  0
    8.0927   -7.2457    0.0000 C   0  0  0  0  0  0  0  0  0  0  0  0
    8.8072   -6.8332    0.0000 C   0  0  0  0  0  0  0  0  0  0  0  0
    9.5217   -7.2457    0.0000 C   0  0  2  0  0  0  0  0  0  0  0  0
   10.2361   -6.8332    0.0000 C   0  0  1  0  0  0  0  0  0  0  0  0
   10.2361   -6.0082    0.0000 C   0  0  0  0  0  0  0  0  0  0  0  0
   10.9506   -5.5957    0.0000 C   0  0  0  0  0  0  0  0  0  0  0  0
   11.6651   -6.0082    0.0000 C   0  0  2  0  0  0  0  0  0  0  0  0
   12.3795   -5.5957    0.0000 C   0  0  2  0  0  0  0  0  0  0  0  0
   12.3795   -4.7707    0.0000 C   0  0  0  0  0  0  0  0  0  0  0  0
   13.0940   -4.3582    0.0000 C   0  0  2  0  0  0  0  0  0  0  0  0
   13.8085   -4.7707    0.0000 C   0  0  0  0  0  0  0  0  0  0  0  0
   13.8085   -5.5957    0.0000 C   0  0  0  0  0  0  0  0  0  0  0  0
   12.6815   -3.6437    0.0000 C   0  0  0  0  0  0  0  0  0  0  0  0
   11.8565   -3.6437    0.0000 O   0  0  0  0  0  0  0  0  0  0  0  0
   13.5065   -3.6437    0.0000 C   0  0  0  0  0  0  0  0  0  0  0  0
    9.5217   -6.4207    0.0000 C   0  0  0  0  0  0  0  0  0  0  0  0
    9.2197   -9.1976    0.0000 C   0  0  0  0  0  0  0  0  0  0  0  0
    8.3947   -9.1976    0.0000 C   0  0  0  0  0  0  0  0  0  0  0  0
   10.9506   -6.4207    0.0000 C   0  0  0  0  0  0  0  0  0  0  0  0
   11.6651   -7.6582    0.0000 C   0  0  0  0  0  0  0  0  0  0  0  0
   13.8085   -7.2457    0.0000 O   0  0  0  0  0  0  0  0  0  0  0  0
    7.3782   -8.4832    0.0000 O   0  0  0  0  0  0  0  0  0  0  0  0
    5.9493   -8.4832    0.0000 O   0  0  0  0  0  0  0  0  0  0  0  0
    6.6638   -8.0707    0.0000 C   0  0  2  0  0  0  0  0  0  0  0  0
    6.6638   -7.2457    0.0000 C   0  0  1  0  0  0  0  0  0  0  0  0
    5.9493   -6.8332    0.0000 C   0  0  2  0  0  0  0  0  0  0  0  0
    5.2348   -7.2457    0.0000 C   0  0  2  0  0  0  0  0  0  0  0  0
    5.2348   -8.0707    0.0000 C   0  0  0  0  0  0  0  0  0  0  0  0
    7.3782   -6.8332    0.0000 O   0  0  0  0  0  0  0  0  0  0  0  0
    6.6638   -5.5957    0.0000 O   0  0  0  0  0  0  0  0  0  0  0  0
    7.3782   -6.0082    0.0000 C   0  0  2  0  0  0  0  0  0  0  0  0
    8.0927   -5.5957    0.0000 C   0  0  1  0  0  0  0  0  0  0  0  0
    8.0927   -4.7707    0.0000 C   0  0  2  0  0  0  0  0  0  0  0  0
    7.3782   -4.3582    0.0000 C   0  0  1  0  0  0  0  0  0  0  0  0
    6.6638   -4.7707    0.0000 C   0  0  1  0  0  0  0  0  0  0  0  0
    5.9493   -4.3582    0.0000 C   0  0  0  0  0  0  0  0  0  0  0  0
    5.2348   -4.7707    0.0000 O   0  0  0  0  0  0  0  0  0  0  0  0
    7.3782   -3.5332    0.0000 O   0  0  0  0  0  0  0  0  0  0  0  0
    8.8072   -4.3582    0.0000 O   0  0  0  0  0  0  0  0  0  0  0  0
    8.8072   -6.0082    0.0000 O   0  0  0  0  0  0  0  0  0  0  0  0
    5.9493   -6.0082    0.0000 O   0  0  0  0  0  0  0  0  0  0  0  0
    4.5204   -6.8332    0.0000 O   0  0  0  0  0  0  0  0  0  0  0  0
    3.0914   -6.8332    0.0000 O   0  0  0  0  0  0  0  0  0  0  0  0
    3.8059   -7.2457    0.0000 C   0  0  2  0  0  0  0  0  0  0  0  0
    3.8059   -8.0707    0.0000 C   0  0  1  0  0  0  0  0  0  0  0  0
    3.0914   -8.4832    0.0000 C   0  0  2  0  0  0  0  0  0  0  0  0
    2.3770   -8.0707    0.0000 C   0  0  1  0  0  0  0  0  0  0  0  0
    2.3770   -7.2457    0.0000 C   0  0  1  0  0  0  0  0  0  0  0  0
    4.5204   -8.4832    0.0000 O   0  0  0  0  0  0  0  0  0  0  0  0
    3.8059   -9.7207    0.0000 O   0  0  0  0  0  0  0  0  0  0  0  0
    4.5204   -9.3082    0.0000 C   0  0  2  0  0  0  0  0  0  0  0  0
    5.2348   -9.7207    0.0000 C   0  0  1  0  0  0  0  0  0  0  0  0
    5.2348  -10.5457    0.0000 C   0  0  1  0  0  0  0  0  0  0  0  0
    4.5204  -10.9582    0.0000 C   0  0  2  0  0  0  0  0  0  0  0  0
    3.8059  -10.5457    0.0000 C   0  0  2  0  0  0  0  0  0  0  0  0
    3.0914  -10.9582    0.0000 C   0  0  0  0  0  0  0  0  0  0  0  0
    4.5204  -11.7832    0.0000 O   0  0  0  0  0  0  0  0  0  0  0  0
    5.9493  -10.9582    0.0000 O   0  0  0  0  0  0  0  0  0  0  0  0
    5.9493   -9.3082    0.0000 O   0  0  0  0  0  0  0  0  0  0  0  0
    1.6625   -6.8332    0.0000 C   0  0  0  0  0  0  0  0  0  0  0  0
    0.9480   -7.2457    0.0000 O   0  0  0  0  0  0  0  0  0  0  0  0
    1.6625   -8.4832    0.0000 O   0  0  0  0  0  0  0  0  0  0  0  0
    3.0914   -9.3082    0.0000 O   0  0  0  0  0  0  0  0  0  0  0  0
    9.5217   -8.8957    0.0000 H   0  0  0  0  0  0  0  0  0  0  0  0
   10.2361   -7.6582    0.0000 H   0  0  0  0  0  0  0  0  0  0  0  0
   12.3795   -6.4207    0.0000 H   0  0  0  0  0  0  0  0  0  0  0  0
   11.6651   -5.1832    0.0000 O   0  0  0  0  0  0  0  0  0  0  0  0
   13.0940   -5.1832    0.0000 C   0  0  0  0  0  0  0  0  0  0  0  0
   13.6774   -4.5998    0.0000 O   0  0  0  0  0  0  0  0  0  0  0  0
  1  2  1  0  0  0  0
  2  3  1  0  0  0  0
  3  4  1  0  0  0  0
  4  5  1  0  0  0  0
  5  6  1  0  0  0  0
  6  7  1  0  0  0  0
  7  8  1  0  0  0  0
  8  9  1  0  0  0  0
  9 10  1  0  0  0  0
 10 11  1  0  0  0  0
 11 12  1  0  0  0  0
 12 13  1  0  0  0  0
 13 14  1  0  0  0  0
 14 15  1  0  0  0  0
 15 16  1  0  0  0  0
 16 17  1  0  0  0  0
 17 18  1  0  0  0  0
 18 19  1  0  0  0  0
 19 20  1  0  0  0  0
 20 21  1  0  0  0  0
 21 22  1  0  0  0  0
  1 22  1  0  0  0  0
  1 18  1  0  0  0  0
  4 17  1  0  0  0  0
  5 14  1  0  0  0  0
  8 13  1  0  0  0  0
 23 24  2  0  0  0  0
 20 23  1  1  0  0  0
 20 25  1  6  0  0  0
 13 26  1  1  0  0  0
  9 27  1  0  0  0  0
  9 28  1  0  0  0  0
  5 29  1  1  0  0  0
  4 30  1  6  0  0  0
  2 31  1  6  0  0  0
 33 34  1  0  0  0  0
 34 35  1  0  0  0  0
 35 36  1  0  0  0  0
 36 37  1  0  0  0  0
 37 38  1  0  0  0  0
 33 38  1  0  0  0  0
 40 41  1  0  0  0  0
 41 42  1  0  0  0  0
 42 43  1  0  0  0  0
 43 44  1  0  0  0  0
 44 45  1  0  0  0  0
 40 45  1  0  0  0  0
 46 47  1  0  0  0  0
 45 46  1  6  0  0  0
 44 48  1  1  0  0  0
 43 49  1  6  0  0  0
 42 50  1  1  0  0  0
 41 39  1  6  0  0  0
 35 39  1  1  0  0  0
 36 51  1  6  0  0  0
 53 54  1  0  0  0  0
 54 55  1  0  0  0  0
 55 56  1  0  0  0  0
 56 57  1  0  0  0  0
 57 58  1  0  0  0  0
 53 58  1  0  0  0  0
 60 61  1  0  0  0  0
 61 62  1  0  0  0  0
 62 63  1  0  0  0  0
 63 64  1  0  0  0  0
 64 65  1  0  0  0  0
 60 65  1  0  0  0  0
 65 66  1  6  0  0  0
 64 67  1  1  0  0  0
 63 68  1  6  0  0  0
 62 69  1  6  0  0  0
 61 59  1  1  0  0  0
 55 59  1  6  0  0  0
 70 71  1  0  0  0  0
 58 70  1  1  0  0  0
 57 72  1  6  0  0  0
 56 73  1  1  0  0  0
 54 52  1  1  0  0  0
 37 52  1  6  0  0  0
 34 32  1  6  0  0  0
 10 32  1  1  0  0  0
  8 74  1  6  0  0  0
 14 75  1  6  0  0  0
 18 76  1  1  0  0  0
 17 77  1  1  0  0  0
  1 78  1  1  0  0  0
 77 78  1  0  0  0  0
 78 79  2  0  0  0  0
M  END
>  <cdx:fragmentId>
119440

$$$$
