10975.cdx
  Mrv1902 05222410192D          

 11 10  0  0  0  0            999 V2000
    6.1494   -2.4877    0.0000 C   0  0  0  0  0  0  0  0  0  0  0  0
    6.1494   -3.3127    0.0000 C   0  0  0  0  0  0  0  0  0  0  0  0
    5.4350   -3.7252    0.0000 C   0  0  0  0  0  0  0  0  0  0  0  0
    4.7205   -3.3127    0.0000 C   0  0  0  0  0  0  0  0  0  0  0  0
    4.0060   -3.7252    0.0000 C   0  0  0  0  0  0  0  0  0  0  0  0
    3.2916   -3.3127    0.0000 C   0  0  0  0  0  0  0  0  0  0  0  0
    2.5771   -3.7252    0.0000 C   0  0  0  0  0  0  0  0  0  0  0  0
    1.8626   -3.3127    0.0000 C   0  0  0  0  0  0  0  0  0  0  0  0
    6.8639   -2.9002    0.0000 O   0  0  0  0  0  0  0  0  0  0  0  0
    3.2916   -2.4877    0.0000 C   0  0  0  0  0  0  0  0  0  0  0  0
    6.8639   -3.7252    0.0000 C   0  0  0  0  0  0  0  0  0  0  0  0
  1  2  1  0  0  0  0
  2  3  1  0  0  0  0
  3  4  1  0  0  0  0
  4  5  1  0  0  0  0
  5  6  1  0  0  0  0
  6  7  1  0  0  0  0
  7  8  2  0  0  0  0
  2  9  1  0  0  0  0
  6 10  2  0  0  0  0
  2 11  1  0  0  0  0
M  END
>  <cdx:groupId>
34

>  <cdx:fragmentId>
5

$$$$
