109720.cdx
  Mrv1902 05222410262D          

 56 61  0  0  0  0            999 V2000
   12.2389  -10.5050    0.0000 C   0  0  1  0  0  0  0  0  0  0  0  0
   12.2389  -11.3300    0.0000 C   0  0  1  0  0  0  0  0  0  0  0  0
   12.9534  -11.7425    0.0000 C   0  0  0  0  0  0  0  0  0  0  0  0
   13.6679  -11.3300    0.0000 C   0  0  0  0  0  0  0  0  0  0  0  0
   13.6679  -10.5050    0.0000 C   0  0  2  0  0  0  0  0  0  0  0  0
   12.9534  -10.0925    0.0000 C   0  0  0  0  0  0  0  0  0  0  0  0
   14.3823  -11.7425    0.0000 C   0  0  0  0  0  0  0  0  0  0  0  0
   15.0968  -11.3300    0.0000 C   0  0  0  0  0  0  0  0  0  0  0  0
   15.0968  -10.5050    0.0000 C   0  0  2  0  0  0  0  0  0  0  0  0
   14.3823  -10.0925    0.0000 C   0  0  2  0  0  0  0  0  0  0  0  0
   11.5244  -11.7425    0.0000 O   0  0  0  0  0  0  0  0  0  0  0  0
   11.5244  -10.0925    0.0000 O   0  0  0  0  0  0  0  0  0  0  0  0
   13.6679   -9.6800    0.0000 C   0  0  0  0  0  0  0  0  0  0  0  0
   15.0968   -8.0300    0.0000 C   0  0  0  0  0  0  0  0  0  0  0  0
   14.3823   -7.6175    0.0000 O   0  0  0  0  0  0  0  0  0  0  0  0
   15.8113   -7.6175    0.0000 C   0  0  0  0  0  0  0  0  0  0  0  0
   16.5649   -7.9531    0.0000 C   0  0  0  0  0  0  0  0  0  0  0  0
   17.1170   -7.3400    0.0000 C   0  0  0  0  0  0  0  0  0  0  0  0
   16.7045   -6.6255    0.0000 O   0  0  0  0  0  0  0  0  0  0  0  0
   15.8975   -6.7970    0.0000 C   0  0  0  0  0  0  0  0  0  0  0  0
   15.2844   -6.2450    0.0000 C   0  0  0  0  0  0  0  0  0  0  0  0
   15.0968   -8.8550    0.0000 C   0  0  0  0  0  0  0  0  0  0  0  0
   14.3823   -9.2675    0.0000 C   0  0  0  0  0  0  0  0  0  0  0  0
   15.8113  -10.0925    0.0000 C   0  0  0  0  0  0  0  0  0  0  0  0
   16.5257  -10.5050    0.0000 O   0  0  0  0  0  0  0  0  0  0  0  0
   15.8113   -9.2675    0.0000 O   0  0  0  0  0  0  0  0  0  0  0  0
   10.8100  -11.3300    0.0000 C   0  0  1  0  0  0  0  0  0  0  0  0
   10.8100  -10.5050    0.0000 C   0  0  0  0  0  0  0  0  0  0  0  0
   10.0955  -10.0925    0.0000 C   0  0  1  0  0  0  0  0  0  0  0  0
    9.3810  -10.5050    0.0000 C   0  0  1  0  0  0  0  0  0  0  0  0
    9.3810  -11.3300    0.0000 C   0  0  2  0  0  0  0  0  0  0  0  0
   10.0955  -11.7425    0.0000 O   0  0  0  0  0  0  0  0  0  0  0  0
    8.6666  -11.7425    0.0000 C   0  0  0  0  0  0  0  0  0  0  0  0
    8.6666  -10.0925    0.0000 O   0  0  0  0  0  0  0  0  0  0  0  0
   10.0955   -9.2675    0.0000 O   0  0  0  0  0  0  0  0  0  0  0  0
    9.3810   -8.8550    0.0000 C   0  0  0  0  0  0  0  0  0  0  0  0
    7.9521  -10.5050    0.0000 C   0  0  2  0  0  0  0  0  0  0  0  0
    7.2376  -10.0925    0.0000 O   0  0  0  0  0  0  0  0  0  0  0  0
    6.5231  -10.5050    0.0000 C   0  0  2  0  0  0  0  0  0  0  0  0
    6.5231  -11.3300    0.0000 C   0  0  2  0  0  0  0  0  0  0  0  0
    7.2376  -11.7425    0.0000 C   0  0  2  0  0  0  0  0  0  0  0  0
    7.9521  -11.3300    0.0000 C   0  0  0  0  0  0  0  0  0  0  0  0
    5.8087  -10.0925    0.0000 C   0  0  0  0  0  0  0  0  0  0  0  0
    5.8087  -11.7425    0.0000 O   0  0  0  0  0  0  0  0  0  0  0  0
    7.2376  -12.5675    0.0000 O   0  0  0  0  0  0  0  0  0  0  0  0
    7.9521  -12.9800    0.0000 C   0  0  0  0  0  0  0  0  0  0  0  0
    5.0942  -11.3300    0.0000 C   0  0  1  0  0  0  0  0  0  0  0  0
    5.0942  -10.5050    0.0000 C   0  0  0  0  0  0  0  0  0  0  0  0
    4.3797  -10.0925    0.0000 C   0  0  1  0  0  0  0  0  0  0  0  0
    3.6653  -10.5050    0.0000 C   0  0  1  0  0  0  0  0  0  0  0  0
    3.6653  -11.3300    0.0000 C   0  0  2  0  0  0  0  0  0  0  0  0
    4.3797  -11.7425    0.0000 O   0  0  0  0  0  0  0  0  0  0  0  0
    2.9508  -11.7425    0.0000 C   0  0  0  0  0  0  0  0  0  0  0  0
    2.9508  -10.0925    0.0000 O   0  0  0  0  0  0  0  0  0  0  0  0
    4.3797   -9.2675    0.0000 O   0  0  0  0  0  0  0  0  0  0  0  0
    3.6653   -8.8550    0.0000 C   0  0  0  0  0  0  0  0  0  0  0  0
  1  2  1  0  0  0  0
  2  3  1  0  0  0  0
  3  4  1  0  0  0  0
  4  5  1  0  0  0  0
  5  6  1  0  0  0  0
  6  1  1  0  0  0  0
  4  7  2  0  0  0  0
  7  8  1  0  0  0  0
  8  9  1  0  0  0  0
  9 10  1  0  0  0  0
 10  5  1  0  0  0  0
  2 11  1  1  0  0  0
  1 12  1  6  0  0  0
  5 13  1  1  0  0  0
 10 23  1  1  0  0  0
 14 15  2  0  0  0  0
 14 16  1  0  0  0  0
 16 17  1  0  0  0  0
 17 18  2  0  0  0  0
 18 19  1  0  0  0  0
 19 20  1  0  0  0  0
 20 16  2  0  0  0  0
 22 14  1  0  0  0  0
 20 21  1  0  0  0  0
 23 22  1  0  0  0  0
  9 24  1  6  0  0  0
 24 25  1  0  0  0  0
 24 26  2  0  0  0  0
 27 11  1  6  0  0  0
 27 28  1  0  0  0  0
 28 29  1  0  0  0  0
 29 30  1  0  0  0  0
 30 31  1  0  0  0  0
 31 32  1  0  0  0  0
 32 27  1  0  0  0  0
 31 33  1  6  0  0  0
 30 34  1  1  0  0  0
 29 35  1  1  0  0  0
 35 36  1  0  0  0  0
 37 34  1  1  0  0  0
 37 38  1  0  0  0  0
 38 39  1  0  0  0  0
 39 40  1  0  0  0  0
 40 41  1  0  0  0  0
 41 42  1  0  0  0  0
 42 37  1  0  0  0  0
 39 43  1  6  0  0  0
 40 44  1  6  0  0  0
 41 45  1  6  0  0  0
 45 46  1  0  0  0  0
 47 44  1  6  0  0  0
 47 48  1  0  0  0  0
 48 49  1  0  0  0  0
 49 50  1  0  0  0  0
 50 51  1  0  0  0  0
 51 52  1  0  0  0  0
 52 47  1  0  0  0  0
 51 53  1  6  0  0  0
 50 54  1  1  0  0  0
 49 55  1  1  0  0  0
 55 56  1  0  0  0  0
M  END
>  <cdx:fragmentId>
231671

$$$$
