109756.cdx
  Mrv1902 05222410232D          

 13 14  0  0  0  0            999 V2000
    5.5716   -9.1637    0.0000 O   0  0  0  0  0  0  0  0  0  0  0  0
    7.8871   -7.0368    0.0000 H   0  0  0  0  0  0  0  0  0  0  0  0
    4.3726   -7.8778    0.0000 O   0  0  0  0  0  0  0  0  0  0  0  0
    6.6385   -8.8718    0.0000 O   0  0  0  0  0  0  0  0  0  0  0  0
    5.1971   -7.8473    0.0000 C   0  0  1  0  0  0  0  0  0  0  0  0
    5.7487   -8.3579    0.0000 C   0  0  2  0  0  0  0  0  0  0  0  0
    5.6987   -7.3089    0.0000 C   0  0  2  0  0  0  0  0  0  0  0  0
    6.6499   -6.3256    0.0000 N   0  0  0  0  0  0  0  0  0  0  0  0
    7.0959   -7.2705    0.0000 C   0  0  1  0  0  0  0  0  0  0  0  0
    8.0727   -7.8045    0.0000 C   0  0  0  0  0  0  0  0  0  0  0  0
    7.6159   -8.5044    0.0000 C   0  0  0  0  0  0  0  0  0  0  0  0
    6.6990   -8.0491    0.0000 C   0  0  1  0  0  0  0  0  0  0  0  0
    5.3592   -6.5569    0.0000 O   0  0  0  0  0  0  0  0  0  0  0  0
  6  1  1  6  0  0  0
  9  2  1  6  0  0  0
  5  3  1  6  0  0  0
 12  4  1  1  0  0  0
  6  5  1  0  0  0  0
  7  5  1  0  0  0  0
 12  6  1  0  0  0  0
  9  7  1  0  0  0  0
  9  8  1  0  0  0  0
 10  9  1  0  0  0  0
 11 10  1  0  0  0  0
 12 11  1  0  0  0  0
  8 12  1  0  0  0  0
  7 13  1  1  0  0  0
M  END
>  <cdx:fragmentId>
817

$$$$
