109725.cdx
  Mrv1902 05222410282D          

 57 63  0  0  0  0            999 V2000
   13.6955   -8.5250    0.0000 C   0  0  1  0  0  0  0  0  0  0  0  0
   13.6955   -9.3500    0.0000 C   0  0  1  0  0  0  0  0  0  0  0  0
   14.4100   -9.7625    0.0000 C   0  0  0  0  0  0  0  0  0  0  0  0
   15.1245   -9.3500    0.0000 C   0  0  0  0  0  0  0  0  0  0  0  0
   15.1245   -8.5250    0.0000 C   0  0  2  0  0  0  0  0  0  0  0  0
   14.4100   -8.1125    0.0000 C   0  0  0  0  0  0  0  0  0  0  0  0
   15.8389   -9.7625    0.0000 C   0  0  0  0  0  0  0  0  0  0  0  0
   16.5534   -9.3500    0.0000 C   0  0  0  0  0  0  0  0  0  0  0  0
   16.5534   -8.5250    0.0000 C   0  0  2  0  0  0  0  0  0  0  0  0
   15.8389   -8.1125    0.0000 C   0  0  2  0  0  0  0  0  0  0  0  0
   17.2679   -8.1125    0.0000 C   0  0  0  0  0  0  0  0  0  0  0  0
   17.2679   -7.2875    0.0000 C   0  0  2  0  0  0  0  0  0  0  0  0
   16.5534   -6.8750    0.0000 C   0  0  0  0  0  0  0  0  0  0  0  0
   15.8389   -7.2875    0.0000 C   0  0  0  0  0  0  0  0  0  0  0  0
   17.9824   -6.8750    0.0000 C   0  0  0  0  0  0  0  0  0  0  0  0
   18.7360   -7.2106    0.0000 C   0  0  0  0  0  0  0  0  0  0  0  0
   19.2881   -6.5975    0.0000 C   0  0  0  0  0  0  0  0  0  0  0  0
   18.8756   -5.8830    0.0000 O   0  0  0  0  0  0  0  0  0  0  0  0
   18.0686   -6.0545    0.0000 C   0  0  0  0  0  0  0  0  0  0  0  0
   17.4555   -5.5025    0.0000 C   0  0  0  0  0  0  0  0  0  0  0  0
   17.9824   -8.5250    0.0000 O   0  0  0  0  0  0  0  0  0  0  0  0
   12.9811   -8.1125    0.0000 O   0  0  0  0  0  0  0  0  0  0  0  0
   10.1374   -8.0880    0.0000 O   0  0  0  0  0  0  0  0  0  0  0  0
   15.1245   -7.7000    0.0000 C   0  0  0  0  0  0  0  0  0  0  0  0
   15.8389   -8.9375    0.0000 H   0  0  0  0  0  0  0  0  0  0  0  0
   16.5534   -7.7000    0.0000 H   0  0  0  0  0  0  0  0  0  0  0  0
   17.2679   -6.4625    0.0000 C   0  0  0  0  0  0  0  0  0  0  0  0
    9.4195   -8.4944    0.0000 C   0  0  2  0  0  0  0  0  0  0  0  0
   12.9811   -9.7625    0.0000 O   0  0  0  0  0  0  0  0  0  0  0  0
   12.2702   -9.3439    0.0000 C   0  0  2  0  0  0  0  0  0  0  0  0
   12.2772   -8.5189    0.0000 O   0  0  0  0  0  0  0  0  0  0  0  0
   11.5663   -8.1003    0.0000 C   0  0  1  0  0  0  0  0  0  0  0  0
   10.8483   -8.5067    0.0000 C   0  0  2  0  0  0  0  0  0  0  0  0
   10.8413   -9.3316    0.0000 C   0  0  2  0  0  0  0  0  0  0  0  0
   11.5522   -9.7502    0.0000 C   0  0  0  0  0  0  0  0  0  0  0  0
   11.5734   -7.2753    0.0000 C   0  0  0  0  0  0  0  0  0  0  0  0
   10.1233   -9.7380    0.0000 O   0  0  0  0  0  0  0  0  0  0  0  0
   10.1162  -10.5629    0.0000 C   0  0  0  0  0  0  0  0  0  0  0  0
    8.7085   -8.0758    0.0000 O   0  0  0  0  0  0  0  0  0  0  0  0
    7.9906   -8.4821    0.0000 C   0  0  2  0  0  0  0  0  0  0  0  0
    7.9835   -9.3071    0.0000 C   0  0  2  0  0  0  0  0  0  0  0  0
    8.6944   -9.7257    0.0000 C   0  0  2  0  0  0  0  0  0  0  0  0
    9.4124   -9.3194    0.0000 C   0  0  0  0  0  0  0  0  0  0  0  0
    7.2797   -8.0635    0.0000 C   0  0  0  0  0  0  0  0  0  0  0  0
    8.6873  -10.5507    0.0000 O   0  0  0  0  0  0  0  0  0  0  0  0
    7.2655   -9.7134    0.0000 O   0  0  0  0  0  0  0  0  0  0  0  0
    6.5476   -9.3070    0.0000 C   0  0  2  0  0  0  0  0  0  0  0  0
    6.5406   -8.4820    0.0000 O   0  0  0  0  0  0  0  0  0  0  0  0
    5.8227   -8.0756    0.0000 C   0  0  1  0  0  0  0  0  0  0  0  0
    5.1117   -8.4941    0.0000 C   0  0  2  0  0  0  0  0  0  0  0  0
    5.1187   -9.3190    0.0000 C   0  0  2  0  0  0  0  0  0  0  0  0
    5.8366   -9.7255    0.0000 C   0  0  0  0  0  0  0  0  0  0  0  0
    4.4077   -9.7376    0.0000 O   0  0  0  0  0  0  0  0  0  0  0  0
    4.3938   -8.0876    0.0000 O   0  0  0  0  0  0  0  0  0  0  0  0
    5.8157   -7.2506    0.0000 C   0  0  0  0  0  0  0  0  0  0  0  0
    4.4147  -10.5625    0.0000 C   0  0  0  0  0  0  0  0  0  0  0  0
    9.3982  -10.9693    0.0000 C   0  0  0  0  0  0  0  0  0  0  0  0
  1  2  1  0  0  0  0
  2  3  1  0  0  0  0
  3  4  1  0  0  0  0
  4  5  1  0  0  0  0
  5  6  1  0  0  0  0
  6  1  1  0  0  0  0
  4  7  2  0  0  0  0
  7  8  1  0  0  0  0
  8  9  1  0  0  0  0
  9 10  1  0  0  0  0
 10  5  1  0  0  0  0
  9 11  1  0  0  0  0
 11 12  1  0  0  0  0
 12 13  1  0  0  0  0
 13 14  1  0  0  0  0
 14 10  1  0  0  0  0
 12 15  1  0  0  0  0
 15 16  1  0  0  0  0
 16 17  2  0  0  0  0
 17 18  1  0  0  0  0
 18 19  1  0  0  0  0
 19 15  2  0  0  0  0
 19 20  1  0  0  0  0
 11 21  2  0  0  0  0
  1 22  1  6  0  0  0
  2 29  1  1  0  0  0
  5 24  1  1  0  0  0
 10 25  1  6  0  0  0
  9 26  1  1  0  0  0
 12 27  1  1  0  0  0
 30 29  1  1  0  0  0
 30 31  1  0  0  0  0
 31 32  1  0  0  0  0
 32 33  1  0  0  0  0
 33 34  1  0  0  0  0
 34 35  1  0  0  0  0
 35 30  1  0  0  0  0
 32 36  1  1  0  0  0
 28 23  1  1  0  0  0
 33 23  1  6  0  0  0
 34 37  1  6  0  0  0
 37 38  1  0  0  0  0
 28 39  1  0  0  0  0
 39 40  1  0  0  0  0
 40 41  1  0  0  0  0
 41 42  1  0  0  0  0
 42 43  1  0  0  0  0
 43 28  1  0  0  0  0
 40 44  1  6  0  0  0
 42 45  1  6  0  0  0
 41 46  1  6  0  0  0
 47 46  1  1  0  0  0
 47 48  1  0  0  0  0
 48 49  1  0  0  0  0
 49 50  1  0  0  0  0
 50 51  1  0  0  0  0
 51 52  1  0  0  0  0
 52 47  1  0  0  0  0
 51 53  1  6  0  0  0
 50 54  1  6  0  0  0
 49 55  1  1  0  0  0
 53 56  1  0  0  0  0
 45 57  1  0  0  0  0
M  END
>  <cdx:fragmentId>
232029

$$$$
