109731.cdx
  Mrv1902 05222410282D          

 67 74  0  0  0  0            999 V2000
   14.3830   -8.7725    0.0000 C   0  0  1  0  0  0  0  0  0  0  0  0
   14.3830   -9.5975    0.0000 C   0  0  1  0  0  0  0  0  0  0  0  0
   15.0975  -10.0100    0.0000 C   0  0  0  0  0  0  0  0  0  0  0  0
   15.8120   -9.5975    0.0000 C   0  0  0  0  0  0  0  0  0  0  0  0
   15.8120   -8.7725    0.0000 C   0  0  2  0  0  0  0  0  0  0  0  0
   15.0975   -8.3600    0.0000 C   0  0  0  0  0  0  0  0  0  0  0  0
   16.5264  -10.0100    0.0000 C   0  0  0  0  0  0  0  0  0  0  0  0
   17.2409   -9.5975    0.0000 C   0  0  0  0  0  0  0  0  0  0  0  0
   17.2409   -8.7725    0.0000 C   0  0  2  0  0  0  0  0  0  0  0  0
   16.5264   -8.3600    0.0000 C   0  0  2  0  0  0  0  0  0  0  0  0
   17.9554   -8.3600    0.0000 C   0  0  0  0  0  0  0  0  0  0  0  0
   17.9554   -7.5350    0.0000 C   0  0  2  0  0  0  0  0  0  0  0  0
   17.2409   -7.1225    0.0000 C   0  0  0  0  0  0  0  0  0  0  0  0
   16.5264   -7.5350    0.0000 C   0  0  0  0  0  0  0  0  0  0  0  0
   18.6699   -7.1225    0.0000 C   0  0  0  0  0  0  0  0  0  0  0  0
   19.4235   -7.4581    0.0000 C   0  0  0  0  0  0  0  0  0  0  0  0
   19.9756   -6.8450    0.0000 C   0  0  0  0  0  0  0  0  0  0  0  0
   19.5631   -6.1305    0.0000 O   0  0  0  0  0  0  0  0  0  0  0  0
   18.7561   -6.3020    0.0000 C   0  0  0  0  0  0  0  0  0  0  0  0
   18.1430   -5.7500    0.0000 C   0  0  0  0  0  0  0  0  0  0  0  0
   18.6699   -8.7725    0.0000 O   0  0  0  0  0  0  0  0  0  0  0  0
   13.6686   -8.3600    0.0000 O   0  0  0  0  0  0  0  0  0  0  0  0
   13.6686  -10.0100    0.0000 O   0  0  0  0  0  0  0  0  0  0  0  0
   15.8120   -7.9475    0.0000 C   0  0  0  0  0  0  0  0  0  0  0  0
   16.5264   -9.1850    0.0000 H   0  0  0  0  0  0  0  0  0  0  0  0
   17.2409   -7.9475    0.0000 H   0  0  0  0  0  0  0  0  0  0  0  0
   17.9554   -6.7100    0.0000 O   0  0  0  0  0  0  0  0  0  0  0  0
   12.9541   -9.5975    0.0000 C   0  0  2  0  0  0  0  0  0  0  0  0
   12.9541   -8.7725    0.0000 O   0  0  0  0  0  0  0  0  0  0  0  0
   12.2396   -8.3600    0.0000 C   0  0  1  0  0  0  0  0  0  0  0  0
   11.5251   -8.7725    0.0000 C   0  0  2  0  0  0  0  0  0  0  0  0
   11.5251   -9.5975    0.0000 C   0  0  2  0  0  0  0  0  0  0  0  0
   12.2396  -10.0100    0.0000 C   0  0  0  0  0  0  0  0  0  0  0  0
   12.2396   -7.5350    0.0000 C   0  0  0  0  0  0  0  0  0  0  0  0
   10.8107   -8.3600    0.0000 O   0  0  0  0  0  0  0  0  0  0  0  0
   10.8107  -10.0100    0.0000 O   0  0  0  0  0  0  0  0  0  0  0  0
   10.8107  -10.8350    0.0000 C   0  0  0  0  0  0  0  0  0  0  0  0
   10.0962   -8.7725    0.0000 C   0  0  2  0  0  0  0  0  0  0  0  0
    9.3817   -8.3600    0.0000 O   0  0  0  0  0  0  0  0  0  0  0  0
    8.6673   -8.7725    0.0000 C   0  0  1  0  0  0  0  0  0  0  0  0
    8.6673   -9.5975    0.0000 C   0  0  2  0  0  0  0  0  0  0  0  0
    9.3817  -10.0100    0.0000 C   0  0  2  0  0  0  0  0  0  0  0  0
   10.0962   -9.5975    0.0000 C   0  0  0  0  0  0  0  0  0  0  0  0
    7.9528   -8.3600    0.0000 C   0  0  0  0  0  0  0  0  0  0  0  0
    9.3817  -10.8350    0.0000 O   0  0  0  0  0  0  0  0  0  0  0  0
    7.9528  -10.0100    0.0000 O   0  0  0  0  0  0  0  0  0  0  0  0
    7.2383   -9.5975    0.0000 C   0  0  2  0  0  0  0  0  0  0  0  0
    7.2383   -8.7725    0.0000 O   0  0  0  0  0  0  0  0  0  0  0  0
    6.5238   -8.3600    0.0000 C   0  0  2  0  0  0  0  0  0  0  0  0
    5.8094   -8.7725    0.0000 C   0  0  1  0  0  0  0  0  0  0  0  0
    5.8094   -9.5975    0.0000 C   0  0  1  0  0  0  0  0  0  0  0  0
    6.5238  -10.0100    0.0000 C   0  0  0  0  0  0  0  0  0  0  0  0
    5.0949  -10.0100    0.0000 O   0  0  0  0  0  0  0  0  0  0  0  0
    5.0949   -8.3600    0.0000 O   0  0  0  0  0  0  0  0  0  0  0  0
    6.5238   -7.5350    0.0000 C   0  0  0  0  0  0  0  0  0  0  0  0
    5.0949  -10.8350    0.0000 C   0  0  0  0  0  0  0  0  0  0  0  0
    4.2699   -8.3587    0.0000 C   0  0  2  0  0  0  0  0  0  0  0  0
    3.8585   -7.6436    0.0000 O   0  0  0  0  0  0  0  0  0  0  0  0
    3.0335   -7.6424    0.0000 C   0  0  1  0  0  0  0  0  0  0  0  0
    2.6199   -8.3562    0.0000 C   0  0  2  0  0  0  0  0  0  0  0  0
    3.0313   -9.0713    0.0000 C   0  0  1  0  0  0  0  0  0  0  0  0
    3.8563   -9.0726    0.0000 C   0  0  1  0  0  0  0  0  0  0  0  0
    2.6221   -6.9273    0.0000 C   0  0  0  0  0  0  0  0  0  0  0  0
    2.6177   -9.7852    0.0000 O   0  0  0  0  0  0  0  0  0  0  0  0
    4.2677   -9.7877    0.0000 O   0  0  0  0  0  0  0  0  0  0  0  0
    1.7949   -8.3550    0.0000 O   0  0  0  0  0  0  0  0  0  0  0  0
    1.7971   -6.9260    0.0000 O   0  0  0  0  0  0  0  0  0  0  0  0
  1  2  1  0  0  0  0
  2  3  1  0  0  0  0
  3  4  1  0  0  0  0
  4  5  1  0  0  0  0
  5  6  1  0  0  0  0
  6  1  1  0  0  0  0
  4  7  2  0  0  0  0
  7  8  1  0  0  0  0
  8  9  1  0  0  0  0
  9 10  1  0  0  0  0
 10  5  1  0  0  0  0
  9 11  1  0  0  0  0
 11 12  1  0  0  0  0
 12 13  1  0  0  0  0
 13 14  1  0  0  0  0
 14 10  1  0  0  0  0
 12 15  1  0  0  0  0
 15 16  1  0  0  0  0
 16 17  2  0  0  0  0
 17 18  1  0  0  0  0
 18 19  1  0  0  0  0
 19 15  2  0  0  0  0
 19 20  1  0  0  0  0
 11 21  2  0  0  0  0
  1 22  1  6  0  0  0
  2 23  1  1  0  0  0
  5 24  1  1  0  0  0
 10 25  1  6  0  0  0
  9 26  1  1  0  0  0
 12 27  1  1  0  0  0
 28 23  1  1  0  0  0
 28 29  1  0  0  0  0
 29 30  1  0  0  0  0
 30 31  1  0  0  0  0
 31 32  1  0  0  0  0
 32 33  1  0  0  0  0
 33 28  1  0  0  0  0
 30 34  1  1  0  0  0
 31 35  1  6  0  0  0
 32 36  1  6  0  0  0
 36 37  1  0  0  0  0
 38 35  1  1  0  0  0
 38 39  1  0  0  0  0
 39 40  1  0  0  0  0
 40 41  1  0  0  0  0
 41 42  1  0  0  0  0
 42 43  1  0  0  0  0
 43 38  1  0  0  0  0
 40 44  1  1  0  0  0
 42 45  1  6  0  0  0
 41 46  1  6  0  0  0
 47 46  1  1  0  0  0
 47 48  1  0  0  0  0
 48 49  1  0  0  0  0
 49 50  1  0  0  0  0
 50 51  1  0  0  0  0
 51 52  1  0  0  0  0
 52 47  1  0  0  0  0
 51 53  1  1  0  0  0
 50 54  1  1  0  0  0
 49 55  1  6  0  0  0
 53 56  1  0  0  0  0
 57 54  1  1  0  0  0
 57 58  1  0  0  0  0
 58 59  1  0  0  0  0
 59 60  1  0  0  0  0
 60 61  1  0  0  0  0
 61 62  1  0  0  0  0
 62 57  1  0  0  0  0
 59 63  1  1  0  0  0
 61 64  1  1  0  0  0
 62 65  1  6  0  0  0
 60 66  1  6  0  0  0
 63 67  1  0  0  0  0
M  END
>  <cdx:fragmentId>
232029

$$$$
