109728.cdx
  Mrv1902 05222410182D          

 46 52  0  0  0  0            999 V2000
    9.0410  -10.4224    0.0000 O   0  0  0  0  0  0  0  0  0  0  0  0
    7.6122  -10.3992    0.0000 O   0  0  0  0  0  0  0  0  0  0  0  0
    8.3199  -10.8233    0.0000 C   0  0  2  0  0  0  0  0  0  0  0  0
    8.3065  -11.6482    0.0000 C   0  0  1  0  0  0  0  0  0  0  0  0
    7.5854  -12.0490    0.0000 C   0  0  2  0  0  0  0  0  0  0  0  0
    6.8778  -11.6250    0.0000 C   0  0  1  0  0  0  0  0  0  0  0  0
    6.8912  -10.8001    0.0000 C   0  0  1  0  0  0  0  0  0  0  0  0
    6.1835  -10.3760    0.0000 C   0  0  0  0  0  0  0  0  0  0  0  0
    7.5720  -12.8739    0.0000 O   0  0  0  0  0  0  0  0  0  0  0  0
    8.2797  -13.2980    0.0000 C   0  0  0  0  0  0  0  0  0  0  0  0
    9.0142  -12.0722    0.0000 O   0  0  0  0  0  0  0  0  0  0  0  0
    4.7681   -9.5279    0.0000 O   0  0  0  0  0  0  0  0  0  0  0  0
    3.3260  -10.3296    0.0000 O   0  0  0  0  0  0  0  0  0  0  0  0
    3.2992  -11.9794    0.0000 C   0  0  0  0  0  0  0  0  0  0  0  0
    4.0203  -11.5786    0.0000 C   0  0  1  0  0  0  0  0  0  0  0  0
    4.0337  -10.7537    0.0000 C   0  0  1  0  0  0  0  0  0  0  0  0
    4.7547  -10.3528    0.0000 C   0  0  2  0  0  0  0  0  0  0  0  0
    5.4624  -10.7769    0.0000 C   0  0  0  0  0  0  0  0  0  0  0  0
    5.4490  -11.6018    0.0000 C   0  0  1  0  0  0  0  0  0  0  0  0
    4.7279  -12.0026    0.0000 O   0  0  0  0  0  0  0  0  0  0  0  0
    6.1567  -12.0258    0.0000 O   0  0  0  0  0  0  0  0  0  0  0  0
    8.3735   -7.5237    0.0000 C   0  0  0  0  0  0  0  0  0  0  0  0
    9.8156   -6.7220    0.0000 C   0  0  0  0  0  0  0  0  0  0  0  0
   10.5233   -7.1461    0.0000 C   0  0  0  0  0  0  0  0  0  0  0  0
   10.5099   -7.9710    0.0000 C   0  0  0  0  0  0  0  0  0  0  0  0
    9.7889   -8.3718    0.0000 C   0  0  0  0  0  0  0  0  0  0  0  0
    9.7755   -9.1967    0.0000 C   0  0  0  0  0  0  0  0  0  0  0  0
    9.0544   -9.5976    0.0000 C   0  0  2  0  0  0  0  0  0  0  0  0
    8.3467   -9.1735    0.0000 C   0  0  0  0  0  0  0  0  0  0  0  0
    8.3601   -8.3486    0.0000 C   0  0  0  0  0  0  0  0  0  0  0  0
    9.0812   -7.9478    0.0000 C   0  0  1  0  0  0  0  0  0  0  0  0
    9.0946   -7.1229    0.0000 C   0  0  0  0  0  0  0  0  0  0  0  0
   10.2281   -6.0076    0.0000 C   0  0  0  0  0  0  0  0  0  0  0  0
   10.0146   -5.2107    0.0000 O   0  0  0  0  0  0  0  0  0  0  0  0
    9.3001   -4.7982    0.0000 C   0  0  0  0  0  0  0  0  0  0  0  0
    8.4975   -4.9225    0.0000 C   0  0  0  0  0  0  0  0  0  0  0  0
    7.8650   -5.5000    0.0000 C   0  0  0  0  0  0  0  0  0  0  0  0
    7.8650   -6.3525    0.0000 C   0  0  0  0  0  0  0  0  0  0  0  0
    8.3043   -6.9210    0.0000 C   0  0  0  0  0  0  0  0  0  0  0  0
   11.0461   -6.1152    0.0000 O   0  0  0  0  0  0  0  0  0  0  0  0
    9.4299   -3.9964    0.0000 C   0  0  0  0  0  0  0  0  0  0  0  0
    8.7075   -3.6252    0.0000 O   0  0  0  0  0  0  0  0  0  0  0  0
    8.1312   -4.1976    0.0000 C   0  0  2  0  0  0  0  0  0  0  0  0
    7.2926   -4.2379    0.0000 O   0  0  0  0  0  0  0  0  0  0  0  0
    7.1203   -5.0769    0.0000 C   0  0  0  0  0  0  0  0  0  0  0  0
    7.9177   -3.4007    0.0000 C   0  0  0  0  0  0  0  0  0  0  0  0
 28  1  1  1  0  0  0
 19 21  1  6  0  0  0
 17 12  1  1  0  0  0
 16 13  1  6  0  0  0
 15 14  1  1  0  0  0
 20 15  1  0  0  0  0
 16 15  1  0  0  0  0
 17 16  1  0  0  0  0
 18 17  1  0  0  0  0
 19 18  1  0  0  0  0
 20 19  1  0  0  0  0
  2  3  1  0  0  0  0
 31 22  1  1  0  0  0
 31 26  1  0  0  0  0
 32 23  1  0  0  0  0
 24 23  1  0  0  0  0
 25 24  1  0  0  0  0
 26 25  2  0  0  0  0
 27 26  1  0  0  0  0
 28 27  1  0  0  0  0
 29 28  1  0  0  0  0
 30 29  1  0  0  0  0
 31 30  1  0  0  0  0
 32 31  1  0  0  0  0
  3  4  1  0  0  0  0
  4  5  1  0  0  0  0
  5  6  1  0  0  0  0
  6  7  1  0  0  0  0
  2  7  1  0  0  0  0
  7  8  1  1  0  0  0
  9 10  1  0  0  0  0
  5  9  1  1  0  0  0
  4 11  1  6  0  0  0
  6 21  1  6  0  0  0
  3  1  1  1  0  0  0
 23 33  1  0  0  0  0
 33 34  1  0  0  0  0
 34 35  1  0  0  0  0
 35 36  1  0  0  0  0
 36 37  1  0  0  0  0
 37 38  1  0  0  0  0
 38 39  1  0  0  0  0
 32 39  1  0  0  0  0
 33 40  2  0  0  0  0
 35 41  1  0  0  0  0
 41 42  1  0  0  0  0
 42 43  1  0  0  0  0
 43 36  1  0  0  0  0
 43 44  1  0  0  0  0
 44 45  1  0  0  0  0
 45 37  2  0  0  0  0
 43 46  1  6  0  0  0
M  END
>  <cdx:fragmentId>
231476

$$$$
