109722.cdx
  Mrv1902 05222410272D          

 69 76  0  0  0  0            999 V2000
    5.1505   -8.4032    0.0000 O   0  0  0  0  0  0  0  0  0  0  0  0
    4.3257   -8.4207    0.0000 C   0  0  2  0  0  0  0  0  0  0  0  0
    3.8961   -7.7164    0.0000 O   0  0  0  0  0  0  0  0  0  0  0  0
    3.0753   -7.7291    0.0000 C   0  0  1  0  0  0  0  0  0  0  0  0
    2.6760   -8.4511    0.0000 C   0  0  2  0  0  0  0  0  0  0  0  0
    3.1015   -9.1531    0.0000 C   0  0  1  0  0  0  0  0  0  0  0  0
    3.9264   -9.1427    0.0000 C   0  0  1  0  0  0  0  0  0  0  0  0
    2.6508   -7.0218    0.0000 C   0  0  0  0  0  0  0  0  0  0  0  0
    2.7011   -9.8744    0.0000 O   0  0  0  0  0  0  0  0  0  0  0  0
    1.8512   -8.4674    0.0000 O   0  0  0  0  0  0  0  0  0  0  0  0
    4.3499   -9.8507    0.0000 O   0  0  0  0  0  0  0  0  0  0  0  0
    1.8259   -7.0357    0.0000 O   0  0  0  0  0  0  0  0  0  0  0  0
    8.0194   -7.6262    0.0000 C   0  0  0  0  0  0  0  0  0  0  0  0
   17.9684   -9.4457    0.0000 H   0  0  0  0  0  0  0  0  0  0  0  0
   16.5470   -9.4327    0.0000 H   0  0  0  0  0  0  0  0  0  0  0  0
   18.8173   -7.1427    0.0000 H   0  0  0  0  0  0  0  0  0  0  0  0
   17.1123   -5.6105    0.0000 C   0  0  0  0  0  0  0  0  0  0  0  0
   19.0635   -6.4765    0.0000 C   0  0  0  0  0  0  0  0  0  0  0  0
   19.2461   -5.6719    0.0000 C   0  0  0  0  0  0  0  0  0  0  0  0
   18.5375   -5.2495    0.0000 O   0  0  0  0  0  0  0  0  0  0  0  0
   17.9169   -5.7931    0.0000 C   0  0  0  0  0  0  0  0  0  0  0  0
   18.2421   -6.5513    0.0000 C   0  0  2  0  0  0  0  0  0  0  0  0
   18.6215   -9.3086    0.0000 O   0  0  0  0  0  0  0  0  0  0  0  0
   18.0239   -8.7398    0.0000 C   0  0  0  0  0  0  0  0  0  0  0  0
   18.2752   -7.9523    0.0000 O   0  0  0  0  0  0  0  0  0  0  0  0
   17.8203   -7.2603    0.0000 C   0  0  0  0  0  0  0  0  0  0  0  0
   16.9982   -7.1912    0.0000 C   0  0  0  0  0  0  0  0  0  0  0  0
   16.4316   -7.7908    0.0000 C   0  0  0  0  0  0  0  0  0  0  0  0
   14.4000   -9.0005    0.0000 C   0  0  1  0  0  0  0  0  0  0  0  0
   14.3924   -9.8255    0.0000 C   0  0  1  0  0  0  0  0  0  0  0  0
   15.1031  -10.2445    0.0000 C   0  0  0  0  0  0  0  0  0  0  0  0
   15.8213   -9.8386    0.0000 C   0  0  0  0  0  0  0  0  0  0  0  0
   15.8288   -9.0136    0.0000 C   0  0  2  0  0  0  0  0  0  0  0  0
   15.1182   -8.5946    0.0000 C   0  0  0  0  0  0  0  0  0  0  0  0
   16.5319  -10.2576    0.0000 C   0  0  0  0  0  0  0  0  0  0  0  0
   17.2502   -9.8516    0.0000 C   0  0  0  0  0  0  0  0  0  0  0  0
   17.2577   -9.0267    0.0000 C   0  0  2  0  0  0  0  0  0  0  0  0
   16.5470   -8.6077    0.0000 C   0  0  2  0  0  0  0  0  0  0  0  0
    7.9803  -10.1009    0.0000 O   0  0  0  0  0  0  0  0  0  0  0  0
   13.6893   -8.5815    0.0000 O   0  0  0  0  0  0  0  0  0  0  0  0
   15.8364   -8.1886    0.0000 C   0  0  0  0  0  0  0  0  0  0  0  0
    7.2729   -9.6765    0.0000 C   0  0  1  0  0  0  0  0  0  0  0  0
    7.2867   -8.8516    0.0000 C   0  0  0  0  0  0  0  0  0  0  0  0
    6.5793   -8.4272    0.0000 C   0  0  1  0  0  0  0  0  0  0  0  0
    5.8580   -8.8276    0.0000 C   0  0  1  0  0  0  0  0  0  0  0  0
    5.8441   -9.6525    0.0000 C   0  0  2  0  0  0  0  0  0  0  0  0
    6.5516  -10.0769    0.0000 O   0  0  0  0  0  0  0  0  0  0  0  0
    5.1228  -10.0530    0.0000 C   0  0  0  0  0  0  0  0  0  0  0  0
    6.5931   -7.6023    0.0000 O   0  0  0  0  0  0  0  0  0  0  0  0
    5.8856   -7.1778    0.0000 C   0  0  0  0  0  0  0  0  0  0  0  0
    8.0080   -8.4511    0.0000 O   0  0  0  0  0  0  0  0  0  0  0  0
    9.3952  -10.9497    0.0000 C   0  0  0  0  0  0  0  0  0  0  0  0
    9.4367   -8.4751    0.0000 C   0  0  0  0  0  0  0  0  0  0  0  0
    8.7154   -8.8755    0.0000 C   0  0  1  0  0  0  0  0  0  0  0  0
    8.7016   -9.7004    0.0000 C   0  0  1  0  0  0  0  0  0  0  0  0
    9.4091  -10.1248    0.0000 C   0  0  1  0  0  0  0  0  0  0  0  0
   10.1304   -9.7244    0.0000 O   0  0  0  0  0  0  0  0  0  0  0  0
   10.1442   -8.8995    0.0000 C   0  0  1  0  0  0  0  0  0  0  0  0
   10.8061  -10.9733    0.0000 C   0  0  0  0  0  0  0  0  0  0  0  0
   10.8175  -10.1483    0.0000 O   0  0  0  0  0  0  0  0  0  0  0  0
   10.8655   -8.4990    0.0000 O   0  0  0  0  0  0  0  0  0  0  0  0
   12.3178   -7.7159    0.0000 C   0  0  0  0  0  0  0  0  0  0  0  0
   12.9960   -8.9737    0.0000 O   0  0  0  0  0  0  0  0  0  0  0  0
   12.2938   -8.5406    0.0000 C   0  0  1  0  0  0  0  0  0  0  0  0
   11.5677   -8.9321    0.0000 C   0  0  2  0  0  0  0  0  0  0  0  0
   11.5437   -9.7568    0.0000 C   0  0  2  0  0  0  0  0  0  0  0  0
   12.2458  -10.1899    0.0000 C   0  0  0  0  0  0  0  0  0  0  0  0
   12.9720   -9.7983    0.0000 C   0  0  2  0  0  0  0  0  0  0  0  0
   13.6742  -10.2314    0.0000 O   0  0  0  0  0  0  0  0  0  0  0  0
  2  1  1  1  0  0  0
  2  3  1  0  0  0  0
  3  4  1  0  0  0  0
  4  5  1  0  0  0  0
  5  6  1  0  0  0  0
  6  7  1  0  0  0  0
  7  2  1  0  0  0  0
  4  8  1  1  0  0  0
  6  9  1  1  0  0  0
  5 10  1  6  0  0  0
  7 11  1  6  0  0  0
 51 13  1  0  0  0  0
 37 14  1  1  0  0  0
 38 15  1  6  0  0  0
 22 16  1  6  0  0  0
 21 17  1  0  0  0  0
 18 22  1  0  0  0  0
 19 18  1  0  0  0  0
 20 19  1  0  0  0  0
 21 20  1  0  0  0  0
 22 21  1  0  0  0  0
 26 22  1  0  0  0  0
 24 23  2  0  0  0  0
 24 37  1  0  0  0  0
 25 24  1  0  0  0  0
 26 25  1  0  0  0  0
 27 26  2  0  0  0  0
 28 27  1  0  0  0  0
 38 28  1  0  0  0  0
 29 30  1  0  0  0  0
 30 31  1  0  0  0  0
 31 32  1  0  0  0  0
 32 33  1  0  0  0  0
 33 34  1  0  0  0  0
 34 29  1  0  0  0  0
 32 35  2  0  0  0  0
 35 36  1  0  0  0  0
 36 37  1  0  0  0  0
 37 38  1  0  0  0  0
 38 33  1  0  0  0  0
 30 69  1  1  0  0  0
 29 40  1  6  0  0  0
 33 41  1  1  0  0  0
 42 39  1  6  0  0  0
 42 43  1  0  0  0  0
 43 44  1  0  0  0  0
 44 45  1  0  0  0  0
 45 46  1  0  0  0  0
 46 47  1  0  0  0  0
 47 42  1  0  0  0  0
 46 48  1  6  0  0  0
  8 12  1  0  0  0  0
 45  1  1  1  0  0  0
 44 49  1  1  0  0  0
 54 51  1  1  0  0  0
 55 39  1  1  0  0  0
 49 50  1  0  0  0  0
 56 52  1  1  0  0  0
 53 58  1  0  0  0  0
 54 53  1  0  0  0  0
 55 54  1  0  0  0  0
 56 55  1  0  0  0  0
 57 56  1  0  0  0  0
 58 57  1  0  0  0  0
 58 61  1  6  0  0  0
 60 59  1  0  0  0  0
 66 60  1  6  0  0  0
 65 61  1  6  0  0  0
 64 62  1  1  0  0  0
 63 68  1  0  0  0  0
 64 63  1  0  0  0  0
 65 64  1  0  0  0  0
 66 65  1  0  0  0  0
 67 66  1  0  0  0  0
 68 67  1  0  0  0  0
 68 69  1  1  0  0  0
M  END
>  <cdx:fragmentId>
231671

$$$$
