109721.cdx
  Mrv1902 05222410262D          

 55 60  0  0  0  0            999 V2000
   12.2270  -10.6265    0.0000 C   0  0  1  0  0  0  0  0  0  0  0  0
   12.2184  -11.4514    0.0000 C   0  0  1  0  0  0  0  0  0  0  0  0
   12.9286  -11.8714    0.0000 C   0  0  0  0  0  0  0  0  0  0  0  0
   13.6473  -11.4663    0.0000 C   0  0  0  0  0  0  0  0  0  0  0  0
   13.6559  -10.6414    0.0000 C   0  0  2  0  0  0  0  0  0  0  0  0
   12.9458  -10.2215    0.0000 C   0  0  0  0  0  0  0  0  0  0  0  0
   14.3574  -11.8863    0.0000 C   0  0  0  0  0  0  0  0  0  0  0  0
   15.0762  -11.4812    0.0000 C   0  0  0  0  0  0  0  0  0  0  0  0
   15.0848  -10.6563    0.0000 C   0  0  2  0  0  0  0  0  0  0  0  0
   14.3746  -10.2364    0.0000 C   0  0  2  0  0  0  0  0  0  0  0  0
   11.4997  -11.8565    0.0000 O   0  0  0  0  0  0  0  0  0  0  0  0
   11.5169  -10.2066    0.0000 O   0  0  0  0  0  0  0  0  0  0  0  0
   13.6645   -9.8164    0.0000 C   0  0  0  0  0  0  0  0  0  0  0  0
   15.1106   -8.1814    0.0000 C   0  0  0  0  0  0  0  0  0  0  0  0
   14.4005   -7.7615    0.0000 O   0  0  0  0  0  0  0  0  0  0  0  0
   15.8293   -7.7764    0.0000 C   0  0  0  0  0  0  0  0  0  0  0  0
   16.5795   -8.1198    0.0000 C   0  0  0  0  0  0  0  0  0  0  0  0
   17.1378   -7.5125    0.0000 C   0  0  0  0  0  0  0  0  0  0  0  0
   16.7328   -6.7938    0.0000 O   0  0  0  0  0  0  0  0  0  0  0  0
   15.9241   -6.9569    0.0000 C   0  0  0  0  0  0  0  0  0  0  0  0
   15.3168   -6.3985    0.0000 C   0  0  0  0  0  0  0  0  0  0  0  0
   15.1020   -9.0064    0.0000 C   0  0  0  0  0  0  0  0  0  0  0  0
   14.3832   -9.4114    0.0000 C   0  0  0  0  0  0  0  0  0  0  0  0
   15.8035  -10.2513    0.0000 C   0  0  0  0  0  0  0  0  0  0  0  0
   16.5136  -10.6712    0.0000 O   0  0  0  0  0  0  0  0  0  0  0  0
   15.8121   -9.4263    0.0000 O   0  0  0  0  0  0  0  0  0  0  0  0
   10.7896  -11.4365    0.0000 C   0  0  1  0  0  0  0  0  0  0  0  0
   10.7982  -10.6116    0.0000 C   0  0  0  0  0  0  0  0  0  0  0  0
   10.0880  -10.1917    0.0000 C   0  0  1  0  0  0  0  0  0  0  0  0
    9.3693  -10.5967    0.0000 C   0  0  1  0  0  0  0  0  0  0  0  0
    9.3607  -11.4216    0.0000 C   0  0  2  0  0  0  0  0  0  0  0  0
   10.0708  -11.8416    0.0000 O   0  0  0  0  0  0  0  0  0  0  0  0
    8.6420  -11.8267    0.0000 C   0  0  0  0  0  0  0  0  0  0  0  0
    5.8044  -11.8321    0.0000 O   0  0  0  0  0  0  0  0  0  0  0  0
   10.0967   -9.3667    0.0000 O   0  0  0  0  0  0  0  0  0  0  0  0
    9.3865   -8.9468    0.0000 C   0  0  0  0  0  0  0  0  0  0  0  0
    5.0892  -11.4210    0.0000 C   0  0  1  0  0  0  0  0  0  0  0  0
    5.0876  -10.5960    0.0000 C   0  0  0  0  0  0  0  0  0  0  0  0
    4.3724  -10.1848    0.0000 C   0  0  2  0  0  0  0  0  0  0  0  0
    3.6587  -10.5986    0.0000 C   0  0  2  0  0  0  0  0  0  0  0  0
    3.6602  -11.4236    0.0000 C   0  0  1  0  0  0  0  0  0  0  0  0
    4.3755  -11.8348    0.0000 O   0  0  0  0  0  0  0  0  0  0  0  0
    2.9465  -11.8375    0.0000 C   0  0  0  0  0  0  0  0  0  0  0  0
    2.9434  -10.1875    0.0000 O   0  0  0  0  0  0  0  0  0  0  0  0
    4.3708   -9.3598    0.0000 O   0  0  0  0  0  0  0  0  0  0  0  0
    3.6556   -8.9487    0.0000 C   0  0  0  0  0  0  0  0  0  0  0  0
    5.8013  -10.1821    0.0000 O   0  0  0  0  0  0  0  0  0  0  0  0
    7.2349  -12.6544    0.0000 C   0  0  0  0  0  0  0  0  0  0  0  0
    7.2302  -10.1794    0.0000 C   0  0  0  0  0  0  0  0  0  0  0  0
    6.5166  -10.5933    0.0000 C   0  0  1  0  0  0  0  0  0  0  0  0
    6.5181  -11.4183    0.0000 C   0  0  1  0  0  0  0  0  0  0  0  0
    7.2333  -11.8294    0.0000 C   0  0  2  0  0  0  0  0  0  0  0  0
    7.9470  -11.4156    0.0000 O   0  0  0  0  0  0  0  0  0  0  0  0
    7.9455  -10.5906    0.0000 C   0  0  1  0  0  0  0  0  0  0  0  0
    8.6592  -10.1768    0.0000 O   0  0  0  0  0  0  0  0  0  0  0  0
  1  2  1  0  0  0  0
  2  3  1  0  0  0  0
  3  4  1  0  0  0  0
  4  5  1  0  0  0  0
  5  6  1  0  0  0  0
  6  1  1  0  0  0  0
  4  7  2  0  0  0  0
  7  8  1  0  0  0  0
  8  9  1  0  0  0  0
  9 10  1  0  0  0  0
 10  5  1  0  0  0  0
  2 11  1  1  0  0  0
  1 12  1  6  0  0  0
  5 13  1  1  0  0  0
 10 23  1  1  0  0  0
 14 15  2  0  0  0  0
 14 16  1  0  0  0  0
 16 17  1  0  0  0  0
 17 18  2  0  0  0  0
 18 19  1  0  0  0  0
 19 20  1  0  0  0  0
 20 16  2  0  0  0  0
 22 14  1  0  0  0  0
 20 21  1  0  0  0  0
 23 22  1  0  0  0  0
  9 24  1  6  0  0  0
 24 25  1  0  0  0  0
 24 26  2  0  0  0  0
 27 11  1  6  0  0  0
 27 28  1  0  0  0  0
 28 29  1  0  0  0  0
 29 30  1  0  0  0  0
 30 31  1  0  0  0  0
 31 32  1  0  0  0  0
 32 27  1  0  0  0  0
 31 33  1  6  0  0  0
 30 55  1  1  0  0  0
 29 35  1  1  0  0  0
 35 36  1  0  0  0  0
 37 34  1  6  0  0  0
 37 38  1  0  0  0  0
 38 39  1  0  0  0  0
 39 40  1  0  0  0  0
 40 41  1  0  0  0  0
 41 42  1  0  0  0  0
 42 37  1  0  0  0  0
 41 43  1  1  0  0  0
 40 44  1  6  0  0  0
 39 45  1  6  0  0  0
 50 47  1  1  0  0  0
 51 34  1  1  0  0  0
 45 46  1  0  0  0  0
 52 48  1  6  0  0  0
 49 54  1  0  0  0  0
 50 49  1  0  0  0  0
 51 50  1  0  0  0  0
 52 51  1  0  0  0  0
 53 52  1  0  0  0  0
 54 53  1  0  0  0  0
 54 55  1  6  0  0  0
M  END
>  <cdx:fragmentId>
231671

$$$$
