109727.cdx
  Mrv1902 05222410272D          

 68 75  0  0  0  0            999 V2000
   14.3830   -9.5150    0.0000 C   0  0  0  0  0  0  0  0  0  0  0  0
   14.3830  -10.3400    0.0000 C   0  0  1  0  0  0  0  0  0  0  0  0
   15.0975  -10.7525    0.0000 C   0  0  0  0  0  0  0  0  0  0  0  0
   15.8120  -10.3400    0.0000 C   0  0  0  0  0  0  0  0  0  0  0  0
   15.8120   -9.5150    0.0000 C   0  0  2  0  0  0  0  0  0  0  0  0
   15.0975   -9.1025    0.0000 C   0  0  0  0  0  0  0  0  0  0  0  0
   16.5264  -10.7525    0.0000 C   0  0  0  0  0  0  0  0  0  0  0  0
   17.2409  -10.3400    0.0000 C   0  0  0  0  0  0  0  0  0  0  0  0
   17.2409   -9.5150    0.0000 C   0  0  2  0  0  0  0  0  0  0  0  0
   16.5264   -9.1025    0.0000 C   0  0  2  0  0  0  0  0  0  0  0  0
   17.9554   -9.1025    0.0000 C   0  0  0  0  0  0  0  0  0  0  0  0
   17.9554   -8.2775    0.0000 C   0  0  2  0  0  0  0  0  0  0  0  0
   17.2409   -7.8650    0.0000 C   0  0  0  0  0  0  0  0  0  0  0  0
   16.5264   -8.2775    0.0000 C   0  0  0  0  0  0  0  0  0  0  0  0
   18.6699   -7.8650    0.0000 C   0  0  0  0  0  0  0  0  0  0  0  0
   19.4235   -8.2006    0.0000 C   0  0  0  0  0  0  0  0  0  0  0  0
   19.9756   -7.5875    0.0000 C   0  0  0  0  0  0  0  0  0  0  0  0
   19.5631   -6.8730    0.0000 O   0  0  0  0  0  0  0  0  0  0  0  0
   18.7561   -7.0445    0.0000 C   0  0  0  0  0  0  0  0  0  0  0  0
   18.1430   -6.4925    0.0000 C   0  0  0  0  0  0  0  0  0  0  0  0
   18.6699   -9.5150    0.0000 O   0  0  0  0  0  0  0  0  0  0  0  0
   13.6686   -9.1025    0.0000 O   0  0  0  0  0  0  0  0  0  0  0  0
   10.8097   -9.1043    0.0000 O   0  0  0  0  0  0  0  0  0  0  0  0
   15.8120   -8.6900    0.0000 C   0  0  0  0  0  0  0  0  0  0  0  0
   16.5264   -9.9275    0.0000 H   0  0  0  0  0  0  0  0  0  0  0  0
   17.2409   -8.6900    0.0000 H   0  0  0  0  0  0  0  0  0  0  0  0
   17.9554   -7.4525    0.0000 C   0  0  0  0  0  0  0  0  0  0  0  0
   10.0954   -9.5172    0.0000 C   0  0  2  0  0  0  0  0  0  0  0  0
    9.3807   -9.1052    0.0000 O   0  0  0  0  0  0  0  0  0  0  0  0
    8.6665   -9.5181    0.0000 C   0  0  2  0  0  0  0  0  0  0  0  0
    8.6670  -10.3431    0.0000 C   0  0  2  0  0  0  0  0  0  0  0  0
    9.3817  -10.7552    0.0000 C   0  0  2  0  0  0  0  0  0  0  0  0
   10.0959  -10.3422    0.0000 C   0  0  0  0  0  0  0  0  0  0  0  0
    7.9518   -9.1060    0.0000 C   0  0  0  0  0  0  0  0  0  0  0  0
    9.3822  -11.5802    0.0000 O   0  0  0  0  0  0  0  0  0  0  0  0
    5.0612   -9.1659    0.0000 O   0  0  0  0  0  0  0  0  0  0  0  0
    4.2363   -9.1786    0.0000 C   0  0  2  0  0  0  0  0  0  0  0  0
    3.8154   -8.4690    0.0000 O   0  0  0  0  0  0  0  0  0  0  0  0
    2.9855   -8.4877    0.0000 C   0  0  1  0  0  0  0  0  0  0  0  0
    2.5866   -9.2098    0.0000 C   0  0  2  0  0  0  0  0  0  0  0  0
   13.6686  -10.7525    0.0000 O   0  0  0  0  0  0  0  0  0  0  0  0
   12.9538  -10.3404    0.0000 C   0  0  2  0  0  0  0  0  0  0  0  0
   12.9533   -9.5154    0.0000 O   0  0  0  0  0  0  0  0  0  0  0  0
   12.2386   -9.1034    0.0000 C   0  0  1  0  0  0  0  0  0  0  0  0
   11.5244   -9.5163    0.0000 C   0  0  2  0  0  0  0  0  0  0  0  0
   11.5249  -10.3413    0.0000 C   0  0  2  0  0  0  0  0  0  0  0  0
   12.2396  -10.7534    0.0000 C   0  0  0  0  0  0  0  0  0  0  0  0
   12.2381   -8.2784    0.0000 C   0  0  0  0  0  0  0  0  0  0  0  0
    3.0126   -9.9222    0.0000 C   0  0  1  0  0  0  0  0  0  0  0  0
   10.8107  -10.7543    0.0000 O   0  0  0  0  0  0  0  0  0  0  0  0
   10.8112  -11.5793    0.0000 C   0  0  0  0  0  0  0  0  0  0  0  0
    3.8374   -9.9007    0.0000 C   0  0  1  0  0  0  0  0  0  0  0  0
    2.5583   -7.7819    0.0000 C   0  0  0  0  0  0  0  0  0  0  0  0
    2.6150  -10.6451    0.0000 O   0  0  0  0  0  0  0  0  0  0  0  0
    4.2658  -10.6057    0.0000 O   0  0  0  0  0  0  0  0  0  0  0  0
    1.7617   -9.2239    0.0000 O   0  0  0  0  0  0  0  0  0  0  0  0
   10.0970  -11.9922    0.0000 C   0  0  0  0  0  0  0  0  0  0  0  0
    1.7335   -7.7990    0.0000 O   0  0  0  0  0  0  0  0  0  0  0  0
    7.9528  -10.7560    0.0000 O   0  0  0  0  0  0  0  0  0  0  0  0
    7.2299  -10.3585    0.0000 C   0  0  2  0  0  0  0  0  0  0  0  0
    7.2127   -9.5337    0.0000 O   0  0  0  0  0  0  0  0  0  0  0  0
    6.4898   -9.1362    0.0000 C   0  0  1  0  0  0  0  0  0  0  0  0
    5.7841   -9.5634    0.0000 C   0  0  2  0  0  0  0  0  0  0  0  0
    5.8013  -10.3883    0.0000 C   0  0  2  0  0  0  0  0  0  0  0  0
    6.5242  -10.7858    0.0000 C   0  0  0  0  0  0  0  0  0  0  0  0
    5.0955  -10.8156    0.0000 O   0  0  0  0  0  0  0  0  0  0  0  0
    6.4726   -8.3113    0.0000 C   0  0  0  0  0  0  0  0  0  0  0  0
    5.1127  -11.6404    0.0000 C   0  0  0  0  0  0  0  0  0  0  0  0
  1  2  1  0  0  0  0
  2  3  1  0  0  0  0
  3  4  1  0  0  0  0
  4  5  1  0  0  0  0
  5  6  1  0  0  0  0
  6  1  1  0  0  0  0
  4  7  2  0  0  0  0
  7  8  1  0  0  0  0
  8  9  1  0  0  0  0
  9 10  1  0  0  0  0
 10  5  1  0  0  0  0
  9 11  1  0  0  0  0
 11 12  1  0  0  0  0
 12 13  1  0  0  0  0
 13 14  1  0  0  0  0
 14 10  1  0  0  0  0
 12 15  1  0  0  0  0
 15 16  1  0  0  0  0
 16 17  2  0  0  0  0
 17 18  1  0  0  0  0
 18 19  1  0  0  0  0
 19 15  2  0  0  0  0
 19 20  1  0  0  0  0
 11 21  2  0  0  0  0
  1 22  2  0  0  0  0
  2 41  1  1  0  0  0
  5 24  1  1  0  0  0
 10 25  1  6  0  0  0
  9 26  1  1  0  0  0
 12 27  1  1  0  0  0
 28 23  1  1  0  0  0
 28 29  1  0  0  0  0
 29 30  1  0  0  0  0
 30 31  1  0  0  0  0
 31 32  1  0  0  0  0
 32 33  1  0  0  0  0
 33 28  1  0  0  0  0
 30 34  1  6  0  0  0
 32 35  1  6  0  0  0
 31 59  1  6  0  0  0
 37 36  1  1  0  0  0
 42 41  1  1  0  0  0
 42 43  1  0  0  0  0
 43 44  1  0  0  0  0
 44 45  1  0  0  0  0
 45 46  1  0  0  0  0
 46 47  1  0  0  0  0
 47 42  1  0  0  0  0
 44 48  1  1  0  0  0
 45 23  1  6  0  0  0
 46 50  1  6  0  0  0
 50 51  1  0  0  0  0
 37 38  1  0  0  0  0
 38 39  1  0  0  0  0
 39 40  1  0  0  0  0
 40 49  1  0  0  0  0
 49 52  1  0  0  0  0
 52 37  1  0  0  0  0
 39 53  1  1  0  0  0
 49 54  1  1  0  0  0
 52 55  1  6  0  0  0
 40 56  1  6  0  0  0
 35 57  1  0  0  0  0
 60 59  1  1  0  0  0
 60 61  1  0  0  0  0
 61 62  1  0  0  0  0
 62 63  1  0  0  0  0
 63 64  1  0  0  0  0
 64 65  1  0  0  0  0
 65 60  1  0  0  0  0
 64 66  1  6  0  0  0
 53 58  1  0  0  0  0
 63 36  1  6  0  0  0
 62 67  1  1  0  0  0
 66 68  1  0  0  0  0
M  END
>  <cdx:fragmentId>
232029

$$$$
