1099.cdx
  Mrv1902 05222410272D          

 14 15  0  0  0  0            999 V2000
    4.7058   -5.9400    0.0000 C   0  0  0  0  0  0  0  0  0  0  0  0
    4.7058   -6.7650    0.0000 C   0  0  0  0  0  0  0  0  0  0  0  0
    5.4202   -7.1775    0.0000 C   0  0  0  0  0  0  0  0  0  0  0  0
    6.1347   -6.7650    0.0000 C   0  0  0  0  0  0  0  0  0  0  0  0
    6.1347   -5.9400    0.0000 C   0  0  0  0  0  0  0  0  0  0  0  0
    5.4202   -5.5275    0.0000 C   0  0  0  0  0  0  0  0  0  0  0  0
    6.8492   -7.1775    0.0000 N   0  0  0  0  0  0  0  0  0  0  0  0
    7.5637   -6.7650    0.0000 C   0  0  0  0  0  0  0  0  0  0  0  0
    7.5637   -5.9400    0.0000 C   0  0  0  0  0  0  0  0  0  0  0  0
    6.8492   -5.5275    0.0000 C   0  0  1  0  0  0  0  0  0  0  0  0
    6.8492   -4.7025    0.0000 C   0  0  0  0  0  0  0  0  0  0  0  0
    8.2781   -7.1775    0.0000 O   0  0  0  0  0  0  0  0  0  0  0  0
    6.1347   -4.2900    0.0000 O   0  0  0  0  0  0  0  0  0  0  0  0
    7.5637   -4.2900    0.0000 N   0  0  0  0  0  0  0  0  0  0  0  0
  1  2  2  0  0  0  0
  2  3  1  0  0  0  0
  3  4  2  0  0  0  0
  4  5  1  0  0  0  0
  5  6  2  0  0  0  0
  6  1  1  0  0  0  0
  4  7  1  0  0  0  0
  7  8  1  0  0  0  0
  8  9  1  0  0  0  0
  9 10  1  0  0  0  0
 10  5  1  0  0  0  0
 10 11  1  6  0  0  0
  8 12  2  0  0  0  0
 11 13  2  0  0  0  0
 11 14  1  0  0  0  0
M  END
>  <cdx:fragmentId>
5

$$$$
