10993.cdx
  Mrv1902 05222410272D          

  7  6  0  0  0  0            999 V2000
    5.9530   -5.6891    0.0000 C   0  0  0  0  0  0  0  0  0  0  0  0
    6.6675   -6.1016    0.0000 C   0  0  0  0  0  0  0  0  0  0  0  0
    7.3820   -5.6891    0.0000 C   0  0  0  0  0  0  0  0  0  0  0  0
    8.0965   -6.1016    0.0000 C   0  0  0  0  0  0  0  0  0  0  0  0
    8.8109   -5.6891    0.0000 C   0  0  0  0  0  0  0  0  0  0  0  0
    9.5254   -6.1016    0.0000 C   0  0  0  0  0  0  0  0  0  0  0  0
    5.2386   -6.1016    0.0000 O   0  0  0  0  0  0  0  0  0  0  0  0
  1  2  1  0  0  0  0
  2  3  1  0  0  0  0
  3  4  2  0  0  0  0
  4  5  1  0  0  0  0
  5  6  1  0  0  0  0
  1  7  1  0  0  0  0
M  END
>  <cdx:fragmentId>
911

$$$$
