10992.cdx
  Mrv1902 05222410272D          

 35 38  0  0  0  0            999 V2000
    3.9839   -8.4769    0.0000 C   0  0  0  0  0  0  0  0  0  0  0  0
    3.9839   -9.3019    0.0000 C   0  0  0  0  0  0  0  0  0  0  0  0
    4.6984   -9.7144    0.0000 C   0  0  0  0  0  0  0  0  0  0  0  0
    5.4128   -9.3019    0.0000 C   0  0  1  0  0  0  0  0  0  0  0  0
    5.4128   -8.4769    0.0000 C   0  0  2  0  0  0  0  0  0  0  0  0
    4.6984   -8.0644    0.0000 C   0  0  0  0  0  0  0  0  0  0  0  0
    6.1273   -9.7144    0.0000 C   0  0  0  0  0  0  0  0  0  0  0  0
    6.8418   -9.3019    0.0000 C   0  0  0  0  0  0  0  0  0  0  0  0
    6.8418   -8.4769    0.0000 C   0  0  0  0  0  0  0  0  0  0  0  0
    6.1273   -8.0644    0.0000 C   0  0  0  0  0  0  0  0  0  0  0  0
    7.5563   -8.0644    0.0000 C   0  0  1  0  0  0  0  0  0  0  0  0
    7.5563   -7.2394    0.0000 C   0  0  2  0  0  0  0  0  0  0  0  0
    6.8418   -6.8269    0.0000 C   0  0  0  0  0  0  0  0  0  0  0  0
    6.1273   -7.2394    0.0000 C   0  0  0  0  0  0  0  0  0  0  0  0
    8.3409   -8.3193    0.0000 C   0  0  0  0  0  0  0  0  0  0  0  0
    8.8258   -7.6519    0.0000 C   0  0  0  0  0  0  0  0  0  0  0  0
    8.3409   -6.9844    0.0000 C   0  0  2  0  0  0  0  0  0  0  0  0
    3.2694   -9.7144    0.0000 O   0  0  0  0  0  0  0  0  0  0  0  0
    8.5544   -6.1875    0.0000 C   0  0  2  0  0  0  0  0  0  0  0  0
    7.5563   -6.4144    0.0000 C   0  0  0  0  0  0  0  0  0  0  0  0
    5.4128   -7.6519    0.0000 C   0  0  0  0  0  0  0  0  0  0  0  0
    4.2859  -10.4288    0.0000 C   0  0  0  0  0  0  0  0  0  0  0  0
    5.1109  -10.4288    0.0000 C   0  0  0  0  0  0  0  0  0  0  0  0
    7.5563   -8.8894    0.0000 C   0  0  0  0  0  0  0  0  0  0  0  0
    7.9710   -5.6042    0.0000 C   0  0  0  0  0  0  0  0  0  0  0  0
   10.3617   -4.9636    0.0000 C   0  0  0  0  0  0  0  0  0  0  0  0
    9.5648   -5.1771    0.0000 C   0  0  0  0  0  0  0  0  0  0  0  0
    9.3513   -5.9740    0.0000 C   0  0  0  0  0  0  0  0  0  0  0  0
   10.2054   -2.7865    0.0000 O   0  0  0  0  0  0  0  0  0  0  0  0
    9.1950   -3.7969    0.0000 O   0  0  0  0  0  0  0  0  0  0  0  0
   11.3721   -3.9532    0.0000 C   0  0  0  0  0  0  0  0  0  0  0  0
    9.9919   -3.5834    0.0000 C   0  0  0  0  0  0  0  0  0  0  0  0
   10.5752   -4.1667    0.0000 C   0  0  0  0  0  0  0  0  0  0  0  0
    9.1378   -6.7709    0.0000 H   0  0  0  0  0  0  0  0  0  0  0  0
    5.4128  -10.1269    0.0000 H   0  0  0  0  0  0  0  0  0  0  0  0
  1  2  1  0  0  0  0
  2  3  1  0  0  0  0
  3  4  1  0  0  0  0
  4  5  1  0  0  0  0
  5  6  1  0  0  0  0
  6  1  1  0  0  0  0
  4  7  1  0  0  0  0
  7  8  1  0  0  0  0
  8  9  2  0  0  0  0
  9 10  1  0  0  0  0
 10  5  1  0  0  0  0
  9 11  1  0  0  0  0
 11 12  1  0  0  0  0
 12 13  1  0  0  0  0
 13 14  1  0  0  0  0
 14 10  2  0  0  0  0
 11 15  1  0  0  0  0
 15 16  1  0  0  0  0
 16 17  1  0  0  0  0
 17 12  1  0  0  0  0
  2 18  2  0  0  0  0
 12 20  1  1  0  0  0
  5 21  1  1  0  0  0
  3 22  1  0  0  0  0
  3 23  1  0  0  0  0
 11 24  1  6  0  0  0
 19 25  1  6  0  0  0
 19 28  1  0  0  0  0
 26 33  2  0  0  0  0
 32 29  1  0  0  0  0
 27 26  1  0  0  0  0
 28 27  1  0  0  0  0
 17 19  1  0  0  0  0
 32 30  2  0  0  0  0
 33 31  1  0  0  0  0
 33 32  1  0  0  0  0
 17 34  1  6  0  0  0
  4 35  1  6  0  0  0
M  END
>  <cdx:fragmentId>
5

$$$$
