45109910.cdx
  Mrv1902 05222410262D          

 24 26  0  0  0  0            999 V2000
    6.2942  -15.6770    0.0000 C   0  0  0  0  0  0  0  0  0  0  0  0
    5.5797  -15.2645    0.0000 C   0  0  0  0  0  0  0  0  0  0  0  0
    5.5797  -14.4395    0.0000 C   0  0  0  0  0  0  0  0  0  0  0  0
    6.2942  -14.0270    0.0000 C   0  0  0  0  0  0  0  0  0  0  0  0
    7.0087  -14.4395    0.0000 C   0  0  0  0  0  0  0  0  0  0  0  0
    7.7231  -14.0270    0.0000 C   0  0  1  0  0  0  0  0  0  0  0  0
    7.7231  -13.2020    0.0000 C   0  0  0  0  0  0  0  0  0  0  0  0
    8.4376  -12.7895    0.0000 C   0  0  0  0  0  0  0  0  0  0  0  0
    9.1521  -13.2020    0.0000 C   0  0  0  0  0  0  0  0  0  0  0  0
    9.1521  -14.0270    0.0000 C   0  0  0  0  0  0  0  0  0  0  0  0
    8.4376  -14.4395    0.0000 C   0  0  2  0  0  0  0  0  0  0  0  0
    8.4376  -15.2645    0.0000 C   0  0  0  0  0  0  0  0  0  0  0  0
    7.7231  -15.6770    0.0000 C   0  0  0  0  0  0  0  0  0  0  0  0
    7.0087  -15.2645    0.0000 C   0  0  0  0  0  0  0  0  0  0  0  0
    4.8653  -14.0270    0.0000 O   0  0  0  0  0  0  0  0  0  0  0  0
    9.1521  -15.6770    0.0000 O   0  0  0  0  0  0  0  0  0  0  0  0
    7.0087  -16.9145    0.0000 C   0  0  0  0  0  0  0  0  0  0  0  0
    6.2942  -16.5020    0.0000 C   0  0  0  0  0  0  0  0  0  0  0  0
    5.5797  -16.9145    0.0000 C   0  0  0  0  0  0  0  0  0  0  0  0
    9.9771  -14.0270    0.0000 C   0  0  0  0  0  0  0  0  0  0  0  0
    9.5646  -14.7415    0.0000 C   0  0  0  0  0  0  0  0  0  0  0  0
    7.0087  -13.6145    0.0000 C   0  0  0  0  0  0  0  0  0  0  0  0
    4.8653  -15.6770    0.0000 O   0  0  0  0  0  0  0  0  0  0  0  0
    9.1521  -14.8520    0.0000 H   0  0  0  0  0  0  0  0  0  0  0  0
  1  2  2  0  0  0  0
  2  3  1  0  0  0  0
  3  4  1  0  0  0  0
  4  5  2  0  0  0  0
  5  6  1  0  0  0  0
  6  7  1  0  0  0  0
  7  8  1  0  0  0  0
  8  9  1  0  0  0  0
  9 10  1  0  0  0  0
 10 11  1  0  0  0  0
  6 11  1  0  0  0  0
 11 12  1  0  0  0  0
 12 13  1  0  0  0  0
 13 14  2  0  0  0  0
  1 14  1  0  0  0  0
  5 14  1  0  0  0  0
  3 15  2  0  0  0  0
 12 16  2  0  0  0  0
 17 18  1  0  0  0  0
 18 19  1  0  0  0  0
  1 18  1  0  0  0  0
 10 20  1  0  0  0  0
 10 21  1  0  0  0  0
  6 22  1  6  0  0  0
  2 23  1  0  0  0  0
 11 24  1  1  0  0  0
M  END
>  <cdx:groupId>
172258

>  <cdx:fragmentId>
172187

$$$$
