10994.cdx
  Mrv1902 05222410282D          

  7  6  0  0  0  0            999 V2000
    4.9620   -5.6848    0.0000 C   0  0  0  0  0  0  0  0  0  0  0  0
    5.6765   -6.0973    0.0000 C   0  0  0  0  0  0  0  0  0  0  0  0
    8.5343   -6.9223    0.0000 O   0  0  0  0  0  0  0  0  0  0  0  0
    5.6765   -6.9223    0.0000 C   0  0  0  0  0  0  0  0  0  0  0  0
    6.3909   -7.3348    0.0000 C   0  0  0  0  0  0  0  0  0  0  0  0
    7.1054   -6.9223    0.0000 C   0  0  0  0  0  0  0  0  0  0  0  0
    7.8199   -7.3348    0.0000 C   0  0  0  0  0  0  0  0  0  0  0  0
  2  1  1  0  0  0  0
  4  2  1  0  0  0  0
  7  3  1  0  0  0  0
  5  4  2  0  0  0  0
  6  5  1  0  0  0  0
  7  6  1  0  0  0  0
M  END
>  <cdx:fragmentId>
911

$$$$
