11008.cdx
  Mrv1902 05222410252D          

 32 31  0  0  0  0            999 V2000
    0.3684   -2.9906    0.0000 C   0  0  0  0  0  0  0  0  0  0  0  0
    1.0829   -2.5781    0.0000 C   0  0  0  0  0  0  0  0  0  0  0  0
    1.7974   -2.9906    0.0000 C   0  0  0  0  0  0  0  0  0  0  0  0
    2.5119   -2.5781    0.0000 C   0  0  0  0  0  0  0  0  0  0  0  0
    3.2263   -2.9906    0.0000 C   0  0  0  0  0  0  0  0  0  0  0  0
    3.9408   -2.5781    0.0000 C   0  0  0  0  0  0  0  0  0  0  0  0
    4.6553   -2.9906    0.0000 C   0  0  0  0  0  0  0  0  0  0  0  0
    5.3697   -2.5781    0.0000 C   0  0  0  0  0  0  0  0  0  0  0  0
    6.0842   -2.9906    0.0000 C   0  0  0  0  0  0  0  0  0  0  0  0
    6.7987   -2.5781    0.0000 C   0  0  0  0  0  0  0  0  0  0  0  0
    7.5132   -2.9906    0.0000 C   0  0  0  0  0  0  0  0  0  0  0  0
    8.2276   -2.5781    0.0000 C   0  0  0  0  0  0  0  0  0  0  0  0
    8.9421   -2.9906    0.0000 C   0  0  0  0  0  0  0  0  0  0  0  0
    9.6566   -2.5781    0.0000 C   0  0  0  0  0  0  0  0  0  0  0  0
   10.3710   -2.9906    0.0000 C   0  0  0  0  0  0  0  0  0  0  0  0
   11.0855   -2.5781    0.0000 C   0  0  0  0  0  0  0  0  0  0  0  0
   11.8000   -2.9906    0.0000 C   0  0  0  0  0  0  0  0  0  0  0  0
   12.5145   -2.5781    0.0000 C   0  0  0  0  0  0  0  0  0  0  0  0
   13.2289   -2.9906    0.0000 C   0  0  0  0  0  0  0  0  0  0  0  0
   13.9434   -2.5781    0.0000 C   0  0  0  0  0  0  0  0  0  0  0  0
   14.6579   -2.9906    0.0000 C   0  0  0  0  0  0  0  0  0  0  0  0
   15.3723   -2.5781    0.0000 C   0  0  0  0  0  0  0  0  0  0  0  0
   16.0868   -2.9906    0.0000 C   0  0  0  0  0  0  0  0  0  0  0  0
   16.8013   -2.5781    0.0000 C   0  0  0  0  0  0  0  0  0  0  0  0
   17.5158   -2.9906    0.0000 C   0  0  0  0  0  0  0  0  0  0  0  0
   18.2302   -2.5781    0.0000 C   0  0  0  0  0  0  0  0  0  0  0  0
   18.9447   -2.9906    0.0000 C   0  0  0  0  0  0  0  0  0  0  0  0
   19.6592   -2.5781    0.0000 C   0  0  0  0  0  0  0  0  0  0  0  0
   20.3736   -2.9906    0.0000 C   0  0  0  0  0  0  0  0  0  0  0  0
   21.0881   -2.5781    0.0000 C   0  0  0  0  0  0  0  0  0  0  0  0
   21.8026   -2.9906    0.0000 C   0  0  0  0  0  0  0  0  0  0  0  0
   22.5170   -2.5781    0.0000 C   0  0  0  0  0  0  0  0  0  0  0  0
  1  2  1  0  0  0  0
  2  3  1  0  0  0  0
  3  4  1  0  0  0  0
  4  5  1  0  0  0  0
  5  6  1  0  0  0  0
  6  7  1  0  0  0  0
  7  8  1  0  0  0  0
  8  9  1  0  0  0  0
  9 10  1  0  0  0  0
 10 11  1  0  0  0  0
 11 12  1  0  0  0  0
 12 13  1  0  0  0  0
 13 14  1  0  0  0  0
 14 15  1  0  0  0  0
 15 16  1  0  0  0  0
 16 17  1  0  0  0  0
 17 18  1  0  0  0  0
 18 19  1  0  0  0  0
 19 20  1  0  0  0  0
 20 21  1  0  0  0  0
 21 22  1  0  0  0  0
 22 23  1  0  0  0  0
 23 24  1  0  0  0  0
 24 25  1  0  0  0  0
 25 26  1  0  0  0  0
 26 27  1  0  0  0  0
 27 28  1  0  0  0  0
 28 29  1  0  0  0  0
 29 30  1  0  0  0  0
 30 31  1  0  0  0  0
 31 32  1  0  0  0  0
M  END
>  <cdx:groupId>
97

>  <cdx:fragmentId>
5

$$$$
