1100.cdx
  Mrv1902 05222410262D          

  4  3  0  0  0  0            999 V2000
    7.4827   -4.7996    0.0000 S   0  0  0  0  0  0  0  0  0  0  0  0
    7.4827   -3.9746    0.0000 O   0  0  0  0  0  0  0  0  0  0  0  0
    6.7683   -5.2121    0.0000 O   0  0  0  0  0  0  0  0  0  0  0  0
    8.1972   -5.2121    0.0000 O   0  0  0  0  0  0  0  0  0  0  0  0
  1  2  2  0  0  0  0
  1  3  1  0  0  0  0
  1  4  1  0  0  0  0
M  END
>  <cdx:fragmentId>
5

$$$$
