11005.cdx
  Mrv1902 05222410202D          

 16 15  0  0  0  0            999 V2000
   10.5930   -3.5552    0.0000 C   0  0  0  0  0  0  0  0  0  0  0  0
    9.8785   -3.9677    0.0000 C   0  0  0  0  0  0  0  0  0  0  0  0
    9.1640   -3.5552    0.0000 C   0  0  0  0  0  0  0  0  0  0  0  0
    8.4496   -3.9677    0.0000 C   0  0  0  0  0  0  0  0  0  0  0  0
    7.7351   -3.5552    0.0000 C   0  0  0  0  0  0  0  0  0  0  0  0
    7.0206   -3.9677    0.0000 C   0  0  0  0  0  0  0  0  0  0  0  0
    6.3061   -3.5552    0.0000 C   0  0  0  0  0  0  0  0  0  0  0  0
    5.5917   -3.9677    0.0000 C   0  0  0  0  0  0  0  0  0  0  0  0
    4.8772   -3.5552    0.0000 C   0  0  0  0  0  0  0  0  0  0  0  0
    4.1627   -3.9677    0.0000 C   0  0  0  0  0  0  0  0  0  0  0  0
    3.4483   -3.5552    0.0000 C   0  0  0  0  0  0  0  0  0  0  0  0
    2.7338   -3.9677    0.0000 C   0  0  0  0  0  0  0  0  0  0  0  0
    2.0193   -3.5552    0.0000 C   0  0  0  0  0  0  0  0  0  0  0  0
    1.3048   -3.9677    0.0000 C   0  0  0  0  0  0  0  0  0  0  0  0
   10.5930   -2.7302    0.0000 O   0  0  0  0  0  0  0  0  0  0  0  0
   11.3074   -3.9677    0.0000 O   0  0  0  0  0  0  0  0  0  0  0  0
  1  2  1  0  0  0  0
  2  3  1  0  0  0  0
  3  4  1  0  0  0  0
  4  5  1  0  0  0  0
  5  6  1  0  0  0  0
  6  7  1  0  0  0  0
  7  8  1  0  0  0  0
  8  9  1  0  0  0  0
  9 10  1  0  0  0  0
 10 11  1  0  0  0  0
 11 12  1  0  0  0  0
 12 13  1  0  0  0  0
 13 14  1  0  0  0  0
  1 15  2  0  0  0  0
  1 16  1  0  0  0  0
M  END
>  <cdx:groupId>
49

>  <cdx:fragmentId>
5

$$$$
