11006.cdx
  Mrv1902 05222410212D          

 16 15  0  0  0  0            999 V2000
    1.8190   -3.2587    0.0000 C   0  0  0  0  0  0  0  0  0  0  0  0
    2.5334   -2.8462    0.0000 C   0  0  0  0  0  0  0  0  0  0  0  0
    3.2479   -3.2587    0.0000 C   0  0  0  0  0  0  0  0  0  0  0  0
    3.9624   -2.8462    0.0000 C   0  0  0  0  0  0  0  0  0  0  0  0
    4.6769   -3.2587    0.0000 C   0  0  0  0  0  0  0  0  0  0  0  0
    5.3913   -2.8462    0.0000 C   0  0  0  0  0  0  0  0  0  0  0  0
    6.1058   -3.2587    0.0000 C   0  0  0  0  0  0  0  0  0  0  0  0
    6.8203   -2.8462    0.0000 C   0  0  0  0  0  0  0  0  0  0  0  0
    7.5347   -3.2588    0.0000 C   0  0  0  0  0  0  0  0  0  0  0  0
    8.2492   -2.8463    0.0000 C   0  0  0  0  0  0  0  0  0  0  0  0
    8.9637   -3.2588    0.0000 C   0  0  0  0  0  0  0  0  0  0  0  0
    9.6781   -2.8463    0.0000 C   0  0  0  0  0  0  0  0  0  0  0  0
   10.3926   -3.2588    0.0000 C   0  0  0  0  0  0  0  0  0  0  0  0
   11.1071   -2.8463    0.0000 C   0  0  0  0  0  0  0  0  0  0  0  0
   11.8216   -3.2588    0.0000 C   0  0  0  0  0  0  0  0  0  0  0  0
   12.5360   -2.8463    0.0000 C   0  0  0  0  0  0  0  0  0  0  0  0
  1  2  1  0  0  0  0
  2  3  1  0  0  0  0
  3  4  1  0  0  0  0
  4  5  1  0  0  0  0
  5  6  1  0  0  0  0
  6  7  1  0  0  0  0
  7  8  1  0  0  0  0
  8  9  1  0  0  0  0
  9 10  1  0  0  0  0
 10 11  1  0  0  0  0
 11 12  1  0  0  0  0
 12 13  1  0  0  0  0
 13 14  1  0  0  0  0
 14 15  1  0  0  0  0
 15 16  1  0  0  0  0
M  END
>  <cdx:groupId>
49

>  <cdx:fragmentId>
5

$$$$
