110145.cdx
  Mrv1902 05222410202D          

 45 47  0  0  0  0            999 V2000
    5.9227   -9.0497    0.0000 C   0  0  0  0  0  0  0  0  0  0  0  0
    5.2082   -8.6372    0.0000 C   0  0  0  0  0  0  0  0  0  0  0  0
    4.4937   -9.0497    0.0000 C   0  0  2  0  0  0  0  0  0  0  0  0
    3.7792   -8.6372    0.0000 C   0  0  1  0  0  0  0  0  0  0  0  0
    3.0648   -9.0497    0.0000 C   0  0  1  0  0  0  0  0  0  0  0  0
    2.3503   -8.6372    0.0000 C   0  0  0  0  0  0  0  0  0  0  0  0
    5.2082   -7.8122    0.0000 O   0  0  0  0  0  0  0  0  0  0  0  0
    1.6358   -9.0497    0.0000 O   0  0  0  0  0  0  0  0  0  0  0  0
    3.0648   -9.8747    0.0000 O   0  0  0  0  0  0  0  0  0  0  0  0
    3.7792   -7.8122    0.0000 O   0  0  0  0  0  0  0  0  0  0  0  0
    4.4937   -9.8747    0.0000 O   0  0  0  0  0  0  0  0  0  0  0  0
    6.6371   -8.6372    0.0000 O   0  0  0  0  0  0  0  0  0  0  0  0
    8.1721   -9.1359    0.0000 O   0  0  0  0  0  0  0  0  0  0  0  0
    7.3516   -9.0497    0.0000 C   0  0  2  0  0  0  0  0  0  0  0  0
    7.0160   -9.8034    0.0000 C   0  0  2  0  0  0  0  0  0  0  0  0
    7.6291  -10.3554    0.0000 C   0  0  1  0  0  0  0  0  0  0  0  0
    8.3436   -9.9429    0.0000 C   0  0  1  0  0  0  0  0  0  0  0  0
    9.0973  -10.2785    0.0000 C   0  0  0  0  0  0  0  0  0  0  0  0
    9.1835  -11.0990    0.0000 O   0  0  0  0  0  0  0  0  0  0  0  0
    7.5429  -11.1759    0.0000 O   0  0  0  0  0  0  0  0  0  0  0  0
    6.2091   -9.9749    0.0000 O   0  0  0  0  0  0  0  0  0  0  0  0
    7.3516   -8.2247    0.0000 C   0  0  0  0  0  0  0  0  0  0  0  0
    8.0661   -7.8122    0.0000 O   0  0  0  0  0  0  0  0  0  0  0  0
    8.4016   -6.2335    0.0000 O   0  0  0  0  0  0  0  0  0  0  0  0
    8.0661   -6.9872    0.0000 C   0  0  2  0  0  0  0  0  0  0  0  0
    7.2456   -6.9010    0.0000 C   0  0  2  0  0  0  0  0  0  0  0  0
    7.0741   -6.0940    0.0000 C   0  0  1  0  0  0  0  0  0  0  0  0
    7.7885   -5.6815    0.0000 C   0  0  1  0  0  0  0  0  0  0  0  0
    7.8748   -4.8610    0.0000 C   0  0  0  0  0  0  0  0  0  0  0  0
    7.1603   -4.4485    0.0000 O   0  0  0  0  0  0  0  0  0  0  0  0
    6.3204   -5.7584    0.0000 O   0  0  0  0  0  0  0  0  0  0  0  0
    6.6936   -7.5141    0.0000 O   0  0  0  0  0  0  0  0  0  0  0  0
    8.7805   -7.3997    0.0000 C   0  0  0  0  0  0  0  0  0  0  0  0
    8.7805   -8.2247    0.0000 O   0  0  0  0  0  0  0  0  0  0  0  0
    9.9799   -9.3046    0.0000 O   0  0  0  0  0  0  0  0  0  0  0  0
    9.4950   -8.6372    0.0000 C   0  0  2  0  0  0  0  0  0  0  0  0
    9.9799   -7.9698    0.0000 C   0  0  2  0  0  0  0  0  0  0  0  0
   10.7646   -8.2247    0.0000 C   0  0  1  0  0  0  0  0  0  0  0  0
   10.7646   -9.0497    0.0000 C   0  0  1  0  0  0  0  0  0  0  0  0
   11.4320   -9.5346    0.0000 C   0  0  0  0  0  0  0  0  0  0  0  0
   12.1857   -9.1991    0.0000 O   0  0  0  0  0  0  0  0  0  0  0  0
    8.7805   -9.0497    0.0000 C   0  0  0  0  0  0  0  0  0  0  0  0
    8.0661   -8.6372    0.0000 O   0  0  0  0  0  0  0  0  0  0  0  0
   11.4320   -7.7398    0.0000 O   0  0  0  0  0  0  0  0  0  0  0  0
    9.7250   -7.1851    0.0000 O   0  0  0  0  0  0  0  0  0  0  0  0
  1  2  1  0  0  0  0
  2  3  1  0  0  0  0
  3  4  1  0  0  0  0
  4  5  1  0  0  0  0
  5  6  1  0  0  0  0
  2  7  2  0  0  0  0
  6  8  1  0  0  0  0
  5  9  1  6  0  0  0
  4 10  1  1  0  0  0
  3 11  1  1  0  0  0
 13 14  1  0  0  0  0
 14 15  1  0  0  0  0
 15 16  1  0  0  0  0
 16 17  1  0  0  0  0
 13 17  1  0  0  0  0
 18 19  1  0  0  0  0
 17 18  1  6  0  0  0
 16 20  1  1  0  0  0
 15 21  1  6  0  0  0
 24 25  1  0  0  0  0
 25 26  1  0  0  0  0
 26 27  1  0  0  0  0
 27 28  1  0  0  0  0
 24 28  1  0  0  0  0
 29 30  1  0  0  0  0
 28 29  1  1  0  0  0
 27 31  1  6  0  0  0
 26 32  1  1  0  0  0
 35 36  1  0  0  0  0
 36 37  1  0  0  0  0
 37 38  1  0  0  0  0
 38 39  1  0  0  0  0
 35 39  1  0  0  0  0
 40 41  1  0  0  0  0
 39 40  1  1  0  0  0
 42 43  1  0  0  0  0
 36 42  1  6  0  0  0
 38 44  1  6  0  0  0
 37 45  1  1  0  0  0
 36 34  1  1  0  0  0
 33 34  1  0  0  0  0
 25 33  1  6  0  0  0
 25 23  1  1  0  0  0
 22 23  1  0  0  0  0
 14 22  1  1  0  0  0
 14 12  1  6  0  0  0
  1 12  1  0  0  0  0
M  END
>  <cdx:groupId>
231764

>  <cdx:fragmentId>
231698

$$$$
