110146.cdx
  Mrv1902 05222410212D          

 56 59  0  0  0  0            999 V2000
    6.1323   -9.6432    0.0000 C   0  0  0  0  0  0  0  0  0  0  0  0
    5.4178   -9.2307    0.0000 C   0  0  0  0  0  0  0  0  0  0  0  0
    4.7033   -9.6432    0.0000 C   0  0  2  0  0  0  0  0  0  0  0  0
    3.9889   -9.2307    0.0000 C   0  0  1  0  0  0  0  0  0  0  0  0
    3.2744   -9.6432    0.0000 C   0  0  1  0  0  0  0  0  0  0  0  0
    2.5599   -9.2307    0.0000 C   0  0  0  0  0  0  0  0  0  0  0  0
    5.4178   -8.4057    0.0000 O   0  0  0  0  0  0  0  0  0  0  0  0
    1.8455   -9.6432    0.0000 O   0  0  0  0  0  0  0  0  0  0  0  0
    3.2744  -10.4682    0.0000 O   0  0  0  0  0  0  0  0  0  0  0  0
    3.9889   -8.4057    0.0000 O   0  0  0  0  0  0  0  0  0  0  0  0
    4.7033  -10.4682    0.0000 O   0  0  0  0  0  0  0  0  0  0  0  0
    6.8468   -9.2307    0.0000 O   0  0  0  0  0  0  0  0  0  0  0  0
    7.2257  -10.3969    0.0000 O   0  0  0  0  0  0  0  0  0  0  0  0
    7.5612   -9.6432    0.0000 C   0  0  2  0  0  0  0  0  0  0  0  0
    8.3817   -9.7295    0.0000 C   0  0  2  0  0  0  0  0  0  0  0  0
    8.5532  -10.5364    0.0000 C   0  0  1  0  0  0  0  0  0  0  0  0
    7.8388  -10.9489    0.0000 C   0  0  1  0  0  0  0  0  0  0  0  0
    7.7525  -11.7694    0.0000 C   0  0  0  0  0  0  0  0  0  0  0  0
    8.4200  -12.2543    0.0000 O   0  0  0  0  0  0  0  0  0  0  0  0
    9.3069  -10.8720    0.0000 O   0  0  0  0  0  0  0  0  0  0  0  0
    8.7957   -9.2696    0.0000 O   0  0  0  0  0  0  0  0  0  0  0  0
    7.5612   -8.8182    0.0000 C   0  0  0  0  0  0  0  0  0  0  0  0
    8.2757   -8.4057    0.0000 O   0  0  0  0  0  0  0  0  0  0  0  0
    8.6113   -6.8270    0.0000 O   0  0  0  0  0  0  0  0  0  0  0  0
    8.2757   -7.5807    0.0000 C   0  0  2  0  0  0  0  0  0  0  0  0
    7.4552   -7.4945    0.0000 C   0  0  2  0  0  0  0  0  0  0  0  0
    7.2837   -6.6875    0.0000 C   0  0  1  0  0  0  0  0  0  0  0  0
    7.9982   -6.2750    0.0000 C   0  0  1  0  0  0  0  0  0  0  0  0
    8.0844   -5.4545    0.0000 C   0  0  0  0  0  0  0  0  0  0  0  0
    7.3699   -5.0420    0.0000 O   0  0  0  0  0  0  0  0  0  0  0  0
    6.5300   -6.3519    0.0000 O   0  0  0  0  0  0  0  0  0  0  0  0
    6.9032   -8.1076    0.0000 O   0  0  0  0  0  0  0  0  0  0  0  0
    8.9902   -7.9932    0.0000 C   0  0  0  0  0  0  0  0  0  0  0  0
    8.9902   -8.8182    0.0000 O   0  0  0  0  0  0  0  0  0  0  0  0
    9.3691   -9.9844    0.0000 O   0  0  0  0  0  0  0  0  0  0  0  0
    9.7046   -9.2307    0.0000 C   0  0  2  0  0  0  0  0  0  0  0  0
   10.5251   -9.3170    0.0000 C   0  0  2  0  0  0  0  0  0  0  0  0
   10.6967  -10.1239    0.0000 C   0  0  1  0  0  0  0  0  0  0  0  0
    9.9822  -10.5364    0.0000 C   0  0  1  0  0  0  0  0  0  0  0  0
    9.8959  -11.3569    0.0000 C   0  0  0  0  0  0  0  0  0  0  0  0
    9.1423  -11.6925    0.0000 O   0  0  0  0  0  0  0  0  0  0  0  0
   11.4503  -10.4595    0.0000 O   0  0  0  0  0  0  0  0  0  0  0  0
   11.0772   -8.7039    0.0000 O   0  0  0  0  0  0  0  0  0  0  0  0
    9.7046   -8.4057    0.0000 C   0  0  0  0  0  0  0  0  0  0  0  0
   10.4191   -7.9932    0.0000 O   0  0  0  0  0  0  0  0  0  0  0  0
   11.2396   -7.0820    0.0000 O   0  0  0  0  0  0  0  0  0  0  0  0
   10.4191   -7.1682    0.0000 C   0  0  2  0  0  0  0  0  0  0  0  0
   10.0836   -6.4145    0.0000 C   0  0  2  0  0  0  0  0  0  0  0  0
   10.6967   -5.8625    0.0000 C   0  0  1  0  0  0  0  0  0  0  0  0
   11.4111   -6.2750    0.0000 C   0  0  1  0  0  0  0  0  0  0  0  0
   12.1648   -5.9394    0.0000 C   0  0  0  0  0  0  0  0  0  0  0  0
   12.2510   -5.1190    0.0000 O   0  0  0  0  0  0  0  0  0  0  0  0
    9.7046   -7.5807    0.0000 C   0  0  0  0  0  0  0  0  0  0  0  0
    8.9902   -7.1682    0.0000 O   0  0  0  0  0  0  0  0  0  0  0  0
   10.6104   -5.0420    0.0000 O   0  0  0  0  0  0  0  0  0  0  0  0
    9.2766   -6.2430    0.0000 O   0  0  0  0  0  0  0  0  0  0  0  0
  1  2  1  0  0  0  0
  2  3  1  0  0  0  0
  3  4  1  0  0  0  0
  4  5  1  0  0  0  0
  5  6  1  0  0  0  0
  2  7  2  0  0  0  0
  6  8  1  0  0  0  0
  5  9  1  6  0  0  0
  4 10  1  1  0  0  0
  3 11  1  1  0  0  0
 13 14  1  0  0  0  0
 14 15  1  0  0  0  0
 15 16  1  0  0  0  0
 16 17  1  0  0  0  0
 13 17  1  0  0  0  0
 18 19  1  0  0  0  0
 17 18  1  1  0  0  0
 16 20  1  6  0  0  0
 15 21  1  1  0  0  0
 24 25  1  0  0  0  0
 25 26  1  0  0  0  0
 26 27  1  0  0  0  0
 27 28  1  0  0  0  0
 24 28  1  0  0  0  0
 29 30  1  0  0  0  0
 28 29  1  1  0  0  0
 27 31  1  6  0  0  0
 26 32  1  1  0  0  0
 35 36  1  0  0  0  0
 36 37  1  0  0  0  0
 37 38  1  0  0  0  0
 38 39  1  0  0  0  0
 35 39  1  0  0  0  0
 40 41  1  0  0  0  0
 39 40  1  1  0  0  0
 38 42  1  6  0  0  0
 37 43  1  1  0  0  0
 46 47  1  0  0  0  0
 47 48  1  0  0  0  0
 48 49  1  0  0  0  0
 49 50  1  0  0  0  0
 46 50  1  0  0  0  0
 51 52  1  0  0  0  0
 50 51  1  1  0  0  0
 53 54  1  0  0  0  0
 47 53  1  6  0  0  0
 49 55  1  6  0  0  0
 48 56  1  1  0  0  0
 47 45  1  1  0  0  0
 44 45  1  0  0  0  0
 36 44  1  6  0  0  0
 36 34  1  1  0  0  0
 33 34  1  0  0  0  0
 25 33  1  6  0  0  0
 25 23  1  1  0  0  0
 22 23  1  0  0  0  0
 14 22  1  6  0  0  0
 14 12  1  1  0  0  0
  1 12  1  0  0  0  0
M  END
>  <cdx:groupId>
231951

>  <cdx:fragmentId>
231873

$$$$
