11024.cdx
  Mrv1902 05222410232D          

 48 52  0  0  0  0            999 V2000
    4.1005   -8.6254    0.0000 O   0  0  0  0  0  0  0  0  0  0  0  0
    4.8127   -7.3866    0.0000 O   0  0  0  0  0  0  0  0  0  0  0  0
    4.0990   -7.8004    0.0000 C   0  0  2  0  0  0  0  0  0  0  0  0
    3.3838   -7.3892    0.0000 C   0  0  1  0  0  0  0  0  0  0  0  0
    3.3823   -6.5642    0.0000 C   0  0  2  0  0  0  0  0  0  0  0  0
    4.0960   -6.1504    0.0000 C   0  0  1  0  0  0  0  0  0  0  0  0
    4.8112   -6.5616    0.0000 C   0  0  1  0  0  0  0  0  0  0  0  0
    5.5249   -6.1478    0.0000 C   0  0  0  0  0  0  0  0  0  0  0  0
    6.2401   -6.5590    0.0000 O   0  0  0  0  0  0  0  0  0  0  0  0
    7.6691   -6.5563    0.0000 O   0  0  0  0  0  0  0  0  0  0  0  0
    6.9539   -6.1451    0.0000 C   0  0  2  0  0  0  0  0  0  0  0  0
    6.9524   -5.3201    0.0000 C   0  0  1  0  0  0  0  0  0  0  0  0
    7.6661   -4.9063    0.0000 C   0  0  2  0  0  0  0  0  0  0  0  0
    8.3813   -5.3175    0.0000 C   0  0  1  0  0  0  0  0  0  0  0  0
    8.3828   -6.1425    0.0000 C   0  0  1  0  0  0  0  0  0  0  0  0
    9.0980   -6.5537    0.0000 C   0  0  0  0  0  0  0  0  0  0  0  0
    9.8117   -6.1399    0.0000 O   0  0  0  0  0  0  0  0  0  0  0  0
    9.0950   -4.9037    0.0000 O   0  0  0  0  0  0  0  0  0  0  0  0
    7.6646   -4.0813    0.0000 O   0  0  0  0  0  0  0  0  0  0  0  0
    6.2371   -4.9090    0.0000 O   0  0  0  0  0  0  0  0  0  0  0  0
    4.0945   -5.3254    0.0000 O   0  0  0  0  0  0  0  0  0  0  0  0
    2.6670   -6.1530    0.0000 O   0  0  0  0  0  0  0  0  0  0  0  0
    2.6701   -7.8030    0.0000 O   0  0  0  0  0  0  0  0  0  0  0  0
    5.5295  -11.1004    0.0000 O   0  0  0  0  0  0  0  0  0  0  0  0
    9.1018  -12.3379    0.0000 O   0  0  0  0  0  0  0  0  0  0  0  0
   11.2452  -11.1004    0.0000 C   0  0  0  0  0  0  0  0  0  0  0  0
   10.5308  -11.5129    0.0000 O   0  0  0  0  0  0  0  0  0  0  0  0
   11.2452  -10.2754    0.0000 C   0  0  0  0  0  0  0  0  0  0  0  0
   10.5308   -9.8629    0.0000 O   0  0  0  0  0  0  0  0  0  0  0  0
    9.1018   -9.8629    0.0000 C   0  0  0  0  0  0  0  0  0  0  0  0
    9.8163  -10.2754    0.0000 C   0  0  0  0  0  0  0  0  0  0  0  0
    9.8163  -11.1004    0.0000 C   0  0  0  0  0  0  0  0  0  0  0  0
    9.1018  -11.5129    0.0000 C   0  0  0  0  0  0  0  0  0  0  0  0
    8.3873  -11.1004    0.0000 C   0  0  0  0  0  0  0  0  0  0  0  0
    8.3873  -10.2754    0.0000 C   0  0  0  0  0  0  0  0  0  0  0  0
    3.3860   -9.8629    0.0000 C   0  0  0  0  0  0  0  0  0  0  0  0
    4.1005  -10.2754    0.0000 O   0  0  0  0  0  0  0  0  0  0  0  0
    6.9584  -11.1004    0.0000 O   0  0  0  0  0  0  0  0  0  0  0  0
    6.9584   -8.6254    0.0000 O   0  0  0  0  0  0  0  0  0  0  0  0
    6.2439   -9.0379    0.0000 C   0  0  0  0  0  0  0  0  0  0  0  0
    5.5295   -8.6254    0.0000 C   0  0  0  0  0  0  0  0  0  0  0  0
    4.8150   -9.0379    0.0000 C   0  0  0  0  0  0  0  0  0  0  0  0
    4.8150   -9.8629    0.0000 C   0  0  0  0  0  0  0  0  0  0  0  0
    5.5295  -10.2754    0.0000 C   0  0  0  0  0  0  0  0  0  0  0  0
    6.2439   -9.8629    0.0000 C   0  0  0  0  0  0  0  0  0  0  0  0
    6.9584  -10.2754    0.0000 C   0  0  0  0  0  0  0  0  0  0  0  0
    7.6729   -9.8629    0.0000 C   0  0  0  0  0  0  0  0  0  0  0  0
    7.6729   -9.0379    0.0000 C   0  0  0  0  0  0  0  0  0  0  0  0
 44 24  1  0  0  0  0
 47 35  1  0  0  0  0
 33 25  1  0  0  0  0
 32 27  1  0  0  0  0
 27 26  1  0  0  0  0
 31 29  1  0  0  0  0
 29 28  1  0  0  0  0
 35 30  2  0  0  0  0
 31 30  1  0  0  0  0
 32 31  2  0  0  0  0
 33 32  1  0  0  0  0
 34 33  2  0  0  0  0
 35 34  1  0  0  0  0
 43 37  1  0  0  0  0
 37 36  1  0  0  0  0
 42  1  1  0  0  0  0
  2  3  1  0  0  0  0
 46 38  2  0  0  0  0
 48 39  1  0  0  0  0
 40 39  1  0  0  0  0
 45 40  2  0  0  0  0
 41 40  1  0  0  0  0
 42 41  2  0  0  0  0
 43 42  1  0  0  0  0
 44 43  2  0  0  0  0
 45 44  1  0  0  0  0
 46 45  1  0  0  0  0
 47 46  1  0  0  0  0
 48 47  2  0  0  0  0
  3  4  1  0  0  0  0
  4  5  1  0  0  0  0
  5  6  1  0  0  0  0
  6  7  1  0  0  0  0
  2  7  1  0  0  0  0
 10 11  1  0  0  0  0
 11 12  1  0  0  0  0
 12 13  1  0  0  0  0
 13 14  1  0  0  0  0
 14 15  1  0  0  0  0
 10 15  1  0  0  0  0
 16 17  1  0  0  0  0
 15 16  1  1  0  0  0
 14 18  1  6  0  0  0
 13 19  1  1  0  0  0
 12 20  1  6  0  0  0
 11  9  1  1  0  0  0
  8  9  1  0  0  0  0
  7  8  1  1  0  0  0
  6 21  1  6  0  0  0
  5 22  1  1  0  0  0
  4 23  1  6  0  0  0
  3  1  1  1  0  0  0
M  END
>  <cdx:fragmentId>
45

$$$$
