11027.cdx
  Mrv1902 05222410242D          

 17 17  0  0  0  0            999 V2000
    6.3884   -6.2311    0.0000 C   0  0  0  0  0  0  0  0  0  0  0  0
    5.6313   -9.6680    0.0000 C   0  0  0  0  0  0  0  0  0  0  0  0
    9.3114   -8.6325    0.0000 C   0  0  0  0  0  0  0  0  0  0  0  0
    8.5457   -8.9393    0.0000 C   0  0  0  0  0  0  0  0  0  0  0  0
    8.4282   -9.7558    0.0000 C   0  0  0  0  0  0  0  0  0  0  0  0
    7.5709   -6.9749    0.0000 C   0  0  0  0  0  0  0  0  0  0  0  0
    8.0850   -7.6202    0.0000 C   0  0  0  0  0  0  0  0  0  0  0  0
    7.9008   -8.4246    0.0000 C   0  0  2  0  0  0  0  0  0  0  0  0
    7.1572   -8.7820    0.0000 C   0  0  0  0  0  0  0  0  0  0  0  0
    6.4143   -8.4235    0.0000 C   0  0  0  0  0  0  0  0  0  0  0  0
    5.7059   -8.8462    0.0000 C   0  0  0  0  0  0  0  0  0  0  0  0
    5.0849   -8.3032    0.0000 C   0  0  0  0  0  0  0  0  0  0  0  0
    5.4096   -7.5447    0.0000 C   0  0  0  0  0  0  0  0  0  0  0  0
    6.2311   -7.6193    0.0000 C   0  0  0  0  0  0  0  0  0  0  0  0
    6.7459   -6.9744    0.0000 C   0  0  0  0  0  0  0  0  0  0  0  0
    6.6279   -7.6266    0.0000 H   0  0  0  0  0  0  0  0  0  0  0  0
    6.0176   -8.4162    0.0000 H   0  0  0  0  0  0  0  0  0  0  0  0
 15  1  1  0  0  0  0
 11  2  1  0  0  0  0
  8  4  1  1  0  0  0
  4  3  1  0  0  0  0
  5  4  2  0  0  0  0
 15  6  1  0  0  0  0
  7  6  1  0  0  0  0
  8  7  1  0  0  0  0
  9  8  1  0  0  0  0
 10  9  1  0  0  0  0
 11 10  2  0  0  0  0
 12 11  1  0  0  0  0
 13 12  1  0  0  0  0
 14 13  1  0  0  0  0
 15 14  2  0  0  0  0
 10 16  1  0  0  0  0
 14 17  1  0  0  0  0
M  END
>  <cdx:fragmentId>
62

$$$$
