11037.cdx
  Mrv1902 05222410252D          

 47 48  0  0  0  0            999 V2000
    9.2432  -11.5214    0.0000 C   0  0  0  0  0  0  0  0  0  0  0  0
    9.2432  -10.6964    0.0000 C   0  0  0  0  0  0  0  0  0  0  0  0
    9.9577  -10.2839    0.0000 C   0  0  0  0  0  0  0  0  0  0  0  0
    9.9577   -9.4589    0.0000 C   0  0  0  0  0  0  0  0  0  0  0  0
   10.6722   -9.0464    0.0000 C   0  0  0  0  0  0  0  0  0  0  0  0
   10.6722   -8.2214    0.0000 C   0  0  0  0  0  0  0  0  0  0  0  0
   11.3867   -7.8089    0.0000 C   0  0  0  0  0  0  0  0  0  0  0  0
   11.3867   -6.9839    0.0000 C   0  0  0  0  0  0  0  0  0  0  0  0
   12.1011   -6.5714    0.0000 C   0  0  0  0  0  0  0  0  0  0  0  0
    9.9577  -11.9339    0.0000 O   0  0  0  0  0  0  0  0  0  0  0  0
    8.5288  -11.9339    0.0000 O   0  0  0  0  0  0  0  0  0  0  0  0
    8.5288  -12.7589    0.0000 C   0  0  0  0  0  0  0  0  0  0  0  0
    7.8143  -13.1714    0.0000 C   0  0  2  0  0  0  0  0  0  0  0  0
    7.8143  -13.9964    0.0000 C   0  0  0  0  0  0  0  0  0  0  0  0
    7.0998  -14.4089    0.0000 O   0  0  0  0  0  0  0  0  0  0  0  0
    6.3854  -15.6464    0.0000 O   0  0  0  0  0  0  0  0  0  0  0  0
    7.0998  -15.2339    0.0000 C   0  0  2  0  0  0  0  0  0  0  0  0
    7.8143  -15.6464    0.0000 C   0  0  1  0  0  0  0  0  0  0  0  0
    7.8143  -16.4714    0.0000 C   0  0  2  0  0  0  0  0  0  0  0  0
    7.0998  -16.8839    0.0000 C   0  0  2  0  0  0  0  0  0  0  0  0
    6.3854  -16.4714    0.0000 C   0  0  1  0  0  0  0  0  0  0  0  0
    5.6709  -16.8839    0.0000 C   0  0  0  0  0  0  0  0  0  0  0  0
    5.6709  -17.7089    0.0000 O   0  0  0  0  0  0  0  0  0  0  0  0
    7.0998  -17.7089    0.0000 O   0  0  0  0  0  0  0  0  0  0  0  0
    8.5288  -16.8839    0.0000 O   0  0  0  0  0  0  0  0  0  0  0  0
    8.5288  -15.2339    0.0000 O   0  0  0  0  0  0  0  0  0  0  0  0
    7.0998  -12.7589    0.0000 O   0  0  0  0  0  0  0  0  0  0  0  0
    5.6709  -19.3589    0.0000 O   0  0  0  0  0  0  0  0  0  0  0  0
    4.2419  -20.1839    0.0000 O   0  0  0  0  0  0  0  0  0  0  0  0
    2.8130  -19.3589    0.0000 O   0  0  0  0  0  0  0  0  0  0  0  0
    2.0985  -18.1214    0.0000 O   0  0  0  0  0  0  0  0  0  0  0  0
    2.8130  -17.7089    0.0000 C   0  0  0  0  0  0  0  0  0  0  0  0
    3.5275  -18.1214    0.0000 C   0  0  2  0  0  0  0  0  0  0  0  0
    3.5275  -18.9464    0.0000 C   0  0  1  0  0  0  0  0  0  0  0  0
    4.2419  -19.3589    0.0000 C   0  0  1  0  0  0  0  0  0  0  0  0
    4.9564  -18.9464    0.0000 C   0  0  2  0  0  0  0  0  0  0  0  0
    4.9564  -18.1214    0.0000 C   0  0  2  0  0  0  0  0  0  0  0  0
    4.2419  -17.7089    0.0000 O   0  0  0  0  0  0  0  0  0  0  0  0
   12.1011   -5.7464    0.0000 C   0  0  0  0  0  0  0  0  0  0  0  0
   11.3867   -5.3339    0.0000 C   0  0  0  0  0  0  0  0  0  0  0  0
   11.3867   -4.5089    0.0000 C   0  0  0  0  0  0  0  0  0  0  0  0
   10.6722   -4.0964    0.0000 C   0  0  0  0  0  0  0  0  0  0  0  0
   10.6722   -3.2714    0.0000 C   0  0  0  0  0  0  0  0  0  0  0  0
    9.9577   -2.8589    0.0000 C   0  0  0  0  0  0  0  0  0  0  0  0
    9.9577   -2.0339    0.0000 C   0  0  0  0  0  0  0  0  0  0  0  0
    9.2432   -1.6214    0.0000 C   0  0  0  0  0  0  0  0  0  0  0  0
    9.2432   -0.7964    0.0000 C   0  0  0  0  0  0  0  0  0  0  0  0
 37 23  1  6  0  0  0
 36 28  1  6  0  0  0
 35 29  1  1  0  0  0
 34 30  1  1  0  0  0
 33 32  1  1  0  0  0
 32 31  1  0  0  0  0
 38 33  1  0  0  0  0
 34 33  1  0  0  0  0
 35 34  1  0  0  0  0
 36 35  1  0  0  0  0
 37 36  1  0  0  0  0
 38 37  1  0  0  0  0
  1  2  1  0  0  0  0
  2  3  1  0  0  0  0
  3  4  1  0  0  0  0
  4  5  1  0  0  0  0
  5  6  1  0  0  0  0
  6  7  1  0  0  0  0
  7  8  1  0  0  0  0
  8  9  1  0  0  0  0
  1 10  2  0  0  0  0
  1 11  1  0  0  0  0
 12 13  1  0  0  0  0
 13 14  1  0  0  0  0
 16 17  1  0  0  0  0
 17 18  1  0  0  0  0
 18 19  1  0  0  0  0
 19 20  1  0  0  0  0
 20 21  1  0  0  0  0
 16 21  1  0  0  0  0
 22 23  1  0  0  0  0
 21 22  1  1  0  0  0
 20 24  1  1  0  0  0
 19 25  1  1  0  0  0
 18 26  1  6  0  0  0
 17 15  1  1  0  0  0
 14 15  1  0  0  0  0
 13 27  1  6  0  0  0
 11 12  1  0  0  0  0
  9 39  2  0  0  0  0
 39 40  1  0  0  0  0
 40 41  1  0  0  0  0
 41 42  1  0  0  0  0
 42 43  1  0  0  0  0
 43 44  1  0  0  0  0
 44 45  1  0  0  0  0
 45 46  1  0  0  0  0
 46 47  1  0  0  0  0
M  END
>  <cdx:groupId>
35404

>  <cdx:fragmentId>
35329

$$$$
