11033.cdx
  Mrv1902 05222410242D          

 20 21  0  0  0  0            999 V2000
    4.4696   -8.0375    0.0000 C   0  0  0  0  0  0  0  0  0  0  0  0
    5.1871   -8.4447    0.0000 C   0  0  0  0  0  0  0  0  0  0  0  0
    5.8985   -8.0270    0.0000 C   0  0  0  0  0  0  0  0  0  0  0  0
    5.8925   -7.2020    0.0000 C   0  0  0  0  0  0  0  0  0  0  0  0
    5.1750   -6.7948    0.0000 C   0  0  0  0  0  0  0  0  0  0  0  0
    4.4636   -7.2125    0.0000 C   0  0  0  0  0  0  0  0  0  0  0  0
    3.7461   -6.8053    0.0000 O   0  0  0  0  0  0  0  0  0  0  0  0
    3.7582   -8.4552    0.0000 O   0  0  0  0  0  0  0  0  0  0  0  0
    3.0355   -8.0574    0.0000 C   0  0  0  0  0  0  0  0  0  0  0  0
    6.6039   -6.7843    0.0000 C   0  0  0  0  0  0  0  0  0  0  0  0
    7.3214   -7.1915    0.0000 C   0  0  0  0  0  0  0  0  0  0  0  0
    8.0328   -6.7738    0.0000 C   0  0  0  0  0  0  0  0  0  0  0  0
    8.7503   -7.1810    0.0000 C   0  0  0  0  0  0  0  0  0  0  0  0
    9.4617   -6.7632    0.0000 C   0  0  0  0  0  0  0  0  0  0  0  0
    9.4556   -5.9383    0.0000 C   0  0  0  0  0  0  0  0  0  0  0  0
    8.7381   -5.5310    0.0000 C   0  0  0  0  0  0  0  0  0  0  0  0
    8.0267   -5.9488    0.0000 C   0  0  0  0  0  0  0  0  0  0  0  0
   10.1792   -7.1705    0.0000 O   0  0  0  0  0  0  0  0  0  0  0  0
    8.7321   -4.7061    0.0000 O   0  0  0  0  0  0  0  0  0  0  0  0
    9.4435   -4.2883    0.0000 C   0  0  0  0  0  0  0  0  0  0  0  0
  1  2  2  0  0  0  0
  2  3  1  0  0  0  0
  3  4  2  0  0  0  0
  4  5  1  0  0  0  0
  5  6  2  0  0  0  0
  6  1  1  0  0  0  0
  6  7  1  0  0  0  0
  1  8  1  0  0  0  0
  8  9  1  0  0  0  0
  4 10  1  0  0  0  0
 10 11  1  0  0  0  0
 11 12  1  0  0  0  0
 12 13  2  0  0  0  0
 13 14  1  0  0  0  0
 14 15  2  0  0  0  0
 15 16  1  0  0  0  0
 16 17  2  0  0  0  0
 17 12  1  0  0  0  0
 14 18  1  0  0  0  0
 16 19  1  0  0  0  0
 19 20  1  0  0  0  0
M  END
>  <cdx:fragmentId>
5

$$$$
