1103.cdx
  Mrv1902 05222410272D          

 14 13  0  0  0  0            999 V2000
    5.6520   -3.3281    0.0000 C   0  0  0  0  0  0  0  0  0  0  0  0
    6.3665   -3.7406    0.0000 C   0  0  0  0  0  0  0  0  0  0  0  0
    7.0810   -3.3281    0.0000 C   0  0  0  0  0  0  0  0  0  0  0  0
    7.7955   -3.7406    0.0000 C   0  0  0  0  0  0  0  0  0  0  0  0
    4.9376   -3.7406    0.0000 N   0  0  0  0  0  0  0  0  0  0  0  0
    8.5099   -3.3281    0.0000 N   0  0  0  0  0  0  0  0  0  0  0  0
    9.2244   -3.7406    0.0000 C   0  0  0  0  0  0  0  0  0  0  0  0
    9.9389   -3.3281    0.0000 C   0  0  0  0  0  0  0  0  0  0  0  0
   10.6533   -3.7406    0.0000 C   0  0  0  0  0  0  0  0  0  0  0  0
   11.3678   -3.3281    0.0000 N   0  0  0  0  0  0  0  0  0  0  0  0
    4.2231   -3.3281    0.0000 C   0  0  0  0  0  0  0  0  0  0  0  0
    3.5086   -3.7406    0.0000 C   0  0  0  0  0  0  0  0  0  0  0  0
    2.7942   -3.3281    0.0000 C   0  0  0  0  0  0  0  0  0  0  0  0
    2.0797   -3.7406    0.0000 N   0  0  0  0  0  0  0  0  0  0  0  0
  1  2  1  0  0  0  0
  2  3  1  0  0  0  0
  3  4  1  0  0  0  0
  1  5  1  0  0  0  0
  4  6  1  0  0  0  0
  7  8  1  0  0  0  0
  8  9  1  0  0  0  0
  9 10  1  0  0  0  0
  6  7  1  0  0  0  0
 11 12  1  0  0  0  0
 12 13  1  0  0  0  0
 13 14  1  0  0  0  0
  5 11  1  0  0  0  0
M  END
>  <cdx:groupId>
43

>  <cdx:fragmentId>
5

$$$$
