11035.cdx
  Mrv1902 05222410252D          

 40 44  0  0  0  0            999 V2000
    3.8481   -9.5992    0.0000 C   0  0  0  0  0  0  0  0  0  0  0  0
    3.1336  -10.0117    0.0000 C   0  0  0  0  0  0  0  0  0  0  0  0
    3.8481   -8.7742    0.0000 O   0  0  0  0  0  0  0  0  0  0  0  0
    4.5626  -10.0117    0.0000 O   0  0  0  0  0  0  0  0  0  0  0  0
    5.9915   -8.3617    0.0000 C   0  0  0  0  0  0  0  0  0  0  0  0
    5.2770   -8.7742    0.0000 C   0  0  0  0  0  0  0  0  0  0  0  0
    5.2770   -9.5992    0.0000 C   0  0  1  0  0  0  0  0  0  0  0  0
    5.9915  -10.0117    0.0000 C   0  0  0  0  0  0  0  0  0  0  0  0
    6.7060   -9.5992    0.0000 C   0  0  2  0  0  0  0  0  0  0  0  0
    7.4205  -10.0117    0.0000 C   0  0  0  0  0  0  0  0  0  0  0  0
    8.1349   -9.5992    0.0000 C   0  0  0  0  0  0  0  0  0  0  0  0
    8.1349   -8.7742    0.0000 C   0  0  1  0  0  0  0  0  0  0  0  0
    8.8494   -8.3617    0.0000 C   0  0  2  0  0  0  0  0  0  0  0  0
    9.6340   -8.6167    0.0000 C   0  0  0  0  0  0  0  0  0  0  0  0
   10.1189   -7.9492    0.0000 C   0  0  0  0  0  0  0  0  0  0  0  0
    9.6340   -7.2818    0.0000 C   0  0  1  0  0  0  0  0  0  0  0  0
    8.8494   -7.5367    0.0000 C   0  0  1  0  0  0  0  0  0  0  0  0
    8.1349   -7.1242    0.0000 C   0  0  0  0  0  0  0  0  0  0  0  0
    7.4205   -7.5367    0.0000 C   0  0  0  0  0  0  0  0  0  0  0  0
    7.4205   -8.3617    0.0000 C   0  0  2  0  0  0  0  0  0  0  0  0
    6.7060   -8.7742    0.0000 C   0  0  1  0  0  0  0  0  0  0  0  0
    8.8494   -9.1867    0.0000 C   0  0  0  0  0  0  0  0  0  0  0  0
    6.7060   -7.9492    0.0000 C   0  0  0  0  0  0  0  0  0  0  0  0
    8.1349   -7.9492    0.0000 C   0  0  0  0  0  0  0  0  0  0  0  0
    6.4040  -10.7262    0.0000 C   0  0  0  0  0  0  0  0  0  0  0  0
    5.5790  -10.7262    0.0000 C   0  0  0  0  0  0  0  0  0  0  0  0
   10.6959   -6.3256    0.0000 O   0  0  0  0  0  0  0  0  0  0  0  0
    9.8890   -6.4972    0.0000 C   0  0  1  0  0  0  0  0  0  0  0  0
    9.3369   -5.8841    0.0000 C   0  0  0  0  0  0  0  0  0  0  0  0
    9.5919   -5.0994    0.0000 C   0  0  0  0  0  0  0  0  0  0  0  0
   10.3988   -4.9279    0.0000 C   0  0  1  0  0  0  0  0  0  0  0  0
   10.9509   -5.5410    0.0000 C   0  0  0  0  0  0  0  0  0  0  0  0
   11.5640   -4.9890    0.0000 C   0  0  0  0  0  0  0  0  0  0  0  0
   11.7355   -5.7959    0.0000 C   0  0  0  0  0  0  0  0  0  0  0  0
   10.6034   -6.9097    0.0000 C   0  0  0  0  0  0  0  0  0  0  0  0
   10.6538   -4.1433    0.0000 O   0  0  0  0  0  0  0  0  0  0  0  0
    6.7060  -10.4242    0.0000 H   0  0  0  0  0  0  0  0  0  0  0  0
    7.4205   -9.1867    0.0000 H   0  0  0  0  0  0  0  0  0  0  0  0
    8.8494   -6.7117    0.0000 H   0  0  0  0  0  0  0  0  0  0  0  0
   10.4590   -7.2818    0.0000 H   0  0  0  0  0  0  0  0  0  0  0  0
  1  2  1  0  0  0  0
  1  3  2  0  0  0  0
  1  4  1  0  0  0  0
  5  6  1  0  0  0  0
  6  7  1  0  0  0  0
  7  8  1  0  0  0  0
  8  9  1  0  0  0  0
  9 10  1  0  0  0  0
 10 11  1  0  0  0  0
 11 12  1  0  0  0  0
 12 13  1  0  0  0  0
 13 14  1  0  0  0  0
 14 15  1  0  0  0  0
 16 15  1  0  0  0  0
 16 17  1  0  0  0  0
 13 17  1  0  0  0  0
 17 18  1  0  0  0  0
 18 19  1  0  0  0  0
 19 20  1  0  0  0  0
 12 20  1  0  0  0  0
 20 21  1  0  0  0  0
  9 21  1  0  0  0  0
  5 21  1  0  0  0  0
 13 22  1  6  0  0  0
 21 23  1  1  0  0  0
 12 24  1  1  0  0  0
  8 25  1  0  0  0  0
  8 26  1  0  0  0  0
 27 28  1  0  0  0  0
 28 29  1  0  0  0  0
 29 30  1  0  0  0  0
 30 31  1  0  0  0  0
 31 32  1  0  0  0  0
 27 32  1  0  0  0  0
 32 33  1  0  0  0  0
 32 34  1  0  0  0  0
 28 35  1  1  0  0  0
 31 36  1  6  0  0  0
 16 28  1  0  0  0  0
  7  4  1  1  0  0  0
  9 37  1  6  0  0  0
 20 38  1  6  0  0  0
 17 39  1  1  0  0  0
 16 40  1  6  0  0  0
M  END
>  <cdx:fragmentId>
227888

$$$$
