110685.cdx
  Mrv1902 05222410192D          

 11 11  0  0  0  0            999 V2000
    6.9725   -5.3987    0.0000 C   0  0  0  0  0  0  0  0  0  0  0  0
    7.3850   -4.6842    0.0000 C   0  0  0  0  0  0  0  0  0  0  0  0
    7.7975   -5.3987    0.0000 C   0  0  0  0  0  0  0  0  0  0  0  0
    6.2580   -5.8112    0.0000 C   0  0  0  0  0  0  0  0  0  0  0  0
    5.5436   -5.3987    0.0000 O   0  0  0  0  0  0  0  0  0  0  0  0
    8.5120   -5.8112    0.0000 C   0  0  0  0  0  0  0  0  0  0  0  0
    9.2264   -5.3987    0.0000 C   0  0  0  0  0  0  0  0  0  0  0  0
    9.2264   -4.5737    0.0000 C   0  0  0  0  0  0  0  0  0  0  0  0
    9.9409   -5.8112    0.0000 C   0  0  0  0  0  0  0  0  0  0  0  0
    6.9725   -3.9698    0.0000 C   0  0  0  0  0  0  0  0  0  0  0  0
    7.7975   -3.9698    0.0000 C   0  0  0  0  0  0  0  0  0  0  0  0
  1  2  1  0  0  0  0
  2  3  1  0  0  0  0
  1  3  1  0  0  0  0
  4  5  1  0  0  0  0
  1  4  1  0  0  0  0
  6  7  2  0  0  0  0
  7  8  1  0  0  0  0
  7  9  1  0  0  0  0
  3  6  1  0  0  0  0
  2 10  1  0  0  0  0
  2 11  1  0  0  0  0
M  END
>  <cdx:fragmentId>
5

$$$$
