110680.cdx
  Mrv1902 05222410182D          

 18 18  0  0  0  0            999 V2000
    2.1098   -5.3537    0.0000 C   0  0  0  0  0  0  0  0  0  0  0  0
    2.6618   -4.7406    0.0000 C   0  0  0  0  0  0  0  0  0  0  0  0
    3.4155   -5.0761    0.0000 C   0  0  0  0  0  0  0  0  0  0  0  0
    3.3293   -5.8966    0.0000 C   0  0  0  0  0  0  0  0  0  0  0  0
    2.5223   -6.0681    0.0000 C   0  0  0  0  0  0  0  0  0  0  0  0
    4.1300   -4.6636    0.0000 C   0  0  0  0  0  0  0  0  0  0  0  0
    4.8445   -5.0761    0.0000 C   0  0  0  0  0  0  0  0  0  0  0  0
    5.5589   -4.6636    0.0000 C   0  0  0  0  0  0  0  0  0  0  0  0
    6.2735   -5.0761    0.0000 C   0  0  0  0  0  0  0  0  0  0  0  0
    6.9879   -4.6636    0.0000 C   0  0  0  0  0  0  0  0  0  0  0  0
    7.7024   -5.0761    0.0000 C   0  0  0  0  0  0  0  0  0  0  0  0
    8.4169   -4.6636    0.0000 C   0  0  0  0  0  0  0  0  0  0  0  0
    9.1314   -5.0761    0.0000 C   0  0  0  0  0  0  0  0  0  0  0  0
    9.8458   -4.6636    0.0000 C   0  0  0  0  0  0  0  0  0  0  0  0
   10.5604   -5.0761    0.0000 C   0  0  0  0  0  0  0  0  0  0  0  0
   11.2748   -4.6636    0.0000 C   0  0  0  0  0  0  0  0  0  0  0  0
   11.2748   -3.8386    0.0000 O   0  0  0  0  0  0  0  0  0  0  0  0
   11.9893   -5.0761    0.0000 O   0  0  0  0  0  0  0  0  0  0  0  0
  1  2  1  0  0  0  0
  2  3  1  0  0  0  0
  3  4  1  0  0  0  0
  4  5  2  0  0  0  0
  1  5  1  0  0  0  0
  3  6  1  0  0  0  0
  6  7  1  0  0  0  0
  7  8  1  0  0  0  0
  8  9  1  0  0  0  0
  9 10  1  0  0  0  0
 10 11  1  0  0  0  0
 11 12  1  0  0  0  0
 12 13  1  0  0  0  0
 13 14  1  0  0  0  0
 14 15  1  0  0  0  0
 15 16  1  0  0  0  0
 16 17  2  0  0  0  0
 16 18  1  0  0  0  0
M  END
>  <cdx:fragmentId>
3

$$$$
