110629.cdx
  Mrv1902 05222410242D          

 11 11  0  0  0  0            999 V2000
    7.3099  -10.1183    0.0000 C   0  0  0  0  0  0  0  0  0  0  0  0
    6.5953   -9.7059    0.0000 C   0  0  0  0  0  0  0  0  0  0  0  0
    6.5952   -8.8809    0.0000 C   0  0  0  0  0  0  0  0  0  0  0  0
    7.3095   -8.4683    0.0000 C   0  0  0  0  0  0  0  0  0  0  0  0
    8.0241   -8.8806    0.0000 C   0  0  0  0  0  0  0  0  0  0  0  0
    8.0243   -9.7056    0.0000 C   0  0  0  0  0  0  0  0  0  0  0  0
    7.3100  -10.9433    0.0000 O   0  0  0  0  0  0  0  0  0  0  0  0
    7.3094   -7.6433    0.0000 C   0  0  0  0  0  0  0  0  0  0  0  0
    6.5948   -7.2309    0.0000 C   0  0  0  0  0  0  0  0  0  0  0  0
    5.8804   -7.6435    0.0000 C   0  0  0  0  0  0  0  0  0  0  0  0
    6.5947   -6.4059    0.0000 C   0  0  0  0  0  0  0  0  0  0  0  0
  1  2  1  0  0  0  0
  2  3  2  0  0  0  0
  3  4  1  0  0  0  0
  4  5  2  0  0  0  0
  5  6  1  0  0  0  0
  1  6  2  0  0  0  0
  1  7  1  0  0  0  0
  8  9  1  0  0  0  0
  9 10  2  0  0  0  0
  9 11  1  0  0  0  0
  4  8  1  0  0  0  0
M  END
>  <cdx:fragmentId>
5

$$$$
