11083.cdx
  Mrv1902 05222410272D          

 11 11  0  0  0  0            999 V2000
    4.8561   -3.3570    0.0000 C   0  0  0  0  0  0  0  0  0  0  0  0
    4.9424   -4.1775    0.0000 C   0  0  0  0  0  0  0  0  0  0  0  0
    4.1887   -4.5130    0.0000 C   0  0  0  0  0  0  0  0  0  0  0  0
    3.6367   -3.9000    0.0000 C   0  0  0  0  0  0  0  0  0  0  0  0
    4.0492   -3.1855    0.0000 C   0  0  0  0  0  0  0  0  0  0  0  0
    5.4692   -2.8050    0.0000 O   0  0  0  0  0  0  0  0  0  0  0  0
    5.6568   -4.5900    0.0000 C   0  0  0  0  0  0  0  0  0  0  0  0
    6.3713   -4.1775    0.0000 C   0  0  0  0  0  0  0  0  0  0  0  0
    7.0858   -4.5900    0.0000 C   0  0  0  0  0  0  0  0  0  0  0  0
    4.0172   -5.3200    0.0000 C   0  0  0  0  0  0  0  0  0  0  0  0
    2.8162   -3.9862    0.0000 O   0  0  0  0  0  0  0  0  0  0  0  0
  1  2  1  0  0  0  0
  2  3  2  0  0  0  0
  3  4  1  0  0  0  0
  4  5  1  0  0  0  0
  1  5  1  0  0  0  0
  1  6  2  0  0  0  0
  7  8  1  0  0  0  0
  8  9  2  0  0  0  0
  2  7  1  0  0  0  0
  3 10  1  0  0  0  0
  4 11  1  0  0  0  0
M  END
>  <cdx:groupId>
35

>  <cdx:fragmentId>
5

$$$$
