110801.cdx
  Mrv1902 05222410222D          

 17 18  0  0  0  0            999 V2000
    4.9431   -4.9167    0.0000 C   0  0  0  0  0  0  0  0  0  0  0  0
    4.2286   -5.3292    0.0000 C   0  0  0  0  0  0  0  0  0  0  0  0
    3.5141   -4.9167    0.0000 C   0  0  0  0  0  0  0  0  0  0  0  0
    2.7997   -5.3292    0.0000 C   0  0  0  0  0  0  0  0  0  0  0  0
    2.0852   -4.9167    0.0000 C   0  0  0  0  0  0  0  0  0  0  0  0
    4.9431   -4.0917    0.0000 O   0  0  0  0  0  0  0  0  0  0  0  0
    5.6575   -5.3292    0.0000 O   0  0  0  0  0  0  0  0  0  0  0  0
    6.3720   -4.9167    0.0000 C   0  0  0  0  0  0  0  0  0  0  0  0
    6.3720   -4.0917    0.0000 C   0  0  0  0  0  0  0  0  0  0  0  0
    7.0865   -3.6792    0.0000 C   0  0  0  0  0  0  0  0  0  0  0  0
    7.8010   -4.0917    0.0000 C   0  0  0  0  0  0  0  0  0  0  0  0
    7.8010   -4.9167    0.0000 C   0  0  0  0  0  0  0  0  0  0  0  0
    7.0865   -5.3292    0.0000 C   0  0  0  0  0  0  0  0  0  0  0  0
    7.4221   -4.5038    0.0000 C   0  0  0  0  0  0  0  0  0  0  0  0
    8.1366   -4.9163    0.0000 C   0  0  0  0  0  0  0  0  0  0  0  0
    8.1366   -4.0913    0.0000 C   0  0  0  0  0  0  0  0  0  0  0  0
    7.0865   -6.1542    0.0000 C   0  0  0  0  0  0  0  0  0  0  0  0
  1  2  1  0  0  0  0
  2  3  1  0  0  0  0
  3  4  1  0  0  0  0
  4  5  1  0  0  0  0
  1  6  2  0  0  0  0
  1  7  1  0  0  0  0
  8  9  1  0  0  0  0
  9 10  1  0  0  0  0
 10 11  1  0  0  0  0
 11 12  1  0  0  0  0
 12 13  1  0  0  0  0
  8 13  1  0  0  0  0
 13 14  1  0  0  0  0
 10 14  1  0  0  0  0
 14 15  1  0  0  0  0
 14 16  1  0  0  0  0
 13 17  1  0  0  0  0
  7  8  1  0  0  0  0
M  END
>  <cdx:groupId>
54

>  <cdx:fragmentId>
19

$$$$
