11092.cdx
  Mrv1902 05222410272D          

 12 12  0  0  0  0            999 V2000
    5.8179   -2.7921    0.0000 C   0  0  0  0  0  0  0  0  0  0  0  0
    6.5324   -3.2046    0.0000 C   0  0  0  0  0  0  0  0  0  0  0  0
    5.1035   -3.2046    0.0000 C   0  0  0  0  0  0  0  0  0  0  0  0
    5.1035   -4.0296    0.0000 C   0  0  0  0  0  0  0  0  0  0  0  0
    4.3890   -4.4421    0.0000 C   0  0  0  0  0  0  0  0  0  0  0  0
    3.6745   -4.0296    0.0000 C   0  0  0  0  0  0  0  0  0  0  0  0
    3.6745   -3.2046    0.0000 C   0  0  0  0  0  0  0  0  0  0  0  0
    4.3890   -2.7921    0.0000 C   0  0  0  0  0  0  0  0  0  0  0  0
    2.9601   -4.4421    0.0000 O   0  0  0  0  0  0  0  0  0  0  0  0
    2.2456   -4.0296    0.0000 C   0  0  0  0  0  0  0  0  0  0  0  0
    5.8179   -4.4421    0.0000 O   0  0  0  0  0  0  0  0  0  0  0  0
    5.8179   -1.9671    0.0000 O   0  0  0  0  0  0  0  0  0  0  0  0
  1  2  1  0  0  0  0
  3  4  1  0  0  0  0
  4  5  2  0  0  0  0
  5  6  1  0  0  0  0
  6  7  2  0  0  0  0
  7  8  1  0  0  0  0
  3  8  2  0  0  0  0
  9 10  1  0  0  0  0
  6  9  1  0  0  0  0
  4 11  1  0  0  0  0
  1  3  1  0  0  0  0
  1 12  2  0  0  0  0
M  END
>  <cdx:groupId>
38

>  <cdx:fragmentId>
9

$$$$
