110998.cdx
  Mrv1902 05222410212D          

  9  9  0  0  0  0            999 V2000
    7.2773   -4.9688    0.0000 C   0  0  0  0  0  0  0  0  0  0  0  0
    7.9912   -5.3823    0.0000 C   0  0  0  0  0  0  0  0  0  0  0  0
    7.9900   -6.2073    0.0000 C   0  0  0  0  0  0  0  0  0  0  0  0
    7.2749   -6.6188    0.0000 C   0  0  0  0  0  0  0  0  0  0  0  0
    6.5610   -6.2052    0.0000 C   0  0  0  0  0  0  0  0  0  0  0  0
    6.5623   -5.3802    0.0000 C   0  0  0  0  0  0  0  0  0  0  0  0
    7.2786   -4.1438    0.0000 O   0  0  0  0  0  0  0  0  0  0  0  0
    8.7063   -4.9709    0.0000 O   0  0  0  0  0  0  0  0  0  0  0  0
    8.7075   -4.1459    0.0000 C   0  0  0  0  0  0  0  0  0  0  0  0
  1  2  1  0  0  0  0
  2  3  1  0  0  0  0
  3  4  1  0  0  0  0
  4  5  1  0  0  0  0
  5  6  1  0  0  0  0
  1  6  1  0  0  0  0
  1  7  2  0  0  0  0
  8  9  1  0  0  0  0
  2  8  1  0  0  0  0
M  END
>  <cdx:fragmentId>
5

$$$$
