1110.cdx
  Mrv1902 05222410282D          

  8  7  0  0  0  0            999 V2000
    8.1772  -13.8099    0.0000 C   0  0  0  0  0  0  0  0  0  0  0  0
    8.8917  -13.3974    0.0000 C   0  0  0  0  0  0  0  0  0  0  0  0
    9.6061  -13.8099    0.0000 C   0  0  0  0  0  0  0  0  0  0  0  0
   10.3206  -13.3974    0.0000 C   0  0  0  0  0  0  0  0  0  0  0  0
    8.1772  -14.6349    0.0000 O   0  0  0  0  0  0  0  0  0  0  0  0
    7.4627  -13.3974    0.0000 O   0  0  0  0  0  0  0  0  0  0  0  0
   10.3206  -12.5724    0.0000 O   0  0  0  0  0  0  0  0  0  0  0  0
   11.0351  -13.8099    0.0000 O   0  0  0  0  0  0  0  0  0  0  0  0
  1  2  1  0  0  0  0
  2  3  1  0  0  0  0
  3  4  1  0  0  0  0
  1  5  2  0  0  0  0
  1  6  1  0  0  0  0
  4  7  2  0  0  0  0
  4  8  1  0  0  0  0
M  END
>  <cdx:fragmentId>
11958

$$$$
