1111.cdx
  Mrv1902 05222410282D          

 12 12  0  0  0  0            999 V2000
    4.9808   -3.5544    0.0000 C   0  0  0  0  0  0  0  0  0  0  0  0
    4.9808   -4.3794    0.0000 C   0  0  0  0  0  0  0  0  0  0  0  0
    5.6952   -4.7919    0.0000 C   0  0  0  0  0  0  0  0  0  0  0  0
    6.4097   -4.3794    0.0000 C   0  0  0  0  0  0  0  0  0  0  0  0
    6.4097   -3.5544    0.0000 C   0  0  0  0  0  0  0  0  0  0  0  0
    5.6952   -3.1419    0.0000 C   0  0  0  0  0  0  0  0  0  0  0  0
    7.1242   -3.1419    0.0000 C   0  0  0  0  0  0  0  0  0  0  0  0
    7.8387   -3.5544    0.0000 C   0  0  0  0  0  0  0  0  0  0  0  0
    7.8387   -4.3794    0.0000 C   0  0  0  0  0  0  0  0  0  0  0  0
    8.5531   -4.7919    0.0000 O   0  0  0  0  0  0  0  0  0  0  0  0
    4.2663   -4.7919    0.0000 O   0  0  0  0  0  0  0  0  0  0  0  0
    7.1242   -4.7919    0.0000 O   0  0  0  0  0  0  0  0  0  0  0  0
  1  2  2  0  0  0  0
  2  3  1  0  0  0  0
  3  4  2  0  0  0  0
  4  5  1  0  0  0  0
  5  6  2  0  0  0  0
  6  1  1  0  0  0  0
  5  7  1  0  0  0  0
  8  9  1  0  0  0  0
  9 10  1  0  0  0  0
  2 11  1  0  0  0  0
  9 12  2  0  0  0  0
  7  8  2  0  0  0  0
M  END
>  <cdx:fragmentId>
6

$$$$
