1112.cdx
  Mrv1902 05222410272D          

 33 36  0  0  0  0            999 V2000
    6.3234   -7.4800    0.0000 C   0  0  0  0  0  0  0  0  0  0  0  0
    6.3234   -8.3050    0.0000 C   0  0  0  0  0  0  0  0  0  0  0  0
    5.6089   -8.7175    0.0000 C   0  0  0  0  0  0  0  0  0  0  0  0
    4.8945   -8.3050    0.0000 C   0  0  0  0  0  0  0  0  0  0  0  0
    4.8945   -7.4800    0.0000 C   0  0  0  0  0  0  0  0  0  0  0  0
    5.6089   -7.0675    0.0000 C   0  0  0  0  0  0  0  0  0  0  0  0
    5.6089   -6.2425    0.0000 C   0  0  0  0  0  0  0  0  0  0  0  0
    4.8945   -5.8300    0.0000 C   0  0  0  0  0  0  0  0  0  0  0  0
    4.8945   -5.0050    0.0000 C   0  0  0  0  0  0  0  0  0  0  0  0
    5.6089   -4.5925    0.0000 O   0  0  0  0  0  0  0  0  0  0  0  0
    4.1800   -4.5925    0.0000 O   0  0  0  0  0  0  0  0  0  0  0  0
    6.3234   -5.0050    0.0000 C   0  0  0  0  0  0  0  0  0  0  0  0
    6.3234   -5.8300    0.0000 C   0  0  0  0  0  0  0  0  0  0  0  0
    7.0379   -6.2425    0.0000 C   0  0  0  0  0  0  0  0  0  0  0  0
    7.7524   -5.8300    0.0000 C   0  0  0  0  0  0  0  0  0  0  0  0
    7.7524   -5.0050    0.0000 C   0  0  0  0  0  0  0  0  0  0  0  0
    7.0379   -4.5925    0.0000 C   0  0  0  0  0  0  0  0  0  0  0  0
    8.4668   -6.2425    0.0000 C   0  0  0  0  0  0  0  0  0  0  0  0
    9.1813   -5.8300    0.0000 C   0  0  0  0  0  0  0  0  0  0  0  0
    9.8958   -6.2425    0.0000 C   0  0  0  0  0  0  0  0  0  0  0  0
   10.6102   -5.8300    0.0000 O   0  0  0  0  0  0  0  0  0  0  0  0
    9.8958   -7.0675    0.0000 O   0  0  0  0  0  0  0  0  0  0  0  0
    9.1813   -7.4800    0.0000 C   0  0  0  0  0  0  0  0  0  0  0  0
    8.4668   -7.0675    0.0000 C   0  0  0  0  0  0  0  0  0  0  0  0
    7.7524   -7.4800    0.0000 C   0  0  0  0  0  0  0  0  0  0  0  0
    7.7524   -8.3050    0.0000 C   0  0  0  0  0  0  0  0  0  0  0  0
    8.4668   -8.7175    0.0000 C   0  0  0  0  0  0  0  0  0  0  0  0
    9.1813   -8.3050    0.0000 C   0  0  0  0  0  0  0  0  0  0  0  0
    7.0379   -8.7175    0.0000 C   0  0  0  0  0  0  0  0  0  0  0  0
    7.0379   -9.5425    0.0000 C   0  0  0  0  0  0  0  0  0  0  0  0
    6.3234   -9.9550    0.0000 C   0  0  0  0  0  0  0  0  0  0  0  0
    5.6089   -9.5425    0.0000 O   0  0  0  0  0  0  0  0  0  0  0  0
    6.3234  -10.7800    0.0000 O   0  0  0  0  0  0  0  0  0  0  0  0
  1  2  2  0  0  0  0
  2  3  1  0  0  0  0
  3  4  2  0  0  0  0
  4  5  1  0  0  0  0
  5  6  2  0  0  0  0
  6  1  1  0  0  0  0
  6  7  1  0  0  0  0
  7  8  2  0  0  0  0
  8  9  1  0  0  0  0
  9 10  1  0  0  0  0
  9 11  2  0  0  0  0
 10 12  1  0  0  0  0
 12 13  2  0  0  0  0
 13 14  1  0  0  0  0
 14 15  2  0  0  0  0
 15 16  1  0  0  0  0
 16 17  2  0  0  0  0
 17 12  1  0  0  0  0
 15 18  1  0  0  0  0
 18 19  1  0  0  0  0
 19 20  1  0  0  0  0
 20 21  2  0  0  0  0
 20 22  1  0  0  0  0
 22 23  1  0  0  0  0
 23 24  2  0  0  0  0
 24 25  1  0  0  0  0
 25 26  2  0  0  0  0
 26 27  1  0  0  0  0
 27 28  2  0  0  0  0
 28 23  1  0  0  0  0
 26 29  1  0  0  0  0
 29 30  1  0  0  0  0
 30 31  1  0  0  0  0
 31 32  1  0  0  0  0
 31 33  2  0  0  0  0
 32  3  1  0  0  0  0
M  END
>  <cdx:fragmentId>
102

$$$$
