111299.cdx
  Mrv1902 05222410212D          

 21 21  0  0  0  0            999 V2000
    5.1288   -3.5041    0.0000 N   0  0  0  0  0  0  0  0  0  0  0  0
   10.1353   -4.7202    0.0000 O   0  0  0  0  0  0  0  0  0  0  0  0
    9.4156   -3.4858    0.0000 O   0  0  0  0  0  0  0  0  0  0  0  0
    9.4191   -4.3107    0.0000 C   0  0  0  0  0  0  0  0  0  0  0  0
   10.1389   -5.5452    0.0000 C   0  0  0  0  0  0  0  0  0  0  0  0
   10.8551   -5.9546    0.0000 C   0  0  0  0  0  0  0  0  0  0  0  0
   10.8586   -6.7796    0.0000 C   0  0  0  0  0  0  0  0  0  0  0  0
   10.1459   -7.1952    0.0000 C   0  0  0  0  0  0  0  0  0  0  0  0
    9.4297   -6.7857    0.0000 C   0  0  0  0  0  0  0  0  0  0  0  0
    9.4262   -5.9607    0.0000 C   0  0  0  0  0  0  0  0  0  0  0  0
    8.7099   -5.5513    0.0000 C   0  0  0  0  0  0  0  0  0  0  0  0
    8.7064   -4.7263    0.0000 C   0  0  2  0  0  0  0  0  0  0  0  0
    7.9902   -4.3169    0.0000 N   0  0  0  0  0  0  0  0  0  0  0  0
    7.2810   -5.5574    0.0000 O   0  0  0  0  0  0  0  0  0  0  0  0
    3.7034   -4.3353    0.0000 O   0  0  0  0  0  0  0  0  0  0  0  0
    4.4232   -5.5697    0.0000 O   0  0  0  0  0  0  0  0  0  0  0  0
    7.2775   -4.7324    0.0000 C   0  0  0  0  0  0  0  0  0  0  0  0
    6.5612   -4.3230    0.0000 C   0  0  0  0  0  0  0  0  0  0  0  0
    5.8485   -4.7386    0.0000 C   0  0  0  0  0  0  0  0  0  0  0  0
    5.1323   -4.3291    0.0000 C   0  0  1  0  0  0  0  0  0  0  0  0
    4.4196   -4.7447    0.0000 C   0  0  0  0  0  0  0  0  0  0  0  0
 20  1  1  1  0  0  0
 17 13  1  0  0  0  0
 12 13  1  6  0  0  0
 12  4  1  0  0  0  0
  4  2  1  0  0  0  0
  4  3  2  0  0  0  0
 11 10  1  0  0  0  0
 10  5  2  0  0  0  0
  6  5  1  0  0  0  0
  7  6  2  0  0  0  0
  8  7  1  0  0  0  0
  9  8  2  0  0  0  0
 10  9  1  0  0  0  0
 12 11  1  0  0  0  0
 17 14  2  0  0  0  0
 21 15  1  0  0  0  0
 21 16  2  0  0  0  0
 18 17  1  0  0  0  0
 19 18  1  0  0  0  0
 20 19  1  0  0  0  0
 21 20  1  0  0  0  0
M  END
>  <cdx:fragmentId>
27

$$$$
