1113.cdx
  Mrv1902 05222410272D          

 40 44  0  0  0  0            999 V2000
    8.0911   -8.7177    0.0000 O   0  0  0  0  0  0  0  0  0  0  0  0
    6.8215   -7.4802    0.0000 O   0  0  0  0  0  0  0  0  0  0  0  0
    7.3064   -6.8128    0.0000 C   0  0  0  0  0  0  0  0  0  0  0  0
    8.0911   -7.0677    0.0000 C   0  0  1  0  0  0  0  0  0  0  0  0
    8.0911   -7.8927    0.0000 C   0  0  2  0  0  0  0  0  0  0  0  0
    7.3064   -8.1476    0.0000 C   0  0  1  0  0  0  0  0  0  0  0  0
    9.3606   -7.4802    0.0000 O   0  0  0  0  0  0  0  0  0  0  0  0
    8.8757   -6.8128    0.0000 C   0  0  2  0  0  0  0  0  0  0  0  0
    8.8757   -8.1476    0.0000 C   0  0  0  0  0  0  0  0  0  0  0  0
    9.1306   -6.0281    0.0000 C   0  0  0  0  0  0  0  0  0  0  0  0
    9.9376   -5.8566    0.0000 C   0  0  0  0  0  0  0  0  0  0  0  0
   10.1925   -5.0720    0.0000 C   0  0  0  0  0  0  0  0  0  0  0  0
    9.6405   -4.4589    0.0000 C   0  0  0  0  0  0  0  0  0  0  0  0
    8.8335   -4.6304    0.0000 C   0  0  0  0  0  0  0  0  0  0  0  0
    8.5786   -5.4150    0.0000 C   0  0  0  0  0  0  0  0  0  0  0  0
   10.9995   -4.9005    0.0000 O   0  0  0  0  0  0  0  0  0  0  0  0
   11.5515   -5.5135    0.0000 C   0  0  0  0  0  0  0  0  0  0  0  0
    9.8954   -3.6743    0.0000 O   0  0  0  0  0  0  0  0  0  0  0  0
    7.0515   -8.9323    0.0000 C   0  0  0  0  0  0  0  0  0  0  0  0
    6.2445   -9.1038    0.0000 C   0  0  0  0  0  0  0  0  0  0  0  0
    5.9896   -9.8884    0.0000 C   0  0  0  0  0  0  0  0  0  0  0  0
    6.5416  -10.5015    0.0000 C   0  0  0  0  0  0  0  0  0  0  0  0
    7.3486  -10.3300    0.0000 C   0  0  0  0  0  0  0  0  0  0  0  0
    7.6035   -9.5453    0.0000 C   0  0  0  0  0  0  0  0  0  0  0  0
    5.1826  -10.0599    0.0000 O   0  0  0  0  0  0  0  0  0  0  0  0
    4.5993   -9.4766    0.0000 C   0  0  0  0  0  0  0  0  0  0  0  0
    6.2867  -11.2861    0.0000 O   0  0  0  0  0  0  0  0  0  0  0  0
    8.0911   -6.2427    0.0000 H   0  0  0  0  0  0  0  0  0  0  0  0
    4.1437  -11.7012    0.0000 C   0  0  2  0  0  0  0  0  0  0  0  0
    4.1437  -12.5263    0.0000 C   0  0  2  0  0  0  0  0  0  0  0  0
    4.8581  -12.9388    0.0000 C   0  0  1  0  0  0  0  0  0  0  0  0
    5.5726  -12.5263    0.0000 C   0  0  2  0  0  0  0  0  0  0  0  0
    5.5726  -11.7012    0.0000 C   0  0  1  0  0  0  0  0  0  0  0  0
    4.8581  -11.2888    0.0000 O   0  0  0  0  0  0  0  0  0  0  0  0
    3.4292  -11.2888    0.0000 C   0  0  0  0  0  0  0  0  0  0  0  0
    4.8581  -13.7637    0.0000 O   0  0  0  0  0  0  0  0  0  0  0  0
    3.4292  -12.9388    0.0000 O   0  0  0  0  0  0  0  0  0  0  0  0
    6.2871  -12.9388    0.0000 O   0  0  0  0  0  0  0  0  0  0  0  0
    2.7147  -11.7012    0.0000 O   0  0  0  0  0  0  0  0  0  0  0  0
    9.3434   -3.0612    0.0000 C   0  0  0  0  0  0  0  0  0  0  0  0
  2  3  1  0  0  0  0
  3  4  1  0  0  0  0
  4  5  1  0  0  0  0
  5  6  1  0  0  0  0
  2  6  1  0  0  0  0
  7  8  1  0  0  0  0
  7  9  1  0  0  0  0
  8  4  1  0  0  0  0
  9  5  1  0  0  0  0
 10 11  1  0  0  0  0
 11 12  2  0  0  0  0
 12 13  1  0  0  0  0
 13 14  2  0  0  0  0
 14 15  1  0  0  0  0
 10 15  2  0  0  0  0
 16 17  1  0  0  0  0
 12 16  1  0  0  0  0
 13 18  1  0  0  0  0
  8 10  1  1  0  0  0
 19 20  1  0  0  0  0
 20 21  2  0  0  0  0
 21 22  1  0  0  0  0
 22 23  2  0  0  0  0
 23 24  1  0  0  0  0
 19 24  2  0  0  0  0
 25 26  1  0  0  0  0
 21 25  1  0  0  0  0
 22 27  1  0  0  0  0
  6 19  1  1  0  0  0
  5  1  1  1  0  0  0
  4 28  1  1  0  0  0
 29 30  1  0  0  0  0
 30 31  1  0  0  0  0
 31 32  1  0  0  0  0
 32 33  1  0  0  0  0
 33 34  1  0  0  0  0
 34 29  1  0  0  0  0
 29 35  1  1  0  0  0
 31 36  1  1  0  0  0
 30 37  1  6  0  0  0
 32 38  1  6  0  0  0
 35 39  1  0  0  0  0
 33 27  1  1  0  0  0
 18 40  1  0  0  0  0
M  END
>  <cdx:fragmentId>
45

$$$$
