11142.cdx
  Mrv1902 05222410252D          

 10 10  0  0  0  0            999 V2000
    7.4435   -4.2290    0.0000 C   0  0  0  0  0  0  0  0  0  0  0  0
    7.4591   -5.0539    0.0000 C   0  0  0  0  0  0  0  0  0  0  0  0
    6.7525   -5.4798    0.0000 C   0  0  0  0  0  0  0  0  0  0  0  0
    6.0304   -5.0809    0.0000 C   0  0  0  0  0  0  0  0  0  0  0  0
    6.0148   -4.2560    0.0000 C   0  0  0  0  0  0  0  0  0  0  0  0
    6.7213   -3.8301    0.0000 C   0  0  0  0  0  0  0  0  0  0  0  0
    6.7058   -3.0053    0.0000 C   0  0  0  0  0  0  0  0  0  0  0  0
    7.4123   -2.5793    0.0000 C   0  0  0  0  0  0  0  0  0  0  0  0
    5.9836   -2.6063    0.0000 C   0  0  0  0  0  0  0  0  0  0  0  0
    6.7681   -6.3047    0.0000 C   0  0  0  0  0  0  0  0  0  0  0  0
  1  2  2  0  0  0  0
  2  3  1  0  0  0  0
  3  4  1  0  0  0  0
  4  5  1  0  0  0  0
  5  6  1  0  0  0  0
  1  6  1  0  0  0  0
  7  8  1  0  0  0  0
  7  9  1  0  0  0  0
  6  7  1  0  0  0  0
  3 10  2  0  0  0  0
M  END
>  <cdx:fragmentId>
5

$$$$
