11111496.cdx
  Mrv1902 05222410232D          

 27 29  0  0  0  0            999 V2000
    7.6007  -11.1369    0.0000 C   0  0  2  0  0  0  0  0  0  0  0  0
    7.6007  -10.3119    0.0000 C   0  0  0  0  0  0  0  0  0  0  0  0
    6.8863   -9.8994    0.0000 C   0  0  0  0  0  0  0  0  0  0  0  0
    6.1718  -10.3119    0.0000 C   0  0  0  0  0  0  0  0  0  0  0  0
    5.4573   -9.8994    0.0000 C   0  0  0  0  0  0  0  0  0  0  0  0
    4.7429  -10.3119    0.0000 C   0  0  0  0  0  0  0  0  0  0  0  0
    4.7429  -11.1369    0.0000 C   0  0  0  0  0  0  0  0  0  0  0  0
    5.4573  -11.5494    0.0000 C   0  0  0  0  0  0  0  0  0  0  0  0
    6.1718  -11.1369    0.0000 C   0  0  0  0  0  0  0  0  0  0  0  0
    6.8863  -11.5494    0.0000 O   0  0  0  0  0  0  0  0  0  0  0  0
    6.8863   -9.0744    0.0000 O   0  0  0  0  0  0  0  0  0  0  0  0
    5.4573  -12.3744    0.0000 C   0  0  0  0  0  0  0  0  0  0  0  0
    4.7429  -12.7869    0.0000 C   0  0  0  0  0  0  0  0  0  0  0  0
    4.7429  -13.6119    0.0000 C   0  0  0  0  0  0  0  0  0  0  0  0
    4.0284  -14.0244    0.0000 C   0  0  0  0  0  0  0  0  0  0  0  0
    5.4573  -14.0244    0.0000 C   0  0  0  0  0  0  0  0  0  0  0  0
    4.0284  -14.8494    0.0000 O   0  0  0  0  0  0  0  0  0  0  0  0
    4.0284  -11.5494    0.0000 O   0  0  0  0  0  0  0  0  0  0  0  0
    5.4573   -9.0744    0.0000 O   0  0  0  0  0  0  0  0  0  0  0  0
    8.3152  -11.5494    0.0000 C   0  0  0  0  0  0  0  0  0  0  0  0
    9.0297  -11.1369    0.0000 C   0  0  0  0  0  0  0  0  0  0  0  0
    9.7441  -11.5494    0.0000 C   0  0  0  0  0  0  0  0  0  0  0  0
    9.7441  -12.3744    0.0000 C   0  0  0  0  0  0  0  0  0  0  0  0
    9.0297  -12.7869    0.0000 C   0  0  0  0  0  0  0  0  0  0  0  0
    8.3152  -12.3744    0.0000 C   0  0  0  0  0  0  0  0  0  0  0  0
   10.4586  -12.7869    0.0000 O   0  0  0  0  0  0  0  0  0  0  0  0
   10.4586  -11.1369    0.0000 O   0  0  0  0  0  0  0  0  0  0  0  0
  1  2  1  0  0  0  0
  2  3  1  0  0  0  0
  3  4  1  0  0  0  0
  4  5  1  0  0  0  0
  5  6  2  0  0  0  0
  6  7  1  0  0  0  0
  7  8  2  0  0  0  0
  8  9  1  0  0  0  0
  4  9  2  0  0  0  0
  9 10  1  0  0  0  0
  1 10  1  0  0  0  0
  3 11  2  0  0  0  0
 12 13  1  0  0  0  0
 13 14  2  0  0  0  0
 14 15  1  0  0  0  0
 14 16  1  0  0  0  0
 15 17  1  0  0  0  0
  8 12  1  0  0  0  0
  7 18  1  0  0  0  0
  5 19  1  0  0  0  0
 20 21  1  0  0  0  0
 21 22  2  0  0  0  0
 22 23  1  0  0  0  0
 23 24  2  0  0  0  0
 24 25  1  0  0  0  0
 20 25  2  0  0  0  0
 23 26  1  0  0  0  0
 22 27  1  0  0  0  0
  1 20  1  1  0  0  0
M  END
>  <cdx:fragmentId>
66556

$$$$
