111446.cdx
  Mrv1902 05222410252D          

 16 19  0  0  0  0            999 V2000
    4.3715   -2.7646    0.0000 C   0  0  0  0  0  0  0  0  0  0  0  0
    4.3715   -1.9396    0.0000 O   0  0  0  0  0  0  0  0  0  0  0  0
    5.0860   -2.3521    0.0000 C   0  0  0  0  0  0  0  0  0  0  0  0
    5.8005   -2.7646    0.0000 C   0  0  0  0  0  0  0  0  0  0  0  0
    5.8005   -3.5896    0.0000 C   0  0  0  0  0  0  0  0  0  0  0  0
    5.0860   -4.0021    0.0000 C   0  0  0  0  0  0  0  0  0  0  0  0
    4.3715   -3.5896    0.0000 C   0  0  0  0  0  0  0  0  0  0  0  0
    3.6571   -4.0021    0.0000 C   0  0  0  0  0  0  0  0  0  0  0  0
    2.9426   -4.4146    0.0000 C   0  0  0  0  0  0  0  0  0  0  0  0
    2.9426   -3.5896    0.0000 C   0  0  0  0  0  0  0  0  0  0  0  0
    2.9426   -2.7646    0.0000 C   0  0  0  0  0  0  0  0  0  0  0  0
    3.6571   -2.3521    0.0000 C   0  0  0  0  0  0  0  0  0  0  0  0
    2.9426   -5.2396    0.0000 C   0  0  0  0  0  0  0  0  0  0  0  0
    2.2281   -4.8271    0.0000 C   0  0  0  0  0  0  0  0  0  0  0  0
    4.3715   -4.4146    0.0000 C   0  0  0  0  0  0  0  0  0  0  0  0
    5.0860   -4.8271    0.0000 C   0  0  0  0  0  0  0  0  0  0  0  0
  1  2  1  0  0  0  0
  2  3  1  0  0  0  0
  3  4  1  0  0  0  0
  4  5  1  0  0  0  0
  5  6  1  0  0  0  0
  6  7  1  0  0  0  0
  7  8  1  0  0  0  0
  8  9  1  0  0  0  0
  9 10  1  0  0  0  0
 10 11  1  0  0  0  0
 11 12  1  0  0  0  0
  1 12  1  0  0  0  0
  1  7  1  0  0  0  0
  8 10  1  0  0  0  0
  1  3  1  0  0  0  0
  9 13  1  0  0  0  0
  9 14  1  0  0  0  0
  7 15  1  0  0  0  0
  6 16  1  0  0  0  0
M  END
>  <cdx:groupId>
53

>  <cdx:fragmentId>
5

$$$$
