11148.cdx
  Mrv1902 05222410222D          

 51 50  0  0  0  0            999 V2000
   13.5729   -3.9883    0.0000 O   0  0  0  0  0  0  0  0  0  0  0  0
   12.8585   -4.4008    0.0000 C   0  0  0  0  0  0  0  0  0  0  0  0
   12.1440   -3.9883    0.0000 C   0  0  0  0  0  0  0  0  0  0  0  0
   12.1440   -3.1633    0.0000 O   0  0  0  0  0  0  0  0  0  0  0  0
   11.4295   -4.4008    0.0000 C   0  0  0  0  0  0  0  0  0  0  0  0
   10.7151   -3.9883    0.0000 O   0  0  0  0  0  0  0  0  0  0  0  0
   14.2874   -4.4008    0.0000 C   0  0  0  0  0  0  0  0  0  0  0  0
   15.0019   -3.9883    0.0000 C   0  0  0  0  0  0  0  0  0  0  0  0
   15.7164   -4.4008    0.0000 C   0  0  0  0  0  0  0  0  0  0  0  0
   16.4308   -3.9883    0.0000 C   0  0  0  0  0  0  0  0  0  0  0  0
   17.1453   -4.4008    0.0000 C   0  0  0  0  0  0  0  0  0  0  0  0
   17.8598   -3.9883    0.0000 C   0  0  0  0  0  0  0  0  0  0  0  0
   18.5742   -4.4008    0.0000 C   0  0  0  0  0  0  0  0  0  0  0  0
   19.2887   -3.9883    0.0000 C   0  0  0  0  0  0  0  0  0  0  0  0
   20.0032   -4.4008    0.0000 C   0  0  0  0  0  0  0  0  0  0  0  0
   20.7177   -3.9883    0.0000 C   0  0  0  0  0  0  0  0  0  0  0  0
   21.4321   -4.4008    0.0000 C   0  0  0  0  0  0  0  0  0  0  0  0
   22.1466   -3.9883    0.0000 C   0  0  0  0  0  0  0  0  0  0  0  0
   22.8611   -4.4008    0.0000 C   0  0  0  0  0  0  0  0  0  0  0  0
   23.5755   -3.9883    0.0000 C   0  0  0  0  0  0  0  0  0  0  0  0
   14.2874   -5.2258    0.0000 O   0  0  0  0  0  0  0  0  0  0  0  0
   11.4295   -2.7508    0.0000 C   0  0  0  0  0  0  0  0  0  0  0  0
   10.7151   -3.1633    0.0000 C   0  0  0  0  0  0  0  0  0  0  0  0
   10.0006   -2.7508    0.0000 C   0  0  0  0  0  0  0  0  0  0  0  0
    9.2861   -3.1633    0.0000 C   0  0  0  0  0  0  0  0  0  0  0  0
    8.5716   -2.7508    0.0000 C   0  0  0  0  0  0  0  0  0  0  0  0
    7.8572   -3.1633    0.0000 C   0  0  0  0  0  0  0  0  0  0  0  0
    7.1427   -2.7508    0.0000 C   0  0  0  0  0  0  0  0  0  0  0  0
    6.4282   -3.1633    0.0000 C   0  0  0  0  0  0  0  0  0  0  0  0
    5.7138   -2.7508    0.0000 C   0  0  0  0  0  0  0  0  0  0  0  0
    4.9993   -3.1633    0.0000 C   0  0  0  0  0  0  0  0  0  0  0  0
    4.2848   -2.7508    0.0000 C   0  0  0  0  0  0  0  0  0  0  0  0
    3.5703   -3.1633    0.0000 C   0  0  0  0  0  0  0  0  0  0  0  0
    2.8559   -2.7508    0.0000 C   0  0  0  0  0  0  0  0  0  0  0  0
    2.1414   -3.1633    0.0000 C   0  0  0  0  0  0  0  0  0  0  0  0
   11.4295   -1.9258    0.0000 O   0  0  0  0  0  0  0  0  0  0  0  0
   10.0006   -4.4008    0.0000 C   0  0  0  0  0  0  0  0  0  0  0  0
    9.2861   -3.9883    0.0000 C   0  0  0  0  0  0  0  0  0  0  0  0
    8.5716   -4.4008    0.0000 C   0  0  0  0  0  0  0  0  0  0  0  0
    7.8572   -3.9883    0.0000 C   0  0  0  0  0  0  0  0  0  0  0  0
    7.1427   -4.4008    0.0000 C   0  0  0  0  0  0  0  0  0  0  0  0
    6.4282   -3.9883    0.0000 C   0  0  0  0  0  0  0  0  0  0  0  0
    5.7138   -4.4008    0.0000 C   0  0  0  0  0  0  0  0  0  0  0  0
    4.9993   -3.9883    0.0000 C   0  0  0  0  0  0  0  0  0  0  0  0
    4.2848   -4.4008    0.0000 C   0  0  0  0  0  0  0  0  0  0  0  0
    3.5703   -3.9883    0.0000 C   0  0  0  0  0  0  0  0  0  0  0  0
    2.8559   -4.4008    0.0000 C   0  0  0  0  0  0  0  0  0  0  0  0
    2.1414   -3.9883    0.0000 C   0  0  0  0  0  0  0  0  0  0  0  0
    1.4269   -4.4008    0.0000 C   0  0  0  0  0  0  0  0  0  0  0  0
    0.7125   -3.9883    0.0000 C   0  0  0  0  0  0  0  0  0  0  0  0
   10.0006   -5.2258    0.0000 O   0  0  0  0  0  0  0  0  0  0  0  0
  1  2  1  0  0  0  0
  2  3  1  0  0  0  0
  3  4  1  0  0  0  0
  3  5  1  0  0  0  0
  5  6  1  0  0  0  0
  7  8  1  0  0  0  0
  8  9  1  0  0  0  0
  9 10  1  0  0  0  0
 10 11  1  0  0  0  0
 11 12  1  0  0  0  0
 12 13  1  0  0  0  0
 13 14  1  0  0  0  0
 14 15  1  0  0  0  0
 15 16  1  0  0  0  0
 16 17  1  0  0  0  0
 17 18  1  0  0  0  0
 18 19  1  0  0  0  0
 19 20  1  0  0  0  0
  7 21  2  0  0  0  0
  1  7  1  0  0  0  0
 22 23  1  0  0  0  0
 23 24  1  0  0  0  0
 24 25  1  0  0  0  0
 25 26  1  0  0  0  0
 26 27  1  0  0  0  0
 27 28  1  0  0  0  0
 28 29  1  0  0  0  0
 29 30  1  0  0  0  0
 30 31  1  0  0  0  0
 31 32  1  0  0  0  0
 32 33  1  0  0  0  0
 33 34  1  0  0  0  0
 34 35  1  0  0  0  0
 22 36  2  0  0  0  0
  4 22  1  0  0  0  0
 37 38  1  0  0  0  0
 38 39  1  0  0  0  0
 39 40  1  0  0  0  0
 40 41  1  0  0  0  0
 41 42  1  0  0  0  0
 42 43  1  0  0  0  0
 43 44  1  0  0  0  0
 44 45  1  0  0  0  0
 45 46  1  0  0  0  0
 46 47  1  0  0  0  0
 47 48  1  0  0  0  0
 48 49  1  0  0  0  0
 49 50  1  0  0  0  0
 37 51  2  0  0  0  0
  6 37  1  0  0  0  0
M  END
>  <cdx:groupId>
154

>  <cdx:fragmentId>
17

$$$$
