111664.cdx
  Mrv1902 05222410222D          

 11 11  0  0  0  0            999 V2000
    5.7304   -2.9206    0.0000 C   0  0  0  0  0  0  0  0  0  0  0  0
    5.0160   -3.3331    0.0000 O   0  0  0  0  0  0  0  0  0  0  0  0
    6.4452   -3.3325    0.0000 C   0  0  0  0  0  0  0  0  0  0  0  0
    6.4459   -4.1575    0.0000 C   0  0  0  0  0  0  0  0  0  0  0  0
    7.1607   -4.5694    0.0000 C   0  0  0  0  0  0  0  0  0  0  0  0
    7.8748   -4.1564    0.0000 C   0  0  0  0  0  0  0  0  0  0  0  0
    7.8742   -3.3314    0.0000 C   0  0  0  0  0  0  0  0  0  0  0  0
    7.1594   -2.9194    0.0000 C   0  0  0  0  0  0  0  0  0  0  0  0
    7.5713   -2.2046    0.0000 C   0  0  0  0  0  0  0  0  0  0  0  0
    6.7463   -2.2053    0.0000 C   0  0  0  0  0  0  0  0  0  0  0  0
    5.7317   -4.5706    0.0000 C   0  0  0  0  0  0  0  0  0  0  0  0
  1  2  1  0  0  0  0
  3  4  2  0  0  0  0
  4  5  1  0  0  0  0
  5  6  1  0  0  0  0
  6  7  1  0  0  0  0
  7  8  1  0  0  0  0
  3  8  1  0  0  0  0
  8  9  1  0  0  0  0
  8 10  1  0  0  0  0
  4 11  1  0  0  0  0
  1  3  1  0  0  0  0
M  END
>  <cdx:fragmentId>
9

$$$$
