11160.cdx
  Mrv1902 05222410222D          

  8  7  0  0  0  0            999 V2000
    5.4507   -5.0003    0.0000 C   0  0  0  0  0  0  0  0  0  0  0  0
    6.1652   -5.4128    0.0000 O   0  0  0  0  0  0  0  0  0  0  0  0
    6.8796   -4.1753    0.0000 O   0  0  0  0  0  0  0  0  0  0  0  0
    8.3086   -4.1753    0.0000 C   0  0  0  0  0  0  0  0  0  0  0  0
    9.0231   -5.4128    0.0000 C   0  0  0  0  0  0  0  0  0  0  0  0
    8.3086   -5.0003    0.0000 C   0  0  0  0  0  0  0  0  0  0  0  0
    7.5941   -5.4128    0.0000 C   0  0  0  0  0  0  0  0  0  0  0  0
    6.8796   -5.0003    0.0000 C   0  0  0  0  0  0  0  0  0  0  0  0
  2  1  1  0  0  0  0
  8  2  1  0  0  0  0
  8  3  2  0  0  0  0
  6  4  1  0  0  0  0
  6  5  1  0  0  0  0
  7  6  1  0  0  0  0
  8  7  1  0  0  0  0
M  END
>  <cdx:groupId>
25

>  <cdx:fragmentId>
5

$$$$
