11176.cdx
  Mrv1902 05222410222D          

 10  9  0  0  0  0            999 V2000
    5.5168   -3.2046    0.0000 C   0  0  0  0  0  0  0  0  0  0  0  0
    4.8023   -3.6171    0.0000 C   0  0  0  0  0  0  0  0  0  0  0  0
    4.0878   -3.2046    0.0000 C   0  0  0  0  0  0  0  0  0  0  0  0
    4.0878   -2.3796    0.0000 C   0  0  0  0  0  0  0  0  0  0  0  0
    5.5168   -2.3796    0.0000 O   0  0  0  0  0  0  0  0  0  0  0  0
    6.2312   -3.6171    0.0000 O   0  0  0  0  0  0  0  0  0  0  0  0
    3.3734   -3.6171    0.0000 C   0  0  0  0  0  0  0  0  0  0  0  0
    6.9457   -3.2046    0.0000 C   0  0  0  0  0  0  0  0  0  0  0  0
    7.6602   -3.6171    0.0000 C   0  0  0  0  0  0  0  0  0  0  0  0
    8.3746   -3.2046    0.0000 C   0  0  0  0  0  0  0  0  0  0  0  0
  1  2  1  0  0  0  0
  2  3  1  0  0  0  0
  3  4  1  0  0  0  0
  1  5  2  0  0  0  0
  1  6  1  0  0  0  0
  3  7  1  0  0  0  0
  8  9  1  0  0  0  0
  9 10  1  0  0  0  0
  6  8  1  0  0  0  0
M  END
>  <cdx:groupId>
31

>  <cdx:fragmentId>
5

$$$$
