11173.cdx
  Mrv1902 05222410212D          

  6  5  0  0  0  0            999 V2000
    3.8034   -2.9150    0.0000 C   0  0  0  0  0  0  0  0  0  0  0  0
    4.5179   -3.3275    0.0000 C   0  0  0  0  0  0  0  0  0  0  0  0
    5.2323   -2.9150    0.0000 C   0  0  0  0  0  0  0  0  0  0  0  0
    5.2323   -2.0900    0.0000 C   0  0  0  0  0  0  0  0  0  0  0  0
    3.0889   -3.3275    0.0000 O   0  0  0  0  0  0  0  0  0  0  0  0
    5.9468   -3.3275    0.0000 C   0  0  0  0  0  0  0  0  0  0  0  0
  1  2  1  0  0  0  0
  2  3  2  0  0  0  0
  3  4  1  0  0  0  0
  1  5  1  0  0  0  0
  3  6  1  0  0  0  0
M  END
>  <cdx:groupId>
19

>  <cdx:fragmentId>
5

$$$$
