1119.cdx
  Mrv1902 05222410202D          

  3  2  0  0  0  0            999 V2000
    3.9352   -3.8027    0.0000 S   0  0  0  0  0  0  0  0  0  0  0  0
    4.7602   -3.8027    0.0000 O   0  0  0  0  0  0  0  0  0  0  0  0
    3.1102   -3.8027    0.0000 O   0  0  0  0  0  0  0  0  0  0  0  0
  1  2  2  0  0  0  0
  1  3  2  0  0  0  0
M  END
>  <cdx:groupId>
10

>  <cdx:fragmentId>
5

$$$$
