112.cdx
  Mrv1902 05222410182D          

 19 20  0  0  0  0            999 V2000
    7.6973   -5.2258    0.0000 C   0  0  0  0  0  0  0  0  0  0  0  0
    6.9828   -5.6383    0.0000 C   0  0  0  0  0  0  0  0  0  0  0  0
    6.2683   -5.2258    0.0000 C   0  0  0  0  0  0  0  0  0  0  0  0
    5.5539   -5.6383    0.0000 C   0  0  0  0  0  0  0  0  0  0  0  0
    5.5539   -6.4633    0.0000 C   0  0  0  0  0  0  0  0  0  0  0  0
    4.8394   -6.8758    0.0000 C   0  0  0  0  0  0  0  0  0  0  0  0
    4.1249   -6.4633    0.0000 C   0  0  0  0  0  0  0  0  0  0  0  0
    4.1249   -5.6383    0.0000 C   0  0  0  0  0  0  0  0  0  0  0  0
    4.8394   -5.2258    0.0000 C   0  0  0  0  0  0  0  0  0  0  0  0
    3.4105   -6.8758    0.0000 O   0  0  0  0  0  0  0  0  0  0  0  0
    7.6973   -4.4008    0.0000 O   0  0  0  0  0  0  0  0  0  0  0  0
    8.4118   -5.6383    0.0000 O   0  0  0  0  0  0  0  0  0  0  0  0
    9.1262   -5.2258    0.0000 C   0  0  0  0  0  0  0  0  0  0  0  0
    9.8407   -5.6383    0.0000 C   0  0  0  0  0  0  0  0  0  0  0  0
   10.5552   -5.2258    0.0000 C   0  0  0  0  0  0  0  0  0  0  0  0
   11.2696   -5.6383    0.0000 C   0  0  0  0  0  0  0  0  0  0  0  0
   11.2696   -6.4633    0.0000 C   0  0  0  0  0  0  0  0  0  0  0  0
   10.5552   -6.8758    0.0000 C   0  0  0  0  0  0  0  0  0  0  0  0
    9.8407   -6.4633    0.0000 C   0  0  0  0  0  0  0  0  0  0  0  0
  1  2  1  0  0  0  0
  2  3  2  0  0  0  0
  3  4  1  0  0  0  0
  4  5  1  0  0  0  0
  5  6  2  0  0  0  0
  6  7  1  0  0  0  0
  7  8  2  0  0  0  0
  8  9  1  0  0  0  0
  4  9  2  0  0  0  0
  7 10  1  0  0  0  0
  1 11  2  0  0  0  0
  1 12  1  0  0  0  0
 13 14  1  0  0  0  0
 14 15  1  0  0  0  0
 15 16  2  0  0  0  0
 16 17  1  0  0  0  0
 17 18  2  0  0  0  0
 18 19  1  0  0  0  0
 14 19  2  0  0  0  0
 12 13  1  0  0  0  0
M  END
>  <cdx:groupId>
150

>  <cdx:fragmentId>
95

$$$$
