1120.cdx
  Mrv1902 05222410182D          

 18 20  0  0  0  0            999 V2000
    4.2333   -4.9476    0.0000 O   0  0  0  0  0  0  0  0  0  0  0  0
    4.1228   -6.1851    0.0000 C   0  0  0  0  0  0  0  0  0  0  0  0
    4.5353   -6.8995    0.0000 C   0  0  0  0  0  0  0  0  0  0  0  0
    9.9491   -6.5976    0.0000 O   0  0  0  0  0  0  0  0  0  0  0  0
    8.5202   -6.5976    0.0000 O   0  0  0  0  0  0  0  0  0  0  0  0
    9.2346   -6.1851    0.0000 C   0  0  0  0  0  0  0  0  0  0  0  0
    9.2346   -5.3601    0.0000 C   0  0  0  0  0  0  0  0  0  0  0  0
    8.5202   -4.9476    0.0000 C   0  0  0  0  0  0  0  0  0  0  0  0
    5.6623   -6.5976    0.0000 O   0  0  0  0  0  0  0  0  0  0  0  0
    6.3767   -6.1851    0.0000 C   0  0  0  0  0  0  0  0  0  0  0  0
    7.0912   -6.5976    0.0000 C   0  0  0  0  0  0  0  0  0  0  0  0
    7.8057   -6.1851    0.0000 C   0  0  0  0  0  0  0  0  0  0  0  0
    7.8057   -5.3601    0.0000 C   0  0  0  0  0  0  0  0  0  0  0  0
    7.0912   -4.9476    0.0000 C   0  0  0  0  0  0  0  0  0  0  0  0
    6.3767   -5.3601    0.0000 C   0  0  0  0  0  0  0  0  0  0  0  0
    5.6623   -4.9476    0.0000 C   0  0  0  0  0  0  0  0  0  0  0  0
    4.9478   -5.3601    0.0000 C   0  0  1  0  0  0  0  0  0  0  0  0
    4.9478   -6.1851    0.0000 C   0  0  2  0  0  0  0  0  0  0  0  0
 17  1  1  1  0  0  0
 18  2  1  1  0  0  0
 18  3  1  6  0  0  0
  6  4  2  0  0  0  0
  5 12  1  0  0  0  0
  8 13  1  0  0  0  0
  6  5  1  0  0  0  0
  7  6  1  0  0  0  0
  8  7  2  0  0  0  0
 18  9  1  0  0  0  0
 10  9  1  0  0  0  0
 15 10  2  0  0  0  0
 11 10  1  0  0  0  0
 12 11  2  0  0  0  0
 13 12  1  0  0  0  0
 14 13  2  0  0  0  0
 15 14  1  0  0  0  0
 16 15  1  0  0  0  0
 17 16  1  0  0  0  0
 18 17  1  0  0  0  0
M  END
>  <cdx:fragmentId>
9476

$$$$
