11216.cdx
  Mrv1902 05222410222D          

 23 26  0  0  0  0            999 V2000
    3.4266   -8.5921    0.0000 O   0  0  0  0  0  0  0  0  0  0  0  0
    4.6663   -7.8816    0.0000 C   0  0  0  0  0  0  0  0  0  0  0  0
    4.2516   -8.5947    0.0000 C   0  0  0  0  0  0  0  0  0  0  0  0
    4.6618   -9.3105    0.0000 C   0  0  0  0  0  0  0  0  0  0  0  0
    5.4868   -9.3131    0.0000 C   0  0  0  0  0  0  0  0  0  0  0  0
    6.0453   -7.2728    0.0000 O   0  0  0  0  0  0  0  0  0  0  0  0
    5.4913   -7.8842    0.0000 C   0  0  0  0  0  0  0  0  0  0  0  0
    5.9015   -8.6000    0.0000 C   0  0  0  0  0  0  0  0  0  0  0  0
    6.7091   -8.4310    0.0000 C   0  0  0  0  0  0  0  0  0  0  0  0
    6.7979   -7.6108    0.0000 C   0  0  0  0  0  0  0  0  0  0  0  0
    6.0081   -5.3468    0.0000 C   0  0  0  0  0  0  0  0  0  0  0  0
    6.3954   -4.4200    0.0000 C   0  0  0  0  0  0  0  0  0  0  0  0
    9.6610   -5.9698    0.0000 O   0  0  0  0  0  0  0  0  0  0  0  0
    8.2346   -5.1403    0.0000 C   0  0  0  0  0  0  0  0  0  0  0  0
    7.5215   -4.7255    0.0000 C   0  0  0  0  0  0  0  0  0  0  0  0
    6.8057   -5.1358    0.0000 C   0  0  0  0  0  0  0  0  0  0  0  0
    6.8031   -5.9608    0.0000 O   0  0  0  0  0  0  0  0  0  0  0  0
    8.9452   -6.3800    0.0000 C   0  0  0  0  0  0  0  0  0  0  0  0
    8.2320   -5.9653    0.0000 C   0  0  0  0  0  0  0  0  0  0  0  0
    7.5162   -6.3755    0.0000 C   0  0  0  0  0  0  0  0  0  0  0  0
    7.5136   -7.2005    0.0000 C   0  0  0  0  0  0  0  0  0  0  0  0
    8.2268   -7.6153    0.0000 C   0  0  0  0  0  0  0  0  0  0  0  0
    8.9426   -7.2050    0.0000 C   0  0  0  0  0  0  0  0  0  0  0  0
  3  1  1  0  0  0  0
  2  7  1  0  0  0  0
  3  2  2  0  0  0  0
  4  3  1  0  0  0  0
  5  4  2  0  0  0  0
  8  5  1  0  0  0  0
  6 10  1  0  0  0  0
  7  6  1  0  0  0  0
  8  7  2  0  0  0  0
  9  8  1  0  0  0  0
 10  9  2  0  0  0  0
 21 10  1  0  0  0  0
 16 11  1  0  0  0  0
 16 12  1  0  0  0  0
 18 13  1  0  0  0  0
 14 19  1  0  0  0  0
 15 14  2  0  0  0  0
 16 15  1  0  0  0  0
 17 16  1  0  0  0  0
 20 17  1  0  0  0  0
 18 23  1  0  0  0  0
 19 18  2  0  0  0  0
 20 19  1  0  0  0  0
 21 20  2  0  0  0  0
 22 21  1  0  0  0  0
 23 22  2  0  0  0  0
M  END
>  <cdx:fragmentId>
5

$$$$
