11214.cdx
  Mrv1902 05222410222D          

 25 28  0  0  0  0            999 V2000
    3.3858   -8.9925    0.0000 C   0  0  0  0  0  0  0  0  0  0  0  0
    3.3858   -9.8175    0.0000 C   0  0  0  0  0  0  0  0  0  0  0  0
    4.1002  -10.2300    0.0000 C   0  0  0  0  0  0  0  0  0  0  0  0
    4.8147   -9.8175    0.0000 C   0  0  0  0  0  0  0  0  0  0  0  0
    4.8147   -8.9925    0.0000 C   0  0  0  0  0  0  0  0  0  0  0  0
    4.1002   -8.5800    0.0000 C   0  0  0  0  0  0  0  0  0  0  0  0
    5.5292   -8.5800    0.0000 C   0  0  0  0  0  0  0  0  0  0  0  0
    5.5292   -7.7550    0.0000 C   0  0  0  0  0  0  0  0  0  0  0  0
    4.1002   -7.7550    0.0000 O   0  0  0  0  0  0  0  0  0  0  0  0
    6.2437   -8.9925    0.0000 C   0  0  0  0  0  0  0  0  0  0  0  0
    6.9581   -8.5800    0.0000 C   0  0  0  0  0  0  0  0  0  0  0  0
    6.9581   -7.7550    0.0000 C   0  0  0  0  0  0  0  0  0  0  0  0
    6.2437   -7.3425    0.0000 O   0  0  0  0  0  0  0  0  0  0  0  0
    7.6726   -8.9925    0.0000 C   0  0  0  0  0  0  0  0  0  0  0  0
    8.3871   -8.5800    0.0000 C   0  0  0  0  0  0  0  0  0  0  0  0
    8.3871   -7.7550    0.0000 C   0  0  0  0  0  0  0  0  0  0  0  0
    7.6726   -7.3425    0.0000 C   0  0  0  0  0  0  0  0  0  0  0  0
    9.1015   -7.3425    0.0000 O   0  0  0  0  0  0  0  0  0  0  0  0
    9.1015   -6.5175    0.0000 C   0  0  0  0  0  0  0  0  0  0  0  0
    8.3871   -6.1050    0.0000 C   0  0  0  0  0  0  0  0  0  0  0  0
    7.6726   -6.5175    0.0000 C   0  0  0  0  0  0  0  0  0  0  0  0
    2.6713  -10.2300    0.0000 O   0  0  0  0  0  0  0  0  0  0  0  0
    6.2437   -9.8175    0.0000 O   0  0  0  0  0  0  0  0  0  0  0  0
    9.5140   -5.8030    0.0000 C   0  0  0  0  0  0  0  0  0  0  0  0
    9.8984   -6.7310    0.0000 C   0  0  0  0  0  0  0  0  0  0  0  0
  1  2  2  0  0  0  0
  2  3  1  0  0  0  0
  3  4  2  0  0  0  0
  4  5  1  0  0  0  0
  5  6  2  0  0  0  0
  6  1  1  0  0  0  0
  5  7  1  0  0  0  0
  7  8  1  0  0  0  0
  9  6  1  0  0  0  0
  7 10  1  0  0  0  0
 10 11  1  0  0  0  0
 11 12  2  0  0  0  0
 12 13  1  0  0  0  0
 13  8  1  0  0  0  0
 11 14  1  0  0  0  0
 14 15  2  0  0  0  0
 15 16  1  0  0  0  0
 16 17  2  0  0  0  0
 17 12  1  0  0  0  0
 16 18  1  0  0  0  0
 18 19  1  0  0  0  0
 19 20  1  0  0  0  0
 20 21  2  0  0  0  0
 21 17  1  0  0  0  0
  2 22  1  0  0  0  0
 10 23  2  0  0  0  0
 19 24  1  0  0  0  0
 19 25  1  0  0  0  0
M  END
>  <cdx:fragmentId>
5

$$$$
