11215.cdx
  Mrv1902 05222410222D          

 25 28  0  0  0  0            999 V2000
    3.6539   -5.7956    0.0000 C   0  0  0  0  0  0  0  0  0  0  0  0
    3.6539   -6.6206    0.0000 C   0  0  0  0  0  0  0  0  0  0  0  0
    4.3684   -7.0331    0.0000 C   0  0  0  0  0  0  0  0  0  0  0  0
    5.0828   -6.6206    0.0000 C   0  0  0  0  0  0  0  0  0  0  0  0
    5.0828   -5.7956    0.0000 C   0  0  0  0  0  0  0  0  0  0  0  0
    4.3684   -5.3831    0.0000 C   0  0  0  0  0  0  0  0  0  0  0  0
    5.7973   -7.0331    0.0000 C   0  0  0  0  0  0  0  0  0  0  0  0
    6.5118   -6.6206    0.0000 C   0  0  0  0  0  0  0  0  0  0  0  0
    6.5118   -5.7956    0.0000 C   0  0  0  0  0  0  0  0  0  0  0  0
    5.7973   -5.3831    0.0000 O   0  0  0  0  0  0  0  0  0  0  0  0
    7.2263   -7.0331    0.0000 C   0  0  0  0  0  0  0  0  0  0  0  0
    7.9407   -6.6206    0.0000 C   0  0  0  0  0  0  0  0  0  0  0  0
    7.2263   -7.8581    0.0000 C   0  0  0  0  0  0  0  0  0  0  0  0
    7.9407   -8.2706    0.0000 C   0  0  0  0  0  0  0  0  0  0  0  0
    8.6552   -7.8581    0.0000 C   0  0  0  0  0  0  0  0  0  0  0  0
    8.6552   -7.0331    0.0000 C   0  0  0  0  0  0  0  0  0  0  0  0
    9.3697   -8.2706    0.0000 O   0  0  0  0  0  0  0  0  0  0  0  0
   10.0841   -7.8581    0.0000 C   0  0  0  0  0  0  0  0  0  0  0  0
   10.0841   -7.0331    0.0000 C   0  0  0  0  0  0  0  0  0  0  0  0
    9.3697   -6.6206    0.0000 C   0  0  0  0  0  0  0  0  0  0  0  0
    2.9394   -5.3831    0.0000 O   0  0  0  0  0  0  0  0  0  0  0  0
    5.7973   -7.8581    0.0000 O   0  0  0  0  0  0  0  0  0  0  0  0
    7.9407   -5.7956    0.0000 O   0  0  0  0  0  0  0  0  0  0  0  0
   10.9091   -7.8581    0.0000 C   0  0  0  0  0  0  0  0  0  0  0  0
   10.2977   -8.6550    0.0000 C   0  0  0  0  0  0  0  0  0  0  0  0
  1  2  1  0  0  0  0
  2  3  2  0  0  0  0
  3  4  1  0  0  0  0
  4  5  2  0  0  0  0
  5  6  1  0  0  0  0
  6  1  2  0  0  0  0
  4  7  1  0  0  0  0
  7  8  1  0  0  0  0
  8  9  2  0  0  0  0
  9 10  1  0  0  0  0
 10  5  1  0  0  0  0
  8 11  1  0  0  0  0
 11 12  2  0  0  0  0
 11 13  1  0  0  0  0
 13 14  2  0  0  0  0
 14 15  1  0  0  0  0
 15 16  2  0  0  0  0
 16 12  1  0  0  0  0
 15 17  1  0  0  0  0
 17 18  1  0  0  0  0
 18 19  1  0  0  0  0
 19 20  2  0  0  0  0
 20 16  1  0  0  0  0
  1 21  1  0  0  0  0
  7 22  2  0  0  0  0
 12 23  1  0  0  0  0
 18 24  1  0  0  0  0
 18 25  1  0  0  0  0
M  END
>  <cdx:fragmentId>
5

$$$$
