11213.cdx
  Mrv1902 05222410202D          

 23 26  0  0  0  0            999 V2000
    3.4158   -9.2819    0.0000 C   0  0  0  0  0  0  0  0  0  0  0  0
    2.9992   -9.9940    0.0000 C   0  0  0  0  0  0  0  0  0  0  0  0
    3.4076  -10.7109    0.0000 C   0  0  0  0  0  0  0  0  0  0  0  0
    4.2325  -10.7156    0.0000 C   0  0  0  0  0  0  0  0  0  0  0  0
    4.6492  -10.0035    0.0000 C   0  0  0  0  0  0  0  0  0  0  0  0
    4.2408   -9.2867    0.0000 C   0  0  0  0  0  0  0  0  0  0  0  0
    5.4571   -9.8366    0.0000 C   0  0  0  0  0  0  0  0  0  0  0  0
    5.5481   -9.0167    0.0000 C   0  0  0  0  0  0  0  0  0  0  0  0
    4.7963   -8.6768    0.0000 O   0  0  0  0  0  0  0  0  0  0  0  0
    6.2649   -8.6083    0.0000 C   0  0  0  0  0  0  0  0  0  0  0  0
    6.9770   -9.0249    0.0000 C   0  0  0  0  0  0  0  0  0  0  0  0
    7.6938   -8.6165    0.0000 C   0  0  0  0  0  0  0  0  0  0  0  0
    7.6986   -7.7915    0.0000 C   0  0  0  0  0  0  0  0  0  0  0  0
    6.9865   -7.3749    0.0000 C   0  0  0  0  0  0  0  0  0  0  0  0
    6.2696   -7.7833    0.0000 C   0  0  0  0  0  0  0  0  0  0  0  0
    8.4059   -9.0331    0.0000 C   0  0  0  0  0  0  0  0  0  0  0  0
    9.1227   -8.6247    0.0000 C   0  0  0  0  0  0  0  0  0  0  0  0
    9.1275   -7.7998    0.0000 C   0  0  0  0  0  0  0  0  0  0  0  0
    8.4154   -7.3832    0.0000 O   0  0  0  0  0  0  0  0  0  0  0  0
    2.1742   -9.9940    0.0000 O   0  0  0  0  0  0  0  0  0  0  0  0
    6.9770   -9.8499    0.0000 O   0  0  0  0  0  0  0  0  0  0  0  0
    9.7108   -7.2164    0.0000 C   0  0  0  0  0  0  0  0  0  0  0  0
    9.9244   -8.0133    0.0000 C   0  0  0  0  0  0  0  0  0  0  0  0
  1  2  2  0  0  0  0
  2  3  1  0  0  0  0
  3  4  2  0  0  0  0
  4  5  1  0  0  0  0
  5  6  2  0  0  0  0
  6  1  1  0  0  0  0
  5  7  1  0  0  0  0
  7  8  2  0  0  0  0
  8  9  1  0  0  0  0
  9  6  1  0  0  0  0
  8 10  1  0  0  0  0
 10 11  2  0  0  0  0
 11 12  1  0  0  0  0
 12 13  2  0  0  0  0
 13 14  1  0  0  0  0
 14 15  2  0  0  0  0
 15 10  1  0  0  0  0
 12 16  1  0  0  0  0
 16 17  2  0  0  0  0
 17 18  1  0  0  0  0
 18 19  1  0  0  0  0
 19 13  1  0  0  0  0
  2 20  1  0  0  0  0
 11 21  1  0  0  0  0
 18 22  1  0  0  0  0
 18 23  1  0  0  0  0
M  END
>  <cdx:fragmentId>
5

$$$$
