11237.cdx
  Mrv1902 05222410252D          

 41 45  0  0  0  0            999 V2000
    7.0270   -7.5677    0.0000 C   0  0  0  0  0  0  0  0  0  0  0  0
    7.7426   -7.1546    0.0000 C   0  0  0  0  0  0  0  0  0  0  0  0
    7.7426   -6.3299    0.0000 C   0  0  2  0  0  0  0  0  0  0  0  0
    7.0270   -5.9169    0.0000 O   0  0  0  0  0  0  0  0  0  0  0  0
    8.4554   -5.9169    0.0000 C   0  0  0  0  0  0  0  0  0  0  0  0
    9.1723   -6.3269    0.0000 C   0  0  0  0  0  0  0  0  0  0  0  0
    9.8865   -5.9169    0.0000 C   0  0  0  0  0  0  0  0  0  0  0  0
    9.8865   -5.0908    0.0000 C   0  0  0  0  0  0  0  0  0  0  0  0
    9.1723   -4.6805    0.0000 C   0  0  0  0  0  0  0  0  0  0  0  0
    8.4554   -5.0908    0.0000 C   0  0  0  0  0  0  0  0  0  0  0  0
    6.3128   -7.1546    0.0000 C   0  0  0  0  0  0  0  0  0  0  0  0
    6.3128   -6.3299    0.0000 C   0  0  0  0  0  0  0  0  0  0  0  0
    5.5987   -5.9177    0.0000 C   0  0  0  0  0  0  0  0  0  0  0  0
    4.8845   -6.3299    0.0000 C   0  0  0  0  0  0  0  0  0  0  0  0
    4.8845   -7.1546    0.0000 C   0  0  0  0  0  0  0  0  0  0  0  0
    5.5987   -7.5669    0.0000 C   0  0  0  0  0  0  0  0  0  0  0  0
    4.1700   -5.9174    0.0000 O   0  0  0  0  0  0  0  0  0  0  0  0
   10.6009   -4.6783    0.0000 O   0  0  0  0  0  0  0  0  0  0  0  0
    7.0270   -8.3927    0.0000 O   0  0  0  0  0  0  0  0  0  0  0  0
    2.0328   -6.3278    0.0000 C   0  0  2  0  0  0  0  0  0  0  0  0
    2.0328   -7.1528    0.0000 C   0  0  2  0  0  0  0  0  0  0  0  0
    2.7472   -7.5653    0.0000 C   0  0  1  0  0  0  0  0  0  0  0  0
    3.4617   -7.1528    0.0000 C   0  0  2  0  0  0  0  0  0  0  0  0
    3.4617   -6.3278    0.0000 C   0  0  1  0  0  0  0  0  0  0  0  0
    2.7472   -5.9153    0.0000 O   0  0  0  0  0  0  0  0  0  0  0  0
    1.3183   -5.9153    0.0000 C   0  0  0  0  0  0  0  0  0  0  0  0
    2.7472   -8.3903    0.0000 O   0  0  0  0  0  0  0  0  0  0  0  0
    4.1762   -7.5653    0.0000 O   0  0  0  0  0  0  0  0  0  0  0  0
    1.3183   -7.5653    0.0000 O   0  0  0  0  0  0  0  0  0  0  0  0
    0.6038   -6.3278    0.0000 O   0  0  0  0  0  0  0  0  0  0  0  0
   12.0356   -6.3316    0.0000 C   0  0  2  0  0  0  0  0  0  0  0  0
   12.7500   -5.9191    0.0000 C   0  0  2  0  0  0  0  0  0  0  0  0
   12.7500   -5.0941    0.0000 C   0  0  1  0  0  0  0  0  0  0  0  0
   12.0355   -4.6816    0.0000 C   0  0  2  0  0  0  0  0  0  0  0  0
   11.3210   -5.0942    0.0000 C   0  0  1  0  0  0  0  0  0  0  0  0
   11.3211   -5.9192    0.0000 O   0  0  0  0  0  0  0  0  0  0  0  0
   12.0357   -7.1566    0.0000 C   0  0  0  0  0  0  0  0  0  0  0  0
   13.4644   -4.6815    0.0000 O   0  0  0  0  0  0  0  0  0  0  0  0
   12.0354   -3.8566    0.0000 O   0  0  0  0  0  0  0  0  0  0  0  0
   13.4646   -6.3315    0.0000 O   0  0  0  0  0  0  0  0  0  0  0  0
   12.7502   -7.5691    0.0000 O   0  0  0  0  0  0  0  0  0  0  0  0
 11  1  1  0  0  0  0
  1  2  1  0  0  0  0
  2  3  1  0  0  0  0
 12  4  1  0  0  0  0
  3  5  1  6  0  0  0
  5  6  2  0  0  0  0
  6  7  1  0  0  0  0
  7  8  2  0  0  0  0
  8  9  1  0  0  0  0
  9 10  2  0  0  0  0
  5 10  1  0  0  0  0
 11 12  1  0  0  0  0
 12 13  2  0  0  0  0
 13 14  1  0  0  0  0
 14 15  2  0  0  0  0
 15 16  1  0  0  0  0
 16 11  2  0  0  0  0
 14 17  1  0  0  0  0
  8 18  1  0  0  0  0
  1 19  2  0  0  0  0
 20 21  1  0  0  0  0
 21 22  1  0  0  0  0
 22 23  1  0  0  0  0
 23 24  1  0  0  0  0
 24 25  1  0  0  0  0
 25 20  1  0  0  0  0
 20 26  1  1  0  0  0
 22 27  1  1  0  0  0
 23 28  1  6  0  0  0
 21 29  1  6  0  0  0
 26 30  1  0  0  0  0
 31 32  1  0  0  0  0
 32 33  1  0  0  0  0
 33 34  1  0  0  0  0
 34 35  1  0  0  0  0
 35 36  1  0  0  0  0
 36 31  1  0  0  0  0
 31 37  1  1  0  0  0
 33 38  1  1  0  0  0
 34 39  1  6  0  0  0
 32 40  1  6  0  0  0
 37 41  1  0  0  0  0
 24 17  1  1  0  0  0
 35 18  1  1  0  0  0
  4  3  1  0  0  0  0
M  END
>  <cdx:fragmentId>
3068

$$$$
