11233.cdx
  Mrv1902 05222410242D          

  8  7  0  0  0  0            999 V2000
    6.6374   -3.5226    0.0000 C   0  0  0  0  0  0  0  0  0  0  0  0
    7.4624   -3.5226    0.0000 C   0  0  0  0  0  0  0  0  0  0  0  0
    9.1933   -4.6496    0.0000 C   0  0  0  0  0  0  0  0  0  0  0  0
    8.4788   -4.2371    0.0000 C   0  0  0  0  0  0  0  0  0  0  0  0
    7.7644   -4.6496    0.0000 C   0  0  0  0  0  0  0  0  0  0  0  0
    7.0499   -4.2371    0.0000 C   0  0  0  0  0  0  0  0  0  0  0  0
    6.3354   -4.6496    0.0000 C   0  0  0  0  0  0  0  0  0  0  0  0
    5.6209   -4.2371    0.0000 C   0  0  0  0  0  0  0  0  0  0  0  0
  6  1  1  0  0  0  0
  6  2  1  0  0  0  0
  4  3  1  0  0  0  0
  5  4  1  0  0  0  0
  6  5  1  0  0  0  0
  7  6  1  0  0  0  0
  8  7  1  0  0  0  0
M  END
>  <cdx:fragmentId>
5

$$$$
