11251.cdx
  Mrv1902 05222410262D          

  6  5  0  0  0  0            999 V2000
    5.7082   -3.4658    0.0000 C   0  0  0  0  0  0  0  0  0  0  0  0
    4.9937   -3.0533    0.0000 C   0  0  0  0  0  0  0  0  0  0  0  0
    4.2793   -3.4658    0.0000 C   0  0  0  0  0  0  0  0  0  0  0  0
    3.5648   -3.0533    0.0000 C   0  0  0  0  0  0  0  0  0  0  0  0
    4.9937   -2.2283    0.0000 O   0  0  0  0  0  0  0  0  0  0  0  0
    4.2793   -4.2908    0.0000 C   0  0  0  0  0  0  0  0  0  0  0  0
  1  2  1  0  0  0  0
  2  3  1  0  0  0  0
  3  4  1  0  0  0  0
  2  5  2  0  0  0  0
  3  6  1  0  0  0  0
M  END
>  <cdx:groupId>
19

>  <cdx:fragmentId>
5

$$$$
