11266.cdx
  Mrv1902 05222410192D          

  7  6  0  0  0  0            999 V2000
    4.5621   -2.6683    0.0000 C   0  0  0  0  0  0  0  0  0  0  0  0
    3.8476   -3.0808    0.0000 C   0  0  0  0  0  0  0  0  0  0  0  0
    3.1332   -2.6683    0.0000 C   0  0  0  0  0  0  0  0  0  0  0  0
    2.4187   -3.0808    0.0000 C   0  0  0  0  0  0  0  0  0  0  0  0
    4.5621   -1.8433    0.0000 O   0  0  0  0  0  0  0  0  0  0  0  0
    5.2766   -3.0808    0.0000 O   0  0  0  0  0  0  0  0  0  0  0  0
    3.8476   -3.9058    0.0000 O   0  0  0  0  0  0  0  0  0  0  0  0
  1  2  1  0  0  0  0
  2  3  1  0  0  0  0
  3  4  1  0  0  0  0
  1  5  2  0  0  0  0
  1  6  1  0  0  0  0
  2  7  1  0  0  0  0
M  END
>  <cdx:groupId>
22

>  <cdx:fragmentId>
5

$$$$
