11261.cdx
  Mrv1902 05222410202D          

 10  9  0  0  0  0            999 V2000
    6.0802   -8.0644    0.0000 P   0  0  0  0  0  0  0  0  0  0  0  0
    6.7947   -7.6519    0.0000 O   0  0  0  0  0  0  0  0  0  0  0  0
    7.5092   -8.0644    0.0000 C   0  0  0  0  0  0  0  0  0  0  0  0
    8.2237   -7.6519    0.0000 C   0  0  0  0  0  0  0  0  0  0  0  0
    8.9381   -8.0644    0.0000 C   0  0  0  0  0  0  0  0  0  0  0  0
    9.6526   -7.6519    0.0000 O   0  0  0  0  0  0  0  0  0  0  0  0
    8.2237   -6.8269    0.0000 O   0  0  0  0  0  0  0  0  0  0  0  0
    5.6677   -7.3499    0.0000 O   0  0  0  0  0  0  0  0  0  0  0  0
    6.4927   -8.7788    0.0000 O   0  0  0  0  0  0  0  0  0  0  0  0
    5.3658   -8.4769    0.0000 O   0  0  0  0  0  0  0  0  0  0  0  0
  1  2  1  0  0  0  0
  2  3  1  0  0  0  0
  3  4  1  0  0  0  0
  4  5  1  0  0  0  0
  5  6  1  0  0  0  0
  4  7  1  0  0  0  0
  1  8  1  0  0  0  0
  1  9  2  0  0  0  0
  1 10  1  0  0  0  0
M  END
>  <cdx:fragmentId>
3

$$$$
