11262.cdx
  Mrv1902 05222410192D          

  7  6  0  0  0  0            999 V2000
    5.5704   -3.2802    0.0000 C   0  0  0  0  0  0  0  0  0  0  0  0
    4.8560   -2.8677    0.0000 C   0  0  0  0  0  0  0  0  0  0  0  0
    4.1415   -3.2802    0.0000 C   0  0  0  0  0  0  0  0  0  0  0  0
    3.4270   -2.8677    0.0000 C   0  0  0  0  0  0  0  0  0  0  0  0
    2.7126   -3.2802    0.0000 C   0  0  0  0  0  0  0  0  0  0  0  0
    4.8560   -2.0427    0.0000 O   0  0  0  0  0  0  0  0  0  0  0  0
    4.1415   -4.1052    0.0000 C   0  0  0  0  0  0  0  0  0  0  0  0
  1  2  1  0  0  0  0
  2  3  1  0  0  0  0
  3  4  1  0  0  0  0
  4  5  1  0  0  0  0
  2  6  2  0  0  0  0
  3  7  1  0  0  0  0
M  END
>  <cdx:groupId>
22

>  <cdx:fragmentId>
5

$$$$
