1127.cdx
  Mrv1902 05222410202D          

 27 28  0  0  0  0            999 V2000
   11.5617   -2.8050    0.0000 C   0  0  0  0  0  0  0  0  0  0  0  0
    6.5604   -3.2175    0.0000 C   0  0  0  0  0  0  0  0  0  0  0  0
    2.9881   -6.1050    0.0000 C   0  0  0  0  0  0  0  0  0  0  0  0
    2.9881   -6.9300    0.0000 C   0  0  0  0  0  0  0  0  0  0  0  0
    7.2749   -6.1050    0.0000 O   0  0  0  0  0  0  0  0  0  0  0  0
   10.1328   -1.9800    0.0000 O   0  0  0  0  0  0  0  0  0  0  0  0
   10.8473   -3.2175    0.0000 O   0  0  0  0  0  0  0  0  0  0  0  0
   10.1328   -2.8050    0.0000 C   0  0  0  0  0  0  0  0  0  0  0  0
    7.2749   -2.8050    0.0000 O   0  0  0  0  0  0  0  0  0  0  0  0
    7.9894   -3.2175    0.0000 C   0  0  0  0  0  0  0  0  0  0  0  0
    8.7039   -2.8050    0.0000 C   0  0  0  0  0  0  0  0  0  0  0  0
    9.4183   -3.2175    0.0000 C   0  0  0  0  0  0  0  0  0  0  0  0
    9.4183   -4.0425    0.0000 C   0  0  0  0  0  0  0  0  0  0  0  0
    8.7039   -4.4550    0.0000 C   0  0  0  0  0  0  0  0  0  0  0  0
    7.9894   -4.0425    0.0000 C   0  0  0  0  0  0  0  0  0  0  0  0
    7.2749   -4.4550    0.0000 O   0  0  0  0  0  0  0  0  0  0  0  0
    5.8460   -4.4550    0.0000 C   0  0  0  0  0  0  0  0  0  0  0  0
    6.5604   -4.8675    0.0000 C   0  0  1  0  0  0  0  0  0  0  0  0
    6.5604   -5.6925    0.0000 C   0  0  2  0  0  0  0  0  0  0  0  0
    3.7026   -7.3425    0.0000 O   0  0  0  0  0  0  0  0  0  0  0  0
    3.7026   -5.6925    0.0000 O   0  0  0  0  0  0  0  0  0  0  0  0
    5.1315   -5.6925    0.0000 C   0  0  0  0  0  0  0  0  0  0  0  0
    5.8460   -6.1050    0.0000 C   0  0  0  0  0  0  0  0  0  0  0  0
    5.8460   -6.9300    0.0000 C   0  0  0  0  0  0  0  0  0  0  0  0
    5.1315   -7.3425    0.0000 C   0  0  0  0  0  0  0  0  0  0  0  0
    4.4170   -6.9300    0.0000 C   0  0  0  0  0  0  0  0  0  0  0  0
    4.4170   -6.1050    0.0000 C   0  0  0  0  0  0  0  0  0  0  0  0
  7  1  1  0  0  0  0
  9  2  1  0  0  0  0
 21  3  1  0  0  0  0
 20  4  1  0  0  0  0
 19  5  1  1  0  0  0
  8  6  2  0  0  0  0
  8  7  1  0  0  0  0
 12  8  1  0  0  0  0
 10  9  1  0  0  0  0
 10 15  1  0  0  0  0
 11 10  2  0  0  0  0
 12 11  1  0  0  0  0
 13 12  2  0  0  0  0
 14 13  1  0  0  0  0
 15 14  2  0  0  0  0
 16 15  1  0  0  0  0
 18 16  1  6  0  0  0
 18 17  1  0  0  0  0
 19 18  1  0  0  0  0
 23 19  1  0  0  0  0
 26 20  1  0  0  0  0
 27 21  1  0  0  0  0
 22 27  1  0  0  0  0
 23 22  2  0  0  0  0
 24 23  1  0  0  0  0
 25 24  2  0  0  0  0
 26 25  1  0  0  0  0
 27 26  2  0  0  0  0
M  END
>  <cdx:fragmentId>
5

$$$$
