1129.cdx
  Mrv1902 05222410262D          

 29 30  0  0  0  0            999 V2000
    4.2974   -6.6825    0.0000 C   0  0  0  0  0  0  0  0  0  0  0  0
    4.2974   -7.5075    0.0000 C   0  0  0  0  0  0  0  0  0  0  0  0
    5.0119   -7.9200    0.0000 C   0  0  0  0  0  0  0  0  0  0  0  0
    5.7263   -7.5075    0.0000 C   0  0  0  0  0  0  0  0  0  0  0  0
    5.7263   -6.6825    0.0000 C   0  0  0  0  0  0  0  0  0  0  0  0
    5.0119   -6.2700    0.0000 C   0  0  0  0  0  0  0  0  0  0  0  0
    3.5829   -6.2700    0.0000 O   0  0  0  0  0  0  0  0  0  0  0  0
    3.5829   -7.9200    0.0000 O   0  0  0  0  0  0  0  0  0  0  0  0
    6.4408   -6.2700    0.0000 C   0  0  2  0  0  0  0  0  0  0  0  0
    7.1553   -6.6825    0.0000 O   0  0  0  0  0  0  0  0  0  0  0  0
    6.4408   -5.4450    0.0000 C   0  0  2  0  0  0  0  0  0  0  0  0
    5.7263   -5.0325    0.0000 C   0  0  0  0  0  0  0  0  0  0  0  0
    5.7263   -4.2075    0.0000 O   0  0  0  0  0  0  0  0  0  0  0  0
    7.9745   -4.5581    0.0000 C   0  0  0  0  0  0  0  0  0  0  0  0
    8.6889   -4.9706    0.0000 C   0  0  0  0  0  0  0  0  0  0  0  0
    9.4034   -4.5581    0.0000 C   0  0  0  0  0  0  0  0  0  0  0  0
    9.4034   -3.7331    0.0000 C   0  0  0  0  0  0  0  0  0  0  0  0
    8.6889   -3.3206    0.0000 C   0  0  0  0  0  0  0  0  0  0  0  0
    7.9745   -3.7331    0.0000 C   0  0  0  0  0  0  0  0  0  0  0  0
    7.1553   -5.0325    0.0000 O   0  0  0  0  0  0  0  0  0  0  0  0
    8.6889   -5.7956    0.0000 O   0  0  0  0  0  0  0  0  0  0  0  0
    9.4034   -6.2081    0.0000 C   0  0  0  0  0  0  0  0  0  0  0  0
    7.2600   -3.3206    0.0000 O   0  0  0  0  0  0  0  0  0  0  0  0
    6.5455   -3.7331    0.0000 C   0  0  0  0  0  0  0  0  0  0  0  0
    2.8685   -6.6825    0.0000 C   0  0  0  0  0  0  0  0  0  0  0  0
    2.8685   -7.5075    0.0000 C   0  0  0  0  0  0  0  0  0  0  0  0
   10.1179   -3.3206    0.0000 C   0  0  0  0  0  0  0  0  0  0  0  0
   10.8324   -3.7331    0.0000 C   0  0  0  0  0  0  0  0  0  0  0  0
   11.5468   -3.3206    0.0000 C   0  0  0  0  0  0  0  0  0  0  0  0
  1  2  2  0  0  0  0
  2  3  1  0  0  0  0
  3  4  2  0  0  0  0
  4  5  1  0  0  0  0
  5  6  2  0  0  0  0
  6  1  1  0  0  0  0
  1  7  1  0  0  0  0
  2  8  1  0  0  0  0
  5  9  1  0  0  0  0
  9 10  1  1  0  0  0
  9 11  1  0  0  0  0
 11 12  1  0  0  0  0
 12 13  1  0  0  0  0
 14 15  2  0  0  0  0
 15 16  1  0  0  0  0
 16 17  2  0  0  0  0
 17 18  1  0  0  0  0
 18 19  2  0  0  0  0
 19 14  1  0  0  0  0
 11 20  1  6  0  0  0
 15 21  1  0  0  0  0
 21 22  1  0  0  0  0
 19 23  1  0  0  0  0
 23 24  1  0  0  0  0
  7 25  1  0  0  0  0
  8 26  1  0  0  0  0
 17 27  1  0  0  0  0
 27 28  1  0  0  0  0
 28 29  2  0  0  0  0
 14 20  1  0  0  0  0
M  END
>  <cdx:fragmentId>
521

$$$$
