113.cdx
  Mrv1902 05222410182D          

 13 13  0  0  0  0            999 V2000
    4.6233   -2.3719    0.0000 C   0  0  0  0  0  0  0  0  0  0  0  0
    4.6233   -3.1969    0.0000 C   0  0  0  0  0  0  0  0  0  0  0  0
    5.3377   -3.6094    0.0000 C   0  0  0  0  0  0  0  0  0  0  0  0
    6.0522   -3.1969    0.0000 C   0  0  0  0  0  0  0  0  0  0  0  0
    6.0522   -2.3719    0.0000 C   0  0  0  0  0  0  0  0  0  0  0  0
    5.3377   -1.9594    0.0000 C   0  0  0  0  0  0  0  0  0  0  0  0
    6.7667   -1.9594    0.0000 C   0  0  0  0  0  0  0  0  0  0  0  0
    7.4812   -2.3719    0.0000 C   0  0  0  0  0  0  0  0  0  0  0  0
    8.1956   -1.9594    0.0000 C   0  0  0  0  0  0  0  0  0  0  0  0
    8.9101   -2.3719    0.0000 O   0  0  0  0  0  0  0  0  0  0  0  0
    3.9088   -3.6094    0.0000 O   0  0  0  0  0  0  0  0  0  0  0  0
    8.1956   -1.1344    0.0000 O   0  0  0  0  0  0  0  0  0  0  0  0
    3.9088   -1.9594    0.0000 O   0  0  0  0  0  0  0  0  0  0  0  0
  1  2  2  0  0  0  0
  2  3  1  0  0  0  0
  3  4  2  0  0  0  0
  4  5  1  0  0  0  0
  5  6  2  0  0  0  0
  6  1  1  0  0  0  0
  5  7  1  0  0  0  0
  8  9  1  0  0  0  0
  9 10  1  0  0  0  0
  2 11  1  0  0  0  0
  9 12  2  0  0  0  0
  7  8  2  0  0  0  0
  1 13  1  0  0  0  0
M  END
>  <cdx:fragmentId>
95

$$$$
