11300.cdx
  Mrv1902 05222410202D          

 28 31  0  0  0  0            999 V2000
    4.9945   -5.5069    0.0000 C   0  0  0  0  0  0  0  0  0  0  0  0
    4.9945   -6.3319    0.0000 C   0  0  0  0  0  0  0  0  0  0  0  0
    5.7090   -6.7444    0.0000 C   0  0  0  0  0  0  0  0  0  0  0  0
    6.4235   -6.3319    0.0000 C   0  0  0  0  0  0  0  0  0  0  0  0
    6.4235   -5.5069    0.0000 C   0  0  0  0  0  0  0  0  0  0  0  0
    5.7090   -5.0944    0.0000 C   0  0  0  0  0  0  0  0  0  0  0  0
    7.1379   -6.7444    0.0000 C   0  0  0  0  0  0  0  0  0  0  0  0
    7.8524   -6.3319    0.0000 C   0  0  0  0  0  0  0  0  0  0  0  0
    7.8524   -5.5069    0.0000 C   0  0  0  0  0  0  0  0  0  0  0  0
    7.1379   -5.0944    0.0000 O   0  0  0  0  0  0  0  0  0  0  0  0
    7.3095   -7.5513    0.0000 O   0  0  0  0  0  0  0  0  0  0  0  0
    8.1299   -7.6376    0.0000 C   0  0  0  0  0  0  0  0  0  0  0  0
    8.4655   -6.8839    0.0000 C   0  0  0  0  0  0  0  0  0  0  0  0
    8.6149   -8.3050    0.0000 C   0  0  0  0  0  0  0  0  0  0  0  0
    9.4354   -8.2188    0.0000 C   0  0  0  0  0  0  0  0  0  0  0  0
    9.7709   -7.4651    0.0000 C   0  0  0  0  0  0  0  0  0  0  0  0
    9.2860   -6.7977    0.0000 C   0  0  0  0  0  0  0  0  0  0  0  0
    9.8479   -8.9333    0.0000 O   0  0  0  0  0  0  0  0  0  0  0  0
    8.5669   -5.0944    0.0000 O   0  0  0  0  0  0  0  0  0  0  0  0
    4.2801   -5.0944    0.0000 O   0  0  0  0  0  0  0  0  0  0  0  0
    5.7090   -7.5694    0.0000 O   0  0  0  0  0  0  0  0  0  0  0  0
    6.4235   -7.9819    0.0000 C   0  0  0  0  0  0  0  0  0  0  0  0
    4.2801   -6.7444    0.0000 C   0  0  0  0  0  0  0  0  0  0  0  0
    3.5656   -6.3319    0.0000 C   0  0  0  0  0  0  0  0  0  0  0  0
    2.8511   -6.7444    0.0000 C   0  0  0  0  0  0  0  0  0  0  0  0
    2.1366   -6.3319    0.0000 O   0  0  0  0  0  0  0  0  0  0  0  0
    2.4386   -7.4588    0.0000 C   0  0  0  0  0  0  0  0  0  0  0  0
    3.2636   -7.4588    0.0000 C   0  0  0  0  0  0  0  0  0  0  0  0
  1  2  2  0  0  0  0
  2  3  1  0  0  0  0
  3  4  2  0  0  0  0
  4  5  1  0  0  0  0
  5  6  2  0  0  0  0
  6  1  1  0  0  0  0
  4  7  1  0  0  0  0
  7  8  2  0  0  0  0
  8  9  1  0  0  0  0
  9 10  1  0  0  0  0
 10  5  1  0  0  0  0
  7 11  1  0  0  0  0
 11 12  1  0  0  0  0
 12 13  2  0  0  0  0
 13  8  1  0  0  0  0
 12 14  1  0  0  0  0
 14 15  2  0  0  0  0
 15 16  1  0  0  0  0
 16 17  2  0  0  0  0
 17 13  1  0  0  0  0
 15 18  1  0  0  0  0
  9 19  2  0  0  0  0
  1 20  1  0  0  0  0
  3 21  1  0  0  0  0
 21 22  1  0  0  0  0
  2 23  1  0  0  0  0
 23 24  1  0  0  0  0
 24 25  1  0  0  0  0
 25 26  1  0  0  0  0
 25 27  1  0  0  0  0
 25 28  1  0  0  0  0
M  END
>  <cdx:fragmentId>
5

$$$$
