11305.cdx
  Mrv1902 05222410182D          

 26 28  0  0  0  0            999 V2000
   11.3529   -3.5365    0.0000 C   0  0  0  0  0  0  0  0  0  0  0  0
   11.3529   -4.3615    0.0000 C   0  0  0  0  0  0  0  0  0  0  0  0
   10.6385   -4.7740    0.0000 C   0  0  0  0  0  0  0  0  0  0  0  0
    9.9240   -4.3615    0.0000 C   0  0  0  0  0  0  0  0  0  0  0  0
    9.2095   -4.7740    0.0000 C   0  0  0  0  0  0  0  0  0  0  0  0
    9.2095   -5.5990    0.0000 C   0  0  0  0  0  0  0  0  0  0  0  0
    8.4951   -6.0115    0.0000 C   0  0  0  0  0  0  0  0  0  0  0  0
    7.7805   -5.5990    0.0000 C   0  0  0  0  0  0  0  0  0  0  0  0
    7.7805   -4.7740    0.0000 C   0  0  0  0  0  0  0  0  0  0  0  0
    8.4951   -4.3615    0.0000 C   0  0  0  0  0  0  0  0  0  0  0  0
    7.0661   -4.3615    0.0000 C   0  0  0  0  0  0  0  0  0  0  0  0
    7.0661   -3.5365    0.0000 C   0  0  0  0  0  0  0  0  0  0  0  0
    6.3516   -3.1240    0.0000 O   0  0  0  0  0  0  0  0  0  0  0  0
    5.6371   -3.5365    0.0000 C   0  0  0  0  0  0  0  0  0  0  0  0
    4.9227   -3.1240    0.0000 C   0  0  0  0  0  0  0  0  0  0  0  0
    4.2082   -3.5365    0.0000 C   0  0  0  0  0  0  0  0  0  0  0  0
    4.2082   -4.3615    0.0000 C   0  0  0  0  0  0  0  0  0  0  0  0
    4.9227   -4.7740    0.0000 C   0  0  0  0  0  0  0  0  0  0  0  0
    5.6371   -4.3615    0.0000 C   0  0  0  0  0  0  0  0  0  0  0  0
    6.3516   -4.7740    0.0000 C   0  0  0  0  0  0  0  0  0  0  0  0
    6.3516   -5.5990    0.0000 O   0  0  0  0  0  0  0  0  0  0  0  0
    4.9227   -5.5990    0.0000 O   0  0  0  0  0  0  0  0  0  0  0  0
    3.4937   -3.1240    0.0000 O   0  0  0  0  0  0  0  0  0  0  0  0
    8.4951   -6.8365    0.0000 O   0  0  0  0  0  0  0  0  0  0  0  0
    9.9240   -6.0115    0.0000 O   0  0  0  0  0  0  0  0  0  0  0  0
   12.0674   -4.7740    0.0000 C   0  0  0  0  0  0  0  0  0  0  0  0
  1  2  1  0  0  0  0
  2  3  2  0  0  0  0
  3  4  1  0  0  0  0
  4  5  1  0  0  0  0
  5  6  2  0  0  0  0
  6  7  1  0  0  0  0
  7  8  2  0  0  0  0
  8  9  1  0  0  0  0
  9 10  2  0  0  0  0
  5 10  1  0  0  0  0
  9 11  1  0  0  0  0
 11 12  2  0  0  0  0
 12 13  1  0  0  0  0
 13 14  1  0  0  0  0
 14 15  2  0  0  0  0
 15 16  1  0  0  0  0
 16 17  2  0  0  0  0
 17 18  1  0  0  0  0
 18 19  2  0  0  0  0
 14 19  1  0  0  0  0
 19 20  1  0  0  0  0
 11 20  1  0  0  0  0
 20 21  2  0  0  0  0
 18 22  1  0  0  0  0
 16 23  1  0  0  0  0
  7 24  1  0  0  0  0
  6 25  1  0  0  0  0
  2 26  1  0  0  0  0
M  END
>  <cdx:fragmentId>
8333

$$$$
