11308.cdx
  Mrv1902 05222410282D          

 15 15  0  0  0  0            999 V2000
    5.9366   -3.9701    0.0000 C   0  0  0  0  0  0  0  0  0  0  0  0
    5.2221   -4.3826    0.0000 C   0  0  0  0  0  0  0  0  0  0  0  0
    4.5076   -3.9701    0.0000 C   0  0  0  0  0  0  0  0  0  0  0  0
    3.7932   -4.3826    0.0000 C   0  0  0  0  0  0  0  0  0  0  0  0
    3.7932   -5.2076    0.0000 C   0  0  0  0  0  0  0  0  0  0  0  0
    4.5076   -5.6201    0.0000 C   0  0  0  0  0  0  0  0  0  0  0  0
    5.2221   -5.2076    0.0000 C   0  0  0  0  0  0  0  0  0  0  0  0
    5.9366   -3.1451    0.0000 O   0  0  0  0  0  0  0  0  0  0  0  0
    6.6511   -4.3826    0.0000 O   0  0  0  0  0  0  0  0  0  0  0  0
    4.5076   -3.1451    0.0000 O   0  0  0  0  0  0  0  0  0  0  0  0
    3.7932   -2.7326    0.0000 C   0  0  0  0  0  0  0  0  0  0  0  0
    3.0787   -3.9701    0.0000 O   0  0  0  0  0  0  0  0  0  0  0  0
    2.3642   -4.3826    0.0000 C   0  0  0  0  0  0  0  0  0  0  0  0
    3.0787   -5.6201    0.0000 O   0  0  0  0  0  0  0  0  0  0  0  0
    2.3642   -5.2076    0.0000 C   0  0  0  0  0  0  0  0  0  0  0  0
  1  2  1  0  0  0  0
  2  3  1  0  0  0  0
  3  4  2  0  0  0  0
  4  5  1  0  0  0  0
  5  6  2  0  0  0  0
  6  7  1  0  0  0  0
  2  7  2  0  0  0  0
  1  8  2  0  0  0  0
  1  9  1  0  0  0  0
 10 11  1  0  0  0  0
  3 10  1  0  0  0  0
 12 13  1  0  0  0  0
  4 12  1  0  0  0  0
 14 15  1  0  0  0  0
  5 14  1  0  0  0  0
M  END
>  <cdx:groupId>
47

>  <cdx:fragmentId>
5

$$$$
