1131.cdx
  Mrv1902 05222410202D          

 32 35  0  0  0  0            999 V2000
    9.7864   -6.3113    0.0000 C   0  0  0  0  0  0  0  0  0  0  0  0
    9.7864   -7.1362    0.0000 C   0  0  0  0  0  0  0  0  0  0  0  0
    9.0720   -7.5488    0.0000 C   0  0  0  0  0  0  0  0  0  0  0  0
    8.3575   -7.1362    0.0000 C   0  0  0  0  0  0  0  0  0  0  0  0
    8.3575   -6.3113    0.0000 C   0  0  0  0  0  0  0  0  0  0  0  0
    9.0720   -5.8988    0.0000 C   0  0  0  0  0  0  0  0  0  0  0  0
    9.0720   -5.0737    0.0000 O   0  0  0  0  0  0  0  0  0  0  0  0
   10.5009   -7.5488    0.0000 O   0  0  0  0  0  0  0  0  0  0  0  0
    7.6430   -7.5488    0.0000 C   0  0  2  0  0  0  0  0  0  0  0  0
    7.5568   -8.3692    0.0000 C   0  0  2  0  0  0  0  0  0  0  0  0
    6.7498   -8.5408    0.0000 C   0  0  2  0  0  0  0  0  0  0  0  0
    6.3373   -7.8263    0.0000 C   0  0  0  0  0  0  0  0  0  0  0  0
    6.8893   -7.2132    0.0000 O   0  0  0  0  0  0  0  0  0  0  0  0
    7.9693   -9.0837    0.0000 C   0  0  0  0  0  0  0  0  0  0  0  0
    7.4172   -9.6968    0.0000 O   0  0  0  0  0  0  0  0  0  0  0  0
    6.6636   -9.3612    0.0000 C   0  0  2  0  0  0  0  0  0  0  0  0
    8.3537   -8.1557    0.0000 H   0  0  0  0  0  0  0  0  0  0  0  0
    5.9529   -8.7543    0.0000 H   0  0  0  0  0  0  0  0  0  0  0  0
    5.9491   -9.7737    0.0000 C   0  0  0  0  0  0  0  0  0  0  0  0
    5.9491  -10.5987    0.0000 C   0  0  0  0  0  0  0  0  0  0  0  0
    5.2346  -11.0112    0.0000 C   0  0  0  0  0  0  0  0  0  0  0  0
    4.5202  -10.5987    0.0000 C   0  0  0  0  0  0  0  0  0  0  0  0
    4.5202   -9.7737    0.0000 C   0  0  0  0  0  0  0  0  0  0  0  0
    5.2346   -9.3612    0.0000 C   0  0  0  0  0  0  0  0  0  0  0  0
    5.2346  -11.8362    0.0000 O   0  0  0  0  0  0  0  0  0  0  0  0
    3.8057  -11.0112    0.0000 O   0  0  0  0  0  0  0  0  0  0  0  0
    3.8057   -9.3612    0.0000 O   0  0  0  0  0  0  0  0  0  0  0  0
    8.3575   -4.6612    0.0000 C   0  0  0  0  0  0  0  0  0  0  0  0
   11.2154   -7.1362    0.0000 C   0  0  0  0  0  0  0  0  0  0  0  0
    3.0912   -9.7737    0.0000 C   0  0  0  0  0  0  0  0  0  0  0  0
    3.8057  -11.8362    0.0000 C   0  0  0  0  0  0  0  0  0  0  0  0
    5.9491  -12.2487    0.0000 C   0  0  0  0  0  0  0  0  0  0  0  0
  1  2  2  0  0  0  0
  2  3  1  0  0  0  0
  3  4  2  0  0  0  0
  4  5  1  0  0  0  0
  5  6  2  0  0  0  0
  6  1  1  0  0  0  0
  6  7  1  0  0  0  0
  2  8  1  0  0  0  0
  9  4  1  6  0  0  0
  9 10  1  0  0  0  0
 10 11  1  0  0  0  0
 11 12  1  0  0  0  0
 12 13  1  0  0  0  0
 13  9  1  0  0  0  0
 10 14  1  0  0  0  0
 14 15  1  0  0  0  0
 15 16  1  0  0  0  0
 16 11  1  0  0  0  0
 10 17  1  6  0  0  0
 11 18  1  6  0  0  0
 16 19  1  6  0  0  0
 19 20  2  0  0  0  0
 20 21  1  0  0  0  0
 21 22  2  0  0  0  0
 22 23  1  0  0  0  0
 23 24  2  0  0  0  0
 24 19  1  0  0  0  0
 21 25  1  0  0  0  0
 22 26  1  0  0  0  0
 23 27  1  0  0  0  0
  7 28  1  0  0  0  0
  8 29  1  0  0  0  0
 27 30  1  0  0  0  0
 26 31  1  0  0  0  0
 25 32  1  0  0  0  0
M  END
>  <cdx:fragmentId>
5

$$$$
