11319.cdx
  Mrv1902 05222410262D          

 28 31  0  0  0  0            999 V2000
    7.9784   -6.7268    0.0000 C   0  0  0  0  0  0  0  0  0  0  0  0
    7.1539   -6.6983    0.0000 C   0  0  0  0  0  0  0  0  0  0  0  0
    6.5508   -7.2613    0.0000 C   0  0  0  0  0  0  0  0  0  0  0  0
    6.5224   -8.0858    0.0000 C   0  0  0  0  0  0  0  0  0  0  0  0
    7.0853   -8.6889    0.0000 C   0  0  0  0  0  0  0  0  0  0  0  0
    7.9098   -8.7173    0.0000 C   0  0  0  0  0  0  0  0  0  0  0  0
    8.5129   -8.1544    0.0000 C   0  0  2  0  0  0  0  0  0  0  0  0
    8.5413   -7.3299    0.0000 C   0  0  1  0  0  0  0  0  0  0  0  0
    5.7186   -8.2717    0.0000 C   0  0  0  0  0  0  0  0  0  0  0  0
    5.4777   -9.0608    0.0000 C   0  0  0  0  0  0  0  0  0  0  0  0
    6.0407   -9.6639    0.0000 C   0  0  0  0  0  0  0  0  0  0  0  0
    6.8444   -9.4779    0.0000 C   0  0  0  0  0  0  0  0  0  0  0  0
    6.9679   -5.8946    0.0000 C   0  0  0  0  0  0  0  0  0  0  0  0
    6.1789   -5.6537    0.0000 C   0  0  0  0  0  0  0  0  0  0  0  0
    5.5758   -6.2166    0.0000 C   0  0  0  0  0  0  0  0  0  0  0  0
    5.7617   -7.0204    0.0000 C   0  0  0  0  0  0  0  0  0  0  0  0
    5.9929   -4.8499    0.0000 O   0  0  0  0  0  0  0  0  0  0  0  0
    6.5961   -4.2870    0.0000 C   0  0  0  0  0  0  0  0  0  0  0  0
    4.7867   -5.9758    0.0000 O   0  0  0  0  0  0  0  0  0  0  0  0
    4.6008   -5.1720    0.0000 C   0  0  0  0  0  0  0  0  0  0  0  0
    5.0335   -7.4080    0.0000 O   0  0  0  0  0  0  0  0  0  0  0  0
    5.0188   -7.8348    0.0000 O   0  0  0  0  0  0  0  0  0  0  0  0
    4.2905   -8.2225    0.0000 C   0  0  0  0  0  0  0  0  0  0  0  0
    4.7302   -9.4098    0.0000 O   0  0  0  0  0  0  0  0  0  0  0  0
    4.8311  -10.2286    0.0000 C   0  0  0  0  0  0  0  0  0  0  0  0
    5.6410  -10.3856    0.0000 O   0  0  0  0  0  0  0  0  0  0  0  0
    9.2696   -6.9422    0.0000 C   0  0  0  0  0  0  0  0  0  0  0  0
    9.2127   -8.5912    0.0000 C   0  0  0  0  0  0  0  0  0  0  0  0
  1  2  1  0  0  0  0
  2  3  2  0  0  0  0
  3  4  1  0  0  0  0
  4  5  2  0  0  0  0
  5  6  1  0  0  0  0
  6  7  1  0  0  0  0
  7  8  1  0  0  0  0
  8  1  1  0  0  0  0
  4  9  1  0  0  0  0
  9 10  2  0  0  0  0
 10 11  1  0  0  0  0
 11 12  2  0  0  0  0
 12  5  1  0  0  0  0
  2 13  1  0  0  0  0
 13 14  2  0  0  0  0
 14 15  1  0  0  0  0
 15 16  2  0  0  0  0
 16  3  1  0  0  0  0
 14 17  1  0  0  0  0
 17 18  1  0  0  0  0
 15 19  1  0  0  0  0
 19 20  1  0  0  0  0
 16 21  1  0  0  0  0
  9 22  1  0  0  0  0
 22 23  1  0  0  0  0
 10 24  1  0  0  0  0
 24 25  1  0  0  0  0
 25 26  1  0  0  0  0
 26 11  1  0  0  0  0
  8 27  1  6  0  0  0
  7 28  1  6  0  0  0
M  END
>  <cdx:fragmentId>
5

$$$$
