11318.cdx
  Mrv1902 05222410262D          

 30 32  0  0  0  0            999 V2000
    2.8702   -5.9194    0.0000 C   0  0  0  0  0  0  0  0  0  0  0  0
    2.8702   -6.7444    0.0000 C   0  0  0  0  0  0  0  0  0  0  0  0
    3.5846   -7.1569    0.0000 C   0  0  0  0  0  0  0  0  0  0  0  0
    4.2991   -6.7444    0.0000 C   0  0  0  0  0  0  0  0  0  0  0  0
    4.2991   -5.9194    0.0000 C   0  0  0  0  0  0  0  0  0  0  0  0
    3.5846   -5.5069    0.0000 C   0  0  0  0  0  0  0  0  0  0  0  0
    5.0136   -5.5069    0.0000 C   0  0  0  0  0  0  0  0  0  0  0  0
    5.0136   -4.6819    0.0000 C   0  0  0  0  0  0  0  0  0  0  0  0
    3.5846   -4.6819    0.0000 O   0  0  0  0  0  0  0  0  0  0  0  0
    6.4425   -4.6819    0.0000 C   0  0  0  0  0  0  0  0  0  0  0  0
    5.7280   -4.2694    0.0000 C   0  0  0  0  0  0  0  0  0  0  0  0
    3.5846   -7.9819    0.0000 C   0  0  0  0  0  0  0  0  0  0  0  0
    4.2991   -8.3944    0.0000 C   0  0  0  0  0  0  0  0  0  0  0  0
    4.2991   -9.2194    0.0000 C   0  0  0  0  0  0  0  0  0  0  0  0
    5.0136   -9.6319    0.0000 C   0  0  0  0  0  0  0  0  0  0  0  0
    5.7280   -9.2194    0.0000 C   0  0  0  0  0  0  0  0  0  0  0  0
    5.0136  -10.4569    0.0000 C   0  0  0  0  0  0  0  0  0  0  0  0
    5.7280  -10.8694    0.0000 C   0  0  0  0  0  0  0  0  0  0  0  0
    6.4425  -10.4569    0.0000 C   0  0  0  0  0  0  0  0  0  0  0  0
    6.4425   -9.6319    0.0000 C   0  0  0  0  0  0  0  0  0  0  0  0
    7.1570  -10.8694    0.0000 O   0  0  0  0  0  0  0  0  0  0  0  0
    7.8715  -10.4569    0.0000 C   0  0  0  0  0  0  0  0  0  0  0  0
    7.8715   -9.6319    0.0000 C   0  0  0  0  0  0  0  0  0  0  0  0
    7.1570   -9.2194    0.0000 C   0  0  0  0  0  0  0  0  0  0  0  0
    5.7280   -3.4444    0.0000 C   0  0  0  0  0  0  0  0  0  0  0  0
    2.8702   -8.3944    0.0000 O   0  0  0  0  0  0  0  0  0  0  0  0
    3.5846   -9.6319    0.0000 O   0  0  0  0  0  0  0  0  0  0  0  0
    4.2991  -10.8694    0.0000 O   0  0  0  0  0  0  0  0  0  0  0  0
    8.6965  -10.4569    0.0000 C   0  0  0  0  0  0  0  0  0  0  0  0
    8.2840  -11.1713    0.0000 C   0  0  0  0  0  0  0  0  0  0  0  0
  1  2  2  0  0  0  0
  2  3  1  0  0  0  0
  3  4  2  0  0  0  0
  4  5  1  0  0  0  0
  5  6  2  0  0  0  0
  6  1  1  0  0  0  0
  5  7  1  0  0  0  0
  7  8  1  0  0  0  0
  9  6  1  0  0  0  0
 10 11  1  0  0  0  0
 11  8  2  0  0  0  0
  3 12  1  0  0  0  0
 12 13  1  0  0  0  0
 13 14  1  0  0  0  0
 14 15  1  0  0  0  0
 15 16  1  0  0  0  0
 15 17  2  0  0  0  0
 17 18  1  0  0  0  0
 18 19  2  0  0  0  0
 19 20  1  0  0  0  0
 20 16  2  0  0  0  0
 19 21  1  0  0  0  0
 21 22  1  0  0  0  0
 22 23  1  0  0  0  0
 23 24  2  0  0  0  0
 24 20  1  0  0  0  0
 11 25  1  0  0  0  0
 12 26  2  0  0  0  0
 14 27  2  0  0  0  0
 17 28  1  0  0  0  0
 22 29  1  0  0  0  0
 22 30  1  0  0  0  0
M  END
>  <cdx:fragmentId>
5

$$$$
