1132.cdx
  Mrv1902 05222410192D          

 16 17  0  0  0  0            999 V2000
    7.1176   -6.5532    0.0000 C   0  0  0  0  0  0  0  0  0  0  0  0
    6.4036   -6.1400    0.0000 C   0  0  0  0  0  0  0  0  0  0  0  0
    6.4043   -5.3150    0.0000 C   0  0  2  0  0  0  0  0  0  0  0  0
    7.1192   -4.9032    0.0000 C   0  0  0  0  0  0  0  0  0  0  0  0
    7.8333   -5.3163    0.0000 C   0  0  1  0  0  0  0  0  0  0  0  0
    8.5481   -4.9045    0.0000 C   0  0  0  0  0  0  0  0  0  0  0  0
    9.2622   -5.3177    0.0000 C   0  0  0  0  0  0  0  0  0  0  0  0
    9.2614   -6.1427    0.0000 C   0  0  0  0  0  0  0  0  0  0  0  0
    8.5466   -6.5545    0.0000 C   0  0  0  0  0  0  0  0  0  0  0  0
    7.8325   -6.1413    0.0000 C   0  0  2  0  0  0  0  0  0  0  0  0
    5.6910   -4.0768    0.0000 C   0  0  0  0  0  0  0  0  0  0  0  0
    5.6902   -4.9018    0.0000 C   0  0  0  0  0  0  0  0  0  0  0  0
    4.9754   -5.3137    0.0000 C   0  0  0  0  0  0  0  0  0  0  0  0
    8.5489   -4.0795    0.0000 C   0  0  0  0  0  0  0  0  0  0  0  0
    7.8317   -6.9663    0.0000 C   0  0  0  0  0  0  0  0  0  0  0  0
    7.8340   -4.4913    0.0000 H   0  0  0  0  0  0  0  0  0  0  0  0
  1  2  1  0  0  0  0
  2  3  1  0  0  0  0
  3  4  1  0  0  0  0
  4  5  1  0  0  0  0
  5  6  1  0  0  0  0
  6  7  1  0  0  0  0
  7  8  1  0  0  0  0
  8  9  1  0  0  0  0
  9 10  1  0  0  0  0
  1 10  1  0  0  0  0
  5 10  1  0  0  0  0
 11 12  2  0  0  0  0
 12 13  1  0  0  0  0
  3 12  1  1  0  0  0
  6 14  2  0  0  0  0
 10 15  1  1  0  0  0
  5 16  1  6  0  0  0
M  END
>  <cdx:fragmentId>
62

$$$$
