11324.cdx
  Mrv1902 05222410262D          

 24 27  0  0  0  0            999 V2000
    3.4432   -7.8690    0.0000 C   0  0  0  0  0  0  0  0  0  0  0  0
    3.1882   -8.6536    0.0000 C   0  0  0  0  0  0  0  0  0  0  0  0
    3.7403   -9.2667    0.0000 C   0  0  0  0  0  0  0  0  0  0  0  0
    4.5472   -9.0952    0.0000 C   0  0  0  0  0  0  0  0  0  0  0  0
    5.4696   -7.1545    0.0000 C   0  0  0  0  0  0  0  0  0  0  0  0
    4.6626   -6.9830    0.0000 N   0  0  0  0  0  0  0  0  0  0  0  0
    4.2501   -7.6975    0.0000 C   0  0  0  0  0  0  0  0  0  0  0  0
    4.8022   -8.3106    0.0000 C   0  0  0  0  0  0  0  0  0  0  0  0
    5.5558   -7.9750    0.0000 C   0  0  0  0  0  0  0  0  0  0  0  0
    6.2703   -8.3875    0.0000 C   0  0  0  0  0  0  0  0  0  0  0  0
    6.9848   -7.9750    0.0000 C   0  0  0  0  0  0  0  0  0  0  0  0
    6.9848   -9.6250    0.0000 O   0  0  0  0  0  0  0  0  0  0  0  0
    8.4137   -7.1500    0.0000 O   0  0  0  0  0  0  0  0  0  0  0  0
    8.4137  -10.4500    0.0000 C   0  0  0  0  0  0  0  0  0  0  0  0
    8.4137   -7.9750    0.0000 C   0  0  0  0  0  0  0  0  0  0  0  0
    7.6993   -8.3875    0.0000 N   0  0  0  0  0  0  0  0  0  0  0  0
    7.6993   -9.2125    0.0000 C   0  0  0  0  0  0  0  0  0  0  0  0
    8.4137   -9.6250    0.0000 N   0  0  0  0  0  0  0  0  0  0  0  0
    9.8427   -7.9750    0.0000 C   0  0  0  0  0  0  0  0  0  0  0  0
    9.1282   -8.3875    0.0000 C   0  0  0  0  0  0  0  0  0  0  0  0
    9.1282   -9.2125    0.0000 C   0  0  0  0  0  0  0  0  0  0  0  0
    9.8427   -9.6250    0.0000 C   0  0  0  0  0  0  0  0  0  0  0  0
   10.5571   -9.2125    0.0000 C   0  0  0  0  0  0  0  0  0  0  0  0
   10.5571   -8.3875    0.0000 C   0  0  0  0  0  0  0  0  0  0  0  0
  1  7  1  0  0  0  0
  2  1  2  0  0  0  0
  3  2  1  0  0  0  0
  4  3  2  0  0  0  0
  8  4  1  0  0  0  0
  5  9  2  0  0  0  0
  6  5  1  0  0  0  0
  7  6  1  0  0  0  0
  8  7  2  0  0  0  0
  9  8  1  0  0  0  0
 10  9  1  0  0  0  0
 11 10  1  0  0  0  0
 16 11  1  0  0  0  0
 17 12  2  0  0  0  0
 15 13  2  0  0  0  0
 18 14  1  0  0  0  0
 15 20  1  0  0  0  0
 16 15  1  0  0  0  0
 17 16  1  0  0  0  0
 18 17  1  0  0  0  0
 21 18  1  0  0  0  0
 19 24  1  0  0  0  0
 20 19  2  0  0  0  0
 21 20  1  0  0  0  0
 22 21  2  0  0  0  0
 23 22  1  0  0  0  0
 24 23  2  0  0  0  0
M  END
>  <cdx:fragmentId>
5

$$$$
