11329.cdx
  Mrv1902 05222410202D          

 68 76  0  0  0  0            999 V2000
    2.9522   -4.9467    0.0000 C   0  0  0  0  0  0  0  0  0  0  0  0
    2.3972   -5.5571    0.0000 C   0  0  0  0  0  0  0  0  0  0  0  0
    2.6483   -6.3429    0.0000 C   0  0  0  0  0  0  0  0  0  0  0  0
    3.4544   -6.5184    0.0000 C   0  0  0  0  0  0  0  0  0  0  0  0
    4.0095   -5.9080    0.0000 C   0  0  0  0  0  0  0  0  0  0  0  0
    3.7583   -5.1221    0.0000 C   0  0  0  0  0  0  0  0  0  0  0  0
    3.7055   -7.3042    0.0000 C   0  0  0  0  0  0  0  0  0  0  0  0
    4.5117   -7.4797    0.0000 C   0  0  0  0  0  0  0  0  0  0  0  0
    5.4450   -6.8750    0.0000 C   0  0  0  0  0  0  0  0  0  0  0  0
    5.6585   -7.6719    0.0000 O   0  0  0  0  0  0  0  0  0  0  0  0
    2.0933   -6.9533    0.0000 O   0  0  0  0  0  0  0  0  0  0  0  0
    2.3444   -7.7392    0.0000 O   0  0  0  0  0  0  0  0  0  0  0  0
    3.1505   -7.9146    0.0000 C   0  0  0  0  0  0  0  0  0  0  0  0
    3.4016   -8.7005    0.0000 C   0  0  0  0  0  0  0  0  0  0  0  0
    4.2078   -8.8759    0.0000 C   0  0  0  0  0  0  0  0  0  0  0  0
    4.7628   -8.2655    0.0000 C   0  0  0  0  0  0  0  0  0  0  0  0
    2.7011   -4.1608    0.0000 O   0  0  0  0  0  0  0  0  0  0  0  0
    1.5911   -5.3816    0.0000 O   0  0  0  0  0  0  0  0  0  0  0  0
    2.8466   -9.3109    0.0000 O   0  0  0  0  0  0  0  0  0  0  0  0
    4.4589   -9.6618    0.0000 O   0  0  0  0  0  0  0  0  0  0  0  0
    5.1425   -5.8300    0.0000 C   0  0  0  0  0  0  0  0  0  0  0  0
    4.9290   -5.0331    0.0000 O   0  0  0  0  0  0  0  0  0  0  0  0
    7.3870   -4.8469    0.0000 C   0  0  2  0  0  0  0  0  0  0  0  0
    7.3870   -5.6719    0.0000 C   0  0  2  0  0  0  0  0  0  0  0  0
    8.1015   -6.0844    0.0000 C   0  0  1  0  0  0  0  0  0  0  0  0
    8.8160   -5.6719    0.0000 C   0  0  2  0  0  0  0  0  0  0  0  0
    8.8160   -4.8469    0.0000 C   0  0  1  0  0  0  0  0  0  0  0  0
    8.1015   -4.4344    0.0000 O   0  0  0  0  0  0  0  0  0  0  0  0
    8.1015   -6.9094    0.0000 O   0  0  0  0  0  0  0  0  0  0  0  0
    6.6726   -4.4344    0.0000 C   0  0  0  0  0  0  0  0  0  0  0  0
    9.5304   -4.4344    0.0000 O   0  0  0  0  0  0  0  0  0  0  0  0
    6.6726   -6.0844    0.0000 O   0  0  0  0  0  0  0  0  0  0  0  0
    9.5304   -6.0844    0.0000 O   0  0  0  0  0  0  0  0  0  0  0  0
    5.9581   -4.8469    0.0000 O   0  0  0  0  0  0  0  0  0  0  0  0
   10.2449   -4.8469    0.0000 C   0  0  0  0  0  0  0  0  0  0  0  0
   10.9594   -4.4344    0.0000 C   0  0  0  0  0  0  0  0  0  0  0  0
   10.2449   -5.6719    0.0000 O   0  0  0  0  0  0  0  0  0  0  0  0
   10.9594   -3.6094    0.0000 C   0  0  0  0  0  0  0  0  0  0  0  0
   11.6739   -3.1969    0.0000 C   0  0  0  0  0  0  0  0  0  0  0  0
   12.3883   -3.6094    0.0000 C   0  0  0  0  0  0  0  0  0  0  0  0
   12.3883   -4.4344    0.0000 C   0  0  0  0  0  0  0  0  0  0  0  0
   11.6739   -4.8469    0.0000 C   0  0  0  0  0  0  0  0  0  0  0  0
   13.1028   -4.8469    0.0000 O   0  0  0  0  0  0  0  0  0  0  0  0
   13.1028   -3.1969    0.0000 O   0  0  0  0  0  0  0  0  0  0  0  0
   11.6739   -2.3719    0.0000 O   0  0  0  0  0  0  0  0  0  0  0  0
    7.7199   -9.1185    0.0000 C   0  0  0  0  0  0  0  0  0  0  0  0
    7.4649   -9.9032    0.0000 C   0  0  0  0  0  0  0  0  0  0  0  0
    8.1324  -10.3881    0.0000 O   0  0  0  0  0  0  0  0  0  0  0  0
    8.7998   -9.9032    0.0000 C   0  0  0  0  0  0  0  0  0  0  0  0
    8.5449   -9.1185    0.0000 C   0  0  0  0  0  0  0  0  0  0  0  0
    9.6068  -10.0747    0.0000 C   0  0  0  0  0  0  0  0  0  0  0  0
   10.1588   -9.4616    0.0000 C   0  0  0  0  0  0  0  0  0  0  0  0
    9.9039   -8.6770    0.0000 C   0  0  0  0  0  0  0  0  0  0  0  0
    9.0969   -8.5054    0.0000 C   0  0  0  0  0  0  0  0  0  0  0  0
    7.1678   -8.5054    0.0000 C   0  0  0  0  0  0  0  0  0  0  0  0
    6.3609   -8.6770    0.0000 C   0  0  0  0  0  0  0  0  0  0  0  0
    6.1059   -9.4616    0.0000 C   0  0  0  0  0  0  0  0  0  0  0  0
    6.6579  -10.0747    0.0000 C   0  0  0  0  0  0  0  0  0  0  0  0
    5.3090   -9.6751    0.0000 O   0  0  0  0  0  0  0  0  0  0  0  0
    6.4444  -10.8716    0.0000 O   0  0  0  0  0  0  0  0  0  0  0  0
    7.5625   -7.7000    0.0000 C   0  0  0  0  0  0  0  0  0  0  0  0
    8.6625   -7.7275    0.0000 C   0  0  0  0  0  0  0  0  0  0  0  0
   10.9557   -9.6751    0.0000 O   0  0  0  0  0  0  0  0  0  0  0  0
    8.5863  -10.7000    0.0000 O   0  0  0  0  0  0  0  0  0  0  0  0
    9.3932  -10.8716    0.0000 O   0  0  0  0  0  0  0  0  0  0  0  0
   10.3212  -10.4872    0.0000 O   0  0  0  0  0  0  0  0  0  0  0  0
    6.5564   -7.7140    0.0000 O   0  0  0  0  0  0  0  0  0  0  0  0
    9.4875   -7.7275    0.0000 O   0  0  0  0  0  0  0  0  0  0  0  0
  1  2  2  0  0  0  0
  2  3  1  0  0  0  0
  3  4  2  0  0  0  0
  4  5  1  0  0  0  0
  5  6  2  0  0  0  0
  6  1  1  0  0  0  0
  4  7  1  0  0  0  0
  7  8  1  0  0  0  0
  8  9  1  0  0  0  0
  9 10  2  0  0  0  0
  3 11  1  0  0  0  0
 12 13  1  0  0  0  0
 13  7  2  0  0  0  0
 13 14  1  0  0  0  0
 14 15  2  0  0  0  0
 15 16  1  0  0  0  0
 16  8  2  0  0  0  0
  1 17  1  0  0  0  0
  2 18  1  0  0  0  0
 14 19  1  0  0  0  0
 15 20  1  0  0  0  0
  5 21  1  0  0  0  0
 21 22  2  0  0  0  0
 23 24  1  0  0  0  0
 24 25  1  0  0  0  0
 25 26  1  0  0  0  0
 26 27  1  0  0  0  0
 27 28  1  0  0  0  0
 28 23  1  0  0  0  0
 25 29  1  1  0  0  0
 23 30  1  1  0  0  0
 27 31  1  1  0  0  0
 24 32  1  6  0  0  0
 26 33  1  6  0  0  0
 30 34  1  0  0  0  0
 21 34  1  0  0  0  0
  9 29  1  0  0  0  0
 31 35  1  0  0  0  0
 35 36  1  0  0  0  0
 35 37  2  0  0  0  0
 36 38  2  0  0  0  0
 38 39  1  0  0  0  0
 39 40  2  0  0  0  0
 40 41  1  0  0  0  0
 41 42  2  0  0  0  0
 42 36  1  0  0  0  0
 41 43  1  0  0  0  0
 40 44  1  0  0  0  0
 39 45  1  0  0  0  0
 46 47  2  0  0  0  0
 47 48  1  0  0  0  0
 48 49  1  0  0  0  0
 49 50  1  0  0  0  0
 50 46  1  0  0  0  0
 49 51  1  0  0  0  0
 51 52  1  0  0  0  0
 52 53  1  0  0  0  0
 53 54  2  0  0  0  0
 54 50  1  0  0  0  0
 46 55  1  0  0  0  0
 55 56  2  0  0  0  0
 56 57  1  0  0  0  0
 57 58  2  0  0  0  0
 58 47  1  0  0  0  0
 57 59  1  0  0  0  0
 58 60  1  0  0  0  0
 55 61  1  0  0  0  0
 54 62  1  0  0  0  0
 52 63  2  0  0  0  0
 49 64  1  0  0  0  0
 51 65  1  0  0  0  0
 51 66  1  0  0  0  0
 33 62  1  0  0  0  0
 32 61  1  0  0  0  0
 61 67  2  0  0  0  0
 62 68  2  0  0  0  0
M  END
>  <cdx:fragmentId>
5

$$$$
