11327.cdx
  Mrv1902 05222410272D          

 12 13  0  0  0  0            999 V2000
    4.7290   -2.6939    0.0000 C   0  0  0  0  0  0  0  0  0  0  0  0
    5.4435   -3.1064    0.0000 C   0  0  0  0  0  0  0  0  0  0  0  0
    5.4435   -3.9314    0.0000 C   0  0  0  0  0  0  0  0  0  0  0  0
    4.7290   -4.3439    0.0000 C   0  0  0  0  0  0  0  0  0  0  0  0
    4.0146   -3.9314    0.0000 C   0  0  0  0  0  0  0  0  0  0  0  0
    3.3001   -4.3439    0.0000 C   0  0  0  0  0  0  0  0  0  0  0  0
    2.5856   -3.9314    0.0000 C   0  0  0  0  0  0  0  0  0  0  0  0
    2.5856   -3.1064    0.0000 C   0  0  0  0  0  0  0  0  0  0  0  0
    3.3001   -2.6939    0.0000 C   0  0  0  0  0  0  0  0  0  0  0  0
    4.0146   -3.1064    0.0000 C   0  0  0  0  0  0  0  0  0  0  0  0
    6.1580   -4.3439    0.0000 C   0  0  0  0  0  0  0  0  0  0  0  0
    4.7290   -1.8689    0.0000 C   0  0  0  0  0  0  0  0  0  0  0  0
  1  2  1  0  0  0  0
  2  3  2  0  0  0  0
  3  4  1  0  0  0  0
  4  5  2  0  0  0  0
  5  6  1  0  0  0  0
  6  7  2  0  0  0  0
  7  8  1  0  0  0  0
  8  9  2  0  0  0  0
  9 10  1  0  0  0  0
  1 10  2  0  0  0  0
  5 10  1  0  0  0  0
  3 11  1  0  0  0  0
  1 12  1  0  0  0  0
M  END
>  <cdx:groupId>
39

>  <cdx:fragmentId>
5

$$$$
