11321.cdx
  Mrv1902 05222410282D          

 30 32  0  0  0  0            999 V2000
    9.7634   -6.6517    0.0000 O   0  0  0  0  0  0  0  0  0  0  0  0
    5.0187   -3.8545    0.0000 C   0  0  0  0  0  0  0  0  0  0  0  0
    4.7487   -7.0746    0.0000 C   0  0  0  0  0  0  0  0  0  0  0  0
    9.6822   -5.6284    0.0000 C   0  0  0  0  0  0  0  0  0  0  0  0
    9.6809   -7.2777    0.0000 C   0  0  0  0  0  0  0  0  0  0  0  0
    6.1763   -3.7086    0.0000 O   0  0  0  0  0  0  0  0  0  0  0  0
    5.2314   -4.6516    0.0000 O   0  0  0  0  0  0  0  0  0  0  0  0
    4.7499   -5.8225    0.0000 C   0  0  0  0  0  0  0  0  0  0  0  0
    5.4640   -6.2357    0.0000 O   0  0  0  0  0  0  0  0  0  0  0  0
    5.4636   -6.6628    0.0000 O   0  0  0  0  0  0  0  0  0  0  0  0
    5.1662   -8.0854    0.0000 O   0  0  0  0  0  0  0  0  0  0  0  0
    6.9146   -9.8372    0.0000 C   0  0  0  0  0  0  0  0  0  0  0  0
    6.3318   -9.2533    0.0000 O   0  0  0  0  0  0  0  0  0  0  0  0
    6.1776   -7.0760    0.0000 C   0  0  0  0  0  0  0  0  0  0  0  0
    5.9633   -7.8727    0.0000 C   0  0  0  0  0  0  0  0  0  0  0  0
    6.5461   -8.4566    0.0000 C   0  0  0  0  0  0  0  0  0  0  0  0
    7.3432   -8.2439    0.0000 C   0  0  0  0  0  0  0  0  0  0  0  0
    7.3468   -4.6584    0.0000 C   0  0  0  0  0  0  0  0  0  0  0  0
    6.5501   -4.4441    0.0000 C   0  0  0  0  0  0  0  0  0  0  0  0
    5.9661   -5.0268    0.0000 C   0  0  0  0  0  0  0  0  0  0  0  0
    6.1789   -5.8239    0.0000 C   0  0  0  0  0  0  0  0  0  0  0  0
    8.9665   -6.8652    0.0000 C   0  0  2  0  0  0  0  0  0  0  0  0
    8.9673   -6.0402    0.0000 C   0  0  2  0  0  0  0  0  0  0  0  0
    8.3845   -5.4563    0.0000 C   0  0  0  0  0  0  0  0  0  0  0  0
    7.5595   -5.4555    0.0000 C   0  0  0  0  0  0  0  0  0  0  0  0
    6.9756   -6.0383    0.0000 C   0  0  0  0  0  0  0  0  0  0  0  0
    6.9747   -6.8632    0.0000 C   0  0  0  0  0  0  0  0  0  0  0  0
    7.5575   -7.4472    0.0000 C   0  0  0  0  0  0  0  0  0  0  0  0
    8.3825   -7.4480    0.0000 C   0  0  0  0  0  0  0  0  0  0  0  0
    6.6263   -3.0171    0.0000 C   0  0  0  0  0  0  0  0  0  0  0  0
 22  1  1  1  0  0  0
  7  2  1  0  0  0  0
 10  3  1  0  0  0  0
 23  4  1  6  0  0  0
 22  5  1  6  0  0  0
  6 19  1  0  0  0  0
 20  7  1  0  0  0  0
  9  8  1  0  0  0  0
 21  9  1  0  0  0  0
 14 10  1  0  0  0  0
 15 11  1  0  0  0  0
 13 12  1  0  0  0  0
 16 13  1  0  0  0  0
 14 27  1  0  0  0  0
 15 14  2  0  0  0  0
 16 15  1  0  0  0  0
 17 16  2  0  0  0  0
 28 17  1  0  0  0  0
 18 25  1  0  0  0  0
 19 18  2  0  0  0  0
 20 19  1  0  0  0  0
 21 20  2  0  0  0  0
 26 21  1  0  0  0  0
 22 29  1  0  0  0  0
 23 22  1  0  0  0  0
 24 23  1  0  0  0  0
 25 24  1  0  0  0  0
 26 25  2  0  0  0  0
 27 26  1  0  0  0  0
 28 27  2  0  0  0  0
 29 28  1  0  0  0  0
  6 30  1  0  0  0  0
M  END
>  <cdx:fragmentId>
5

$$$$
