11328.cdx
  Mrv1902 05222410202D          

 56 63  0  0  0  0            999 V2000
   10.6916   -9.3940    0.0000 O   0  0  0  0  0  0  0  0  0  0  0  0
   10.2983   -7.7916    0.0000 O   0  0  0  0  0  0  0  0  0  0  0  0
    8.9998   -7.3121    0.0000 O   0  0  0  0  0  0  0  0  0  0  0  0
    8.5253   -7.0246    0.0000 O   0  0  0  0  0  0  0  0  0  0  0  0
    7.4990   -6.0957    0.0000 O   0  0  0  0  0  0  0  0  0  0  0  0
    5.8966   -6.4891    0.0000 O   0  0  0  0  0  0  0  0  0  0  0  0
    6.5852  -12.4752    0.0000 O   0  0  0  0  0  0  0  0  0  0  0  0
    6.9869   -9.7375    0.0000 O   0  0  0  0  0  0  0  0  0  0  0  0
    8.5725  -10.8749    0.0000 O   0  0  0  0  0  0  0  0  0  0  0  0
    6.5774   -9.9792    0.0000 O   0  0  0  0  0  0  0  0  0  0  0  0
    6.5852  -11.6502    0.0000 C   0  0  0  0  0  0  0  0  0  0  0  0
    7.9785  -11.5860    0.0000 O   0  0  0  0  0  0  0  0  0  0  0  0
    5.8701  -11.2388    0.0000 C   0  0  0  0  0  0  0  0  0  0  0  0
    5.8762  -10.4138    0.0000 C   0  0  0  0  0  0  0  0  0  0  0  0
    5.2461   -9.8812    0.0000 C   0  0  0  0  0  0  0  0  0  0  0  0
    5.5579   -9.1174    0.0000 O   0  0  0  0  0  0  0  0  0  0  0  0
    6.3807   -9.1780    0.0000 C   0  0  0  0  0  0  0  0  0  0  0  0
    6.8082   -8.4723    0.0000 C   0  0  0  0  0  0  0  0  0  0  0  0
    6.2373   -7.8768    0.0000 C   0  0  0  0  0  0  0  0  0  0  0  0
    6.4675   -7.0846    0.0000 C   0  0  0  0  0  0  0  0  0  0  0  0
    7.2688   -6.8879    0.0000 C   0  0  0  0  0  0  0  0  0  0  0  0
    7.8397   -7.4835    0.0000 C   0  0  0  0  0  0  0  0  0  0  0  0
    7.6094   -8.2757    0.0000 C   0  0  0  0  0  0  0  0  0  0  0  0
    8.3150   -8.7032    0.0000 C   0  0  0  0  0  0  0  0  0  0  0  0
    8.9105   -8.1322    0.0000 C   0  0  0  0  0  0  0  0  0  0  0  0
    9.7028   -8.3625    0.0000 C   0  0  0  0  0  0  0  0  0  0  0  0
    9.8994   -9.1637    0.0000 C   0  0  0  0  0  0  0  0  0  0  0  0
    9.3039   -9.7347    0.0000 C   0  0  0  0  0  0  0  0  0  0  0  0
    8.5117   -9.5044    0.0000 C   0  0  0  0  0  0  0  0  0  0  0  0
    8.0842  -10.2100    0.0000 C   0  0  0  0  0  0  0  0  0  0  0  0
    7.2830  -10.4067    0.0000 C   0  0  0  0  0  0  0  0  0  0  0  0
    7.2961  -11.2316    0.0000 C   0  0  0  0  0  0  0  0  0  0  0  0
    8.3910  -12.3005    0.0000 C   0  0  0  0  0  0  0  0  0  0  0  0
    9.2160  -12.3005    0.0000 O   0  0  0  0  0  0  0  0  0  0  0  0
    5.1545  -11.6492    0.0000 O   0  0  0  0  0  0  0  0  0  0  0  0
    4.7420  -12.3637    0.0000 C   0  0  0  0  0  0  0  0  0  0  0  0
    3.9170  -12.3637    0.0000 O   0  0  0  0  0  0  0  0  0  0  0  0
    5.2138  -13.0727    0.0000 C   0  0  0  0  0  0  0  0  0  0  0  0
    4.4944  -13.4765    0.0000 C   0  0  0  0  0  0  0  0  0  0  0  0
    4.4845  -14.3015    0.0000 C   0  0  0  0  0  0  0  0  0  0  0  0
    5.1939  -14.7226    0.0000 C   0  0  0  0  0  0  0  0  0  0  0  0
    5.9133  -14.3187    0.0000 C   0  0  0  0  0  0  0  0  0  0  0  0
    5.9233  -13.4938    0.0000 C   0  0  0  0  0  0  0  0  0  0  0  0
    7.9785  -13.0975    0.0000 C   0  0  0  0  0  0  0  0  0  0  0  0
    7.2593  -13.5017    0.0000 C   0  0  0  0  0  0  0  0  0  0  0  0
    7.2498  -14.3266    0.0000 C   0  0  0  0  0  0  0  0  0  0  0  0
    7.9594  -14.7474    0.0000 C   0  0  0  0  0  0  0  0  0  0  0  0
    8.6786  -14.3432    0.0000 C   0  0  0  0  0  0  0  0  0  0  0  0
    8.6882  -13.5182    0.0000 C   0  0  0  0  0  0  0  0  0  0  0  0
    6.5353  -14.7391    0.0000 O   0  0  0  0  0  0  0  0  0  0  0  0
    6.2700  -15.2350    0.0000 O   0  0  0  0  0  0  0  0  0  0  0  0
    7.2450  -15.1516    0.0000 O   0  0  0  0  0  0  0  0  0  0  0  0
    9.3883  -14.7639    0.0000 O   0  0  0  0  0  0  0  0  0  0  0  0
    8.2837  -15.5060    0.0000 O   0  0  0  0  0  0  0  0  0  0  0  0
    5.1840  -15.5475    0.0000 O   0  0  0  0  0  0  0  0  0  0  0  0
    3.7651  -14.7053    0.0000 O   0  0  0  0  0  0  0  0  0  0  0  0
 27  1  1  0  0  0  0
 26  2  1  0  0  0  0
 25  3  1  0  0  0  0
 22  4  1  0  0  0  0
 21  5  1  0  0  0  0
 20  6  1  0  0  0  0
 11  7  1  0  0  0  0
 17  8  2  0  0  0  0
 30  9  2  0  0  0  0
 29 24  1  0  0  0  0
 23 18  1  0  0  0  0
 10 31  1  0  0  0  0
 14 10  1  0  0  0  0
 11 13  1  0  0  0  0
 32 11  1  0  0  0  0
 32 12  1  0  0  0  0
 14 13  1  0  0  0  0
 15 14  1  0  0  0  0
 16 15  1  0  0  0  0
 17 16  1  0  0  0  0
 18 17  1  0  0  0  0
 19 18  2  0  0  0  0
 20 19  1  0  0  0  0
 21 20  2  0  0  0  0
 22 21  1  0  0  0  0
 23 22  2  0  0  0  0
 24 23  1  0  0  0  0
 25 24  2  0  0  0  0
 26 25  1  0  0  0  0
 27 26  2  0  0  0  0
 28 27  1  0  0  0  0
 29 28  2  0  0  0  0
 30 29  1  0  0  0  0
 31 30  1  0  0  0  0
 32 31  1  0  0  0  0
 12 33  1  0  0  0  0
 33 34  2  0  0  0  0
 13 35  1  0  0  0  0
 35 36  1  0  0  0  0
 36 37  2  0  0  0  0
 36 38  1  0  0  0  0
 38 39  2  0  0  0  0
 39 40  1  0  0  0  0
 40 41  2  0  0  0  0
 41 42  1  0  0  0  0
 42 43  2  0  0  0  0
 43 38  1  0  0  0  0
 33 44  1  0  0  0  0
 44 45  1  0  0  0  0
 45 46  1  0  0  0  0
 46 47  1  0  0  0  0
 47 48  1  0  0  0  0
 48 49  1  0  0  0  0
 49 44  2  0  0  0  0
 45 43  1  0  0  0  0
 46 50  1  0  0  0  0
 42 51  1  0  0  0  0
 51 47  1  0  0  0  0
 46 52  1  0  0  0  0
 48 53  2  0  0  0  0
 47 54  1  0  0  0  0
 41 55  1  0  0  0  0
 40 56  1  0  0  0  0
M  END
>  <cdx:fragmentId>
285

$$$$
