11339.cdx
  Mrv1902 05222410182D          

 15 16  0  0  0  0            999 V2000
    6.0899   -7.3631    0.0000 C   0  0  0  0  0  0  0  0  0  0  0  0
    6.0899   -8.1881    0.0000 C   0  0  0  0  0  0  0  0  0  0  0  0
    6.7349   -8.7025    0.0000 C   0  0  0  0  0  0  0  0  0  0  0  0
    7.5393   -8.5189    0.0000 C   0  0  0  0  0  0  0  0  0  0  0  0
    7.8972   -7.7756    0.0000 C   0  0  0  0  0  0  0  0  0  0  0  0
    7.5393   -7.0323    0.0000 C   0  0  0  0  0  0  0  0  0  0  0  0
    6.7349   -6.8487    0.0000 C   0  0  0  0  0  0  0  0  0  0  0  0
    5.3053   -7.1082    0.0000 C   0  0  0  0  0  0  0  0  0  0  0  0
    4.8204   -7.7756    0.0000 C   0  0  0  0  0  0  0  0  0  0  0  0
    5.3053   -8.4431    0.0000 C   0  0  0  0  0  0  0  0  0  0  0  0
    5.0918   -9.2400    0.0000 C   0  0  0  0  0  0  0  0  0  0  0  0
    6.5214   -6.0519    0.0000 C   0  0  0  0  0  0  0  0  0  0  0  0
    8.1226   -9.1023    0.0000 C   0  0  0  0  0  0  0  0  0  0  0  0
    7.9091   -9.8992    0.0000 C   0  0  0  0  0  0  0  0  0  0  0  0
    8.9476   -9.1023    0.0000 C   0  0  0  0  0  0  0  0  0  0  0  0
  1  2  1  0  0  0  0
  2  3  1  0  0  0  0
  3  4  1  0  0  0  0
  4  5  1  0  0  0  0
  5  6  1  0  0  0  0
  6  7  1  0  0  0  0
  7  1  1  0  0  0  0
  1  8  1  0  0  0  0
  8  9  1  0  0  0  0
  9 10  1  0  0  0  0
 10  2  1  0  0  0  0
 10 11  1  0  0  0  0
  7 12  2  0  0  0  0
  4 13  1  0  0  0  0
 13 14  1  0  0  0  0
 13 15  2  0  0  0  0
M  END
>  <cdx:fragmentId>
5

$$$$
