11349.cdx
  Mrv1902 05222410222D          

 18 20  0  0  0  0            999 V2000
    3.8181   -3.7067    0.0000 C   0  0  0  0  0  0  0  0  0  0  0  0
    3.8181   -4.5317    0.0000 C   0  0  0  0  0  0  0  0  0  0  0  0
    3.1036   -4.9442    0.0000 C   0  0  0  0  0  0  0  0  0  0  0  0
    3.1036   -5.7692    0.0000 O   0  0  0  0  0  0  0  0  0  0  0  0
    2.3892   -4.5317    0.0000 C   0  0  0  0  0  0  0  0  0  0  0  0
    1.6747   -4.9442    0.0000 C   0  0  0  0  0  0  0  0  0  0  0  0
    0.9602   -4.5317    0.0000 C   0  0  0  0  0  0  0  0  0  0  0  0
    0.9602   -3.7067    0.0000 C   0  0  0  0  0  0  0  0  0  0  0  0
    1.6747   -3.2942    0.0000 C   0  0  0  0  0  0  0  0  0  0  0  0
    2.3892   -3.7067    0.0000 C   0  0  0  0  0  0  0  0  0  0  0  0
    3.1036   -3.2942    0.0000 O   0  0  0  0  0  0  0  0  0  0  0  0
    4.5326   -3.2942    0.0000 C   0  0  0  0  0  0  0  0  0  0  0  0
    4.5326   -2.4692    0.0000 C   0  0  0  0  0  0  0  0  0  0  0  0
    5.2471   -2.0567    0.0000 C   0  0  0  0  0  0  0  0  0  0  0  0
    5.9615   -2.4692    0.0000 C   0  0  0  0  0  0  0  0  0  0  0  0
    5.9615   -3.2942    0.0000 C   0  0  0  0  0  0  0  0  0  0  0  0
    5.2471   -3.7067    0.0000 C   0  0  0  0  0  0  0  0  0  0  0  0
    4.5326   -4.9442    0.0000 O   0  0  0  0  0  0  0  0  0  0  0  0
  1  2  2  0  0  0  0
  2  3  1  0  0  0  0
  3  4  2  0  0  0  0
  3  5  1  0  0  0  0
  5  6  1  0  0  0  0
  6  7  2  0  0  0  0
  7  8  1  0  0  0  0
  8  9  2  0  0  0  0
  9 10  1  0  0  0  0
  5 10  2  0  0  0  0
 10 11  1  0  0  0  0
  1 11  1  0  0  0  0
  1 12  1  0  0  0  0
 12 13  1  0  0  0  0
 13 14  2  0  0  0  0
 14 15  1  0  0  0  0
 15 16  2  0  0  0  0
 16 17  1  0  0  0  0
 12 17  2  0  0  0  0
  2 18  1  0  0  0  0
M  END
>  <cdx:groupId>
58

>  <cdx:fragmentId>
5

$$$$
