11345.cdx
  Mrv1902 05222410242D          

 12 12  0  0  0  0            999 V2000
    4.2274   -4.0219    0.0000 C   0  0  0  0  0  0  0  0  0  0  0  0
    4.2274   -4.8469    0.0000 C   0  0  0  0  0  0  0  0  0  0  0  0
    3.5130   -5.2594    0.0000 C   0  0  0  0  0  0  0  0  0  0  0  0
    2.7985   -4.8469    0.0000 C   0  0  0  0  0  0  0  0  0  0  0  0
    2.7985   -4.0219    0.0000 C   0  0  0  0  0  0  0  0  0  0  0  0
    3.5130   -3.6094    0.0000 C   0  0  0  0  0  0  0  0  0  0  0  0
    4.9419   -5.2594    0.0000 C   0  0  0  0  0  0  0  0  0  0  0  0
    4.9419   -6.0844    0.0000 C   0  0  0  0  0  0  0  0  0  0  0  0
    5.6564   -4.8469    0.0000 C   0  0  0  0  0  0  0  0  0  0  0  0
    4.9419   -3.6094    0.0000 C   0  0  0  0  0  0  0  0  0  0  0  0
    4.9419   -2.7844    0.0000 C   0  0  0  0  0  0  0  0  0  0  0  0
    5.6564   -4.0219    0.0000 C   0  0  0  0  0  0  0  0  0  0  0  0
  1  2  1  0  0  0  0
  2  3  2  0  0  0  0
  3  4  1  0  0  0  0
  4  5  2  0  0  0  0
  5  6  1  0  0  0  0
  1  6  2  0  0  0  0
  7  8  1  0  0  0  0
  7  9  1  0  0  0  0
  2  7  1  0  0  0  0
 10 11  1  0  0  0  0
 10 12  1  0  0  0  0
  1 10  1  0  0  0  0
M  END
>  <cdx:groupId>
38

>  <cdx:fragmentId>
5

$$$$
