11347.cdx
  Mrv1902 05222410232D          

 32 33  0  0  0  0            999 V2000
    7.9104   -4.8262    0.0000 C   0  0  0  0  0  0  0  0  0  0  0  0
    7.1959   -4.4138    0.0000 C   0  0  1  0  0  0  0  0  0  0  0  0
    7.1959   -3.5887    0.0000 C   0  0  0  0  0  0  0  0  0  0  0  0
    6.4814   -3.1762    0.0000 C   0  0  0  0  0  0  0  0  0  0  0  0
    5.7670   -3.5887    0.0000 C   0  0  0  0  0  0  0  0  0  0  0  0
    4.3380   -9.3637    0.0000 O   0  0  0  0  0  0  0  0  0  0  0  0
    5.0525   -9.7762    0.0000 C   0  0  2  0  0  0  0  0  0  0  0  0
    5.0525  -10.6012    0.0000 C   0  0  1  0  0  0  0  0  0  0  0  0
    4.3380  -11.0137    0.0000 C   0  0  2  0  0  0  0  0  0  0  0  0
    3.6236  -10.6012    0.0000 C   0  0  1  0  0  0  0  0  0  0  0  0
    3.6236   -9.7762    0.0000 C   0  0  1  0  0  0  0  0  0  0  0  0
    2.9091   -9.3637    0.0000 C   0  0  0  0  0  0  0  0  0  0  0  0
    2.1946   -9.7762    0.0000 O   0  0  0  0  0  0  0  0  0  0  0  0
    2.9091  -11.0137    0.0000 O   0  0  0  0  0  0  0  0  0  0  0  0
    4.3380  -11.8387    0.0000 O   0  0  0  0  0  0  0  0  0  0  0  0
    5.7670  -11.0137    0.0000 O   0  0  0  0  0  0  0  0  0  0  0  0
    8.6249   -3.5887    0.0000 O   0  0  0  0  0  0  0  0  0  0  0  0
    6.4814   -2.3512    0.0000 C   0  0  0  0  0  0  0  0  0  0  0  0
    7.1959   -5.2387    0.0000 O   0  0  0  0  0  0  0  0  0  0  0  0
    5.7670   -9.3637    0.0000 O   0  0  0  0  0  0  0  0  0  0  0  0
    6.4814   -7.3012    0.0000 C   0  0  0  0  0  0  0  0  0  0  0  0
    6.4814   -8.1263    0.0000 C   0  0  0  0  0  0  0  0  0  0  0  0
    5.7670   -8.5387    0.0000 C   0  0  0  0  0  0  0  0  0  0  0  0
    5.0525   -8.1262    0.0000 C   0  0  0  0  0  0  0  0  0  0  0  0
    5.0525   -7.3012    0.0000 C   0  0  0  0  0  0  0  0  0  0  0  0
    5.7670   -6.8887    0.0000 C   0  0  0  0  0  0  0  0  0  0  0  0
    5.7670   -6.0637    0.0000 C   0  0  0  0  0  0  0  0  0  0  0  0
    6.4814   -5.6512    0.0000 O   0  0  0  0  0  0  0  0  0  0  0  0
    5.7670   -4.4137    0.0000 O   0  0  0  0  0  0  0  0  0  0  0  0
    6.4814   -4.8262    0.0000 C   0  0  0  0  0  0  0  0  0  0  0  0
    9.3393   -4.8262    0.0000 O   0  0  0  0  0  0  0  0  0  0  0  0
    8.6249   -4.4137    0.0000 C   0  0  0  0  0  0  0  0  0  0  0  0
 32 17  1  0  0  0  0
  2 30  1  0  0  0  0
 27 26  1  0  0  0  0
 23 20  1  0  0  0  0
 26 21  2  0  0  0  0
 22 21  1  0  0  0  0
 23 22  2  0  0  0  0
 24 23  1  0  0  0  0
 25 24  2  0  0  0  0
 26 25  1  0  0  0  0
 30 28  1  0  0  0  0
 28 27  1  0  0  0  0
 30 29  2  0  0  0  0
 32 31  2  0  0  0  0
 32  1  1  0  0  0  0
  1  2  1  0  0  0  0
  2  3  1  0  0  0  0
  3  4  1  0  0  0  0
  6  7  1  0  0  0  0
  7  8  1  0  0  0  0
  8  9  1  0  0  0  0
  9 10  1  0  0  0  0
 10 11  1  0  0  0  0
  6 11  1  0  0  0  0
 12 13  1  0  0  0  0
 11 12  1  1  0  0  0
 10 14  1  6  0  0  0
  9 15  1  1  0  0  0
  8 16  1  6  0  0  0
  7 20  1  1  0  0  0
  4  5  1  0  0  0  0
  4 18  1  0  0  0  0
  2 19  1  6  0  0  0
M  END
>  <cdx:fragmentId>
43

$$$$
