113528.cdx
  Mrv1902 05222410232D          

 37 41  0  0  0  0            999 V2000
    6.7027  -10.3010    0.0000 C   0  0  2  0  0  0  0  0  0  0  0  0
    7.4171  -10.7135    0.0000 N   0  0  0  0  0  0  0  0  0  0  0  0
    7.4171  -11.5385    0.0000 C   0  0  0  0  0  0  0  0  0  0  0  0
    6.7027  -11.9510    0.0000 C   0  0  0  0  0  0  0  0  0  0  0  0
    5.9882  -11.5385    0.0000 C   0  0  0  0  0  0  0  0  0  0  0  0
    5.2737  -11.9510    0.0000 C   0  0  0  0  0  0  0  0  0  0  0  0
    4.5593  -11.5385    0.0000 C   0  0  0  0  0  0  0  0  0  0  0  0
    4.5593  -10.7135    0.0000 C   0  0  0  0  0  0  0  0  0  0  0  0
    5.2737  -10.3010    0.0000 C   0  0  0  0  0  0  0  0  0  0  0  0
    5.9882  -10.7135    0.0000 C   0  0  0  0  0  0  0  0  0  0  0  0
    3.8448  -11.9510    0.0000 O   0  0  0  0  0  0  0  0  0  0  0  0
    3.8448  -10.3010    0.0000 O   0  0  0  0  0  0  0  0  0  0  0  0
    3.1303  -10.7135    0.0000 C   0  0  0  0  0  0  0  0  0  0  0  0
    6.7027   -9.4760    0.0000 C   0  0  0  0  0  0  0  0  0  0  0  0
    7.4171   -9.0635    0.0000 C   0  0  0  0  0  0  0  0  0  0  0  0
    7.5887   -5.7815    0.0000 O   0  0  0  0  0  0  0  0  0  0  0  0
    8.4092   -5.6953    0.0000 C   0  0  1  0  0  0  0  0  0  0  0  0
    8.7447   -6.4489    0.0000 C   0  0  2  0  0  0  0  0  0  0  0  0
    8.1316   -7.0010    0.0000 C   0  0  0  0  0  0  0  0  0  0  0  0
    8.1316   -7.8260    0.0000 C   0  0  0  0  0  0  0  0  0  0  0  0
    7.4171   -8.2385    0.0000 C   0  0  0  0  0  0  0  0  0  0  0  0
    6.7027   -7.8260    0.0000 C   0  0  0  0  0  0  0  0  0  0  0  0
    6.7027   -7.0010    0.0000 C   0  0  0  0  0  0  0  0  0  0  0  0
    7.4171   -6.5885    0.0000 C   0  0  0  0  0  0  0  0  0  0  0  0
    5.9882   -6.5885    0.0000 O   0  0  0  0  0  0  0  0  0  0  0  0
    5.2737   -7.0010    0.0000 C   0  0  0  0  0  0  0  0  0  0  0  0
    9.5517   -6.6205    0.0000 C   0  0  0  0  0  0  0  0  0  0  0  0
   10.1037   -6.0074    0.0000 O   0  0  0  0  0  0  0  0  0  0  0  0
    8.8217   -4.9808    0.0000 C   0  0  0  0  0  0  0  0  0  0  0  0
    9.6467   -4.9808    0.0000 C   0  0  0  0  0  0  0  0  0  0  0  0
   10.0592   -4.2663    0.0000 C   0  0  0  0  0  0  0  0  0  0  0  0
    9.6467   -3.5519    0.0000 C   0  0  0  0  0  0  0  0  0  0  0  0
    8.8217   -3.5519    0.0000 C   0  0  0  0  0  0  0  0  0  0  0  0
    8.4092   -4.2663    0.0000 C   0  0  0  0  0  0  0  0  0  0  0  0
   10.8842   -4.2663    0.0000 O   0  0  0  0  0  0  0  0  0  0  0  0
   11.2967   -3.5519    0.0000 C   0  0  0  0  0  0  0  0  0  0  0  0
   10.0592   -2.8374    0.0000 O   0  0  0  0  0  0  0  0  0  0  0  0
  1  2  1  0  0  0  0
  2  3  1  0  0  0  0
  3  4  1  0  0  0  0
  4  5  1  0  0  0  0
  5  6  1  0  0  0  0
  6  7  2  0  0  0  0
  7  8  1  0  0  0  0
  8  9  2  0  0  0  0
  9 10  1  0  0  0  0
  1 10  1  0  0  0  0
  5 10  2  0  0  0  0
  7 11  1  0  0  0  0
 12 13  1  0  0  0  0
  8 12  1  0  0  0  0
 14 15  1  0  0  0  0
 16 17  1  0  0  0  0
 17 18  1  0  0  0  0
 18 19  1  0  0  0  0
 19 20  1  0  0  0  0
 20 21  2  0  0  0  0
 21 22  1  0  0  0  0
 22 23  2  0  0  0  0
 23 24  1  0  0  0  0
 19 24  2  0  0  0  0
 16 24  1  0  0  0  0
 25 26  1  0  0  0  0
 23 25  1  0  0  0  0
 27 28  1  0  0  0  0
 18 27  1  1  0  0  0
 29 30  1  0  0  0  0
 30 31  2  0  0  0  0
 31 32  1  0  0  0  0
 32 33  2  0  0  0  0
 33 34  1  0  0  0  0
 29 34  2  0  0  0  0
 35 36  1  0  0  0  0
 31 35  1  0  0  0  0
 32 37  1  0  0  0  0
 17 29  1  6  0  0  0
 15 21  1  0  0  0  0
  1 14  1  6  0  0  0
M  END
>  <cdx:fragmentId>
18968

$$$$
