113527.cdx
  Mrv1902 05222410242D          

 37 41  0  0  0  0            999 V2000
    6.5377  -10.4110    0.0000 C   0  0  2  0  0  0  0  0  0  0  0  0
    7.2521  -10.8235    0.0000 N   0  0  0  0  0  0  0  0  0  0  0  0
    7.2521  -11.6485    0.0000 C   0  0  0  0  0  0  0  0  0  0  0  0
    6.5377  -12.0610    0.0000 C   0  0  0  0  0  0  0  0  0  0  0  0
    5.8232  -11.6485    0.0000 C   0  0  0  0  0  0  0  0  0  0  0  0
    5.1087  -12.0610    0.0000 C   0  0  0  0  0  0  0  0  0  0  0  0
    4.3943  -11.6485    0.0000 C   0  0  0  0  0  0  0  0  0  0  0  0
    4.3943  -10.8235    0.0000 C   0  0  0  0  0  0  0  0  0  0  0  0
    5.1087  -10.4110    0.0000 C   0  0  0  0  0  0  0  0  0  0  0  0
    5.8232  -10.8235    0.0000 C   0  0  0  0  0  0  0  0  0  0  0  0
    3.6798  -12.0610    0.0000 O   0  0  0  0  0  0  0  0  0  0  0  0
    3.6798  -10.4110    0.0000 O   0  0  0  0  0  0  0  0  0  0  0  0
    2.9653  -10.8235    0.0000 C   0  0  0  0  0  0  0  0  0  0  0  0
    6.5377   -9.5860    0.0000 C   0  0  0  0  0  0  0  0  0  0  0  0
    7.2521   -9.1735    0.0000 C   0  0  0  0  0  0  0  0  0  0  0  0
    7.4237   -5.8915    0.0000 O   0  0  0  0  0  0  0  0  0  0  0  0
    8.2442   -5.8053    0.0000 C   0  0  2  0  0  0  0  0  0  0  0  0
    8.5797   -6.5589    0.0000 C   0  0  1  0  0  0  0  0  0  0  0  0
    7.9666   -7.1110    0.0000 C   0  0  0  0  0  0  0  0  0  0  0  0
    7.9666   -7.9360    0.0000 C   0  0  0  0  0  0  0  0  0  0  0  0
    7.2521   -8.3485    0.0000 C   0  0  0  0  0  0  0  0  0  0  0  0
    6.5377   -7.9360    0.0000 C   0  0  0  0  0  0  0  0  0  0  0  0
    6.5377   -7.1110    0.0000 C   0  0  0  0  0  0  0  0  0  0  0  0
    7.2521   -6.6985    0.0000 C   0  0  0  0  0  0  0  0  0  0  0  0
    5.8232   -6.6985    0.0000 O   0  0  0  0  0  0  0  0  0  0  0  0
    5.1087   -7.1110    0.0000 C   0  0  0  0  0  0  0  0  0  0  0  0
    9.3867   -6.7305    0.0000 C   0  0  0  0  0  0  0  0  0  0  0  0
    9.9387   -6.1174    0.0000 O   0  0  0  0  0  0  0  0  0  0  0  0
    8.6567   -5.0908    0.0000 C   0  0  0  0  0  0  0  0  0  0  0  0
    9.4817   -5.0908    0.0000 C   0  0  0  0  0  0  0  0  0  0  0  0
    9.8942   -4.3763    0.0000 C   0  0  0  0  0  0  0  0  0  0  0  0
    9.4817   -3.6619    0.0000 C   0  0  0  0  0  0  0  0  0  0  0  0
    8.6567   -3.6619    0.0000 C   0  0  0  0  0  0  0  0  0  0  0  0
    8.2442   -4.3763    0.0000 C   0  0  0  0  0  0  0  0  0  0  0  0
   10.7192   -4.3763    0.0000 O   0  0  0  0  0  0  0  0  0  0  0  0
   11.1317   -3.6619    0.0000 C   0  0  0  0  0  0  0  0  0  0  0  0
    9.8942   -2.9474    0.0000 O   0  0  0  0  0  0  0  0  0  0  0  0
  1  2  1  0  0  0  0
  2  3  1  0  0  0  0
  3  4  1  0  0  0  0
  4  5  1  0  0  0  0
  5  6  1  0  0  0  0
  6  7  2  0  0  0  0
  7  8  1  0  0  0  0
  8  9  2  0  0  0  0
  9 10  1  0  0  0  0
  1 10  1  0  0  0  0
  5 10  2  0  0  0  0
  7 11  1  0  0  0  0
 12 13  1  0  0  0  0
  8 12  1  0  0  0  0
 14 15  1  0  0  0  0
 16 17  1  0  0  0  0
 17 18  1  0  0  0  0
 18 19  1  0  0  0  0
 19 20  1  0  0  0  0
 20 21  2  0  0  0  0
 21 22  1  0  0  0  0
 22 23  2  0  0  0  0
 23 24  1  0  0  0  0
 19 24  2  0  0  0  0
 16 24  1  0  0  0  0
 25 26  1  0  0  0  0
 23 25  1  0  0  0  0
 27 28  1  0  0  0  0
 18 27  1  6  0  0  0
 29 30  1  0  0  0  0
 30 31  2  0  0  0  0
 31 32  1  0  0  0  0
 32 33  2  0  0  0  0
 33 34  1  0  0  0  0
 29 34  2  0  0  0  0
 35 36  1  0  0  0  0
 31 35  1  0  0  0  0
 32 37  1  0  0  0  0
 17 29  1  1  0  0  0
 15 21  1  0  0  0  0
  1 14  1  6  0  0  0
M  END
>  <cdx:fragmentId>
18968

$$$$
