113530.cdx
  Mrv1902 05222410232D          

 37 41  0  0  0  0            999 V2000
    6.8402  -10.3835    0.0000 C   0  0  1  0  0  0  0  0  0  0  0  0
    7.5546  -10.7960    0.0000 N   0  0  0  0  0  0  0  0  0  0  0  0
    7.5546  -11.6210    0.0000 C   0  0  0  0  0  0  0  0  0  0  0  0
    6.8402  -12.0335    0.0000 C   0  0  0  0  0  0  0  0  0  0  0  0
    6.1257  -11.6210    0.0000 C   0  0  0  0  0  0  0  0  0  0  0  0
    5.4112  -12.0335    0.0000 C   0  0  0  0  0  0  0  0  0  0  0  0
    4.6968  -11.6210    0.0000 C   0  0  0  0  0  0  0  0  0  0  0  0
    4.6968  -10.7960    0.0000 C   0  0  0  0  0  0  0  0  0  0  0  0
    5.4112  -10.3835    0.0000 C   0  0  0  0  0  0  0  0  0  0  0  0
    6.1257  -10.7960    0.0000 C   0  0  0  0  0  0  0  0  0  0  0  0
    3.9823  -12.0335    0.0000 O   0  0  0  0  0  0  0  0  0  0  0  0
    3.9823  -10.3835    0.0000 O   0  0  0  0  0  0  0  0  0  0  0  0
    3.2678  -10.7960    0.0000 C   0  0  0  0  0  0  0  0  0  0  0  0
    6.8402   -9.5585    0.0000 C   0  0  0  0  0  0  0  0  0  0  0  0
    7.5546   -9.1460    0.0000 C   0  0  0  0  0  0  0  0  0  0  0  0
    7.7262   -5.8640    0.0000 O   0  0  0  0  0  0  0  0  0  0  0  0
    8.5467   -5.7778    0.0000 C   0  0  1  0  0  0  0  0  0  0  0  0
    8.8822   -6.5314    0.0000 C   0  0  2  0  0  0  0  0  0  0  0  0
    8.2691   -7.0835    0.0000 C   0  0  0  0  0  0  0  0  0  0  0  0
    8.2691   -7.9085    0.0000 C   0  0  0  0  0  0  0  0  0  0  0  0
    7.5546   -8.3210    0.0000 C   0  0  0  0  0  0  0  0  0  0  0  0
    6.8402   -7.9085    0.0000 C   0  0  0  0  0  0  0  0  0  0  0  0
    6.8402   -7.0835    0.0000 C   0  0  0  0  0  0  0  0  0  0  0  0
    7.5546   -6.6710    0.0000 C   0  0  0  0  0  0  0  0  0  0  0  0
    6.1257   -6.6710    0.0000 O   0  0  0  0  0  0  0  0  0  0  0  0
    5.4112   -7.0835    0.0000 C   0  0  0  0  0  0  0  0  0  0  0  0
    9.6892   -6.7030    0.0000 C   0  0  0  0  0  0  0  0  0  0  0  0
   10.2412   -6.0899    0.0000 O   0  0  0  0  0  0  0  0  0  0  0  0
    8.9592   -5.0633    0.0000 C   0  0  0  0  0  0  0  0  0  0  0  0
    9.7842   -5.0633    0.0000 C   0  0  0  0  0  0  0  0  0  0  0  0
   10.1967   -4.3488    0.0000 C   0  0  0  0  0  0  0  0  0  0  0  0
    9.7842   -3.6344    0.0000 C   0  0  0  0  0  0  0  0  0  0  0  0
    8.9592   -3.6344    0.0000 C   0  0  0  0  0  0  0  0  0  0  0  0
    8.5467   -4.3488    0.0000 C   0  0  0  0  0  0  0  0  0  0  0  0
   11.0217   -4.3488    0.0000 O   0  0  0  0  0  0  0  0  0  0  0  0
   11.4342   -3.6344    0.0000 C   0  0  0  0  0  0  0  0  0  0  0  0
   10.1967   -2.9199    0.0000 O   0  0  0  0  0  0  0  0  0  0  0  0
  1  2  1  0  0  0  0
  2  3  1  0  0  0  0
  3  4  1  0  0  0  0
  4  5  1  0  0  0  0
  5  6  1  0  0  0  0
  6  7  2  0  0  0  0
  7  8  1  0  0  0  0
  8  9  2  0  0  0  0
  9 10  1  0  0  0  0
  1 10  1  0  0  0  0
  5 10  2  0  0  0  0
  7 11  1  0  0  0  0
 12 13  1  0  0  0  0
  8 12  1  0  0  0  0
 14 15  1  0  0  0  0
 16 17  1  0  0  0  0
 17 18  1  0  0  0  0
 18 19  1  0  0  0  0
 19 20  1  0  0  0  0
 20 21  2  0  0  0  0
 21 22  1  0  0  0  0
 22 23  2  0  0  0  0
 23 24  1  0  0  0  0
 19 24  2  0  0  0  0
 16 24  1  0  0  0  0
 25 26  1  0  0  0  0
 23 25  1  0  0  0  0
 27 28  1  0  0  0  0
 18 27  1  1  0  0  0
 29 30  1  0  0  0  0
 30 31  2  0  0  0  0
 31 32  1  0  0  0  0
 32 33  2  0  0  0  0
 33 34  1  0  0  0  0
 29 34  2  0  0  0  0
 35 36  1  0  0  0  0
 31 35  1  0  0  0  0
 32 37  1  0  0  0  0
 17 29  1  6  0  0  0
 15 21  1  0  0  0  0
  1 14  1  1  0  0  0
M  END
>  <cdx:fragmentId>
19219

$$$$
