113529.cdx
  Mrv1902 05222410232D          

 37 41  0  0  0  0            999 V2000
    6.7852  -10.1910    0.0000 C   0  0  1  0  0  0  0  0  0  0  0  0
    7.4996  -10.6035    0.0000 N   0  0  0  0  0  0  0  0  0  0  0  0
    7.4996  -11.4285    0.0000 C   0  0  0  0  0  0  0  0  0  0  0  0
    6.7852  -11.8410    0.0000 C   0  0  0  0  0  0  0  0  0  0  0  0
    6.0707  -11.4285    0.0000 C   0  0  0  0  0  0  0  0  0  0  0  0
    5.3562  -11.8410    0.0000 C   0  0  0  0  0  0  0  0  0  0  0  0
    4.6418  -11.4285    0.0000 C   0  0  0  0  0  0  0  0  0  0  0  0
    4.6418  -10.6035    0.0000 C   0  0  0  0  0  0  0  0  0  0  0  0
    5.3562  -10.1910    0.0000 C   0  0  0  0  0  0  0  0  0  0  0  0
    6.0707  -10.6035    0.0000 C   0  0  0  0  0  0  0  0  0  0  0  0
    3.9273  -11.8410    0.0000 O   0  0  0  0  0  0  0  0  0  0  0  0
    3.9273  -10.1910    0.0000 O   0  0  0  0  0  0  0  0  0  0  0  0
    3.2128  -10.6035    0.0000 C   0  0  0  0  0  0  0  0  0  0  0  0
    6.7852   -9.3660    0.0000 C   0  0  0  0  0  0  0  0  0  0  0  0
    7.4996   -8.9535    0.0000 C   0  0  0  0  0  0  0  0  0  0  0  0
    7.6712   -5.6715    0.0000 O   0  0  0  0  0  0  0  0  0  0  0  0
    8.4917   -5.5853    0.0000 C   0  0  2  0  0  0  0  0  0  0  0  0
    8.8272   -6.3389    0.0000 C   0  0  1  0  0  0  0  0  0  0  0  0
    8.2141   -6.8910    0.0000 C   0  0  0  0  0  0  0  0  0  0  0  0
    8.2141   -7.7160    0.0000 C   0  0  0  0  0  0  0  0  0  0  0  0
    7.4996   -8.1285    0.0000 C   0  0  0  0  0  0  0  0  0  0  0  0
    6.7852   -7.7160    0.0000 C   0  0  0  0  0  0  0  0  0  0  0  0
    6.7852   -6.8910    0.0000 C   0  0  0  0  0  0  0  0  0  0  0  0
    7.4996   -6.4785    0.0000 C   0  0  0  0  0  0  0  0  0  0  0  0
    6.0707   -6.4785    0.0000 O   0  0  0  0  0  0  0  0  0  0  0  0
    5.3562   -6.8910    0.0000 C   0  0  0  0  0  0  0  0  0  0  0  0
    9.6342   -6.5105    0.0000 C   0  0  0  0  0  0  0  0  0  0  0  0
   10.1862   -5.8974    0.0000 O   0  0  0  0  0  0  0  0  0  0  0  0
    8.9042   -4.8708    0.0000 C   0  0  0  0  0  0  0  0  0  0  0  0
    9.7292   -4.8708    0.0000 C   0  0  0  0  0  0  0  0  0  0  0  0
   10.1417   -4.1563    0.0000 C   0  0  0  0  0  0  0  0  0  0  0  0
    9.7292   -3.4419    0.0000 C   0  0  0  0  0  0  0  0  0  0  0  0
    8.9042   -3.4419    0.0000 C   0  0  0  0  0  0  0  0  0  0  0  0
    8.4917   -4.1563    0.0000 C   0  0  0  0  0  0  0  0  0  0  0  0
   10.9667   -4.1563    0.0000 O   0  0  0  0  0  0  0  0  0  0  0  0
   11.3792   -3.4419    0.0000 C   0  0  0  0  0  0  0  0  0  0  0  0
   10.1417   -2.7274    0.0000 O   0  0  0  0  0  0  0  0  0  0  0  0
  1  2  1  0  0  0  0
  2  3  1  0  0  0  0
  3  4  1  0  0  0  0
  4  5  1  0  0  0  0
  5  6  1  0  0  0  0
  6  7  2  0  0  0  0
  7  8  1  0  0  0  0
  8  9  2  0  0  0  0
  9 10  1  0  0  0  0
  1 10  1  0  0  0  0
  5 10  2  0  0  0  0
  7 11  1  0  0  0  0
 12 13  1  0  0  0  0
  8 12  1  0  0  0  0
 14 15  1  0  0  0  0
 16 17  1  0  0  0  0
 17 18  1  0  0  0  0
 18 19  1  0  0  0  0
 19 20  1  0  0  0  0
 20 21  2  0  0  0  0
 21 22  1  0  0  0  0
 22 23  2  0  0  0  0
 23 24  1  0  0  0  0
 19 24  2  0  0  0  0
 16 24  1  0  0  0  0
 25 26  1  0  0  0  0
 23 25  1  0  0  0  0
 27 28  1  0  0  0  0
 18 27  1  6  0  0  0
 29 30  1  0  0  0  0
 30 31  2  0  0  0  0
 31 32  1  0  0  0  0
 32 33  2  0  0  0  0
 33 34  1  0  0  0  0
 29 34  2  0  0  0  0
 35 36  1  0  0  0  0
 31 35  1  0  0  0  0
 32 37  1  0  0  0  0
 17 29  1  1  0  0  0
 15 21  1  0  0  0  0
  1 14  1  1  0  0  0
M  END
>  <cdx:fragmentId>
19093

$$$$
