11363.cdx
  Mrv1902 05222410232D          

 11 11  0  0  0  0            999 V2000
    4.4609   -3.8098    0.0000 C   0  0  0  0  0  0  0  0  0  0  0  0
    5.1754   -3.3973    0.0000 C   0  0  0  0  0  0  0  0  0  0  0  0
    5.8899   -3.8098    0.0000 C   0  0  0  0  0  0  0  0  0  0  0  0
    4.4609   -4.6348    0.0000 O   0  0  0  0  0  0  0  0  0  0  0  0
    5.1754   -2.5723    0.0000 O   0  0  0  0  0  0  0  0  0  0  0  0
    3.7465   -3.3973    0.0000 C   0  0  0  0  0  0  0  0  0  0  0  0
    3.7465   -2.5723    0.0000 C   0  0  0  0  0  0  0  0  0  0  0  0
    3.0320   -2.1598    0.0000 C   0  0  0  0  0  0  0  0  0  0  0  0
    2.3175   -2.5723    0.0000 C   0  0  0  0  0  0  0  0  0  0  0  0
    2.3175   -3.3973    0.0000 C   0  0  0  0  0  0  0  0  0  0  0  0
    3.0320   -3.8098    0.0000 C   0  0  0  0  0  0  0  0  0  0  0  0
  1  2  1  0  0  0  0
  2  3  1  0  0  0  0
  1  4  2  0  0  0  0
  2  5  2  0  0  0  0
  6  7  1  0  0  0  0
  7  8  2  0  0  0  0
  8  9  1  0  0  0  0
  9 10  2  0  0  0  0
 10 11  1  0  0  0  0
  6 11  2  0  0  0  0
  1  6  1  0  0  0  0
M  END
>  <cdx:groupId>
35

>  <cdx:fragmentId>
15

$$$$
