1137.cdx
  Mrv1902 05222410182D          

 32 35  0  0  0  0            999 V2000
    8.5682   -7.4101    0.0000 O   0  0  0  0  0  0  0  0  0  0  0  0
    7.8817   -9.6265    0.0000 C   0  0  2  0  0  0  0  0  0  0  0  0
    8.5999  -10.0324    0.0000 C   0  0  2  0  0  0  0  0  0  0  0  0
    9.3105   -9.6133    0.0000 C   0  0  1  0  0  0  0  0  0  0  0  0
    9.3029   -8.7883    0.0000 C   0  0  2  0  0  0  0  0  0  0  0  0
    8.5846   -8.3824    0.0000 C   0  0  1  0  0  0  0  0  0  0  0  0
    7.8740   -8.8015    0.0000 O   0  0  0  0  0  0  0  0  0  0  0  0
    7.1710  -10.0456    0.0000 C   0  0  0  0  0  0  0  0  0  0  0  0
   10.0288  -10.0191    0.0000 O   0  0  0  0  0  0  0  0  0  0  0  0
   10.0135   -8.3692    0.0000 O   0  0  0  0  0  0  0  0  0  0  0  0
    8.6076  -10.8573    0.0000 O   0  0  0  0  0  0  0  0  0  0  0  0
    7.1787  -10.8706    0.0000 O   0  0  0  0  0  0  0  0  0  0  0  0
    9.2691   -3.6943    0.0000 O   0  0  0  0  0  0  0  0  0  0  0  0
    5.7142   -8.2485    0.0000 O   0  0  0  0  0  0  0  0  0  0  0  0
    4.2737   -5.7802    0.0000 O   0  0  0  0  0  0  0  0  0  0  0  0
   10.6980   -4.5126    0.0000 O   0  0  0  0  0  0  0  0  0  0  0  0
    8.5566   -4.9352    0.0000 C   0  0  0  0  0  0  0  0  0  0  0  0
    9.2691   -4.5193    0.0000 C   0  0  0  0  0  0  0  0  0  0  0  0
    9.9855   -4.9285    0.0000 C   0  0  0  0  0  0  0  0  0  0  0  0
    9.9894   -5.7535    0.0000 C   0  0  0  0  0  0  0  0  0  0  0  0
    9.2768   -6.1693    0.0000 C   0  0  0  0  0  0  0  0  0  0  0  0
    8.5604   -5.7602    0.0000 C   0  0  0  0  0  0  0  0  0  0  0  0
    7.1315   -5.7668    0.0000 O   0  0  0  0  0  0  0  0  0  0  0  0
    7.8479   -6.1760    0.0000 C   0  0  1  0  0  0  0  0  0  0  0  0
    7.8518   -7.0010    0.0000 C   0  0  2  0  0  0  0  0  0  0  0  0
    7.1392   -7.4168    0.0000 C   0  0  0  0  0  0  0  0  0  0  0  0
    5.7026   -5.7735    0.0000 C   0  0  0  0  0  0  0  0  0  0  0  0
    6.4190   -6.1827    0.0000 C   0  0  0  0  0  0  0  0  0  0  0  0
    6.4228   -7.0077    0.0000 C   0  0  0  0  0  0  0  0  0  0  0  0
    5.7103   -7.4235    0.0000 C   0  0  0  0  0  0  0  0  0  0  0  0
    4.9939   -7.0144    0.0000 C   0  0  0  0  0  0  0  0  0  0  0  0
    4.9901   -6.1894    0.0000 C   0  0  0  0  0  0  0  0  0  0  0  0
  2  3  1  0  0  0  0
  3  4  1  0  0  0  0
  4  5  1  0  0  0  0
  5  6  1  0  0  0  0
  6  7  1  0  0  0  0
  7  2  1  0  0  0  0
  2  8  1  1  0  0  0
  4  9  1  1  0  0  0
  5 10  1  6  0  0  0
  3 11  1  6  0  0  0
  8 12  1  0  0  0  0
 18 13  1  0  0  0  0
 25  1  1  1  0  0  0
  6  1  1  1  0  0  0
 30 14  1  0  0  0  0
 32 15  1  0  0  0  0
 19 16  1  0  0  0  0
 17 22  1  0  0  0  0
 18 17  2  0  0  0  0
 19 18  1  0  0  0  0
 20 19  2  0  0  0  0
 21 20  1  0  0  0  0
 22 21  2  0  0  0  0
 24 22  1  6  0  0  0
 23 28  1  0  0  0  0
 24 23  1  0  0  0  0
 25 24  1  0  0  0  0
 26 25  1  0  0  0  0
 29 26  1  0  0  0  0
 27 32  1  0  0  0  0
 28 27  2  0  0  0  0
 29 28  1  0  0  0  0
 30 29  2  0  0  0  0
 31 30  1  0  0  0  0
 32 31  2  0  0  0  0
M  END
>  <cdx:fragmentId>
5

$$$$
