12113784.cdx
  Mrv1902 05222410262D          

 35 39  0  0  0  0            999 V2000
    9.8296  -13.4626    0.0000 C   0  0  1  0  0  0  0  0  0  0  0  0
   10.5441  -13.8751    0.0000 C   0  0  1  0  0  0  0  0  0  0  0  0
   10.5441  -14.7001    0.0000 C   0  0  1  0  0  0  0  0  0  0  0  0
    9.8296  -15.1126    0.0000 C   0  0  0  0  0  0  0  0  0  0  0  0
    9.1151  -14.7001    0.0000 C   0  0  2  0  0  0  0  0  0  0  0  0
    8.4007  -15.1126    0.0000 C   0  0  1  0  0  0  0  0  0  0  0  0
    8.4007  -15.9376    0.0000 C   0  0  0  0  0  0  0  0  0  0  0  0
    7.6862  -16.3501    0.0000 C   0  0  0  0  0  0  0  0  0  0  0  0
    6.9717  -15.9376    0.0000 C   0  0  0  0  0  0  0  0  0  0  0  0
    6.2572  -16.3501    0.0000 C   0  0  0  0  0  0  0  0  0  0  0  0
    5.5428  -15.9376    0.0000 C   0  0  2  0  0  0  0  0  0  0  0  0
    5.5428  -15.1126    0.0000 C   0  0  0  0  0  0  0  0  0  0  0  0
    6.2572  -14.7001    0.0000 C   0  0  0  0  0  0  0  0  0  0  0  0
    6.9717  -15.1126    0.0000 C   0  0  1  0  0  0  0  0  0  0  0  0
    7.6862  -14.7001    0.0000 C   0  0  2  0  0  0  0  0  0  0  0  0
    7.6862  -13.8751    0.0000 C   0  0  0  0  0  0  0  0  0  0  0  0
    8.4007  -13.4626    0.0000 C   0  0  0  0  0  0  0  0  0  0  0  0
    9.1151  -13.8751    0.0000 C   0  0  1  0  0  0  0  0  0  0  0  0
    4.6496  -16.9296    0.0000 C   0  0  1  0  0  0  0  0  0  0  0  0
    5.4565  -16.7581    0.0000 C   0  0  0  0  0  0  0  0  0  0  0  0
    4.7891  -15.6020    0.0000 C   0  0  0  0  0  0  0  0  0  0  0  0
    4.2371  -16.2151    0.0000 C   0  0  0  0  0  0  0  0  0  0  0  0
   11.2585  -13.4626    0.0000 O   0  0  0  0  0  0  0  0  0  0  0  0
   11.2585  -15.1126    0.0000 O   0  0  0  0  0  0  0  0  0  0  0  0
    7.6862  -15.5251    0.0000 C   0  0  0  0  0  0  0  0  0  0  0  0
    6.9717  -14.2876    0.0000 C   0  0  0  0  0  0  0  0  0  0  0  0
    9.1151  -15.5251    0.0000 C   0  0  0  0  0  0  0  0  0  0  0  0
    4.7358  -17.7501    0.0000 C   0  0  0  0  0  0  0  0  0  0  0  0
   10.2421  -12.7481    0.0000 C   0  0  0  0  0  0  0  0  0  0  0  0
    3.9821  -17.4145    0.0000 C   0  0  0  0  0  0  0  0  0  0  0  0
    3.2285  -17.0790    0.0000 O   0  0  0  0  0  0  0  0  0  0  0  0
    9.4171  -12.7481    0.0000 C   0  0  0  0  0  0  0  0  0  0  0  0
    9.8296  -12.0336    0.0000 O   0  0  0  0  0  0  0  0  0  0  0  0
    8.4007  -14.2876    0.0000 H   0  0  0  0  0  0  0  0  0  0  0  0
    9.1151  -13.0501    0.0000 H   0  0  0  0  0  0  0  0  0  0  0  0
  1  2  1  0  0  0  0
  2  3  1  0  0  0  0
  3  4  1  0  0  0  0
  4  5  1  0  0  0  0
  5  6  1  0  0  0  0
  6  7  1  0  0  0  0
  7  8  2  0  0  0  0
  8  9  1  0  0  0  0
  9 10  2  0  0  0  0
 10 11  1  0  0  0  0
 11 12  1  0  0  0  0
 12 13  1  0  0  0  0
 13 14  1  0  0  0  0
  9 14  1  0  0  0  0
 14 15  1  0  0  0  0
  6 15  1  0  0  0  0
 15 16  1  0  0  0  0
 16 17  1  0  0  0  0
 17 18  1  0  0  0  0
  5 18  1  0  0  0  0
  1 18  1  0  0  0  0
 19 20  1  0  0  0  0
 21 22  1  0  0  0  0
 19 22  1  0  0  0  0
 11 20  1  1  0  0  0
 11 21  1  6  0  0  0
  2 23  1  6  0  0  0
  3 24  1  6  0  0  0
 15 25  1  1  0  0  0
 14 26  1  6  0  0  0
  5 27  1  1  0  0  0
 19 28  1  6  0  0  0
  1 29  1  1  0  0  0
 30 31  1  0  0  0  0
 19 30  1  1  0  0  0
 32 33  1  0  0  0  0
  1 32  1  6  0  0  0
  6 34  1  6  0  0  0
 18 35  1  6  0  0  0
M  END
>  <cdx:groupId>
87373

>  <cdx:fragmentId>
87267

$$$$
