1138.cdx
  Mrv1902 05222410282D          

 32 35  0  0  0  0            999 V2000
    5.5805  -11.0059    0.0000 C   0  0  0  0  0  0  0  0  0  0  0  0
    4.8677  -10.5905    0.0000 C   0  0  0  0  0  0  0  0  0  0  0  0
    4.8710   -9.7655    0.0000 C   0  0  0  0  0  0  0  0  0  0  0  0
    5.5871   -9.3559    0.0000 C   0  0  0  0  0  0  0  0  0  0  0  0
    6.2999   -9.7712    0.0000 C   0  0  0  0  0  0  0  0  0  0  0  0
    6.2966  -10.5962    0.0000 C   0  0  0  0  0  0  0  0  0  0  0  0
    5.5904   -8.5309    0.0000 C   0  0  0  0  0  0  0  0  0  0  0  0
    6.3065   -8.1212    0.0000 C   0  0  1  0  0  0  0  0  0  0  0  0
    7.0193   -8.5366    0.0000 C   0  0  2  0  0  0  0  0  0  0  0  0
    7.0160   -9.3616    0.0000 O   0  0  0  0  0  0  0  0  0  0  0  0
    7.7354   -8.1269    0.0000 C   0  0  0  0  0  0  0  0  0  0  0  0
    7.7387   -7.3019    0.0000 C   0  0  0  0  0  0  0  0  0  0  0  0
    8.4548   -6.8923    0.0000 C   0  0  0  0  0  0  0  0  0  0  0  0
    9.1676   -7.3076    0.0000 C   0  0  0  0  0  0  0  0  0  0  0  0
    9.1644   -8.1326    0.0000 C   0  0  0  0  0  0  0  0  0  0  0  0
    8.4482   -8.5423    0.0000 C   0  0  0  0  0  0  0  0  0  0  0  0
    9.8837   -6.8980    0.0000 O   0  0  0  0  0  0  0  0  0  0  0  0
    5.5772  -11.8309    0.0000 O   0  0  0  0  0  0  0  0  0  0  0  0
    4.1582   -9.3502    0.0000 O   0  0  0  0  0  0  0  0  0  0  0  0
    6.3098   -7.2962    0.0000 O   0  0  0  0  0  0  0  0  0  0  0  0
    9.8484   -8.5938    0.0000 O   0  0  0  0  0  0  0  0  0  0  0  0
    4.8758   -7.1569    0.0000 C   0  0  2  0  0  0  0  0  0  0  0  0
    4.1660   -6.7364    0.0000 C   0  0  2  0  0  0  0  0  0  0  0  0
    3.4469   -7.1409    0.0000 C   0  0  1  0  0  0  0  0  0  0  0  0
    3.4377   -7.9658    0.0000 C   0  0  2  0  0  0  0  0  0  0  0  0
    4.1475   -8.3863    0.0000 C   0  0  1  0  0  0  0  0  0  0  0  0
    4.8666   -7.9818    0.0000 O   0  0  0  0  0  0  0  0  0  0  0  0
    5.5948   -6.7524    0.0000 C   0  0  0  0  0  0  0  0  0  0  0  0
    2.7371   -6.7204    0.0000 O   0  0  0  0  0  0  0  0  0  0  0  0
    2.7187   -8.3703    0.0000 O   0  0  0  0  0  0  0  0  0  0  0  0
    4.1752   -5.9115    0.0000 O   0  0  0  0  0  0  0  0  0  0  0  0
    5.6040   -5.9274    0.0000 O   0  0  0  0  0  0  0  0  0  0  0  0
  1  2  2  0  0  0  0
  2  3  1  0  0  0  0
  3  4  2  0  0  0  0
  4  5  1  0  0  0  0
  5  6  2  0  0  0  0
  6  1  1  0  0  0  0
  4  7  1  0  0  0  0
  7  8  1  0  0  0  0
  8  9  1  0  0  0  0
  9 10  1  0  0  0  0
 10  5  1  0  0  0  0
  9 11  1  1  0  0  0
 11 12  2  0  0  0  0
 12 13  1  0  0  0  0
 13 14  2  0  0  0  0
 14 15  1  0  0  0  0
 15 16  2  0  0  0  0
 16 11  1  0  0  0  0
 14 17  1  0  0  0  0
  1 18  1  0  0  0  0
  3 19  1  0  0  0  0
  8 20  1  6  0  0  0
 15 21  1  0  0  0  0
 22 23  1  0  0  0  0
 23 24  1  0  0  0  0
 24 25  1  0  0  0  0
 25 26  1  0  0  0  0
 26 27  1  0  0  0  0
 27 22  1  0  0  0  0
 22 28  1  1  0  0  0
 24 29  1  1  0  0  0
 25 30  1  6  0  0  0
 23 31  1  6  0  0  0
 28 32  1  0  0  0  0
 26 19  1  1  0  0  0
M  END
>  <cdx:fragmentId>
5

$$$$
