11387.cdx
  Mrv1902 05222410242D          

 12 13  0  0  0  0            999 V2000
    5.5160   -2.8050    0.0000 C   0  0  0  0  0  0  0  0  0  0  0  0
    6.2304   -3.2175    0.0000 C   0  0  0  0  0  0  0  0  0  0  0  0
    6.2304   -4.0425    0.0000 C   0  0  0  0  0  0  0  0  0  0  0  0
    5.5160   -4.4550    0.0000 C   0  0  0  0  0  0  0  0  0  0  0  0
    4.8015   -4.0425    0.0000 C   0  0  0  0  0  0  0  0  0  0  0  0
    4.0870   -4.4550    0.0000 C   0  0  0  0  0  0  0  0  0  0  0  0
    3.3726   -4.0425    0.0000 C   0  0  0  0  0  0  0  0  0  0  0  0
    3.3726   -3.2175    0.0000 C   0  0  0  0  0  0  0  0  0  0  0  0
    4.0870   -2.8050    0.0000 C   0  0  0  0  0  0  0  0  0  0  0  0
    4.8015   -3.2175    0.0000 C   0  0  0  0  0  0  0  0  0  0  0  0
    2.6581   -4.4550    0.0000 C   0  0  0  0  0  0  0  0  0  0  0  0
    6.9449   -2.8050    0.0000 C   0  0  0  0  0  0  0  0  0  0  0  0
  1  2  1  0  0  0  0
  2  3  2  0  0  0  0
  3  4  1  0  0  0  0
  4  5  2  0  0  0  0
  5  6  1  0  0  0  0
  6  7  2  0  0  0  0
  7  8  1  0  0  0  0
  8  9  2  0  0  0  0
  9 10  1  0  0  0  0
  1 10  2  0  0  0  0
  5 10  1  0  0  0  0
  7 11  1  0  0  0  0
  2 12  1  0  0  0  0
M  END
>  <cdx:groupId>
39

>  <cdx:fragmentId>
5

$$$$
