11388.cdx
  Mrv1902 05222410232D          

 23 22  0  0  0  0            999 V2000
    2.0584   -5.3419    0.0000 O   0  0  0  0  0  0  0  0  0  0  0  0
    2.5585   -5.6306    0.0000 C   0  0  0  0  0  0  0  0  0  0  0  0
    3.0586   -5.3419    0.0000 C   0  0  0  0  0  0  0  0  0  0  0  0
    3.5588   -5.6306    0.0000 C   0  0  0  0  0  0  0  0  0  0  0  0
    4.0589   -5.3419    0.0000 C   0  0  0  0  0  0  0  0  0  0  0  0
    4.5590   -5.6306    0.0000 C   0  0  0  0  0  0  0  0  0  0  0  0
    5.0592   -5.3419    0.0000 C   0  0  0  0  0  0  0  0  0  0  0  0
    5.5593   -5.6306    0.0000 C   0  0  0  0  0  0  0  0  0  0  0  0
    6.0594   -5.3419    0.0000 C   0  0  0  0  0  0  0  0  0  0  0  0
    6.5595   -5.6306    0.0000 C   0  0  0  0  0  0  0  0  0  0  0  0
    7.0597   -5.3419    0.0000 C   0  0  0  0  0  0  0  0  0  0  0  0
    7.5598   -5.6306    0.0000 C   0  0  0  0  0  0  0  0  0  0  0  0
    8.0599   -5.3419    0.0000 C   0  0  0  0  0  0  0  0  0  0  0  0
    8.5601   -5.6306    0.0000 C   0  0  0  0  0  0  0  0  0  0  0  0
    9.0602   -5.3419    0.0000 C   0  0  0  0  0  0  0  0  0  0  0  0
    9.5603   -5.6306    0.0000 C   0  0  0  0  0  0  0  0  0  0  0  0
   10.0604   -5.3419    0.0000 C   0  0  0  0  0  0  0  0  0  0  0  0
   10.5606   -5.6306    0.0000 C   0  0  0  0  0  0  0  0  0  0  0  0
   11.0607   -5.3419    0.0000 C   0  0  0  0  0  0  0  0  0  0  0  0
   11.5608   -5.6306    0.0000 C   0  0  0  0  0  0  0  0  0  0  0  0
   12.0610   -5.3419    0.0000 C   0  0  0  0  0  0  0  0  0  0  0  0
   12.5611   -5.6306    0.0000 C   0  0  0  0  0  0  0  0  0  0  0  0
    2.5585   -6.2081    0.0000 O   0  0  0  0  0  0  0  0  0  0  0  0
  1  2  1  0  0  0  0
  2  3  1  0  0  0  0
  3  4  1  0  0  0  0
  4  5  1  0  0  0  0
  5  6  1  0  0  0  0
  6  7  1  0  0  0  0
  7  8  1  0  0  0  0
  8  9  1  0  0  0  0
  9 10  1  0  0  0  0
 10 11  1  0  0  0  0
 11 12  1  0  0  0  0
 12 13  1  0  0  0  0
 13 14  1  0  0  0  0
 14 15  1  0  0  0  0
 15 16  1  0  0  0  0
 16 17  1  0  0  0  0
 17 18  1  0  0  0  0
 18 19  1  0  0  0  0
 19 20  1  0  0  0  0
 20 21  1  0  0  0  0
 21 22  1  0  0  0  0
  2 23  2  0  0  0  0
M  END
>  <cdx:fragmentId>
3

$$$$
