113832.cdx
  Mrv1902 05222410202D          

 31 35  0  0  0  0            999 V2000
    7.0533   -8.7262    0.0000 H   0  0  0  0  0  0  0  0  0  0  0  0
    7.7678   -9.9637    0.0000 H   0  0  0  0  0  0  0  0  0  0  0  0
    6.3388   -9.9637    0.0000 H   0  0  0  0  0  0  0  0  0  0  0  0
    4.9099   -7.4887    0.0000 H   0  0  0  0  0  0  0  0  0  0  0  0
    7.7688   -6.6637    0.0000 O   0  0  0  0  0  0  0  0  0  0  0  0
    6.3398   -5.8390    0.0000 O   0  0  0  0  0  0  0  0  0  0  0  0
    8.4822   -7.0762    0.0000 O   0  0  0  0  0  0  0  0  0  0  0  0
    8.4822  -10.3762    0.0000 C   0  0  0  0  0  0  0  0  0  0  0  0
    7.7678   -7.4887    0.0000 C   0  0  0  0  0  0  0  0  0  0  0  0
    4.9107   -6.6637    0.0000 C   0  0  0  0  0  0  0  0  0  0  0  0
    9.9112   -7.9012    0.0000 O   0  0  0  0  0  0  0  0  0  0  0  0
    4.1954   -9.5512    0.0000 O   0  0  0  0  0  0  0  0  0  0  0  0
    7.0533   -7.9012    0.0000 C   0  0  1  0  0  0  0  0  0  0  0  0
    7.7678   -8.3137    0.0000 C   0  0  2  0  0  0  0  0  0  0  0  0
    8.4822   -7.9012    0.0000 C   0  0  1  0  0  0  0  0  0  0  0  0
    9.1967   -8.3137    0.0000 C   0  0  0  0  0  0  0  0  0  0  0  0
    9.1967   -9.1387    0.0000 C   0  0  0  0  0  0  0  0  0  0  0  0
    8.4822   -9.5512    0.0000 C   0  0  0  0  0  0  0  0  0  0  0  0
    7.7678   -9.1387    0.0000 C   0  0  2  0  0  0  0  0  0  0  0  0
    7.0533   -9.5512    0.0000 C   0  0  0  0  0  0  0  0  0  0  0  0
    6.3388   -9.1387    0.0000 C   0  0  1  0  0  0  0  0  0  0  0  0
    5.6243   -9.5512    0.0000 O   0  0  0  0  0  0  0  0  0  0  0  0
    4.9099   -9.1387    0.0000 C   0  0  0  0  0  0  0  0  0  0  0  0
    4.9099   -8.3137    0.0000 C   0  0  0  0  0  0  0  0  0  0  0  0
    5.6243   -7.9012    0.0000 C   0  0  1  0  0  0  0  0  0  0  0  0
    5.6251   -7.0762    0.0000 C   0  0  0  0  0  0  0  0  0  0  0  0
    6.3398   -6.6640    0.0000 C   0  0  2  0  0  0  0  0  0  0  0  0
    7.0544   -7.0762    0.0000 C   0  0  1  0  0  0  0  0  0  0  0  0
    6.3759   -7.1154    0.0000 O   0  0  0  0  0  0  0  0  0  0  0  0
    6.0352   -7.7046    0.0000 C   0  0  0  0  0  0  0  0  0  0  0  0
    6.3388   -8.3137    0.0000 C   0  0  1  0  0  0  0  0  0  0  0  0
 13  1  1  1  0  0  0
 19  2  1  1  0  0  0
 21  3  1  6  0  0  0
 25  4  1  6  0  0  0
 28  5  1  6  0  0  0
 27  6  1  1  0  0  0
 15  7  1  6  0  0  0
 18  8  1  0  0  0  0
 14  9  1  6  0  0  0
 26 10  2  0  0  0  0
 16 11  2  0  0  0  0
 23 12  2  0  0  0  0
 28 13  1  0  0  0  0
 31 25  1  0  0  0  0
 19 14  1  0  0  0  0
 31 21  1  0  0  0  0
 31 13  1  0  0  0  0
 14 13  1  0  0  0  0
 15 14  1  0  0  0  0
 16 15  1  0  0  0  0
 17 16  1  0  0  0  0
 18 17  2  0  0  0  0
 19 18  1  0  0  0  0
 20 19  1  0  0  0  0
 21 20  1  0  0  0  0
 22 21  1  0  0  0  0
 23 22  1  0  0  0  0
 24 23  1  0  0  0  0
 25 24  1  0  0  0  0
 26 25  1  0  0  0  0
 27 26  1  0  0  0  0
 28 27  1  0  0  0  0
 28 29  1  0  0  0  0
 30 29  1  0  0  0  0
 31 30  1  6  0  0  0
M  END
>  <cdx:groupId>
93801

>  <cdx:fragmentId>
93707

$$$$
