11386.cdx
  Mrv1902 05222410242D          

 12 13  0  0  0  0            999 V2000
    4.7703   -2.4337    0.0000 C   0  0  0  0  0  0  0  0  0  0  0  0
    5.4848   -2.8462    0.0000 C   0  0  0  0  0  0  0  0  0  0  0  0
    5.4848   -3.6713    0.0000 C   0  0  0  0  0  0  0  0  0  0  0  0
    4.7703   -4.0838    0.0000 C   0  0  0  0  0  0  0  0  0  0  0  0
    4.0558   -3.6713    0.0000 C   0  0  0  0  0  0  0  0  0  0  0  0
    3.3414   -4.0838    0.0000 C   0  0  0  0  0  0  0  0  0  0  0  0
    2.6269   -3.6713    0.0000 C   0  0  0  0  0  0  0  0  0  0  0  0
    2.6269   -2.8463    0.0000 C   0  0  0  0  0  0  0  0  0  0  0  0
    3.3414   -2.4337    0.0000 C   0  0  0  0  0  0  0  0  0  0  0  0
    4.0558   -2.8463    0.0000 C   0  0  0  0  0  0  0  0  0  0  0  0
    6.1992   -4.0838    0.0000 C   0  0  0  0  0  0  0  0  0  0  0  0
    6.1992   -2.4337    0.0000 C   0  0  0  0  0  0  0  0  0  0  0  0
  1  2  1  0  0  0  0
  2  3  2  0  0  0  0
  3  4  1  0  0  0  0
  4  5  2  0  0  0  0
  5  6  1  0  0  0  0
  6  7  2  0  0  0  0
  7  8  1  0  0  0  0
  8  9  2  0  0  0  0
  9 10  1  0  0  0  0
  1 10  2  0  0  0  0
  5 10  1  0  0  0  0
  3 11  1  0  0  0  0
  2 12  1  0  0  0  0
M  END
>  <cdx:groupId>
39

>  <cdx:fragmentId>
5

$$$$
