11399.cdx
  Mrv1902 05222410212D          

 42 47  0  0  0  0            999 V2000
    2.8908   -8.5594    0.0000 C   0  0  0  0  0  0  0  0  0  0  0  0
    2.8908   -9.3844    0.0000 C   0  0  2  0  0  0  0  0  0  0  0  0
    3.6052   -9.7969    0.0000 C   0  0  1  0  0  0  0  0  0  0  0  0
    4.3197   -9.3844    0.0000 C   0  0  0  0  0  0  0  0  0  0  0  0
    4.3197   -8.5594    0.0000 C   0  0  2  0  0  0  0  0  0  0  0  0
    3.6052   -8.1469    0.0000 C   0  0  0  0  0  0  0  0  0  0  0  0
    5.0342   -9.7969    0.0000 C   0  0  0  0  0  0  0  0  0  0  0  0
    5.7487   -9.3844    0.0000 C   0  0  0  0  0  0  0  0  0  0  0  0
    5.7487   -8.5594    0.0000 C   0  0  0  0  0  0  0  0  0  0  0  0
    5.0342   -8.1469    0.0000 C   0  0  0  0  0  0  0  0  0  0  0  0
    6.4631   -8.1469    0.0000 C   0  0  1  0  0  0  0  0  0  0  0  0
    6.4631   -7.3219    0.0000 C   0  0  2  0  0  0  0  0  0  0  0  0
    5.7487   -6.9094    0.0000 C   0  0  0  0  0  0  0  0  0  0  0  0
    5.0342   -7.3219    0.0000 C   0  0  0  0  0  0  0  0  0  0  0  0
    7.2478   -8.4018    0.0000 C   0  0  2  0  0  0  0  0  0  0  0  0
    7.7327   -7.7344    0.0000 C   0  0  1  0  0  0  0  0  0  0  0  0
    7.2478   -7.0669    0.0000 C   0  0  2  0  0  0  0  0  0  0  0  0
    4.3197   -7.7344    0.0000 C   0  0  0  0  0  0  0  0  0  0  0  0
    7.6603   -6.3525    0.0000 C   0  0  1  0  0  0  0  0  0  0  0  0
    8.4853   -6.3525    0.0000 C   0  0  0  0  0  0  0  0  0  0  0  0
    8.8978   -7.0669    0.0000 C   0  0  2  0  0  0  0  0  0  0  0  0
    9.7228   -7.0669    0.0000 C   0  0  2  0  0  0  0  0  0  0  0  0
   10.1353   -7.7814    0.0000 C   0  0  0  0  0  0  0  0  0  0  0  0
   10.8497   -7.3689    0.0000 C   0  0  0  0  0  0  0  0  0  0  0  0
    9.4208   -8.1939    0.0000 C   0  0  0  0  0  0  0  0  0  0  0  0
   10.5478   -8.4959    0.0000 O   0  0  0  0  0  0  0  0  0  0  0  0
    3.4741   -8.8010    0.0000 O   0  0  0  0  0  0  0  0  0  0  0  0
    3.1927  -10.5113    0.0000 C   0  0  0  0  0  0  0  0  0  0  0  0
    6.4631   -6.4969    0.0000 C   0  0  0  0  0  0  0  0  0  0  0  0
    8.1452   -7.0199    0.0000 O   0  0  0  0  0  0  0  0  0  0  0  0
    9.3103   -6.3525    0.0000 H   0  0  0  0  0  0  0  0  0  0  0  0
    2.1763   -9.7969    0.0000 H   0  0  0  0  0  0  0  0  0  0  0  0
    4.0177  -10.5113    0.0000 C   0  0  0  0  0  0  0  0  0  0  0  0
    6.4631   -8.9719    0.0000 C   0  0  0  0  0  0  0  0  0  0  0  0
    7.4613   -9.1987    0.0000 O   0  0  0  0  0  0  0  0  0  0  0  0
    8.4471   -8.1469    0.0000 O   0  0  0  0  0  0  0  0  0  0  0  0
    7.2478   -5.6380    0.0000 C   0  0  0  0  0  0  0  0  0  0  0  0
    6.8353   -6.3525    0.0000 H   0  0  0  0  0  0  0  0  0  0  0  0
   10.1353   -6.3525    0.0000 O   0  0  0  0  0  0  0  0  0  0  0  0
    9.7228   -5.6380    0.0000 C   0  0  0  0  0  0  0  0  0  0  0  0
   10.1353   -4.9235    0.0000 O   0  0  0  0  0  0  0  0  0  0  0  0
    8.8978   -5.6380    0.0000 C   0  0  0  0  0  0  0  0  0  0  0  0
  1  2  1  0  0  0  0
  2  3  1  0  0  0  0
  3  4  1  0  0  0  0
  4  5  1  0  0  0  0
  5  6  1  0  0  0  0
  6  1  1  0  0  0  0
  4  7  1  0  0  0  0
  7  8  1  0  0  0  0
  8  9  1  0  0  0  0
  9 10  2  0  0  0  0
  9 11  1  0  0  0  0
 11 12  1  0  0  0  0
 12 13  1  0  0  0  0
 13 14  1  0  0  0  0
 14 10  1  0  0  0  0
 11 15  1  0  0  0  0
 15 16  1  0  0  0  0
 16 17  1  0  0  0  0
 17 12  1  0  0  0  0
  5 18  1  0  0  0  0
 10 18  1  0  0  0  0
 19 20  1  0  0  0  0
 20 21  1  0  0  0  0
 21 22  1  0  0  0  0
 22 23  1  0  0  0  0
 23 24  1  0  0  0  0
 23 25  1  0  0  0  0
 23 26  1  0  0  0  0
  2 27  1  1  0  0  0
  5 27  1  1  0  0  0
  3 28  1  1  0  0  0
 12 29  1  1  0  0  0
 16 30  1  1  0  0  0
 21 31  1  1  0  0  0
  2 32  1  6  0  0  0
  3 33  1  6  0  0  0
 11 34  1  6  0  0  0
 15 35  1  6  0  0  0
 16 36  1  6  0  0  0
 21 30  1  0  0  0  0
 19 37  1  6  0  0  0
 17 19  1  0  0  0  0
 17 38  1  6  0  0  0
 22 39  1  1  0  0  0
 39 40  1  0  0  0  0
 40 41  2  0  0  0  0
 40 42  1  0  0  0  0
M  END
>  <cdx:fragmentId>
5

$$$$
