1139.cdx
  Mrv1902 05222410282D          

 28 30  0  0  0  0            999 V2000
    5.0096   -5.0568    0.0000 C   0  0  0  0  0  0  0  0  0  0  0  0
    5.7227   -4.6419    0.0000 C   0  0  0  0  0  0  0  0  0  0  0  0
    7.1516   -4.6373    0.0000 C   0  0  0  0  0  0  0  0  0  0  0  0
    6.4385   -5.0521    0.0000 C   0  0  0  0  0  0  0  0  0  0  0  0
    5.7281   -6.2919    0.0000 O   0  0  0  0  0  0  0  0  0  0  0  0
    6.4412   -5.8771    0.0000 C   0  0  0  0  0  0  0  0  0  0  0  0
    4.3018   -7.1216    0.0000 C   0  0  0  0  0  0  0  0  0  0  0  0
    5.0203   -8.3567    0.0000 O   0  0  0  0  0  0  0  0  0  0  0  0
    5.0176   -7.5317    0.0000 C   0  0  0  0  0  0  0  0  0  0  0  0
    6.0368   -9.0665    0.0000 C   0  0  0  0  0  0  0  0  0  0  0  0
    9.2964   -5.0428    0.0000 O   0  0  0  0  0  0  0  0  0  0  0  0
    7.1570   -6.2872    0.0000 O   0  0  0  0  0  0  0  0  0  0  0  0
    5.7308   -7.1169    0.0000 O   0  0  0  0  0  0  0  0  0  0  0  0
    5.6243   -8.3521    0.0000 C   0  0  0  0  0  0  0  0  0  0  0  0
    7.1597   -7.1122    0.0000 C   0  0  1  0  0  0  0  0  0  0  0  0
    6.4466   -7.5271    0.0000 C   0  0  2  0  0  0  0  0  0  0  0  0
    6.4493   -8.3521    0.0000 C   0  0  0  0  0  0  0  0  0  0  0  0
    7.1651   -8.7622    0.0000 O   0  0  0  0  0  0  0  0  0  0  0  0
   10.0176   -7.1029    0.0000 C   0  0  0  0  0  0  0  0  0  0  0  0
   10.0149   -6.2779    0.0000 C   0  0  0  0  0  0  0  0  0  0  0  0
    9.2990   -5.8677    0.0000 C   0  0  0  0  0  0  0  0  0  0  0  0
    8.5859   -6.2826    0.0000 O   0  0  0  0  0  0  0  0  0  0  0  0
    9.3071   -8.3427    0.0000 C   0  0  0  0  0  0  0  0  0  0  0  0
    9.3044   -7.5177    0.0000 C   0  0  0  0  0  0  0  0  0  0  0  0
    8.5886   -7.1076    0.0000 C   0  0  0  0  0  0  0  0  0  0  0  0
    7.8755   -7.5224    0.0000 C   0  0  0  0  0  0  0  0  0  0  0  0
    7.8782   -8.3474    0.0000 C   0  0  0  0  0  0  0  0  0  0  0  0
    8.5940   -8.7576    0.0000 C   0  0  0  0  0  0  0  0  0  0  0  0
  2  1  1  0  0  0  0
  4  2  2  0  0  0  0
  4  3  1  0  0  0  0
  6  4  1  0  0  0  0
  6  5  2  0  0  0  0
 12  6  1  0  0  0  0
  9  7  1  0  0  0  0
  9  8  2  0  0  0  0
 13  9  1  0  0  0  0
 17 10  1  0  0  0  0
 21 11  2  0  0  0  0
 15 12  1  6  0  0  0
 16 13  1  6  0  0  0
 17 14  1  0  0  0  0
 15 26  1  0  0  0  0
 16 15  1  0  0  0  0
 17 16  1  0  0  0  0
 18 17  1  0  0  0  0
 27 18  1  0  0  0  0
 19 24  1  0  0  0  0
 20 19  2  0  0  0  0
 21 20  1  0  0  0  0
 22 21  1  0  0  0  0
 25 22  1  0  0  0  0
 23 28  2  0  0  0  0
 24 23  1  0  0  0  0
 25 24  2  0  0  0  0
 26 25  1  0  0  0  0
 27 26  2  0  0  0  0
 28 27  1  0  0  0  0
M  END
>  <cdx:fragmentId>
5

$$$$
