138113905.cdx
  Mrv1902 05222410252D          

 27 29  0  0  0  0            999 V2000
   15.3266   -9.7014    0.0000 C   0  0  0  0  0  0  0  0  0  0  0  0
   16.0411   -9.2889    0.0000 C   0  0  1  0  0  0  0  0  0  0  0  0
   16.0411   -8.4639    0.0000 C   0  0  2  0  0  0  0  0  0  0  0  0
   15.3266   -8.0514    0.0000 C   0  0  0  0  0  0  0  0  0  0  0  0
   14.6121   -8.4639    0.0000 C   0  0  0  0  0  0  0  0  0  0  0  0
   14.6121   -9.2889    0.0000 O   0  0  0  0  0  0  0  0  0  0  0  0
   16.8257   -8.2090    0.0000 C   0  0  0  0  0  0  0  0  0  0  0  0
   17.3106   -8.8764    0.0000 C   0  0  0  0  0  0  0  0  0  0  0  0
   16.8257   -9.5439    0.0000 C   0  0  0  0  0  0  0  0  0  0  0  0
   15.3266   -7.2264    0.0000 C   0  0  0  0  0  0  0  0  0  0  0  0
   16.0411   -6.8139    0.0000 O   0  0  0  0  0  0  0  0  0  0  0  0
   14.6121   -6.8139    0.0000 O   0  0  0  0  0  0  0  0  0  0  0  0
   15.3266  -10.5264    0.0000 O   0  0  0  0  0  0  0  0  0  0  0  0
   13.8977  -10.5264    0.0000 O   0  0  0  0  0  0  0  0  0  0  0  0
   14.6121  -10.9389    0.0000 C   0  0  0  0  0  0  0  0  0  0  0  0
   14.6121  -11.7639    0.0000 C   0  0  0  0  0  0  0  0  0  0  0  0
   13.8977  -12.1764    0.0000 C   0  0  0  0  0  0  0  0  0  0  0  0
   13.1832  -11.7639    0.0000 C   0  0  0  0  0  0  0  0  0  0  0  0
   13.1832  -10.9389    0.0000 C   0  0  0  0  0  0  0  0  0  0  0  0
   12.4687  -10.5264    0.0000 C   0  0  0  0  0  0  0  0  0  0  0  0
   11.7542  -10.9389    0.0000 O   0  0  0  0  0  0  0  0  0  0  0  0
   12.4687  -12.1764    0.0000 O   0  0  0  0  0  0  0  0  0  0  0  0
   13.8977  -13.0014    0.0000 O   0  0  0  0  0  0  0  0  0  0  0  0
   15.3266  -12.1764    0.0000 O   0  0  0  0  0  0  0  0  0  0  0  0
   17.0806  -10.3285    0.0000 C   0  0  0  0  0  0  0  0  0  0  0  0
   16.1273   -7.6434    0.0000 H   0  0  0  0  0  0  0  0  0  0  0  0
   16.1273  -10.1094    0.0000 H   0  0  0  0  0  0  0  0  0  0  0  0
  1  2  1  0  0  0  0
  2  3  1  0  0  0  0
  3  4  1  0  0  0  0
  4  5  2  0  0  0  0
  5  6  1  0  0  0  0
  1  6  1  0  0  0  0
  7  8  1  0  0  0  0
  8  9  1  0  0  0  0
  9  2  1  0  0  0  0
  7  3  1  0  0  0  0
 10 11  2  0  0  0  0
 10 12  1  0  0  0  0
  4 10  1  0  0  0  0
 14 15  1  0  0  0  0
 15 16  1  0  0  0  0
 16 17  1  0  0  0  0
 17 18  1  0  0  0  0
 18 19  1  0  0  0  0
 14 19  1  0  0  0  0
 20 21  1  0  0  0  0
 19 20  1  0  0  0  0
 18 22  1  0  0  0  0
 17 23  1  0  0  0  0
 16 24  1  0  0  0  0
 13 15  1  0  0  0  0
  1 13  1  0  0  0  0
  9 25  1  0  0  0  0
  3 26  1  1  0  0  0
  2 27  1  6  0  0  0
M  END
>  <cdx:groupId>
95604

>  <cdx:fragmentId>
95524

$$$$
