114.cdx
  Mrv1902 05222410192D          

 20 21  0  0  0  0            999 V2000
    7.4848   -3.9333    0.0000 C   0  0  0  0  0  0  0  0  0  0  0  0
    6.7704   -4.3458    0.0000 C   0  0  0  0  0  0  0  0  0  0  0  0
    6.0559   -3.9333    0.0000 C   0  0  0  0  0  0  0  0  0  0  0  0
    5.3414   -4.3458    0.0000 C   0  0  0  0  0  0  0  0  0  0  0  0
    4.6270   -3.9333    0.0000 C   0  0  0  0  0  0  0  0  0  0  0  0
    3.9125   -4.3458    0.0000 C   0  0  0  0  0  0  0  0  0  0  0  0
    3.1980   -3.9333    0.0000 O   0  0  0  0  0  0  0  0  0  0  0  0
    3.9125   -5.1708    0.0000 C   0  0  0  0  0  0  0  0  0  0  0  0
    3.1980   -5.5833    0.0000 O   0  0  0  0  0  0  0  0  0  0  0  0
    4.6270   -5.5833    0.0000 C   0  0  0  0  0  0  0  0  0  0  0  0
    5.3414   -5.1708    0.0000 C   0  0  0  0  0  0  0  0  0  0  0  0
    7.4848   -3.1083    0.0000 O   0  0  0  0  0  0  0  0  0  0  0  0
    8.1993   -4.3458    0.0000 O   0  0  0  0  0  0  0  0  0  0  0  0
    8.9138   -3.9333    0.0000 C   0  0  0  0  0  0  0  0  0  0  0  0
    9.6283   -4.3458    0.0000 C   0  0  0  0  0  0  0  0  0  0  0  0
   10.3427   -3.9333    0.0000 C   0  0  0  0  0  0  0  0  0  0  0  0
   11.0572   -4.3458    0.0000 C   0  0  0  0  0  0  0  0  0  0  0  0
   11.0572   -5.1708    0.0000 C   0  0  0  0  0  0  0  0  0  0  0  0
   10.3427   -5.5833    0.0000 C   0  0  0  0  0  0  0  0  0  0  0  0
    9.6283   -5.1708    0.0000 C   0  0  0  0  0  0  0  0  0  0  0  0
  1  2  1  0  0  0  0
  2  3  2  0  0  0  0
  3  4  1  0  0  0  0
  4  5  1  0  0  0  0
  5  6  2  0  0  0  0
  6  7  1  0  0  0  0
  6  8  1  0  0  0  0
  8  9  1  0  0  0  0
  8 10  2  0  0  0  0
 10 11  1  0  0  0  0
  4 11  2  0  0  0  0
  1 12  2  0  0  0  0
  1 13  1  0  0  0  0
 14 15  1  0  0  0  0
 15 16  1  0  0  0  0
 16 17  2  0  0  0  0
 17 18  1  0  0  0  0
 18 19  2  0  0  0  0
 19 20  1  0  0  0  0
 15 20  2  0  0  0  0
 13 14  1  0  0  0  0
M  END
>  <cdx:groupId>
186

>  <cdx:fragmentId>
128

$$$$
