1140.cdx
  Mrv1902 05222410212D          

  7  7  0  0  0  0            999 V2000
    5.7603   -3.7537    0.0000 C   0  0  0  0  0  0  0  0  0  0  0  0
    4.3314   -4.5788    0.0000 C   0  0  0  0  0  0  0  0  0  0  0  0
    5.7603   -4.5787    0.0000 C   0  0  0  0  0  0  0  0  0  0  0  0
    5.0458   -3.3413    0.0000 C   0  0  0  0  0  0  0  0  0  0  0  0
    5.0458   -4.9913    0.0000 C   0  0  0  0  0  0  0  0  0  0  0  0
    4.3314   -3.7537    0.0000 C   0  0  0  0  0  0  0  0  0  0  0  0
    6.4748   -3.3413    0.0000 C   0  0  0  0  0  0  0  0  0  0  0  0
  1  3  1  0  0  0  0
  1  4  2  0  0  0  0
  3  5  2  0  0  0  0
  2  5  1  0  0  0  0
  2  6  2  0  0  0  0
  4  6  1  0  0  0  0
  1  7  1  0  0  0  0
M  END
>  <cdx:groupId>
23

>  <cdx:fragmentId>
7

$$$$
