11402.cdx
  Mrv1902 05222410212D          

 56 62  0  0  0  0            999 V2000
    4.7030   -6.2975    0.0000 C   0  0  0  0  0  0  0  0  0  0  0  0
    4.7030   -7.1225    0.0000 C   0  0  1  0  0  0  0  0  0  0  0  0
    5.4175   -7.5350    0.0000 C   0  0  1  0  0  0  0  0  0  0  0  0
    6.1320   -7.1225    0.0000 C   0  0  0  0  0  0  0  0  0  0  0  0
    6.1320   -6.2975    0.0000 C   0  0  2  0  0  0  0  0  0  0  0  0
    5.4175   -5.8850    0.0000 C   0  0  0  0  0  0  0  0  0  0  0  0
    6.8464   -7.5350    0.0000 C   0  0  0  0  0  0  0  0  0  0  0  0
    7.5609   -7.1225    0.0000 C   0  0  0  0  0  0  0  0  0  0  0  0
    7.5609   -6.2975    0.0000 C   0  0  0  0  0  0  0  0  0  0  0  0
    6.8464   -5.8850    0.0000 C   0  0  1  0  0  0  0  0  0  0  0  0
    8.2754   -5.8850    0.0000 C   0  0  1  0  0  0  0  0  0  0  0  0
    8.2754   -5.0600    0.0000 C   0  0  2  0  0  0  0  0  0  0  0  0
    7.5609   -4.6475    0.0000 C   0  0  0  0  0  0  0  0  0  0  0  0
    6.8464   -5.0600    0.0000 C   0  0  0  0  0  0  0  0  0  0  0  0
    9.0600   -6.1399    0.0000 C   0  0  0  0  0  0  0  0  0  0  0  0
    9.5449   -5.4725    0.0000 C   0  0  0  0  0  0  0  0  0  0  0  0
    9.0600   -4.8051    0.0000 C   0  0  2  0  0  0  0  0  0  0  0  0
    5.0050   -8.2495    0.0000 C   0  0  0  0  0  0  0  0  0  0  0  0
    5.8300   -8.2495    0.0000 C   0  0  0  0  0  0  0  0  0  0  0  0
    3.9886   -7.5350    0.0000 O   0  0  0  0  0  0  0  0  0  0  0  0
    6.1320   -5.4725    0.0000 C   0  0  0  0  0  0  0  0  0  0  0  0
    8.2754   -4.2350    0.0000 C   0  0  0  0  0  0  0  0  0  0  0  0
    8.2754   -6.7100    0.0000 C   0  0  0  0  0  0  0  0  0  0  0  0
   10.3699   -5.4725    0.0000 O   0  0  0  0  0  0  0  0  0  0  0  0
    9.3149   -4.0204    0.0000 C   0  0  2  0  0  0  0  0  0  0  0  0
    9.8569   -4.5915    0.0000 H   0  0  0  0  0  0  0  0  0  0  0  0
    8.7629   -3.4073    0.0000 C   0  0  0  0  0  0  0  0  0  0  0  0
   10.1219   -3.8489    0.0000 C   0  0  0  0  0  0  0  0  0  0  0  0
   10.6739   -4.4620    0.0000 C   0  0  0  0  0  0  0  0  0  0  0  0
   11.4809   -4.2905    0.0000 C   0  0  0  0  0  0  0  0  0  0  0  0
   10.2614   -5.1765    0.0000 O   0  0  0  0  0  0  0  0  0  0  0  0
   12.0330   -4.9036    0.0000 C   0  0  0  0  0  0  0  0  0  0  0  0
   12.8399   -4.7320    0.0000 C   0  0  0  0  0  0  0  0  0  0  0  0
   11.7780   -5.6882    0.0000 C   0  0  0  0  0  0  0  0  0  0  0  0
   12.6163   -5.4869    0.0000 O   0  0  0  0  0  0  0  0  0  0  0  0
   11.7359   -3.5059    0.0000 O   0  0  0  0  0  0  0  0  0  0  0  0
    3.2741   -7.1225    0.0000 C   0  0  2  0  0  0  0  0  0  0  0  0
    3.2741   -6.2975    0.0000 O   0  0  0  0  0  0  0  0  0  0  0  0
    2.5596   -5.8850    0.0000 C   0  0  0  0  0  0  0  0  0  0  0  0
    1.8451   -6.2975    0.0000 C   0  0  2  0  0  0  0  0  0  0  0  0
    1.8451   -7.1225    0.0000 C   0  0  1  0  0  0  0  0  0  0  0  0
    2.5596   -7.5350    0.0000 C   0  0  1  0  0  0  0  0  0  0  0  0
    2.5596   -8.3600    0.0000 O   0  0  0  0  0  0  0  0  0  0  0  0
    1.1307   -7.5350    0.0000 O   0  0  0  0  0  0  0  0  0  0  0  0
    1.1307   -5.8850    0.0000 O   0  0  0  0  0  0  0  0  0  0  0  0
   12.4028   -6.2838    0.0000 C   0  0  2  0  0  0  0  0  0  0  0  0
   11.6059   -6.4974    0.0000 O   0  0  0  0  0  0  0  0  0  0  0  0
   11.3924   -7.2942    0.0000 C   0  0  1  0  0  0  0  0  0  0  0  0
   11.9757   -7.8776    0.0000 C   0  0  2  0  0  0  0  0  0  0  0  0
   12.7726   -7.6641    0.0000 C   0  0  1  0  0  0  0  0  0  0  0  0
   12.9862   -6.8672    0.0000 C   0  0  1  0  0  0  0  0  0  0  0  0
   10.5955   -7.5078    0.0000 C   0  0  0  0  0  0  0  0  0  0  0  0
   13.3560   -8.2474    0.0000 O   0  0  0  0  0  0  0  0  0  0  0  0
   13.7830   -6.6537    0.0000 O   0  0  0  0  0  0  0  0  0  0  0  0
   11.7622   -8.6745    0.0000 O   0  0  0  0  0  0  0  0  0  0  0  0
   10.3820   -8.3047    0.0000 O   0  0  0  0  0  0  0  0  0  0  0  0
  1  2  1  0  0  0  0
  2  3  1  0  0  0  0
  3  4  1  0  0  0  0
  4  5  1  0  0  0  0
  5  6  1  0  0  0  0
  6  1  1  0  0  0  0
  4  7  1  0  0  0  0
  7  8  1  0  0  0  0
  8  9  2  0  0  0  0
  9 10  1  0  0  0  0
 10  5  1  0  0  0  0
  9 11  1  0  0  0  0
 11 12  1  0  0  0  0
 12 13  1  0  0  0  0
 13 14  1  0  0  0  0
 14 10  1  0  0  0  0
 11 15  1  0  0  0  0
 15 16  1  0  0  0  0
 16 17  1  0  0  0  0
 17 12  1  0  0  0  0
  3 18  1  1  0  0  0
  3 19  1  6  0  0  0
  2 20  1  1  0  0  0
  5 21  1  1  0  0  0
 10 21  1  1  0  0  0
 12 22  1  1  0  0  0
 11 23  1  6  0  0  0
 16 24  2  0  0  0  0
 17 25  1  0  0  0  0
 17 26  1  6  0  0  0
 25 27  1  6  0  0  0
 25 28  1  0  0  0  0
 28 29  1  0  0  0  0
 29 30  1  0  0  0  0
 29 31  2  0  0  0  0
 30 32  1  0  0  0  0
 32 33  1  0  0  0  0
 32 34  1  0  0  0  0
 32 35  1  0  0  0  0
 30 36  1  0  0  0  0
 37 20  1  1  0  0  0
 37 38  1  0  0  0  0
 38 39  1  0  0  0  0
 39 40  1  0  0  0  0
 40 41  1  0  0  0  0
 41 42  1  0  0  0  0
 42 37  1  0  0  0  0
 42 43  1  6  0  0  0
 41 44  1  1  0  0  0
 40 45  1  6  0  0  0
 46 35  1  1  0  0  0
 46 47  1  0  0  0  0
 47 48  1  0  0  0  0
 48 49  1  0  0  0  0
 49 50  1  0  0  0  0
 50 51  1  0  0  0  0
 51 46  1  0  0  0  0
 48 52  1  1  0  0  0
 50 53  1  1  0  0  0
 51 54  1  6  0  0  0
 49 55  1  6  0  0  0
 52 56  1  0  0  0  0
M  END
>  <cdx:fragmentId>
740

$$$$
