11403.cdx
  Mrv1902 05222410212D          

 57 63  0  0  0  0            999 V2000
    3.2455   -6.5450    0.0000 C   0  0  0  0  0  0  0  0  0  0  0  0
    3.2455   -7.3700    0.0000 C   0  0  1  0  0  0  0  0  0  0  0  0
    3.9600   -7.7825    0.0000 C   0  0  1  0  0  0  0  0  0  0  0  0
    4.6745   -7.3700    0.0000 C   0  0  0  0  0  0  0  0  0  0  0  0
    4.6745   -6.5450    0.0000 C   0  0  2  0  0  0  0  0  0  0  0  0
    3.9600   -6.1325    0.0000 C   0  0  0  0  0  0  0  0  0  0  0  0
    5.3889   -7.7825    0.0000 C   0  0  0  0  0  0  0  0  0  0  0  0
    6.1034   -7.3700    0.0000 C   0  0  0  0  0  0  0  0  0  0  0  0
    6.1034   -6.5450    0.0000 C   0  0  0  0  0  0  0  0  0  0  0  0
    5.3889   -6.1325    0.0000 C   0  0  1  0  0  0  0  0  0  0  0  0
    6.8179   -6.1325    0.0000 C   0  0  1  0  0  0  0  0  0  0  0  0
    6.8179   -5.3075    0.0000 C   0  0  2  0  0  0  0  0  0  0  0  0
    6.1034   -4.8950    0.0000 C   0  0  0  0  0  0  0  0  0  0  0  0
    5.3889   -5.3075    0.0000 C   0  0  0  0  0  0  0  0  0  0  0  0
    7.6025   -6.3874    0.0000 C   0  0  2  0  0  0  0  0  0  0  0  0
    8.0874   -5.7200    0.0000 C   0  0  0  0  0  0  0  0  0  0  0  0
    7.6025   -5.0526    0.0000 C   0  0  2  0  0  0  0  0  0  0  0  0
    3.5475   -8.4970    0.0000 C   0  0  0  0  0  0  0  0  0  0  0  0
    4.3725   -8.4970    0.0000 C   0  0  0  0  0  0  0  0  0  0  0  0
    2.5311   -7.7825    0.0000 O   0  0  0  0  0  0  0  0  0  0  0  0
    4.6745   -5.7200    0.0000 C   0  0  0  0  0  0  0  0  0  0  0  0
    6.8179   -4.4825    0.0000 C   0  0  0  0  0  0  0  0  0  0  0  0
    6.8179   -6.9575    0.0000 C   0  0  0  0  0  0  0  0  0  0  0  0
    8.9124   -5.7200    0.0000 O   0  0  0  0  0  0  0  0  0  0  0  0
    7.8574   -4.2679    0.0000 C   0  0  2  0  0  0  0  0  0  0  0  0
    8.3994   -4.8390    0.0000 H   0  0  0  0  0  0  0  0  0  0  0  0
    7.3054   -3.6548    0.0000 C   0  0  0  0  0  0  0  0  0  0  0  0
    8.6644   -4.0964    0.0000 C   0  0  0  0  0  0  0  0  0  0  0  0
    9.2164   -4.7095    0.0000 C   0  0  0  0  0  0  0  0  0  0  0  0
   10.0234   -4.5380    0.0000 C   0  0  0  0  0  0  0  0  0  0  0  0
    8.8039   -5.4240    0.0000 O   0  0  0  0  0  0  0  0  0  0  0  0
   10.5755   -5.1511    0.0000 C   0  0  0  0  0  0  0  0  0  0  0  0
   11.3824   -4.9795    0.0000 C   0  0  0  0  0  0  0  0  0  0  0  0
   10.3205   -5.9357    0.0000 C   0  0  0  0  0  0  0  0  0  0  0  0
   11.1588   -5.7344    0.0000 O   0  0  0  0  0  0  0  0  0  0  0  0
   10.2784   -3.7534    0.0000 O   0  0  0  0  0  0  0  0  0  0  0  0
   10.9453   -6.5313    0.0000 C   0  0  2  0  0  0  0  0  0  0  0  0
   10.1484   -6.7449    0.0000 O   0  0  0  0  0  0  0  0  0  0  0  0
    9.9349   -7.5417    0.0000 C   0  0  1  0  0  0  0  0  0  0  0  0
   10.5182   -8.1251    0.0000 C   0  0  2  0  0  0  0  0  0  0  0  0
   11.3151   -7.9116    0.0000 C   0  0  1  0  0  0  0  0  0  0  0  0
   11.5287   -7.1147    0.0000 C   0  0  1  0  0  0  0  0  0  0  0  0
    9.1380   -7.7553    0.0000 C   0  0  0  0  0  0  0  0  0  0  0  0
   11.8985   -8.4949    0.0000 O   0  0  0  0  0  0  0  0  0  0  0  0
   12.3255   -6.9012    0.0000 O   0  0  0  0  0  0  0  0  0  0  0  0
   10.3047   -8.9220    0.0000 O   0  0  0  0  0  0  0  0  0  0  0  0
    8.9245   -8.5522    0.0000 O   0  0  0  0  0  0  0  0  0  0  0  0
    7.8574   -7.1721    0.0000 O   0  0  0  0  0  0  0  0  0  0  0  0
    8.1276   -8.7657    0.0000 C   0  0  2  0  0  0  0  0  0  0  0  0
    7.5442   -8.1823    0.0000 O   0  0  0  0  0  0  0  0  0  0  0  0
    6.7473   -8.3958    0.0000 C   0  0  0  0  0  0  0  0  0  0  0  0
    6.5338   -9.1927    0.0000 C   0  0  2  0  0  0  0  0  0  0  0  0
    7.1172   -9.7761    0.0000 C   0  0  1  0  0  0  0  0  0  0  0  0
    7.9140   -9.5626    0.0000 C   0  0  1  0  0  0  0  0  0  0  0  0
    8.4974  -10.1459    0.0000 O   0  0  0  0  0  0  0  0  0  0  0  0
    6.9036  -10.5730    0.0000 O   0  0  0  0  0  0  0  0  0  0  0  0
    5.7369   -9.4063    0.0000 O   0  0  0  0  0  0  0  0  0  0  0  0
  1  2  1  0  0  0  0
  2  3  1  0  0  0  0
  3  4  1  0  0  0  0
  4  5  1  0  0  0  0
  5  6  1  0  0  0  0
  6  1  1  0  0  0  0
  4  7  1  0  0  0  0
  7  8  1  0  0  0  0
  8  9  2  0  0  0  0
  9 10  1  0  0  0  0
 10  5  1  0  0  0  0
  9 11  1  0  0  0  0
 11 12  1  0  0  0  0
 12 13  1  0  0  0  0
 13 14  1  0  0  0  0
 14 10  1  0  0  0  0
 11 15  1  0  0  0  0
 15 16  1  0  0  0  0
 16 17  1  0  0  0  0
 17 12  1  0  0  0  0
  3 18  1  1  0  0  0
  3 19  1  6  0  0  0
  2 20  1  1  0  0  0
  5 21  1  1  0  0  0
 10 21  1  1  0  0  0
 12 22  1  1  0  0  0
 11 23  1  6  0  0  0
 16 24  2  0  0  0  0
 17 25  1  0  0  0  0
 17 26  1  6  0  0  0
 25 27  1  6  0  0  0
 25 28  1  0  0  0  0
 28 29  1  0  0  0  0
 29 30  1  0  0  0  0
 29 31  2  0  0  0  0
 30 32  1  0  0  0  0
 32 33  1  0  0  0  0
 32 34  1  0  0  0  0
 32 35  1  0  0  0  0
 30 36  1  0  0  0  0
 37 35  1  1  0  0  0
 37 38  1  0  0  0  0
 38 39  1  0  0  0  0
 39 40  1  0  0  0  0
 40 41  1  0  0  0  0
 41 42  1  0  0  0  0
 42 37  1  0  0  0  0
 39 43  1  1  0  0  0
 41 44  1  1  0  0  0
 42 45  1  6  0  0  0
 40 46  1  6  0  0  0
 43 47  1  0  0  0  0
 15 48  1  6  0  0  0
 49 47  1  1  0  0  0
 49 50  1  0  0  0  0
 50 51  1  0  0  0  0
 51 52  1  0  0  0  0
 52 53  1  0  0  0  0
 53 54  1  0  0  0  0
 54 49  1  0  0  0  0
 54 55  1  6  0  0  0
 53 56  1  1  0  0  0
 52 57  1  6  0  0  0
M  END
>  <cdx:fragmentId>
740

$$$$
