11404.cdx
  Mrv1902 05222410232D          

 58 65  0  0  0  0            999 V2000
    4.9505   -9.9000    0.0000 C   0  0  0  0  0  0  0  0  0  0  0  0
    4.9505  -10.7250    0.0000 C   0  0  1  0  0  0  0  0  0  0  0  0
    5.6650  -11.1375    0.0000 C   0  0  1  0  0  0  0  0  0  0  0  0
    6.3795  -10.7250    0.0000 C   0  0  0  0  0  0  0  0  0  0  0  0
    6.3795   -9.9000    0.0000 C   0  0  2  0  0  0  0  0  0  0  0  0
    5.6650   -9.4875    0.0000 C   0  0  0  0  0  0  0  0  0  0  0  0
    7.0939  -11.1375    0.0000 C   0  0  0  0  0  0  0  0  0  0  0  0
    7.8084  -10.7250    0.0000 C   0  0  0  0  0  0  0  0  0  0  0  0
    7.8084   -9.9000    0.0000 C   0  0  0  0  0  0  0  0  0  0  0  0
    7.0939   -9.4875    0.0000 C   0  0  1  0  0  0  0  0  0  0  0  0
    8.5229   -9.4875    0.0000 C   0  0  1  0  0  0  0  0  0  0  0  0
    8.5229   -8.6625    0.0000 C   0  0  2  0  0  0  0  0  0  0  0  0
    7.8084   -8.2500    0.0000 C   0  0  0  0  0  0  0  0  0  0  0  0
    7.0939   -8.6625    0.0000 C   0  0  0  0  0  0  0  0  0  0  0  0
    9.3075   -9.7424    0.0000 C   0  0  2  0  0  0  0  0  0  0  0  0
    9.7924   -9.0750    0.0000 C   0  0  2  0  0  0  0  0  0  0  0  0
    9.3075   -8.4076    0.0000 C   0  0  2  0  0  0  0  0  0  0  0  0
    5.2525  -11.8520    0.0000 C   0  0  0  0  0  0  0  0  0  0  0  0
    6.0775  -11.8520    0.0000 C   0  0  0  0  0  0  0  0  0  0  0  0
    4.2361  -11.1375    0.0000 O   0  0  0  0  0  0  0  0  0  0  0  0
    6.3795   -9.0750    0.0000 C   0  0  0  0  0  0  0  0  0  0  0  0
    8.5229   -7.8375    0.0000 C   0  0  0  0  0  0  0  0  0  0  0  0
    8.5229  -10.3125    0.0000 C   0  0  0  0  0  0  0  0  0  0  0  0
   10.5069   -9.4875    0.0000 O   0  0  0  0  0  0  0  0  0  0  0  0
    9.5624   -7.6229    0.0000 C   0  0  2  0  0  0  0  0  0  0  0  0
    8.8950   -7.6931    0.0000 H   0  0  0  0  0  0  0  0  0  0  0  0
    9.0104   -7.0098    0.0000 C   0  0  0  0  0  0  0  0  0  0  0  0
   10.3694   -7.4514    0.0000 C   0  0  0  0  0  0  0  0  0  0  0  0
   10.9214   -8.0645    0.0000 C   0  0  2  0  0  0  0  0  0  0  0  0
   11.7284   -7.8930    0.0000 C   0  0  1  0  0  0  0  0  0  0  0  0
   12.2805   -8.5061    0.0000 C   0  0  0  0  0  0  0  0  0  0  0  0
   13.0874   -8.3345    0.0000 C   0  0  0  0  0  0  0  0  0  0  0  0
   12.0255   -9.2907    0.0000 C   0  0  0  0  0  0  0  0  0  0  0  0
   12.8638   -9.0894    0.0000 O   0  0  0  0  0  0  0  0  0  0  0  0
   11.9834   -7.1084    0.0000 O   0  0  0  0  0  0  0  0  0  0  0  0
    3.5216  -10.7250    0.0000 C   0  0  2  0  0  0  0  0  0  0  0  0
    3.5216   -9.9000    0.0000 O   0  0  0  0  0  0  0  0  0  0  0  0
    2.8071   -9.4875    0.0000 C   0  0  0  0  0  0  0  0  0  0  0  0
    2.0926   -9.9000    0.0000 C   0  0  2  0  0  0  0  0  0  0  0  0
    2.0926  -10.7250    0.0000 C   0  0  1  0  0  0  0  0  0  0  0  0
    2.8071  -11.1375    0.0000 C   0  0  1  0  0  0  0  0  0  0  0  0
    2.8071  -11.9625    0.0000 O   0  0  0  0  0  0  0  0  0  0  0  0
    1.3782  -11.1375    0.0000 O   0  0  0  0  0  0  0  0  0  0  0  0
    1.3782   -9.4875    0.0000 O   0  0  0  0  0  0  0  0  0  0  0  0
   10.0925   -8.1950    0.0000 O   0  0  0  0  0  0  0  0  0  0  0  0
   11.1350   -7.2676    0.0000 H   0  0  0  0  0  0  0  0  0  0  0  0
   11.5611   -6.3996    0.0000 C   0  0  2  0  0  0  0  0  0  0  0  0
   11.9637   -5.6796    0.0000 O   0  0  0  0  0  0  0  0  0  0  0  0
   11.5415   -4.9708    0.0000 C   0  0  1  0  0  0  0  0  0  0  0  0
   10.7165   -4.9821    0.0000 C   0  0  2  0  0  0  0  0  0  0  0  0
   10.3139   -5.7022    0.0000 C   0  0  1  0  0  0  0  0  0  0  0  0
   10.7362   -6.4110    0.0000 C   0  0  1  0  0  0  0  0  0  0  0  0
   11.9441   -4.2507    0.0000 C   0  0  0  0  0  0  0  0  0  0  0  0
    9.4890   -5.7135    0.0000 O   0  0  0  0  0  0  0  0  0  0  0  0
   10.2943   -4.2734    0.0000 O   0  0  0  0  0  0  0  0  0  0  0  0
   10.3335   -7.1310    0.0000 O   0  0  0  0  0  0  0  0  0  0  0  0
   11.5218   -3.5420    0.0000 O   0  0  0  0  0  0  0  0  0  0  0  0
    9.5624  -10.5271    0.0000 O   0  0  0  0  0  0  0  0  0  0  0  0
  1  2  1  0  0  0  0
  2  3  1  0  0  0  0
  3  4  1  0  0  0  0
  4  5  1  0  0  0  0
  5  6  1  0  0  0  0
  6  1  1  0  0  0  0
  4  7  1  0  0  0  0
  7  8  1  0  0  0  0
  8  9  2  0  0  0  0
  9 10  1  0  0  0  0
 10  5  1  0  0  0  0
  9 11  1  0  0  0  0
 11 12  1  0  0  0  0
 12 13  1  0  0  0  0
 13 14  1  0  0  0  0
 14 10  1  0  0  0  0
 11 15  1  0  0  0  0
 15 16  1  0  0  0  0
 16 17  1  0  0  0  0
 17 12  1  0  0  0  0
  3 18  1  1  0  0  0
  3 19  1  6  0  0  0
  2 20  1  1  0  0  0
  5 21  1  1  0  0  0
 10 21  1  1  0  0  0
 12 22  1  1  0  0  0
 11 23  1  6  0  0  0
 16 24  1  6  0  0  0
 17 25  1  0  0  0  0
 17 26  1  6  0  0  0
 25 27  1  6  0  0  0
 25 28  1  0  0  0  0
 28 29  1  0  0  0  0
 29 30  1  0  0  0  0
 30 31  1  0  0  0  0
 31 32  1  0  0  0  0
 31 33  1  0  0  0  0
 31 34  1  0  0  0  0
 30 35  1  6  0  0  0
 36 20  1  1  0  0  0
 36 37  1  0  0  0  0
 37 38  1  0  0  0  0
 38 39  1  0  0  0  0
 39 40  1  0  0  0  0
 40 41  1  0  0  0  0
 41 36  1  0  0  0  0
 41 42  1  6  0  0  0
 40 43  1  1  0  0  0
 39 44  1  6  0  0  0
 16 45  1  1  0  0  0
 45 29  1  0  0  0  0
 29 46  1  1  0  0  0
 47 35  1  1  0  0  0
 47 48  1  0  0  0  0
 48 49  1  0  0  0  0
 49 50  1  0  0  0  0
 50 51  1  0  0  0  0
 51 52  1  0  0  0  0
 52 47  1  0  0  0  0
 49 53  1  1  0  0  0
 51 54  1  1  0  0  0
 50 55  1  6  0  0  0
 52 56  1  6  0  0  0
 53 57  1  0  0  0  0
 15 58  1  6  0  0  0
M  END
>  <cdx:fragmentId>
740

$$$$
