11406.cdx
  Mrv1902 05222410222D          

 12 12  0  0  0  0            999 V2000
    4.4890   -3.0041    0.0000 C   0  0  0  0  0  0  0  0  0  0  0  0
    3.7745   -3.4166    0.0000 C   0  0  0  0  0  0  0  0  0  0  0  0
    3.7745   -4.2416    0.0000 C   0  0  0  0  0  0  0  0  0  0  0  0
    3.0600   -4.6541    0.0000 C   0  0  0  0  0  0  0  0  0  0  0  0
    2.3455   -4.2416    0.0000 C   0  0  0  0  0  0  0  0  0  0  0  0
    2.3455   -3.4166    0.0000 C   0  0  0  0  0  0  0  0  0  0  0  0
    3.0600   -3.0041    0.0000 C   0  0  0  0  0  0  0  0  0  0  0  0
    4.4890   -2.1791    0.0000 O   0  0  0  0  0  0  0  0  0  0  0  0
    5.2034   -3.4166    0.0000 O   0  0  0  0  0  0  0  0  0  0  0  0
    5.9179   -3.0041    0.0000 C   0  0  0  0  0  0  0  0  0  0  0  0
    6.6324   -3.4166    0.0000 C   0  0  0  0  0  0  0  0  0  0  0  0
    7.3468   -3.0041    0.0000 C   0  0  0  0  0  0  0  0  0  0  0  0
  1  2  1  0  0  0  0
  2  3  1  0  0  0  0
  3  4  2  0  0  0  0
  4  5  1  0  0  0  0
  5  6  2  0  0  0  0
  6  7  1  0  0  0  0
  2  7  2  0  0  0  0
  1  8  2  0  0  0  0
  1  9  1  0  0  0  0
 10 11  1  0  0  0  0
 11 12  2  0  0  0  0
  9 10  1  0  0  0  0
M  END
>  <cdx:groupId>
38

>  <cdx:fragmentId>
5

$$$$
