11421.cdx
  Mrv1902 05222410232D          

 33 32  0  0  0  0            999 V2000
    1.0825   -7.0830    0.0000 C   0  0  0  0  0  0  0  0  0  0  0  0
    1.2915   -7.6213    0.0000 C   0  0  0  0  0  0  0  0  0  0  0  0
    1.8622   -7.7094    0.0000 C   0  0  0  0  0  0  0  0  0  0  0  0
    2.0713   -8.2478    0.0000 C   0  0  0  0  0  0  0  0  0  0  0  0
    2.6420   -8.3359    0.0000 C   0  0  0  0  0  0  0  0  0  0  0  0
    2.8511   -8.8743    0.0000 C   0  0  0  0  0  0  0  0  0  0  0  0
    3.4218   -8.9624    0.0000 C   0  0  0  0  0  0  0  0  0  0  0  0
    3.6308   -9.5007    0.0000 C   0  0  0  0  0  0  0  0  0  0  0  0
    4.2016   -9.5889    0.0000 C   0  0  0  0  0  0  0  0  0  0  0  0
    4.4106  -10.1272    0.0000 C   0  0  0  0  0  0  0  0  0  0  0  0
    4.9813  -10.2153    0.0000 C   0  0  0  0  0  0  0  0  0  0  0  0
    5.1904  -10.7537    0.0000 C   0  0  0  0  0  0  0  0  0  0  0  0
    5.7611  -10.8418    0.0000 C   0  0  0  0  0  0  0  0  0  0  0  0
    5.9702  -11.3801    0.0000 C   0  0  0  0  0  0  0  0  0  0  0  0
    6.5409  -11.4683    0.0000 C   0  0  0  0  0  0  0  0  0  0  0  0
    6.7499  -12.0066    0.0000 C   0  0  0  0  0  0  0  0  0  0  0  0
    7.3207  -12.0948    0.0000 C   0  0  0  0  0  0  0  0  0  0  0  0
    7.5297  -12.6331    0.0000 C   0  0  0  0  0  0  0  0  0  0  0  0
    8.1005  -12.7212    0.0000 C   0  0  0  0  0  0  0  0  0  0  0  0
    8.3095  -13.2596    0.0000 C   0  0  0  0  0  0  0  0  0  0  0  0
    8.8802  -13.3477    0.0000 C   0  0  0  0  0  0  0  0  0  0  0  0
    9.0893  -13.8860    0.0000 C   0  0  0  0  0  0  0  0  0  0  0  0
    9.6600  -13.9742    0.0000 C   0  0  0  0  0  0  0  0  0  0  0  0
    9.8690  -14.5125    0.0000 C   0  0  0  0  0  0  0  0  0  0  0  0
   10.4398  -14.6006    0.0000 C   0  0  0  0  0  0  0  0  0  0  0  0
   10.6488  -15.1390    0.0000 C   0  0  0  0  0  0  0  0  0  0  0  0
   11.2196  -15.2271    0.0000 O   0  0  0  0  0  0  0  0  0  0  0  0
   11.4286  -15.7655    0.0000 C   0  0  0  0  0  0  0  0  0  0  0  0
   11.9993  -15.8536    0.0000 C   0  0  0  0  0  0  0  0  0  0  0  0
   12.2084  -16.3919    0.0000 C   0  0  0  0  0  0  0  0  0  0  0  0
   12.7858  -16.3823    0.0000 O   0  0  0  0  0  0  0  0  0  0  0  0
   12.4008  -15.4385    0.0000 O   0  0  0  0  0  0  0  0  0  0  0  0
   10.2473  -15.5541    0.0000 O   0  0  0  0  0  0  0  0  0  0  0  0
  1  2  1  0  0  0  0
  2  3  1  0  0  0  0
  3  4  1  0  0  0  0
  4  5  1  0  0  0  0
  5  6  1  0  0  0  0
  6  7  1  0  0  0  0
  7  8  1  0  0  0  0
  8  9  1  0  0  0  0
  9 10  1  0  0  0  0
 10 11  1  0  0  0  0
 11 12  1  0  0  0  0
 12 13  1  0  0  0  0
 13 14  1  0  0  0  0
 14 15  1  0  0  0  0
 15 16  1  0  0  0  0
 16 17  1  0  0  0  0
 17 18  1  0  0  0  0
 18 19  1  0  0  0  0
 19 20  1  0  0  0  0
 20 21  1  0  0  0  0
 21 22  1  0  0  0  0
 22 23  1  0  0  0  0
 23 24  1  0  0  0  0
 24 25  1  0  0  0  0
 25 26  1  0  0  0  0
 26 27  1  0  0  0  0
 27 28  1  0  0  0  0
 28 29  1  0  0  0  0
 29 30  1  0  0  0  0
 30 31  1  0  0  0  0
 29 32  1  0  0  0  0
 26 33  2  0  0  0  0
M  END
>  <cdx:fragmentId>
3

$$$$
