11420.cdx
  Mrv1902 05222410232D          

 26 25  0  0  0  0            999 V2000
    4.0367   -9.3352    0.0000 C   0  0  0  0  0  0  0  0  0  0  0  0
    4.7528   -8.9261    0.0000 C   0  0  0  0  0  0  0  0  0  0  0  0
    5.4652   -9.3417    0.0000 C   0  0  0  0  0  0  0  0  0  0  0  0
    6.1813   -8.9325    0.0000 C   0  0  0  0  0  0  0  0  0  0  0  0
    6.8937   -9.3481    0.0000 C   0  0  0  0  0  0  0  0  0  0  0  0
    7.6098   -8.9390    0.0000 C   0  0  0  0  0  0  0  0  0  0  0  0
    8.3221   -9.3546    0.0000 C   0  0  0  0  0  0  0  0  0  0  0  0
    9.0382   -8.9454    0.0000 C   0  0  0  0  0  0  0  0  0  0  0  0
    9.7506   -9.3610    0.0000 C   0  0  0  0  0  0  0  0  0  0  0  0
   10.4667   -8.9519    0.0000 C   0  0  0  0  0  0  0  0  0  0  0  0
   11.1791   -9.3675    0.0000 C   0  0  0  0  0  0  0  0  0  0  0  0
   11.8952   -8.9583    0.0000 C   0  0  0  0  0  0  0  0  0  0  0  0
   12.6076   -9.3739    0.0000 C   0  0  0  0  0  0  0  0  0  0  0  0
   13.3237   -8.9648    0.0000 C   0  0  0  0  0  0  0  0  0  0  0  0
   14.0360   -9.3804    0.0000 C   0  0  0  0  0  0  0  0  0  0  0  0
   14.7521   -8.9713    0.0000 C   0  0  0  0  0  0  0  0  0  0  0  0
   15.4645   -9.3869    0.0000 C   0  0  0  0  0  0  0  0  0  0  0  0
   16.1806   -8.9777    0.0000 C   0  0  0  0  0  0  0  0  0  0  0  0
   16.8930   -9.3933    0.0000 C   0  0  0  0  0  0  0  0  0  0  0  0
   17.6091   -8.9842    0.0000 C   0  0  0  0  0  0  0  0  0  0  0  0
   18.3215   -9.3998    0.0000 C   0  0  0  0  0  0  0  0  0  0  0  0
   19.0376   -8.9906    0.0000 C   0  0  0  0  0  0  0  0  0  0  0  0
   19.7499   -9.4062    0.0000 C   0  0  0  0  0  0  0  0  0  0  0  0
   20.4661   -8.9971    0.0000 C   0  0  0  0  0  0  0  0  0  0  0  0
   21.1784   -9.4127    0.0000 C   0  0  0  0  0  0  0  0  0  0  0  0
   21.8945   -9.0036    0.0000 C   0  0  0  0  0  0  0  0  0  0  0  0
  1  2  1  0  0  0  0
  2  3  1  0  0  0  0
  3  4  1  0  0  0  0
  4  5  1  0  0  0  0
  5  6  1  0  0  0  0
  6  7  1  0  0  0  0
  7  8  1  0  0  0  0
  8  9  1  0  0  0  0
  9 10  1  0  0  0  0
 10 11  1  0  0  0  0
 11 12  1  0  0  0  0
 12 13  1  0  0  0  0
 13 14  1  0  0  0  0
 14 15  1  0  0  0  0
 15 16  1  0  0  0  0
 16 17  1  0  0  0  0
 17 18  1  0  0  0  0
 18 19  1  0  0  0  0
 19 20  1  0  0  0  0
 20 21  1  0  0  0  0
 21 22  1  0  0  0  0
 22 23  1  0  0  0  0
 23 24  1  0  0  0  0
 24 25  1  0  0  0  0
 25 26  1  0  0  0  0
M  END
>  <cdx:fragmentId>
3

$$$$
