11428.cdx
  Mrv1902 05222410212D          

  6  5  0  0  0  0            999 V2000
    5.2198   -2.7979    0.0000 C   0  0  0  0  0  0  0  0  0  0  0  0
    4.5053   -3.2104    0.0000 C   0  0  0  0  0  0  0  0  0  0  0  0
    3.7909   -2.7979    0.0000 C   0  0  0  0  0  0  0  0  0  0  0  0
    3.0764   -3.2104    0.0000 C   0  0  0  0  0  0  0  0  0  0  0  0
    2.3619   -2.7979    0.0000 C   0  0  0  0  0  0  0  0  0  0  0  0
    3.7909   -1.9729    0.0000 O   0  0  0  0  0  0  0  0  0  0  0  0
  1  2  1  0  0  0  0
  2  3  1  0  0  0  0
  3  4  1  0  0  0  0
  4  5  1  0  0  0  0
  3  6  1  0  0  0  0
M  END
>  <cdx:groupId>
19

>  <cdx:fragmentId>
5

$$$$
