11439.cdx
  Mrv1902 05222410232D          

  7  7  0  0  0  0            999 V2000
    4.3684   -3.3497    0.0000 N   0  0  0  0  0  0  0  0  0  0  0  0
    5.0358   -3.8347    0.0000 C   0  0  0  0  0  0  0  0  0  0  0  0
    4.7809   -4.6193    0.0000 C   0  0  0  0  0  0  0  0  0  0  0  0
    3.9559   -4.6193    0.0000 C   0  0  0  0  0  0  0  0  0  0  0  0
    3.7009   -3.8347    0.0000 C   0  0  0  0  0  0  0  0  0  0  0  0
    5.8204   -3.5797    0.0000 O   0  0  0  0  0  0  0  0  0  0  0  0
    2.9163   -3.5797    0.0000 O   0  0  0  0  0  0  0  0  0  0  0  0
  1  2  1  0  0  0  0
  2  3  1  0  0  0  0
  3  4  1  0  0  0  0
  4  5  1  0  0  0  0
  1  5  1  0  0  0  0
  2  6  2  0  0  0  0
  5  7  2  0  0  0  0
M  END
>  <cdx:groupId>
23

>  <cdx:fragmentId>
5

$$$$
