11443.cdx
  Mrv1902 05222410262D          

 28 29  0  0  0  0            999 V2000
    5.1595  -10.2300    0.0000 C   0  0  0  0  0  0  0  0  0  0  0  0
    5.1595  -11.0550    0.0000 C   0  0  0  0  0  0  0  0  0  0  0  0
    5.8740  -11.4675    0.0000 C   0  0  0  0  0  0  0  0  0  0  0  0
    6.5885  -11.0550    0.0000 C   0  0  0  0  0  0  0  0  0  0  0  0
    6.5885  -10.2300    0.0000 C   0  0  0  0  0  0  0  0  0  0  0  0
    5.8740   -9.8175    0.0000 C   0  0  0  0  0  0  0  0  0  0  0  0
    5.8740  -12.2925    0.0000 O   0  0  0  0  0  0  0  0  0  0  0  0
    5.1595  -12.7050    0.0000 C   0  0  0  0  0  0  0  0  0  0  0  0
    7.3029   -9.8175    0.0000 O   0  0  0  0  0  0  0  0  0  0  0  0
    8.0174  -10.2300    0.0000 C   0  0  0  0  0  0  0  0  0  0  0  0
    4.4451   -9.8175    0.0000 O   0  0  0  0  0  0  0  0  0  0  0  0
    3.7306  -10.2300    0.0000 C   0  0  0  0  0  0  0  0  0  0  0  0
    5.8740   -8.9925    0.0000 C   0  0  0  0  0  0  0  0  0  0  0  0
    6.5885   -8.5800    0.0000 C   0  0  0  0  0  0  0  0  0  0  0  0
    6.5885   -7.7550    0.0000 C   0  0  0  0  0  0  0  0  0  0  0  0
    5.1595   -8.5800    0.0000 O   0  0  0  0  0  0  0  0  0  0  0  0
    7.3029   -7.3425    0.0000 C   0  0  0  0  0  0  0  0  0  0  0  0
    8.0174   -7.7550    0.0000 C   0  0  0  0  0  0  0  0  0  0  0  0
    8.7319   -7.3425    0.0000 C   0  0  0  0  0  0  0  0  0  0  0  0
    8.7319   -6.5175    0.0000 C   0  0  0  0  0  0  0  0  0  0  0  0
    8.0174   -6.1050    0.0000 C   0  0  0  0  0  0  0  0  0  0  0  0
    7.3029   -6.5175    0.0000 C   0  0  0  0  0  0  0  0  0  0  0  0
    8.0174   -8.5800    0.0000 O   0  0  0  0  0  0  0  0  0  0  0  0
    8.7319   -8.9925    0.0000 C   0  0  0  0  0  0  0  0  0  0  0  0
    6.5885   -6.1050    0.0000 O   0  0  0  0  0  0  0  0  0  0  0  0
    6.5885   -5.2800    0.0000 C   0  0  0  0  0  0  0  0  0  0  0  0
    9.4464   -6.1050    0.0000 O   0  0  0  0  0  0  0  0  0  0  0  0
    9.4464   -5.2800    0.0000 C   0  0  0  0  0  0  0  0  0  0  0  0
  1  2  2  0  0  0  0
  2  3  1  0  0  0  0
  3  4  2  0  0  0  0
  4  5  1  0  0  0  0
  5  6  2  0  0  0  0
  6  1  1  0  0  0  0
  3  7  1  0  0  0  0
  7  8  1  0  0  0  0
  5  9  1  0  0  0  0
  9 10  1  0  0  0  0
  1 11  1  0  0  0  0
 11 12  1  0  0  0  0
  6 13  1  0  0  0  0
 13 14  1  0  0  0  0
 14 15  2  0  0  0  0
 13 16  2  0  0  0  0
 15 17  1  0  0  0  0
 17 18  2  0  0  0  0
 18 19  1  0  0  0  0
 19 20  2  0  0  0  0
 20 21  1  0  0  0  0
 21 22  2  0  0  0  0
 22 17  1  0  0  0  0
 18 23  1  0  0  0  0
 23 24  1  0  0  0  0
 22 25  1  0  0  0  0
 25 26  1  0  0  0  0
 20 27  1  0  0  0  0
 27 28  1  0  0  0  0
M  END
>  <cdx:fragmentId>
5

$$$$
