1144.cdx
  Mrv1902 05222410222D          

 31 33  0  0  0  0            999 V2000
    3.0651   -7.4387    0.0000 C   0  0  0  0  0  0  0  0  0  0  0  0
    7.3627   -4.1528    0.0000 C   0  0  0  0  0  0  0  0  0  0  0  0
    8.0731   -5.3926    0.0000 C   0  0  0  0  0  0  0  0  0  0  0  0
    7.3600   -4.9777    0.0000 C   0  0  0  0  0  0  0  0  0  0  0  0
    5.9257   -6.6231    0.0000 O   0  0  0  0  0  0  0  0  0  0  0  0
    6.6442   -5.3879    0.0000 C   0  0  0  0  0  0  0  0  0  0  0  0
    6.6415   -6.2129    0.0000 C   0  0  0  0  0  0  0  0  0  0  0  0
    3.7755   -8.6785    0.0000 C   0  0  0  0  0  0  0  0  0  0  0  0
    3.7782   -7.8535    0.0000 C   0  0  0  0  0  0  0  0  0  0  0  0
    4.4940   -7.4434    0.0000 C   0  0  0  0  0  0  0  0  0  0  0  0
    5.2045   -8.6832    0.0000 O   0  0  0  0  0  0  0  0  0  0  0  0
    5.2072   -7.8582    0.0000 C   0  0  0  0  0  0  0  0  0  0  0  0
    6.2209   -9.4024    0.0000 C   0  0  0  0  0  0  0  0  0  0  0  0
    9.5021   -5.3973    0.0000 O   0  0  0  0  0  0  0  0  0  0  0  0
    7.3546   -6.6277    0.0000 O   0  0  0  0  0  0  0  0  0  0  0  0
    5.9230   -7.4481    0.0000 O   0  0  0  0  0  0  0  0  0  0  0  0
    5.8084   -8.6879    0.0000 C   0  0  0  0  0  0  0  0  0  0  0  0
    7.3519   -7.4527    0.0000 C   0  0  2  0  0  0  0  0  0  0  0  0
    6.6361   -7.8629    0.0000 C   0  0  1  0  0  0  0  0  0  0  0  0
    6.6334   -8.6879    0.0000 C   0  0  0  0  0  0  0  0  0  0  0  0
    7.3465   -9.1027    0.0000 O   0  0  0  0  0  0  0  0  0  0  0  0
   10.2098   -7.4621    0.0000 C   0  0  0  0  0  0  0  0  0  0  0  0
   10.2125   -6.6371    0.0000 C   0  0  0  0  0  0  0  0  0  0  0  0
    9.4994   -6.2222    0.0000 C   0  0  0  0  0  0  0  0  0  0  0  0
    8.7835   -6.6324    0.0000 O   0  0  0  0  0  0  0  0  0  0  0  0
    9.4913   -8.6972    0.0000 C   0  0  0  0  0  0  0  0  0  0  0  0
    9.4940   -7.8722    0.0000 C   0  0  0  0  0  0  0  0  0  0  0  0
    8.7808   -7.4574    0.0000 C   0  0  0  0  0  0  0  0  0  0  0  0
    8.0650   -7.8676    0.0000 C   0  0  0  0  0  0  0  0  0  0  0  0
    8.0623   -8.6926    0.0000 C   0  0  0  0  0  0  0  0  0  0  0  0
    8.7754   -9.1074    0.0000 C   0  0  0  0  0  0  0  0  0  0  0  0
  9  1  1  0  0  0  0
  4  2  1  0  0  0  0
  4  3  1  0  0  0  0
  6  4  2  0  0  0  0
  7  5  2  0  0  0  0
  7  6  1  0  0  0  0
 15  7  1  0  0  0  0
  9  8  1  0  0  0  0
 10  9  2  0  0  0  0
 12 10  1  0  0  0  0
 12 11  2  0  0  0  0
 16 12  1  0  0  0  0
 20 13  1  0  0  0  0
 24 14  2  0  0  0  0
 18 15  1  1  0  0  0
 19 16  1  1  0  0  0
 20 17  1  0  0  0  0
 18 29  1  0  0  0  0
 19 18  1  0  0  0  0
 20 19  1  0  0  0  0
 21 20  1  0  0  0  0
 30 21  1  0  0  0  0
 22 27  1  0  0  0  0
 23 22  2  0  0  0  0
 24 23  1  0  0  0  0
 25 24  1  0  0  0  0
 28 25  1  0  0  0  0
 26 31  2  0  0  0  0
 27 26  1  0  0  0  0
 28 27  2  0  0  0  0
 29 28  1  0  0  0  0
 30 29  2  0  0  0  0
 31 30  1  0  0  0  0
M  END
>  <cdx:fragmentId>
5

$$$$
