11455.cdx
  Mrv1902 05222410272D          

 10 10  0  0  0  0            999 V2000
    7.6309   -4.2952    0.0000 C   0  0  0  0  0  0  0  0  0  0  0  0
    8.3435   -3.8795    0.0000 C   0  0  0  0  0  0  0  0  0  0  0  0
    7.6347   -5.1202    0.0000 C   0  0  0  0  0  0  0  0  0  0  0  0
    6.9221   -5.5359    0.0000 C   0  0  0  0  0  0  0  0  0  0  0  0
    6.9258   -6.3609    0.0000 C   0  0  0  0  0  0  0  0  0  0  0  0
    7.6422   -6.7702    0.0000 C   0  0  0  0  0  0  0  0  0  0  0  0
    8.3548   -6.3544    0.0000 C   0  0  0  0  0  0  0  0  0  0  0  0
    8.3510   -5.5294    0.0000 C   0  0  0  0  0  0  0  0  0  0  0  0
    6.2132   -6.7767    0.0000 C   0  0  0  0  0  0  0  0  0  0  0  0
    6.9146   -3.8859    0.0000 O   0  0  0  0  0  0  0  0  0  0  0  0
  1  2  1  0  0  0  0
  3  4  1  0  0  0  0
  4  5  2  0  0  0  0
  5  6  1  0  0  0  0
  6  7  2  0  0  0  0
  7  8  1  0  0  0  0
  3  8  2  0  0  0  0
  5  9  1  0  0  0  0
  1  3  1  0  0  0  0
  1 10  2  0  0  0  0
M  END
>  <cdx:fragmentId>
9

$$$$
