11450.cdx
  Mrv1902 05222410272D          

 11 11  0  0  0  0            999 V2000
    4.7249   -3.2302    0.0000 C   0  0  0  0  0  0  0  0  0  0  0  0
    5.4394   -2.8177    0.0000 C   0  0  0  0  0  0  0  0  0  0  0  0
    6.1538   -3.2302    0.0000 C   0  0  0  0  0  0  0  0  0  0  0  0
    6.1538   -4.0552    0.0000 C   0  0  0  0  0  0  0  0  0  0  0  0
    5.4394   -4.4677    0.0000 C   0  0  0  0  0  0  0  0  0  0  0  0
    4.7249   -4.0552    0.0000 C   0  0  0  0  0  0  0  0  0  0  0  0
    4.0104   -2.8177    0.0000 O   0  0  0  0  0  0  0  0  0  0  0  0
    6.8683   -2.8177    0.0000 C   0  0  0  0  0  0  0  0  0  0  0  0
    6.8683   -1.9927    0.0000 C   0  0  0  0  0  0  0  0  0  0  0  0
    7.5828   -2.4052    0.0000 C   0  0  0  0  0  0  0  0  0  0  0  0
    7.5828   -3.2302    0.0000 C   0  0  0  0  0  0  0  0  0  0  0  0
  1  2  1  0  0  0  0
  2  3  2  0  0  0  0
  3  4  1  0  0  0  0
  4  5  2  0  0  0  0
  5  6  1  0  0  0  0
  1  6  2  0  0  0  0
  1  7  1  0  0  0  0
  8  9  1  0  0  0  0
  8 11  1  0  0  0  0
  8 10  1  0  0  0  0
  3  8  1  0  0  0  0
M  END
>  <cdx:groupId>
35

>  <cdx:fragmentId>
5

$$$$
