11460.cdx
  Mrv1902 05222410192D          

 11 11  0  0  0  0            999 V2000
    9.2623   -4.5441    0.0000 C   0  0  0  0  0  0  0  0  0  0  0  0
    9.9768   -4.9566    0.0000 C   0  0  0  0  0  0  0  0  0  0  0  0
    8.5478   -4.9566    0.0000 C   0  0  0  0  0  0  0  0  0  0  0  0
    7.8334   -4.5441    0.0000 C   0  0  0  0  0  0  0  0  0  0  0  0
    7.1189   -4.9566    0.0000 C   0  0  0  0  0  0  0  0  0  0  0  0
    7.1189   -5.7816    0.0000 C   0  0  0  0  0  0  0  0  0  0  0  0
    7.8334   -6.1941    0.0000 C   0  0  0  0  0  0  0  0  0  0  0  0
    8.5478   -5.7816    0.0000 C   0  0  0  0  0  0  0  0  0  0  0  0
    6.4044   -4.5441    0.0000 O   0  0  0  0  0  0  0  0  0  0  0  0
    5.6900   -4.9566    0.0000 C   0  0  0  0  0  0  0  0  0  0  0  0
    9.2623   -3.7191    0.0000 O   0  0  0  0  0  0  0  0  0  0  0  0
  1  2  1  0  0  0  0
  3  4  1  0  0  0  0
  4  5  2  0  0  0  0
  5  6  1  0  0  0  0
  6  7  2  0  0  0  0
  7  8  1  0  0  0  0
  3  8  2  0  0  0  0
  9 10  1  0  0  0  0
  5  9  1  0  0  0  0
  1  3  1  0  0  0  0
  1 11  2  0  0  0  0
M  END
>  <cdx:fragmentId>
9

$$$$
