11463.cdx
  Mrv1902 05222410182D          

 10 10  0  0  0  0            999 V2000
    7.0280   -6.5772    0.0000 C   0  0  0  0  0  0  0  0  0  0  0  0
    7.7471   -6.1728    0.0000 C   0  0  0  0  0  0  0  0  0  0  0  0
    7.7563   -5.3478    0.0000 C   0  0  0  0  0  0  0  0  0  0  0  0
    7.0465   -4.9273    0.0000 C   0  0  0  0  0  0  0  0  0  0  0  0
    6.3274   -5.3318    0.0000 C   0  0  0  0  0  0  0  0  0  0  0  0
    6.3182   -6.1568    0.0000 C   0  0  0  0  0  0  0  0  0  0  0  0
    6.3459   -3.6819    0.0000 C   0  0  0  0  0  0  0  0  0  0  0  0
    7.0557   -4.1024    0.0000 C   0  0  0  0  0  0  0  0  0  0  0  0
    7.7748   -3.6979    0.0000 C   0  0  0  0  0  0  0  0  0  0  0  0
    7.0188   -7.4022    0.0000 C   0  0  0  0  0  0  0  0  0  0  0  0
  1  2  2  0  0  0  0
  2  3  1  0  0  0  0
  3  4  1  0  0  0  0
  4  5  1  0  0  0  0
  5  6  1  0  0  0  0
  1  6  1  0  0  0  0
  7  8  1  0  0  0  0
  8  9  1  0  0  0  0
  4  8  2  0  0  0  0
  1 10  1  0  0  0  0
M  END
>  <cdx:fragmentId>
5

$$$$
