11464.cdx
  Mrv1902 05222410192D          

 11 11  0  0  0  0            999 V2000
    7.0578  -11.6843    0.0000 C   0  0  0  0  0  0  0  0  0  0  0  0
    6.3402  -11.2771    0.0000 C   0  0  0  0  0  0  0  0  0  0  0  0
    6.3341  -10.4522    0.0000 C   0  0  0  0  0  0  0  0  0  0  0  0
    7.0454  -10.0343    0.0000 C   0  0  0  0  0  0  0  0  0  0  0  0
    7.7630  -10.4415    0.0000 C   0  0  0  0  0  0  0  0  0  0  0  0
    7.7691  -11.2665    0.0000 C   0  0  0  0  0  0  0  0  0  0  0  0
    7.4756  -12.3957    0.0000 O   0  0  0  0  0  0  0  0  0  0  0  0
    7.7506   -8.7915    0.0000 C   0  0  0  0  0  0  0  0  0  0  0  0
    7.0393   -9.2094    0.0000 C   0  0  0  0  0  0  0  0  0  0  0  0
    6.3217   -8.8022    0.0000 C   0  0  0  0  0  0  0  0  0  0  0  0
    6.6506  -12.4018    0.0000 C   0  0  0  0  0  0  0  0  0  0  0  0
  1  2  1  0  0  0  0
  2  3  1  0  0  0  0
  3  4  1  0  0  0  0
  4  5  1  0  0  0  0
  5  6  1  0  0  0  0
  1  6  1  0  0  0  0
  1  7  1  0  0  0  0
  8  9  1  0  0  0  0
  9 10  1  0  0  0  0
  4  9  2  0  0  0  0
  1 11  1  0  0  0  0
M  END
>  <cdx:fragmentId>
55

$$$$
