1146.cdx
  Mrv1902 05222410222D          

  4  3  0  0  0  0            999 V2000
    3.2002   -3.3559    0.0000 C   0  0  0  0  0  0  0  0  0  0  0  0
    3.9146   -2.9434    0.0000 N   0  0  0  0  0  0  0  0  0  0  0  0
    4.6291   -3.3559    0.0000 C   0  0  0  0  0  0  0  0  0  0  0  0
    3.9146   -2.1184    0.0000 C   0  0  0  0  0  0  0  0  0  0  0  0
  1  2  1  0  0  0  0
  2  3  1  0  0  0  0
  2  4  1  0  0  0  0
M  END
>  <cdx:groupId>
13

>  <cdx:fragmentId>
5

$$$$
