114701.cdx
  Mrv1902 05222410252D          

 37 42  0  0  0  0            999 V2000
    7.2440  -10.3215    0.0000 H   0  0  0  0  0  0  0  0  0  0  0  0
    6.5190  -11.5553    0.0000 H   0  0  0  0  0  0  0  0  0  0  0  0
    8.5397  -10.4961    0.0000 H   0  0  0  0  0  0  0  0  0  0  0  0
    8.9848  -10.0783    0.0000 H   0  0  0  0  0  0  0  0  0  0  0  0
    8.3165   -7.2291    0.0000 C   0  0  0  0  0  0  0  0  0  0  0  0
    6.5275   -9.0804    0.0000 C   0  0  0  0  0  0  0  0  0  0  0  0
    4.3777  -11.1318    0.0000 O   0  0  0  0  0  0  0  0  0  0  0  0
    7.2313  -11.9715    0.0000 O   0  0  0  0  0  0  0  0  0  0  0  0
    7.4197   -8.6905    0.0000 C   0  0  0  0  0  0  0  0  0  0  0  0
    7.2440   -9.4965    0.0000 C   0  0  2  0  0  0  0  0  0  0  0  0
    6.5275   -9.9054    0.0000 C   0  0  2  0  0  0  0  0  0  0  0  0
    5.8151   -9.4892    0.0000 C   0  0  0  0  0  0  0  0  0  0  0  0
    5.0985   -9.8980    0.0000 C   0  0  0  0  0  0  0  0  0  0  0  0
    5.0943  -10.7230    0.0000 C   0  0  1  0  0  0  0  0  0  0  0  0
    5.8066  -11.1392    0.0000 C   0  0  0  0  0  0  0  0  0  0  0  0
    6.5232  -10.7303    0.0000 C   0  0  2  0  0  0  0  0  0  0  0  0
    7.2355  -11.1465    0.0000 C   0  0  0  0  0  0  0  0  0  0  0  0
    7.9521  -10.7377    0.0000 C   0  0  0  0  0  0  0  0  0  0  0  0
    7.9564   -9.9127    0.0000 C   0  0  1  0  0  0  0  0  0  0  0  0
    8.5723   -9.3639    0.0000 C   0  0  2  0  0  0  0  0  0  0  0  0
    9.3923   -9.4543    0.0000 C   0  0  0  0  0  0  0  0  0  0  0  0
    9.8807   -8.7894    0.0000 C   0  0  0  0  0  0  0  0  0  0  0  0
    9.5490   -8.0340    0.0000 C   0  0  2  0  0  0  0  0  0  0  0  0
    8.7290   -7.9435    0.0000 C   0  0  0  0  0  0  0  0  0  0  0  0
    8.2406   -8.6085    0.0000 C   0  0  0  0  0  0  0  0  0  0  0  0
   10.3740   -8.0404    0.0000 C   0  0  1  0  0  0  0  0  0  0  0  0
   10.6350   -7.2577    0.0000 C   0  0  1  0  0  0  0  0  0  0  0  0
    9.9713   -6.7677    0.0000 C   0  0  2  0  0  0  0  0  0  0  0  0
    9.3002   -7.2577    0.0000 O   0  0  0  0  0  0  0  0  0  0  0  0
   11.3912   -6.9280    0.0000 N   0  0  0  0  0  0  0  0  0  0  0  0
   11.4838   -6.1082    0.0000 C   0  0  0  0  0  0  0  0  0  0  0  0
   10.8201   -5.6182    0.0000 C   0  0  2  0  0  0  0  0  0  0  0  0
   10.0639   -5.9479    0.0000 C   0  0  0  0  0  0  0  0  0  0  0  0
   10.9127   -4.7984    0.0000 C   0  0  0  0  0  0  0  0  0  0  0  0
    9.3880   -6.1843    0.0000 H   0  0  0  0  0  0  0  0  0  0  0  0
   11.3495   -7.6702    0.0000 H   0  0  0  0  0  0  0  0  0  0  0  0
   10.8537   -8.7115    0.0000 C   0  0  0  0  0  0  0  0  0  0  0  0
 10  1  1  6  0  0  0
 16  2  1  6  0  0  0
 19  3  1  1  0  0  0
 20  4  1  6  0  0  0
 24  5  1  0  0  0  0
 11  6  1  1  0  0  0
 14  7  1  1  0  0  0
 17  8  2  0  0  0  0
 24 23  1  0  0  0  0
 16 11  1  0  0  0  0
 19 10  1  0  0  0  0
 25 20  1  0  0  0  0
 25  9  1  0  0  0  0
 10  9  1  0  0  0  0
 11 10  1  0  0  0  0
 12 11  1  0  0  0  0
 13 12  1  0  0  0  0
 14 13  1  0  0  0  0
 15 14  1  0  0  0  0
 16 15  1  0  0  0  0
 17 16  1  0  0  0  0
 18 17  1  0  0  0  0
 19 18  1  0  0  0  0
 20 19  1  0  0  0  0
 21 20  1  0  0  0  0
 22 21  1  0  0  0  0
 23 22  1  0  0  0  0
 25 24  2  0  0  0  0
 23 26  1  0  0  0  0
 26 27  1  0  0  0  0
 27 28  1  0  0  0  0
 28 29  1  0  0  0  0
 23 29  1  1  0  0  0
 27 30  1  0  0  0  0
 30 31  1  0  0  0  0
 31 32  1  0  0  0  0
 32 33  1  0  0  0  0
 33 28  1  0  0  0  0
 32 34  1  6  0  0  0
 28 35  1  1  0  0  0
 27 36  1  6  0  0  0
 26 37  1  1  0  0  0
M  END
>  <cdx:groupId>
7625

>  <cdx:fragmentId>
7506

$$$$
