11470.cdx
  Mrv1902 05222410192D          

 12 12  0  0  0  0            999 V2000
    5.4003   -4.3389    0.0000 C   0  0  0  0  0  0  0  0  0  0  0  0
    4.6859   -3.9264    0.0000 C   0  0  0  0  0  0  0  0  0  0  0  0
    3.9714   -4.3389    0.0000 C   0  0  0  0  0  0  0  0  0  0  0  0
    3.2569   -3.9264    0.0000 C   0  0  0  0  0  0  0  0  0  0  0  0
    3.2569   -3.1014    0.0000 C   0  0  0  0  0  0  0  0  0  0  0  0
    3.9714   -2.6889    0.0000 C   0  0  0  0  0  0  0  0  0  0  0  0
    4.6859   -3.1014    0.0000 C   0  0  0  0  0  0  0  0  0  0  0  0
    5.4003   -5.1639    0.0000 O   0  0  0  0  0  0  0  0  0  0  0  0
    6.1148   -3.9264    0.0000 O   0  0  0  0  0  0  0  0  0  0  0  0
    2.5424   -2.6889    0.0000 C   0  0  0  0  0  0  0  0  0  0  0  0
    2.5424   -1.8639    0.0000 O   0  0  0  0  0  0  0  0  0  0  0  0
    1.8280   -3.1014    0.0000 C   0  0  0  0  0  0  0  0  0  0  0  0
  1  2  1  0  0  0  0
  2  3  1  0  0  0  0
  3  4  2  0  0  0  0
  4  5  1  0  0  0  0
  5  6  2  0  0  0  0
  6  7  1  0  0  0  0
  2  7  2  0  0  0  0
  1  8  2  0  0  0  0
  1  9  1  0  0  0  0
 10 11  2  0  0  0  0
 10 12  1  0  0  0  0
  5 10  1  0  0  0  0
M  END
>  <cdx:groupId>
38

>  <cdx:fragmentId>
5

$$$$
