114833.cdx
  Mrv1902 05222410282D          

  8  7  0  0  0  0            999 V2000
    5.6100   -9.3500    0.0000 C   0  0  0  0  0  0  0  0  0  0  0  0
    6.3245   -8.9375    0.0000 C   0  0  0  0  0  0  0  0  0  0  0  0
    7.0389   -9.3500    0.0000 Se  0  0  0  0  0  0  0  0  0  0  0  0
    7.7534   -8.9375    0.0000 Se  0  0  0  0  0  0  0  0  0  0  0  0
    8.4679   -9.3500    0.0000 C   0  0  0  0  0  0  0  0  0  0  0  0
    9.1824   -8.9375    0.0000 C   0  0  0  0  0  0  0  0  0  0  0  0
    9.8968   -9.3500    0.0000 N   0  0  0  0  0  0  0  0  0  0  0  0
    4.8955   -8.9375    0.0000 N   0  0  0  0  0  0  0  0  0  0  0  0
  1  2  1  0  0  0  0
  2  3  1  0  0  0  0
  3  4  1  0  0  0  0
  4  5  1  0  0  0  0
  5  6  1  0  0  0  0
  6  7  1  0  0  0  0
  1  8  1  0  0  0  0
M  END
>  <cdx:fragmentId>
126

$$$$
