11487.cdx
  Mrv1902 05222410272D          

 13 14  0  0  0  0            999 V2000
   14.3715   -9.2412    0.0000 N   0  0  0  0  0  0  0  0  0  0  0  0
   13.6570   -9.6537    0.0000 C   0  0  0  0  0  0  0  0  0  0  0  0
   13.6570  -10.4787    0.0000 C   0  0  0  0  0  0  0  0  0  0  0  0
   12.9426  -10.8912    0.0000 C   0  0  0  0  0  0  0  0  0  0  0  0
   12.2281  -10.4787    0.0000 C   0  0  0  0  0  0  0  0  0  0  0  0
   12.2281   -9.6537    0.0000 C   0  0  0  0  0  0  0  0  0  0  0  0
   12.9426   -9.2412    0.0000 C   0  0  0  0  0  0  0  0  0  0  0  0
   15.0860   -9.6537    0.0000 C   0  0  0  0  0  0  0  0  0  0  0  0
   15.8004   -9.2412    0.0000 C   0  0  0  0  0  0  0  0  0  0  0  0
   16.5149   -9.6537    0.0000 C   0  0  0  0  0  0  0  0  0  0  0  0
   16.5149  -10.4787    0.0000 C   0  0  0  0  0  0  0  0  0  0  0  0
   15.8004  -10.8912    0.0000 C   0  0  0  0  0  0  0  0  0  0  0  0
   15.0860  -10.4787    0.0000 C   0  0  0  0  0  0  0  0  0  0  0  0
  1  2  1  0  0  0  0
  2  3  1  0  0  0  0
  3  4  2  0  0  0  0
  4  5  1  0  0  0  0
  5  6  2  0  0  0  0
  6  7  1  0  0  0  0
  2  7  2  0  0  0  0
  8  9  1  0  0  0  0
  9 10  2  0  0  0  0
 10 11  1  0  0  0  0
 11 12  2  0  0  0  0
 12 13  1  0  0  0  0
  8 13  2  0  0  0  0
  1  8  1  0  0  0  0
M  END
>  <cdx:groupId>
9254

>  <cdx:fragmentId>
9217

$$$$
