114840.cdx
  Mrv1902 05222410242D          

 20 22  0  0  0  0            999 V2000
    7.5790   -5.4114    0.0000 C   0  0  0  0  0  0  0  0  0  0  0  0
    8.2935   -4.9989    0.0000 N   0  0  0  0  0  0  0  0  0  0  0  0
    8.2935   -4.1739    0.0000 C   0  0  0  0  0  0  0  0  0  0  0  0
    7.5790   -3.7614    0.0000 C   0  0  0  0  0  0  0  0  0  0  0  0
    6.8645   -4.1739    0.0000 C   0  0  0  0  0  0  0  0  0  0  0  0
    6.1501   -3.7614    0.0000 C   0  0  0  0  0  0  0  0  0  0  0  0
    5.4356   -4.1739    0.0000 C   0  0  0  0  0  0  0  0  0  0  0  0
    5.4356   -4.9989    0.0000 C   0  0  0  0  0  0  0  0  0  0  0  0
    6.1501   -5.4114    0.0000 C   0  0  0  0  0  0  0  0  0  0  0  0
    6.8645   -4.9989    0.0000 C   0  0  0  0  0  0  0  0  0  0  0  0
    4.7211   -3.7614    0.0000 O   0  0  0  0  0  0  0  0  0  0  0  0
    4.7211   -5.4114    0.0000 O   0  0  0  0  0  0  0  0  0  0  0  0
    7.5790   -6.2364    0.0000 C   0  0  0  0  0  0  0  0  0  0  0  0
    8.2935   -6.6489    0.0000 C   0  0  0  0  0  0  0  0  0  0  0  0
    8.2935   -7.4739    0.0000 C   0  0  0  0  0  0  0  0  0  0  0  0
    9.0079   -7.8864    0.0000 C   0  0  0  0  0  0  0  0  0  0  0  0
    9.7224   -7.4739    0.0000 C   0  0  0  0  0  0  0  0  0  0  0  0
    9.7224   -6.6489    0.0000 C   0  0  0  0  0  0  0  0  0  0  0  0
    9.0079   -6.2364    0.0000 C   0  0  0  0  0  0  0  0  0  0  0  0
   10.4369   -7.8864    0.0000 O   0  0  0  0  0  0  0  0  0  0  0  0
  1  2  1  0  0  0  0
  2  3  1  0  0  0  0
  3  4  1  0  0  0  0
  4  5  1  0  0  0  0
  5  6  1  0  0  0  0
  6  7  2  0  0  0  0
  7  8  1  0  0  0  0
  8  9  2  0  0  0  0
  9 10  1  0  0  0  0
  1 10  1  0  0  0  0
  5 10  2  0  0  0  0
  7 11  1  0  0  0  0
  8 12  1  0  0  0  0
 14 15  1  0  0  0  0
 15 16  2  0  0  0  0
 16 17  1  0  0  0  0
 17 18  2  0  0  0  0
 18 19  1  0  0  0  0
 14 19  2  0  0  0  0
 17 20  1  0  0  0  0
 13 14  1  0  0  0  0
  1 13  1  0  0  0  0
M  END
>  <cdx:fragmentId>
5

$$$$
