114917.cdx
  Mrv1902 05222410212D          

 21 24  0  0  0  0            999 V2000
    8.9909   -5.6801    0.0000 O   0  0  0  0  0  0  0  0  0  0  0  0
    9.4758   -5.0127    0.0000 C   0  0  0  0  0  0  0  0  0  0  0  0
    8.9909   -4.3452    0.0000 C   0  0  0  0  0  0  0  0  0  0  0  0
    8.2063   -4.6002    0.0000 C   0  0  0  0  0  0  0  0  0  0  0  0
    7.4918   -4.1877    0.0000 C   0  0  0  0  0  0  0  0  0  0  0  0
    6.7773   -4.6002    0.0000 C   0  0  0  0  0  0  0  0  0  0  0  0
    6.7773   -5.4252    0.0000 C   0  0  0  0  0  0  0  0  0  0  0  0
    7.4918   -5.8377    0.0000 C   0  0  0  0  0  0  0  0  0  0  0  0
    8.2063   -5.4252    0.0000 C   0  0  0  0  0  0  0  0  0  0  0  0
    7.4918   -6.6627    0.0000 C   0  0  0  0  0  0  0  0  0  0  0  0
    6.7773   -7.0752    0.0000 C   0  0  0  0  0  0  0  0  0  0  0  0
    6.0629   -6.6627    0.0000 C   0  0  0  0  0  0  0  0  0  0  0  0
    5.3484   -7.0752    0.0000 C   0  0  0  0  0  0  0  0  0  0  0  0
    4.6339   -6.6627    0.0000 C   0  0  0  0  0  0  0  0  0  0  0  0
    4.6339   -5.8377    0.0000 C   0  0  0  0  0  0  0  0  0  0  0  0
    5.3484   -5.4252    0.0000 C   0  0  0  0  0  0  0  0  0  0  0  0
    6.0629   -5.8377    0.0000 C   0  0  0  0  0  0  0  0  0  0  0  0
    6.0629   -4.1877    0.0000 O   0  0  0  0  0  0  0  0  0  0  0  0
    7.4918   -3.3627    0.0000 O   0  0  0  0  0  0  0  0  0  0  0  0
    5.3484   -7.9002    0.0000 C   0  0  0  0  0  0  0  0  0  0  0  0
    9.2458   -3.5606    0.0000 C   0  0  0  0  0  0  0  0  0  0  0  0
  1  2  1  0  0  0  0
  2  3  2  0  0  0  0
  3  4  1  0  0  0  0
  4  5  1  0  0  0  0
  5  6  1  0  0  0  0
  6  7  1  0  0  0  0
  7  8  2  0  0  0  0
  8  9  1  0  0  0  0
  4  9  2  0  0  0  0
  1  9  1  0  0  0  0
 10 11  2  0  0  0  0
 11 12  1  0  0  0  0
 12 13  1  0  0  0  0
 13 14  2  0  0  0  0
 14 15  1  0  0  0  0
 15 16  2  0  0  0  0
 16 17  1  0  0  0  0
 12 17  2  0  0  0  0
 17  7  1  0  0  0  0
 10  8  1  0  0  0  0
  6 18  2  0  0  0  0
  5 19  2  0  0  0  0
 13 20  1  0  0  0  0
  3 21  1  0  0  0  0
M  END
>  <cdx:fragmentId>
5

$$$$
