1149.cdx
  Mrv1902 05222410242D          

 31 34  0  0  0  0            999 V2000
    2.6589   -8.9480    0.0000 O   0  0  0  0  0  0  0  0  0  0  0  0
    5.3509   -7.1213    0.0000 H   0  0  0  0  0  0  0  0  0  0  0  0
    7.8235   -7.0297    0.0000 H   0  0  0  0  0  0  0  0  0  0  0  0
    3.1247   -7.2733    0.0000 O   0  0  0  0  0  0  0  0  0  0  0  0
    2.5105   -6.7225    0.0000 C   0  0  0  0  0  0  0  0  0  0  0  0
   10.3893   -5.2631    0.0000 O   0  0  0  0  0  0  0  0  0  0  0  0
   10.0497   -6.8777    0.0000 O   0  0  0  0  0  0  0  0  0  0  0  0
    4.5231   -7.5674    0.0000 C   0  0  0  0  0  0  0  0  0  0  0  0
    3.7390   -7.8240    0.0000 C   0  0  0  0  0  0  0  0  0  0  0  0
    3.5692   -8.6313    0.0000 C   0  0  0  0  0  0  0  0  0  0  0  0
    4.1835   -9.1821    0.0000 C   0  0  0  0  0  0  0  0  0  0  0  0
    4.9675   -8.9255    0.0000 C   0  0  0  0  0  0  0  0  0  0  0  0
    5.1374   -8.1181    0.0000 C   0  0  0  0  0  0  0  0  0  0  0  0
    5.9214   -7.8615    0.0000 C   0  0  1  0  0  0  0  0  0  0  0  0
    6.5899   -8.3450    0.0000 O   0  0  0  0  0  0  0  0  0  0  0  0
    7.2563   -7.8587    0.0000 C   0  0  0  0  0  0  0  0  0  0  0  0
    6.5845   -5.8060    0.0000 O   0  0  0  0  0  0  0  0  0  0  0  0
    5.9181   -6.2923    0.0000 C   0  0  0  0  0  0  0  0  0  0  0  0
    6.1747   -7.0764    0.0000 C   0  0  1  0  0  0  0  0  0  0  0  0
    6.9997   -7.0746    0.0000 C   0  0  1  0  0  0  0  0  0  0  0  0
    7.2530   -6.2895    0.0000 C   0  0  1  0  0  0  0  0  0  0  0  0
    8.9910   -4.9689    0.0000 C   0  0  0  0  0  0  0  0  0  0  0  0
    8.2069   -5.2255    0.0000 C   0  0  0  0  0  0  0  0  0  0  0  0
    8.0371   -6.0329    0.0000 C   0  0  0  0  0  0  0  0  0  0  0  0
    8.6513   -6.5836    0.0000 C   0  0  0  0  0  0  0  0  0  0  0  0
    9.4354   -6.3270    0.0000 C   0  0  0  0  0  0  0  0  0  0  0  0
    9.6052   -5.5197    0.0000 C   0  0  0  0  0  0  0  0  0  0  0  0
    3.9699   -9.9790    0.0000 O   0  0  0  0  0  0  0  0  0  0  0  0
   11.1734   -5.0065    0.0000 C   0  0  0  0  0  0  0  0  0  0  0  0
   10.6639   -7.4285    0.0000 C   0  0  0  0  0  0  0  0  0  0  0  0
    3.7564  -10.7759    0.0000 C   0  0  0  0  0  0  0  0  0  0  0  0
 10  1  1  0  0  0  0
 19  2  1  6  0  0  0
 20  3  1  6  0  0  0
  9  4  1  0  0  0  0
 27  6  1  0  0  0  0
 26  7  1  0  0  0  0
  8 13  1  0  0  0  0
  9  8  2  0  0  0  0
 10  9  1  0  0  0  0
 11 10  2  0  0  0  0
 12 11  1  0  0  0  0
 13 12  2  0  0  0  0
 14 13  1  6  0  0  0
 14 19  1  0  0  0  0
 15 14  1  0  0  0  0
 16 15  1  0  0  0  0
 20 16  1  0  0  0  0
 17 21  1  0  0  0  0
 18 17  1  0  0  0  0
 19 18  1  0  0  0  0
 20 19  1  0  0  0  0
 21 20  1  0  0  0  0
 21 24  1  6  0  0  0
 22 27  1  0  0  0  0
 23 22  2  0  0  0  0
 24 23  1  0  0  0  0
 25 24  2  0  0  0  0
 26 25  1  0  0  0  0
 27 26  2  0  0  0  0
 11 28  1  0  0  0  0
  4  5  1  0  0  0  0
  6 29  1  0  0  0  0
  7 30  1  0  0  0  0
 28 31  1  0  0  0  0
M  STY  4   1 SUP   2 SUP   3 SUP   4 SUP
M  SAL   1  2   4   5
M  SBL   1  1   4
M  SMT   1 OCH3
M  SAP   1  1   4   9  1
M  SAL   2  2   6  29
M  SBL   2  1   5
M  SMT   2 OCH3
M  SAP   2  1   6  27  1
M  SAL   3  2   7  30
M  SBL   3  1   6
M  SMT   3 OCH3
M  SAP   3  1   7  26  1
M  SAL   4  2  28  31
M  SBL   4  1  30
M  SMT   4 OCH3
M  SAP   4  1  28  11  1
M  END
>  <cdx:fragmentId>
5

$$$$
