11498.cdx
  Mrv1902 05222410202D          

 42 46  0  0  0  0            999 V2000
   10.8797   -8.0551    0.0000 C   0  0  0  0  0  0  0  0  0  0  0  0
   10.8691   -7.2302    0.0000 C   0  0  0  0  0  0  0  0  0  0  0  0
   10.1494   -6.8269    0.0000 C   0  0  0  0  0  0  0  0  0  0  0  0
    9.4403   -7.2485    0.0000 C   0  0  0  0  0  0  0  0  0  0  0  0
    9.4508   -8.0734    0.0000 C   0  0  0  0  0  0  0  0  0  0  0  0
   10.1705   -8.4767    0.0000 C   0  0  0  0  0  0  0  0  0  0  0  0
    8.7206   -6.8452    0.0000 C   0  0  0  0  0  0  0  0  0  0  0  0
    8.0114   -7.2668    0.0000 C   0  0  0  0  0  0  0  0  0  0  0  0
    8.0220   -8.0917    0.0000 C   0  0  0  0  0  0  0  0  0  0  0  0
    8.7417   -8.4950    0.0000 C   0  0  0  0  0  0  0  0  0  0  0  0
    7.2918   -6.8635    0.0000 C   0  0  0  0  0  0  0  0  0  0  0  0
    6.5826   -7.2851    0.0000 C   0  0  0  0  0  0  0  0  0  0  0  0
    6.5932   -8.1100    0.0000 C   0  0  0  0  0  0  0  0  0  0  0  0
    7.3129   -8.5133    0.0000 C   0  0  0  0  0  0  0  0  0  0  0  0
   11.5994   -8.4584    0.0000 O   0  0  0  0  0  0  0  0  0  0  0  0
   10.1811   -9.3016    0.0000 O   0  0  0  0  0  0  0  0  0  0  0  0
    8.7523   -9.3200    0.0000 O   0  0  0  0  0  0  0  0  0  0  0  0
    7.3235   -9.3383    0.0000 O   0  0  0  0  0  0  0  0  0  0  0  0
    5.8629   -6.8818    0.0000 C   0  0  0  0  0  0  0  0  0  0  0  0
   10.9008   -9.7050    0.0000 C   0  0  0  0  0  0  0  0  0  0  0  0
    9.3951   -4.9425    0.0000 C   0  0  2  0  0  0  0  0  0  0  0  0
    8.6751   -4.5397    0.0000 C   0  0  2  0  0  0  0  0  0  0  0  0
    7.9663   -4.9618    0.0000 C   0  0  1  0  0  0  0  0  0  0  0  0
    7.9775   -5.7867    0.0000 C   0  0  2  0  0  0  0  0  0  0  0  0
    8.6974   -6.1895    0.0000 C   0  0  1  0  0  0  0  0  0  0  0  0
    9.4063   -5.7674    0.0000 O   0  0  0  0  0  0  0  0  0  0  0  0
   10.1039   -4.5204    0.0000 C   0  0  0  0  0  0  0  0  0  0  0  0
    7.2463   -4.5590    0.0000 O   0  0  0  0  0  0  0  0  0  0  0  0
    8.6640   -3.7148    0.0000 O   0  0  0  0  0  0  0  0  0  0  0  0
    7.2686   -6.2088    0.0000 O   0  0  0  0  0  0  0  0  0  0  0  0
   10.0928   -3.6954    0.0000 O   0  0  0  0  0  0  0  0  0  0  0  0
    5.1774   -9.7840    0.0000 C   0  0  2  0  0  0  0  0  0  0  0  0
    5.1849  -10.6090    0.0000 C   0  0  2  0  0  0  0  0  0  0  0  0
    5.9031  -11.0150    0.0000 C   0  0  1  0  0  0  0  0  0  0  0  0
    6.6138  -10.5960    0.0000 C   0  0  2  0  0  0  0  0  0  0  0  0
    6.6063   -9.7710    0.0000 C   0  0  1  0  0  0  0  0  0  0  0  0
    5.8881   -9.3650    0.0000 O   0  0  0  0  0  0  0  0  0  0  0  0
    4.4592   -9.3780    0.0000 C   0  0  0  0  0  0  0  0  0  0  0  0
    5.9105  -11.8399    0.0000 O   0  0  0  0  0  0  0  0  0  0  0  0
    4.4742  -11.0279    0.0000 O   0  0  0  0  0  0  0  0  0  0  0  0
    7.3319  -11.0020    0.0000 O   0  0  0  0  0  0  0  0  0  0  0  0
    3.7485   -9.7970    0.0000 O   0  0  0  0  0  0  0  0  0  0  0  0
  1  2  2  0  0  0  0
  2  3  1  0  0  0  0
  3  4  2  0  0  0  0
  4  5  1  0  0  0  0
  5  6  2  0  0  0  0
  6  1  1  0  0  0  0
  4  7  1  0  0  0  0
  7  8  1  0  0  0  0
  8  9  2  0  0  0  0
  9 10  1  0  0  0  0
 10  5  1  0  0  0  0
  8 11  1  0  0  0  0
 11 12  2  0  0  0  0
 12 13  1  0  0  0  0
 13 14  2  0  0  0  0
 14  9  1  0  0  0  0
  1 15  1  0  0  0  0
  6 16  1  0  0  0  0
 10 17  2  0  0  0  0
 14 18  1  0  0  0  0
 12 19  1  0  0  0  0
 16 20  1  0  0  0  0
 21 22  1  0  0  0  0
 22 23  1  0  0  0  0
 23 24  1  0  0  0  0
 24 25  1  0  0  0  0
 25 26  1  0  0  0  0
 26 21  1  0  0  0  0
 21 27  1  1  0  0  0
 23 28  1  1  0  0  0
 22 29  1  6  0  0  0
 24 30  1  6  0  0  0
 27 31  1  0  0  0  0
 32 33  1  0  0  0  0
 33 34  1  0  0  0  0
 34 35  1  0  0  0  0
 35 36  1  0  0  0  0
 36 37  1  0  0  0  0
 37 32  1  0  0  0  0
 32 38  1  1  0  0  0
 34 39  1  1  0  0  0
 33 40  1  6  0  0  0
 35 41  1  6  0  0  0
 38 42  1  0  0  0  0
 36 18  1  1  0  0  0
 25  7  1  1  0  0  0
M  END
>  <cdx:fragmentId>
5

$$$$
