115.cdx
  Mrv1902 05222410192D          

 21 22  0  0  0  0            999 V2000
    7.3400   -5.4495    0.0000 C   0  0  0  0  0  0  0  0  0  0  0  0
    6.6256   -5.8620    0.0000 C   0  0  0  0  0  0  0  0  0  0  0  0
    5.9111   -5.4495    0.0000 C   0  0  0  0  0  0  0  0  0  0  0  0
    5.1966   -5.8620    0.0000 C   0  0  0  0  0  0  0  0  0  0  0  0
    4.4822   -5.4495    0.0000 C   0  0  0  0  0  0  0  0  0  0  0  0
    3.7677   -5.8620    0.0000 C   0  0  0  0  0  0  0  0  0  0  0  0
    3.0532   -5.4495    0.0000 O   0  0  0  0  0  0  0  0  0  0  0  0
    3.7677   -6.6870    0.0000 C   0  0  0  0  0  0  0  0  0  0  0  0
    3.0532   -7.0995    0.0000 O   0  0  0  0  0  0  0  0  0  0  0  0
    4.4822   -7.0995    0.0000 C   0  0  0  0  0  0  0  0  0  0  0  0
    5.1966   -6.6870    0.0000 C   0  0  0  0  0  0  0  0  0  0  0  0
    7.3400   -4.6245    0.0000 O   0  0  0  0  0  0  0  0  0  0  0  0
    8.0545   -5.8620    0.0000 O   0  0  0  0  0  0  0  0  0  0  0  0
    8.7690   -5.4495    0.0000 C   0  0  0  0  0  0  0  0  0  0  0  0
    9.4835   -5.8620    0.0000 C   0  0  0  0  0  0  0  0  0  0  0  0
   10.1979   -5.4495    0.0000 C   0  0  0  0  0  0  0  0  0  0  0  0
   10.1979   -4.6245    0.0000 C   0  0  0  0  0  0  0  0  0  0  0  0
   10.9124   -4.2120    0.0000 C   0  0  0  0  0  0  0  0  0  0  0  0
   11.6269   -4.6245    0.0000 C   0  0  0  0  0  0  0  0  0  0  0  0
   11.6269   -5.4495    0.0000 C   0  0  0  0  0  0  0  0  0  0  0  0
   10.9124   -5.8620    0.0000 C   0  0  0  0  0  0  0  0  0  0  0  0
  1  2  1  0  0  0  0
  2  3  2  0  0  0  0
  3  4  1  0  0  0  0
  4  5  1  0  0  0  0
  5  6  2  0  0  0  0
  6  7  1  0  0  0  0
  6  8  1  0  0  0  0
  8  9  1  0  0  0  0
  8 10  2  0  0  0  0
 10 11  1  0  0  0  0
  4 11  2  0  0  0  0
  1 12  2  0  0  0  0
  1 13  1  0  0  0  0
 14 15  1  0  0  0  0
 15 16  1  0  0  0  0
 16 17  1  0  0  0  0
 17 18  2  0  0  0  0
 18 19  1  0  0  0  0
 19 20  2  0  0  0  0
 20 21  1  0  0  0  0
 16 21  2  0  0  0  0
 13 14  1  0  0  0  0
M  END
>  <cdx:groupId>
205

>  <cdx:fragmentId>
144

$$$$
