1150.cdx
  Mrv1902 05222410222D          

 18 19  0  0  0  0            999 V2000
    4.6233   -6.6413    0.0000 C   0  0  0  0  0  0  0  0  0  0  0  0
    4.6233   -7.4663    0.0000 C   0  0  0  0  0  0  0  0  0  0  0  0
    5.3377   -7.8788    0.0000 C   0  0  0  0  0  0  0  0  0  0  0  0
    6.0522   -7.4663    0.0000 C   0  0  0  0  0  0  0  0  0  0  0  0
    6.0522   -6.6413    0.0000 C   0  0  2  0  0  0  0  0  0  0  0  0
    5.3377   -6.2287    0.0000 C   0  0  0  0  0  0  0  0  0  0  0  0
    6.7667   -7.8788    0.0000 C   0  0  0  0  0  0  0  0  0  0  0  0
    7.4812   -7.4663    0.0000 C   0  0  1  0  0  0  0  0  0  0  0  0
    7.4812   -6.6413    0.0000 C   0  0  0  0  0  0  0  0  0  0  0  0
    6.7667   -6.2287    0.0000 C   0  0  0  0  0  0  0  0  0  0  0  0
    5.3377   -8.7037    0.0000 C   0  0  0  0  0  0  0  0  0  0  0  0
    8.1956   -7.8788    0.0000 C   0  0  0  0  0  0  0  0  0  0  0  0
    8.9101   -8.2912    0.0000 O   0  0  0  0  0  0  0  0  0  0  0  0
    6.0522   -5.8163    0.0000 C   0  0  0  0  0  0  0  0  0  0  0  0
    8.1956   -8.7037    0.0000 C   0  0  0  0  0  0  0  0  0  0  0  0
    8.9101   -7.4663    0.0000 C   0  0  0  0  0  0  0  0  0  0  0  0
    9.6246   -7.8788    0.0000 O   0  0  0  0  0  0  0  0  0  0  0  0
    8.1956   -7.0537    0.0000 H   0  0  0  0  0  0  0  0  0  0  0  0
  1  2  1  0  0  0  0
  2  3  1  0  0  0  0
  3  4  1  0  0  0  0
  4  5  1  0  0  0  0
  5  6  1  0  0  0  0
  6  1  1  0  0  0  0
  4  7  1  0  0  0  0
  7  8  1  0  0  0  0
  8  9  1  0  0  0  0
  9 10  1  0  0  0  0
 10  5  1  0  0  0  0
  3 11  2  0  0  0  0
  8 12  1  0  0  0  0
 12 13  1  0  0  0  0
  5 14  1  1  0  0  0
 12 15  1  0  0  0  0
 12 16  1  0  0  0  0
 16 17  1  0  0  0  0
  8 18  1  6  0  0  0
M  END
>  <cdx:fragmentId>
5

$$$$
