11508.cdx
  Mrv1902 05222410262D          

  7  6  0  0  0  0            999 V2000
    3.3018   -3.2656    0.0000 C   0  0  0  0  0  0  0  0  0  0  0  0
    4.0163   -3.6781    0.0000 C   0  0  0  0  0  0  0  0  0  0  0  0
    4.7307   -3.2656    0.0000 C   0  0  0  0  0  0  0  0  0  0  0  0
    5.4452   -3.6781    0.0000 C   0  0  0  0  0  0  0  0  0  0  0  0
    6.1597   -3.2656    0.0000 C   0  0  0  0  0  0  0  0  0  0  0  0
    4.7307   -2.4406    0.0000 C   0  0  0  0  0  0  0  0  0  0  0  0
    2.5873   -3.6781    0.0000 O   0  0  0  0  0  0  0  0  0  0  0  0
  1  2  1  0  0  0  0
  2  3  1  0  0  0  0
  3  4  1  0  0  0  0
  4  5  1  0  0  0  0
  3  6  1  0  0  0  0
  1  7  1  0  0  0  0
M  END
>  <cdx:groupId>
22

>  <cdx:fragmentId>
5

$$$$
