hosenkoside D.cdx
  Mrv1902 05222410272D          

 61 67  0  0  0  0            999 V2000
    4.3345   -7.6725    0.0000 C   0  0  0  0  0  0  0  0  0  0  0  0
    4.3345   -8.4975    0.0000 C   0  0  1  0  0  0  0  0  0  0  0  0
    5.0490   -8.9100    0.0000 C   0  0  1  0  0  0  0  0  0  0  0  0
    5.7635   -8.4975    0.0000 C   0  0  1  0  0  0  0  0  0  0  0  0
    5.7635   -7.6725    0.0000 C   0  0  2  0  0  0  0  0  0  0  0  0
    5.0490   -7.2600    0.0000 C   0  0  0  0  0  0  0  0  0  0  0  0
    6.4779   -8.9100    0.0000 C   0  0  0  0  0  0  0  0  0  0  0  0
    7.1924   -8.4975    0.0000 C   0  0  0  0  0  0  0  0  0  0  0  0
    7.1924   -7.6725    0.0000 C   0  0  2  0  0  0  0  0  0  0  0  0
    6.4779   -7.2600    0.0000 C   0  0  2  0  0  0  0  0  0  0  0  0
    7.9069   -7.2600    0.0000 C   0  0  1  0  0  0  0  0  0  0  0  0
    7.9069   -6.4350    0.0000 C   0  0  2  0  0  0  0  0  0  0  0  0
    7.1924   -6.0225    0.0000 C   0  0  0  0  0  0  0  0  0  0  0  0
    6.4779   -6.4350    0.0000 C   0  0  0  0  0  0  0  0  0  0  0  0
    8.6214   -7.6725    0.0000 C   0  0  0  0  0  0  0  0  0  0  0  0
    9.3358   -7.2600    0.0000 C   0  0  0  0  0  0  0  0  0  0  0  0
    9.3358   -6.4350    0.0000 C   0  0  2  0  0  0  0  0  0  0  0  0
    8.6214   -6.0225    0.0000 C   0  0  2  0  0  0  0  0  0  0  0  0
   10.0503   -6.8475    0.0000 C   0  0  0  0  0  0  0  0  0  0  0  0
   10.7648   -6.4350    0.0000 C   0  0  0  0  0  0  0  0  0  0  0  0
   10.7648   -5.6100    0.0000 C   0  0  2  0  0  0  0  0  0  0  0  0
   10.0503   -5.1975    0.0000 O   0  0  0  0  0  0  0  0  0  0  0  0
    9.3358   -5.6100    0.0000 C   0  0  0  0  0  0  0  0  0  0  0  0
   12.1937   -6.4350    0.0000 O   0  0  0  0  0  0  0  0  0  0  0  0
   12.1937   -5.6100    0.0000 C   0  0  0  0  0  0  0  0  0  0  0  0
   11.4792   -5.1975    0.0000 C   0  0  2  0  0  0  0  0  0  0  0  0
    2.9056   -7.6725    0.0000 O   0  0  0  0  0  0  0  0  0  0  0  0
    2.9056   -8.4975    0.0000 C   0  0  1  0  0  0  0  0  0  0  0  0
    3.6201   -8.9100    0.0000 O   0  0  0  0  0  0  0  0  0  0  0  0
    2.1911   -7.2600    0.0000 C   0  0  1  0  0  0  0  0  0  0  0  0
    1.4766   -7.6725    0.0000 C   0  0  2  0  0  0  0  0  0  0  0  0
    1.4766   -8.4975    0.0000 C   0  0  1  0  0  0  0  0  0  0  0  0
    2.1911   -8.9100    0.0000 C   0  0  1  0  0  0  0  0  0  0  0  0
    6.4779   -8.0850    0.0000 H   0  0  0  0  0  0  0  0  0  0  0  0
    7.9069   -8.0850    0.0000 C   0  0  0  0  0  0  0  0  0  0  0  0
    5.7635   -9.3225    0.0000 H   0  0  0  0  0  0  0  0  0  0  0  0
    0.7622   -7.2600    0.0000 O   0  0  0  0  0  0  0  0  0  0  0  0
    2.1911   -9.7350    0.0000 O   0  0  0  0  0  0  0  0  0  0  0  0
    0.7622   -8.9100    0.0000 O   0  0  0  0  0  0  0  0  0  0  0  0
    2.1911   -6.4350    0.0000 C   0  0  0  0  0  0  0  0  0  0  0  0
    4.6365   -9.6245    0.0000 C   0  0  0  0  0  0  0  0  0  0  0  0
    5.7635   -6.8475    0.0000 C   0  0  0  0  0  0  0  0  0  0  0  0
    7.1924   -6.8475    0.0000 C   0  0  0  0  0  0  0  0  0  0  0  0
    7.9069   -5.6100    0.0000 H   0  0  0  0  0  0  0  0  0  0  0  0
    8.6214   -5.1975    0.0000 O   0  0  0  0  0  0  0  0  0  0  0  0
   11.4792   -6.0225    0.0000 H   0  0  0  0  0  0  0  0  0  0  0  0
   11.4792   -4.3725    0.0000 C   0  0  0  0  0  0  0  0  0  0  0  0
    5.5102  -11.1994    0.0000 O   0  0  0  0  0  0  0  0  0  0  0  0
    5.5102  -12.0244    0.0000 C   0  0  1  0  0  0  0  0  0  0  0  0
    6.2246  -12.4369    0.0000 C   0  0  2  0  0  0  0  0  0  0  0  0
    6.9391  -12.0244    0.0000 C   0  0  1  0  0  0  0  0  0  0  0  0
    6.9391  -11.1994    0.0000 C   0  0  2  0  0  0  0  0  0  0  0  0
    6.2246  -10.7869    0.0000 C   0  0  2  0  0  0  0  0  0  0  0  0
    4.7957  -12.4369    0.0000 C   0  0  0  0  0  0  0  0  0  0  0  0
    7.6536  -12.4369    0.0000 O   0  0  0  0  0  0  0  0  0  0  0  0
    6.2246   -9.9619    0.0000 O   0  0  0  0  0  0  0  0  0  0  0  0
    7.6536  -10.7869    0.0000 O   0  0  0  0  0  0  0  0  0  0  0  0
    6.2246  -13.2619    0.0000 O   0  0  0  0  0  0  0  0  0  0  0  0
    4.0812  -12.0244    0.0000 O   0  0  0  0  0  0  0  0  0  0  0  0
    5.4615   -9.6245    0.0000 C   0  0  0  0  0  0  0  0  0  0  0  0
    2.9056   -6.0225    0.0000 O   0  0  0  0  0  0  0  0  0  0  0  0
  1  2  1  0  0  0  0
  2  3  1  0  0  0  0
  3  4  1  0  0  0  0
  4  5  1  0  0  0  0
  5  6  1  0  0  0  0
  6  1  1  0  0  0  0
  4  7  1  0  0  0  0
  7  8  1  0  0  0  0
  8  9  1  0  0  0  0
  9 10  1  0  0  0  0
 10  5  1  0  0  0  0
  9 11  1  0  0  0  0
 11 12  1  0  0  0  0
 12 13  1  0  0  0  0
 13 14  1  0  0  0  0
 14 10  1  0  0  0  0
 11 15  1  0  0  0  0
 15 16  1  0  0  0  0
 16 17  1  0  0  0  0
 17 18  1  0  0  0  0
 18 12  1  0  0  0  0
 17 19  1  6  0  0  0
 19 20  1  0  0  0  0
 20 21  1  0  0  0  0
 21 22  1  0  0  0  0
 22 23  1  0  0  0  0
 17 23  1  1  0  0  0
 24 25  1  0  0  0  0
 25 26  1  0  0  0  0
 26 21  1  0  0  0  0
 27 28  1  0  0  0  0
 28 29  1  1  0  0  0
  2 29  1  1  0  0  0
 27 30  1  0  0  0  0
 30 31  1  0  0  0  0
 31 32  1  0  0  0  0
 32 33  1  0  0  0  0
 33 28  1  0  0  0  0
 10 34  1  6  0  0  0
 11 35  1  6  0  0  0
  4 36  1  6  0  0  0
 31 37  1  6  0  0  0
 33 38  1  6  0  0  0
 32 39  1  1  0  0  0
 30 40  1  1  0  0  0
  3 41  1  1  0  0  0
  5 42  1  1  0  0  0
  9 43  1  1  0  0  0
 12 44  1  1  0  0  0
 18 45  1  1  0  0  0
 21 46  1  1  0  0  0
 26 47  1  1  0  0  0
 48 49  1  0  0  0  0
 49 50  1  0  0  0  0
 50 51  1  0  0  0  0
 51 52  1  0  0  0  0
 52 53  1  0  0  0  0
 53 48  1  0  0  0  0
 49 54  1  1  0  0  0
 51 55  1  1  0  0  0
 53 56  1  1  0  0  0
 52 57  1  6  0  0  0
 50 58  1  6  0  0  0
 54 59  1  0  0  0  0
  3 60  1  0  0  0  0
 60 56  1  0  0  0  0
 40 61  1  0  0  0  0
M  END
>  <cdx:fragmentId>
5

$$$$
