11519.cdx
  Mrv1902 05222410272D          

  8  7  0  0  0  0            999 V2000
    6.8624   -3.2096    0.0000 C   0  0  0  0  0  0  0  0  0  0  0  0
    6.1479   -3.6221    0.0000 C   0  0  0  0  0  0  0  0  0  0  0  0
    5.4335   -3.2096    0.0000 C   0  0  0  0  0  0  0  0  0  0  0  0
    4.7190   -3.6221    0.0000 C   0  0  0  0  0  0  0  0  0  0  0  0
    4.0045   -3.2096    0.0000 C   0  0  0  0  0  0  0  0  0  0  0  0
    3.2901   -3.6221    0.0000 C   0  0  0  0  0  0  0  0  0  0  0  0
    2.5756   -3.2096    0.0000 C   0  0  0  0  0  0  0  0  0  0  0  0
    5.4335   -2.3846    0.0000 C   0  0  0  0  0  0  0  0  0  0  0  0
  1  2  1  0  0  0  0
  2  3  1  0  0  0  0
  3  4  1  0  0  0  0
  4  5  1  0  0  0  0
  5  6  1  0  0  0  0
  6  7  1  0  0  0  0
  3  8  1  0  0  0  0
M  END
>  <cdx:groupId>
25

>  <cdx:fragmentId>
5

$$$$
