11514.cdx
  Mrv1902 05222410192D          

 11 10  0  0  0  0            999 V2000
    4.7949   -4.0021    0.0000 C   0  0  0  0  0  0  0  0  0  0  0  0
    4.0804   -4.4146    0.0000 C   0  0  0  0  0  0  0  0  0  0  0  0
    3.3659   -4.0021    0.0000 C   0  0  0  0  0  0  0  0  0  0  0  0
    3.3659   -3.1771    0.0000 C   0  0  0  0  0  0  0  0  0  0  0  0
    4.7949   -3.1771    0.0000 O   0  0  0  0  0  0  0  0  0  0  0  0
    5.5094   -4.4146    0.0000 O   0  0  0  0  0  0  0  0  0  0  0  0
    2.6515   -4.4146    0.0000 C   0  0  0  0  0  0  0  0  0  0  0  0
    6.2238   -4.0021    0.0000 C   0  0  0  0  0  0  0  0  0  0  0  0
    6.9383   -4.4146    0.0000 C   0  0  0  0  0  0  0  0  0  0  0  0
    6.9383   -5.2396    0.0000 C   0  0  0  0  0  0  0  0  0  0  0  0
    7.6528   -4.0021    0.0000 C   0  0  0  0  0  0  0  0  0  0  0  0
  1  2  1  0  0  0  0
  2  3  1  0  0  0  0
  3  4  1  0  0  0  0
  1  5  2  0  0  0  0
  1  6  1  0  0  0  0
  3  7  1  0  0  0  0
  8  9  1  0  0  0  0
  9 10  1  0  0  0  0
  9 11  1  0  0  0  0
  6  8  1  0  0  0  0
M  END
>  <cdx:groupId>
34

>  <cdx:fragmentId>
5

$$$$
