hosenkoside E.cdx
  Mrv1902 05222410192D          

 59 65  0  0  0  0            999 V2000
    6.5053   -7.7344    0.0000 C   0  0  0  0  0  0  0  0  0  0  0  0
    6.5053   -8.3944    0.0000 C   0  0  1  0  0  0  0  0  0  0  0  0
    7.0769   -8.7244    0.0000 C   0  0  1  0  0  0  0  0  0  0  0  0
    7.6485   -8.3944    0.0000 C   0  0  0  0  0  0  0  0  0  0  0  0
    7.6485   -7.7344    0.0000 C   0  0  2  0  0  0  0  0  0  0  0  0
    7.0769   -7.4044    0.0000 C   0  0  0  0  0  0  0  0  0  0  0  0
    8.2200   -8.7244    0.0000 C   0  0  0  0  0  0  0  0  0  0  0  0
    8.7916   -8.3944    0.0000 C   0  0  0  0  0  0  0  0  0  0  0  0
    8.7916   -7.7344    0.0000 C   0  0  2  0  0  0  0  0  0  0  0  0
    8.2200   -7.4044    0.0000 C   0  0  0  0  0  0  0  0  0  0  0  0
    9.3632   -7.4044    0.0000 C   0  0  1  0  0  0  0  0  0  0  0  0
    9.3632   -6.7444    0.0000 C   0  0  2  0  0  0  0  0  0  0  0  0
    8.7916   -6.4144    0.0000 C   0  0  0  0  0  0  0  0  0  0  0  0
    8.2200   -6.7444    0.0000 C   0  0  0  0  0  0  0  0  0  0  0  0
    9.9348   -7.7344    0.0000 C   0  0  0  0  0  0  0  0  0  0  0  0
   10.5063   -7.4044    0.0000 C   0  0  0  0  0  0  0  0  0  0  0  0
   10.5063   -6.7444    0.0000 C   0  0  2  0  0  0  0  0  0  0  0  0
    9.9348   -6.4144    0.0000 C   0  0  2  0  0  0  0  0  0  0  0  0
   11.0779   -7.0744    0.0000 C   0  0  0  0  0  0  0  0  0  0  0  0
   11.6495   -6.7444    0.0000 C   0  0  0  0  0  0  0  0  0  0  0  0
   11.6495   -6.0844    0.0000 C   0  0  1  0  0  0  0  0  0  0  0  0
   11.0779   -5.7544    0.0000 O   0  0  0  0  0  0  0  0  0  0  0  0
   10.5063   -6.0844    0.0000 C   0  0  0  0  0  0  0  0  0  0  0  0
    5.3622   -7.7344    0.0000 O   0  0  0  0  0  0  0  0  0  0  0  0
    5.3622   -8.3944    0.0000 C   0  0  1  0  0  0  0  0  0  0  0  0
    5.9337   -8.7244    0.0000 O   0  0  0  0  0  0  0  0  0  0  0  0
    4.7906   -7.4044    0.0000 C   0  0  1  0  0  0  0  0  0  0  0  0
    4.2190   -7.7344    0.0000 C   0  0  2  0  0  0  0  0  0  0  0  0
    4.2190   -8.3944    0.0000 C   0  0  1  0  0  0  0  0  0  0  0  0
    4.7906   -8.7244    0.0000 C   0  0  1  0  0  0  0  0  0  0  0  0
    9.3632   -8.0644    0.0000 C   0  0  0  0  0  0  0  0  0  0  0  0
    3.6474   -7.4044    0.0000 O   0  0  0  0  0  0  0  0  0  0  0  0
    4.7906   -9.3844    0.0000 O   0  0  0  0  0  0  0  0  0  0  0  0
    3.6474   -8.7244    0.0000 O   0  0  0  0  0  0  0  0  0  0  0  0
    4.7906   -6.7444    0.0000 C   0  0  0  0  0  0  0  0  0  0  0  0
    6.7469   -9.2960    0.0000 C   0  0  0  0  0  0  0  0  0  0  0  0
    7.6485   -7.0744    0.0000 C   0  0  0  0  0  0  0  0  0  0  0  0
    8.7916   -7.0744    0.0000 C   0  0  0  0  0  0  0  0  0  0  0  0
    9.3632   -6.0844    0.0000 H   0  0  0  0  0  0  0  0  0  0  0  0
    9.9348   -5.7544    0.0000 O   0  0  0  0  0  0  0  0  0  0  0  0
    8.0174   -9.5659    0.0000 O   0  0  0  0  0  0  0  0  0  0  0  0
    7.4069   -9.2960    0.0000 C   0  0  0  0  0  0  0  0  0  0  0  0
    4.2190   -6.4144    0.0000 O   0  0  0  0  0  0  0  0  0  0  0  0
    3.6579   -9.3803    0.0000 O   0  0  0  0  0  0  0  0  0  0  0  0
    3.0837   -9.7057    0.0000 C   0  0  1  0  0  0  0  0  0  0  0  0
    3.0783  -10.3656    0.0000 C   0  0  2  0  0  0  0  0  0  0  0  0
    3.6472  -10.7003    0.0000 C   0  0  1  0  0  0  0  0  0  0  0  0
    4.2214  -10.3750    0.0000 C   0  0  2  0  0  0  0  0  0  0  0  0
    4.2268   -9.7150    0.0000 C   0  0  2  0  0  0  0  0  0  0  0  0
    2.5148   -9.3710    0.0000 C   0  0  0  0  0  0  0  0  0  0  0  0
    3.6418  -11.3603    0.0000 O   0  0  0  0  0  0  0  0  0  0  0  0
    4.7903  -10.7096    0.0000 O   0  0  0  0  0  0  0  0  0  0  0  0
    2.5040  -10.6910    0.0000 O   0  0  0  0  0  0  0  0  0  0  0  0
    2.5202   -8.7110    0.0000 O   0  0  0  0  0  0  0  0  0  0  0  0
   12.2211   -5.7544    0.0000 C   0  0  1  0  0  0  0  0  0  0  0  0
   12.7927   -6.0844    0.0000 C   0  0  0  0  0  0  0  0  0  0  0  0
   13.3642   -5.7544    0.0000 O   0  0  0  0  0  0  0  0  0  0  0  0
   11.6495   -5.4244    0.0000 H   0  0  0  0  0  0  0  0  0  0  0  0
   12.2211   -5.0944    0.0000 C   0  0  0  0  0  0  0  0  0  0  0  0
  1  2  1  0  0  0  0
  2  3  1  0  0  0  0
  3  4  1  0  0  0  0
  4  5  1  0  0  0  0
  5  6  1  0  0  0  0
  6  1  1  0  0  0  0
  4  7  1  0  0  0  0
  7  8  1  0  0  0  0
  8  9  1  0  0  0  0
  9 10  1  0  0  0  0
 10  5  1  0  0  0  0
  9 11  1  0  0  0  0
 11 12  1  0  0  0  0
 12 13  1  0  0  0  0
 13 14  1  0  0  0  0
 14 10  1  0  0  0  0
 11 15  1  0  0  0  0
 15 16  1  0  0  0  0
 16 17  1  0  0  0  0
 17 18  1  0  0  0  0
 18 12  1  0  0  0  0
 17 19  1  6  0  0  0
 19 20  1  0  0  0  0
 20 21  1  0  0  0  0
 21 22  1  0  0  0  0
 22 23  1  0  0  0  0
 17 23  1  1  0  0  0
 24 25  1  0  0  0  0
 25 26  1  1  0  0  0
  2 26  1  1  0  0  0
 24 27  1  0  0  0  0
 27 28  1  0  0  0  0
 28 29  1  0  0  0  0
 29 30  1  0  0  0  0
 30 25  1  0  0  0  0
 11 31  1  6  0  0  0
 28 32  1  6  0  0  0
 30 33  1  6  0  0  0
 29 34  1  1  0  0  0
 27 35  1  1  0  0  0
  3 36  1  1  0  0  0
  5 37  1  1  0  0  0
  9 38  1  1  0  0  0
 12 39  1  1  0  0  0
 18 40  1  1  0  0  0
  3 42  1  0  0  0  0
 42 41  1  0  0  0  0
 35 43  1  0  0  0  0
 44 45  1  0  0  0  0
 45 46  1  0  0  0  0
 46 47  1  0  0  0  0
 47 48  1  0  0  0  0
 48 49  1  0  0  0  0
 49 44  1  0  0  0  0
 45 50  1  1  0  0  0
 47 51  1  1  0  0  0
 48 52  1  6  0  0  0
 46 53  1  6  0  0  0
 50 54  1  0  0  0  0
 21 55  1  0  0  0  0
 55 56  1  0  0  0  0
 56 57  1  0  0  0  0
 21 58  1  6  0  0  0
 55 59  1  6  0  0  0
 49 33  1  1  0  0  0
M  END
>  <cdx:fragmentId>
5

$$$$
