11517.cdx
  Mrv1902 05222410182D          

 14 13  0  0  0  0            999 V2000
    6.1760   -4.0089    0.0000 C   0  0  0  0  0  0  0  0  0  0  0  0
    5.4615   -4.4214    0.0000 C   0  0  0  0  0  0  0  0  0  0  0  0
    4.7470   -4.0089    0.0000 C   0  0  0  0  0  0  0  0  0  0  0  0
    4.0326   -4.4214    0.0000 C   0  0  0  0  0  0  0  0  0  0  0  0
    3.3181   -4.0089    0.0000 C   0  0  0  0  0  0  0  0  0  0  0  0
    2.6036   -4.4214    0.0000 C   0  0  0  0  0  0  0  0  0  0  0  0
    1.8891   -4.0089    0.0000 C   0  0  0  0  0  0  0  0  0  0  0  0
    1.1747   -4.4214    0.0000 C   0  0  0  0  0  0  0  0  0  0  0  0
    6.1760   -3.1839    0.0000 O   0  0  0  0  0  0  0  0  0  0  0  0
    6.8904   -4.4214    0.0000 O   0  0  0  0  0  0  0  0  0  0  0  0
    7.6049   -4.0089    0.0000 C   0  0  0  0  0  0  0  0  0  0  0  0
    8.3194   -4.4214    0.0000 C   0  0  0  0  0  0  0  0  0  0  0  0
    9.0339   -4.0089    0.0000 C   0  0  0  0  0  0  0  0  0  0  0  0
    9.7483   -4.4214    0.0000 C   0  0  0  0  0  0  0  0  0  0  0  0
  1  2  1  0  0  0  0
  2  3  1  0  0  0  0
  3  4  1  0  0  0  0
  4  5  1  0  0  0  0
  5  6  1  0  0  0  0
  6  7  1  0  0  0  0
  7  8  1  0  0  0  0
  1  9  2  0  0  0  0
  1 10  1  0  0  0  0
 11 12  1  0  0  0  0
 12 13  1  0  0  0  0
 13 14  1  0  0  0  0
 10 11  1  0  0  0  0
M  END
>  <cdx:groupId>
43

>  <cdx:fragmentId>
5

$$$$
