115190.cdx
  Mrv1902 05222410252D          

 51 56  0  0  0  0            999 V2000
    9.5822   -9.5959    0.0000 O   0  0  0  0  0  0  0  0  0  0  0  0
    8.1746  -10.4567    0.0000 O   0  0  0  0  0  0  0  0  0  0  0  0
    6.0423  -10.9232    0.0000 O   0  0  0  0  0  0  0  0  0  0  0  0
    4.6346  -11.7841    0.0000 O   0  0  0  0  0  0  0  0  0  0  0  0
    3.1853  -10.9955    0.0000 O   0  0  0  0  0  0  0  0  0  0  0  0
    3.1436   -9.3460    0.0000 C   0  0  0  0  0  0  0  0  0  0  0  0
    3.8683   -9.7403    0.0000 C   0  0  1  0  0  0  0  0  0  0  0  0
    3.8891  -10.5650    0.0000 C   0  0  1  0  0  0  0  0  0  0  0  0
    4.6138  -10.9594    0.0000 C   0  0  2  0  0  0  0  0  0  0  0  0
    5.3176  -10.5289    0.0000 C   0  0  2  0  0  0  0  0  0  0  0  0
    5.2967   -9.7042    0.0000 C   0  0  1  0  0  0  0  0  0  0  0  0
    4.5721   -9.3099    0.0000 O   0  0  0  0  0  0  0  0  0  0  0  0
    6.0006   -9.2738    0.0000 O   0  0  0  0  0  0  0  0  0  0  0  0
    6.7252   -9.6681    0.0000 C   0  0  0  0  0  0  0  0  0  0  0  0
   10.9482   -7.0856    0.0000 O   0  0  0  0  0  0  0  0  0  0  0  0
   12.3975   -7.8742    0.0000 O   0  0  0  0  0  0  0  0  0  0  0  0
   12.4392   -9.5237    0.0000 O   0  0  0  0  0  0  0  0  0  0  0  0
   11.0107   -9.5598    0.0000 C   0  0  0  0  0  0  0  0  0  0  0  0
   11.7145   -9.1293    0.0000 C   0  0  2  0  0  0  0  0  0  0  0  0
   11.6937   -8.3046    0.0000 C   0  0  1  0  0  0  0  0  0  0  0  0
   10.9690   -7.9103    0.0000 C   0  0  2  0  0  0  0  0  0  0  0  0
   10.2652   -8.3407    0.0000 C   0  0  1  0  0  0  0  0  0  0  0  0
   10.2860   -9.1655    0.0000 O   0  0  0  0  0  0  0  0  0  0  0  0
    9.5405   -7.9464    0.0000 O   0  0  0  0  0  0  0  0  0  0  0  0
    7.4291   -9.2377    0.0000 C   0  0  2  0  0  0  0  0  0  0  0  0
    8.1537   -9.6320    0.0000 C   0  0  2  0  0  0  0  0  0  0  0  0
    8.8575   -9.2016    0.0000 C   0  0  1  0  0  0  0  0  0  0  0  0
    8.8367   -8.3768    0.0000 C   0  0  2  0  0  0  0  0  0  0  0  0
    8.1120   -7.9825    0.0000 C   0  0  1  0  0  0  0  0  0  0  0  0
    7.4082   -8.4129    0.0000 O   0  0  0  0  0  0  0  0  0  0  0  0
    8.0912   -7.1578    0.0000 O   0  0  0  0  0  0  0  0  0  0  0  0
    5.2551   -8.0547    0.0000 O   0  0  0  0  0  0  0  0  0  0  0  0
    3.7640   -5.6166    0.0000 O   0  0  0  0  0  0  0  0  0  0  0  0
   10.1610   -4.2170    0.0000 O   0  0  0  0  0  0  0  0  0  0  0  0
    8.0286   -4.6836    0.0000 C   0  0  0  0  0  0  0  0  0  0  0  0
    8.7325   -4.2531    0.0000 C   0  0  0  0  0  0  0  0  0  0  0  0
    9.4571   -4.6475    0.0000 C   0  0  0  0  0  0  0  0  0  0  0  0
    9.4780   -5.4722    0.0000 C   0  0  0  0  0  0  0  0  0  0  0  0
    8.7742   -5.9026    0.0000 C   0  0  0  0  0  0  0  0  0  0  0  0
    8.0495   -5.5083    0.0000 C   0  0  0  0  0  0  0  0  0  0  0  0
    6.6835   -8.0186    0.0000 O   0  0  0  0  0  0  0  0  0  0  0  0
    6.6210   -5.5444    0.0000 O   0  0  0  0  0  0  0  0  0  0  0  0
    5.9172   -5.9748    0.0000 C   0  0  0  0  0  0  0  0  0  0  0  0
    5.1925   -5.5805    0.0000 C   0  0  0  0  0  0  0  0  0  0  0  0
    4.4887   -6.0109    0.0000 C   0  0  0  0  0  0  0  0  0  0  0  0
    4.5095   -6.8357    0.0000 C   0  0  0  0  0  0  0  0  0  0  0  0
    5.2342   -7.2300    0.0000 C   0  0  0  0  0  0  0  0  0  0  0  0
    5.9380   -6.7996    0.0000 C   0  0  0  0  0  0  0  0  0  0  0  0
    6.6627   -7.1939    0.0000 C   0  0  0  0  0  0  0  0  0  0  0  0
    7.3665   -6.7635    0.0000 C   0  0  0  0  0  0  0  0  0  0  0  0
    7.3457   -5.9387    0.0000 C   0  0  0  0  0  0  0  0  0  0  0  0
 50 31  1  0  0  0  0
 29 31  1  1  0  0  0
 27  1  1  1  0  0  0
 26  2  1  6  0  0  0
 25 14  1  1  0  0  0
 14 13  1  0  0  0  0
 11 13  1  1  0  0  0
 10  3  1  6  0  0  0
  9  4  1  6  0  0  0
  8  5  1  1  0  0  0
  7  6  1  6  0  0  0
 12  7  1  0  0  0  0
  8  7  1  0  0  0  0
  9  8  1  0  0  0  0
 10  9  1  0  0  0  0
 11 10  1  0  0  0  0
 12 11  1  0  0  0  0
 28 24  1  6  0  0  0
 22 24  1  1  0  0  0
 21 15  1  6  0  0  0
 20 16  1  1  0  0  0
 19 17  1  6  0  0  0
 23 18  1  0  0  0  0
 19 18  1  0  0  0  0
 20 19  1  0  0  0  0
 21 20  1  0  0  0  0
 22 21  1  0  0  0  0
 23 22  1  0  0  0  0
 30 25  1  0  0  0  0
 26 25  1  0  0  0  0
 27 26  1  0  0  0  0
 28 27  1  0  0  0  0
 29 28  1  0  0  0  0
 30 29  1  0  0  0  0
 47 32  1  0  0  0  0
 45 33  1  0  0  0  0
 51 40  1  0  0  0  0
 37 34  1  0  0  0  0
 40 35  2  0  0  0  0
 36 35  1  0  0  0  0
 37 36  2  0  0  0  0
 38 37  1  0  0  0  0
 39 38  2  0  0  0  0
 40 39  1  0  0  0  0
 49 41  2  0  0  0  0
 51 42  1  0  0  0  0
 43 42  1  0  0  0  0
 48 43  2  0  0  0  0
 44 43  1  0  0  0  0
 45 44  2  0  0  0  0
 46 45  1  0  0  0  0
 47 46  2  0  0  0  0
 48 47  1  0  0  0  0
 49 48  1  0  0  0  0
 50 49  1  0  0  0  0
 51 50  2  0  0  0  0
M  END
>  <cdx:fragmentId>
61

$$$$
