11515.cdx
  Mrv1902 05222410182D          

 72 79  0  0  0  0            999 V2000
    5.5927   -8.9251    0.0000 C   0  0  0  0  0  0  0  0  0  0  0  0
    5.5927   -9.7501    0.0000 C   0  0  0  0  0  0  0  0  0  0  0  0
    6.3071  -10.1626    0.0000 C   0  0  1  0  0  0  0  0  0  0  0  0
    7.0216   -9.7501    0.0000 C   0  0  2  0  0  0  0  0  0  0  0  0
    7.0216   -8.9251    0.0000 C   0  0  1  0  0  0  0  0  0  0  0  0
    6.3071   -8.5126    0.0000 C   0  0  1  0  0  0  0  0  0  0  0  0
    7.7361   -8.5126    0.0000 C   0  0  0  0  0  0  0  0  0  0  0  0
    7.7361   -7.6876    0.0000 C   0  0  0  0  0  0  0  0  0  0  0  0
    7.0216   -7.2751    0.0000 C   0  0  2  0  0  0  0  0  0  0  0  0
    6.3071   -7.6876    0.0000 C   0  0  2  0  0  0  0  0  0  0  0  0
    7.0216   -6.4501    0.0000 C   0  0  1  0  0  0  0  0  0  0  0  0
    6.3071   -6.0376    0.0000 C   0  0  2  0  0  0  0  0  0  0  0  0
    5.5927   -6.4501    0.0000 C   0  0  0  0  0  0  0  0  0  0  0  0
    5.5927   -7.2751    0.0000 C   0  0  0  0  0  0  0  0  0  0  0  0
    7.7361   -6.0376    0.0000 C   0  0  0  0  0  0  0  0  0  0  0  0
    7.7361   -5.2126    0.0000 C   0  0  0  0  0  0  0  0  0  0  0  0
    7.0216   -4.8001    0.0000 C   0  0  1  0  0  0  0  0  0  0  0  0
    6.3071   -5.2126    0.0000 C   0  0  2  0  0  0  0  0  0  0  0  0
    4.8782  -10.9876    0.0000 O   0  0  0  0  0  0  0  0  0  0  0  0
    5.5927  -11.4001    0.0000 C   0  0  1  0  0  0  0  0  0  0  0  0
    6.3071  -10.9876    0.0000 O   0  0  0  0  0  0  0  0  0  0  0  0
    4.1637  -11.4001    0.0000 C   0  0  1  0  0  0  0  0  0  0  0  0
    4.1637  -12.2251    0.0000 C   0  0  2  0  0  0  0  0  0  0  0  0
    4.8782  -12.6376    0.0000 C   0  0  1  0  0  0  0  0  0  0  0  0
    5.5927  -12.2251    0.0000 C   0  0  1  0  0  0  0  0  0  0  0  0
    4.8782  -13.4626    0.0000 O   0  0  0  0  0  0  0  0  0  0  0  0
    5.5927  -13.8751    0.0000 O   0  0  0  0  0  0  0  0  0  0  0  0
    6.3071  -13.4626    0.0000 C   0  0  1  0  0  0  0  0  0  0  0  0
    6.3071  -12.6376    0.0000 O   0  0  0  0  0  0  0  0  0  0  0  0
    5.5927  -14.7001    0.0000 C   0  0  1  0  0  0  0  0  0  0  0  0
    6.3071  -15.1126    0.0000 C   0  0  2  0  0  0  0  0  0  0  0  0
    7.0216  -14.7001    0.0000 C   0  0  1  0  0  0  0  0  0  0  0  0
    7.0216  -13.8751    0.0000 C   0  0  1  0  0  0  0  0  0  0  0  0
    7.8466   -9.7501    0.0000 C   0  0  0  0  0  0  0  0  0  0  0  0
    3.4492  -10.9876    0.0000 C   0  0  0  0  0  0  0  0  0  0  0  0
    2.7348  -11.4001    0.0000 O   0  0  0  0  0  0  0  0  0  0  0  0
    5.5927   -4.8001    0.0000 O   0  0  0  0  0  0  0  0  0  0  0  0
    5.9227   -5.8107    0.0000 H   0  0  0  0  0  0  0  0  0  0  0  0
    7.8466   -7.2751    0.0000 C   0  0  0  0  0  0  0  0  0  0  0  0
    5.5927   -8.1001    0.0000 C   0  0  0  0  0  0  0  0  0  0  0  0
    7.4341  -10.4646    0.0000 C   0  0  0  0  0  0  0  0  0  0  0  0
    7.7361  -15.1126    0.0000 O   0  0  0  0  0  0  0  0  0  0  0  0
    3.4492  -12.6376    0.0000 O   0  0  0  0  0  0  0  0  0  0  0  0
    7.7361  -13.4626    0.0000 O   0  0  0  0  0  0  0  0  0  0  0  0
    6.3071  -15.9376    0.0000 O   0  0  0  0  0  0  0  0  0  0  0  0
    7.8466   -6.4501    0.0000 C   0  0  0  0  0  0  0  0  0  0  0  0
    6.6710   -7.8939    0.0000 H   0  0  0  0  0  0  0  0  0  0  0  0
    7.4061   -9.1520    0.0000 H   0  0  0  0  0  0  0  0  0  0  0  0
    8.2591  -10.4646    0.0000 O   0  0  0  0  0  0  0  0  0  0  0  0
    4.8782  -15.1126    0.0000 C   0  0  0  0  0  0  0  0  0  0  0  0
    4.1637  -14.7001    0.0000 O   0  0  0  0  0  0  0  0  0  0  0  0
    7.7361   -4.3876    0.0000 C   0  0  0  0  0  0  0  0  0  0  0  0
    7.7361   -3.5626    0.0000 O   0  0  0  0  0  0  0  0  0  0  0  0
    7.0216   -3.1501    0.0000 C   0  0  1  0  0  0  0  0  0  0  0  0
    6.3071   -3.5626    0.0000 C   0  0  0  0  0  0  0  0  0  0  0  0
    6.3071   -4.3876    0.0000 C   0  0  0  0  0  0  0  0  0  0  0  0
    7.0216   -2.3251    0.0000 C   0  0  2  0  0  0  0  0  0  0  0  0
    7.4267   -2.9232    0.0000 H   0  0  0  0  0  0  0  0  0  0  0  0
    7.7361   -1.9126    0.0000 C   0  0  0  0  0  0  0  0  0  0  0  0
    7.7361   -1.0876    0.0000 O   0  0  0  0  0  0  0  0  0  0  0  0
    6.3071   -1.9126    0.0000 C   0  0  0  0  0  0  0  0  0  0  0  0
    9.0841  -10.4646    0.0000 C   0  0  2  0  0  0  0  0  0  0  0  0
    9.4966  -11.1791    0.0000 O   0  0  0  0  0  0  0  0  0  0  0  0
   10.3216  -11.1791    0.0000 C   0  0  1  0  0  0  0  0  0  0  0  0
   10.7341  -10.4646    0.0000 C   0  0  2  0  0  0  0  0  0  0  0  0
   10.3216   -9.7501    0.0000 C   0  0  1  0  0  0  0  0  0  0  0  0
    9.4966   -9.7501    0.0000 C   0  0  1  0  0  0  0  0  0  0  0  0
   10.7341   -9.0357    0.0000 O   0  0  0  0  0  0  0  0  0  0  0  0
   10.7341  -11.8935    0.0000 C   0  0  0  0  0  0  0  0  0  0  0  0
    9.0841   -9.0357    0.0000 O   0  0  0  0  0  0  0  0  0  0  0  0
   11.5591  -10.4646    0.0000 O   0  0  0  0  0  0  0  0  0  0  0  0
   11.5591  -11.8935    0.0000 O   0  0  0  0  0  0  0  0  0  0  0  0
  1  2  1  0  0  0  0
  2  3  1  0  0  0  0
  3  4  1  0  0  0  0
  4  5  1  0  0  0  0
  5  6  1  0  0  0  0
  6  1  1  0  0  0  0
  5  7  1  0  0  0  0
  7  8  1  0  0  0  0
  8  9  1  0  0  0  0
  9 10  1  0  0  0  0
 10  6  1  0  0  0  0
  9 11  1  0  0  0  0
 11 12  1  0  0  0  0
 12 13  1  0  0  0  0
 13 14  1  0  0  0  0
 14 10  1  0  0  0  0
 11 15  1  0  0  0  0
 15 16  1  0  0  0  0
 17 16  1  6  0  0  0
 17 18  1  0  0  0  0
 18 12  1  0  0  0  0
 19 20  1  0  0  0  0
 20 21  1  1  0  0  0
  3 21  1  1  0  0  0
 19 22  1  0  0  0  0
 22 23  1  0  0  0  0
 23 24  1  0  0  0  0
 24 25  1  0  0  0  0
 25 20  1  0  0  0  0
 24 26  1  1  0  0  0
 27 28  1  0  0  0  0
 28 29  1  1  0  0  0
 25 29  1  6  0  0  0
 27 30  1  0  0  0  0
 30 31  1  0  0  0  0
 31 32  1  0  0  0  0
 32 33  1  0  0  0  0
 33 28  1  0  0  0  0
  4 34  1  0  0  0  0
 22 35  1  1  0  0  0
 35 36  1  0  0  0  0
 18 37  1  1  0  0  0
 12 38  1  1  0  0  0
  9 39  1  1  0  0  0
  6 40  1  1  0  0  0
  4 41  1  1  0  0  0
 32 42  1  1  0  0  0
 23 43  1  6  0  0  0
 33 44  1  6  0  0  0
 31 45  1  6  0  0  0
 11 46  1  6  0  0  0
 10 47  1  6  0  0  0
  5 48  1  6  0  0  0
 34 49  1  0  0  0  0
 30 50  1  1  0  0  0
 50 51  1  0  0  0  0
 17 52  1  0  0  0  0
 52 53  1  0  0  0  0
 53 54  1  0  0  0  0
 54 55  1  0  0  0  0
 55 56  1  0  0  0  0
 56 17  1  0  0  0  0
 54 57  1  0  0  0  0
 54 58  1  6  0  0  0
 57 59  1  0  0  0  0
 59 60  1  0  0  0  0
 57 61  1  1  0  0  0
 62 49  1  1  0  0  0
 62 63  1  0  0  0  0
 63 64  1  0  0  0  0
 64 65  1  0  0  0  0
 65 66  1  0  0  0  0
 66 67  1  0  0  0  0
 67 62  1  0  0  0  0
 66 68  1  1  0  0  0
 64 69  1  1  0  0  0
 67 70  1  6  0  0  0
 65 71  1  6  0  0  0
 69 72  1  0  0  0  0
M  END
>  <cdx:fragmentId>
5

$$$$
