11516.cdx
  Mrv1902 05222410182D          

 72 79  0  0  0  0            999 V2000
    5.6339  -11.6270    0.0000 C   0  0  0  0  0  0  0  0  0  0  0  0
    5.6339  -12.4520    0.0000 C   0  0  0  0  0  0  0  0  0  0  0  0
    6.3484  -12.8645    0.0000 C   0  0  1  0  0  0  0  0  0  0  0  0
    7.0628  -12.4520    0.0000 C   0  0  2  0  0  0  0  0  0  0  0  0
    7.0628  -11.6270    0.0000 C   0  0  1  0  0  0  0  0  0  0  0  0
    6.3484  -11.2145    0.0000 C   0  0  1  0  0  0  0  0  0  0  0  0
    7.7773  -11.2145    0.0000 C   0  0  0  0  0  0  0  0  0  0  0  0
    7.7773  -10.3895    0.0000 C   0  0  0  0  0  0  0  0  0  0  0  0
    7.0628   -9.9770    0.0000 C   0  0  2  0  0  0  0  0  0  0  0  0
    6.3484  -10.3895    0.0000 C   0  0  2  0  0  0  0  0  0  0  0  0
    7.0628   -9.1520    0.0000 C   0  0  1  0  0  0  0  0  0  0  0  0
    6.3484   -8.7395    0.0000 C   0  0  2  0  0  0  0  0  0  0  0  0
    5.6339   -9.1520    0.0000 C   0  0  0  0  0  0  0  0  0  0  0  0
    5.6339   -9.9770    0.0000 C   0  0  0  0  0  0  0  0  0  0  0  0
    7.7773   -8.7395    0.0000 C   0  0  0  0  0  0  0  0  0  0  0  0
    7.7773   -7.9145    0.0000 C   0  0  0  0  0  0  0  0  0  0  0  0
    7.0628   -7.5020    0.0000 C   0  0  1  0  0  0  0  0  0  0  0  0
    6.3484   -7.9145    0.0000 C   0  0  2  0  0  0  0  0  0  0  0  0
    4.9194  -13.6895    0.0000 O   0  0  0  0  0  0  0  0  0  0  0  0
    5.6339  -14.1020    0.0000 C   0  0  1  0  0  0  0  0  0  0  0  0
    6.3484  -13.6895    0.0000 O   0  0  0  0  0  0  0  0  0  0  0  0
    4.2050  -14.1020    0.0000 C   0  0  1  0  0  0  0  0  0  0  0  0
    4.2050  -14.9270    0.0000 C   0  0  2  0  0  0  0  0  0  0  0  0
    4.9194  -15.3395    0.0000 C   0  0  1  0  0  0  0  0  0  0  0  0
    5.6339  -14.9270    0.0000 C   0  0  1  0  0  0  0  0  0  0  0  0
    4.9194  -16.1645    0.0000 O   0  0  0  0  0  0  0  0  0  0  0  0
    5.6339  -16.5770    0.0000 O   0  0  0  0  0  0  0  0  0  0  0  0
    6.3484  -16.1645    0.0000 C   0  0  1  0  0  0  0  0  0  0  0  0
    6.3484  -15.3395    0.0000 O   0  0  0  0  0  0  0  0  0  0  0  0
    5.6339  -17.4020    0.0000 C   0  0  1  0  0  0  0  0  0  0  0  0
    6.3484  -17.8145    0.0000 C   0  0  2  0  0  0  0  0  0  0  0  0
    7.0628  -17.4020    0.0000 C   0  0  1  0  0  0  0  0  0  0  0  0
    7.0628  -16.5770    0.0000 C   0  0  1  0  0  0  0  0  0  0  0  0
    7.8878  -12.4520    0.0000 C   0  0  0  0  0  0  0  0  0  0  0  0
    3.4905  -13.6895    0.0000 C   0  0  0  0  0  0  0  0  0  0  0  0
    2.7760  -14.1020    0.0000 O   0  0  0  0  0  0  0  0  0  0  0  0
    5.6339   -7.5020    0.0000 O   0  0  0  0  0  0  0  0  0  0  0  0
    5.9639   -8.5126    0.0000 H   0  0  0  0  0  0  0  0  0  0  0  0
    7.8878   -9.9770    0.0000 C   0  0  0  0  0  0  0  0  0  0  0  0
    5.6339  -10.8020    0.0000 C   0  0  0  0  0  0  0  0  0  0  0  0
    7.4753  -13.1665    0.0000 C   0  0  0  0  0  0  0  0  0  0  0  0
    7.7773  -17.8145    0.0000 O   0  0  0  0  0  0  0  0  0  0  0  0
    3.4905  -15.3395    0.0000 O   0  0  0  0  0  0  0  0  0  0  0  0
    7.7773  -16.1645    0.0000 O   0  0  0  0  0  0  0  0  0  0  0  0
    6.3484  -18.6395    0.0000 O   0  0  0  0  0  0  0  0  0  0  0  0
    7.8878   -9.1520    0.0000 C   0  0  0  0  0  0  0  0  0  0  0  0
    6.7122  -10.5957    0.0000 H   0  0  0  0  0  0  0  0  0  0  0  0
    7.4473  -11.8539    0.0000 H   0  0  0  0  0  0  0  0  0  0  0  0
    8.3003  -13.1665    0.0000 O   0  0  0  0  0  0  0  0  0  0  0  0
    4.9194  -17.8145    0.0000 C   0  0  0  0  0  0  0  0  0  0  0  0
    4.2050  -17.4020    0.0000 O   0  0  0  0  0  0  0  0  0  0  0  0
    7.7773   -7.0895    0.0000 C   0  0  0  0  0  0  0  0  0  0  0  0
    7.7773   -6.2645    0.0000 O   0  0  0  0  0  0  0  0  0  0  0  0
    7.0628   -5.8520    0.0000 C   0  0  1  0  0  0  0  0  0  0  0  0
    6.3484   -6.2645    0.0000 C   0  0  0  0  0  0  0  0  0  0  0  0
    6.3484   -7.0895    0.0000 C   0  0  0  0  0  0  0  0  0  0  0  0
    7.0628   -5.0270    0.0000 C   0  0  2  0  0  0  0  0  0  0  0  0
    7.4679   -5.6251    0.0000 H   0  0  0  0  0  0  0  0  0  0  0  0
    7.7773   -4.6145    0.0000 C   0  0  0  0  0  0  0  0  0  0  0  0
    7.7773   -3.7895    0.0000 O   0  0  0  0  0  0  0  0  0  0  0  0
    8.4918   -3.3770    0.0000 C   0  0  1  0  0  0  0  0  0  0  0  0
    9.2063   -3.7895    0.0000 C   0  0  1  0  0  0  0  0  0  0  0  0
    9.9207   -3.3770    0.0000 C   0  0  2  0  0  0  0  0  0  0  0  0
    9.9207   -2.5520    0.0000 C   0  0  1  0  0  0  0  0  0  0  0  0
    9.2063   -2.1395    0.0000 C   0  0  2  0  0  0  0  0  0  0  0  0
    8.4918   -2.5520    0.0000 O   0  0  0  0  0  0  0  0  0  0  0  0
    9.2063   -1.3145    0.0000 C   0  0  0  0  0  0  0  0  0  0  0  0
    8.4918   -0.9020    0.0000 O   0  0  0  0  0  0  0  0  0  0  0  0
   10.6352   -3.7895    0.0000 O   0  0  0  0  0  0  0  0  0  0  0  0
   10.6352   -2.1395    0.0000 O   0  0  0  0  0  0  0  0  0  0  0  0
    9.2063   -4.6145    0.0000 O   0  0  0  0  0  0  0  0  0  0  0  0
    6.3484   -4.6145    0.0000 C   0  0  0  0  0  0  0  0  0  0  0  0
  1  2  1  0  0  0  0
  2  3  1  0  0  0  0
  3  4  1  0  0  0  0
  4  5  1  0  0  0  0
  5  6  1  0  0  0  0
  6  1  1  0  0  0  0
  5  7  1  0  0  0  0
  7  8  1  0  0  0  0
  8  9  1  0  0  0  0
  9 10  1  0  0  0  0
 10  6  1  0  0  0  0
  9 11  1  0  0  0  0
 11 12  1  0  0  0  0
 12 13  1  0  0  0  0
 13 14  1  0  0  0  0
 14 10  1  0  0  0  0
 11 15  1  0  0  0  0
 15 16  1  0  0  0  0
 17 16  1  6  0  0  0
 17 18  1  0  0  0  0
 18 12  1  0  0  0  0
 19 20  1  0  0  0  0
 20 21  1  1  0  0  0
  3 21  1  1  0  0  0
 19 22  1  0  0  0  0
 22 23  1  0  0  0  0
 23 24  1  0  0  0  0
 24 25  1  0  0  0  0
 25 20  1  0  0  0  0
 24 26  1  1  0  0  0
 27 28  1  0  0  0  0
 28 29  1  1  0  0  0
 25 29  1  6  0  0  0
 27 30  1  0  0  0  0
 30 31  1  0  0  0  0
 31 32  1  0  0  0  0
 32 33  1  0  0  0  0
 33 28  1  0  0  0  0
  4 34  1  0  0  0  0
 22 35  1  1  0  0  0
 35 36  1  0  0  0  0
 18 37  1  1  0  0  0
 12 38  1  1  0  0  0
  9 39  1  1  0  0  0
  6 40  1  1  0  0  0
  4 41  1  1  0  0  0
 32 42  1  1  0  0  0
 23 43  1  6  0  0  0
 33 44  1  6  0  0  0
 31 45  1  6  0  0  0
 11 46  1  6  0  0  0
 10 47  1  6  0  0  0
  5 48  1  6  0  0  0
 34 49  1  0  0  0  0
 30 50  1  1  0  0  0
 50 51  1  0  0  0  0
 17 52  1  0  0  0  0
 52 53  1  0  0  0  0
 53 54  1  0  0  0  0
 54 55  1  0  0  0  0
 55 56  1  0  0  0  0
 56 17  1  0  0  0  0
 54 57  1  0  0  0  0
 54 58  1  6  0  0  0
 57 59  1  0  0  0  0
 59 60  1  0  0  0  0
 61 60  1  6  0  0  0
 61 62  1  0  0  0  0
 62 63  1  0  0  0  0
 63 64  1  0  0  0  0
 64 65  1  0  0  0  0
 65 66  1  0  0  0  0
 66 61  1  0  0  0  0
 65 67  1  6  0  0  0
 67 68  1  0  0  0  0
 63 69  1  6  0  0  0
 64 70  1  1  0  0  0
 62 71  1  1  0  0  0
 57 72  1  1  0  0  0
M  END
>  <cdx:fragmentId>
5

$$$$
