115121.cdx
  Mrv1902 05222410272D          

 24 27  0  0  0  0            999 V2000
    7.9288   -9.7521    0.0000 C   0  0  2  0  0  0  0  0  0  0  0  0
    8.7134   -9.4972    0.0000 C   0  0  1  0  0  0  0  0  0  0  0  0
    9.1983  -10.1646    0.0000 C   0  0  0  0  0  0  0  0  0  0  0  0
    8.7134  -10.8320    0.0000 C   0  0  2  0  0  0  0  0  0  0  0  0
    7.9288  -10.5771    0.0000 C   0  0  2  0  0  0  0  0  0  0  0  0
    7.2143  -10.9896    0.0000 C   0  0  2  0  0  0  0  0  0  0  0  0
    6.4998  -10.5771    0.0000 C   0  0  1  0  0  0  0  0  0  0  0  0
    6.4998   -9.7521    0.0000 C   0  0  2  0  0  0  0  0  0  0  0  0
    6.5156   -8.9479    0.0000 O   0  0  0  0  0  0  0  0  0  0  0  0
    7.2147   -8.5500    0.0000 C   0  0  0  0  0  0  0  0  0  0  0  0
    7.9138   -8.9479    0.0000 C   0  0  2  0  0  0  0  0  0  0  0  0
    7.2143   -9.3396    0.0000 C   0  0  0  0  0  0  0  0  0  0  0  0
    7.2143  -12.1563    0.0000 O   0  0  0  0  0  0  0  0  0  0  0  0
    6.6309  -11.5730    0.0000 C   0  0  0  0  0  0  0  0  0  0  0  0
    7.7977  -11.5730    0.0000 C   0  0  0  0  0  0  0  0  0  0  0  0
    5.8185  -11.7162    0.0000 O   0  0  0  0  0  0  0  0  0  0  0  0
    7.2147   -7.7250    0.0000 O   0  0  0  0  0  0  0  0  0  0  0  0
    5.6748  -10.5771    0.0000 C   0  0  0  0  0  0  0  0  0  0  0  0
    9.1007   -8.7687    0.0000 C   0  0  0  0  0  0  0  0  0  0  0  0
    8.5458   -8.4176    0.0000 O   0  0  0  0  0  0  0  0  0  0  0  0
    6.0873  -11.2916    0.0000 O   0  0  0  0  0  0  0  0  0  0  0  0
    7.9934  -11.1925    0.0000 O   0  0  0  0  0  0  0  0  0  0  0  0
    8.9683  -11.6167    0.0000 O   0  0  0  0  0  0  0  0  0  0  0  0
    5.6748   -9.7521    0.0000 H   0  0  0  0  0  0  0  0  0  0  0  0
  1  2  1  0  0  0  0
  2  3  1  0  0  0  0
  3  4  1  0  0  0  0
  4  5  1  0  0  0  0
  5  6  1  0  0  0  0
  6  7  1  0  0  0  0
  7  8  1  0  0  0  0
  8  9  1  0  0  0  0
  9 10  1  0  0  0  0
 10 11  1  0  0  0  0
  1 11  1  0  0  0  0
  1 12  1  1  0  0  0
  8 12  1  1  0  0  0
  1  5  1  0  0  0  0
 13 14  1  0  0  0  0
 13 15  1  0  0  0  0
  6 14  1  1  0  0  0
  6 15  1  6  0  0  0
 14 16  2  0  0  0  0
 10 17  2  0  0  0  0
  7 18  1  6  0  0  0
  2 19  1  6  0  0  0
 11 20  1  6  0  0  0
  7 21  1  1  0  0  0
  5 22  1  1  0  0  0
  4 23  1  1  0  0  0
  8 24  1  0  0  0  0
M  END
>  <cdx:groupId>
2279

>  <cdx:fragmentId>
2207

$$$$
