115244.cdx
  Mrv1902 05222410282D          

 10 10  0  0  0  0            999 V2000
    7.3927   -7.4004    0.0000 N   0  3  0  0  0  0  0  0  0  0  0  0
    7.4789   -6.5799    0.0000 C   0  0  1  0  0  0  0  0  0  0  0  0
    6.7252   -6.2443    0.0000 C   0  0  0  0  0  0  0  0  0  0  0  0
    6.1732   -6.8574    0.0000 C   0  0  0  0  0  0  0  0  0  0  0  0
    6.5857   -7.5719    0.0000 C   0  0  0  0  0  0  0  0  0  0  0  0
    8.1934   -6.1674    0.0000 C   0  0  0  0  0  0  0  0  0  0  0  0
    8.1934   -5.3424    0.0000 O   0  0  0  0  0  0  0  0  0  0  0  0
    8.9079   -6.5799    0.0000 O   0  5  0  0  0  0  0  0  0  0  0  0
    8.1996   -7.5719    0.0000 C   0  0  0  0  0  0  0  0  0  0  0  0
    7.6476   -8.1850    0.0000 C   0  0  0  0  0  0  0  0  0  0  0  0
  1  2  1  0  0  0  0
  2  3  1  0  0  0  0
  3  4  1  0  0  0  0
  4  5  1  0  0  0  0
  1  5  1  0  0  0  0
  6  7  2  0  0  0  0
  6  8  1  0  0  0  0
  2  6  1  1  0  0  0
  1  9  1  0  0  0  0
  1 10  1  0  0  0  0
M  CHG  2   1   1   8  -1
M  END
>  <cdx:groupId>
32

>  <cdx:fragmentId>
5

$$$$
