11520.cdx
  Mrv1902 05222410262D          

 83 91  0  0  0  0            999 V2000
    5.4895  -10.9257    0.0000 C   0  0  0  0  0  0  0  0  0  0  0  0
    5.4895  -11.7507    0.0000 C   0  0  0  0  0  0  0  0  0  0  0  0
    6.2040  -12.1632    0.0000 C   0  0  1  0  0  0  0  0  0  0  0  0
    6.9185  -11.7507    0.0000 C   0  0  2  0  0  0  0  0  0  0  0  0
    6.9185  -10.9257    0.0000 C   0  0  1  0  0  0  0  0  0  0  0  0
    6.2040  -10.5132    0.0000 C   0  0  1  0  0  0  0  0  0  0  0  0
    7.6329  -10.5132    0.0000 C   0  0  0  0  0  0  0  0  0  0  0  0
    7.6329   -9.6882    0.0000 C   0  0  0  0  0  0  0  0  0  0  0  0
    6.9185   -9.2757    0.0000 C   0  0  2  0  0  0  0  0  0  0  0  0
    6.2040   -9.6882    0.0000 C   0  0  2  0  0  0  0  0  0  0  0  0
    6.9185   -8.4507    0.0000 C   0  0  1  0  0  0  0  0  0  0  0  0
    6.2040   -8.0382    0.0000 C   0  0  2  0  0  0  0  0  0  0  0  0
    5.4895   -8.4507    0.0000 C   0  0  0  0  0  0  0  0  0  0  0  0
    5.4895   -9.2757    0.0000 C   0  0  0  0  0  0  0  0  0  0  0  0
    7.6329   -8.0382    0.0000 C   0  0  0  0  0  0  0  0  0  0  0  0
    7.6329   -7.2132    0.0000 C   0  0  0  0  0  0  0  0  0  0  0  0
    6.9185   -6.8007    0.0000 C   0  0  1  0  0  0  0  0  0  0  0  0
    6.2040   -7.2132    0.0000 C   0  0  2  0  0  0  0  0  0  0  0  0
    4.7751  -12.9882    0.0000 O   0  0  0  0  0  0  0  0  0  0  0  0
    5.4895  -13.4007    0.0000 C   0  0  1  0  0  0  0  0  0  0  0  0
    6.2040  -12.9882    0.0000 O   0  0  0  0  0  0  0  0  0  0  0  0
    4.0606  -13.4007    0.0000 C   0  0  1  0  0  0  0  0  0  0  0  0
    4.0606  -14.2257    0.0000 C   0  0  2  0  0  0  0  0  0  0  0  0
    4.7751  -14.6382    0.0000 C   0  0  1  0  0  0  0  0  0  0  0  0
    5.4895  -14.2257    0.0000 C   0  0  1  0  0  0  0  0  0  0  0  0
    4.7751  -15.4632    0.0000 O   0  0  0  0  0  0  0  0  0  0  0  0
    5.4895  -15.8757    0.0000 O   0  0  0  0  0  0  0  0  0  0  0  0
    6.2040  -15.4632    0.0000 C   0  0  1  0  0  0  0  0  0  0  0  0
    6.2040  -14.6382    0.0000 O   0  0  0  0  0  0  0  0  0  0  0  0
    5.4895  -16.7007    0.0000 C   0  0  1  0  0  0  0  0  0  0  0  0
    6.2040  -17.1132    0.0000 C   0  0  2  0  0  0  0  0  0  0  0  0
    6.9185  -16.7007    0.0000 C   0  0  1  0  0  0  0  0  0  0  0  0
    6.9185  -15.8757    0.0000 C   0  0  1  0  0  0  0  0  0  0  0  0
    7.7435  -11.7507    0.0000 C   0  0  0  0  0  0  0  0  0  0  0  0
    3.3461  -12.9882    0.0000 C   0  0  0  0  0  0  0  0  0  0  0  0
    2.6316  -13.4007    0.0000 O   0  0  0  0  0  0  0  0  0  0  0  0
    5.4895   -6.8007    0.0000 O   0  0  0  0  0  0  0  0  0  0  0  0
    5.8195   -7.8114    0.0000 H   0  0  0  0  0  0  0  0  0  0  0  0
    7.7435   -9.2757    0.0000 C   0  0  0  0  0  0  0  0  0  0  0  0
    5.4895  -10.1007    0.0000 C   0  0  0  0  0  0  0  0  0  0  0  0
    7.3310  -12.4652    0.0000 C   0  0  0  0  0  0  0  0  0  0  0  0
    7.6329  -17.1132    0.0000 O   0  0  0  0  0  0  0  0  0  0  0  0
    3.3461  -14.6382    0.0000 O   0  0  0  0  0  0  0  0  0  0  0  0
    7.6329  -15.4632    0.0000 O   0  0  0  0  0  0  0  0  0  0  0  0
    6.2040  -17.9382    0.0000 O   0  0  0  0  0  0  0  0  0  0  0  0
    7.7435   -8.4507    0.0000 C   0  0  0  0  0  0  0  0  0  0  0  0
    6.5678   -9.8945    0.0000 H   0  0  0  0  0  0  0  0  0  0  0  0
    7.3029  -11.1526    0.0000 H   0  0  0  0  0  0  0  0  0  0  0  0
    8.1560  -12.4652    0.0000 O   0  0  0  0  0  0  0  0  0  0  0  0
    7.6329   -6.3882    0.0000 C   0  0  0  0  0  0  0  0  0  0  0  0
    7.6329   -5.5632    0.0000 O   0  0  0  0  0  0  0  0  0  0  0  0
    6.9185   -5.1507    0.0000 C   0  0  1  0  0  0  0  0  0  0  0  0
    6.2040   -5.5632    0.0000 C   0  0  0  0  0  0  0  0  0  0  0  0
    6.2040   -6.3882    0.0000 C   0  0  0  0  0  0  0  0  0  0  0  0
    7.6329   -3.9132    0.0000 C   0  0  0  0  0  0  0  0  0  0  0  0
    6.9185   -4.3257    0.0000 C   0  0  2  0  0  0  0  0  0  0  0  0
    9.0619   -3.9132    0.0000 O   0  0  0  0  0  0  0  0  0  0  0  0
    9.0619   -3.0882    0.0000 C   0  0  1  0  0  0  0  0  0  0  0  0
    8.3474   -2.6757    0.0000 C   0  0  2  0  0  0  0  0  0  0  0  0
    7.6329   -3.0882    0.0000 O   0  0  0  0  0  0  0  0  0  0  0  0
    9.7764   -2.6757    0.0000 C   0  0  2  0  0  0  0  0  0  0  0  0
    9.7764   -1.8507    0.0000 C   0  0  1  0  0  0  0  0  0  0  0  0
    9.0619   -1.4382    0.0000 C   0  0  2  0  0  0  0  0  0  0  0  0
    8.3474   -1.8507    0.0000 O   0  0  0  0  0  0  0  0  0  0  0  0
    9.0619   -0.6132    0.0000 C   0  0  0  0  0  0  0  0  0  0  0  0
    7.3029   -4.9239    0.0000 H   0  0  0  0  0  0  0  0  0  0  0  0
   10.4908   -3.0882    0.0000 O   0  0  0  0  0  0  0  0  0  0  0  0
   10.4908   -1.4382    0.0000 O   0  0  0  0  0  0  0  0  0  0  0  0
    6.2040   -3.9132    0.0000 C   0  0  0  0  0  0  0  0  0  0  0  0
    8.3474   -0.2007    0.0000 O   0  0  0  0  0  0  0  0  0  0  0  0
    4.7751  -17.1132    0.0000 C   0  0  0  0  0  0  0  0  0  0  0  0
    4.0606  -16.7007    0.0000 O   0  0  0  0  0  0  0  0  0  0  0  0
    8.9810  -12.4652    0.0000 C   0  0  2  0  0  0  0  0  0  0  0  0
    9.3935  -13.1797    0.0000 O   0  0  0  0  0  0  0  0  0  0  0  0
   10.2185  -13.1797    0.0000 C   0  0  1  0  0  0  0  0  0  0  0  0
   10.6310  -12.4652    0.0000 C   0  0  2  0  0  0  0  0  0  0  0  0
   10.2185  -11.7507    0.0000 C   0  0  1  0  0  0  0  0  0  0  0  0
    9.3935  -11.7507    0.0000 C   0  0  1  0  0  0  0  0  0  0  0  0
   10.6310  -11.0363    0.0000 O   0  0  0  0  0  0  0  0  0  0  0  0
   10.6310  -13.8942    0.0000 C   0  0  0  0  0  0  0  0  0  0  0  0
    8.9810  -11.0363    0.0000 O   0  0  0  0  0  0  0  0  0  0  0  0
   11.4560  -12.4652    0.0000 O   0  0  0  0  0  0  0  0  0  0  0  0
   11.4560  -13.8942    0.0000 O   0  0  0  0  0  0  0  0  0  0  0  0
  1  2  1  0  0  0  0
  2  3  1  0  0  0  0
  3  4  1  0  0  0  0
  4  5  1  0  0  0  0
  5  6  1  0  0  0  0
  6  1  1  0  0  0  0
  5  7  1  0  0  0  0
  7  8  1  0  0  0  0
  8  9  1  0  0  0  0
  9 10  1  0  0  0  0
 10  6  1  0  0  0  0
  9 11  1  0  0  0  0
 11 12  1  0  0  0  0
 12 13  1  0  0  0  0
 13 14  1  0  0  0  0
 14 10  1  0  0  0  0
 11 15  1  0  0  0  0
 15 16  1  0  0  0  0
 17 16  1  6  0  0  0
 17 18  1  0  0  0  0
 18 12  1  0  0  0  0
 19 20  1  0  0  0  0
 20 21  1  1  0  0  0
  3 21  1  1  0  0  0
 19 22  1  0  0  0  0
 22 23  1  0  0  0  0
 23 24  1  0  0  0  0
 24 25  1  0  0  0  0
 25 20  1  0  0  0  0
 24 26  1  1  0  0  0
 27 28  1  0  0  0  0
 28 29  1  1  0  0  0
 25 29  1  6  0  0  0
 27 30  1  0  0  0  0
 30 31  1  0  0  0  0
 31 32  1  0  0  0  0
 32 33  1  0  0  0  0
 33 28  1  0  0  0  0
  4 34  1  0  0  0  0
 22 35  1  1  0  0  0
 35 36  1  0  0  0  0
 18 37  1  1  0  0  0
 12 38  1  1  0  0  0
  9 39  1  1  0  0  0
  6 40  1  1  0  0  0
  4 41  1  1  0  0  0
 32 42  1  1  0  0  0
 23 43  1  6  0  0  0
 33 44  1  6  0  0  0
 31 45  1  6  0  0  0
 11 46  1  6  0  0  0
 10 47  1  6  0  0  0
  5 48  1  6  0  0  0
 34 49  1  0  0  0  0
 17 50  1  0  0  0  0
 50 51  1  0  0  0  0
 51 52  1  0  0  0  0
 52 53  1  0  0  0  0
 53 54  1  0  0  0  0
 54 17  1  0  0  0  0
 55 56  1  0  0  0  0
 56 52  1  0  0  0  0
 58 57  1  1  0  0  0
 58 59  1  0  0  0  0
 59 60  1  6  0  0  0
 60 55  1  0  0  0  0
 58 61  1  0  0  0  0
 61 62  1  0  0  0  0
 62 63  1  0  0  0  0
 63 64  1  0  0  0  0
 64 59  1  0  0  0  0
 63 65  1  6  0  0  0
 52 66  1  6  0  0  0
 61 67  1  6  0  0  0
 62 68  1  1  0  0  0
 56 69  1  1  0  0  0
 65 70  1  0  0  0  0
 30 71  1  1  0  0  0
 71 72  1  0  0  0  0
 73 49  1  1  0  0  0
 73 74  1  0  0  0  0
 74 75  1  0  0  0  0
 75 76  1  0  0  0  0
 76 77  1  0  0  0  0
 77 78  1  0  0  0  0
 78 73  1  0  0  0  0
 77 79  1  1  0  0  0
 75 80  1  1  0  0  0
 78 81  1  6  0  0  0
 76 82  1  6  0  0  0
 80 83  1  0  0  0  0
M  END
>  <cdx:fragmentId>
5

$$$$
