115269.cdx
  Mrv1902 05222410262D          

 22 25  0  0  0  0            999 V2000
    4.8017   -4.1398    0.0000 C   0  0  1  0  0  0  0  0  0  0  0  0
    4.0872   -4.5523    0.0000 C   0  0  1  0  0  0  0  0  0  0  0  0
    3.3728   -4.1398    0.0000 C   0  0  0  0  0  0  0  0  0  0  0  0
    2.6583   -4.5523    0.0000 C   0  0  0  0  0  0  0  0  0  0  0  0
    2.6583   -5.3773    0.0000 C   0  0  0  0  0  0  0  0  0  0  0  0
    3.3728   -5.7898    0.0000 C   0  0  0  0  0  0  0  0  0  0  0  0
    4.0872   -5.3773    0.0000 N   0  0  0  0  0  0  0  0  0  0  0  0
    4.8017   -5.7898    0.0000 C   0  0  0  0  0  0  0  0  0  0  0  0
    5.5162   -5.3773    0.0000 C   0  0  2  0  0  0  0  0  0  0  0  0
    6.2301   -5.7907    0.0000 C   0  0  0  0  0  0  0  0  0  0  0  0
    6.9444   -5.3780    0.0000 C   0  0  0  0  0  0  0  0  0  0  0  0
    6.9447   -4.5530    0.0000 C   0  0  0  0  0  0  0  0  0  0  0  0
    6.2306   -4.1398    0.0000 N   0  0  0  0  0  0  0  0  0  0  0  0
    6.2306   -3.3148    0.0000 C   0  0  0  0  0  0  0  0  0  0  0  0
    5.5162   -2.9023    0.0000 C   0  0  0  0  0  0  0  0  0  0  0  0
    4.8017   -3.3148    0.0000 C   0  0  0  0  0  0  0  0  0  0  0  0
    5.5162   -4.5523    0.0000 C   0  0  2  0  0  0  0  0  0  0  0  0
    3.3728   -6.6148    0.0000 O   0  0  0  0  0  0  0  0  0  0  0  0
    4.8017   -4.9648    0.0000 H   0  0  0  0  0  0  0  0  0  0  0  0
    4.0872   -3.7273    0.0000 H   0  0  0  0  0  0  0  0  0  0  0  0
    5.5162   -6.2023    0.0000 H   0  0  0  0  0  0  0  0  0  0  0  0
    5.5162   -3.7273    0.0000 H   0  0  0  0  0  0  0  0  0  0  0  0
  1  2  1  0  0  0  0
  2  3  1  0  0  0  0
  3  4  1  0  0  0  0
  4  5  2  0  0  0  0
  5  6  1  0  0  0  0
  6  7  1  0  0  0  0
  7  8  1  0  0  0  0
  8  9  1  0  0  0  0
  9 10  1  0  0  0  0
 10 11  1  0  0  0  0
 11 12  1  0  0  0  0
 12 13  1  0  0  0  0
 13 14  1  0  0  0  0
 14 15  1  0  0  0  0
 15 16  1  0  0  0  0
  1 16  1  0  0  0  0
  1 17  1  0  0  0  0
 17  9  1  0  0  0  0
  2  7  1  0  0  0  0
 13 17  1  0  0  0  0
  6 18  2  0  0  0  0
  1 19  1  6  0  0  0
  2 20  1  1  0  0  0
  9 21  1  6  0  0  0
 17 22  1  6  0  0  0
M  END
>  <cdx:groupId>
71

>  <cdx:fragmentId>
5

$$$$
