11527.cdx
  Mrv1902 05222410282D          

  9  8  0  0  0  0            999 V2000
    9.3578   -3.3479    0.0000 C   0  0  0  0  0  0  0  0  0  0  0  0
    8.6433   -3.7604    0.0000 C   0  0  0  0  0  0  0  0  0  0  0  0
    7.9288   -3.3479    0.0000 C   0  0  0  0  0  0  0  0  0  0  0  0
    7.2144   -3.7604    0.0000 C   0  0  0  0  0  0  0  0  0  0  0  0
    6.4999   -3.3479    0.0000 C   0  0  0  0  0  0  0  0  0  0  0  0
    5.7854   -3.7604    0.0000 C   0  0  0  0  0  0  0  0  0  0  0  0
    5.0709   -3.3479    0.0000 C   0  0  0  0  0  0  0  0  0  0  0  0
    4.3565   -3.7604    0.0000 C   0  0  0  0  0  0  0  0  0  0  0  0
    7.9288   -2.5229    0.0000 O   0  0  0  0  0  0  0  0  0  0  0  0
  1  2  1  0  0  0  0
  2  3  1  0  0  0  0
  3  4  1  0  0  0  0
  4  5  1  0  0  0  0
  5  6  1  0  0  0  0
  6  7  1  0  0  0  0
  7  8  1  0  0  0  0
  3  9  1  0  0  0  0
M  END
>  <cdx:fragmentId>
5

$$$$
