115252.cdx
  Mrv1902 05222410272D          

 34 36  0  0  0  0            999 V2000
    7.1120   -3.0777    0.0000 N   0  0  0  0  0  0  0  0  0  0  0  0
    6.5600   -2.4646    0.0000 C   0  0  0  0  0  0  0  0  0  0  0  0
    6.8149   -1.6800    0.0000 C   0  0  1  0  0  0  0  0  0  0  0  0
    7.6219   -1.5085    0.0000 N   0  0  0  0  0  0  0  0  0  0  0  0
    8.1739   -2.1216    0.0000 C   0  0  0  0  0  0  0  0  0  0  0  0
    7.9190   -2.9062    0.0000 C   0  0  0  0  0  0  0  0  0  0  0  0
    5.7530   -2.6362    0.0000 O   0  0  0  0  0  0  0  0  0  0  0  0
    8.9809   -1.9501    0.0000 O   0  0  0  0  0  0  0  0  0  0  0  0
    8.4710   -3.5193    0.0000 C   0  0  0  0  0  0  0  0  0  0  0  0
    8.2161   -5.6388    0.0000 N   0  0  0  0  0  0  0  0  0  0  0  0
    8.7010   -4.9714    0.0000 C   0  0  0  0  0  0  0  0  0  0  0  0
    8.2161   -4.3039    0.0000 C   0  0  0  0  0  0  0  0  0  0  0  0
    7.4315   -4.5589    0.0000 C   0  0  0  0  0  0  0  0  0  0  0  0
    6.7170   -4.1464    0.0000 C   0  0  0  0  0  0  0  0  0  0  0  0
    6.0025   -4.5589    0.0000 C   0  0  0  0  0  0  0  0  0  0  0  0
    6.0025   -5.3839    0.0000 C   0  0  0  0  0  0  0  0  0  0  0  0
    6.7170   -5.7964    0.0000 C   0  0  0  0  0  0  0  0  0  0  0  0
    7.4315   -5.3839    0.0000 C   0  0  0  0  0  0  0  0  0  0  0  0
    6.7170   -6.6214    0.0000 C   0  0  0  0  0  0  0  0  0  0  0  0
    6.0025   -7.0339    0.0000 C   0  0  0  0  0  0  0  0  0  0  0  0
    6.0025   -7.8589    0.0000 C   0  0  0  0  0  0  0  0  0  0  0  0
    6.7170   -8.2714    0.0000 C   0  0  0  0  0  0  0  0  0  0  0  0
    5.2880   -8.2714    0.0000 C   0  0  0  0  0  0  0  0  0  0  0  0
    5.2880   -4.1464    0.0000 C   0  0  0  0  0  0  0  0  0  0  0  0
    4.5736   -4.5589    0.0000 C   0  0  0  0  0  0  0  0  0  0  0  0
    3.8591   -4.1464    0.0000 C   0  0  0  0  0  0  0  0  0  0  0  0
    3.8591   -3.3214    0.0000 C   0  0  0  0  0  0  0  0  0  0  0  0
    3.1446   -4.5589    0.0000 C   0  0  0  0  0  0  0  0  0  0  0  0
   10.2405   -4.5589    0.0000 C   0  0  0  0  0  0  0  0  0  0  0  0
    9.5260   -4.9714    0.0000 C   0  0  0  0  0  0  0  0  0  0  0  0
    9.9385   -5.6858    0.0000 C   0  0  0  0  0  0  0  0  0  0  0  0
   10.7635   -5.6858    0.0000 C   0  0  0  0  0  0  0  0  0  0  0  0
    9.5260   -4.1464    0.0000 C   0  0  0  0  0  0  0  0  0  0  0  0
    6.2629   -1.0669    0.0000 C   0  0  0  0  0  0  0  0  0  0  0  0
  1  2  1  0  0  0  0
  2  3  1  0  0  0  0
  3  4  1  0  0  0  0
  4  5  1  0  0  0  0
  5  6  1  0  0  0  0
  1  6  1  0  0  0  0
  2  7  2  0  0  0  0
  5  8  2  0  0  0  0
 10 11  1  0  0  0  0
 11 12  2  0  0  0  0
 12 13  1  0  0  0  0
 13 14  1  0  0  0  0
 14 15  2  0  0  0  0
 15 16  1  0  0  0  0
 16 17  2  0  0  0  0
 17 18  1  0  0  0  0
 10 18  1  0  0  0  0
 13 18  2  0  0  0  0
 19 20  1  0  0  0  0
 20 21  2  0  0  0  0
 21 22  1  0  0  0  0
 21 23  1  0  0  0  0
 17 19  1  0  0  0  0
 24 25  1  0  0  0  0
 25 26  2  0  0  0  0
 26 27  1  0  0  0  0
 26 28  1  0  0  0  0
 15 24  1  0  0  0  0
 29 30  1  0  0  0  0
 30 31  1  0  0  0  0
 31 32  2  0  0  0  0
 30 33  1  0  0  0  0
 11 30  1  0  0  0  0
  9 12  1  0  0  0  0
  6  9  1  0  0  0  0
  3 34  1  6  0  0  0
M  END
>  <cdx:fragmentId>
23

$$$$
