115250.cdx
  Mrv1902 05222410282D          

 35 39  0  0  0  0            999 V2000
    5.5418   -7.7986    0.0000 C   0  0  0  0  0  0  0  0  0  0  0  0
    4.8273   -8.2111    0.0000 C   0  0  0  0  0  0  0  0  0  0  0  0
    4.8273   -9.0361    0.0000 C   0  0  1  0  0  0  0  0  0  0  0  0
    5.5418   -9.4486    0.0000 C   0  0  0  0  0  0  0  0  0  0  0  0
    6.2562   -9.0361    0.0000 C   0  0  2  0  0  0  0  0  0  0  0  0
    6.9707   -9.4486    0.0000 C   0  0  0  0  0  0  0  0  0  0  0  0
    7.6852   -9.0361    0.0000 C   0  0  0  0  0  0  0  0  0  0  0  0
    7.6852   -8.2111    0.0000 C   0  0  1  0  0  0  0  0  0  0  0  0
    8.3997   -7.7986    0.0000 C   0  0  2  0  0  0  0  0  0  0  0  0
    9.1141   -8.2111    0.0000 C   0  0  0  0  0  0  0  0  0  0  0  0
    9.8286   -7.7986    0.0000 C   0  0  0  0  0  0  0  0  0  0  0  0
    9.8286   -6.9736    0.0000 C   0  0  1  0  0  0  0  0  0  0  0  0
   10.5431   -6.5611    0.0000 C   0  0  0  0  0  0  0  0  0  0  0  0
   10.5431   -5.7361    0.0000 C   0  0  0  0  0  0  0  0  0  0  0  0
    9.8286   -5.3236    0.0000 C   0  0  0  0  0  0  0  0  0  0  0  0
    9.1141   -5.7361    0.0000 C   0  0  2  0  0  0  0  0  0  0  0  0
    9.1141   -6.5611    0.0000 C   0  0  2  0  0  0  0  0  0  0  0  0
    8.3997   -6.9736    0.0000 C   0  0  1  0  0  0  0  0  0  0  0  0
    7.6852   -6.5611    0.0000 C   0  0  0  0  0  0  0  0  0  0  0  0
    6.9707   -6.9736    0.0000 C   0  0  0  0  0  0  0  0  0  0  0  0
    6.9707   -7.7986    0.0000 C   0  0  2  0  0  0  0  0  0  0  0  0
    6.2562   -8.2111    0.0000 C   0  0  1  0  0  0  0  0  0  0  0  0
    4.1128   -9.4486    0.0000 O   0  0  0  0  0  0  0  0  0  0  0  0
    9.8286   -4.4986    0.0000 C   0  0  0  0  0  0  0  0  0  0  0  0
    6.2562   -7.3861    0.0000 C   0  0  0  0  0  0  0  0  0  0  0  0
    8.3997   -5.3236    0.0000 C   0  0  0  0  0  0  0  0  0  0  0  0
   10.5431   -7.3861    0.0000 C   0  0  0  0  0  0  0  0  0  0  0  0
    8.3997   -8.6236    0.0000 C   0  0  0  0  0  0  0  0  0  0  0  0
    7.6852   -7.3861    0.0000 C   0  0  0  0  0  0  0  0  0  0  0  0
    5.9543  -10.1630    0.0000 C   0  0  0  0  0  0  0  0  0  0  0  0
    5.1293  -10.1630    0.0000 C   0  0  0  0  0  0  0  0  0  0  0  0
    6.2562   -9.8611    0.0000 H   0  0  0  0  0  0  0  0  0  0  0  0
    9.1141   -7.3861    0.0000 H   0  0  0  0  0  0  0  0  0  0  0  0
    6.9707   -8.6236    0.0000 H   0  0  0  0  0  0  0  0  0  0  0  0
    8.3997   -6.1486    0.0000 H   0  0  0  0  0  0  0  0  0  0  0  0
  1  2  1  0  0  0  0
  2  3  1  0  0  0  0
  3  4  1  0  0  0  0
  4  5  1  0  0  0  0
  5  6  1  0  0  0  0
  6  7  1  0  0  0  0
  7  8  1  0  0  0  0
  8  9  1  0  0  0  0
  9 10  1  0  0  0  0
 10 11  1  0  0  0  0
 11 12  1  0  0  0  0
 12 13  1  0  0  0  0
 13 14  1  0  0  0  0
 14 15  1  0  0  0  0
 15 16  1  0  0  0  0
 16 17  1  0  0  0  0
 12 17  1  0  0  0  0
 17 18  1  0  0  0  0
  9 18  1  0  0  0  0
 18 19  1  0  0  0  0
 19 20  1  0  0  0  0
 20 21  1  0  0  0  0
  8 21  1  0  0  0  0
 21 22  1  0  0  0  0
  5 22  1  0  0  0  0
  1 22  1  0  0  0  0
  3 23  1  1  0  0  0
 15 24  2  0  0  0  0
 22 25  1  1  0  0  0
 16 26  1  6  0  0  0
 12 27  1  1  0  0  0
  9 28  1  6  0  0  0
  8 29  1  1  0  0  0
  4 30  1  0  0  0  0
  4 31  1  0  0  0  0
  5 32  1  6  0  0  0
 17 33  1  6  0  0  0
 21 34  1  6  0  0  0
 18 35  1  1  0  0  0
M  END
>  <cdx:groupId>
1755

>  <cdx:fragmentId>
1652

$$$$
