11522.cdx
  Mrv1902 05222410262D          

 81 89  0  0  0  0            999 V2000
    5.3717  -10.1269    0.0000 C   0  0  0  0  0  0  0  0  0  0  0  0
    5.3717  -10.7869    0.0000 C   0  0  0  0  0  0  0  0  0  0  0  0
    5.9433  -11.1169    0.0000 C   0  0  1  0  0  0  0  0  0  0  0  0
    6.5149  -10.7869    0.0000 C   0  0  2  0  0  0  0  0  0  0  0  0
    6.5149  -10.1269    0.0000 C   0  0  1  0  0  0  0  0  0  0  0  0
    5.9433   -9.7969    0.0000 C   0  0  1  0  0  0  0  0  0  0  0  0
    7.0864   -9.7969    0.0000 C   0  0  0  0  0  0  0  0  0  0  0  0
    7.0864   -9.1369    0.0000 C   0  0  0  0  0  0  0  0  0  0  0  0
    6.5149   -8.8069    0.0000 C   0  0  2  0  0  0  0  0  0  0  0  0
    5.9433   -9.1369    0.0000 C   0  0  2  0  0  0  0  0  0  0  0  0
    6.5149   -8.1469    0.0000 C   0  0  1  0  0  0  0  0  0  0  0  0
    5.9433   -7.8169    0.0000 C   0  0  2  0  0  0  0  0  0  0  0  0
    5.3717   -8.1469    0.0000 C   0  0  0  0  0  0  0  0  0  0  0  0
    5.3717   -8.8069    0.0000 C   0  0  0  0  0  0  0  0  0  0  0  0
    7.0864   -7.8169    0.0000 C   0  0  0  0  0  0  0  0  0  0  0  0
    7.0864   -7.1569    0.0000 C   0  0  0  0  0  0  0  0  0  0  0  0
    6.5149   -6.8269    0.0000 C   0  0  1  0  0  0  0  0  0  0  0  0
    5.9433   -7.1569    0.0000 C   0  0  2  0  0  0  0  0  0  0  0  0
    7.0864   -6.4969    0.0000 C   0  0  0  0  0  0  0  0  0  0  0  0
    7.0864   -5.8369    0.0000 O   0  0  0  0  0  0  0  0  0  0  0  0
    6.5149   -5.5069    0.0000 C   0  0  1  0  0  0  0  0  0  0  0  0
    5.9433   -5.8369    0.0000 C   0  0  0  0  0  0  0  0  0  0  0  0
    5.9433   -6.4969    0.0000 C   0  0  0  0  0  0  0  0  0  0  0  0
    7.0864   -4.5169    0.0000 C   0  0  0  0  0  0  0  0  0  0  0  0
    6.5149   -4.8469    0.0000 C   0  0  2  0  0  0  0  0  0  0  0  0
    7.0864   -3.8569    0.0000 O   0  0  0  0  0  0  0  0  0  0  0  0
    5.9433   -4.5169    0.0000 C   0  0  0  0  0  0  0  0  0  0  0  0
    8.2296   -4.5169    0.0000 O   0  0  0  0  0  0  0  0  0  0  0  0
    8.2296   -3.8569    0.0000 C   0  0  1  0  0  0  0  0  0  0  0  0
    7.6580   -3.5269    0.0000 C   0  0  1  0  0  0  0  0  0  0  0  0
    8.8012   -3.5269    0.0000 C   0  0  2  0  0  0  0  0  0  0  0  0
    8.8012   -2.8669    0.0000 C   0  0  1  0  0  0  0  0  0  0  0  0
    8.2296   -2.5369    0.0000 C   0  0  2  0  0  0  0  0  0  0  0  0
    7.6580   -2.8669    0.0000 O   0  0  0  0  0  0  0  0  0  0  0  0
    4.8001  -11.7769    0.0000 O   0  0  0  0  0  0  0  0  0  0  0  0
    5.3717  -12.1069    0.0000 C   0  0  1  0  0  0  0  0  0  0  0  0
    5.9433  -11.7769    0.0000 O   0  0  0  0  0  0  0  0  0  0  0  0
    4.2285  -12.1069    0.0000 C   0  0  1  0  0  0  0  0  0  0  0  0
    4.2285  -12.7669    0.0000 C   0  0  2  0  0  0  0  0  0  0  0  0
    4.8001  -13.0969    0.0000 C   0  0  1  0  0  0  0  0  0  0  0  0
    5.3717  -12.7669    0.0000 C   0  0  1  0  0  0  0  0  0  0  0  0
    4.8001  -13.7569    0.0000 O   0  0  0  0  0  0  0  0  0  0  0  0
    5.3717  -14.0869    0.0000 C   0  0  0  0  0  0  0  0  0  0  0  0
    5.9433  -13.7569    0.0000 C   0  0  1  0  0  0  0  0  0  0  0  0
    5.9433  -13.0969    0.0000 O   0  0  0  0  0  0  0  0  0  0  0  0
    5.3717  -14.7469    0.0000 C   0  0  0  0  0  0  0  0  0  0  0  0
    5.9433  -15.0769    0.0000 C   0  0  2  0  0  0  0  0  0  0  0  0
    6.5149  -14.7469    0.0000 C   0  0  1  0  0  0  0  0  0  0  0  0
    6.5149  -14.0869    0.0000 C   0  0  1  0  0  0  0  0  0  0  0  0
    7.1749  -10.7869    0.0000 C   0  0  0  0  0  0  0  0  0  0  0  0
    7.6415  -11.2536    0.0000 O   0  0  0  0  0  0  0  0  0  0  0  0
    8.3015  -11.2536    0.0000 C   0  0  2  0  0  0  0  0  0  0  0  0
    8.6315  -11.8251    0.0000 O   0  0  0  0  0  0  0  0  0  0  0  0
    9.2915  -11.8251    0.0000 C   0  0  1  0  0  0  0  0  0  0  0  0
    9.6215  -11.2536    0.0000 C   0  0  2  0  0  0  0  0  0  0  0  0
    9.2915  -10.6820    0.0000 C   0  0  1  0  0  0  0  0  0  0  0  0
    8.6315  -10.6820    0.0000 C   0  0  1  0  0  0  0  0  0  0  0  0
    8.2296   -1.8769    0.0000 C   0  0  0  0  0  0  0  0  0  0  0  0
    7.6580   -1.5469    0.0000 O   0  0  0  0  0  0  0  0  0  0  0  0
    9.6215  -12.3967    0.0000 C   0  0  0  0  0  0  0  0  0  0  0  0
   10.2815  -12.3967    0.0000 O   0  0  0  0  0  0  0  0  0  0  0  0
    3.6570  -11.7769    0.0000 C   0  0  0  0  0  0  0  0  0  0  0  0
    3.0854  -12.1069    0.0000 O   0  0  0  0  0  0  0  0  0  0  0  0
    7.0864  -15.0769    0.0000 O   0  0  0  0  0  0  0  0  0  0  0  0
    6.8449  -11.3585    0.0000 C   0  0  0  0  0  0  0  0  0  0  0  0
    9.6215  -10.1104    0.0000 O   0  0  0  0  0  0  0  0  0  0  0  0
    5.3717   -9.4669    0.0000 C   0  0  0  0  0  0  0  0  0  0  0  0
    5.3717   -6.8269    0.0000 O   0  0  0  0  0  0  0  0  0  0  0  0
    5.7017   -7.6684    0.0000 H   0  0  0  0  0  0  0  0  0  0  0  0
    9.3727   -2.5369    0.0000 O   0  0  0  0  0  0  0  0  0  0  0  0
    9.3727   -3.8569    0.0000 O   0  0  0  0  0  0  0  0  0  0  0  0
    6.7564   -5.3584    0.0000 H   0  0  0  0  0  0  0  0  0  0  0  0
    7.1749   -8.1469    0.0000 C   0  0  0  0  0  0  0  0  0  0  0  0
    7.1749   -8.8069    0.0000 C   0  0  0  0  0  0  0  0  0  0  0  0
    6.2839   -9.3679    0.0000 H   0  0  0  0  0  0  0  0  0  0  0  0
    6.7894  -10.2919    0.0000 H   0  0  0  0  0  0  0  0  0  0  0  0
    8.3015  -10.1104    0.0000 O   0  0  0  0  0  0  0  0  0  0  0  0
   10.2815  -11.2536    0.0000 O   0  0  0  0  0  0  0  0  0  0  0  0
    3.6570  -13.0969    0.0000 O   0  0  0  0  0  0  0  0  0  0  0  0
    7.0864  -13.7569    0.0000 O   0  0  0  0  0  0  0  0  0  0  0  0
    5.9433  -15.7369    0.0000 O   0  0  0  0  0  0  0  0  0  0  0  0
  1  2  1  0  0  0  0
  2  3  1  0  0  0  0
  3  4  1  0  0  0  0
  4  5  1  0  0  0  0
  5  6  1  0  0  0  0
  6  1  1  0  0  0  0
  5  7  1  0  0  0  0
  7  8  1  0  0  0  0
  8  9  1  0  0  0  0
  9 10  1  0  0  0  0
 10  6  1  0  0  0  0
  9 11  1  0  0  0  0
 11 12  1  0  0  0  0
 12 13  1  0  0  0  0
 13 14  1  0  0  0  0
 14 10  1  0  0  0  0
 11 15  1  0  0  0  0
 15 16  1  0  0  0  0
 17 16  1  6  0  0  0
 17 18  1  0  0  0  0
 18 12  1  0  0  0  0
 17 19  1  0  0  0  0
 19 20  1  0  0  0  0
 20 21  1  0  0  0  0
 21 22  1  0  0  0  0
 22 23  1  0  0  0  0
 23 17  1  0  0  0  0
 24 25  1  0  0  0  0
 25 21  1  0  0  0  0
 24 26  1  0  0  0  0
 25 27  1  1  0  0  0
 29 28  1  1  0  0  0
 29 30  1  0  0  0  0
 30 26  1  6  0  0  0
 29 31  1  0  0  0  0
 31 32  1  0  0  0  0
 32 33  1  0  0  0  0
 33 34  1  0  0  0  0
 34 30  1  0  0  0  0
 35 36  1  0  0  0  0
 36 37  1  1  0  0  0
  3 37  1  1  0  0  0
 35 38  1  0  0  0  0
 38 39  1  0  0  0  0
 39 40  1  0  0  0  0
 40 41  1  0  0  0  0
 41 36  1  0  0  0  0
 40 42  1  1  0  0  0
 43 44  1  0  0  0  0
 44 45  1  1  0  0  0
 41 45  1  6  0  0  0
 43 46  1  0  0  0  0
 46 47  1  0  0  0  0
 47 48  1  0  0  0  0
 48 49  1  0  0  0  0
 49 44  1  0  0  0  0
  4 50  1  0  0  0  0
 50 51  1  0  0  0  0
 52 51  1  1  0  0  0
 52 53  1  0  0  0  0
 53 54  1  0  0  0  0
 54 55  1  0  0  0  0
 55 56  1  0  0  0  0
 56 57  1  0  0  0  0
 57 52  1  0  0  0  0
 33 58  1  6  0  0  0
 58 59  1  0  0  0  0
 54 60  1  1  0  0  0
 60 61  1  0  0  0  0
 38 62  1  1  0  0  0
 62 63  1  0  0  0  0
 48 64  1  1  0  0  0
  4 65  1  1  0  0  0
 56 66  1  1  0  0  0
  6 67  1  1  0  0  0
 18 68  1  1  0  0  0
 12 69  1  1  0  0  0
 32 70  1  1  0  0  0
 31 71  1  6  0  0  0
 21 72  1  6  0  0  0
 11 73  1  6  0  0  0
  9 74  1  1  0  0  0
 10 75  1  6  0  0  0
  5 76  1  6  0  0  0
 57 77  1  6  0  0  0
 55 78  1  6  0  0  0
 39 79  1  6  0  0  0
 49 80  1  6  0  0  0
 47 81  1  6  0  0  0
M  END
>  <cdx:fragmentId>
5

$$$$
