11529.cdx
  Mrv1902 05222410182D          

  9  8  0  0  0  0            999 V2000
    4.2660   -3.7408    0.0000 C   0  0  0  0  0  0  0  0  0  0  0  0
    3.5516   -4.1533    0.0000 C   0  0  0  0  0  0  0  0  0  0  0  0
    2.8371   -3.7408    0.0000 C   0  0  0  0  0  0  0  0  0  0  0  0
    4.2660   -2.9158    0.0000 O   0  0  0  0  0  0  0  0  0  0  0  0
    4.9805   -4.1533    0.0000 O   0  0  0  0  0  0  0  0  0  0  0  0
    5.6950   -3.7408    0.0000 C   0  0  0  0  0  0  0  0  0  0  0  0
    6.4095   -4.1533    0.0000 C   0  0  0  0  0  0  0  0  0  0  0  0
    7.1239   -3.7408    0.0000 C   0  0  0  0  0  0  0  0  0  0  0  0
    7.8384   -4.1533    0.0000 C   0  0  0  0  0  0  0  0  0  0  0  0
  1  2  1  0  0  0  0
  2  3  1  0  0  0  0
  1  4  2  0  0  0  0
  1  5  1  0  0  0  0
  6  7  1  0  0  0  0
  7  8  1  0  0  0  0
  8  9  1  0  0  0  0
  5  6  1  0  0  0  0
M  END
>  <cdx:groupId>
28

>  <cdx:fragmentId>
5

$$$$
