11526.cdx
  Mrv1902 05222410282D          

  8  8  0  0  0  0            999 V2000
    7.5303   -5.1613    0.0000 C   0  0  0  0  0  0  0  0  0  0  0  0
    7.5303   -5.9863    0.0000 C   0  0  0  0  0  0  0  0  0  0  0  0
    6.8159   -6.3988    0.0000 C   0  0  0  0  0  0  0  0  0  0  0  0
    6.1014   -5.9863    0.0000 C   0  0  0  0  0  0  0  0  0  0  0  0
    6.1014   -5.1613    0.0000 C   0  0  0  0  0  0  0  0  0  0  0  0
    6.8159   -4.7488    0.0000 N   0  0  0  0  0  0  0  0  0  0  0  0
    5.3869   -6.3988    0.0000 C   0  0  0  0  0  0  0  0  0  0  0  0
    8.2448   -4.7488    0.0000 C   0  0  0  0  0  0  0  0  0  0  0  0
  1  2  1  0  0  0  0
  2  3  2  0  0  0  0
  3  4  1  0  0  0  0
  4  5  2  0  0  0  0
  5  6  1  0  0  0  0
  1  6  2  0  0  0  0
  4  7  1  0  0  0  0
  1  8  1  0  0  0  0
M  END
>  <cdx:groupId>
26

>  <cdx:fragmentId>
5

$$$$
