115303.cdx
  Mrv1902 05222410192D          

 78 87  0  0  0  0            999 V2000
   15.0940  -11.5494    0.0000 C   0  0  1  0  0  0  0  0  0  0  0  0
   15.8084  -11.1369    0.0000 C   0  0  2  0  0  0  0  0  0  0  0  0
   16.5930  -11.3919    0.0000 C   0  0  0  0  0  0  0  0  0  0  0  0
   17.0780  -10.7244    0.0000 C   0  0  2  0  0  0  0  0  0  0  0  0
   17.8626  -10.4695    0.0000 O   0  0  0  0  0  0  0  0  0  0  0  0
   17.8626   -9.6445    0.0000 C   0  0  2  0  0  0  0  0  0  0  0  0
   17.0780   -9.3895    0.0000 C   0  0  2  0  0  0  0  0  0  0  0  0
   16.5930  -10.0570    0.0000 C   0  0  2  0  0  0  0  0  0  0  0  0
   15.8084  -10.3119    0.0000 C   0  0  1  0  0  0  0  0  0  0  0  0
   15.0940   -9.8994    0.0000 C   0  0  0  0  0  0  0  0  0  0  0  0
   14.3795  -10.3119    0.0000 C   0  0  0  0  0  0  0  0  0  0  0  0
   14.3795  -11.1369    0.0000 C   0  0  2  0  0  0  0  0  0  0  0  0
   13.6650  -11.5494    0.0000 C   0  0  1  0  0  0  0  0  0  0  0  0
   12.9505  -11.1369    0.0000 C   0  0  0  0  0  0  0  0  0  0  0  0
   12.2361  -11.5494    0.0000 C   0  0  0  0  0  0  0  0  0  0  0  0
   12.2361  -12.3744    0.0000 C   0  0  1  0  0  0  0  0  0  0  0  0
   12.9505  -12.7869    0.0000 C   0  0  0  0  0  0  0  0  0  0  0  0
   13.6650  -12.3744    0.0000 C   0  0  2  0  0  0  0  0  0  0  0  0
   14.3795  -12.7869    0.0000 C   0  0  0  0  0  0  0  0  0  0  0  0
   15.0940  -12.3744    0.0000 C   0  0  0  0  0  0  0  0  0  0  0  0
   17.7764   -8.8240    0.0000 O   0  0  0  0  0  0  0  0  0  0  0  0
   18.6163   -9.9800    0.0000 C   0  0  0  0  0  0  0  0  0  0  0  0
   19.2837   -9.4951    0.0000 C   0  0  0  0  0  0  0  0  0  0  0  0
   19.1975   -8.6746    0.0000 C   0  0  2  0  0  0  0  0  0  0  0  0
   18.4438   -8.3391    0.0000 C   0  0  0  0  0  0  0  0  0  0  0  0
   13.6650  -10.7244    0.0000 C   0  0  0  0  0  0  0  0  0  0  0  0
   15.8084   -9.4869    0.0000 C   0  0  0  0  0  0  0  0  0  0  0  0
   16.8230   -8.6049    0.0000 C   0  0  0  0  0  0  0  0  0  0  0  0
   19.8649   -8.1897    0.0000 C   0  0  0  0  0  0  0  0  0  0  0  0
   15.0940  -10.7244    0.0000 H   0  0  0  0  0  0  0  0  0  0  0  0
   15.8084  -11.9619    0.0000 H   0  0  0  0  0  0  0  0  0  0  0  0
   17.5629  -11.3919    0.0000 H   0  0  0  0  0  0  0  0  0  0  0  0
   16.2314   -9.3155    0.0000 H   0  0  0  0  0  0  0  0  0  0  0  0
   14.3795  -11.9619    0.0000 H   0  0  0  0  0  0  0  0  0  0  0  0
   13.6650  -13.1994    0.0000 H   0  0  0  0  0  0  0  0  0  0  0  0
    8.6639  -12.7580    0.0000 O   0  0  0  0  0  0  0  0  0  0  0  0
    8.6805  -11.1081    0.0000 O   0  0  0  0  0  0  0  0  0  0  0  0
   10.8322   -9.8851    0.0000 O   0  0  0  0  0  0  0  0  0  0  0  0
   10.1177  -10.2976    0.0000 C   0  0  0  0  0  0  0  0  0  0  0  0
   11.5216  -12.7869    0.0000 O   0  0  0  0  0  0  0  0  0  0  0  0
   10.1094  -11.1226    0.0000 C   0  0  2  0  0  0  0  0  0  0  0  0
    9.3908  -11.5278    0.0000 C   0  0  1  0  0  0  0  0  0  0  0  0
    9.3825  -12.3528    0.0000 C   0  0  1  0  0  0  0  0  0  0  0  0
   10.0927  -12.7725    0.0000 C   0  0  2  0  0  0  0  0  0  0  0  0
   10.8113  -12.3672    0.0000 C   0  0  1  0  0  0  0  0  0  0  0  0
   10.8197  -11.5423    0.0000 O   0  0  0  0  0  0  0  0  0  0  0  0
   10.0844  -13.5974    0.0000 O   0  0  0  0  0  0  0  0  0  0  0  0
    8.6889  -10.2832    0.0000 C   0  0  2  0  0  0  0  0  0  0  0  0
    9.4012   -9.8670    0.0000 O   0  0  0  0  0  0  0  0  0  0  0  0
    9.4012   -9.0420    0.0000 C   0  0  1  0  0  0  0  0  0  0  0  0
    8.6889   -8.6332    0.0000 C   0  0  2  0  0  0  0  0  0  0  0  0
    7.9766   -9.0420    0.0000 C   0  0  1  0  0  0  0  0  0  0  0  0
    7.9766   -9.8670    0.0000 C   0  0  1  0  0  0  0  0  0  0  0  0
   10.1151   -8.6285    0.0000 C   0  0  0  0  0  0  0  0  0  0  0  0
    7.2626   -8.6285    0.0000 O   0  0  0  0  0  0  0  0  0  0  0  0
    8.6889   -7.8082    0.0000 O   0  0  0  0  0  0  0  0  0  0  0  0
    7.2610  -10.2776    0.0000 O   0  0  0  0  0  0  0  0  0  0  0  0
   10.1141   -7.8035    0.0000 O   0  0  0  0  0  0  0  0  0  0  0  0
    6.4360  -10.2776    0.0000 C   0  0  2  0  0  0  0  0  0  0  0  0
    7.2637   -7.8035    0.0000 C   0  0  2  0  0  0  0  0  0  0  0  0
    7.9779   -7.3906    0.0000 O   0  0  0  0  0  0  0  0  0  0  0  0
    7.9779   -6.5656    0.0000 C   0  0  0  0  0  0  0  0  0  0  0  0
    7.2637   -6.1535    0.0000 C   0  0  2  0  0  0  0  0  0  0  0  0
    6.5495   -6.5656    0.0000 C   0  0  1  0  0  0  0  0  0  0  0  0
    6.5495   -7.3906    0.0000 C   0  0  1  0  0  0  0  0  0  0  0  0
    5.8351   -6.1530    0.0000 O   0  0  0  0  0  0  0  0  0  0  0  0
    7.2637   -5.3285    0.0000 O   0  0  0  0  0  0  0  0  0  0  0  0
    5.8349   -7.8028    0.0000 O   0  0  0  0  0  0  0  0  0  0  0  0
    6.0235   -9.5631    0.0000 O   0  0  0  0  0  0  0  0  0  0  0  0
    5.1985   -9.5631    0.0000 C   0  0  1  0  0  0  0  0  0  0  0  0
    4.7860  -10.2776    0.0000 C   0  0  1  0  0  0  0  0  0  0  0  0
    5.1985  -10.9921    0.0000 C   0  0  1  0  0  0  0  0  0  0  0  0
    6.0235  -10.9921    0.0000 C   0  0  1  0  0  0  0  0  0  0  0  0
    4.7860   -8.8487    0.0000 C   0  0  0  0  0  0  0  0  0  0  0  0
    4.7860  -11.7066    0.0000 O   0  0  0  0  0  0  0  0  0  0  0  0
    6.4360  -11.7066    0.0000 O   0  0  0  0  0  0  0  0  0  0  0  0
    3.9610  -10.2776    0.0000 O   0  0  0  0  0  0  0  0  0  0  0  0
    3.9610   -8.8487    0.0000 O   0  0  0  0  0  0  0  0  0  0  0  0
 44 47  1  6  0  0  0
 43 36  1  1  0  0  0
 42 37  1  1  0  0  0
 41 39  1  1  0  0  0
 39 38  1  0  0  0  0
 45 40  1  1  0  0  0
 46 41  1  0  0  0  0
 42 41  1  0  0  0  0
 43 42  1  0  0  0  0
 44 43  1  0  0  0  0
 45 44  1  0  0  0  0
 46 45  1  0  0  0  0
  1  2  1  0  0  0  0
  2  3  1  0  0  0  0
  3  4  1  0  0  0  0
  4  5  1  0  0  0  0
  6  5  1  6  0  0  0
  6  7  1  0  0  0  0
  7  8  1  0  0  0  0
  8  9  1  0  0  0  0
  9 10  1  0  0  0  0
 10 11  1  0  0  0  0
 11 12  1  0  0  0  0
 12 13  1  0  0  0  0
 13 14  1  0  0  0  0
 14 15  1  0  0  0  0
 15 16  1  0  0  0  0
 16 17  1  0  0  0  0
 17 18  1  0  0  0  0
 18 19  1  0  0  0  0
 19 20  1  0  0  0  0
  1 20  1  0  0  0  0
  1 12  1  0  0  0  0
 13 18  1  0  0  0  0
  2  9  1  0  0  0  0
  4  8  1  0  0  0  0
 22 23  1  0  0  0  0
 23 24  1  0  0  0  0
 24 25  1  0  0  0  0
 21 25  1  0  0  0  0
  6 21  1  0  0  0  0
  6 22  1  0  0  0  0
 13 26  1  1  0  0  0
  9 27  1  1  0  0  0
  7 28  1  6  0  0  0
 24 29  1  6  0  0  0
 16 40  1  1  0  0  0
  1 30  1  1  0  0  0
  2 31  1  6  0  0  0
  4 32  1  6  0  0  0
  8 33  1  6  0  0  0
 12 34  1  6  0  0  0
 18 35  1  6  0  0  0
 48 37  1  1  0  0  0
 48 49  1  0  0  0  0
 49 50  1  0  0  0  0
 50 51  1  0  0  0  0
 51 52  1  0  0  0  0
 52 53  1  0  0  0  0
 53 48  1  0  0  0  0
 50 54  1  1  0  0  0
 52 55  1  1  0  0  0
 51 56  1  6  0  0  0
 53 57  1  6  0  0  0
 54 58  1  0  0  0  0
 59 57  1  1  0  0  0
 60 55  1  1  0  0  0
 60 61  1  0  0  0  0
 61 62  1  0  0  0  0
 62 63  1  0  0  0  0
 63 64  1  0  0  0  0
 64 65  1  0  0  0  0
 65 60  1  0  0  0  0
 64 66  1  1  0  0  0
 63 67  1  6  0  0  0
 65 68  1  6  0  0  0
 59 69  1  0  0  0  0
 69 70  1  0  0  0  0
 70 71  1  0  0  0  0
 71 72  1  0  0  0  0
 72 73  1  0  0  0  0
 73 59  1  0  0  0  0
 70 74  1  1  0  0  0
 72 75  1  1  0  0  0
 73 76  1  6  0  0  0
 71 77  1  1  0  0  0
 74 78  1  0  0  0  0
M  END
>  <cdx:fragmentId>
198565

$$$$
