hydantoinpropionic acid.cdx
  Mrv1902 05222410192D          

 12 12  0  0  0  0            999 V2000
    2.6152   -7.3425    0.0000 O   0  0  0  0  0  0  0  0  0  0  0  0
    3.3297   -6.9300    0.0000 C   0  0  0  0  0  0  0  0  0  0  0  0
    4.0442   -7.3425    0.0000 C   0  0  0  0  0  0  0  0  0  0  0  0
    4.7587   -6.9300    0.0000 C   0  0  0  0  0  0  0  0  0  0  0  0
    5.4731   -7.3425    0.0000 C   0  0  0  0  0  0  0  0  0  0  0  0
    5.5594   -8.1630    0.0000 N   0  0  0  0  0  0  0  0  0  0  0  0
    6.3663   -8.3345    0.0000 C   0  0  0  0  0  0  0  0  0  0  0  0
    6.7788   -7.6200    0.0000 N   0  0  0  0  0  0  0  0  0  0  0  0
    6.2268   -7.0069    0.0000 C   0  0  0  0  0  0  0  0  0  0  0  0
    3.3297   -6.1050    0.0000 O   0  0  0  0  0  0  0  0  0  0  0  0
    6.2268   -6.1819    0.0000 O   0  0  0  0  0  0  0  0  0  0  0  0
    6.5799   -9.1314    0.0000 O   0  0  0  0  0  0  0  0  0  0  0  0
  1  2  1  0  0  0  0
  2  3  1  0  0  0  0
  3  4  1  0  0  0  0
  4  5  1  0  0  0  0
  5  6  1  0  0  0  0
  6  7  1  0  0  0  0
  7  8  1  0  0  0  0
  8  9  1  0  0  0  0
  9  5  1  0  0  0  0
  2 10  2  0  0  0  0
  9 11  2  0  0  0  0
  7 12  2  0  0  0  0
M  END
>  <cdx:fragmentId>
22

$$$$
