11531.cdx
  Mrv1902 05222410272D          

 16 17  0  0  0  0            999 V2000
    8.7916   -9.0747    0.0000 C   0  0  1  0  0  0  0  0  0  0  0  0
    8.7767   -8.2499    0.0000 C   0  0  2  0  0  0  0  0  0  0  0  0
    8.1829   -7.6771    0.0000 C   0  0  0  0  0  0  0  0  0  0  0  0
    7.3580   -7.6920    0.0000 C   0  0  0  0  0  0  0  0  0  0  0  0
    6.7853   -8.2858    0.0000 C   0  0  0  0  0  0  0  0  0  0  0  0
    6.8002   -9.1107    0.0000 C   0  0  0  0  0  0  0  0  0  0  0  0
    7.3940   -9.6834    0.0000 C   0  0  0  0  0  0  0  0  0  0  0  0
    8.2188   -9.6685    0.0000 C   0  0  0  0  0  0  0  0  0  0  0  0
    6.0073   -9.3386    0.0000 C   0  0  0  0  0  0  0  0  0  0  0  0
    5.9847   -8.0867    0.0000 C   0  0  0  0  0  0  0  0  0  0  0  0
    5.4135   -8.7658    0.0000 C   0  0  0  0  0  0  0  0  0  0  0  0
    5.8082  -10.1392    0.0000 C   0  0  0  0  0  0  0  0  0  0  0  0
    9.3854   -9.6475    0.0000 C   0  0  0  0  0  0  0  0  0  0  0  0
    7.3431   -6.8672    0.0000 C   0  0  0  0  0  0  0  0  0  0  0  0
    6.6362   -7.2925    0.0000 C   0  0  0  0  0  0  0  0  0  0  0  0
    9.4985   -8.6494    0.0000 O   0  0  0  0  0  0  0  0  0  0  0  0
  1  2  1  0  0  0  0
  2  3  1  0  0  0  0
  3  4  1  0  0  0  0
  4  5  1  0  0  0  0
  6  7  1  0  0  0  0
  7  8  1  0  0  0  0
  8  1  1  0  0  0  0
  6  9  2  0  0  0  0
  5 10  2  0  0  0  0
  9 11  1  0  0  0  0
 10 11  1  0  0  0  0
  9 12  1  0  0  0  0
  1 13  1  0  0  0  0
  4 14  1  0  0  0  0
  4 15  1  0  0  0  0
  2 16  1  6  0  0  0
  1 16  1  1  0  0  0
M  END
>  <cdx:fragmentId>
5

$$$$
