11543.cdx
  Mrv1902 05222410242D          

 11 12  0  0  0  0            999 V2000
    5.5699   -7.0627    0.0000 C   0  0  0  0  0  0  0  0  0  0  0  0
    6.3667   -6.8486    0.0000 C   0  0  0  0  0  0  0  0  0  0  0  0
    7.3971   -7.0902    0.0000 C   0  0  0  0  0  0  0  0  0  0  0  0
    7.8108   -6.3765    0.0000 C   0  0  0  0  0  0  0  0  0  0  0  0
    5.2548   -6.3765    0.0000 C   0  0  0  0  0  0  0  0  0  0  0  0
    6.7803   -6.1349    0.0000 C   0  0  0  0  0  0  0  0  0  0  0  0
    6.3681   -5.4212    0.0000 C   0  0  0  0  0  0  0  0  0  0  0  0
    5.7835   -7.8596    0.0000 C   0  0  0  0  0  0  0  0  0  0  0  0
    4.8555   -7.4752    0.0000 O   0  0  0  0  0  0  0  0  0  0  0  0
    4.4580   -6.5900    0.0000 C   0  0  0  0  0  0  0  0  0  0  0  0
    4.8423   -5.6620    0.0000 C   0  0  0  0  0  0  0  0  0  0  0  0
  1  2  1  0  0  0  0
  2  3  1  0  0  0  0
  3  4  1  0  0  0  0
  1  5  1  0  0  0  0
  5  6  1  0  0  0  0
  4  6  1  0  0  0  0
  6  7  1  0  0  0  0
  2  7  1  0  0  0  0
  1  8  1  0  0  0  0
  1  9  1  0  0  0  0
  5 10  1  0  0  0  0
  5 11  1  0  0  0  0
M  END
>  <cdx:fragmentId>
800

$$$$
