11552.cdx
  Mrv1902 05222410242D          

  6  5  0  0  0  0            999 V2000
    3.0317   -2.8936    0.0000 C   0  0  0  0  0  0  0  0  0  0  0  0
    3.7462   -3.3061    0.0000 C   0  0  0  0  0  0  0  0  0  0  0  0
    4.4607   -2.8936    0.0000 C   0  0  0  0  0  0  0  0  0  0  0  0
    4.4607   -2.0686    0.0000 C   0  0  0  0  0  0  0  0  0  0  0  0
    2.3172   -3.3061    0.0000 O   0  0  0  0  0  0  0  0  0  0  0  0
    5.1751   -3.3061    0.0000 C   0  0  0  0  0  0  0  0  0  0  0  0
  1  2  1  0  0  0  0
  2  3  1  0  0  0  0
  3  4  1  0  0  0  0
  1  5  2  0  0  0  0
  3  6  1  0  0  0  0
M  END
>  <cdx:fragmentId>
5

$$$$
