11559.cdx
  Mrv1902 05222410232D          

  7  7  0  0  0  0            999 V2000
    4.4819   -3.6079    0.0000 O   0  0  0  0  0  0  0  0  0  0  0  0
    5.1493   -4.0928    0.0000 C   0  0  0  0  0  0  0  0  0  0  0  0
    4.8944   -4.8774    0.0000 C   0  0  0  0  0  0  0  0  0  0  0  0
    4.0694   -4.8774    0.0000 C   0  0  0  0  0  0  0  0  0  0  0  0
    3.8144   -4.0928    0.0000 C   0  0  0  0  0  0  0  0  0  0  0  0
    5.9339   -3.8379    0.0000 O   0  0  0  0  0  0  0  0  0  0  0  0
    3.0298   -3.8379    0.0000 C   0  0  0  0  0  0  0  0  0  0  0  0
  1  2  1  0  0  0  0
  2  3  1  0  0  0  0
  3  4  1  0  0  0  0
  4  5  2  0  0  0  0
  1  5  1  0  0  0  0
  2  6  2  0  0  0  0
  5  7  1  0  0  0  0
M  END
>  <cdx:groupId>
23

>  <cdx:fragmentId>
5

$$$$
