11567.cdx
  Mrv1902 05222410222D          

  8  8  0  0  0  0            999 V2000
    7.0935   -4.4135    0.0000 C   0  0  0  0  0  0  0  0  0  0  0  0
    7.8079   -4.0010    0.0000 C   0  0  0  0  0  0  0  0  0  0  0  0
    8.5224   -4.4135    0.0000 C   0  0  1  0  0  0  0  0  0  0  0  0
    8.5224   -5.2385    0.0000 C   0  0  0  0  0  0  0  0  0  0  0  0
    7.8079   -5.6510    0.0000 C   0  0  0  0  0  0  0  0  0  0  0  0
    7.0935   -5.2385    0.0000 C   0  0  0  0  0  0  0  0  0  0  0  0
    6.3790   -4.0010    0.0000 O   0  0  0  0  0  0  0  0  0  0  0  0
    9.2369   -4.0010    0.0000 C   0  0  0  0  0  0  0  0  0  0  0  0
  1  2  1  0  0  0  0
  2  3  1  0  0  0  0
  3  4  1  0  0  0  0
  4  5  1  0  0  0  0
  5  6  1  0  0  0  0
  1  6  1  0  0  0  0
  1  7  2  0  0  0  0
  3  8  1  6  0  0  0
M  END
>  <cdx:fragmentId>
5

$$$$
