11579.cdx
  Mrv1902 05222410252D          

  8  7  0  0  0  0            999 V2000
    8.3447   -3.5002    0.0000 O   0  0  0  0  0  0  0  0  0  0  0  0
    5.4868   -4.3252    0.0000 O   0  0  0  0  0  0  0  0  0  0  0  0
    6.2013   -5.5627    0.0000 O   0  0  0  0  0  0  0  0  0  0  0  0
    9.0592   -4.7377    0.0000 C   0  0  0  0  0  0  0  0  0  0  0  0
    8.3447   -4.3252    0.0000 C   0  0  0  0  0  0  0  0  0  0  0  0
    7.6302   -4.7377    0.0000 C   0  0  0  0  0  0  0  0  0  0  0  0
    6.9157   -4.3252    0.0000 C   0  0  0  0  0  0  0  0  0  0  0  0
    6.2013   -4.7377    0.0000 C   0  0  0  0  0  0  0  0  0  0  0  0
  5  1  2  0  0  0  0
  8  2  1  0  0  0  0
  8  3  2  0  0  0  0
  5  4  1  0  0  0  0
  6  5  1  0  0  0  0
  7  6  1  0  0  0  0
  8  7  1  0  0  0  0
M  END
>  <cdx:fragmentId>
5

$$$$
