11572.cdx
  Mrv1902 05222410222D          

  7  7  0  0  0  0            999 V2000
    3.8570   -3.8775    0.0000 C   0  0  0  0  0  0  0  0  0  0  0  0
    3.8570   -3.0525    0.0000 C   0  0  0  0  0  0  0  0  0  0  0  0
    4.5715   -2.6400    0.0000 C   0  0  0  0  0  0  0  0  0  0  0  0
    5.2859   -3.0525    0.0000 C   0  0  0  0  0  0  0  0  0  0  0  0
    5.2859   -3.8775    0.0000 C   0  0  0  0  0  0  0  0  0  0  0  0
    4.5715   -4.2900    0.0000 C   0  0  0  0  0  0  0  0  0  0  0  0
    6.0004   -2.6400    0.0000 C   0  0  0  0  0  0  0  0  0  0  0  0
  1  2  2  0  0  0  0
  2  3  1  0  0  0  0
  3  4  1  0  0  0  0
  4  5  1  0  0  0  0
  5  6  1  0  0  0  0
  1  6  1  0  0  0  0
  4  7  1  0  0  0  0
M  END
>  <cdx:groupId>
23

>  <cdx:fragmentId>
5

$$$$
