11571.cdx
  Mrv1902 05222410232D          

 24 28  0  0  0  0            999 V2000
    6.8327   -6.7739    0.0000 C   0  0  0  0  0  0  0  0  0  0  0  0
    6.5728   -5.9909    0.0000 C   0  0  0  0  0  0  0  0  0  0  0  0
    7.6408   -6.9403    0.0000 C   0  0  0  0  0  0  0  0  0  0  0  0
    8.1889   -6.3236    0.0000 N   0  0  0  0  0  0  0  0  0  0  0  0
    7.9289   -5.5407    0.0000 C   0  0  0  0  0  0  0  0  0  0  0  0
    7.1209   -5.3743    0.0000 C   0  0  0  0  0  0  0  0  0  0  0  0
    7.9008   -7.7232    0.0000 N   0  0  0  0  0  0  0  0  0  0  0  0
    8.7088   -7.8896    0.0000 C   0  0  0  0  0  0  0  0  0  0  0  0
    9.2569   -7.2730    0.0000 C   0  0  0  0  0  0  0  0  0  0  0  0
    8.9970   -6.4900    0.0000 C   0  0  0  0  0  0  0  0  0  0  0  0
    8.9688   -8.6726    0.0000 C   0  0  0  0  0  0  0  0  0  0  0  0
    9.7768   -8.8389    0.0000 C   0  0  0  0  0  0  0  0  0  0  0  0
   10.3249   -8.2223    0.0000 C   0  0  0  0  0  0  0  0  0  0  0  0
   10.0650   -7.4393    0.0000 C   0  0  0  0  0  0  0  0  0  0  0  0
    7.0574   -7.5236    0.0000 O   0  0  0  0  0  0  0  0  0  0  0  0
    7.3527   -8.3399    0.0000 C   0  0  0  0  0  0  0  0  0  0  0  0
    9.5450   -5.8734    0.0000 O   0  0  0  0  0  0  0  0  0  0  0  0
    5.7478   -5.9962    0.0000 C   0  0  0  0  0  0  0  0  0  0  0  0
    5.4979   -6.7825    0.0000 C   0  0  0  0  0  0  0  0  0  0  0  0
    6.1684   -7.2631    0.0000 N   0  0  0  0  0  0  0  0  0  0  0  0
    5.1919   -5.3867    0.0000 C   0  0  0  0  0  0  0  0  0  0  0  0
    4.3860   -5.5634    0.0000 C   0  0  0  0  0  0  0  0  0  0  0  0
    4.1361   -6.3496    0.0000 C   0  0  0  0  0  0  0  0  0  0  0  0
    4.6920   -6.9591    0.0000 C   0  0  0  0  0  0  0  0  0  0  0  0
  1  2  2  0  0  0  0
  1  3  1  0  0  0  0
  3  4  1  0  0  0  0
  4  5  1  0  0  0  0
  5  6  1  0  0  0  0
  6  2  1  0  0  0  0
  3  7  1  0  0  0  0
  7  8  1  0  0  0  0
  8  9  2  0  0  0  0
  9 10  1  0  0  0  0
 10  4  1  0  0  0  0
  8 11  1  0  0  0  0
 11 12  2  0  0  0  0
 12 13  1  0  0  0  0
 13 14  2  0  0  0  0
 14  9  1  0  0  0  0
  3 15  1  0  0  0  0
  7 16  1  0  0  0  0
 10 17  2  0  0  0  0
  2 18  1  0  0  0  0
 18 19  2  0  0  0  0
 19 20  1  0  0  0  0
 20  1  1  0  0  0  0
 18 21  1  0  0  0  0
 21 22  2  0  0  0  0
 22 23  1  0  0  0  0
 23 24  2  0  0  0  0
 24 19  1  0  0  0  0
M  END
>  <cdx:fragmentId>
5

$$$$
