11583.cdx
  Mrv1902 05222410232D          

  7  6  0  0  0  0            999 V2000
    4.6785   -3.0660    0.0000 O   0  0  0  0  0  0  0  0  0  0  0  0
    7.5364   -3.8910    0.0000 C   0  0  0  0  0  0  0  0  0  0  0  0
    6.8220   -4.3035    0.0000 C   0  0  0  0  0  0  0  0  0  0  0  0
    6.1075   -3.8910    0.0000 C   0  0  0  0  0  0  0  0  0  0  0  0
    5.3930   -4.3035    0.0000 C   0  0  0  0  0  0  0  0  0  0  0  0
    4.6785   -3.8910    0.0000 C   0  0  0  0  0  0  0  0  0  0  0  0
    3.9641   -4.3035    0.0000 C   0  0  0  0  0  0  0  0  0  0  0  0
  6  1  2  0  0  0  0
  3  2  1  0  0  0  0
  4  3  1  0  0  0  0
  5  4  1  0  0  0  0
  6  5  1  0  0  0  0
  7  6  1  0  0  0  0
M  END
>  <cdx:groupId>
22

>  <cdx:fragmentId>
5

$$$$
