11587.cdx
  Mrv1902 05222410262D          

  5  4  0  0  0  0            999 V2000
    5.9644   -4.8747    0.0000 C   0  0  0  0  0  0  0  0  0  0  0  0
    6.6789   -4.4622    0.0000 C   0  0  0  0  0  0  0  0  0  0  0  0
    7.3934   -4.8747    0.0000 C   0  0  0  0  0  0  0  0  0  0  0  0
    8.1078   -4.4622    0.0000 C   0  0  0  0  0  0  0  0  0  0  0  0
    8.8223   -4.8747    0.0000 C   0  0  0  0  0  0  0  0  0  0  0  0
  1  2  2  0  0  0  0
  2  3  1  0  0  0  0
  3  4  1  0  0  0  0
  4  5  2  0  0  0  0
M  END
>  <cdx:fragmentId>
5

$$$$
