11581.cdx
  Mrv1902 05222410242D          

 19 21  0  0  0  0            999 V2000
    4.7883   -7.0744    0.0000 C   0  0  0  0  0  0  0  0  0  0  0  0
    4.7883   -7.8994    0.0000 C   0  0  0  0  0  0  0  0  0  0  0  0
    5.5027   -8.3119    0.0000 C   0  0  0  0  0  0  0  0  0  0  0  0
    6.2172   -7.8994    0.0000 C   0  0  1  0  0  0  0  0  0  0  0  0
    6.2172   -7.0744    0.0000 C   0  0  2  0  0  0  0  0  0  0  0  0
    5.5027   -6.6619    0.0000 C   0  0  0  0  0  0  0  0  0  0  0  0
    6.9317   -8.3119    0.0000 C   0  0  0  0  0  0  0  0  0  0  0  0
    7.6462   -7.8994    0.0000 C   0  0  0  0  0  0  0  0  0  0  0  0
    7.6462   -7.0744    0.0000 C   0  0  2  0  0  0  0  0  0  0  0  0
    6.9317   -6.6619    0.0000 C   0  0  0  0  0  0  0  0  0  0  0  0
    8.4308   -8.1543    0.0000 C   0  0  0  0  0  0  0  0  0  0  0  0
    8.9157   -7.4869    0.0000 C   0  0  0  0  0  0  0  0  0  0  0  0
    8.4308   -6.8194    0.0000 O   0  0  0  0  0  0  0  0  0  0  0  0
    5.5027   -9.1369    0.0000 C   0  0  0  0  0  0  0  0  0  0  0  0
    8.6443   -8.9512    0.0000 C   0  0  0  0  0  0  0  0  0  0  0  0
    9.7407   -7.4869    0.0000 O   0  0  0  0  0  0  0  0  0  0  0  0
    6.2172   -6.2494    0.0000 C   0  0  0  0  0  0  0  0  0  0  0  0
    7.6462   -6.2494    0.0000 O   0  0  0  0  0  0  0  0  0  0  0  0
    6.2172   -8.7244    0.0000 H   0  0  0  0  0  0  0  0  0  0  0  0
  1  2  1  0  0  0  0
  2  3  1  0  0  0  0
  3  4  1  0  0  0  0
  4  5  1  0  0  0  0
  5  6  1  0  0  0  0
  6  1  2  0  0  0  0
  4  7  1  0  0  0  0
  7  8  2  0  0  0  0
  8  9  1  0  0  0  0
  9 10  1  0  0  0  0
 10  5  1  0  0  0  0
  8 11  1  0  0  0  0
 11 12  1  0  0  0  0
 12 13  1  0  0  0  0
 13  9  1  0  0  0  0
  3 14  2  0  0  0  0
 11 15  1  0  0  0  0
 12 16  2  0  0  0  0
  5 17  1  1  0  0  0
  9 18  1  1  0  0  0
  4 19  1  6  0  0  0
M  END
>  <cdx:fragmentId>
5

$$$$
