11593.cdx
  Mrv1902 05222410262D          

  8  7  0  0  0  0            999 V2000
    3.3792   -3.4727    0.0000 C   0  0  0  0  0  0  0  0  0  0  0  0
    2.6647   -3.0602    0.0000 C   0  0  0  0  0  0  0  0  0  0  0  0
    3.3792   -4.2977    0.0000 O   0  0  0  0  0  0  0  0  0  0  0  0
    4.0936   -3.0602    0.0000 O   0  0  0  0  0  0  0  0  0  0  0  0
    4.8081   -3.4727    0.0000 C   0  0  0  0  0  0  0  0  0  0  0  0
    5.5226   -3.0602    0.0000 C   0  0  0  0  0  0  0  0  0  0  0  0
    6.2371   -3.4727    0.0000 C   0  0  0  0  0  0  0  0  0  0  0  0
    5.5226   -2.2352    0.0000 O   0  0  0  0  0  0  0  0  0  0  0  0
  1  2  1  0  0  0  0
  1  3  2  0  0  0  0
  1  4  1  0  0  0  0
  5  6  1  0  0  0  0
  6  7  1  0  0  0  0
  6  8  2  0  0  0  0
  4  5  1  0  0  0  0
M  END
>  <cdx:groupId>
25

>  <cdx:fragmentId>
13

$$$$
