116.cdx
  Mrv1902 05222410202D          

 18 18  0  0  0  0            999 V2000
    7.7832   -5.6683    0.0000 C   0  0  0  0  0  0  0  0  0  0  0  0
    7.0688   -6.0808    0.0000 C   0  0  0  0  0  0  0  0  0  0  0  0
    6.3543   -5.6683    0.0000 C   0  0  0  0  0  0  0  0  0  0  0  0
    5.6398   -6.0808    0.0000 C   0  0  0  0  0  0  0  0  0  0  0  0
    4.9253   -5.6683    0.0000 C   0  0  0  0  0  0  0  0  0  0  0  0
    4.2109   -6.0808    0.0000 C   0  0  0  0  0  0  0  0  0  0  0  0
    3.4964   -5.6683    0.0000 O   0  0  0  0  0  0  0  0  0  0  0  0
    4.2109   -6.9058    0.0000 C   0  0  0  0  0  0  0  0  0  0  0  0
    3.4964   -7.3183    0.0000 O   0  0  0  0  0  0  0  0  0  0  0  0
    4.9253   -7.3183    0.0000 C   0  0  0  0  0  0  0  0  0  0  0  0
    5.6398   -6.9058    0.0000 C   0  0  0  0  0  0  0  0  0  0  0  0
    7.7832   -4.8433    0.0000 O   0  0  0  0  0  0  0  0  0  0  0  0
    8.4977   -6.0808    0.0000 O   0  0  0  0  0  0  0  0  0  0  0  0
    9.2122   -5.6683    0.0000 C   0  0  0  0  0  0  0  0  0  0  0  0
    9.9266   -6.0808    0.0000 C   0  0  0  0  0  0  0  0  0  0  0  0
   10.6411   -5.6683    0.0000 C   0  0  0  0  0  0  0  0  0  0  0  0
   10.6411   -4.8433    0.0000 C   0  0  0  0  0  0  0  0  0  0  0  0
   11.3556   -6.0808    0.0000 C   0  0  0  0  0  0  0  0  0  0  0  0
  1  2  1  0  0  0  0
  2  3  2  0  0  0  0
  3  4  1  0  0  0  0
  4  5  1  0  0  0  0
  5  6  2  0  0  0  0
  6  7  1  0  0  0  0
  6  8  1  0  0  0  0
  8  9  1  0  0  0  0
  8 10  2  0  0  0  0
 10 11  1  0  0  0  0
  4 11  2  0  0  0  0
  1 12  2  0  0  0  0
  1 13  1  0  0  0  0
 14 15  1  0  0  0  0
 15 16  2  0  0  0  0
 16 17  1  0  0  0  0
 16 18  1  0  0  0  0
 13 14  1  0  0  0  0
M  END
>  <cdx:groupId>
193

>  <cdx:fragmentId>
142

$$$$
