11600.cdx
  Mrv1902 05222410212D          

 59 65  0  0  0  0            999 V2000
    7.1618   -8.4276    0.0000 C   0  0  0  0  0  0  0  0  0  0  0  0
    7.1618   -9.2526    0.0000 C   0  0  1  0  0  0  0  0  0  0  0  0
    7.8763   -9.6651    0.0000 C   0  0  1  0  0  0  0  0  0  0  0  0
    8.5907   -9.2526    0.0000 C   0  0  1  0  0  0  0  0  0  0  0  0
    8.5907   -8.4276    0.0000 C   0  0  2  0  0  0  0  0  0  0  0  0
    7.8763   -8.0151    0.0000 C   0  0  0  0  0  0  0  0  0  0  0  0
    9.3052   -9.6651    0.0000 C   0  0  0  0  0  0  0  0  0  0  0  0
   10.0197   -9.2526    0.0000 C   0  0  0  0  0  0  0  0  0  0  0  0
   10.0197   -8.4276    0.0000 C   0  0  2  0  0  0  0  0  0  0  0  0
    9.3052   -8.0151    0.0000 C   0  0  2  0  0  0  0  0  0  0  0  0
   10.7342   -8.0151    0.0000 C   0  0  1  0  0  0  0  0  0  0  0  0
   10.7342   -7.1901    0.0000 C   0  0  0  0  0  0  0  0  0  0  0  0
   10.0197   -6.7776    0.0000 C   0  0  0  0  0  0  0  0  0  0  0  0
    9.3052   -7.1901    0.0000 C   0  0  1  0  0  0  0  0  0  0  0  0
   11.4486   -8.4276    0.0000 C   0  0  0  0  0  0  0  0  0  0  0  0
   12.1631   -8.0151    0.0000 C   0  0  2  0  0  0  0  0  0  0  0  0
   12.1631   -7.1901    0.0000 C   0  0  2  0  0  0  0  0  0  0  0  0
   11.4486   -6.7776    0.0000 C   0  0  1  0  0  0  0  0  0  0  0  0
   12.8776   -6.7776    0.0000 C   0  0  0  0  0  0  0  0  0  0  0  0
   12.8776   -5.9526    0.0000 C   0  0  0  0  0  0  0  0  0  0  0  0
   12.1631   -5.5401    0.0000 C   0  0  1  0  0  0  0  0  0  0  0  0
   11.4486   -5.9526    0.0000 C   0  0  0  0  0  0  0  0  0  0  0  0
    6.4473   -9.6651    0.0000 O   0  0  0  0  0  0  0  0  0  0  0  0
    5.7326   -9.2532    0.0000 C   0  0  2  0  0  0  0  0  0  0  0  0
    5.7319   -8.4282    0.0000 O   0  0  0  0  0  0  0  0  0  0  0  0
    5.0172   -8.0162    0.0000 C   0  0  1  0  0  0  0  0  0  0  0  0
    4.3030   -8.4293    0.0000 C   0  0  1  0  0  0  0  0  0  0  0  0
    4.3036   -9.2543    0.0000 C   0  0  1  0  0  0  0  0  0  0  0  0
    5.0184   -9.6662    0.0000 C   0  0  1  0  0  0  0  0  0  0  0  0
    5.0165   -7.1912    0.0000 C   0  0  0  0  0  0  0  0  0  0  0  0
    3.5882   -8.0173    0.0000 O   0  0  0  0  0  0  0  0  0  0  0  0
    2.8801   -9.2520    0.0000 C   0  0  2  0  0  0  0  0  0  0  0  0
    2.8919   -8.4271    0.0000 O   0  0  0  0  0  0  0  0  0  0  0  0
    2.1834   -8.0044    0.0000 C   0  0  1  0  0  0  0  0  0  0  0  0
    1.4631   -8.4066    0.0000 C   0  0  2  0  0  0  0  0  0  0  0  0
    1.4513   -9.2315    0.0000 C   0  0  1  0  0  0  0  0  0  0  0  0
    2.1598   -9.6542    0.0000 C   0  0  1  0  0  0  0  0  0  0  0  0
   12.8776   -7.6026    0.0000 C   0  0  0  0  0  0  0  0  0  0  0  0
   13.5920   -7.1901    0.0000 O   0  0  0  0  0  0  0  0  0  0  0  0
   11.7506   -4.8257    0.0000 C   0  0  0  0  0  0  0  0  0  0  0  0
   12.8776   -8.4276    0.0000 O   0  0  0  0  0  0  0  0  0  0  0  0
   10.0197   -7.6026    0.0000 C   0  0  0  0  0  0  0  0  0  0  0  0
    8.5907   -7.6026    0.0000 C   0  0  0  0  0  0  0  0  0  0  0  0
    7.4638  -10.3796    0.0000 C   0  0  0  0  0  0  0  0  0  0  0  0
    3.5894   -9.6673    0.0000 O   0  0  0  0  0  0  0  0  0  0  0  0
    0.7546   -7.9840    0.0000 O   0  0  0  0  0  0  0  0  0  0  0  0
   12.5756   -4.8257    0.0000 C   0  0  0  0  0  0  0  0  0  0  0  0
   10.7342   -8.8401    0.0000 C   0  0  0  0  0  0  0  0  0  0  0  0
    8.2888  -10.3796    0.0000 C   0  0  0  0  0  0  0  0  0  0  0  0
    5.0190  -10.4912    0.0000 O   0  0  0  0  0  0  0  0  0  0  0  0
    2.1951   -7.1795    0.0000 C   0  0  0  0  0  0  0  0  0  0  0  0
    0.7310   -9.6338    0.0000 O   0  0  0  0  0  0  0  0  0  0  0  0
    8.5907   -6.7776    0.0000 O   0  0  0  0  0  0  0  0  0  0  0  0
    2.1480  -10.4791    0.0000 O   0  0  0  0  0  0  0  0  0  0  0  0
    1.4866   -6.7568    0.0000 O   0  0  0  0  0  0  0  0  0  0  0  0
    7.8763  -11.0941    0.0000 O   0  0  0  0  0  0  0  0  0  0  0  0
    8.5907  -10.0776    0.0000 H   0  0  0  0  0  0  0  0  0  0  0  0
    9.3052   -8.8401    0.0000 H   0  0  0  0  0  0  0  0  0  0  0  0
   11.4486   -7.6026    0.0000 H   0  0  0  0  0  0  0  0  0  0  0  0
  1  2  1  0  0  0  0
  2  3  1  0  0  0  0
  3  4  1  0  0  0  0
  4  5  1  0  0  0  0
  5  6  1  0  0  0  0
  6  1  1  0  0  0  0
  4  7  1  0  0  0  0
  7  8  1  0  0  0  0
  8  9  1  0  0  0  0
  9 10  1  0  0  0  0
 10  5  1  0  0  0  0
  9 11  1  0  0  0  0
 11 12  1  0  0  0  0
 12 13  2  0  0  0  0
 13 14  1  0  0  0  0
 14 10  1  0  0  0  0
 11 15  1  0  0  0  0
 15 16  1  0  0  0  0
 16 17  1  0  0  0  0
 17 18  1  0  0  0  0
 18 12  1  0  0  0  0
 17 19  1  0  0  0  0
 19 20  1  0  0  0  0
 20 21  1  0  0  0  0
 21 22  1  0  0  0  0
 22 18  1  0  0  0  0
  2 23  1  1  0  0  0
 24 23  1  1  0  0  0
 24 25  1  0  0  0  0
 25 26  1  0  0  0  0
 26 27  1  0  0  0  0
 27 28  1  0  0  0  0
 28 29  1  0  0  0  0
 29 24  1  0  0  0  0
 26 30  1  1  0  0  0
 27 31  1  1  0  0  0
 32 33  1  0  0  0  0
 33 34  1  0  0  0  0
 34 35  1  0  0  0  0
 35 36  1  0  0  0  0
 36 37  1  0  0  0  0
 37 32  1  0  0  0  0
 17 38  1  1  0  0  0
 38 39  1  0  0  0  0
 21 40  1  1  0  0  0
 16 41  1  6  0  0  0
  9 42  1  1  0  0  0
  5 43  1  1  0  0  0
  3 44  1  1  0  0  0
 28 45  1  1  0  0  0
 35 46  1  6  0  0  0
 21 47  1  6  0  0  0
 11 48  1  6  0  0  0
  3 49  1  6  0  0  0
 29 50  1  6  0  0  0
 34 51  1  1  0  0  0
 36 52  1  1  0  0  0
 14 53  1  6  0  0  0
 37 54  1  6  0  0  0
 51 55  1  0  0  0  0
 32 45  1  1  0  0  0
 49 56  1  0  0  0  0
  4 57  1  6  0  0  0
 10 58  1  6  0  0  0
 18 59  1  1  0  0  0
M  END
>  <cdx:fragmentId>
5

$$$$
