11603.cdx
  Mrv1902 05222410202D          

 24 25  0  0  0  0            999 V2000
    8.3977   -6.5381    0.0000 C   0  0  0  0  0  0  0  0  0  0  0  0
    8.3977   -7.3631    0.0000 C   0  0  0  0  0  0  0  0  0  0  0  0
    9.1121   -7.7756    0.0000 C   0  0  0  0  0  0  0  0  0  0  0  0
    9.8266   -7.3631    0.0000 C   0  0  0  0  0  0  0  0  0  0  0  0
    9.8266   -6.5381    0.0000 C   0  0  0  0  0  0  0  0  0  0  0  0
    9.1121   -6.1256    0.0000 C   0  0  0  0  0  0  0  0  0  0  0  0
    9.1121   -5.3006    0.0000 O   0  0  0  0  0  0  0  0  0  0  0  0
    9.1121   -8.6006    0.0000 O   0  0  0  0  0  0  0  0  0  0  0  0
    7.5727   -7.3631    0.0000 C   0  0  0  0  0  0  0  0  0  0  0  0
    6.9053   -6.8780    0.0000 O   0  0  0  0  0  0  0  0  0  0  0  0
    6.2378   -7.3628    0.0000 C   0  0  0  0  0  0  0  0  0  0  0  0
    6.4925   -8.1475    0.0000 C   0  0  0  0  0  0  0  0  0  0  0  0
    7.3175   -8.1477    0.0000 C   0  0  0  0  0  0  0  0  0  0  0  0
    5.7780   -8.5600    0.0000 C   0  0  0  0  0  0  0  0  0  0  0  0
    5.0636   -8.1475    0.0000 C   0  0  0  0  0  0  0  0  0  0  0  0
    4.3491   -8.5600    0.0000 C   0  0  0  0  0  0  0  0  0  0  0  0
    3.6346   -8.1475    0.0000 C   0  0  0  0  0  0  0  0  0  0  0  0
    2.9202   -7.7350    0.0000 O   0  0  0  0  0  0  0  0  0  0  0  0
    3.6346   -7.3225    0.0000 C   0  0  0  0  0  0  0  0  0  0  0  0
    2.9202   -8.5600    0.0000 C   0  0  0  0  0  0  0  0  0  0  0  0
    5.7780   -9.3850    0.0000 O   0  0  0  0  0  0  0  0  0  0  0  0
    6.3614   -9.9683    0.0000 C   0  0  0  0  0  0  0  0  0  0  0  0
    5.9489  -10.6828    0.0000 C   0  0  0  0  0  0  0  0  0  0  0  0
    7.1864   -9.9683    0.0000 O   0  0  0  0  0  0  0  0  0  0  0  0
  1  2  2  0  0  0  0
  2  3  1  0  0  0  0
  3  4  2  0  0  0  0
  4  5  1  0  0  0  0
  5  6  2  0  0  0  0
  6  1  1  0  0  0  0
  6  7  1  0  0  0  0
  3  8  1  0  0  0  0
  2  9  1  0  0  0  0
  9 10  1  0  0  0  0
 10 11  1  0  0  0  0
 11 12  2  0  0  0  0
 12 13  1  0  0  0  0
 13  9  2  0  0  0  0
 12 14  1  0  0  0  0
 14 15  1  0  0  0  0
 15 16  1  0  0  0  0
 16 17  1  0  0  0  0
 17 18  1  0  0  0  0
 17 19  1  0  0  0  0
 17 20  1  0  0  0  0
 14 21  1  0  0  0  0
 21 22  1  0  0  0  0
 22 23  1  0  0  0  0
 22 24  2  0  0  0  0
M  END
>  <cdx:fragmentId>
5

$$$$
