11617.cdx
  Mrv1902 05222410202D          

  7  6  0  0  0  0            999 V2000
    4.8375   -2.6566    0.0000 C   0  0  0  0  0  0  0  0  0  0  0  0
    5.5519   -3.0691    0.0000 C   0  0  0  0  0  0  0  0  0  0  0  0
    6.2664   -2.6566    0.0000 C   0  0  0  0  0  0  0  0  0  0  0  0
    6.9809   -3.0691    0.0000 S   0  0  0  0  0  0  0  0  0  0  0  0
    7.6953   -2.6566    0.0000 C   0  0  0  0  0  0  0  0  0  0  0  0
    8.4098   -3.0691    0.0000 C   0  0  0  0  0  0  0  0  0  0  0  0
    9.1243   -2.6566    0.0000 C   0  0  0  0  0  0  0  0  0  0  0  0
  5  4  1  0  0  0  0
  4  3  1  0  0  0  0
  2  1  2  0  0  0  0
  3  2  1  0  0  0  0
  6  5  1  0  0  0  0
  7  6  2  0  0  0  0
M  END
>  <cdx:groupId>
22

>  <cdx:fragmentId>
13

$$$$
