11619.cdx
  Mrv1902 05222410252D          

 19 18  0  0  0  0            999 V2000
    9.1555   -7.0619    0.0000 C   0  0  0  0  0  0  0  0  0  0  0  0
    8.4459   -6.6412    0.0000 C   0  0  0  0  0  0  0  0  0  0  0  0
    7.7267   -7.0454    0.0000 C   0  0  0  0  0  0  0  0  0  0  0  0
    7.0170   -6.6247    0.0000 C   0  0  0  0  0  0  0  0  0  0  0  0
    6.2978   -7.0289    0.0000 C   0  0  0  0  0  0  0  0  0  0  0  0
    5.5882   -6.6082    0.0000 C   0  0  0  0  0  0  0  0  0  0  0  0
    4.8690   -7.0124    0.0000 N   0  0  0  0  0  0  0  0  0  0  0  0
    4.1593   -6.5917    0.0000 C   0  0  0  0  0  0  0  0  0  0  0  0
    5.5977   -5.7833    0.0000 O   0  0  0  0  0  0  0  0  0  0  0  0
    3.4401   -6.9960    0.0000 C   0  0  0  0  0  0  0  0  0  0  0  0
    3.0276   -6.2815    0.0000 C   0  0  0  0  0  0  0  0  0  0  0  0
    3.8526   -7.7104    0.0000 C   0  0  0  0  0  0  0  0  0  0  0  0
    2.7257   -7.4085    0.0000 O   0  0  0  0  0  0  0  0  0  0  0  0
    9.8747   -6.6576    0.0000 C   0  0  0  0  0  0  0  0  0  0  0  0
    9.8842   -5.8327    0.0000 C   0  0  0  0  0  0  0  0  0  0  0  0
   10.6034   -5.4285    0.0000 C   0  0  0  0  0  0  0  0  0  0  0  0
   10.6129   -4.6035    0.0000 C   0  0  0  0  0  0  0  0  0  0  0  0
   11.3321   -4.1993    0.0000 C   0  0  0  0  0  0  0  0  0  0  0  0
   12.0466   -4.6118    0.0000 C   0  0  0  0  0  0  0  0  0  0  0  0
  1  2  1  0  0  0  0
  2  3  1  0  0  0  0
  3  4  1  0  0  0  0
  4  5  2  0  0  0  0
  5  6  1  0  0  0  0
  6  7  1  0  0  0  0
  7  8  1  0  0  0  0
  6  9  2  0  0  0  0
  8 10  1  0  0  0  0
 10 11  1  0  0  0  0
 10 12  1  0  0  0  0
 10 13  1  0  0  0  0
  1 14  2  0  0  0  0
 14 15  1  0  0  0  0
 15 16  2  0  0  0  0
 16 17  1  0  0  0  0
 17 18  2  0  0  0  0
 18 19  1  0  0  0  0
M  END
>  <cdx:fragmentId>
3

$$$$
