11614.cdx
  Mrv1902 05222410212D          

  7  6  0  0  0  0            999 V2000
    3.6166   -2.2621    0.0000 C   0  0  0  0  0  0  0  0  0  0  0  0
    2.9021   -2.6746    0.0000 O   0  0  0  0  0  0  0  0  0  0  0  0
    4.3311   -2.6746    0.0000 O   0  0  0  0  0  0  0  0  0  0  0  0
    5.0456   -2.2621    0.0000 C   0  0  0  0  0  0  0  0  0  0  0  0
    5.7600   -2.6746    0.0000 C   0  0  0  0  0  0  0  0  0  0  0  0
    6.4745   -2.2621    0.0000 C   0  0  0  0  0  0  0  0  0  0  0  0
    7.1890   -2.6746    0.0000 C   0  0  0  0  0  0  0  0  0  0  0  0
  1  2  2  0  0  0  0
  1  3  1  0  0  0  0
  4  5  1  0  0  0  0
  5  6  1  0  0  0  0
  6  7  1  0  0  0  0
  3  4  1  0  0  0  0
M  END
>  <cdx:groupId>
22

>  <cdx:fragmentId>
11

$$$$
