1162.cdx
  Mrv1902 05222410232D          

 37 40  0  0  0  0            999 V2000
   10.5290   -6.6158    0.0000 C   0  0  0  0  0  0  0  0  0  0  0  0
    9.8183   -6.1968    0.0000 O   0  0  0  0  0  0  0  0  0  0  0  0
    9.1001   -6.6028    0.0000 C   0  0  0  0  0  0  0  0  0  0  0  0
    9.0926   -7.4278    0.0000 C   0  0  0  0  0  0  0  0  0  0  0  0
    9.8033   -7.8468    0.0000 O   0  0  0  0  0  0  0  0  0  0  0  0
    8.3894   -6.1838    0.0000 C   0  0  0  0  0  0  0  0  0  0  0  0
    7.6712   -6.5898    0.0000 C   0  0  0  0  0  0  0  0  0  0  0  0
    7.6637   -7.4148    0.0000 C   0  0  0  0  0  0  0  0  0  0  0  0
    8.3744   -7.8338    0.0000 C   0  0  0  0  0  0  0  0  0  0  0  0
    6.9605   -6.1708    0.0000 C   0  0  0  0  0  0  0  0  0  0  0  0
    6.2423   -6.5768    0.0000 C   0  0  2  0  0  0  0  0  0  0  0  0
    6.2348   -7.4018    0.0000 C   0  0  1  0  0  0  0  0  0  0  0  0
    6.9455   -7.8208    0.0000 C   0  0  1  0  0  0  0  0  0  0  0  0
    5.5316   -6.1578    0.0000 C   0  0  0  0  0  0  0  0  0  0  0  0
    4.8059   -7.3888    0.0000 O   0  0  0  0  0  0  0  0  0  0  0  0
    5.5166   -7.8078    0.0000 C   0  0  0  0  0  0  0  0  0  0  0  0
    6.9380   -8.6457    0.0000 C   0  0  0  0  0  0  0  0  0  0  0  0
    7.6487   -9.0647    0.0000 C   0  0  0  0  0  0  0  0  0  0  0  0
    6.2198   -9.0517    0.0000 C   0  0  0  0  0  0  0  0  0  0  0  0
    6.2123   -9.8767    0.0000 C   0  0  0  0  0  0  0  0  0  0  0  0
    6.9230  -10.2957    0.0000 C   0  0  0  0  0  0  0  0  0  0  0  0
    7.6412   -9.8897    0.0000 C   0  0  0  0  0  0  0  0  0  0  0  0
    4.7834   -9.8637    0.0000 C   0  0  0  0  0  0  0  0  0  0  0  0
    5.4941  -10.2827    0.0000 O   0  0  0  0  0  0  0  0  0  0  0  0
    5.5391   -5.3329    0.0000 O   0  0  0  0  0  0  0  0  0  0  0  0
    6.9155  -11.1206    0.0000 O   0  0  0  0  0  0  0  0  0  0  0  0
    6.1973  -11.5266    0.0000 C   0  0  2  0  0  0  0  0  0  0  0  0
    5.4904  -11.1012    0.0000 O   0  0  0  0  0  0  0  0  0  0  0  0
    4.7686  -11.5266    0.0000 C   0  0  1  0  0  0  0  0  0  0  0  0
    4.7686  -12.3515    0.0000 C   0  0  2  0  0  0  0  0  0  0  0  0
    5.4904  -12.7769    0.0000 C   0  0  1  0  0  0  0  0  0  0  0  0
    6.1973  -12.3515    0.0000 C   0  0  1  0  0  0  0  0  0  0  0  0
    4.0411  -11.1109    0.0000 C   0  0  0  0  0  0  0  0  0  0  0  0
    5.4943  -13.6148    0.0000 O   0  0  0  0  0  0  0  0  0  0  0  0
    6.9155  -12.7575    0.0000 O   0  0  0  0  0  0  0  0  0  0  0  0
    4.0411  -12.7672    0.0000 O   0  0  0  0  0  0  0  0  0  0  0  0
    3.3173  -11.5331    0.0000 O   0  0  0  0  0  0  0  0  0  0  0  0
  1  2  1  0  0  0  0
  2  3  1  0  0  0  0
  3  4  1  0  0  0  0
  4  5  1  0  0  0  0
  3  6  2  0  0  0  0
  6  7  1  0  0  0  0
  7  8  2  0  0  0  0
  8  9  1  0  0  0  0
  9  4  2  0  0  0  0
  7 10  1  0  0  0  0
 10 11  1  0  0  0  0
 11 12  1  0  0  0  0
 12 13  1  0  0  0  0
 13  8  1  0  0  0  0
 11 14  1  6  0  0  0
 15 16  1  0  0  0  0
 12 16  1  1  0  0  0
 13 17  1  6  0  0  0
 17 18  2  0  0  0  0
 17 19  1  0  0  0  0
 19 20  2  0  0  0  0
 20 21  1  0  0  0  0
 21 22  2  0  0  0  0
 22 18  1  0  0  0  0
 23 24  1  0  0  0  0
 24 20  1  0  0  0  0
 14 25  1  0  0  0  0
 21 26  1  0  0  0  0
 27 26  1  1  0  0  0
 27 28  1  0  0  0  0
 28 29  1  0  0  0  0
 29 30  1  0  0  0  0
 30 31  1  0  0  0  0
 31 32  1  0  0  0  0
 32 27  1  0  0  0  0
 29 33  1  1  0  0  0
 31 34  1  1  0  0  0
 32 35  1  6  0  0  0
 30 36  1  6  0  0  0
 33 37  1  0  0  0  0
M  END
>  <cdx:fragmentId>
5

$$$$
