11635.cdx
  Mrv1902 05222410242D          

 18 17  0  0  0  0            999 V2000
    1.1664   -4.1250    0.0000 C   0  0  0  0  0  0  0  0  0  0  0  0
    1.8808   -3.7125    0.0000 C   0  0  0  0  0  0  0  0  0  0  0  0
    2.5953   -4.1250    0.0000 C   0  0  0  0  0  0  0  0  0  0  0  0
    3.3098   -3.7125    0.0000 C   0  0  0  0  0  0  0  0  0  0  0  0
    4.0243   -4.1250    0.0000 C   0  0  0  0  0  0  0  0  0  0  0  0
    4.7387   -3.7125    0.0000 C   0  0  0  0  0  0  0  0  0  0  0  0
    5.4532   -4.1250    0.0000 C   0  0  0  0  0  0  0  0  0  0  0  0
    6.1677   -3.7125    0.0000 C   0  0  0  0  0  0  0  0  0  0  0  0
    6.8821   -4.1250    0.0000 C   0  0  0  0  0  0  0  0  0  0  0  0
    7.5966   -3.7125    0.0000 C   0  0  0  0  0  0  0  0  0  0  0  0
    8.3111   -4.1250    0.0000 C   0  0  0  0  0  0  0  0  0  0  0  0
    9.0256   -3.7125    0.0000 C   0  0  0  0  0  0  0  0  0  0  0  0
    9.7400   -4.1250    0.0000 C   0  0  0  0  0  0  0  0  0  0  0  0
   10.4545   -3.7125    0.0000 C   0  0  0  0  0  0  0  0  0  0  0  0
   11.1690   -4.1250    0.0000 C   0  0  0  0  0  0  0  0  0  0  0  0
   11.8834   -3.7125    0.0000 C   0  0  0  0  0  0  0  0  0  0  0  0
   12.5979   -4.1250    0.0000 C   0  0  0  0  0  0  0  0  0  0  0  0
   13.3124   -3.7125    0.0000 C   0  0  0  0  0  0  0  0  0  0  0  0
  1  2  1  0  0  0  0
  2  3  1  0  0  0  0
  3  4  1  0  0  0  0
  4  5  1  0  0  0  0
  5  6  1  0  0  0  0
  6  7  1  0  0  0  0
  7  8  1  0  0  0  0
  8  9  1  0  0  0  0
  9 10  1  0  0  0  0
 10 11  1  0  0  0  0
 11 12  1  0  0  0  0
 12 13  1  0  0  0  0
 13 14  1  0  0  0  0
 14 15  1  0  0  0  0
 15 16  1  0  0  0  0
 16 17  1  0  0  0  0
 17 18  1  0  0  0  0
M  END
>  <cdx:groupId>
55

>  <cdx:fragmentId>
5

$$$$
