11636.cdx
  Mrv1902 05222410232D          

 27 26  0  0  0  0            999 V2000
    1.1440   -3.3619    0.0000 C   0  0  0  0  0  0  0  0  0  0  0  0
    1.8585   -2.9494    0.0000 C   0  0  0  0  0  0  0  0  0  0  0  0
    2.5729   -3.3619    0.0000 C   0  0  0  0  0  0  0  0  0  0  0  0
    3.2874   -2.9494    0.0000 C   0  0  0  0  0  0  0  0  0  0  0  0
    4.0019   -3.3619    0.0000 C   0  0  0  0  0  0  0  0  0  0  0  0
    4.7164   -2.9494    0.0000 C   0  0  0  0  0  0  0  0  0  0  0  0
    5.4308   -3.3619    0.0000 C   0  0  0  0  0  0  0  0  0  0  0  0
    6.1453   -2.9494    0.0000 C   0  0  0  0  0  0  0  0  0  0  0  0
    6.8598   -3.3619    0.0000 C   0  0  0  0  0  0  0  0  0  0  0  0
    7.5742   -2.9494    0.0000 C   0  0  0  0  0  0  0  0  0  0  0  0
    8.2887   -3.3619    0.0000 C   0  0  0  0  0  0  0  0  0  0  0  0
    9.0032   -2.9494    0.0000 C   0  0  0  0  0  0  0  0  0  0  0  0
    9.7177   -3.3619    0.0000 C   0  0  0  0  0  0  0  0  0  0  0  0
   10.4321   -2.9494    0.0000 C   0  0  0  0  0  0  0  0  0  0  0  0
   11.1466   -3.3619    0.0000 C   0  0  0  0  0  0  0  0  0  0  0  0
   11.8611   -2.9494    0.0000 C   0  0  0  0  0  0  0  0  0  0  0  0
   12.5755   -3.3619    0.0000 C   0  0  0  0  0  0  0  0  0  0  0  0
   13.2900   -2.9494    0.0000 C   0  0  0  0  0  0  0  0  0  0  0  0
   14.0045   -3.3619    0.0000 C   0  0  0  0  0  0  0  0  0  0  0  0
   14.7190   -2.9494    0.0000 C   0  0  0  0  0  0  0  0  0  0  0  0
   15.4334   -3.3619    0.0000 C   0  0  0  0  0  0  0  0  0  0  0  0
   16.1479   -2.9494    0.0000 C   0  0  0  0  0  0  0  0  0  0  0  0
   16.8624   -3.3619    0.0000 C   0  0  0  0  0  0  0  0  0  0  0  0
   17.5768   -2.9494    0.0000 C   0  0  0  0  0  0  0  0  0  0  0  0
   18.2913   -3.3619    0.0000 C   0  0  0  0  0  0  0  0  0  0  0  0
   19.0058   -2.9494    0.0000 C   0  0  0  0  0  0  0  0  0  0  0  0
   19.7202   -3.3619    0.0000 C   0  0  0  0  0  0  0  0  0  0  0  0
  1  2  1  0  0  0  0
  2  3  1  0  0  0  0
  3  4  1  0  0  0  0
  4  5  1  0  0  0  0
  5  6  1  0  0  0  0
  6  7  1  0  0  0  0
  7  8  1  0  0  0  0
  8  9  1  0  0  0  0
  9 10  1  0  0  0  0
 10 11  1  0  0  0  0
 11 12  1  0  0  0  0
 12 13  1  0  0  0  0
 13 14  1  0  0  0  0
 14 15  1  0  0  0  0
 15 16  1  0  0  0  0
 16 17  1  0  0  0  0
 17 18  1  0  0  0  0
 18 19  1  0  0  0  0
 19 20  1  0  0  0  0
 20 21  1  0  0  0  0
 21 22  1  0  0  0  0
 22 23  1  0  0  0  0
 23 24  1  0  0  0  0
 24 25  1  0  0  0  0
 25 26  1  0  0  0  0
 26 27  1  0  0  0  0
M  END
>  <cdx:groupId>
82

>  <cdx:fragmentId>
5

$$$$
