11648.cdx
  Mrv1902 05222410182D          

  3  2  0  0  0  0            999 V2000
    3.5302   -2.7998    0.0000 C   0  0  0  0  0  0  0  0  0  0  0  0
    4.2446   -2.3873    0.0000 Se  0  0  0  0  0  0  0  0  0  0  0  0
    4.9591   -2.7998    0.0000 C   0  0  0  0  0  0  0  0  0  0  0  0
  2  3  1  0  0  0  0
  1  2  1  0  0  0  0
M  END
>  <cdx:groupId>
10

>  <cdx:fragmentId>
7

$$$$
