1166.cdx
  Mrv1902 05222410262D          

 45 47  0  0  0  0            999 V2000
    4.2860   -7.5756    0.0000 C   0  0  0  0  0  0  0  0  0  0  0  0
    4.0262   -8.3586    0.0000 O   0  0  0  0  0  0  0  0  0  0  0  0
    4.6906   -8.8477    0.0000 C   0  0  1  0  0  0  0  0  0  0  0  0
    5.3611   -8.3669    0.0000 C   0  0  2  0  0  0  0  0  0  0  0  0
    5.1110   -7.5807    0.0000 C   0  0  1  0  0  0  0  0  0  0  0  0
    5.6944   -6.9973    0.0000 C   0  0  0  0  0  0  0  0  0  0  0  0
    6.1580   -8.5804    0.0000 C   0  0  0  0  0  0  0  0  0  0  0  0
    4.6906   -9.6727    0.0000 C   0  0  0  0  0  0  0  0  0  0  0  0
    5.2819   -6.2829    0.0000 C   0  0  0  0  0  0  0  0  0  0  0  0
    6.7413   -7.9970    0.0000 O   0  0  0  0  0  0  0  0  0  0  0  0
    5.6944   -5.5684    0.0000 C   0  0  0  0  0  0  0  0  0  0  0  0
    5.2819   -4.8539    0.0000 C   0  0  0  0  0  0  0  0  0  0  0  0
    4.4569   -4.8539    0.0000 C   0  0  0  0  0  0  0  0  0  0  0  0
    4.0444   -5.5684    0.0000 C   0  0  0  0  0  0  0  0  0  0  0  0
    4.4569   -6.2829    0.0000 C   0  0  0  0  0  0  0  0  0  0  0  0
    3.9762  -10.0852    0.0000 C   0  0  0  0  0  0  0  0  0  0  0  0
    3.9762  -10.9102    0.0000 C   0  0  0  0  0  0  0  0  0  0  0  0
    4.6906  -11.3227    0.0000 C   0  0  0  0  0  0  0  0  0  0  0  0
    5.4051  -10.9102    0.0000 C   0  0  0  0  0  0  0  0  0  0  0  0
    5.4051  -10.0852    0.0000 C   0  0  0  0  0  0  0  0  0  0  0  0
    4.0444   -4.1394    0.0000 O   0  0  0  0  0  0  0  0  0  0  0  0
    4.6906  -12.1477    0.0000 O   0  0  0  0  0  0  0  0  0  0  0  0
    3.2617  -11.3227    0.0000 O   0  0  0  0  0  0  0  0  0  0  0  0
    2.5472  -10.9102    0.0000 C   0  0  0  0  0  0  0  0  0  0  0  0
    3.2194   -5.5684    0.0000 O   0  0  0  0  0  0  0  0  0  0  0  0
    2.8069   -4.8539    0.0000 C   0  0  0  0  0  0  0  0  0  0  0  0
    7.5382   -8.2106    0.0000 C   0  0  0  0  0  0  0  0  0  0  0  0
    8.1216   -7.6272    0.0000 C   0  0  0  0  0  0  0  0  0  0  0  0
    8.9070   -7.8797    0.0000 C   0  0  0  0  0  0  0  0  0  0  0  0
    9.5184   -7.3257    0.0000 C   0  0  0  0  0  0  0  0  0  0  0  0
   10.3038   -7.5782    0.0000 C   0  0  0  0  0  0  0  0  0  0  0  0
   10.9151   -7.0243    0.0000 C   0  0  0  0  0  0  0  0  0  0  0  0
   11.7006   -7.2767    0.0000 C   0  0  0  0  0  0  0  0  0  0  0  0
   12.3119   -6.7228    0.0000 C   0  0  0  0  0  0  0  0  0  0  0  0
   13.0973   -6.9753    0.0000 C   0  0  0  0  0  0  0  0  0  0  0  0
   13.7087   -6.4213    0.0000 C   0  0  0  0  0  0  0  0  0  0  0  0
   14.4941   -6.6738    0.0000 C   0  0  0  0  0  0  0  0  0  0  0  0
   15.1055   -6.1198    0.0000 C   0  0  0  0  0  0  0  0  0  0  0  0
   15.8909   -6.3723    0.0000 C   0  0  0  0  0  0  0  0  0  0  0  0
   16.5022   -5.8184    0.0000 C   0  0  0  0  0  0  0  0  0  0  0  0
   17.2877   -6.0709    0.0000 C   0  0  0  0  0  0  0  0  0  0  0  0
   17.8990   -5.5169    0.0000 C   0  0  0  0  0  0  0  0  0  0  0  0
   18.6844   -5.7694    0.0000 C   0  0  0  0  0  0  0  0  0  0  0  0
    7.7517   -9.0075    0.0000 O   0  0  0  0  0  0  0  0  0  0  0  0
   19.2958   -5.2154    0.0000 C   0  0  0  0  0  0  0  0  0  0  0  0
  1  2  1  0  0  0  0
  2  3  1  0  0  0  0
  3  4  1  0  0  0  0
  4  5  1  0  0  0  0
  5  1  1  0  0  0  0
  5  6  1  6  0  0  0
  4  7  1  6  0  0  0
  3  8  1  1  0  0  0
  6  9  1  0  0  0  0
  7 10  1  0  0  0  0
  9 11  2  0  0  0  0
 11 12  1  0  0  0  0
 12 13  2  0  0  0  0
 13 14  1  0  0  0  0
 14 15  2  0  0  0  0
 15  9  1  0  0  0  0
  8 16  2  0  0  0  0
 16 17  1  0  0  0  0
 17 18  2  0  0  0  0
 18 19  1  0  0  0  0
 19 20  2  0  0  0  0
 20  8  1  0  0  0  0
 13 21  1  0  0  0  0
 18 22  1  0  0  0  0
 17 23  1  0  0  0  0
 23 24  1  0  0  0  0
 14 25  1  0  0  0  0
 25 26  1  0  0  0  0
 10 27  1  0  0  0  0
 27 28  1  0  0  0  0
 28 29  1  0  0  0  0
 29 30  1  0  0  0  0
 30 31  1  0  0  0  0
 31 32  1  0  0  0  0
 32 33  1  0  0  0  0
 33 34  1  0  0  0  0
 34 35  1  0  0  0  0
 35 36  1  0  0  0  0
 36 37  1  0  0  0  0
 37 38  1  0  0  0  0
 38 39  1  0  0  0  0
 39 40  1  0  0  0  0
 40 41  1  0  0  0  0
 41 42  1  0  0  0  0
 42 43  1  0  0  0  0
 27 44  2  0  0  0  0
 43 45  1  0  0  0  0
M  END
>  <cdx:fragmentId>
129

$$$$
