11660.cdx
  Mrv1902 05222410182D          

 40 45  0  0  0  0            999 V2000
    4.9739   -6.2769    0.0000 C   0  0  0  0  0  0  0  0  0  0  0  0
    4.9739   -7.1019    0.0000 C   0  0  0  0  0  0  0  0  0  0  0  0
    5.6884   -7.5144    0.0000 C   0  0  0  0  0  0  0  0  0  0  0  0
    6.4028   -7.1019    0.0000 C   0  0  0  0  0  0  0  0  0  0  0  0
    6.4028   -6.2769    0.0000 C   0  0  0  0  0  0  0  0  0  0  0  0
    5.6884   -5.8644    0.0000 C   0  0  0  0  0  0  0  0  0  0  0  0
    7.1173   -7.5144    0.0000 O   0  0  0  0  0  0  0  0  0  0  0  0
    7.8318   -7.1019    0.0000 C   0  0  0  0  0  0  0  0  0  0  0  0
    7.8318   -6.2769    0.0000 C   0  0  0  0  0  0  0  0  0  0  0  0
    7.1173   -5.8644    0.0000 C   0  0  0  0  0  0  0  0  0  0  0  0
    8.5463   -7.5144    0.0000 C   0  0  0  0  0  0  0  0  0  0  0  0
    9.2607   -7.1019    0.0000 C   0  0  0  0  0  0  0  0  0  0  0  0
    8.5463   -8.3394    0.0000 C   0  0  0  0  0  0  0  0  0  0  0  0
    9.2607   -8.7519    0.0000 C   0  0  0  0  0  0  0  0  0  0  0  0
    9.9752   -8.3394    0.0000 C   0  0  0  0  0  0  0  0  0  0  0  0
    9.9752   -7.5144    0.0000 C   0  0  0  0  0  0  0  0  0  0  0  0
    5.6884   -5.0394    0.0000 O   0  0  0  0  0  0  0  0  0  0  0  0
    4.2594   -7.5144    0.0000 O   0  0  0  0  0  0  0  0  0  0  0  0
    7.1173   -5.0394    0.0000 O   0  0  0  0  0  0  0  0  0  0  0  0
   10.6897   -8.7519    0.0000 O   0  0  0  0  0  0  0  0  0  0  0  0
    5.6925   -8.2775    0.0000 C   0  0  0  0  0  0  0  0  0  0  0  0
    4.9769   -8.6881    0.0000 C   0  0  0  0  0  0  0  0  0  0  0  0
    4.9769   -9.5131    0.0000 C   0  0  0  0  0  0  0  0  0  0  0  0
    5.6925   -9.9275    0.0000 C   0  0  0  0  0  0  0  0  0  0  0  0
    6.4081   -9.5131    0.0000 C   0  0  0  0  0  0  0  0  0  0  0  0
    6.4081   -8.6881    0.0000 C   0  0  0  0  0  0  0  0  0  0  0  0
    7.1225   -9.9275    0.0000 C   0  0  0  0  0  0  0  0  0  0  0  0
    7.1200  -10.7525    0.0000 O   0  0  0  0  0  0  0  0  0  0  0  0
    7.8332  -11.1672    0.0000 C   0  0  0  0  0  0  0  0  0  0  0  0
    8.5489  -10.7525    0.0000 C   0  0  0  0  0  0  0  0  0  0  0  0
    8.5489   -9.9275    0.0000 C   0  0  0  0  0  0  0  0  0  0  0  0
    7.8332   -9.5128    0.0000 C   0  0  0  0  0  0  0  0  0  0  0  0
    7.8332  -11.9943    0.0000 C   0  0  0  0  0  0  0  0  0  0  0  0
    8.5489  -12.4068    0.0000 C   0  0  0  0  0  0  0  0  0  0  0  0
    9.2647  -11.9943    0.0000 C   0  0  0  0  0  0  0  0  0  0  0  0
    9.2647  -11.1672    0.0000 C   0  0  0  0  0  0  0  0  0  0  0  0
    4.3450   -8.3600    0.0000 O   0  0  0  0  0  0  0  0  0  0  0  0
    9.2950   -9.5150    0.0000 O   0  0  0  0  0  0  0  0  0  0  0  0
   10.0925  -10.7250    0.0000 O   0  0  0  0  0  0  0  0  0  0  0  0
    8.5525  -13.2000    0.0000 O   0  0  0  0  0  0  0  0  0  0  0  0
  1  2  1  0  0  0  0
  2  3  2  0  0  0  0
  3  4  1  0  0  0  0
  4  5  2  0  0  0  0
  5  6  1  0  0  0  0
  6  1  2  0  0  0  0
  4  7  1  0  0  0  0
  7  8  1  0  0  0  0
  8  9  2  0  0  0  0
  9 10  1  0  0  0  0
 10  5  1  0  0  0  0
  8 11  1  0  0  0  0
 11 12  2  0  0  0  0
 11 13  1  0  0  0  0
 13 14  2  0  0  0  0
 14 15  1  0  0  0  0
 15 16  2  0  0  0  0
 16 12  1  0  0  0  0
  6 17  1  0  0  0  0
  2 18  1  0  0  0  0
 10 19  2  0  0  0  0
 15 20  1  0  0  0  0
  3 21  1  0  0  0  0
 21 22  2  0  0  0  0
 22 23  1  0  0  0  0
 23 24  2  0  0  0  0
 24 25  1  0  0  0  0
 25 26  2  0  0  0  0
 26 21  1  0  0  0  0
 25 27  1  0  0  0  0
 27 28  1  0  0  0  0
 28 29  1  0  0  0  0
 29 30  1  0  0  0  0
 30 31  1  0  0  0  0
 31 32  1  0  0  0  0
 32 27  2  0  0  0  0
 29 33  2  0  0  0  0
 33 34  1  0  0  0  0
 34 35  2  0  0  0  0
 35 36  1  0  0  0  0
 36 30  2  0  0  0  0
 22 37  1  0  0  0  0
 31 38  2  0  0  0  0
 36 39  1  0  0  0  0
 34 40  1  0  0  0  0
M  END
>  <cdx:fragmentId>
68

$$$$
