1167.cdx
  Mrv1902 05222410252D          

 41 44  0  0  0  0            999 V2000
    4.9120   -4.7231    0.0000 C   0  0  0  0  0  0  0  0  0  0  0  0
    4.9120   -5.5481    0.0000 C   0  0  0  0  0  0  0  0  0  0  0  0
    5.6265   -5.9606    0.0000 C   0  0  0  0  0  0  0  0  0  0  0  0
    6.3410   -5.5481    0.0000 C   0  0  0  0  0  0  0  0  0  0  0  0
    6.3410   -4.7231    0.0000 C   0  0  0  0  0  0  0  0  0  0  0  0
    5.6265   -4.3106    0.0000 C   0  0  0  0  0  0  0  0  0  0  0  0
    7.0554   -5.9606    0.0000 C   0  0  1  0  0  0  0  0  0  0  0  0
    7.7699   -5.5481    0.0000 C   0  0  2  0  0  0  0  0  0  0  0  0
    7.7699   -4.7231    0.0000 C   0  0  1  0  0  0  0  0  0  0  0  0
    7.0554   -4.3106    0.0000 C   0  0  0  0  0  0  0  0  0  0  0  0
    4.1976   -4.3106    0.0000 O   0  0  0  0  0  0  0  0  0  0  0  0
    4.1976   -5.9606    0.0000 O   0  0  0  0  0  0  0  0  0  0  0  0
    5.6265   -6.7856    0.0000 O   0  0  0  0  0  0  0  0  0  0  0  0
    8.4844   -4.3106    0.0000 C   0  0  0  0  0  0  0  0  0  0  0  0
    9.1989   -4.7231    0.0000 O   0  0  0  0  0  0  0  0  0  0  0  0
    8.4844   -5.9606    0.0000 C   0  0  0  0  0  0  0  0  0  0  0  0
    9.1989   -5.5481    0.0000 O   0  0  0  0  0  0  0  0  0  0  0  0
    7.0554   -6.7856    0.0000 C   0  0  0  0  0  0  0  0  0  0  0  0
    6.3410   -7.1981    0.0000 C   0  0  0  0  0  0  0  0  0  0  0  0
    6.3410   -8.0231    0.0000 C   0  0  0  0  0  0  0  0  0  0  0  0
    7.0554   -8.4356    0.0000 C   0  0  0  0  0  0  0  0  0  0  0  0
    7.7699   -8.0231    0.0000 C   0  0  0  0  0  0  0  0  0  0  0  0
    7.7699   -7.1981    0.0000 C   0  0  0  0  0  0  0  0  0  0  0  0
    5.6265   -8.4356    0.0000 O   0  0  0  0  0  0  0  0  0  0  0  0
    7.0554   -9.2606    0.0000 O   0  0  0  0  0  0  0  0  0  0  0  0
    8.4844   -8.4356    0.0000 O   0  0  0  0  0  0  0  0  0  0  0  0
   11.2586   -6.2615    0.0000 C   0  0  2  0  0  0  0  0  0  0  0  0
   11.6676   -5.5451    0.0000 C   0  0  2  0  0  0  0  0  0  0  0  0
   11.2517   -4.8326    0.0000 C   0  0  1  0  0  0  0  0  0  0  0  0
   10.4267   -4.8365    0.0000 C   0  0  2  0  0  0  0  0  0  0  0  0
   10.0177   -5.5530    0.0000 C   0  0  1  0  0  0  0  0  0  0  0  0
   10.4336   -6.2655    0.0000 O   0  0  0  0  0  0  0  0  0  0  0  0
   11.6745   -6.9740    0.0000 C   0  0  0  0  0  0  0  0  0  0  0  0
   11.6608   -4.1161    0.0000 O   0  0  0  0  0  0  0  0  0  0  0  0
   10.0108   -4.1241    0.0000 O   0  0  0  0  0  0  0  0  0  0  0  0
   12.4926   -5.5411    0.0000 O   0  0  0  0  0  0  0  0  0  0  0  0
   12.4995   -6.9700    0.0000 O   0  0  0  0  0  0  0  0  0  0  0  0
    8.4844   -9.2606    0.0000 C   0  0  0  0  0  0  0  0  0  0  0  0
    5.6265   -9.2606    0.0000 C   0  0  0  0  0  0  0  0  0  0  0  0
    3.4831   -4.7231    0.0000 C   0  0  0  0  0  0  0  0  0  0  0  0
    4.9120   -7.1981    0.0000 C   0  0  0  0  0  0  0  0  0  0  0  0
  1  2  2  0  0  0  0
  2  3  1  0  0  0  0
  3  4  2  0  0  0  0
  4  5  1  0  0  0  0
  5  6  2  0  0  0  0
  6  1  1  0  0  0  0
  4  7  1  0  0  0  0
  7  8  1  0  0  0  0
  8  9  1  0  0  0  0
  9 10  1  0  0  0  0
 10  5  1  0  0  0  0
  1 11  1  0  0  0  0
  2 12  1  0  0  0  0
  3 13  1  0  0  0  0
  9 14  1  1  0  0  0
 14 15  1  0  0  0  0
  8 16  1  6  0  0  0
 16 17  1  0  0  0  0
  7 18  1  1  0  0  0
 18 19  2  0  0  0  0
 19 20  1  0  0  0  0
 20 21  2  0  0  0  0
 21 22  1  0  0  0  0
 22 23  2  0  0  0  0
 23 18  1  0  0  0  0
 20 24  1  0  0  0  0
 21 25  1  0  0  0  0
 22 26  1  0  0  0  0
 27 28  1  0  0  0  0
 28 29  1  0  0  0  0
 29 30  1  0  0  0  0
 30 31  1  0  0  0  0
 31 32  1  0  0  0  0
 32 27  1  0  0  0  0
 27 33  1  1  0  0  0
 29 34  1  1  0  0  0
 30 35  1  6  0  0  0
 28 36  1  6  0  0  0
 33 37  1  0  0  0  0
 31 17  1  1  0  0  0
 26 38  1  0  0  0  0
 24 39  1  0  0  0  0
 11 40  1  0  0  0  0
 13 41  1  0  0  0  0
M  END
>  <cdx:fragmentId>
5

$$$$
