icariol A2.cdx
  Mrv1902 05222410282D          

 31 33  0  0  0  0            999 V2000
    5.8292   -6.6973    0.0000 C   0  0  1  0  0  0  0  0  0  0  0  0
    5.5835   -7.4848    0.0000 C   0  0  1  0  0  0  0  0  0  0  0  0
    6.2566   -7.9619    0.0000 O   0  0  0  0  0  0  0  0  0  0  0  0
    6.9183   -7.4692    0.0000 C   0  0  2  0  0  0  0  0  0  0  0  0
    6.6542   -6.6876    0.0000 C   0  0  2  0  0  0  0  0  0  0  0  0
    7.2376   -6.1043    0.0000 C   0  0  0  0  0  0  0  0  0  0  0  0
    4.7866   -7.6984    0.0000 C   0  0  0  0  0  0  0  0  0  0  0  0
    5.2459   -6.1139    0.0000 C   0  0  0  0  0  0  0  0  0  0  0  0
    7.7152   -7.6827    0.0000 C   0  0  0  0  0  0  0  0  0  0  0  0
    8.0626   -6.1043    0.0000 O   0  0  0  0  0  0  0  0  0  0  0  0
    4.4209   -6.1139    0.0000 O   0  0  0  0  0  0  0  0  0  0  0  0
    7.9287   -8.4796    0.0000 C   0  0  0  0  0  0  0  0  0  0  0  0
    8.7256   -8.6932    0.0000 C   0  0  0  0  0  0  0  0  0  0  0  0
    9.3090   -8.1098    0.0000 C   0  0  0  0  0  0  0  0  0  0  0  0
    9.0954   -7.3129    0.0000 C   0  0  0  0  0  0  0  0  0  0  0  0
    8.2985   -7.0994    0.0000 C   0  0  0  0  0  0  0  0  0  0  0  0
    4.2033   -7.1150    0.0000 C   0  0  0  0  0  0  0  0  0  0  0  0
    3.4064   -7.3285    0.0000 C   0  0  0  0  0  0  0  0  0  0  0  0
    3.1928   -8.1254    0.0000 C   0  0  0  0  0  0  0  0  0  0  0  0
    3.7762   -8.7088    0.0000 C   0  0  0  0  0  0  0  0  0  0  0  0
    4.5731   -8.4953    0.0000 C   0  0  0  0  0  0  0  0  0  0  0  0
    2.3960   -8.3389    0.0000 O   0  0  0  0  0  0  0  0  0  0  0  0
    3.5627   -9.5057    0.0000 O   0  0  0  0  0  0  0  0  0  0  0  0
    3.3492  -10.3026    0.0000 C   0  0  0  0  0  0  0  0  0  0  0  0
   10.1059   -8.3233    0.0000 O   0  0  0  0  0  0  0  0  0  0  0  0
    8.9391   -9.4900    0.0000 O   0  0  0  0  0  0  0  0  0  0  0  0
    9.6788   -6.7295    0.0000 O   0  0  0  0  0  0  0  0  0  0  0  0
    2.8230   -6.7452    0.0000 O   0  0  0  0  0  0  0  0  0  0  0  0
    9.1527  -10.2869    0.0000 C   0  0  0  0  0  0  0  0  0  0  0  0
   10.2622   -6.1462    0.0000 C   0  0  0  0  0  0  0  0  0  0  0  0
    2.2396   -6.1618    0.0000 C   0  0  0  0  0  0  0  0  0  0  0  0
  1  2  1  0  0  0  0
  2  3  1  0  0  0  0
  3  4  1  0  0  0  0
  4  5  1  0  0  0  0
  5  1  1  0  0  0  0
  5  6  1  1  0  0  0
  2  7  1  1  0  0  0
  1  8  1  6  0  0  0
  4  9  1  6  0  0  0
  6 10  1  0  0  0  0
  8 11  1  0  0  0  0
  9 12  2  0  0  0  0
 12 13  1  0  0  0  0
 13 14  2  0  0  0  0
 14 15  1  0  0  0  0
 15 16  2  0  0  0  0
 16  9  1  0  0  0  0
  7 17  2  0  0  0  0
 17 18  1  0  0  0  0
 18 19  2  0  0  0  0
 19 20  1  0  0  0  0
 20 21  2  0  0  0  0
 21  7  1  0  0  0  0
 19 22  1  0  0  0  0
 20 23  1  0  0  0  0
 14 25  1  0  0  0  0
 13 26  1  0  0  0  0
 15 27  1  0  0  0  0
 18 28  1  0  0  0  0
 23 24  1  0  0  0  0
 26 29  1  0  0  0  0
 27 30  1  0  0  0  0
 28 31  1  0  0  0  0
M  STY  4   1 SUP   2 SUP   3 SUP   4 SUP
M  SAL   1  2  23  24
M  SBL   1  1  25
M  SMT   1 OCH3
M  SAP   1  1  23  20  1
M  SAL   2  2  26  29
M  SBL   2  1  27
M  SMT   2 OCH3
M  SAP   2  1  26  13  1
M  SAL   3  2  27  30
M  SBL   3  1  28
M  SMT   3 OCH3
M  SAP   3  1  27  15  1
M  SAL   4  2  28  31
M  SBL   4  1  29
M  SMT   4 OCH3
M  SAP   4  1  28  18  1
M  END
>  <cdx:fragmentId>
5

$$$$
