11679.cdx
  Mrv1902 05222410282D          

 29 31  0  0  0  0            999 V2000
    7.9078   -8.3226    0.0000 O   0  0  0  0  0  0  0  0  0  0  0  0
    7.1939   -8.7360    0.0000 C   0  0  1  0  0  0  0  0  0  0  0  0
    7.1949   -9.5610    0.0000 C   0  0  2  0  0  0  0  0  0  0  0  0
    7.9099   -9.9726    0.0000 C   0  0  1  0  0  0  0  0  0  0  0  0
    8.6239   -9.5592    0.0000 C   0  0  2  0  0  0  0  0  0  0  0  0
    8.6228   -8.7342    0.0000 C   0  0  2  0  0  0  0  0  0  0  0  0
    6.4810   -9.9745    0.0000 O   0  0  0  0  0  0  0  0  0  0  0  0
    7.9110  -10.7976    0.0000 O   0  0  0  0  0  0  0  0  0  0  0  0
    9.3389   -9.9707    0.0000 O   0  0  0  0  0  0  0  0  0  0  0  0
    6.4788   -8.3245    0.0000 C   0  0  0  0  0  0  0  0  0  0  0  0
    9.3329   -5.8457    0.0000 C   0  0  0  0  0  0  0  0  0  0  0  0
    9.3316   -5.0207    0.0000 C   0  0  0  0  0  0  0  0  0  0  0  0
   10.0454   -4.6071    0.0000 C   0  0  0  0  0  0  0  0  0  0  0  0
   10.7605   -5.0185    0.0000 C   0  0  0  0  0  0  0  0  0  0  0  0
   10.7618   -5.8435    0.0000 C   0  0  0  0  0  0  0  0  0  0  0  0
   10.0480   -6.2571    0.0000 C   0  0  0  0  0  0  0  0  0  0  0  0
   10.0493   -7.0821    0.0000 C   0  0  0  0  0  0  0  0  0  0  0  0
    9.3354   -7.4957    0.0000 C   0  0  0  0  0  0  0  0  0  0  0  0
    9.3367   -8.3207    0.0000 O   0  0  0  0  0  0  0  0  0  0  0  0
    5.2469   -7.0194    0.0000 O   0  0  0  0  0  0  0  0  0  0  0  0
    3.8543   -6.8366    0.0000 O   0  0  0  0  0  0  0  0  0  0  0  0
    3.1080   -6.4850    0.0000 O   0  0  0  0  0  0  0  0  0  0  0  0
    3.1766   -7.3072    0.0000 C   0  0  0  0  0  0  0  0  0  0  0  0
    3.6513   -8.4377    0.0000 C   0  0  0  0  0  0  0  0  0  0  0  0
    3.9230   -7.6588    0.0000 C   0  0  2  0  0  0  0  0  0  0  0  0
    4.7478   -7.6764    0.0000 C   0  0  2  0  0  0  0  0  0  0  0  0
    4.9859   -8.4663    0.0000 C   0  0  1  0  0  0  0  0  0  0  0  0
    4.3083   -8.9368    0.0000 O   0  0  0  0  0  0  0  0  0  0  0  0
    5.7649   -8.7379    0.0000 O   0  0  0  0  0  0  0  0  0  0  0  0
 17 16  1  0  0  0  0
 16 11  2  0  0  0  0
 12 11  1  0  0  0  0
 13 12  2  0  0  0  0
 14 13  1  0  0  0  0
 15 14  2  0  0  0  0
 16 15  1  0  0  0  0
 19 18  1  0  0  0  0
 18 17  1  0  0  0  0
 27 29  1  6  0  0  0
 26 20  1  1  0  0  0
 25 21  1  1  0  0  0
 25 23  1  6  0  0  0
 23 22  1  0  0  0  0
 28 24  1  0  0  0  0
 25 24  1  0  0  0  0
 26 25  1  0  0  0  0
 27 26  1  0  0  0  0
 28 27  1  0  0  0  0
  1  2  1  0  0  0  0
  2  3  1  0  0  0  0
  3  4  1  0  0  0  0
  4  5  1  0  0  0  0
  5  6  1  0  0  0  0
  1  6  1  0  0  0  0
  3  7  1  6  0  0  0
  4  8  1  1  0  0  0
  5  9  1  6  0  0  0
  6 19  1  1  0  0  0
 10 29  1  0  0  0  0
  2 10  1  1  0  0  0
M  END
>  <cdx:fragmentId>
29

$$$$
