116700.cdx
  Mrv1902 05222410242D          

 15 17  0  0  0  0            999 V2000
    6.9051   -8.1946    0.0000 N   0  0  0  0  0  0  0  0  0  0  0  0
    6.6502   -7.4100    0.0000 N   0  0  0  0  0  0  0  0  0  0  0  0
    7.3176   -6.9251    0.0000 C   0  0  0  0  0  0  0  0  0  0  0  0
    7.9850   -7.4100    0.0000 C   0  0  0  0  0  0  0  0  0  0  0  0
    8.7920   -7.2385    0.0000 C   0  0  0  0  0  0  0  0  0  0  0  0
    9.3441   -7.8516    0.0000 C   0  0  0  0  0  0  0  0  0  0  0  0
    9.0891   -8.6362    0.0000 C   0  0  0  0  0  0  0  0  0  0  0  0
    8.2821   -8.8077    0.0000 C   0  0  0  0  0  0  0  0  0  0  0  0
    7.7301   -8.1946    0.0000 C   0  0  0  0  0  0  0  0  0  0  0  0
    5.8432   -7.2385    0.0000 C   0  0  0  0  0  0  0  0  0  0  0  0
    5.2912   -7.8516    0.0000 C   0  0  0  0  0  0  0  0  0  0  0  0
    5.5461   -8.6362    0.0000 C   0  0  0  0  0  0  0  0  0  0  0  0
    6.3531   -8.8077    0.0000 C   0  0  0  0  0  0  0  0  0  0  0  0
    9.0470   -6.4539    0.0000 O   0  0  0  0  0  0  0  0  0  0  0  0
    9.6411   -9.2493    0.0000 C   0  0  0  0  0  0  0  0  0  0  0  0
  1  2  1  0  0  0  0
  2  3  1  0  0  0  0
  3  4  2  0  0  0  0
  4  5  1  0  0  0  0
  5  6  1  0  0  0  0
  6  7  2  0  0  0  0
  7  8  1  0  0  0  0
  8  9  2  0  0  0  0
  1  9  1  0  0  0  0
  4  9  1  0  0  0  0
 10 11  1  0  0  0  0
 11 12  1  0  0  0  0
 12 13  1  0  0  0  0
 13  1  1  0  0  0  0
 10  2  1  0  0  0  0
  5 14  2  0  0  0  0
  7 15  1  0  0  0  0
M  END
>  <cdx:fragmentId>
87384

$$$$
