116832.cdx
  Mrv1902 05222410262D          

 14 15  0  0  0  0            999 V2000
    7.7818  -12.4841    0.0000 O   0  0  0  0  0  0  0  0  0  0  0  0
    7.3009  -13.1544    0.0000 C   0  0  0  0  0  0  0  0  0  0  0  0
    6.5148  -12.9042    0.0000 C   0  0  0  0  0  0  0  0  0  0  0  0
    6.5099  -12.0792    0.0000 C   0  0  0  0  0  0  0  0  0  0  0  0
    7.2929  -11.8196    0.0000 C   0  0  2  0  0  0  0  0  0  0  0  0
    5.7929  -11.6710    0.0000 C   0  0  0  0  0  0  0  0  0  0  0  0
    5.0809  -12.0878    0.0000 C   0  0  0  0  0  0  0  0  0  0  0  0
    5.0859  -12.9128    0.0000 C   0  0  0  0  0  0  0  0  0  0  0  0
    5.8028  -13.3210    0.0000 C   0  0  0  0  0  0  0  0  0  0  0  0
    7.5606  -13.9375    0.0000 O   0  0  0  0  0  0  0  0  0  0  0  0
    7.5432  -11.0334    0.0000 C   0  0  0  0  0  0  0  0  0  0  0  0
    8.3491  -10.8571    0.0000 C   0  0  0  0  0  0  0  0  0  0  0  0
    8.5993  -10.0710    0.0000 C   0  0  0  0  0  0  0  0  0  0  0  0
    9.4053   -9.8946    0.0000 C   0  0  0  0  0  0  0  0  0  0  0  0
  1  2  1  0  0  0  0
  2  3  1  0  0  0  0
  3  4  1  0  0  0  0
  4  5  1  0  0  0  0
  1  5  1  0  0  0  0
  6  7  1  0  0  0  0
  7  8  2  0  0  0  0
  8  9  1  0  0  0  0
  9  3  2  0  0  0  0
  6  4  2  0  0  0  0
  2 10  2  0  0  0  0
 11 12  1  0  0  0  0
 12 13  1  0  0  0  0
 13 14  1  0  0  0  0
  5 11  1  6  0  0  0
M  END
>  <cdx:fragmentId>
66646

$$$$
