11698.cdx
  Mrv1902 05222410192D          

 50 56  0  0  0  0            999 V2000
   12.1247   -7.1238    0.0000 O   0  0  0  0  0  0  0  0  0  0  0  0
   10.6495   -5.9863    0.0000 H   0  0  0  0  0  0  0  0  0  0  0  0
   10.4574   -8.7951    0.0000 H   0  0  0  0  0  0  0  0  0  0  0  0
    9.2083   -8.0096    0.0000 H   0  0  0  0  0  0  0  0  0  0  0  0
   10.3329  -10.2131    0.0000 H   0  0  0  0  0  0  0  0  0  0  0  0
    8.5913  -10.4653    0.0000 H   0  0  0  0  0  0  0  0  0  0  0  0
    7.9010  -11.7110    0.0000 H   0  0  0  0  0  0  0  0  0  0  0  0
    9.9989   -4.4683    0.0000 C   0  0  0  0  0  0  0  0  0  0  0  0
   10.5161   -7.4090    0.0000 H   0  0  0  0  0  0  0  0  0  0  0  0
   10.0086  -10.5225    0.0000 H   0  0  0  0  0  0  0  0  0  0  0  0
    7.9220   -9.2363    0.0000 C   0  0  0  0  0  0  0  0  0  0  0  0
    5.7728  -11.3146    0.0000 O   0  0  0  0  0  0  0  0  0  0  0  0
   12.0477   -7.9452    0.0000 C   0  0  0  0  0  0  0  0  0  0  0  0
    8.6352  -12.1156    0.0000 O   0  0  0  0  0  0  0  0  0  0  0  0
    7.1878   -9.6567    0.0000 C   0  0  0  0  0  0  0  0  0  0  0  0
    6.4780  -10.0772    0.0000 C   0  0  0  0  0  0  0  0  0  0  0  0
    6.4873  -10.9021    0.0000 C   0  0  1  0  0  0  0  0  0  0  0  0
    7.2063  -11.3066    0.0000 C   0  0  0  0  0  0  0  0  0  0  0  0
    7.9069  -10.0612    0.0000 C   0  0  2  0  0  0  0  0  0  0  0  0
    7.9161  -10.8861    0.0000 C   0  0  1  0  0  0  0  0  0  0  0  0
    8.6352  -11.2906    0.0000 C   0  0  0  0  0  0  0  0  0  0  0  0
    9.3450  -10.8701    0.0000 C   0  0  0  0  0  0  0  0  0  0  0  0
    8.7792   -8.8318    0.0000 C   0  0  0  0  0  0  0  0  0  0  0  0
    8.6167   -9.6407    0.0000 C   0  0  1  0  0  0  0  0  0  0  0  0
    9.3357  -10.0451    0.0000 C   0  0  2  0  0  0  0  0  0  0  0  0
   11.5083   -6.0451    0.0000 C   0  0  0  0  0  0  0  0  0  0  0  0
   11.1643   -5.2952    0.0000 C   0  0  0  0  0  0  0  0  0  0  0  0
   10.3429   -5.2182    0.0000 C   0  0  1  0  0  0  0  0  0  0  0  0
    9.8655   -5.8910    0.0000 C   0  0  0  0  0  0  0  0  0  0  0  0
   11.3748   -7.4678    0.0000 C   0  0  2  0  0  0  0  0  0  0  0  0
   11.0308   -6.7179    0.0000 C   0  0  1  0  0  0  0  0  0  0  0  0
   10.2095   -6.6409    0.0000 N   0  0  0  0  0  0  0  0  0  0  0  0
    9.7320   -7.3137    0.0000 C   0  0  0  0  0  0  0  0  0  0  0  0
   11.2414   -8.8905    0.0000 C   0  0  0  0  0  0  0  0  0  0  0  0
   10.8974   -8.1406    0.0000 C   0  0  2  0  0  0  0  0  0  0  0  0
   10.0760   -8.0636    0.0000 C   0  0  2  0  0  0  0  0  0  0  0  0
    9.5986   -8.7364    0.0000 C   0  0  1  0  0  0  0  0  0  0  0  0
    9.9426   -9.4863    0.0000 C   0  0  1  0  0  0  0  0  0  0  0  0
   10.7640   -9.5633    0.0000 C   0  0  0  0  0  0  0  0  0  0  0  0
    5.0583  -10.9021    0.0000 C   0  0  2  0  0  0  0  0  0  0  0  0
    5.0583  -10.0771    0.0000 O   0  0  0  0  0  0  0  0  0  0  0  0
    4.3439   -9.6646    0.0000 C   0  0  1  0  0  0  0  0  0  0  0  0
    3.6294  -10.0771    0.0000 C   0  0  2  0  0  0  0  0  0  0  0  0
    3.6294  -10.9021    0.0000 C   0  0  1  0  0  0  0  0  0  0  0  0
    4.3439  -11.3146    0.0000 C   0  0  1  0  0  0  0  0  0  0  0  0
    4.3439   -8.8396    0.0000 C   0  0  0  0  0  0  0  0  0  0  0  0
    2.9149  -11.3146    0.0000 O   0  0  0  0  0  0  0  0  0  0  0  0
    4.3439  -12.1396    0.0000 O   0  0  0  0  0  0  0  0  0  0  0  0
    2.9149   -9.6646    0.0000 O   0  0  0  0  0  0  0  0  0  0  0  0
    3.6294   -8.4271    0.0000 O   0  0  0  0  0  0  0  0  0  0  0  0
 30  1  1  1  0  0  0
 31  2  1  6  0  0  0
 36  3  1  1  0  0  0
 37  4  1  6  0  0  0
 38  5  1  6  0  0  0
 24  6  1  6  0  0  0
 20  7  1  6  0  0  0
 28  8  1  1  0  0  0
 35  9  1  1  0  0  0
 25 10  1  1  0  0  0
 19 11  1  1  0  0  0
 17 12  1  1  0  0  0
 30 13  1  6  0  0  0
 21 14  2  0  0  0  0
 15 19  1  0  0  0  0
 16 15  1  0  0  0  0
 17 16  1  0  0  0  0
 18 17  1  0  0  0  0
 20 18  1  0  0  0  0
 19 24  1  0  0  0  0
 20 19  1  0  0  0  0
 21 20  1  0  0  0  0
 22 21  1  0  0  0  0
 25 22  1  0  0  0  0
 23 37  1  0  0  0  0
 24 23  1  0  0  0  0
 25 24  1  0  0  0  0
 38 25  1  0  0  0  0
 26 31  1  0  0  0  0
 27 26  1  0  0  0  0
 28 27  1  0  0  0  0
 29 28  1  0  0  0  0
 32 29  1  0  0  0  0
 30 35  1  0  0  0  0
 31 30  1  0  0  0  0
 32 31  1  0  0  0  0
 33 32  1  0  0  0  0
 36 33  1  0  0  0  0
 34 39  1  0  0  0  0
 35 34  1  0  0  0  0
 36 35  1  0  0  0  0
 37 36  1  0  0  0  0
 38 37  1  0  0  0  0
 39 38  1  0  0  0  0
 40 12  1  1  0  0  0
 40 41  1  0  0  0  0
 41 42  1  0  0  0  0
 42 43  1  0  0  0  0
 43 44  1  0  0  0  0
 44 45  1  0  0  0  0
 45 40  1  0  0  0  0
 42 46  1  1  0  0  0
 44 47  1  1  0  0  0
 45 48  1  6  0  0  0
 43 49  1  6  0  0  0
 46 50  1  0  0  0  0
M  END
>  <cdx:fragmentId>
269

$$$$
