1169.cdx
  Mrv1902 05222410212D          

 27 30  0  0  0  0            999 V2000
    4.0045   -7.6106    0.0000 C   0  0  0  0  0  0  0  0  0  0  0  0
    4.0045   -8.4356    0.0000 C   0  0  0  0  0  0  0  0  0  0  0  0
    4.7190   -8.8481    0.0000 C   0  0  0  0  0  0  0  0  0  0  0  0
    5.4335   -8.4356    0.0000 C   0  0  0  0  0  0  0  0  0  0  0  0
    5.4335   -7.6106    0.0000 C   0  0  0  0  0  0  0  0  0  0  0  0
    4.7190   -7.1981    0.0000 C   0  0  0  0  0  0  0  0  0  0  0  0
    6.1479   -8.8481    0.0000 C   0  0  0  0  0  0  0  0  0  0  0  0
    6.8624   -8.4356    0.0000 C   0  0  1  0  0  0  0  0  0  0  0  0
    6.8624   -7.6106    0.0000 C   0  0  0  0  0  0  0  0  0  0  0  0
    6.1479   -7.1981    0.0000 C   0  0  0  0  0  0  0  0  0  0  0  0
    7.5769   -8.8481    0.0000 N   0  3  0  0  0  0  0  0  0  0  0  0
    8.2914   -8.4356    0.0000 C   0  0  0  0  0  0  0  0  0  0  0  0
    8.2914   -7.6106    0.0000 C   0  0  0  0  0  0  0  0  0  0  0  0
    7.5769   -7.1981    0.0000 C   0  0  0  0  0  0  0  0  0  0  0  0
    7.5769   -6.3731    0.0000 C   0  0  0  0  0  0  0  0  0  0  0  0
    6.8624   -5.9606    0.0000 C   0  0  0  0  0  0  0  0  0  0  0  0
    6.1479   -6.3731    0.0000 C   0  0  0  0  0  0  0  0  0  0  0  0
    7.1644   -9.5626    0.0000 C   0  0  0  0  0  0  0  0  0  0  0  0
    7.9894   -9.5626    0.0000 C   0  0  0  0  0  0  0  0  0  0  0  0
    6.8624   -5.1356    0.0000 O   0  0  0  0  0  0  0  0  0  0  0  0
    7.5769   -4.7231    0.0000 C   0  0  0  0  0  0  0  0  0  0  0  0
    4.7190   -6.3731    0.0000 O   0  0  0  0  0  0  0  0  0  0  0  0
    4.0045   -5.9606    0.0000 C   0  0  0  0  0  0  0  0  0  0  0  0
    3.2901   -7.1981    0.0000 O   0  0  0  0  0  0  0  0  0  0  0  0
    2.5756   -7.6106    0.0000 C   0  0  0  0  0  0  0  0  0  0  0  0
    6.8624   -9.2606    0.0000 H   0  0  0  0  0  0  0  0  0  0  0  0
    5.4335   -5.9606    0.0000 O   0  0  0  0  0  0  0  0  0  0  0  0
  1  2  2  0  0  0  0
  2  3  1  0  0  0  0
  3  4  2  0  0  0  0
  4  5  1  0  0  0  0
  5  6  2  0  0  0  0
  6  1  1  0  0  0  0
  4  7  1  0  0  0  0
  7  8  1  0  0  0  0
  8  9  1  0  0  0  0
  9 10  2  0  0  0  0
 10  5  1  0  0  0  0
  8 11  1  0  0  0  0
 11 12  1  0  0  0  0
 12 13  1  0  0  0  0
 13 14  1  0  0  0  0
 14  9  1  0  0  0  0
 14 15  2  0  0  0  0
 15 16  1  0  0  0  0
 16 17  2  0  0  0  0
 17 10  1  0  0  0  0
 11 18  1  0  0  0  0
 11 19  1  0  0  0  0
 16 20  1  0  0  0  0
 20 21  1  0  0  0  0
  6 22  1  0  0  0  0
 22 23  1  0  0  0  0
  1 24  1  0  0  0  0
 24 25  1  0  0  0  0
  8 26  1  6  0  0  0
 17 27  1  0  0  0  0
M  CHG  1  11   1
M  END
>  <cdx:fragmentId>
5

$$$$
