11692.cdx
  Mrv1902 05222410282D          

 46 52  0  0  0  0            999 V2000
    6.4589   -8.6831    0.0000 C   0  0  0  0  0  0  0  0  0  0  0  0
    6.4589   -9.5081    0.0000 C   0  0  0  0  0  0  0  0  0  0  0  0
    7.1734   -9.9206    0.0000 C   0  0  0  0  0  0  0  0  0  0  0  0
    7.8878   -9.5081    0.0000 O   0  0  0  0  0  0  0  0  0  0  0  0
    7.8878   -8.6831    0.0000 C   0  0  0  0  0  0  0  0  0  0  0  0
    7.1734   -8.2706    0.0000 C   0  0  0  0  0  0  0  0  0  0  0  0
    7.8878   -7.8581    0.0000 C   0  0  0  0  0  0  0  0  0  0  0  0
    7.8878   -7.0331    0.0000 C   0  0  0  0  0  0  0  0  0  0  0  0
    7.1734   -6.6206    0.0000 C   0  0  0  0  0  0  0  0  0  0  0  0
    6.4589   -7.0331    0.0000 C   0  0  0  0  0  0  0  0  0  0  0  0
    6.4589   -7.8581    0.0000 C   0  0  0  0  0  0  0  0  0  0  0  0
    8.6023   -8.2706    0.0000 C   0  0  0  0  0  0  0  0  0  0  0  0
    9.3168   -7.8581    0.0000 C   0  0  0  0  0  0  0  0  0  0  0  0
    9.3168   -7.0331    0.0000 C   0  0  0  0  0  0  0  0  0  0  0  0
    8.6023   -6.6206    0.0000 C   0  0  0  0  0  0  0  0  0  0  0  0
   10.0313   -6.6206    0.0000 C   0  0  0  0  0  0  0  0  0  0  0  0
   10.0313   -5.7956    0.0000 O   0  0  0  0  0  0  0  0  0  0  0  0
    9.3168   -5.3831    0.0000 C   0  0  0  0  0  0  0  0  0  0  0  0
    8.6023   -5.7956    0.0000 C   0  0  0  0  0  0  0  0  0  0  0  0
    5.7444   -9.0956    0.0000 O   0  0  0  0  0  0  0  0  0  0  0  0
    7.1734  -10.7456    0.0000 O   0  0  0  0  0  0  0  0  0  0  0  0
    5.7444   -7.4456    0.0000 C   0  0  0  0  0  0  0  0  0  0  0  0
    4.9194   -7.4456    0.0000 O   0  0  0  0  0  0  0  0  0  0  0  0
    5.9580   -6.6487    0.0000 C   0  0  0  0  0  0  0  0  0  0  0  0
    5.5309   -8.2425    0.0000 C   0  0  0  0  0  0  0  0  0  0  0  0
    8.6023   -7.4456    0.0000 C   0  0  0  0  0  0  0  0  0  0  0  0
    7.1734   -5.7956    0.0000 O   0  0  0  0  0  0  0  0  0  0  0  0
    7.8878   -6.2081    0.0000 O   0  0  0  0  0  0  0  0  0  0  0  0
   10.0313   -7.4456    0.0000 C   0  0  0  0  0  0  0  0  0  0  0  0
   10.8563   -6.6206    0.0000 C   0  0  0  0  0  0  0  0  0  0  0  0
    9.3168   -4.5581    0.0000 O   0  0  0  0  0  0  0  0  0  0  0  0
   11.0857   -7.4131    0.0000 C   0  0  0  0  0  0  0  0  0  0  0  0
   11.9103   -7.4397    0.0000 C   0  0  0  0  0  0  0  0  0  0  0  0
   12.1904   -6.6637    0.0000 O   0  0  0  0  0  0  0  0  0  0  0  0
   11.5390   -6.1575    0.0000 C   0  0  0  0  0  0  0  0  0  0  0  0
    2.7670   -7.8375    0.0000 C   0  0  2  0  0  0  0  0  0  0  0  0
    2.7670   -8.6625    0.0000 C   0  0  2  0  0  0  0  0  0  0  0  0
    3.4815   -9.0750    0.0000 C   0  0  1  0  0  0  0  0  0  0  0  0
    4.1960   -8.6625    0.0000 C   0  0  2  0  0  0  0  0  0  0  0  0
    4.1960   -7.8375    0.0000 C   0  0  1  0  0  0  0  0  0  0  0  0
    3.4815   -7.4250    0.0000 O   0  0  0  0  0  0  0  0  0  0  0  0
    2.0526   -7.4250    0.0000 C   0  0  0  0  0  0  0  0  0  0  0  0
    3.4815   -9.9000    0.0000 O   0  0  0  0  0  0  0  0  0  0  0  0
    2.0526   -9.0750    0.0000 O   0  0  0  0  0  0  0  0  0  0  0  0
    4.9104   -9.0750    0.0000 O   0  0  0  0  0  0  0  0  0  0  0  0
    1.3381   -7.8375    0.0000 O   0  0  0  0  0  0  0  0  0  0  0  0
  1  2  1  0  0  0  0
  2  3  1  0  0  0  0
  3  4  1  0  0  0  0
  4  5  1  0  0  0  0
  5  6  1  0  0  0  0
  6  1  1  0  0  0  0
  6  7  1  0  0  0  0
  7  8  1  0  0  0  0
  8  9  1  0  0  0  0
  9 10  1  0  0  0  0
 10 11  1  0  0  0  0
 11  6  1  0  0  0  0
  7 12  1  0  0  0  0
 12 13  1  0  0  0  0
 13 14  1  0  0  0  0
 14 15  1  0  0  0  0
 15  8  1  0  0  0  0
 14 16  1  0  0  0  0
 16 17  1  0  0  0  0
 17 18  1  0  0  0  0
 18 19  1  0  0  0  0
 19 15  1  0  0  0  0
  1 20  1  0  0  0  0
  3 21  2  0  0  0  0
 11 22  1  0  0  0  0
 22 23  1  0  0  0  0
 22 24  1  0  0  0  0
 22 25  1  0  0  0  0
  8 26  1  0  0  0  0
  9 27  2  0  0  0  0
 15 28  1  0  0  0  0
 19 28  1  0  0  0  0
 14 29  1  0  0  0  0
 16 30  1  0  0  0  0
 18 31  2  0  0  0  0
 30 32  1  0  0  0  0
 32 33  2  0  0  0  0
 33 34  1  0  0  0  0
 34 35  1  0  0  0  0
 35 30  2  0  0  0  0
 36 37  1  0  0  0  0
 37 38  1  0  0  0  0
 38 39  1  0  0  0  0
 39 40  1  0  0  0  0
 40 41  1  0  0  0  0
 41 36  1  0  0  0  0
 36 42  1  1  0  0  0
 38 43  1  1  0  0  0
 37 44  1  6  0  0  0
 39 45  1  6  0  0  0
 42 46  1  0  0  0  0
 40 23  1  1  0  0  0
M  END
>  <cdx:fragmentId>
5

$$$$
