117.cdx
  Mrv1902 05222410202D          

 22 23  0  0  0  0            999 V2000
    6.9828  -10.1783    0.0000 C   0  0  0  0  0  0  0  0  0  0  0  0
    6.2683  -10.5908    0.0000 C   0  0  0  0  0  0  0  0  0  0  0  0
    5.5539  -10.1783    0.0000 C   0  0  0  0  0  0  0  0  0  0  0  0
    4.8394  -10.5908    0.0000 C   0  0  0  0  0  0  0  0  0  0  0  0
    4.1249  -10.1783    0.0000 C   0  0  0  0  0  0  0  0  0  0  0  0
    3.4105  -10.5908    0.0000 C   0  0  0  0  0  0  0  0  0  0  0  0
    2.6960  -10.1783    0.0000 O   0  0  0  0  0  0  0  0  0  0  0  0
    3.4105  -11.4158    0.0000 C   0  0  0  0  0  0  0  0  0  0  0  0
    2.6960  -11.8283    0.0000 O   0  0  0  0  0  0  0  0  0  0  0  0
    4.1249  -11.8283    0.0000 C   0  0  0  0  0  0  0  0  0  0  0  0
    4.8394  -11.4158    0.0000 C   0  0  0  0  0  0  0  0  0  0  0  0
    6.9828   -9.3533    0.0000 O   0  0  0  0  0  0  0  0  0  0  0  0
    7.6973  -10.5908    0.0000 O   0  0  0  0  0  0  0  0  0  0  0  0
    8.4118  -10.1783    0.0000 C   0  0  0  0  0  0  0  0  0  0  0  0
    9.1262  -10.5908    0.0000 C   0  0  0  0  0  0  0  0  0  0  0  0
    9.8407  -10.1783    0.0000 C   0  0  0  0  0  0  0  0  0  0  0  0
   10.5552  -10.5908    0.0000 C   0  0  0  0  0  0  0  0  0  0  0  0
   11.2696  -10.1783    0.0000 C   0  0  0  0  0  0  0  0  0  0  0  0
   11.9841  -10.5908    0.0000 C   0  0  0  0  0  0  0  0  0  0  0  0
   11.9841  -11.4158    0.0000 C   0  0  0  0  0  0  0  0  0  0  0  0
   11.2696  -11.8283    0.0000 C   0  0  0  0  0  0  0  0  0  0  0  0
   10.5552  -11.4158    0.0000 C   0  0  0  0  0  0  0  0  0  0  0  0
  1  2  1  0  0  0  0
  2  3  2  0  0  0  0
  3  4  1  0  0  0  0
  4  5  1  0  0  0  0
  5  6  2  0  0  0  0
  6  7  1  0  0  0  0
  6  8  1  0  0  0  0
  8  9  1  0  0  0  0
  8 10  2  0  0  0  0
 10 11  1  0  0  0  0
  4 11  2  0  0  0  0
  1 12  2  0  0  0  0
  1 13  1  0  0  0  0
 14 15  1  0  0  0  0
 15 16  2  0  0  0  0
 16 17  1  0  0  0  0
 17 18  1  0  0  0  0
 18 19  2  0  0  0  0
 19 20  1  0  0  0  0
 20 21  2  0  0  0  0
 21 22  1  0  0  0  0
 17 22  2  0  0  0  0
 13 14  1  0  0  0  0
M  END
>  <cdx:groupId>
69

>  <cdx:fragmentId>
5

$$$$
