11705.cdx
  Mrv1902 05222410202D          

 39 44  0  0  0  0            999 V2000
    9.5397   -6.0788    0.0000 O   0  0  0  0  0  0  0  0  0  0  0  0
    8.0645   -4.9413    0.0000 H   0  0  0  0  0  0  0  0  0  0  0  0
    7.8724   -7.7501    0.0000 H   0  0  0  0  0  0  0  0  0  0  0  0
    6.6233   -6.9646    0.0000 H   0  0  0  0  0  0  0  0  0  0  0  0
    7.7479   -9.1681    0.0000 H   0  0  0  0  0  0  0  0  0  0  0  0
    6.0063   -9.4203    0.0000 H   0  0  0  0  0  0  0  0  0  0  0  0
    5.3160  -10.6660    0.0000 H   0  0  0  0  0  0  0  0  0  0  0  0
    7.4139   -3.4233    0.0000 C   0  0  0  0  0  0  0  0  0  0  0  0
    7.9311   -6.3640    0.0000 H   0  0  0  0  0  0  0  0  0  0  0  0
    7.4236   -9.4775    0.0000 H   0  0  0  0  0  0  0  0  0  0  0  0
    5.3370   -8.1913    0.0000 C   0  0  0  0  0  0  0  0  0  0  0  0
    3.1878  -10.2696    0.0000 O   0  0  0  0  0  0  0  0  0  0  0  0
    9.4627   -6.9002    0.0000 C   0  0  0  0  0  0  0  0  0  0  0  0
    6.0502  -11.0706    0.0000 O   0  0  0  0  0  0  0  0  0  0  0  0
    4.6028   -8.6117    0.0000 C   0  0  0  0  0  0  0  0  0  0  0  0
    3.8930   -9.0322    0.0000 C   0  0  0  0  0  0  0  0  0  0  0  0
    3.9023   -9.8571    0.0000 C   0  0  1  0  0  0  0  0  0  0  0  0
    4.6213  -10.2616    0.0000 C   0  0  0  0  0  0  0  0  0  0  0  0
    5.3219   -9.0162    0.0000 C   0  0  2  0  0  0  0  0  0  0  0  0
    5.3311   -9.8411    0.0000 C   0  0  1  0  0  0  0  0  0  0  0  0
    6.0502  -10.2456    0.0000 C   0  0  0  0  0  0  0  0  0  0  0  0
    6.7600   -9.8251    0.0000 C   0  0  0  0  0  0  0  0  0  0  0  0
    6.1942   -7.7868    0.0000 C   0  0  0  0  0  0  0  0  0  0  0  0
    6.0317   -8.5957    0.0000 C   0  0  1  0  0  0  0  0  0  0  0  0
    6.7507   -9.0001    0.0000 C   0  0  2  0  0  0  0  0  0  0  0  0
    8.9233   -5.0001    0.0000 C   0  0  0  0  0  0  0  0  0  0  0  0
    8.5793   -4.2502    0.0000 C   0  0  0  0  0  0  0  0  0  0  0  0
    7.7579   -4.1732    0.0000 C   0  0  1  0  0  0  0  0  0  0  0  0
    7.2805   -4.8460    0.0000 C   0  0  0  0  0  0  0  0  0  0  0  0
    8.7898   -6.4228    0.0000 C   0  0  2  0  0  0  0  0  0  0  0  0
    8.4458   -5.6729    0.0000 C   0  0  1  0  0  0  0  0  0  0  0  0
    7.6245   -5.5959    0.0000 N   0  0  0  0  0  0  0  0  0  0  0  0
    7.1470   -6.2687    0.0000 C   0  0  0  0  0  0  0  0  0  0  0  0
    8.6564   -7.8455    0.0000 C   0  0  0  0  0  0  0  0  0  0  0  0
    8.3124   -7.0956    0.0000 C   0  0  2  0  0  0  0  0  0  0  0  0
    7.4910   -7.0186    0.0000 C   0  0  2  0  0  0  0  0  0  0  0  0
    7.0136   -7.6914    0.0000 C   0  0  1  0  0  0  0  0  0  0  0  0
    7.3576   -8.4413    0.0000 C   0  0  1  0  0  0  0  0  0  0  0  0
    8.1790   -8.5183    0.0000 C   0  0  0  0  0  0  0  0  0  0  0  0
 30  1  1  1  0  0  0
 31  2  1  6  0  0  0
 36  3  1  1  0  0  0
 37  4  1  6  0  0  0
 38  5  1  6  0  0  0
 24  6  1  6  0  0  0
 20  7  1  6  0  0  0
 28  8  1  1  0  0  0
 35  9  1  1  0  0  0
 25 10  1  1  0  0  0
 19 11  1  1  0  0  0
 17 12  1  1  0  0  0
 30 13  1  6  0  0  0
 21 14  2  0  0  0  0
 15 19  1  0  0  0  0
 16 15  1  0  0  0  0
 17 16  1  0  0  0  0
 18 17  1  0  0  0  0
 20 18  1  0  0  0  0
 19 24  1  0  0  0  0
 20 19  1  0  0  0  0
 21 20  1  0  0  0  0
 22 21  1  0  0  0  0
 25 22  1  0  0  0  0
 23 37  1  0  0  0  0
 24 23  1  0  0  0  0
 25 24  1  0  0  0  0
 38 25  1  0  0  0  0
 26 31  1  0  0  0  0
 27 26  1  0  0  0  0
 28 27  1  0  0  0  0
 29 28  1  0  0  0  0
 32 29  1  0  0  0  0
 30 35  1  0  0  0  0
 31 30  1  0  0  0  0
 32 31  1  0  0  0  0
 33 32  1  0  0  0  0
 36 33  1  0  0  0  0
 34 39  1  0  0  0  0
 35 34  1  0  0  0  0
 36 35  1  0  0  0  0
 37 36  1  0  0  0  0
 38 37  1  0  0  0  0
 39 38  1  0  0  0  0
M  END
>  <cdx:fragmentId>
5

$$$$
