11706.cdx
  Mrv1902 05222410192D          

 20 22  0  0  0  0            999 V2000
    4.2727   -7.4663    0.0000 C   0  0  0  0  0  0  0  0  0  0  0  0
    4.2727   -8.2912    0.0000 C   0  0  0  0  0  0  0  0  0  0  0  0
    4.9871   -8.7037    0.0000 C   0  0  0  0  0  0  0  0  0  0  0  0
    5.7016   -8.2912    0.0000 C   0  0  0  0  0  0  0  0  0  0  0  0
    5.7016   -7.4663    0.0000 C   0  0  0  0  0  0  0  0  0  0  0  0
    4.9871   -7.0537    0.0000 O   0  0  0  0  0  0  0  0  0  0  0  0
    6.4161   -8.7037    0.0000 C   0  0  0  0  0  0  0  0  0  0  0  0
    7.1305   -8.2912    0.0000 C   0  0  0  0  0  0  0  0  0  0  0  0
    7.1305   -7.4663    0.0000 C   0  0  0  0  0  0  0  0  0  0  0  0
    6.4161   -7.0537    0.0000 C   0  0  0  0  0  0  0  0  0  0  0  0
    7.9152   -8.5462    0.0000 C   0  0  0  0  0  0  0  0  0  0  0  0
    8.4001   -7.8788    0.0000 C   0  0  0  0  0  0  0  0  0  0  0  0
    7.9152   -7.2113    0.0000 O   0  0  0  0  0  0  0  0  0  0  0  0
    3.5582   -7.0537    0.0000 O   0  0  0  0  0  0  0  0  0  0  0  0
    6.4161   -6.2287    0.0000 O   0  0  0  0  0  0  0  0  0  0  0  0
    7.1305   -5.8163    0.0000 C   0  0  0  0  0  0  0  0  0  0  0  0
    7.1305   -4.9913    0.0000 C   0  0  0  0  0  0  0  0  0  0  0  0
    7.8450   -4.5788    0.0000 C   0  0  0  0  0  0  0  0  0  0  0  0
    7.8450   -3.7538    0.0000 C   0  0  0  0  0  0  0  0  0  0  0  0
    8.5595   -4.9913    0.0000 C   0  0  0  0  0  0  0  0  0  0  0  0
  1  2  1  0  0  0  0
  2  3  2  0  0  0  0
  3  4  1  0  0  0  0
  4  5  1  0  0  0  0
  5  6  1  0  0  0  0
  6  1  1  0  0  0  0
  4  7  2  0  0  0  0
  7  8  1  0  0  0  0
  8  9  2  0  0  0  0
  9 10  1  0  0  0  0
 10  5  2  0  0  0  0
  8 11  1  0  0  0  0
 11 12  2  0  0  0  0
 12 13  1  0  0  0  0
 13  9  1  0  0  0  0
  1 14  2  0  0  0  0
 10 15  1  0  0  0  0
 15 16  1  0  0  0  0
 16 17  1  0  0  0  0
 17 18  2  0  0  0  0
 18 19  1  0  0  0  0
 18 20  1  0  0  0  0
M  END
>  <cdx:fragmentId>
5

$$$$
