11709.cdx
  Mrv1902 05222410262D          

  9  8  0  0  0  0            999 V2000
    5.1860   -2.0702    0.0000 C   0  0  0  0  0  0  0  0  0  0  0  0
    5.9004   -2.4827    0.0000 C   0  0  0  0  0  0  0  0  0  0  0  0
    6.6149   -2.0702    0.0000 C   0  0  0  0  0  0  0  0  0  0  0  0
    4.4715   -2.4827    0.0000 S   0  0  0  0  0  0  0  0  0  0  0  0
    4.0590   -1.7682    0.0000 O   0  0  0  0  0  0  0  0  0  0  0  0
    4.8840   -3.1971    0.0000 O   0  0  0  0  0  0  0  0  0  0  0  0
    3.7570   -2.8952    0.0000 C   0  0  0  0  0  0  0  0  0  0  0  0
    3.0426   -2.4827    0.0000 C   0  0  0  0  0  0  0  0  0  0  0  0
    2.3281   -2.8952    0.0000 C   0  0  0  0  0  0  0  0  0  0  0  0
  1  2  1  0  0  0  0
  2  3  1  0  0  0  0
  4  5  2  0  0  0  0
  4  6  2  0  0  0  0
  7  8  1  0  0  0  0
  8  9  1  0  0  0  0
  4  7  1  0  0  0  0
  1  4  1  0  0  0  0
M  END
>  <cdx:groupId>
28

>  <cdx:fragmentId>
17

$$$$
