117122.cdx
  Mrv1902 05222410282D          

 50 55  0  0  0  0            999 V2000
    8.5363   -6.0115    0.0000 C   0  0  2  0  0  0  0  0  0  0  0  0
    9.2507   -5.5990    0.0000 C   0  0  0  0  0  0  0  0  0  0  0  0
    9.9652   -6.0115    0.0000 C   0  0  0  0  0  0  0  0  0  0  0  0
    9.9652   -6.8365    0.0000 C   0  0  0  0  0  0  0  0  0  0  0  0
    9.2507   -7.2490    0.0000 C   0  0  2  0  0  0  0  0  0  0  0  0
    9.2507   -8.0740    0.0000 C   0  0  0  0  0  0  0  0  0  0  0  0
    8.5363   -8.4865    0.0000 C   0  0  0  0  0  0  0  0  0  0  0  0
    7.8218   -8.0740    0.0000 C   0  0  1  0  0  0  0  0  0  0  0  0
    7.1073   -8.4865    0.0000 C   0  0  2  0  0  0  0  0  0  0  0  0
    7.1073   -9.3115    0.0000 C   0  0  0  0  0  0  0  0  0  0  0  0
    6.3929   -9.7240    0.0000 C   0  0  0  0  0  0  0  0  0  0  0  0
    5.6784   -9.3115    0.0000 C   0  0  1  0  0  0  0  0  0  0  0  0
    4.9639   -9.7240    0.0000 C   0  0  0  0  0  0  0  0  0  0  0  0
    4.2494   -9.3115    0.0000 C   0  0  2  0  0  0  0  0  0  0  0  0
    4.2494   -8.4865    0.0000 C   0  0  1  0  0  0  0  0  0  0  0  0
    4.9639   -8.0740    0.0000 C   0  0  0  0  0  0  0  0  0  0  0  0
    5.6784   -8.4865    0.0000 C   0  0  2  0  0  0  0  0  0  0  0  0
    6.3929   -8.0740    0.0000 C   0  0  1  0  0  0  0  0  0  0  0  0
    6.3929   -7.2490    0.0000 C   0  0  0  0  0  0  0  0  0  0  0  0
    7.1073   -6.8365    0.0000 C   0  0  0  0  0  0  0  0  0  0  0  0
    7.8218   -7.2490    0.0000 C   0  0  0  0  0  0  0  0  0  0  0  0
    8.5363   -6.8365    0.0000 C   0  0  2  0  0  0  0  0  0  0  0  0
    5.6784   -6.8365    0.0000 O   0  0  0  0  0  0  0  0  0  0  0  0
    5.6784   -7.6615    0.0000 C   0  0  0  0  0  0  0  0  0  0  0  0
    5.3764  -10.4385    0.0000 C   0  0  0  0  0  0  0  0  0  0  0  0
    4.5514  -10.4385    0.0000 C   0  0  0  0  0  0  0  0  0  0  0  0
    8.8382   -4.8845    0.0000 C   0  0  0  0  0  0  0  0  0  0  0  0
    9.6632   -4.8845    0.0000 C   0  0  0  0  0  0  0  0  0  0  0  0
    3.5350   -8.0740    0.0000 O   0  0  0  0  0  0  0  0  0  0  0  0
    3.5350   -9.7240    0.0000 O   0  0  0  0  0  0  0  0  0  0  0  0
    7.8218   -5.5990    0.0000 O   0  0  0  0  0  0  0  0  0  0  0  0
    5.6784  -10.1365    0.0000 H   0  0  0  0  0  0  0  0  0  0  0  0
    8.5363   -7.6615    0.0000 H   0  0  0  0  0  0  0  0  0  0  0  0
   10.8283   -9.8928    0.0000 O   0  0  0  0  0  0  0  0  0  0  0  0
   10.0419  -11.3434    0.0000 O   0  0  0  0  0  0  0  0  0  0  0  0
    8.3925  -11.3876    0.0000 O   0  0  0  0  0  0  0  0  0  0  0  0
    7.1363  -10.7066    0.0000 O   0  0  0  0  0  0  0  0  0  0  0  0
    7.5295   -9.9814    0.0000 C   0  0  0  0  0  0  0  0  0  0  0  0
    8.3542   -9.9592    0.0000 C   0  0  2  0  0  0  0  0  0  0  0  0
    8.7857  -10.6624    0.0000 C   0  0  2  0  0  0  0  0  0  0  0  0
    9.6104  -10.6402    0.0000 C   0  0  1  0  0  0  0  0  0  0  0  0
   10.0036   -9.9149    0.0000 C   0  0  2  0  0  0  0  0  0  0  0  0
    9.5720   -9.2118    0.0000 C   0  0  1  0  0  0  0  0  0  0  0  0
    8.7473   -9.2339    0.0000 O   0  0  0  0  0  0  0  0  0  0  0  0
    9.9652   -8.4865    0.0000 O   0  0  0  0  0  0  0  0  0  0  0  0
   10.6797   -7.2490    0.0000 O   0  0  0  0  0  0  0  0  0  0  0  0
    9.9652   -7.6615    0.0000 C   0  0  0  0  0  0  0  0  0  0  0  0
    7.1073   -7.6615    0.0000 C   0  0  0  0  0  0  0  0  0  0  0  0
    6.3929   -8.8990    0.0000 H   0  0  0  0  0  0  0  0  0  0  0  0
    7.8218   -8.8990    0.0000 C   0  0  0  0  0  0  0  0  0  0  0  0
 43 45  1  1  0  0  0
 42 34  1  6  0  0  0
 41 35  1  1  0  0  0
 40 36  1  6  0  0  0
 39 38  1  1  0  0  0
 38 37  1  0  0  0  0
 44 39  1  0  0  0  0
 40 39  1  0  0  0  0
 41 40  1  0  0  0  0
 42 41  1  0  0  0  0
 43 42  1  0  0  0  0
 44 43  1  0  0  0  0
 47 45  1  0  0  0  0
 47 46  2  0  0  0  0
  1  2  1  0  0  0  0
  2  3  1  0  0  0  0
  3  4  1  0  0  0  0
  4  5  1  0  0  0  0
  5  6  1  0  0  0  0
  6  7  1  0  0  0  0
  7  8  1  0  0  0  0
  8  9  1  0  0  0  0
  9 10  1  0  0  0  0
 10 11  1  0  0  0  0
 11 12  1  0  0  0  0
 12 13  1  0  0  0  0
 13 14  1  0  0  0  0
 14 15  1  0  0  0  0
 15 16  1  0  0  0  0
 16 17  1  0  0  0  0
 12 17  1  0  0  0  0
 17 18  1  0  0  0  0
  9 18  1  0  0  0  0
 18 19  1  0  0  0  0
 19 20  1  0  0  0  0
 20 21  2  0  0  0  0
  8 21  1  0  0  0  0
 21 22  1  0  0  0  0
  5 22  1  0  0  0  0
  1 22  1  0  0  0  0
  5 47  1  1  0  0  0
 19 23  2  0  0  0  0
 17 24  1  1  0  0  0
 13 25  1  0  0  0  0
 13 26  1  0  0  0  0
  2 27  1  0  0  0  0
  2 28  1  0  0  0  0
 15 29  1  6  0  0  0
 14 30  1  1  0  0  0
  1 31  1  6  0  0  0
 12 32  1  6  0  0  0
 22 33  1  1  0  0  0
  9 48  1  1  0  0  0
 18 49  1  6  0  0  0
  8 50  1  6  0  0  0
M  END
>  <cdx:fragmentId>
19408

$$$$
