117121.cdx
  Mrv1902 05222410272D          

 28 31  0  0  0  0            999 V2000
    5.7573   -9.1280    0.0000 C   0  0  0  0  0  0  0  0  0  0  0  0
    5.0428   -9.5405    0.0000 C   0  0  0  0  0  0  0  0  0  0  0  0
    5.0428  -10.3655    0.0000 C   0  0  1  0  0  0  0  0  0  0  0  0
    5.7573  -10.7780    0.0000 C   0  0  0  0  0  0  0  0  0  0  0  0
    6.4717  -10.3655    0.0000 C   0  0  0  0  0  0  0  0  0  0  0  0
    7.1862  -10.7780    0.0000 C   0  0  0  0  0  0  0  0  0  0  0  0
    7.9007  -10.3655    0.0000 C   0  0  0  0  0  0  0  0  0  0  0  0
    7.9007   -9.5405    0.0000 C   0  0  1  0  0  0  0  0  0  0  0  0
    8.6151   -9.1280    0.0000 C   0  0  1  0  0  0  0  0  0  0  0  0
    9.3998   -9.3829    0.0000 C   0  0  0  0  0  0  0  0  0  0  0  0
    9.8847   -8.7155    0.0000 C   0  0  0  0  0  0  0  0  0  0  0  0
    9.3998   -8.0481    0.0000 C   0  0  1  0  0  0  0  0  0  0  0  0
    8.6151   -8.3030    0.0000 C   0  0  1  0  0  0  0  0  0  0  0  0
    7.9007   -7.8905    0.0000 C   0  0  1  0  0  0  0  0  0  0  0  0
    7.1862   -8.3030    0.0000 C   0  0  2  0  0  0  0  0  0  0  0  0
    7.1862   -9.1280    0.0000 C   0  0  2  0  0  0  0  0  0  0  0  0
    6.4717   -9.5405    0.0000 C   0  0  1  0  0  0  0  0  0  0  0  0
    4.3283  -10.7780    0.0000 O   0  0  0  0  0  0  0  0  0  0  0  0
    6.4717   -7.8905    0.0000 O   0  0  0  0  0  0  0  0  0  0  0  0
    7.9007   -7.0655    0.0000 O   0  0  0  0  0  0  0  0  0  0  0  0
    8.6151   -9.9530    0.0000 O   0  0  0  0  0  0  0  0  0  0  0  0
    8.7014   -7.4825    0.0000 C   0  0  0  0  0  0  0  0  0  0  0  0
    6.4717   -8.7155    0.0000 C   0  0  0  0  0  0  0  0  0  0  0  0
    9.6547   -7.2634    0.0000 C   0  0  1  0  0  0  0  0  0  0  0  0
   10.4617   -7.0919    0.0000 C   0  0  0  0  0  0  0  0  0  0  0  0
    9.1027   -6.6503    0.0000 O   0  0  0  0  0  0  0  0  0  0  0  0
    7.9007   -8.7155    0.0000 H   0  0  0  0  0  0  0  0  0  0  0  0
    7.1862   -9.9530    0.0000 H   0  0  0  0  0  0  0  0  0  0  0  0
  1  2  1  0  0  0  0
  2  3  1  0  0  0  0
  3  4  1  0  0  0  0
  4  5  1  0  0  0  0
  5  6  2  0  0  0  0
  6  7  1  0  0  0  0
  7  8  1  0  0  0  0
  8  9  1  0  0  0  0
  9 10  1  0  0  0  0
 10 11  1  0  0  0  0
 12 11  1  1  0  0  0
 12 13  1  0  0  0  0
  9 13  1  0  0  0  0
 13 14  1  0  0  0  0
 14 15  1  0  0  0  0
 15 16  1  0  0  0  0
  8 16  1  0  0  0  0
 16 17  1  0  0  0  0
  5 17  1  0  0  0  0
  1 17  1  0  0  0  0
  3 18  1  1  0  0  0
 15 19  1  6  0  0  0
 14 20  1  1  0  0  0
  9 21  1  1  0  0  0
 13 22  1  1  0  0  0
 17 23  1  1  0  0  0
 24 25  1  0  0  0  0
 24 26  1  6  0  0  0
 12 24  1  0  0  0  0
  8 27  1  1  0  0  0
 16 28  1  6  0  0  0
M  END
>  <cdx:fragmentId>
19315

$$$$
