11719.cdx
  Mrv1902 05222410282D          

 24 26  0  0  0  0            999 V2000
    4.4170   -7.6931    0.0000 C   0  0  0  0  0  0  0  0  0  0  0  0
    5.1315   -8.9306    0.0000 O   0  0  0  0  0  0  0  0  0  0  0  0
    5.8460   -8.5181    0.0000 C   0  0  0  0  0  0  0  0  0  0  0  0
    5.8460   -7.6931    0.0000 C   0  0  0  0  0  0  0  0  0  0  0  0
    5.1315   -7.2806    0.0000 C   0  0  0  0  0  0  0  0  0  0  0  0
    6.5604   -8.9306    0.0000 C   0  0  0  0  0  0  0  0  0  0  0  0
    7.2749   -8.5181    0.0000 C   0  0  0  0  0  0  0  0  0  0  0  0
    7.2749   -7.6931    0.0000 C   0  0  0  0  0  0  0  0  0  0  0  0
    6.5604   -7.2806    0.0000 C   0  0  0  0  0  0  0  0  0  0  0  0
    7.9894   -8.9306    0.0000 O   0  0  0  0  0  0  0  0  0  0  0  0
    8.7039   -8.5181    0.0000 C   0  0  0  0  0  0  0  0  0  0  0  0
    8.7039   -7.6931    0.0000 C   0  0  0  0  0  0  0  0  0  0  0  0
    7.9894   -7.2806    0.0000 C   0  0  0  0  0  0  0  0  0  0  0  0
    8.7039   -6.0431    0.0000 C   0  0  0  0  0  0  0  0  0  0  0  0
    7.9894   -6.4556    0.0000 C   0  0  0  0  0  0  0  0  0  0  0  0
    8.7039   -5.2181    0.0000 C   0  0  0  0  0  0  0  0  0  0  0  0
    7.9894   -4.8056    0.0000 C   0  0  0  0  0  0  0  0  0  0  0  0
    7.2749   -5.2181    0.0000 C   0  0  0  0  0  0  0  0  0  0  0  0
    7.2749   -6.0431    0.0000 C   0  0  0  0  0  0  0  0  0  0  0  0
    7.9894   -3.9806    0.0000 O   0  0  0  0  0  0  0  0  0  0  0  0
    9.4183   -8.9306    0.0000 O   0  0  0  0  0  0  0  0  0  0  0  0
    3.7026   -7.2806    0.0000 C   0  0  0  0  0  0  0  0  0  0  0  0
    2.9881   -7.6931    0.0000 C   0  0  0  0  0  0  0  0  0  0  0  0
    3.7026   -6.4556    0.0000 C   0  0  0  0  0  0  0  0  0  0  0  0
  2  3  1  0  0  0  0
  3  4  1  0  0  0  0
  4  5  1  0  0  0  0
  5  1  1  0  0  0  0
  3  6  2  0  0  0  0
  6  7  1  0  0  0  0
  7  8  2  0  0  0  0
  8  9  1  0  0  0  0
  9  4  2  0  0  0  0
  7 10  1  0  0  0  0
 10 11  1  0  0  0  0
 11 12  1  0  0  0  0
 12 13  2  0  0  0  0
 13  8  1  0  0  0  0
 14 15  2  0  0  0  0
 15 13  1  0  0  0  0
 14 16  1  0  0  0  0
 16 17  2  0  0  0  0
 17 18  1  0  0  0  0
 18 19  2  0  0  0  0
 19 15  1  0  0  0  0
 17 20  1  0  0  0  0
 11 21  2  0  0  0  0
  1 22  2  0  0  0  0
 22 23  1  0  0  0  0
 22 24  1  0  0  0  0
M  END
>  <cdx:fragmentId>
5

$$$$
