1171.cdx
  Mrv1902 05222410252D          

 42 47  0  0  0  0            999 V2000
    6.3850   -2.0801    0.0000 O   0  0  0  0  0  0  0  0  0  0  0  0
    4.8876   -4.3926    0.0000 N   0  0  0  0  0  0  0  0  0  0  0  0
    4.8889   -3.0647    0.0000 N   0  0  0  0  0  0  0  0  0  0  0  0
    6.3826   -4.5552    0.0000 N   0  0  0  0  0  0  0  0  0  0  0  0
    7.0983   -3.3183    0.0000 N   0  0  0  0  0  0  0  0  0  0  0  0
    7.8116   -4.5565    0.0000 N   0  0  0  0  0  0  0  0  0  0  0  0
    5.6685   -4.1420    0.0000 C   0  0  0  0  0  0  0  0  0  0  0  0
    4.4068   -3.7282    0.0000 C   0  0  0  0  0  0  0  0  0  0  0  0
    5.6693   -3.3169    0.0000 C   0  0  0  0  0  0  0  0  0  0  0  0
    6.3842   -2.9051    0.0000 C   0  0  0  0  0  0  0  0  0  0  0  0
    7.0975   -4.1433    0.0000 C   0  0  0  0  0  0  0  0  0  0  0  0
    9.5007   -6.7155    0.0000 C   0  0  0  0  0  0  0  0  0  0  0  0
    8.7731   -5.4855    0.0000 C   0  0  0  0  0  0  0  0  0  0  0  0
    8.0630   -5.9056    0.0000 C   0  0  0  0  0  0  0  0  0  0  0  0
    6.8053   -6.3314    0.0000 C   0  0  0  0  0  0  0  0  0  0  0  0
    8.0717   -6.7305    0.0000 C   0  0  0  0  0  0  0  0  0  0  0  0
    3.1741   -6.7374    0.0000 C   0  0  0  0  0  0  0  0  0  0  0  0
    5.6074   -9.3547    0.0000 C   0  0  0  0  0  0  0  0  0  0  0  0
    7.5365   -8.4402    0.0000 C   0  0  2  0  0  0  0  0  0  0  0  0
    7.0574   -9.1119    0.0000 C   0  0  1  0  0  0  0  0  0  0  0  0
    6.2633   -8.0389    0.0000 O   0  0  0  0  0  0  0  0  0  0  0  0
    7.0457   -7.7771    0.0000 C   0  0  1  0  0  0  0  0  0  0  0  0
    3.8452   -5.4293    0.0000 O   0  0  0  0  0  0  0  0  0  0  0  0
    6.2706   -8.8639    0.0000 C   0  0  2  0  0  0  0  0  0  0  0  0
    5.1136   -5.8454    0.0000 C   0  0  2  0  0  0  0  0  0  0  0  0
    4.6268   -6.5115    0.0000 C   0  0  1  0  0  0  0  0  0  0  0  0
    4.6306   -5.1765    0.0000 C   0  0  2  0  0  0  0  0  0  0  0  0
    3.8429   -6.2543    0.0000 C   0  0  1  0  0  0  0  0  0  0  0  0
    8.7645   -4.6606    0.0000 N   0  0  0  0  0  0  0  0  0  0  0  0
    9.4920   -5.8905    0.0000 N   0  0  0  0  0  0  0  0  0  0  0  0
    8.7905   -7.1355    0.0000 N   0  0  0  0  0  0  0  0  0  0  0  0
    7.2798   -5.6624    0.0000 N   0  0  0  0  0  0  0  0  0  0  0  0
    7.2938   -6.9902    0.0000 N   0  0  0  0  0  0  0  0  0  0  0  0
    4.0599   -8.1271    0.0000 O   0  0  0  0  0  0  0  0  0  0  0  0
    5.7099   -8.1165    0.0000 O   0  0  0  0  0  0  0  0  0  0  0  0
    3.1741   -7.5624    0.0000 O   0  0  0  0  0  0  0  0  0  0  0  0
    8.3615   -8.4329    0.0000 O   0  0  0  0  0  0  0  0  0  0  0  0
    7.3194   -9.8943    0.0000 O   0  0  0  0  0  0  0  0  0  0  0  0
    4.8902   -8.9469    0.0000 O   0  0  0  0  0  0  0  0  0  0  0  0
    5.9387   -5.8477    0.0000 O   0  0  0  0  0  0  0  0  0  0  0  0
    4.8796   -7.2968    0.0000 O   0  0  0  0  0  0  0  0  0  0  0  0
    4.8849   -8.1218    0.0000 P   0  0  0  0  0  0  0  0  0  0  0  0
 14 13  2  0  0  0  0
 16 14  1  0  0  0  0
 20 19  1  0  0  0  0
 22 19  1  0  0  0  0
 22 21  1  0  0  0  0
 24 18  1  1  0  0  0
 24 20  1  0  0  0  0
 24 21  1  0  0  0  0
 26 25  1  0  0  0  0
 27 23  1  0  0  0  0
 27 25  1  0  0  0  0
 28 17  1  1  0  0  0
 28 23  1  0  0  0  0
 28 26  1  0  0  0  0
 29 13  1  0  0  0  0
 30 12  2  0  0  0  0
 30 13  1  0  0  0  0
 31 12  1  0  0  0  0
 31 16  2  0  0  0  0
 32 14  1  0  0  0  0
 32 15  2  0  0  0  0
 33 15  1  0  0  0  0
 33 16  1  0  0  0  0
 22 33  1  1  0  0  0
 36 17  1  0  0  0  0
 19 37  1  6  0  0  0
 20 38  1  6  0  0  0
 39 18  1  0  0  0  0
 25 40  1  6  0  0  0
 26 41  1  6  0  0  0
 42 34  2  0  0  0  0
 42 35  1  0  0  0  0
 42 39  1  0  0  0  0
 42 41  1  0  0  0  0
  1 10  2  0  0  0  0
 27  2  1  1  0  0  0
  2  7  1  0  0  0  0
  2  8  1  0  0  0  0
  3  8  2  0  0  0  0
  3  9  1  0  0  0  0
  4  7  1  0  0  0  0
  4 11  2  0  0  0  0
  5 10  1  0  0  0  0
  5 11  1  0  0  0  0
  6 11  1  0  0  0  0
  7  9  2  0  0  0  0
  9 10  1  0  0  0  0
M  END
>  <cdx:fragmentId>
1

$$$$
