102117125.cdx
  Mrv1902 05222410262D          

 36 39  0  0  0  0            999 V2000
    8.4213  -13.3904    0.0000 C   0  0  0  0  0  0  0  0  0  0  0  0
    8.5928  -14.1974    0.0000 C   0  0  1  0  0  0  0  0  0  0  0  0
    9.3998  -14.0259    0.0000 C   0  0  0  0  0  0  0  0  0  0  0  0
    9.6547  -13.2413    0.0000 C   0  0  0  0  0  0  0  0  0  0  0  0
   10.4617  -13.0697    0.0000 C   0  0  0  0  0  0  0  0  0  0  0  0
   10.7166  -12.2851    0.0000 C   0  0  0  0  0  0  0  0  0  0  0  0
   10.1646  -11.6720    0.0000 C   0  0  0  0  0  0  0  0  0  0  0  0
    7.8082  -13.9425    0.0000 O   0  0  0  0  0  0  0  0  0  0  0  0
   11.0137  -13.6828    0.0000 O   0  0  0  0  0  0  0  0  0  0  0  0
   11.5236  -12.1136    0.0000 C   0  0  0  0  0  0  0  0  0  0  0  0
    4.6953  -16.0620    0.0000 C   0  0  0  0  0  0  0  0  0  0  0  0
    3.9809  -16.4745    0.0000 C   0  0  0  0  0  0  0  0  0  0  0  0
    3.9809  -17.2995    0.0000 C   0  0  1  0  0  0  0  0  0  0  0  0
    4.6953  -17.7120    0.0000 C   0  0  0  0  0  0  0  0  0  0  0  0
    5.4098  -17.2995    0.0000 C   0  0  2  0  0  0  0  0  0  0  0  0
    6.1243  -17.7120    0.0000 C   0  0  0  0  0  0  0  0  0  0  0  0
    6.8388  -17.2995    0.0000 C   0  0  0  0  0  0  0  0  0  0  0  0
    6.8388  -16.4745    0.0000 C   0  0  1  0  0  0  0  0  0  0  0  0
    7.5532  -16.0620    0.0000 C   0  0  2  0  0  0  0  0  0  0  0  0
    8.3379  -16.3169    0.0000 C   0  0  0  0  0  0  0  0  0  0  0  0
    8.8228  -15.6495    0.0000 C   0  0  0  0  0  0  0  0  0  0  0  0
    8.3379  -14.9820    0.0000 C   0  0  1  0  0  0  0  0  0  0  0  0
    7.5532  -15.2370    0.0000 C   0  0  1  0  0  0  0  0  0  0  0  0
    6.8388  -14.8245    0.0000 C   0  0  0  0  0  0  0  0  0  0  0  0
    6.1243  -15.2370    0.0000 C   0  0  0  0  0  0  0  0  0  0  0  0
    6.1243  -16.0620    0.0000 C   0  0  2  0  0  0  0  0  0  0  0  0
    5.4098  -16.4745    0.0000 C   0  0  1  0  0  0  0  0  0  0  0  0
    7.5532  -16.8870    0.0000 C   0  0  0  0  0  0  0  0  0  0  0  0
    5.4098  -15.6495    0.0000 C   0  0  0  0  0  0  0  0  0  0  0  0
    6.8388  -15.6495    0.0000 C   0  0  0  0  0  0  0  0  0  0  0  0
    5.1078  -18.4264    0.0000 C   0  0  0  0  0  0  0  0  0  0  0  0
    4.2828  -18.4264    0.0000 C   0  0  0  0  0  0  0  0  0  0  0  0
    3.2664  -17.7120    0.0000 O   0  0  0  0  0  0  0  0  0  0  0  0
    5.4098  -18.1245    0.0000 H   0  0  0  0  0  0  0  0  0  0  0  0
    6.1243  -16.8870    0.0000 H   0  0  0  0  0  0  0  0  0  0  0  0
    7.6395  -14.4165    0.0000 H   0  0  0  0  0  0  0  0  0  0  0  0
  2  1  1  6  0  0  0
  2  3  1  0  0  0  0
  3  4  1  0  0  0  0
  4  5  1  0  0  0  0
  5  6  1  0  0  0  0
  6  7  2  0  0  0  0
  2  8  1  1  0  0  0
  5  9  1  0  0  0  0
  6 10  1  0  0  0  0
 11 12  1  0  0  0  0
 12 13  1  0  0  0  0
 13 14  1  0  0  0  0
 14 15  1  0  0  0  0
 15 16  1  0  0  0  0
 16 17  1  0  0  0  0
 17 18  1  0  0  0  0
 18 19  1  0  0  0  0
 19 20  1  0  0  0  0
 20 21  1  0  0  0  0
 22 21  1  1  0  0  0
 22 23  1  0  0  0  0
 19 23  1  0  0  0  0
 23 24  1  0  0  0  0
 24 25  1  0  0  0  0
 25 26  1  0  0  0  0
 18 26  1  0  0  0  0
 26 27  1  0  0  0  0
 15 27  1  0  0  0  0
 11 27  1  0  0  0  0
 19 28  1  6  0  0  0
 27 29  1  1  0  0  0
 18 30  1  1  0  0  0
 14 31  1  0  0  0  0
 14 32  1  0  0  0  0
 13 33  1  1  0  0  0
  2 22  1  0  0  0  0
 15 34  1  6  0  0  0
 26 35  1  6  0  0  0
 23 36  1  1  0  0  0
M  END
>  <cdx:groupId>
19685

>  <cdx:fragmentId>
19597

$$$$
