1172.cdx
  Mrv1902 05222410262D          

 21 22  0  0  0  0            999 V2000
    7.4256  -11.3449    0.0000 C   0  0  0  0  0  0  0  0  0  0  0  0
    7.6355   -9.8898    0.0000 O   0  0  0  0  0  0  0  0  0  0  0  0
    7.9012  -10.6708    0.0000 C   0  0  1  0  0  0  0  0  0  0  0  0
    8.7262  -10.6595    0.0000 C   0  0  2  0  0  0  0  0  0  0  0  0
    8.9702   -9.8714    0.0000 C   0  0  2  0  0  0  0  0  0  0  0  0
    8.2962   -9.3957    0.0000 C   0  0  2  0  0  0  0  0  0  0  0  0
    9.7513   -9.6056    0.0000 O   0  0  0  0  0  0  0  0  0  0  0  0
    9.2203  -11.3201    0.0000 O   0  0  0  0  0  0  0  0  0  0  0  0
    8.9935   -8.1485    0.0000 C   0  0  0  0  0  0  0  0  0  0  0  0
    8.9821   -7.3236    0.0000 N   0  0  0  0  0  0  0  0  0  0  0  0
    8.2620   -6.9210    0.0000 C   0  0  0  0  0  0  0  0  0  0  0  0
    7.5533   -7.3433    0.0000 C   0  0  0  0  0  0  0  0  0  0  0  0
    7.5647   -8.1682    0.0000 C   0  0  0  0  0  0  0  0  0  0  0  0
    8.2848   -8.5708    0.0000 N   0  0  0  0  0  0  0  0  0  0  0  0
    8.2506   -6.0960    0.0000 O   0  0  0  0  0  0  0  0  0  0  0  0
    9.7136   -8.5511    0.0000 O   0  0  0  0  0  0  0  0  0  0  0  0
    7.6462  -12.1399    0.0000 O   0  0  0  0  0  0  0  0  0  0  0  0
    7.6515  -13.3118    0.0000 O   0  0  0  0  0  0  0  0  0  0  0  0
    6.4848  -12.1451    0.0000 O   0  0  0  0  0  0  0  0  0  0  0  0
    7.0681  -12.7284    0.0000 P   0  0  0  0  0  0  0  0  0  0  0  0
    6.4848  -13.3118    0.0000 O   0  0  0  0  0  0  0  0  0  0  0  0
 21 20  1  0  0  0  0
 20 17  1  0  0  0  0
 17  1  1  0  0  0  0
 20 18  1  0  0  0  0
 20 19  2  0  0  0  0
  2  3  1  0  0  0  0
  3  4  1  0  0  0  0
  4  5  1  0  0  0  0
  5  6  1  0  0  0  0
  2  6  1  0  0  0  0
  5  7  1  6  0  0  0
  4  8  1  6  0  0  0
  9 10  1  0  0  0  0
 10 11  1  0  0  0  0
 11 12  1  0  0  0  0
 12 13  2  0  0  0  0
 13 14  1  0  0  0  0
  9 14  1  0  0  0  0
 11 15  2  0  0  0  0
  9 16  2  0  0  0  0
  6 14  1  1  0  0  0
  3  1  1  1  0  0  0
M  END
>  <cdx:fragmentId>
25215

$$$$
