117286.cdx
  Mrv1902 05222410262D          

116128  0  0  0  0            999 V2000
   12.9326   -8.6905    0.0000 C   0  0  0  0  0  0  0  0  0  0  0  0
   13.6471   -8.2780    0.0000 C   0  0  0  0  0  0  0  0  0  0  0  0
   14.3616   -8.6905    0.0000 C   0  0  0  0  0  0  0  0  0  0  0  0
   14.3616   -9.5155    0.0000 C   0  0  0  0  0  0  0  0  0  0  0  0
   13.6471   -9.9280    0.0000 C   0  0  2  0  0  0  0  0  0  0  0  0
   13.6471  -10.7530    0.0000 C   0  0  1  0  0  0  0  0  0  0  0  0
   12.9326  -11.1655    0.0000 C   0  0  0  0  0  0  0  0  0  0  0  0
   12.2182  -10.7530    0.0000 C   0  0  1  0  0  0  0  0  0  0  0  0
   11.5037  -11.1655    0.0000 C   0  0  2  0  0  0  0  0  0  0  0  0
   11.5037  -11.9905    0.0000 C   0  0  0  0  0  0  0  0  0  0  0  0
   10.7892  -12.4030    0.0000 C   0  0  0  0  0  0  0  0  0  0  0  0
   10.0747  -11.9905    0.0000 C   0  0  1  0  0  0  0  0  0  0  0  0
    9.3603  -12.4030    0.0000 C   0  0  2  0  0  0  0  0  0  0  0  0
    8.6458  -11.9905    0.0000 C   0  0  2  0  0  0  0  0  0  0  0  0
    8.6458  -11.1655    0.0000 C   0  0  2  0  0  0  0  0  0  0  0  0
    9.3603  -10.7530    0.0000 C   0  0  0  0  0  0  0  0  0  0  0  0
   10.0747  -11.1655    0.0000 C   0  0  2  0  0  0  0  0  0  0  0  0
   10.7892  -10.7530    0.0000 C   0  0  1  0  0  0  0  0  0  0  0  0
   10.7892   -9.9280    0.0000 C   0  0  0  0  0  0  0  0  0  0  0  0
   11.5037   -9.5155    0.0000 C   0  0  0  0  0  0  0  0  0  0  0  0
   12.2182   -9.9280    0.0000 C   0  0  0  0  0  0  0  0  0  0  0  0
   12.9326   -9.5155    0.0000 C   0  0  2  0  0  0  0  0  0  0  0  0
   14.4603  -10.4230    0.0000 C   0  0  0  0  0  0  0  0  0  0  0  0
   14.4603  -11.2480    0.0000 O   0  0  0  0  0  0  0  0  0  0  0  0
   15.1747  -10.0105    0.0000 O   0  0  0  0  0  0  0  0  0  0  0  0
   10.0747  -10.3405    0.0000 C   0  0  0  0  0  0  0  0  0  0  0  0
    8.9478  -13.1175    0.0000 C   0  0  0  0  0  0  0  0  0  0  0  0
   12.2182  -11.5780    0.0000 C   0  0  0  0  0  0  0  0  0  0  0  0
   13.2346   -7.5636    0.0000 C   0  0  0  0  0  0  0  0  0  0  0  0
   14.0596   -7.5636    0.0000 C   0  0  0  0  0  0  0  0  0  0  0  0
    9.7728  -13.1175    0.0000 C   0  0  0  0  0  0  0  0  0  0  0  0
    9.3603  -13.8320    0.0000 O   0  0  0  0  0  0  0  0  0  0  0  0
    7.9313  -10.7530    0.0000 O   0  0  0  0  0  0  0  0  0  0  0  0
    7.9313  -12.4030    0.0000 O   0  0  0  0  0  0  0  0  0  0  0  0
    7.2169  -11.1655    0.0000 O   0  0  0  0  0  0  0  0  0  0  0  0
    7.2169  -11.9905    0.0000 C   0  0  2  0  0  0  0  0  0  0  0  0
    6.5024  -12.4030    0.0000 C   0  0  1  0  0  0  0  0  0  0  0  0
    5.7879  -11.9905    0.0000 C   0  0  2  0  0  0  0  0  0  0  0  0
    5.7879  -11.1655    0.0000 C   0  0  1  0  0  0  0  0  0  0  0  0
    6.5024  -10.7530    0.0000 C   0  0  1  0  0  0  0  0  0  0  0  0
    5.0735  -12.4030    0.0000 O   0  0  0  0  0  0  0  0  0  0  0  0
    4.3590  -11.1655    0.0000 O   0  0  0  0  0  0  0  0  0  0  0  0
    4.3590  -11.9905    0.0000 C   0  0  2  0  0  0  0  0  0  0  0  0
    3.6445  -12.4030    0.0000 C   0  0  1  0  0  0  0  0  0  0  0  0
    2.9300  -11.9905    0.0000 C   0  0  2  0  0  0  0  0  0  0  0  0
    2.9300  -11.1655    0.0000 C   0  0  1  0  0  0  0  0  0  0  0  0
    3.6445  -10.7530    0.0000 C   0  0  0  0  0  0  0  0  0  0  0  0
    2.2156  -10.7530    0.0000 O   0  0  0  0  0  0  0  0  0  0  0  0
    2.2156  -12.4030    0.0000 O   0  0  0  0  0  0  0  0  0  0  0  0
    3.6445  -13.2280    0.0000 O   0  0  0  0  0  0  0  0  0  0  0  0
    6.5024   -9.9280    0.0000 C   0  0  0  0  0  0  0  0  0  0  0  0
    5.7879   -9.5155    0.0000 O   0  0  0  0  0  0  0  0  0  0  0  0
    5.0735  -10.7530    0.0000 O   0  0  0  0  0  0  0  0  0  0  0  0
    6.5024  -13.2280    0.0000 O   0  0  0  0  0  0  0  0  0  0  0  0
   10.0747  -12.8155    0.0000 H   0  0  0  0  0  0  0  0  0  0  0  0
   12.9326  -10.3405    0.0000 H   0  0  0  0  0  0  0  0  0  0  0  0
   15.8892  -11.2480    0.0000 O   0  0  0  0  0  0  0  0  0  0  0  0
   15.8892  -10.4230    0.0000 C   0  0  2  0  0  0  0  0  0  0  0  0
   16.6037  -10.0105    0.0000 C   0  0  1  0  0  0  0  0  0  0  0  0
   17.3181  -10.4230    0.0000 C   0  0  2  0  0  0  0  0  0  0  0  0
   17.3181  -11.2480    0.0000 C   0  0  2  0  0  0  0  0  0  0  0  0
   16.6037  -11.6605    0.0000 C   0  0  0  0  0  0  0  0  0  0  0  0
   18.0326  -11.6605    0.0000 O   0  0  0  0  0  0  0  0  0  0  0  0
   18.0326  -10.0105    0.0000 O   0  0  0  0  0  0  0  0  0  0  0  0
   16.6037   -9.1855    0.0000 O   0  0  0  0  0  0  0  0  0  0  0  0
   18.0326   -9.1855    0.0000 O   0  0  0  0  0  0  0  0  0  0  0  0
   17.3181   -8.7730    0.0000 C   0  0  2  0  0  0  0  0  0  0  0  0
   17.3181   -7.9480    0.0000 C   0  0  1  0  0  0  0  0  0  0  0  0
   18.0326   -7.5355    0.0000 C   0  0  1  0  0  0  0  0  0  0  0  0
   18.7471   -7.9480    0.0000 C   0  0  2  0  0  0  0  0  0  0  0  0
   18.7471   -8.7730    0.0000 C   0  0  2  0  0  0  0  0  0  0  0  0
   19.4616   -9.1855    0.0000 C   0  0  0  0  0  0  0  0  0  0  0  0
   16.6037   -7.5355    0.0000 O   0  0  0  0  0  0  0  0  0  0  0  0
   18.0326   -6.7105    0.0000 O   0  0  0  0  0  0  0  0  0  0  0  0
   19.5008   -6.6336    0.0000 O   0  0  0  0  0  0  0  0  0  0  0  0
   18.7471   -6.2980    0.0000 C   0  0  2  0  0  0  0  0  0  0  0  0
   18.8333   -5.4775    0.0000 C   0  0  1  0  0  0  0  0  0  0  0  0
   19.6403   -5.3060    0.0000 C   0  0  2  0  0  0  0  0  0  0  0  0
   20.0528   -6.0205    0.0000 C   0  0  0  0  0  0  0  0  0  0  0  0
   20.3077   -4.8211    0.0000 C   0  0  0  0  0  0  0  0  0  0  0  0
   21.0614   -5.1567    0.0000 O   0  0  0  0  0  0  0  0  0  0  0  0
   19.5541   -4.4855    0.0000 O   0  0  0  0  0  0  0  0  0  0  0  0
   18.2202   -4.9255    0.0000 O   0  0  0  0  0  0  0  0  0  0  0  0
   19.4616   -7.5355    0.0000 O   0  0  0  0  0  0  0  0  0  0  0  0
   20.1760   -8.7730    0.0000 O   0  0  0  0  0  0  0  0  0  0  0  0
   20.1760   -7.9480    0.0000 C   0  0  2  0  0  0  0  0  0  0  0  0
   20.8905   -7.5355    0.0000 C   0  0  1  0  0  0  0  0  0  0  0  0
   21.6050   -7.9480    0.0000 C   0  0  2  0  0  0  0  0  0  0  0  0
   21.6050   -8.7730    0.0000 C   0  0  1  0  0  0  0  0  0  0  0  0
   20.8905   -9.1855    0.0000 C   0  0  0  0  0  0  0  0  0  0  0  0
   22.3194   -7.5355    0.0000 O   0  0  0  0  0  0  0  0  0  0  0  0
   23.1201   -8.7685    0.0000 O   0  0  0  0  0  0  0  0  0  0  0  0
   23.0339   -7.9480    0.0000 C   0  0  2  0  0  0  0  0  0  0  0  0
   23.7876   -7.6125    0.0000 C   0  0  1  0  0  0  0  0  0  0  0  0
   24.3396   -8.2256    0.0000 C   0  0  2  0  0  0  0  0  0  0  0  0
   23.9271   -8.9400    0.0000 C   0  0  0  0  0  0  0  0  0  0  0  0
   25.0933   -8.5611    0.0000 C   0  0  0  0  0  0  0  0  0  0  0  0
   25.7607   -8.0762    0.0000 O   0  0  0  0  0  0  0  0  0  0  0  0
   25.0071   -7.7406    0.0000 O   0  0  0  0  0  0  0  0  0  0  0  0
   22.3194   -9.1855    0.0000 O   0  0  0  0  0  0  0  0  0  0  0  0
   20.8905   -6.7105    0.0000 O   0  0  0  0  0  0  0  0  0  0  0  0
   24.3022   -5.1916    0.0000 O   0  0  0  0  0  0  0  0  0  0  0  0
   25.8714   -4.6817    0.0000 O   0  0  0  0  0  0  0  0  0  0  0  0
   27.0976   -5.7857    0.0000 O   0  0  0  0  0  0  0  0  0  0  0  0
   27.5392   -7.1447    0.0000 O   0  0  0  0  0  0  0  0  0  0  0  0
   26.7545   -7.3997    0.0000 C   0  0  0  0  0  0  0  0  0  0  0  0
   26.1414   -6.8477    0.0000 C   0  0  2  0  0  0  0  0  0  0  0  0
   26.3130   -6.0407    0.0000 C   0  0  1  0  0  0  0  0  0  0  0  0
   25.6999   -5.4886    0.0000 C   0  0  1  0  0  0  0  0  0  0  0  0
   24.9153   -5.7436    0.0000 C   0  0  2  0  0  0  0  0  0  0  0  0
   24.7437   -6.5506    0.0000 C   0  0  1  0  0  0  0  0  0  0  0  0
   25.3568   -7.1026    0.0000 O   0  0  0  0  0  0  0  0  0  0  0  0
   23.9591   -6.8055    0.0000 O   0  0  0  0  0  0  0  0  0  0  0  0
   11.5037  -10.3405    0.0000 C   0  0  0  0  0  0  0  0  0  0  0  0
   10.7892  -11.5780    0.0000 H   0  0  0  0  0  0  0  0  0  0  0  0
   13.6471  -11.5780    0.0000 O   0  0  0  0  0  0  0  0  0  0  0  0
111113  1  1  0  0  0
110102  1  6  0  0  0
109103  1  1  0  0  0
108104  1  1  0  0  0
107106  1  1  0  0  0
106105  1  0  0  0  0
112107  1  0  0  0  0
108107  1  0  0  0  0
109108  1  0  0  0  0
110109  1  0  0  0  0
111110  1  0  0  0  0
112111  1  0  0  0  0
  1  2  1  0  0  0  0
  2  3  1  0  0  0  0
  3  4  1  0  0  0  0
  4  5  1  0  0  0  0
  5  6  1  0  0  0  0
  6  7  1  0  0  0  0
  7  8  1  0  0  0  0
  8  9  1  0  0  0  0
  9 10  1  0  0  0  0
 10 11  1  0  0  0  0
 11 12  1  0  0  0  0
 12 13  1  0  0  0  0
 13 14  1  0  0  0  0
 14 15  1  0  0  0  0
 15 16  1  0  0  0  0
 16 17  1  0  0  0  0
 12 17  1  0  0  0  0
 17 18  1  0  0  0  0
  9 18  1  0  0  0  0
 18 19  1  0  0  0  0
 19 20  1  0  0  0  0
 20 21  2  0  0  0  0
  8 21  1  0  0  0  0
 21 22  1  0  0  0  0
  5 22  1  0  0  0  0
  1 22  1  0  0  0  0
 23 24  2  0  0  0  0
 23 25  1  0  0  0  0
  5 23  1  1  0  0  0
 17 26  1  1  0  0  0
 13 27  1  1  0  0  0
  8 28  1  6  0  0  0
  2 29  1  0  0  0  0
  2 30  1  0  0  0  0
 31 32  1  0  0  0  0
 13 31  1  0  0  0  0
 15 33  1  1  0  0  0
 35 36  1  0  0  0  0
 36 37  1  0  0  0  0
 37 38  1  0  0  0  0
 38 39  1  0  0  0  0
 39 40  1  0  0  0  0
 35 40  1  0  0  0  0
 42 43  1  0  0  0  0
 43 44  1  0  0  0  0
 44 45  1  0  0  0  0
 45 46  1  0  0  0  0
 46 47  1  0  0  0  0
 42 47  1  0  0  0  0
 46 48  1  6  0  0  0
 45 49  1  1  0  0  0
 44 50  1  6  0  0  0
 43 41  1  1  0  0  0
 38 41  1  1  0  0  0
 51 52  1  0  0  0  0
 40 51  1  1  0  0  0
 39 53  1  6  0  0  0
 37 54  1  6  0  0  0
 36 34  1  1  0  0  0
 14 34  1  1  0  0  0
 12 55  1  6  0  0  0
 22 56  1  1  0  0  0
 57 58  1  0  0  0  0
 58 59  1  0  0  0  0
 59 60  1  0  0  0  0
 60 61  1  0  0  0  0
 61 62  1  0  0  0  0
 57 62  1  0  0  0  0
 61 63  1  1  0  0  0
 60 64  1  1  0  0  0
 66 67  1  0  0  0  0
 67 68  1  0  0  0  0
 68 69  1  0  0  0  0
 69 70  1  0  0  0  0
 70 71  1  0  0  0  0
 66 71  1  0  0  0  0
 71 72  1  6  0  0  0
 68 73  1  6  0  0  0
 75 76  1  0  0  0  0
 76 77  1  0  0  0  0
 77 78  1  0  0  0  0
 78 79  1  0  0  0  0
 75 79  1  0  0  0  0
 80 81  1  0  0  0  0
 78 80  1  1  0  0  0
 78 82  1  6  0  0  0
 77 83  1  6  0  0  0
 76 74  1  1  0  0  0
 69 74  1  6  0  0  0
 85 86  1  0  0  0  0
 86 87  1  0  0  0  0
 87 88  1  0  0  0  0
 88 89  1  0  0  0  0
 89 90  1  0  0  0  0
 85 90  1  0  0  0  0
 92 93  1  0  0  0  0
 93 94  1  0  0  0  0
 94 95  1  0  0  0  0
 95 96  1  0  0  0  0
 92 96  1  0  0  0  0
 94113  1  6  0  0  0
 97 98  1  0  0  0  0
 95 97  1  1  0  0  0
 95 99  1  6  0  0  0
 93 91  1  1  0  0  0
 88 91  1  1  0  0  0
 89100  1  6  0  0  0
 87101  1  6  0  0  0
 86 84  1  1  0  0  0
 70 84  1  1  0  0  0
 67 65  1  1  0  0  0
 59 65  1  6  0  0  0
 58 25  1  1  0  0  0
  9114  1  1  0  0  0
 18115  1  6  0  0  0
  6116  1  6  0  0  0
M  END
>  <cdx:fragmentId>
5

$$$$
