117288.cdx
  Mrv1902 05222410192D          

107118  0  0  0  0            999 V2000
   11.5862   -8.6905    0.0000 C   0  0  0  0  0  0  0  0  0  0  0  0
   12.3007   -8.2780    0.0000 C   0  0  0  0  0  0  0  0  0  0  0  0
   13.0151   -8.6905    0.0000 C   0  0  0  0  0  0  0  0  0  0  0  0
   13.0151   -9.5155    0.0000 C   0  0  0  0  0  0  0  0  0  0  0  0
   12.3007   -9.9280    0.0000 C   0  0  2  0  0  0  0  0  0  0  0  0
   12.3007  -10.7530    0.0000 C   0  0  1  0  0  0  0  0  0  0  0  0
   11.5862  -11.1655    0.0000 C   0  0  0  0  0  0  0  0  0  0  0  0
   10.8717  -10.7530    0.0000 C   0  0  1  0  0  0  0  0  0  0  0  0
   10.1572  -11.1655    0.0000 C   0  0  2  0  0  0  0  0  0  0  0  0
   10.1572  -11.9905    0.0000 C   0  0  0  0  0  0  0  0  0  0  0  0
    9.4428  -12.4030    0.0000 C   0  0  0  0  0  0  0  0  0  0  0  0
    8.7283  -11.9905    0.0000 C   0  0  1  0  0  0  0  0  0  0  0  0
    8.0138  -12.4030    0.0000 C   0  0  2  0  0  0  0  0  0  0  0  0
    7.2994  -11.9905    0.0000 C   0  0  2  0  0  0  0  0  0  0  0  0
    7.2994  -11.1655    0.0000 C   0  0  2  0  0  0  0  0  0  0  0  0
    8.0138  -10.7530    0.0000 C   0  0  0  0  0  0  0  0  0  0  0  0
    8.7283  -11.1655    0.0000 C   0  0  2  0  0  0  0  0  0  0  0  0
    9.4428  -10.7530    0.0000 C   0  0  1  0  0  0  0  0  0  0  0  0
    9.4428   -9.9280    0.0000 C   0  0  0  0  0  0  0  0  0  0  0  0
   10.1572   -9.5155    0.0000 C   0  0  0  0  0  0  0  0  0  0  0  0
   10.8717   -9.9280    0.0000 C   0  0  0  0  0  0  0  0  0  0  0  0
   11.5862   -9.5155    0.0000 C   0  0  2  0  0  0  0  0  0  0  0  0
   13.1138  -10.3818    0.0000 C   0  0  0  0  0  0  0  0  0  0  0  0
   13.1138  -11.2068    0.0000 O   0  0  0  0  0  0  0  0  0  0  0  0
   13.8283   -9.9693    0.0000 O   0  0  0  0  0  0  0  0  0  0  0  0
    6.5849  -12.4030    0.0000 O   0  0  0  0  0  0  0  0  0  0  0  0
    5.8704  -11.1655    0.0000 O   0  0  0  0  0  0  0  0  0  0  0  0
    5.8704  -11.9905    0.0000 C   0  0  2  0  0  0  0  0  0  0  0  0
    5.1560  -12.4030    0.0000 C   0  0  1  0  0  0  0  0  0  0  0  0
    4.4415  -11.9905    0.0000 C   0  0  2  0  0  0  0  0  0  0  0  0
    4.4415  -11.1655    0.0000 C   0  0  1  0  0  0  0  0  0  0  0  0
    5.1560  -10.7530    0.0000 C   0  0  1  0  0  0  0  0  0  0  0  0
    5.1560   -9.9280    0.0000 C   0  0  0  0  0  0  0  0  0  0  0  0
    4.4415   -9.5155    0.0000 O   0  0  0  0  0  0  0  0  0  0  0  0
    3.7270  -10.7530    0.0000 O   0  0  0  0  0  0  0  0  0  0  0  0
    3.7270  -12.4030    0.0000 O   0  0  0  0  0  0  0  0  0  0  0  0
    5.1560  -13.2280    0.0000 O   0  0  0  0  0  0  0  0  0  0  0  0
    8.7283  -10.3405    0.0000 C   0  0  0  0  0  0  0  0  0  0  0  0
    7.6013  -13.1175    0.0000 C   0  0  0  0  0  0  0  0  0  0  0  0
   10.8717  -11.5780    0.0000 C   0  0  0  0  0  0  0  0  0  0  0  0
   11.8882   -7.5636    0.0000 C   0  0  0  0  0  0  0  0  0  0  0  0
   12.7132   -7.5636    0.0000 C   0  0  0  0  0  0  0  0  0  0  0  0
    8.4263  -13.1175    0.0000 C   0  0  0  0  0  0  0  0  0  0  0  0
    8.0138  -13.8320    0.0000 O   0  0  0  0  0  0  0  0  0  0  0  0
    6.5849  -10.7530    0.0000 O   0  0  0  0  0  0  0  0  0  0  0  0
    8.7283  -12.8155    0.0000 H   0  0  0  0  0  0  0  0  0  0  0  0
   11.5862  -10.3405    0.0000 H   0  0  0  0  0  0  0  0  0  0  0  0
   14.5428  -11.2068    0.0000 O   0  0  0  0  0  0  0  0  0  0  0  0
   14.5428  -10.3818    0.0000 C   0  0  2  0  0  0  0  0  0  0  0  0
   15.2572   -9.9693    0.0000 C   0  0  1  0  0  0  0  0  0  0  0  0
   15.9717  -10.3818    0.0000 C   0  0  2  0  0  0  0  0  0  0  0  0
   15.9717  -11.2068    0.0000 C   0  0  2  0  0  0  0  0  0  0  0  0
   15.2572  -11.6193    0.0000 C   0  0  0  0  0  0  0  0  0  0  0  0
   16.6862  -11.6193    0.0000 O   0  0  0  0  0  0  0  0  0  0  0  0
   16.6862   -9.9693    0.0000 O   0  0  0  0  0  0  0  0  0  0  0  0
   15.2572   -9.1443    0.0000 O   0  0  0  0  0  0  0  0  0  0  0  0
   16.6862   -9.1443    0.0000 O   0  0  0  0  0  0  0  0  0  0  0  0
   15.9717   -8.7318    0.0000 C   0  0  2  0  0  0  0  0  0  0  0  0
   15.9717   -7.9068    0.0000 C   0  0  1  0  0  0  0  0  0  0  0  0
   16.6862   -7.4943    0.0000 C   0  0  1  0  0  0  0  0  0  0  0  0
   17.4006   -7.9068    0.0000 C   0  0  2  0  0  0  0  0  0  0  0  0
   17.4006   -8.7318    0.0000 C   0  0  2  0  0  0  0  0  0  0  0  0
   18.1151   -9.1443    0.0000 C   0  0  0  0  0  0  0  0  0  0  0  0
   15.2572   -7.4943    0.0000 O   0  0  0  0  0  0  0  0  0  0  0  0
   16.6862   -6.6693    0.0000 O   0  0  0  0  0  0  0  0  0  0  0  0
   18.1543   -6.5923    0.0000 O   0  0  0  0  0  0  0  0  0  0  0  0
   17.4006   -6.2568    0.0000 C   0  0  2  0  0  0  0  0  0  0  0  0
   17.4869   -5.4363    0.0000 C   0  0  1  0  0  0  0  0  0  0  0  0
   18.2938   -5.2648    0.0000 C   0  0  2  0  0  0  0  0  0  0  0  0
   18.7063   -5.9792    0.0000 C   0  0  0  0  0  0  0  0  0  0  0  0
   18.9613   -4.7798    0.0000 C   0  0  0  0  0  0  0  0  0  0  0  0
   19.7150   -5.1154    0.0000 O   0  0  0  0  0  0  0  0  0  0  0  0
   18.2076   -4.4443    0.0000 O   0  0  0  0  0  0  0  0  0  0  0  0
   16.8738   -4.8843    0.0000 O   0  0  0  0  0  0  0  0  0  0  0  0
   18.1151   -7.4943    0.0000 O   0  0  0  0  0  0  0  0  0  0  0  0
   18.8296   -8.7318    0.0000 O   0  0  0  0  0  0  0  0  0  0  0  0
   18.8296   -7.9068    0.0000 C   0  0  2  0  0  0  0  0  0  0  0  0
   19.5441   -7.4943    0.0000 C   0  0  1  0  0  0  0  0  0  0  0  0
   20.2585   -7.9068    0.0000 C   0  0  2  0  0  0  0  0  0  0  0  0
   20.2585   -8.7318    0.0000 C   0  0  1  0  0  0  0  0  0  0  0  0
   19.5441   -9.1443    0.0000 C   0  0  0  0  0  0  0  0  0  0  0  0
   20.9730   -7.4943    0.0000 O   0  0  0  0  0  0  0  0  0  0  0  0
   21.7737   -8.7273    0.0000 O   0  0  0  0  0  0  0  0  0  0  0  0
   21.6875   -7.9068    0.0000 C   0  0  2  0  0  0  0  0  0  0  0  0
   22.4411   -7.5712    0.0000 C   0  0  1  0  0  0  0  0  0  0  0  0
   22.9932   -8.1843    0.0000 C   0  0  2  0  0  0  0  0  0  0  0  0
   22.5807   -8.8988    0.0000 C   0  0  0  0  0  0  0  0  0  0  0  0
   23.7469   -8.5199    0.0000 C   0  0  0  0  0  0  0  0  0  0  0  0
   24.4143   -8.0349    0.0000 O   0  0  0  0  0  0  0  0  0  0  0  0
   23.6606   -7.6994    0.0000 O   0  0  0  0  0  0  0  0  0  0  0  0
   20.9730   -9.1443    0.0000 O   0  0  0  0  0  0  0  0  0  0  0  0
   19.5441   -6.6693    0.0000 O   0  0  0  0  0  0  0  0  0  0  0  0
   22.9557   -5.1503    0.0000 O   0  0  0  0  0  0  0  0  0  0  0  0
   24.5250   -4.6404    0.0000 O   0  0  0  0  0  0  0  0  0  0  0  0
   25.7512   -5.7445    0.0000 O   0  0  0  0  0  0  0  0  0  0  0  0
   26.1927   -7.1035    0.0000 O   0  0  0  0  0  0  0  0  0  0  0  0
   25.4081   -7.3584    0.0000 C   0  0  0  0  0  0  0  0  0  0  0  0
   24.7950   -6.8064    0.0000 C   0  0  2  0  0  0  0  0  0  0  0  0
   24.9665   -5.9994    0.0000 C   0  0  1  0  0  0  0  0  0  0  0  0
   24.3534   -5.4474    0.0000 C   0  0  1  0  0  0  0  0  0  0  0  0
   23.5688   -5.7023    0.0000 C   0  0  2  0  0  0  0  0  0  0  0  0
   23.3973   -6.5093    0.0000 C   0  0  1  0  0  0  0  0  0  0  0  0
   24.0104   -7.0613    0.0000 O   0  0  0  0  0  0  0  0  0  0  0  0
   22.6127   -6.7642    0.0000 O   0  0  0  0  0  0  0  0  0  0  0  0
   12.3007  -11.5780    0.0000 O   0  0  0  0  0  0  0  0  0  0  0  0
    9.4428  -11.5780    0.0000 H   0  0  0  0  0  0  0  0  0  0  0  0
   10.1572  -10.3405    0.0000 C   0  0  0  0  0  0  0  0  0  0  0  0
102104  1  1  0  0  0
101 93  1  6  0  0  0
100 94  1  1  0  0  0
 99 95  1  1  0  0  0
 98 97  1  1  0  0  0
 97 96  1  0  0  0  0
103 98  1  0  0  0  0
 99 98  1  0  0  0  0
100 99  1  0  0  0  0
101100  1  0  0  0  0
102101  1  0  0  0  0
103102  1  0  0  0  0
  1  2  1  0  0  0  0
  2  3  1  0  0  0  0
  3  4  1  0  0  0  0
  4  5  1  0  0  0  0
  5  6  1  0  0  0  0
  6  7  1  0  0  0  0
  7  8  1  0  0  0  0
  8  9  1  0  0  0  0
  9 10  1  0  0  0  0
 10 11  1  0  0  0  0
 11 12  1  0  0  0  0
 12 13  1  0  0  0  0
 13 14  1  0  0  0  0
 14 15  1  0  0  0  0
 15 16  1  0  0  0  0
 16 17  1  0  0  0  0
 12 17  1  0  0  0  0
 17 18  1  0  0  0  0
  9 18  1  0  0  0  0
 18 19  1  0  0  0  0
 19 20  1  0  0  0  0
 20 21  2  0  0  0  0
  8 21  1  0  0  0  0
 21 22  1  0  0  0  0
  5 22  1  0  0  0  0
  1 22  1  0  0  0  0
 23 24  2  0  0  0  0
 23 25  1  0  0  0  0
  5 23  1  1  0  0  0
 27 28  1  0  0  0  0
 28 29  1  0  0  0  0
 29 30  1  0  0  0  0
 30 31  1  0  0  0  0
 31 32  1  0  0  0  0
 27 32  1  0  0  0  0
 33 34  1  0  0  0  0
 32 33  1  1  0  0  0
 31 35  1  6  0  0  0
 30 36  1  1  0  0  0
 29 37  1  6  0  0  0
 28 26  1  1  0  0  0
 14 26  1  1  0  0  0
 17 38  1  1  0  0  0
 13 39  1  1  0  0  0
  8 40  1  6  0  0  0
  2 41  1  0  0  0  0
  2 42  1  0  0  0  0
 43 44  1  0  0  0  0
 13 43  1  0  0  0  0
 15 45  1  1  0  0  0
 12 46  1  6  0  0  0
 22 47  1  1  0  0  0
 48 49  1  0  0  0  0
 49 50  1  0  0  0  0
 50 51  1  0  0  0  0
 51 52  1  0  0  0  0
 52 53  1  0  0  0  0
 48 53  1  0  0  0  0
 52 54  1  1  0  0  0
 51 55  1  1  0  0  0
 57 58  1  0  0  0  0
 58 59  1  0  0  0  0
 59 60  1  0  0  0  0
 60 61  1  0  0  0  0
 61 62  1  0  0  0  0
 57 62  1  0  0  0  0
 62 63  1  6  0  0  0
 59 64  1  6  0  0  0
 66 67  1  0  0  0  0
 67 68  1  0  0  0  0
 68 69  1  0  0  0  0
 69 70  1  0  0  0  0
 66 70  1  0  0  0  0
 71 72  1  0  0  0  0
 69 71  1  1  0  0  0
 69 73  1  6  0  0  0
 68 74  1  6  0  0  0
 67 65  1  1  0  0  0
 60 65  1  6  0  0  0
 76 77  1  0  0  0  0
 77 78  1  0  0  0  0
 78 79  1  0  0  0  0
 79 80  1  0  0  0  0
 80 81  1  0  0  0  0
 76 81  1  0  0  0  0
 83 84  1  0  0  0  0
 84 85  1  0  0  0  0
 85 86  1  0  0  0  0
 86 87  1  0  0  0  0
 83 87  1  0  0  0  0
 85104  1  6  0  0  0
 88 89  1  0  0  0  0
 86 88  1  1  0  0  0
 86 90  1  6  0  0  0
 84 82  1  1  0  0  0
 79 82  1  1  0  0  0
 80 91  1  6  0  0  0
 78 92  1  6  0  0  0
 77 75  1  1  0  0  0
 61 75  1  1  0  0  0
 58 56  1  1  0  0  0
 50 56  1  6  0  0  0
 49 25  1  1  0  0  0
  6105  1  6  0  0  0
 18106  1  6  0  0  0
  9107  1  1  0  0  0
M  END
>  <cdx:fragmentId>
185

$$$$
