11731.cdx
  Mrv1902 05222410282D          

  6  5  0  0  0  0            999 V2000
    8.1695   -4.7767    0.0000 C   0  0  0  0  0  0  0  0  0  0  0  0
    7.4550   -5.1892    0.0000 C   0  0  0  0  0  0  0  0  0  0  0  0
    6.7405   -4.7767    0.0000 C   0  0  0  0  0  0  0  0  0  0  0  0
    6.0260   -5.1892    0.0000 C   0  0  0  0  0  0  0  0  0  0  0  0
    7.4550   -6.0142    0.0000 N   0  0  0  0  0  0  0  0  0  0  0  0
    6.7405   -3.9517    0.0000 C   0  0  0  0  0  0  0  0  0  0  0  0
  1  2  1  0  0  0  0
  2  3  1  0  0  0  0
  3  4  1  0  0  0  0
  2  5  1  0  0  0  0
  3  6  1  0  0  0  0
M  END
>  <cdx:fragmentId>
5

$$$$
