11737.cdx
  Mrv1902 05222410272D          

 35 36  0  0  0  0            999 V2000
    2.7700   -5.7587    0.0000 O   0  0  0  0  0  0  0  0  0  0  0  0
    5.9988   -8.6664    0.0000 C   0  0  0  0  0  0  0  0  0  0  0  0
    6.8166   -8.5573    0.0000 C   0  0  0  0  0  0  0  0  0  0  0  0
    6.9656   -7.7458    0.0000 C   0  0  2  0  0  0  0  0  0  0  0  0
    6.2399   -7.3534    0.0000 C   0  0  2  0  0  0  0  0  0  0  0  0
    5.6424   -7.9223    0.0000 C   0  0  1  0  0  0  0  0  0  0  0  0
    5.2349   -7.2050    0.0000 C   0  0  1  0  0  0  0  0  0  0  0  0
    4.4100   -7.1992    0.0000 C   0  0  0  0  0  0  0  0  0  0  0  0
    3.9925   -7.9107    0.0000 C   0  0  0  0  0  0  0  0  0  0  0  0
    4.3999   -8.6281    0.0000 C   0  0  0  0  0  0  0  0  0  0  0  0
    5.6525   -6.4934    0.0000 C   0  0  0  0  0  0  0  0  0  0  0  0
    5.2450   -5.7761    0.0000 C   0  0  0  0  0  0  0  0  0  0  0  0
    5.6625   -5.0645    0.0000 C   0  0  0  0  0  0  0  0  0  0  0  0
    5.2550   -4.3472    0.0000 O   0  0  0  0  0  0  0  0  0  0  0  0
    7.7096   -7.3894    0.0000 C   0  0  0  0  0  0  0  0  0  0  0  0
    8.3903   -7.8555    0.0000 C   0  0  0  0  0  0  0  0  0  0  0  0
    8.3270   -8.6781    0.0000 C   0  0  0  0  0  0  0  0  0  0  0  0
    9.0077   -9.1442    0.0000 C   0  0  0  0  0  0  0  0  0  0  0  0
    8.9443   -9.9668    0.0000 C   0  0  0  0  0  0  0  0  0  0  0  0
    9.6250  -10.4329    0.0000 C   0  0  0  0  0  0  0  0  0  0  0  0
    9.5617  -11.2555    0.0000 C   0  0  0  0  0  0  0  0  0  0  0  0
   10.2424  -11.7216    0.0000 C   0  0  0  0  0  0  0  0  0  0  0  0
   10.1791  -12.5442    0.0000 C   0  0  0  0  0  0  0  0  0  0  0  0
   10.8598  -13.0103    0.0000 C   0  0  0  0  0  0  0  0  0  0  0  0
    8.2003  -10.3232    0.0000 C   0  0  0  0  0  0  0  0  0  0  0  0
    9.4350  -12.9006    0.0000 C   0  0  0  0  0  0  0  0  0  0  0  0
    8.5170   -6.2104    0.0000 O   0  0  0  0  0  0  0  0  0  0  0  0
    5.2191   -9.4589    0.0000 O   0  0  0  0  0  0  0  0  0  0  0  0
    6.1308   -6.5357    0.0000 O   0  0  0  0  0  0  0  0  0  0  0  0
    4.4200   -5.7703    0.0000 C   0  0  0  0  0  0  0  0  0  0  0  0
    4.0025   -6.4818    0.0000 C   0  0  0  0  0  0  0  0  0  0  0  0
    3.1775   -6.4760    0.0000 C   0  0  0  0  0  0  0  0  0  0  0  0
    5.9365   -9.0514    0.0000 C   0  0  0  0  0  0  0  0  0  0  0  0
    7.7729   -6.5668    0.0000 C   0  0  0  0  0  0  0  0  0  0  0  0
    5.2249   -8.6339    0.0000 C   0  0  2  0  0  0  0  0  0  0  0  0
 32  1  2  0  0  0  0
 31 30  1  0  0  0  0
 32 31  1  0  0  0  0
 35 28  1  1  0  0  0
 35 33  1  0  0  0  0
 34 27  1  0  0  0  0
  2  3  1  0  0  0  0
  3  4  1  0  0  0  0
  4  5  1  0  0  0  0
  5  6  1  0  0  0  0
  6  7  1  0  0  0  0
  7  8  1  0  0  0  0
  8  9  1  0  0  0  0
  9 10  1  0  0  0  0
 10 35  1  0  0  0  0
  6  2  1  6  0  0  0
 35  6  1  0  0  0  0
 11 12  1  0  0  0  0
 12 13  1  0  0  0  0
 13 14  1  0  0  0  0
  7 11  1  1  0  0  0
 34 15  1  0  0  0  0
 15 16  2  0  0  0  0
 16 17  1  0  0  0  0
 17 18  2  0  0  0  0
 18 19  1  0  0  0  0
 19 20  1  0  0  0  0
 20 21  1  0  0  0  0
 21 22  1  0  0  0  0
 22 23  2  0  0  0  0
 23 24  1  0  0  0  0
 19 25  2  0  0  0  0
 23 26  1  0  0  0  0
  4 15  1  6  0  0  0
  5 29  1  6  0  0  0
 31  8  2  0  0  0  0
M  END
>  <cdx:fragmentId>
13

$$$$
