11736.cdx
  Mrv1902 05222410262D          

 35 36  0  0  0  0            999 V2000
    2.0061   -6.2290    0.0000 C   0  0  0  0  0  0  0  0  0  0  0  0
    2.8311   -6.2299    0.0000 C   0  0  0  0  0  0  0  0  0  0  0  0
    3.2443   -5.5158    0.0000 C   0  0  0  0  0  0  0  0  0  0  0  0
    1.5943   -5.5142    0.0000 O   0  0  0  0  0  0  0  0  0  0  0  0
    4.0665   -8.3745    0.0000 C   0  0  1  0  0  0  0  0  0  0  0  0
    3.2415   -8.3737    0.0000 C   0  0  0  0  0  0  0  0  0  0  0  0
    2.8297   -7.6588    0.0000 C   0  0  0  0  0  0  0  0  0  0  0  0
    3.2429   -6.9448    0.0000 C   0  0  0  0  0  0  0  0  0  0  0  0
    4.0679   -6.9456    0.0000 C   0  0  2  0  0  0  0  0  0  0  0  0
    4.0656   -9.1995    0.0000 O   0  0  0  0  0  0  0  0  0  0  0  0
    4.0708   -4.0877    0.0000 O   0  0  0  0  0  0  0  0  0  0  0  0
    4.7805   -8.7877    0.0000 C   0  0  0  0  0  0  0  0  0  0  0  0
    5.1937   -6.3754    0.0000 O   0  0  0  0  0  0  0  0  0  0  0  0
    7.1769   -8.3699    0.0000 C   0  0  0  0  0  0  0  0  0  0  0  0
    9.7442   -9.6253    0.0000 C   0  0  0  0  0  0  0  0  0  0  0  0
   12.3116  -10.8807    0.0000 C   0  0  0  0  0  0  0  0  0  0  0  0
   12.4099  -12.3063    0.0000 C   0  0  0  0  0  0  0  0  0  0  0  0
   11.9492  -11.6219    0.0000 C   0  0  0  0  0  0  0  0  0  0  0  0
   11.1262  -11.6786    0.0000 C   0  0  0  0  0  0  0  0  0  0  0  0
   10.6655  -10.9942    0.0000 C   0  0  0  0  0  0  0  0  0  0  0  0
    9.8425  -11.0509    0.0000 C   0  0  0  0  0  0  0  0  0  0  0  0
    9.3818  -10.3665    0.0000 C   0  0  0  0  0  0  0  0  0  0  0  0
    8.5588  -10.4232    0.0000 C   0  0  0  0  0  0  0  0  0  0  0  0
    8.0982   -9.7388    0.0000 C   0  0  0  0  0  0  0  0  0  0  0  0
    7.2751   -9.7955    0.0000 C   0  0  0  0  0  0  0  0  0  0  0  0
    6.8145   -9.1111    0.0000 C   0  0  0  0  0  0  0  0  0  0  0  0
    5.9914   -9.1678    0.0000 C   0  0  0  0  0  0  0  0  0  0  0  0
    4.4797   -7.6605    0.0000 C   0  0  2  0  0  0  0  0  0  0  0  0
    4.7063   -8.4537    0.0000 C   0  0  0  0  0  0  0  0  0  0  0  0
    5.5308   -8.4834    0.0000 C   0  0  1  0  0  0  0  0  0  0  0  0
    5.8137   -7.7084    0.0000 O   0  0  0  0  0  0  0  0  0  0  0  0
    4.4826   -4.8026    0.0000 C   0  0  0  0  0  0  0  0  0  0  0  0
    4.0693   -5.5166    0.0000 C   0  0  0  0  0  0  0  0  0  0  0  0
    4.4811   -6.2315    0.0000 C   0  0  0  0  0  0  0  0  0  0  0  0
    5.1641   -7.1998    0.0000 C   0  0  0  0  0  0  0  0  0  0  0  0
 35 13  1  0  0  0  0
 30 27  1  1  0  0  0
 26 14  1  0  0  0  0
 22 15  1  0  0  0  0
 18 16  1  0  0  0  0
 18 17  1  0  0  0  0
 19 18  2  0  0  0  0
 20 19  1  0  0  0  0
 21 20  1  0  0  0  0
 22 21  1  0  0  0  0
 23 22  2  0  0  0  0
 24 23  1  0  0  0  0
 25 24  2  0  0  0  0
 26 25  1  0  0  0  0
 27 26  2  0  0  0  0
 35 28  1  0  0  0  0
 28 29  1  6  0  0  0
 30 29  1  0  0  0  0
 31 30  1  0  0  0  0
 32 11  1  0  0  0  0
 33 32  1  0  0  0  0
 34 33  1  0  0  0  0
 35 31  1  0  0  0  0
  1  2  1  0  0  0  0
  2  3  1  0  0  0  0
  1  4  2  0  0  0  0
 28  5  1  0  0  0  0
  5  6  1  0  0  0  0
  6  7  1  0  0  0  0
  7  8  1  0  0  0  0
  8  9  1  0  0  0  0
  9 28  1  0  0  0  0
  5 10  1  1  0  0  0
  9 34  1  1  0  0  0
  5 12  1  0  0  0  0
  2  8  2  0  0  0  0
M  END
>  <cdx:fragmentId>
174

$$$$
