11742.cdx
  Mrv1902 05222410232D          

 16 17  0  0  0  0            999 V2000
    5.4516   -3.7239    0.0000 C   0  0  0  0  0  0  0  0  0  0  0  0
    5.4516   -4.5489    0.0000 C   0  0  0  0  0  0  0  0  0  0  0  0
    4.7372   -4.9614    0.0000 C   0  0  0  0  0  0  0  0  0  0  0  0
    4.0227   -4.5489    0.0000 C   0  0  0  0  0  0  0  0  0  0  0  0
    4.0227   -3.7239    0.0000 C   0  0  0  0  0  0  0  0  0  0  0  0
    4.7372   -3.3114    0.0000 C   0  0  0  0  0  0  0  0  0  0  0  0
    6.1661   -3.3114    0.0000 O   0  0  0  0  0  0  0  0  0  0  0  0
    2.8957   -5.6759    0.0000 C   0  0  0  0  0  0  0  0  0  0  0  0
    3.3082   -4.9614    0.0000 C   0  0  0  0  0  0  0  0  0  0  0  0
    3.7207   -5.6759    0.0000 C   0  0  0  0  0  0  0  0  0  0  0  0
    2.5937   -4.5489    0.0000 C   0  0  0  0  0  0  0  0  0  0  0  0
    1.8793   -4.9614    0.0000 C   0  0  0  0  0  0  0  0  0  0  0  0
    1.1648   -4.5489    0.0000 C   0  0  0  0  0  0  0  0  0  0  0  0
    1.1648   -3.7239    0.0000 C   0  0  0  0  0  0  0  0  0  0  0  0
    1.8793   -3.3114    0.0000 C   0  0  0  0  0  0  0  0  0  0  0  0
    2.5937   -3.7239    0.0000 C   0  0  0  0  0  0  0  0  0  0  0  0
  1  2  1  0  0  0  0
  2  3  2  0  0  0  0
  3  4  1  0  0  0  0
  4  5  2  0  0  0  0
  5  6  1  0  0  0  0
  1  6  2  0  0  0  0
  1  7  1  0  0  0  0
  8  9  1  0  0  0  0
  9 10  1  0  0  0  0
 11 12  1  0  0  0  0
 12 13  2  0  0  0  0
 13 14  1  0  0  0  0
 14 15  2  0  0  0  0
 15 16  1  0  0  0  0
 11 16  2  0  0  0  0
  9 11  1  0  0  0  0
  4  9  1  0  0  0  0
M  END
>  <cdx:groupId>
51

>  <cdx:fragmentId>
25

$$$$
