117443.cdx
  Mrv1902 05222410262D          

 26 30  0  0  0  0            999 V2000
    7.3220   -7.0493    0.0000 O   0  0  0  0  0  0  0  0  0  0  0  0
    7.9935   -7.5287    0.0000 C   0  0  1  0  0  0  0  0  0  0  0  0
    7.7451   -8.3154    0.0000 C   0  0  1  0  0  0  0  0  0  0  0  0
    6.9201   -8.3223    0.0000 C   0  0  2  0  0  0  0  0  0  0  0  0
    6.6587   -7.5398    0.0000 C   0  0  0  0  0  0  0  0  0  0  0  0
    8.7760   -7.2672    0.0000 O   0  0  0  0  0  0  0  0  0  0  0  0
    8.2356   -8.9788    0.0000 C   0  0  0  0  0  0  0  0  0  0  0  0
   11.4772   -8.4381    0.0000 O   0  0  0  0  0  0  0  0  0  0  0  0
   11.4704   -7.6131    0.0000 C   0  0  0  0  0  0  0  0  0  0  0  0
   10.6836   -7.3647    0.0000 O   0  0  0  0  0  0  0  0  0  0  0  0
   10.2043   -8.0362    0.0000 C   0  0  0  0  0  0  0  0  0  0  0  0
   10.6948   -8.6995    0.0000 C   0  0  0  0  0  0  0  0  0  0  0  0
    9.3846   -8.1292    0.0000 C   0  0  0  0  0  0  0  0  0  0  0  0
    9.0553   -8.8857    0.0000 C   0  0  0  0  0  0  0  0  0  0  0  0
    9.5458   -9.5491    0.0000 C   0  0  0  0  0  0  0  0  0  0  0  0
   10.3655   -9.4560    0.0000 C   0  0  0  0  0  0  0  0  0  0  0  0
    4.4566   -8.0841    0.0000 C   0  0  0  0  0  0  0  0  0  0  0  0
    5.2778   -8.1635    0.0000 C   0  0  0  0  0  0  0  0  0  0  0  0
    5.6196   -8.9143    0.0000 C   0  0  0  0  0  0  0  0  0  0  0  0
    5.1403   -9.5858    0.0000 C   0  0  0  0  0  0  0  0  0  0  0  0
    3.9773   -8.7555    0.0000 C   0  0  0  0  0  0  0  0  0  0  0  0
    4.3191   -9.5064    0.0000 C   0  0  0  0  0  0  0  0  0  0  0  0
    3.7106  -10.0635    0.0000 O   0  0  0  0  0  0  0  0  0  0  0  0
    2.9927   -9.6570    0.0000 C   0  0  0  0  0  0  0  0  0  0  0  0
    3.1575   -8.8486    0.0000 O   0  0  0  0  0  0  0  0  0  0  0  0
    6.4408   -8.9937    0.0000 C   0  0  0  0  0  0  0  0  0  0  0  0
 26 19  1  0  0  0  0
 20 22  2  0  0  0  0
 17 21  2  0  0  0  0
 18 17  1  0  0  0  0
 19 18  2  0  0  0  0
 20 19  1  0  0  0  0
 25 21  1  0  0  0  0
 22 21  1  0  0  0  0
 23 22  1  0  0  0  0
 24 23  1  0  0  0  0
  1  2  1  0  0  0  0
  2  3  1  0  0  0  0
  3  4  1  0  0  0  0
  4  5  1  0  0  0  0
  1  5  1  0  0  0  0
  2  6  1  6  0  0  0
 25 24  1  0  0  0  0
  4 26  1  1  0  0  0
  8  9  1  0  0  0  0
  9 10  1  0  0  0  0
 10 11  1  0  0  0  0
 11 12  1  0  0  0  0
  8 12  1  0  0  0  0
 13 14  1  0  0  0  0
 14 15  2  0  0  0  0
 15 16  1  0  0  0  0
 16 12  2  0  0  0  0
 13 11  2  0  0  0  0
  7 14  1  0  0  0  0
  3  7  1  6  0  0  0
M  END
>  <cdx:fragmentId>
19

$$$$
