117477.cdx
  Mrv1902 05222410182D          

 10  9  0  0  0  0            999 V2000
   15.1385  -15.2945    0.0000 C   0  0  0  0  0  0  0  0  0  0  0  0
   14.4240  -15.7070    0.0000 C   0  0  0  0  0  0  0  0  0  0  0  0
   13.7095  -15.2945    0.0000 C   0  0  0  0  0  0  0  0  0  0  0  0
   12.9951  -15.7070    0.0000 C   0  0  0  0  0  0  0  0  0  0  0  0
   12.9951  -16.5320    0.0000 C   0  0  0  0  0  0  0  0  0  0  0  0
   15.1385  -14.4695    0.0000 O   0  0  0  0  0  0  0  0  0  0  0  0
   15.8530  -15.7070    0.0000 O   0  0  0  0  0  0  0  0  0  0  0  0
   12.2806  -15.2945    0.0000 C   0  0  0  0  0  0  0  0  0  0  0  0
   16.5674  -15.2945    0.0000 C   0  0  0  0  0  0  0  0  0  0  0  0
   17.2819  -15.7070    0.0000 C   0  0  0  0  0  0  0  0  0  0  0  0
  1  2  1  0  0  0  0
  2  3  1  0  0  0  0
  3  4  1  0  0  0  0
  4  5  1  0  0  0  0
  1  6  2  0  0  0  0
  1  7  1  0  0  0  0
  4  8  1  0  0  0  0
  9 10  1  0  0  0  0
  7  9  1  0  0  0  0
M  END
>  <cdx:groupId>
35

>  <cdx:fragmentId>
9

$$$$
