11745.cdx
  Mrv1902 05222410252D          

 46 50  0  0  0  0            999 V2000
    5.2627   -9.8244    0.0000 C   0  0  0  0  0  0  0  0  0  0  0  0
    5.2627  -10.6494    0.0000 C   0  0  0  0  0  0  0  0  0  0  0  0
    5.9771  -11.0619    0.0000 C   0  0  0  0  0  0  0  0  0  0  0  0
    6.6916  -10.6494    0.0000 C   0  0  0  0  0  0  0  0  0  0  0  0
    6.6916   -9.8244    0.0000 C   0  0  0  0  0  0  0  0  0  0  0  0
    5.9771   -9.4119    0.0000 C   0  0  0  0  0  0  0  0  0  0  0  0
    7.4061  -11.0619    0.0000 C   0  0  0  0  0  0  0  0  0  0  0  0
    8.1205  -10.6494    0.0000 C   0  0  0  0  0  0  0  0  0  0  0  0
    8.1205   -9.8244    0.0000 C   0  0  0  0  0  0  0  0  0  0  0  0
    7.4061   -9.4119    0.0000 O   0  0  0  0  0  0  0  0  0  0  0  0
    4.5482  -11.0619    0.0000 O   0  0  0  0  0  0  0  0  0  0  0  0
    5.9771  -11.8869    0.0000 O   0  0  0  0  0  0  0  0  0  0  0  0
    7.4061  -11.8869    0.0000 O   0  0  0  0  0  0  0  0  0  0  0  0
    8.8350  -11.0619    0.0000 C   0  0  0  0  0  0  0  0  0  0  0  0
    8.8350  -11.8869    0.0000 C   0  0  0  0  0  0  0  0  0  0  0  0
    9.5495  -12.2994    0.0000 C   0  0  0  0  0  0  0  0  0  0  0  0
   10.2640  -11.8869    0.0000 C   0  0  0  0  0  0  0  0  0  0  0  0
   10.2640  -11.0619    0.0000 C   0  0  0  0  0  0  0  0  0  0  0  0
    9.5495  -10.6494    0.0000 C   0  0  0  0  0  0  0  0  0  0  0  0
   10.9784  -10.6494    0.0000 O   0  0  0  0  0  0  0  0  0  0  0  0
    4.4679   -9.3357    0.0000 O   0  0  0  0  0  0  0  0  0  0  0  0
   11.0976  -12.3974    0.0000 O   0  0  0  0  0  0  0  0  0  0  0  0
    5.1815   -7.2642    0.0000 C   0  0  2  0  0  0  0  0  0  0  0  0
    4.4591   -6.8657    0.0000 C   0  0  2  0  0  0  0  0  0  0  0  0
    3.7528   -7.2921    0.0000 C   0  0  1  0  0  0  0  0  0  0  0  0
    3.7689   -8.1169    0.0000 C   0  0  2  0  0  0  0  0  0  0  0  0
    4.4913   -8.5154    0.0000 C   0  0  1  0  0  0  0  0  0  0  0  0
    5.1976   -8.0891    0.0000 O   0  0  0  0  0  0  0  0  0  0  0  0
    5.8717   -6.0130    0.0000 O   0  0  0  0  0  0  0  0  0  0  0  0
    3.0304   -6.8936    0.0000 O   0  0  0  0  0  0  0  0  0  0  0  0
    3.0626   -8.5432    0.0000 O   0  0  0  0  0  0  0  0  0  0  0  0
    4.4430   -6.0409    0.0000 O   0  0  0  0  0  0  0  0  0  0  0  0
    8.0045   -5.5918    0.0000 C   0  0  2  0  0  0  0  0  0  0  0  0
    7.9995   -4.7668    0.0000 C   0  0  2  0  0  0  0  0  0  0  0  0
    7.2825   -4.3587    0.0000 C   0  0  1  0  0  0  0  0  0  0  0  0
    6.5706   -4.7756    0.0000 C   0  0  2  0  0  0  0  0  0  0  0  0
    6.5756   -5.6006    0.0000 C   0  0  1  0  0  0  0  0  0  0  0  0
    7.2926   -6.0087    0.0000 O   0  0  0  0  0  0  0  0  0  0  0  0
    8.7215   -5.9999    0.0000 C   0  0  0  0  0  0  0  0  0  0  0  0
    7.2774   -3.5337    0.0000 O   0  0  0  0  0  0  0  0  0  0  0  0
    5.8536   -4.3675    0.0000 O   0  0  0  0  0  0  0  0  0  0  0  0
    8.7114   -4.3500    0.0000 O   0  0  0  0  0  0  0  0  0  0  0  0
    9.4360   -5.5874    0.0000 O   0  0  0  0  0  0  0  0  0  0  0  0
    5.8878   -6.8379    0.0000 C   0  0  0  0  0  0  0  0  0  0  0  0
   10.9784   -9.8244    0.0000 C   0  0  0  0  0  0  0  0  0  0  0  0
    4.5482  -11.8869    0.0000 C   0  0  0  0  0  0  0  0  0  0  0  0
  1  2  2  0  0  0  0
  2  3  1  0  0  0  0
  3  4  2  0  0  0  0
  4  5  1  0  0  0  0
  5  6  2  0  0  0  0
  6  1  1  0  0  0  0
  4  7  1  0  0  0  0
  7  8  1  0  0  0  0
  8  9  2  0  0  0  0
  9 10  1  0  0  0  0
 10  5  1  0  0  0  0
  2 11  1  0  0  0  0
  3 12  1  0  0  0  0
  7 13  2  0  0  0  0
  8 14  1  0  0  0  0
 14 15  2  0  0  0  0
 15 16  1  0  0  0  0
 16 17  2  0  0  0  0
 17 18  1  0  0  0  0
 18 19  2  0  0  0  0
 19 14  1  0  0  0  0
 18 20  1  0  0  0  0
  1 21  1  0  0  0  0
 17 22  1  0  0  0  0
 23 24  1  0  0  0  0
 24 25  1  0  0  0  0
 25 26  1  0  0  0  0
 26 27  1  0  0  0  0
 27 28  1  0  0  0  0
 28 23  1  0  0  0  0
 23 44  1  1  0  0  0
 25 30  1  1  0  0  0
 26 31  1  6  0  0  0
 24 32  1  6  0  0  0
 27 21  1  1  0  0  0
 33 34  1  0  0  0  0
 34 35  1  0  0  0  0
 35 36  1  0  0  0  0
 36 37  1  0  0  0  0
 37 38  1  0  0  0  0
 38 33  1  0  0  0  0
 33 39  1  1  0  0  0
 35 40  1  1  0  0  0
 36 41  1  6  0  0  0
 34 42  1  6  0  0  0
 39 43  1  0  0  0  0
 44 29  1  0  0  0  0
 37 29  1  1  0  0  0
 20 45  1  0  0  0  0
 11 46  1  0  0  0  0
M  END
>  <cdx:fragmentId>
5

$$$$
