11747.cdx
  Mrv1902 05222410252D          

 46 50  0  0  0  0            999 V2000
    2.9482  -11.5005    0.0000 O   0  0  0  0  0  0  0  0  0  0  0  0
    1.5193   -9.0255    0.0000 O   0  0  0  0  0  0  0  0  0  0  0  0
    7.9495  -10.2630    0.0000 O   0  0  0  0  0  0  0  0  0  0  0  0
    8.6640  -11.5005    0.0000 C   0  0  0  0  0  0  0  0  0  0  0  0
    7.9495  -11.9130    0.0000 O   0  0  0  0  0  0  0  0  0  0  0  0
    5.8061  -11.5005    0.0000 C   0  0  0  0  0  0  0  0  0  0  0  0
    6.5206  -11.9130    0.0000 C   0  0  0  0  0  0  0  0  0  0  0  0
    7.2350  -11.5005    0.0000 C   0  0  0  0  0  0  0  0  0  0  0  0
    7.2350  -10.6755    0.0000 C   0  0  0  0  0  0  0  0  0  0  0  0
    6.5206  -10.2630    0.0000 C   0  0  0  0  0  0  0  0  0  0  0  0
    5.8061  -10.6755    0.0000 C   0  0  0  0  0  0  0  0  0  0  0  0
    0.8048  -10.2630    0.0000 C   0  0  0  0  0  0  0  0  0  0  0  0
    1.5193  -10.6755    0.0000 O   0  0  0  0  0  0  0  0  0  0  0  0
    4.3772  -11.5005    0.0000 O   0  0  0  0  0  0  0  0  0  0  0  0
    4.3772   -9.0255    0.0000 O   0  0  0  0  0  0  0  0  0  0  0  0
    3.6627   -9.4380    0.0000 C   0  0  0  0  0  0  0  0  0  0  0  0
    2.9482   -9.0255    0.0000 C   0  0  0  0  0  0  0  0  0  0  0  0
    2.2338   -9.4380    0.0000 C   0  0  0  0  0  0  0  0  0  0  0  0
    2.2338  -10.2630    0.0000 C   0  0  0  0  0  0  0  0  0  0  0  0
    2.9482  -10.6755    0.0000 C   0  0  0  0  0  0  0  0  0  0  0  0
    3.6627  -10.2630    0.0000 C   0  0  0  0  0  0  0  0  0  0  0  0
    4.3772  -10.6755    0.0000 C   0  0  0  0  0  0  0  0  0  0  0  0
    5.0916  -10.2630    0.0000 C   0  0  0  0  0  0  0  0  0  0  0  0
    5.0916   -9.4380    0.0000 C   0  0  0  0  0  0  0  0  0  0  0  0
    8.6711   -8.1805    0.0000 C   0  0  2  0  0  0  0  0  0  0  0  0
    7.9488   -7.7820    0.0000 C   0  0  2  0  0  0  0  0  0  0  0  0
    7.2425   -8.2083    0.0000 C   0  0  1  0  0  0  0  0  0  0  0  0
    7.2585   -9.0332    0.0000 C   0  0  2  0  0  0  0  0  0  0  0  0
    7.9809   -9.4317    0.0000 C   0  0  1  0  0  0  0  0  0  0  0  0
    8.6872   -9.0053    0.0000 O   0  0  0  0  0  0  0  0  0  0  0  0
    9.3613   -6.9293    0.0000 O   0  0  0  0  0  0  0  0  0  0  0  0
    6.5201   -7.8098    0.0000 O   0  0  0  0  0  0  0  0  0  0  0  0
    6.5522   -9.4595    0.0000 O   0  0  0  0  0  0  0  0  0  0  0  0
    7.9327   -6.9571    0.0000 O   0  0  0  0  0  0  0  0  0  0  0  0
   11.4942   -6.5081    0.0000 C   0  0  2  0  0  0  0  0  0  0  0  0
   11.4891   -5.6831    0.0000 C   0  0  2  0  0  0  0  0  0  0  0  0
   10.7721   -5.2750    0.0000 C   0  0  1  0  0  0  0  0  0  0  0  0
   10.0602   -5.6919    0.0000 C   0  0  2  0  0  0  0  0  0  0  0  0
   10.0653   -6.5168    0.0000 C   0  0  1  0  0  0  0  0  0  0  0  0
   10.7823   -6.9250    0.0000 O   0  0  0  0  0  0  0  0  0  0  0  0
   12.2112   -6.9162    0.0000 C   0  0  0  0  0  0  0  0  0  0  0  0
   10.7671   -4.4500    0.0000 O   0  0  0  0  0  0  0  0  0  0  0  0
    9.3432   -5.2837    0.0000 O   0  0  0  0  0  0  0  0  0  0  0  0
   12.2011   -5.2662    0.0000 O   0  0  0  0  0  0  0  0  0  0  0  0
   12.9256   -6.5037    0.0000 O   0  0  0  0  0  0  0  0  0  0  0  0
    9.3774   -7.7541    0.0000 C   0  0  0  0  0  0  0  0  0  0  0  0
 20  1  1  0  0  0  0
 18  2  1  0  0  0  0
 23 11  1  0  0  0  0
  9  3  1  0  0  0  0
  8  5  1  0  0  0  0
  5  4  1  0  0  0  0
 11  6  2  0  0  0  0
  7  6  1  0  0  0  0
  8  7  2  0  0  0  0
  9  8  1  0  0  0  0
 10  9  2  0  0  0  0
 11 10  1  0  0  0  0
 19 13  1  0  0  0  0
 13 12  1  0  0  0  0
 22 14  2  0  0  0  0
 24 15  1  0  0  0  0
 16 15  1  0  0  0  0
 21 16  2  0  0  0  0
 17 16  1  0  0  0  0
 18 17  2  0  0  0  0
 19 18  1  0  0  0  0
 20 19  2  0  0  0  0
 21 20  1  0  0  0  0
 22 21  1  0  0  0  0
 23 22  1  0  0  0  0
 24 23  2  0  0  0  0
 25 26  1  0  0  0  0
 26 27  1  0  0  0  0
 27 28  1  0  0  0  0
 28 29  1  0  0  0  0
 29 30  1  0  0  0  0
 30 25  1  0  0  0  0
 25 46  1  1  0  0  0
 27 32  1  1  0  0  0
 28 33  1  6  0  0  0
 26 34  1  6  0  0  0
 35 36  1  0  0  0  0
 36 37  1  0  0  0  0
 37 38  1  0  0  0  0
 38 39  1  0  0  0  0
 39 40  1  0  0  0  0
 40 35  1  0  0  0  0
 35 41  1  1  0  0  0
 37 42  1  1  0  0  0
 38 43  1  6  0  0  0
 36 44  1  6  0  0  0
 41 45  1  0  0  0  0
 46 31  1  0  0  0  0
 39 31  1  1  0  0  0
 29  3  1  1  0  0  0
M  END
>  <cdx:fragmentId>
5

$$$$
