11748.cdx
  Mrv1902 05222410212D          

 46 50  0  0  0  0            999 V2000
    5.8220  -11.8580    0.0000 O   0  0  0  0  0  0  0  0  0  0  0  0
    4.3930   -9.3830    0.0000 O   0  0  0  0  0  0  0  0  0  0  0  0
   10.8233  -10.6205    0.0000 O   0  0  0  0  0  0  0  0  0  0  0  0
   11.5377  -11.8580    0.0000 C   0  0  0  0  0  0  0  0  0  0  0  0
   10.8233  -12.2705    0.0000 O   0  0  0  0  0  0  0  0  0  0  0  0
    8.6799  -11.8580    0.0000 C   0  0  0  0  0  0  0  0  0  0  0  0
    9.3943  -12.2705    0.0000 C   0  0  0  0  0  0  0  0  0  0  0  0
   10.1088  -11.8580    0.0000 C   0  0  0  0  0  0  0  0  0  0  0  0
   10.1088  -11.0330    0.0000 C   0  0  0  0  0  0  0  0  0  0  0  0
    9.3943  -10.6205    0.0000 C   0  0  0  0  0  0  0  0  0  0  0  0
    8.6799  -11.0330    0.0000 C   0  0  0  0  0  0  0  0  0  0  0  0
    3.6786  -10.6205    0.0000 C   0  0  0  0  0  0  0  0  0  0  0  0
    4.3930  -11.0330    0.0000 O   0  0  0  0  0  0  0  0  0  0  0  0
    7.2509  -11.8580    0.0000 O   0  0  0  0  0  0  0  0  0  0  0  0
    7.2509   -9.3830    0.0000 O   0  0  0  0  0  0  0  0  0  0  0  0
    6.5364   -9.7955    0.0000 C   0  0  0  0  0  0  0  0  0  0  0  0
    5.8220   -9.3830    0.0000 C   0  0  0  0  0  0  0  0  0  0  0  0
    5.1075   -9.7955    0.0000 C   0  0  0  0  0  0  0  0  0  0  0  0
    5.1075  -10.6205    0.0000 C   0  0  0  0  0  0  0  0  0  0  0  0
    5.8220  -11.0330    0.0000 C   0  0  0  0  0  0  0  0  0  0  0  0
    6.5364  -10.6205    0.0000 C   0  0  0  0  0  0  0  0  0  0  0  0
    7.2509  -11.0330    0.0000 C   0  0  0  0  0  0  0  0  0  0  0  0
    7.9654  -10.6205    0.0000 C   0  0  0  0  0  0  0  0  0  0  0  0
    7.9654   -9.7955    0.0000 C   0  0  0  0  0  0  0  0  0  0  0  0
    5.1099   -7.3142    0.0000 C   0  0  2  0  0  0  0  0  0  0  0  0
    4.3875   -6.9157    0.0000 C   0  0  2  0  0  0  0  0  0  0  0  0
    3.6812   -7.3421    0.0000 C   0  0  1  0  0  0  0  0  0  0  0  0
    3.6973   -8.1669    0.0000 C   0  0  2  0  0  0  0  0  0  0  0  0
    4.4197   -8.5654    0.0000 C   0  0  1  0  0  0  0  0  0  0  0  0
    5.1260   -8.1391    0.0000 O   0  0  0  0  0  0  0  0  0  0  0  0
    5.8001   -6.0630    0.0000 O   0  0  0  0  0  0  0  0  0  0  0  0
    2.9588   -6.9436    0.0000 O   0  0  0  0  0  0  0  0  0  0  0  0
    2.9910   -8.5933    0.0000 O   0  0  0  0  0  0  0  0  0  0  0  0
    4.3714   -6.0909    0.0000 O   0  0  0  0  0  0  0  0  0  0  0  0
    7.9329   -5.6418    0.0000 C   0  0  2  0  0  0  0  0  0  0  0  0
    7.9279   -4.8169    0.0000 C   0  0  2  0  0  0  0  0  0  0  0  0
    7.2109   -4.4087    0.0000 C   0  0  1  0  0  0  0  0  0  0  0  0
    6.4990   -4.8256    0.0000 C   0  0  2  0  0  0  0  0  0  0  0  0
    6.5040   -5.6506    0.0000 C   0  0  1  0  0  0  0  0  0  0  0  0
    7.2210   -6.0587    0.0000 O   0  0  0  0  0  0  0  0  0  0  0  0
    8.6499   -6.0500    0.0000 C   0  0  0  0  0  0  0  0  0  0  0  0
    7.2058   -3.5838    0.0000 O   0  0  0  0  0  0  0  0  0  0  0  0
    5.7820   -4.4175    0.0000 O   0  0  0  0  0  0  0  0  0  0  0  0
    8.6398   -4.4000    0.0000 O   0  0  0  0  0  0  0  0  0  0  0  0
    9.3644   -5.6375    0.0000 O   0  0  0  0  0  0  0  0  0  0  0  0
    5.8162   -6.8879    0.0000 C   0  0  0  0  0  0  0  0  0  0  0  0
 20  1  1  0  0  0  0
 18  2  1  0  0  0  0
 23 11  1  0  0  0  0
  9  3  1  0  0  0  0
  8  5  1  0  0  0  0
  5  4  1  0  0  0  0
 11  6  2  0  0  0  0
  7  6  1  0  0  0  0
  8  7  2  0  0  0  0
  9  8  1  0  0  0  0
 10  9  2  0  0  0  0
 11 10  1  0  0  0  0
 19 13  1  0  0  0  0
 13 12  1  0  0  0  0
 22 14  2  0  0  0  0
 24 15  1  0  0  0  0
 16 15  1  0  0  0  0
 21 16  2  0  0  0  0
 17 16  1  0  0  0  0
 18 17  2  0  0  0  0
 19 18  1  0  0  0  0
 20 19  2  0  0  0  0
 21 20  1  0  0  0  0
 22 21  1  0  0  0  0
 23 22  1  0  0  0  0
 24 23  2  0  0  0  0
 25 26  1  0  0  0  0
 26 27  1  0  0  0  0
 27 28  1  0  0  0  0
 28 29  1  0  0  0  0
 29 30  1  0  0  0  0
 30 25  1  0  0  0  0
 25 46  1  1  0  0  0
 27 32  1  1  0  0  0
 28 33  1  6  0  0  0
 26 34  1  6  0  0  0
 35 36  1  0  0  0  0
 36 37  1  0  0  0  0
 37 38  1  0  0  0  0
 38 39  1  0  0  0  0
 39 40  1  0  0  0  0
 40 35  1  0  0  0  0
 35 41  1  1  0  0  0
 37 42  1  1  0  0  0
 38 43  1  6  0  0  0
 36 44  1  6  0  0  0
 41 45  1  0  0  0  0
 46 31  1  0  0  0  0
 39 31  1  1  0  0  0
 29  2  1  1  0  0  0
M  END
>  <cdx:fragmentId>
5

$$$$
