117652.cdx
  Mrv1902 05222410272D          

 17 19  0  0  0  0            999 V2000
    7.8414   -7.4346    0.0000 C   0  0  2  0  0  0  0  0  0  0  0  0
    8.6260   -7.1797    0.0000 C   0  0  1  0  0  0  0  0  0  0  0  0
    9.1109   -7.8471    0.0000 C   0  0  0  0  0  0  0  0  0  0  0  0
    8.6260   -8.5145    0.0000 C   0  0  0  0  0  0  0  0  0  0  0  0
    7.8414   -8.2596    0.0000 C   0  0  1  0  0  0  0  0  0  0  0  0
    7.1269   -8.6721    0.0000 C   0  0  0  0  0  0  0  0  0  0  0  0
    6.4124   -8.2596    0.0000 C   0  0  2  0  0  0  0  0  0  0  0  0
    6.4124   -7.4346    0.0000 C   0  0  2  0  0  0  0  0  0  0  0  0
    7.1269   -7.0221    0.0000 C   0  0  0  0  0  0  0  0  0  0  0  0
    7.2237   -7.3971    0.0000 C   0  0  0  0  0  0  0  0  0  0  0  0
    6.6879   -7.7065    0.0000 C   0  0  0  0  0  0  0  0  0  0  0  0
    5.6979   -7.0221    0.0000 O   0  0  0  0  0  0  0  0  0  0  0  0
    5.6979   -8.6721    0.0000 C   0  0  0  0  0  0  0  0  0  0  0  0
    7.5394   -9.3866    0.0000 C   0  0  0  0  0  0  0  0  0  0  0  0
    6.7144   -9.3866    0.0000 C   0  0  0  0  0  0  0  0  0  0  0  0
    8.8809   -6.3950    0.0000 C   0  0  0  0  0  0  0  0  0  0  0  0
    7.9276   -9.0801    0.0000 H   0  0  0  0  0  0  0  0  0  0  0  0
  1  2  1  0  0  0  0
  2  3  1  0  0  0  0
  3  4  1  0  0  0  0
  4  5  1  0  0  0  0
  5  6  1  0  0  0  0
  6  7  1  0  0  0  0
  7  8  1  0  0  0  0
  8  9  1  0  0  0  0
 10 11  1  0  0  0  0
  1  9  1  6  0  0  0
  1 10  1  0  0  0  0
  7 11  1  0  0  0  0
  1  5  1  0  0  0  0
  8 12  1  1  0  0  0
  7 13  1  1  0  0  0
  6 14  1  0  0  0  0
  6 15  1  0  0  0  0
  2 16  1  6  0  0  0
  5 17  1  6  0  0  0
M  END
>  <cdx:fragmentId>
3380

$$$$
