11768.cdx
  Mrv1902 05222410242D          

 27 30  0  0  0  0            999 V2000
    3.1966   -8.8267    0.0000 O   0  0  0  0  0  0  0  0  0  0  0  0
    3.1975   -8.0017    0.0000 C   0  0  0  0  0  0  0  0  0  0  0  0
    3.9824   -7.7477    0.0000 C   0  0  0  0  0  0  0  0  0  0  0  0
    4.4666   -8.4156    0.0000 C   0  0  0  0  0  0  0  0  0  0  0  0
    3.9809   -9.0825    0.0000 C   0  0  0  0  0  0  0  0  0  0  0  0
    4.2350   -9.8674    0.0000 O   0  0  0  0  0  0  0  0  0  0  0  0
    7.2756   -8.4187    0.0000 H   0  0  0  0  0  0  0  0  0  0  0  0
    8.7046   -8.4203    0.0000 H   0  0  0  0  0  0  0  0  0  0  0  0
    9.4213   -6.3586    0.0000 O   0  0  0  0  0  0  0  0  0  0  0  0
    9.9422   -8.3111    0.0000 O   0  0  0  0  0  0  0  0  0  0  0  0
    9.1172   -8.3102    0.0000 C   0  0  0  0  0  0  0  0  0  0  0  0
    6.4736   -9.6508    0.0000 C   0  0  0  0  0  0  0  0  0  0  0  0
    9.5305   -7.5962    0.0000 C   0  0  0  0  0  0  0  0  0  0  0  0
    6.5625   -7.1804    0.0000 C   0  0  0  0  0  0  0  0  0  0  0  0
    7.2774   -6.7687    0.0000 C   0  0  0  0  0  0  0  0  0  0  0  0
    7.9924   -6.3570    0.0000 C   0  0  0  0  0  0  0  0  0  0  0  0
    8.7064   -6.7703    0.0000 C   0  0  2  0  0  0  0  0  0  0  0  0
    8.7055   -7.5953    0.0000 C   0  0  2  0  0  0  0  0  0  0  0  0
    6.5607   -8.8304    0.0000 C   0  0  1  0  0  0  0  0  0  0  0  0
    7.2747   -9.2437    0.0000 C   0  0  0  0  0  0  0  0  0  0  0  0
    7.9896   -8.8320    0.0000 C   0  0  0  0  0  0  0  0  0  0  0  0
    7.9905   -8.0070    0.0000 C   0  0  1  0  0  0  0  0  0  0  0  0
    7.2765   -7.5937    0.0000 C   0  0  1  0  0  0  0  0  0  0  0  0
    6.5616   -8.0054    0.0000 C   0  0  2  0  0  0  0  0  0  0  0  0
    5.7773   -7.7496    0.0000 C   0  0  0  0  0  0  0  0  0  0  0  0
    5.2916   -8.4165    0.0000 C   0  0  0  0  0  0  0  0  0  0  0  0
    5.7758   -9.0845    0.0000 O   0  0  0  0  0  0  0  0  0  0  0  0
 24  7  1  6  0  0  0
 22  8  1  6  0  0  0
 17  9  1  1  0  0  0
 18 11  1  1  0  0  0
 11 10  1  0  0  0  0
 19 12  1  6  0  0  0
 18 13  1  6  0  0  0
 23 14  1  1  0  0  0
 18 22  1  0  0  0  0
 15 23  1  0  0  0  0
 16 15  1  0  0  0  0
 17 16  1  0  0  0  0
 18 17  1  0  0  0  0
 27 19  1  0  0  0  0
 24 19  1  0  0  0  0
 20 19  1  0  0  0  0
 21 20  1  0  0  0  0
 22 21  1  0  0  0  0
 23 22  1  0  0  0  0
 24 23  1  0  0  0  0
 25 24  1  0  0  0  0
  1  2  1  0  0  0  0
  2  3  1  0  0  0  0
  3  4  2  0  0  0  0
  4  5  1  0  0  0  0
  1  5  1  0  0  0  0
  5  6  2  0  0  0  0
 26 25  1  0  0  0  0
 27 26  1  0  0  0  0
  4 26  1  0  0  0  0
M  END
>  <cdx:fragmentId>
17

$$$$
