11775.cdx
  Mrv1902 05222410212D          

 36 40  0  0  0  0            999 V2000
    5.9621  -10.3954    0.0000 H   0  0  0  0  0  0  0  0  0  0  0  0
    8.0586   -6.6563    0.0000 C   0  0  0  0  0  0  0  0  0  0  0  0
    9.4667   -4.9884    0.0000 C   0  0  0  0  0  0  0  0  0  0  0  0
    8.0482   -5.8313    0.0000 C   0  0  0  0  0  0  0  0  0  0  0  0
   10.2174   -7.8667    0.0000 C   0  0  0  0  0  0  0  0  0  0  0  0
    8.7886   -7.8847    0.0000 H   0  0  0  0  0  0  0  0  0  0  0  0
    8.0897   -9.1311    0.0000 C   0  0  0  0  0  0  0  0  0  0  0  0
    5.9309   -7.9206    0.0000 C   0  0  0  0  0  0  0  0  0  0  0  0
    2.3848  -10.0279    0.0000 C   0  0  0  0  0  0  0  0  0  0  0  0
    3.0836   -8.7815    0.0000 O   0  0  0  0  0  0  0  0  0  0  0  0
    3.0940   -9.6065    0.0000 C   0  0  0  0  0  0  0  0  0  0  0  0
    3.8136  -10.0099    0.0000 O   0  0  0  0  0  0  0  0  0  0  0  0
    5.6549  -10.7064    0.0000 C   0  0  0  0  0  0  0  0  0  0  0  0
    4.8390  -10.7116    0.0000 C   0  0  0  0  0  0  0  0  0  0  0  0
    5.2217   -8.3421    0.0000 C   0  0  0  0  0  0  0  0  0  0  0  0
    4.5125   -8.7635    0.0000 C   0  0  0  0  0  0  0  0  0  0  0  0
    4.5228   -9.5885    0.0000 C   0  0  1  0  0  0  0  0  0  0  0  0
    5.2424   -9.9920    0.0000 C   0  0  0  0  0  0  0  0  0  0  0  0
    5.9413   -8.7456    0.0000 C   0  0  2  0  0  0  0  0  0  0  0  0
    5.9517   -9.5705    0.0000 C   0  0  1  0  0  0  0  0  0  0  0  0
    6.6713   -9.9740    0.0000 C   0  0  0  0  0  0  0  0  0  0  0  0
    7.3805   -9.5525    0.0000 C   0  0  0  0  0  0  0  0  0  0  0  0
    7.3494   -7.0777    0.0000 C   0  0  0  0  0  0  0  0  0  0  0  0
    6.6402   -7.4992    0.0000 C   0  0  0  0  0  0  0  0  0  0  0  0
    6.6505   -8.3241    0.0000 C   0  0  0  0  0  0  0  0  0  0  0  0
    7.3701   -8.7276    0.0000 C   0  0  0  0  0  0  0  0  0  0  0  0
    8.0690   -7.4812    0.0000 C   0  0  1  0  0  0  0  0  0  0  0  0
    8.0794   -8.3062    0.0000 C   0  0  1  0  0  0  0  0  0  0  0  0
    8.7990   -8.7096    0.0000 C   0  0  0  0  0  0  0  0  0  0  0  0
    9.5082   -8.2882    0.0000 C   0  0  0  0  0  0  0  0  0  0  0  0
    8.7678   -6.2348    0.0000 C   0  0  2  0  0  0  0  0  0  0  0  0
    8.7782   -7.0598    0.0000 C   0  0  2  0  0  0  0  0  0  0  0  0
    9.4978   -7.4632    0.0000 C   0  0  1  0  0  0  0  0  0  0  0  0
   10.2070   -7.0418    0.0000 C   0  0  0  0  0  0  0  0  0  0  0  0
   10.1967   -6.2169    0.0000 C   0  0  0  0  0  0  0  0  0  0  0  0
    9.4771   -5.8134    0.0000 C   0  0  1  0  0  0  0  0  0  0  0  0
 20  1  1  6  0  0  0
 27  2  1  6  0  0  0
 36  3  1  6  0  0  0
 31  4  1  1  0  0  0
 33  5  1  1  0  0  0
 32  6  1  1  0  0  0
 28  7  1  1  0  0  0
 19  8  1  1  0  0  0
 11  9  1  0  0  0  0
 11 10  2  0  0  0  0
 12 11  1  0  0  0  0
 17 12  1  1  0  0  0
 18 13  1  0  0  0  0
 18 14  1  0  0  0  0
 15 19  1  0  0  0  0
 16 15  1  0  0  0  0
 17 16  1  0  0  0  0
 18 17  1  0  0  0  0
 20 18  1  0  0  0  0
 19 25  1  0  0  0  0
 20 19  1  0  0  0  0
 21 20  1  0  0  0  0
 22 21  1  0  0  0  0
 26 22  1  0  0  0  0
 23 27  1  0  0  0  0
 24 23  1  0  0  0  0
 25 24  1  0  0  0  0
 26 25  2  0  0  0  0
 28 26  1  0  0  0  0
 27 32  1  0  0  0  0
 28 27  1  0  0  0  0
 29 28  1  0  0  0  0
 30 29  1  0  0  0  0
 33 30  1  0  0  0  0
 31 36  1  0  0  0  0
 32 31  1  0  0  0  0
 33 32  1  0  0  0  0
 34 33  1  0  0  0  0
 35 34  1  0  0  0  0
 36 35  1  0  0  0  0
M  END
>  <cdx:fragmentId>
5

$$$$
