11779.cdx
  Mrv1902 05222410252D          

 27 29  0  0  0  0            999 V2000
    6.0581   -6.0913    0.0000 C   0  0  0  0  0  0  0  0  0  0  0  0
    6.0581   -5.2663    0.0000 C   0  0  0  0  0  0  0  0  0  0  0  0
    6.7726   -4.8538    0.0000 C   0  0  0  0  0  0  0  0  0  0  0  0
    5.3436   -6.5038    0.0000 O   0  0  0  0  0  0  0  0  0  0  0  0
    6.7726   -6.5038    0.0000 O   0  0  0  0  0  0  0  0  0  0  0  0
    5.3436   -4.8538    0.0000 C   0  0  0  0  0  0  0  0  0  0  0  0
    6.0581   -8.5663    0.0000 C   0  0  0  0  0  0  0  0  0  0  0  0
    6.0581   -7.7413    0.0000 C   0  0  1  0  0  0  0  0  0  0  0  0
    6.7726   -7.3288    0.0000 C   0  0  1  0  0  0  0  0  0  0  0  0
    7.4870   -7.7413    0.0000 C   0  0  0  0  0  0  0  0  0  0  0  0
    8.2015   -7.3288    0.0000 C   0  0  0  0  0  0  0  0  0  0  0  0
    8.9160   -7.7413    0.0000 C   0  0  0  0  0  0  0  0  0  0  0  0
    8.9160   -8.5663    0.0000 C   0  0  0  0  0  0  0  0  0  0  0  0
    8.2015   -8.9788    0.0000 C   0  0  0  0  0  0  0  0  0  0  0  0
    7.4870   -8.5663    0.0000 C   0  0  0  0  0  0  0  0  0  0  0  0
    6.7726   -8.9788    0.0000 O   0  0  0  0  0  0  0  0  0  0  0  0
    9.6304   -7.3288    0.0000 C   0  0  0  0  0  0  0  0  0  0  0  0
    9.6304   -6.5038    0.0000 C   0  0  0  0  0  0  0  0  0  0  0  0
    8.9160   -6.0913    0.0000 C   0  0  0  0  0  0  0  0  0  0  0  0
    8.2015   -6.5038    0.0000 O   0  0  0  0  0  0  0  0  0  0  0  0
    8.9160   -5.2663    0.0000 O   0  0  0  0  0  0  0  0  0  0  0  0
    5.6456   -9.2808    0.0000 C   0  0  0  0  0  0  0  0  0  0  0  0
    5.2331   -8.5663    0.0000 C   0  0  0  0  0  0  0  0  0  0  0  0
    5.3436   -7.3288    0.0000 O   0  0  0  0  0  0  0  0  0  0  0  0
    4.6291   -7.7413    0.0000 C   0  0  0  0  0  0  0  0  0  0  0  0
    4.6291   -8.5663    0.0000 O   0  0  0  0  0  0  0  0  0  0  0  0
    3.9147   -7.3288    0.0000 C   0  0  0  0  0  0  0  0  0  0  0  0
  1  2  1  0  0  0  0
  2  3  1  0  0  0  0
  1  4  2  0  0  0  0
  1  5  1  0  0  0  0
  2  6  1  0  0  0  0
  7  8  1  0  0  0  0
  8  9  1  0  0  0  0
  9 10  1  0  0  0  0
 10 11  1  0  0  0  0
 11 12  2  0  0  0  0
 12 13  1  0  0  0  0
 13 14  2  0  0  0  0
 14 15  1  0  0  0  0
 10 15  2  0  0  0  0
 15 16  1  0  0  0  0
  7 16  1  0  0  0  0
 17 18  2  0  0  0  0
 18 19  1  0  0  0  0
 19 20  1  0  0  0  0
 20 11  1  0  0  0  0
 17 12  1  0  0  0  0
 19 21  2  0  0  0  0
  7 22  1  0  0  0  0
  7 23  1  0  0  0  0
 25 26  2  0  0  0  0
 25 27  1  0  0  0  0
 24 25  1  0  0  0  0
  8 24  1  6  0  0  0
  9  5  1  6  0  0  0
M  END
>  <cdx:fragmentId>
44602

$$$$
