117769.cdx
  Mrv1902 05222410242D          

 19 18  0  0  0  0            999 V2000
   12.6340   -9.8829    0.0000 C   0  0  0  0  0  0  0  0  0  0  0  0
   11.9196  -10.2954    0.0000 C   0  0  0  0  0  0  0  0  0  0  0  0
   11.2051   -9.8829    0.0000 C   0  0  0  0  0  0  0  0  0  0  0  0
   10.4906  -10.2954    0.0000 C   0  0  0  0  0  0  0  0  0  0  0  0
    9.7762   -9.8829    0.0000 C   0  0  0  0  0  0  0  0  0  0  0  0
    9.0617  -10.2954    0.0000 C   0  0  0  0  0  0  0  0  0  0  0  0
    8.3472   -9.8829    0.0000 C   0  0  0  0  0  0  0  0  0  0  0  0
    7.6327  -10.2954    0.0000 C   0  0  0  0  0  0  0  0  0  0  0  0
    6.9183   -9.8829    0.0000 C   0  0  0  0  0  0  0  0  0  0  0  0
    6.2038  -10.2954    0.0000 C   0  0  0  0  0  0  0  0  0  0  0  0
    5.4893   -9.8829    0.0000 C   0  0  0  0  0  0  0  0  0  0  0  0
    4.7749  -10.2954    0.0000 C   0  0  0  0  0  0  0  0  0  0  0  0
    4.0604   -9.8829    0.0000 C   0  0  0  0  0  0  0  0  0  0  0  0
    3.3459  -10.2954    0.0000 C   0  0  0  0  0  0  0  0  0  0  0  0
    2.6315   -9.8829    0.0000 C   0  0  0  0  0  0  0  0  0  0  0  0
    1.9170  -10.2954    0.0000 C   0  0  0  0  0  0  0  0  0  0  0  0
    1.2025   -9.8829    0.0000 C   0  0  0  0  0  0  0  0  0  0  0  0
   12.6340   -9.0579    0.0000 O   0  0  0  0  0  0  0  0  0  0  0  0
   13.3485  -10.2954    0.0000 O   0  0  0  0  0  0  0  0  0  0  0  0
  1  2  1  0  0  0  0
  2  3  2  0  0  0  0
  3  4  1  0  0  0  0
  4  5  1  0  0  0  0
  5  6  1  0  0  0  0
  6  7  1  0  0  0  0
  7  8  1  0  0  0  0
  8  9  1  0  0  0  0
  9 10  1  0  0  0  0
 10 11  1  0  0  0  0
 11 12  1  0  0  0  0
 12 13  1  0  0  0  0
 13 14  1  0  0  0  0
 14 15  1  0  0  0  0
 15 16  1  0  0  0  0
 16 17  1  0  0  0  0
  1 18  2  0  0  0  0
  1 19  1  0  0  0  0
M  END
>  <cdx:fragmentId>
1700

$$$$
