11777.cdx
  Mrv1902 05222410202D          

 23 26  0  0  0  0            999 V2000
    8.0473   -8.1625    0.0000 C   0  0  0  0  0  0  0  0  0  0  0  0
    8.0473   -7.3375    0.0000 C   0  0  0  0  0  0  0  0  0  0  0  0
    7.3328   -6.9250    0.0000 C   0  0  0  0  0  0  0  0  0  0  0  0
    6.6184   -7.3375    0.0000 C   0  0  0  0  0  0  0  0  0  0  0  0
    6.6184   -8.1625    0.0000 C   0  0  0  0  0  0  0  0  0  0  0  0
    7.3328   -8.5750    0.0000 C   0  0  0  0  0  0  0  0  0  0  0  0
    5.9039   -6.9250    0.0000 O   0  0  0  0  0  0  0  0  0  0  0  0
    5.1894   -7.3375    0.0000 C   0  0  0  0  0  0  0  0  0  0  0  0
    5.1894   -8.1625    0.0000 C   0  0  0  0  0  0  0  0  0  0  0  0
    5.9039   -8.5750    0.0000 C   0  0  0  0  0  0  0  0  0  0  0  0
    8.8319   -8.4174    0.0000 C   0  0  0  0  0  0  0  0  0  0  0  0
    9.3168   -7.7500    0.0000 C   0  0  0  0  0  0  0  0  0  0  0  0
    8.8319   -7.0825    0.0000 O   0  0  0  0  0  0  0  0  0  0  0  0
    4.4749   -6.9250    0.0000 O   0  0  0  0  0  0  0  0  0  0  0  0
    7.3328   -6.1000    0.0000 O   0  0  0  0  0  0  0  0  0  0  0  0
    7.3328   -9.4000    0.0000 O   0  0  0  0  0  0  0  0  0  0  0  0
    6.6184   -9.8125    0.0000 C   0  0  0  0  0  0  0  0  0  0  0  0
    5.9039   -9.4000    0.0000 C   0  0  0  0  0  0  0  0  0  0  0  0
    5.1894   -9.8125    0.0000 C   0  0  0  0  0  0  0  0  0  0  0  0
    4.4749   -9.4000    0.0000 C   0  0  0  0  0  0  0  0  0  0  0  0
    5.1894  -10.6375    0.0000 C   0  0  0  0  0  0  0  0  0  0  0  0
    5.9039  -10.2250    0.0000 O   0  0  0  0  0  0  0  0  0  0  0  0
    6.7495   -5.5166    0.0000 C   0  0  0  0  0  0  0  0  0  0  0  0
  1  2  2  0  0  0  0
  2  3  1  0  0  0  0
  3  4  2  0  0  0  0
  4  5  1  0  0  0  0
  5  6  2  0  0  0  0
  6  1  1  0  0  0  0
  4  7  1  0  0  0  0
  7  8  1  0  0  0  0
  8  9  1  0  0  0  0
  9 10  2  0  0  0  0
 10  5  1  0  0  0  0
  1 11  1  0  0  0  0
 11 12  2  0  0  0  0
 12 13  1  0  0  0  0
 13  2  1  0  0  0  0
  8 14  2  0  0  0  0
  3 15  1  0  0  0  0
  6 16  1  0  0  0  0
 16 17  1  0  0  0  0
 17 18  1  0  0  0  0
 18 19  1  0  0  0  0
 19 20  1  0  0  0  0
 19 21  1  0  0  0  0
 18 22  1  0  0  0  0
 22 19  1  0  0  0  0
 15 23  1  0  0  0  0
M  END
>  <cdx:fragmentId>
5

$$$$
