11773.cdx
  Mrv1902 05222410232D          

 62 69  0  0  0  0            999 V2000
    6.1306   -6.7788    0.0000 C   0  0  0  0  0  0  0  0  0  0  0  0
    6.1306   -7.6037    0.0000 C   0  0  1  0  0  0  0  0  0  0  0  0
    6.8450   -8.0162    0.0000 C   0  0  0  0  0  0  0  0  0  0  0  0
    7.5595   -7.6037    0.0000 C   0  0  1  0  0  0  0  0  0  0  0  0
    7.5595   -6.7788    0.0000 C   0  0  2  0  0  0  0  0  0  0  0  0
    6.8450   -6.3662    0.0000 C   0  0  0  0  0  0  0  0  0  0  0  0
    8.2740   -8.0162    0.0000 C   0  0  2  0  0  0  0  0  0  0  0  0
    8.9884   -7.6037    0.0000 C   0  0  0  0  0  0  0  0  0  0  0  0
    8.9884   -6.7788    0.0000 C   0  0  2  0  0  0  0  0  0  0  0  0
    8.2740   -6.3662    0.0000 C   0  0  1  0  0  0  0  0  0  0  0  0
    9.7029   -6.3662    0.0000 C   0  0  1  0  0  0  0  0  0  0  0  0
    9.7029   -5.5413    0.0000 C   0  0  2  0  0  0  0  0  0  0  0  0
    8.9884   -5.1287    0.0000 C   0  0  0  0  0  0  0  0  0  0  0  0
    8.2740   -5.5413    0.0000 C   0  0  0  0  0  0  0  0  0  0  0  0
   10.4875   -6.6212    0.0000 C   0  0  0  0  0  0  0  0  0  0  0  0
   10.9725   -5.9538    0.0000 C   0  0  1  0  0  0  0  0  0  0  0  0
   10.4875   -5.2863    0.0000 C   0  0  2  0  0  0  0  0  0  0  0  0
   10.7011   -4.4894    0.0000 C   0  0  2  0  0  0  0  0  0  0  0  0
   11.3699   -4.0065    0.0000 O   0  0  0  0  0  0  0  0  0  0  0  0
   11.1174   -3.2211    0.0000 C   0  0  1  0  0  0  0  0  0  0  0  0
   10.2924   -3.2186    0.0000 C   0  0  0  0  0  0  0  0  0  0  0  0
   10.0351   -4.0025    0.0000 C   0  0  0  0  0  0  0  0  0  0  0  0
    6.4325   -8.7307    0.0000 C   0  0  0  0  0  0  0  0  0  0  0  0
    7.2575   -8.7307    0.0000 C   0  0  0  0  0  0  0  0  0  0  0  0
    5.4161   -8.0162    0.0000 O   0  0  0  0  0  0  0  0  0  0  0  0
    7.5595   -5.9538    0.0000 C   0  0  0  0  0  0  0  0  0  0  0  0
    8.9884   -5.9538    0.0000 H   0  0  0  0  0  0  0  0  0  0  0  0
    9.7029   -4.7162    0.0000 C   0  0  0  0  0  0  0  0  0  0  0  0
   11.7975   -5.9538    0.0000 O   0  0  0  0  0  0  0  0  0  0  0  0
   11.5084   -4.6590    0.0000 C   0  0  0  0  0  0  0  0  0  0  0  0
    7.5595   -8.4288    0.0000 H   0  0  0  0  0  0  0  0  0  0  0  0
    8.2740   -8.8413    0.0000 O   0  0  0  0  0  0  0  0  0  0  0  0
    9.7029   -7.1913    0.0000 C   0  0  0  0  0  0  0  0  0  0  0  0
   11.3125   -5.2863    0.0000 H   0  0  0  0  0  0  0  0  0  0  0  0
    8.7214   -9.5344    0.0000 C   0  0  2  0  0  0  0  0  0  0  0  0
    8.3449  -10.2684    0.0000 O   0  0  0  0  0  0  0  0  0  0  0  0
    8.7923  -10.9615    0.0000 C   0  0  1  0  0  0  0  0  0  0  0  0
    9.6163  -10.9206    0.0000 C   0  0  2  0  0  0  0  0  0  0  0  0
    9.9929  -10.1865    0.0000 C   0  0  1  0  0  0  0  0  0  0  0  0
    9.5454   -9.4934    0.0000 C   0  0  1  0  0  0  0  0  0  0  0  0
    8.4158  -11.6956    0.0000 C   0  0  0  0  0  0  0  0  0  0  0  0
   10.8168  -10.1456    0.0000 O   0  0  0  0  0  0  0  0  0  0  0  0
    9.9219   -8.7594    0.0000 O   0  0  0  0  0  0  0  0  0  0  0  0
   10.0638  -11.6137    0.0000 O   0  0  0  0  0  0  0  0  0  0  0  0
    8.8633  -12.3887    0.0000 O   0  0  0  0  0  0  0  0  0  0  0  0
    4.7016   -7.6037    0.0000 C   0  0  2  0  0  0  0  0  0  0  0  0
    4.7016   -6.7788    0.0000 O   0  0  0  0  0  0  0  0  0  0  0  0
    3.9871   -6.3662    0.0000 C   0  0  0  0  0  0  0  0  0  0  0  0
    3.2727   -6.7788    0.0000 C   0  0  2  0  0  0  0  0  0  0  0  0
    3.2727   -7.6037    0.0000 C   0  0  1  0  0  0  0  0  0  0  0  0
    3.9871   -8.0162    0.0000 C   0  0  1  0  0  0  0  0  0  0  0  0
    2.5582   -8.0162    0.0000 O   0  0  0  0  0  0  0  0  0  0  0  0
    2.5582   -6.3662    0.0000 O   0  0  0  0  0  0  0  0  0  0  0  0
    3.9871   -8.8412    0.0000 O   0  0  0  0  0  0  0  0  0  0  0  0
   11.9248   -3.3907    0.0000 H   0  0  0  0  0  0  0  0  0  0  0  0
   11.5299   -2.5067    0.0000 C   0  0  0  0  0  0  0  0  0  0  0  0
   10.8154   -2.0942    0.0000 C   0  0  0  0  0  0  0  0  0  0  0  0
   12.2443   -2.9192    0.0000 C   0  0  0  0  0  0  0  0  0  0  0  0
   11.9424   -1.7922    0.0000 O   0  0  0  0  0  0  0  0  0  0  0  0
    1.8437   -7.6037    0.0000 C   0  0  0  0  0  0  0  0  0  0  0  0
    1.1293   -8.0162    0.0000 C   0  0  0  0  0  0  0  0  0  0  0  0
    1.8437   -6.7788    0.0000 O   0  0  0  0  0  0  0  0  0  0  0  0
  1  2  1  0  0  0  0
  2  3  1  0  0  0  0
  3  4  1  0  0  0  0
  4  5  1  0  0  0  0
  5  6  1  0  0  0  0
  6  1  1  0  0  0  0
  4  7  1  0  0  0  0
  7  8  1  0  0  0  0
  8  9  1  0  0  0  0
  9 10  1  0  0  0  0
 10  5  1  0  0  0  0
  9 11  1  0  0  0  0
 11 12  1  0  0  0  0
 12 13  1  0  0  0  0
 13 14  1  0  0  0  0
 14 10  1  0  0  0  0
 11 15  1  0  0  0  0
 15 16  1  0  0  0  0
 16 17  1  0  0  0  0
 17 12  1  0  0  0  0
 17 18  1  0  0  0  0
 18 19  1  0  0  0  0
 19 20  1  0  0  0  0
 20 21  1  0  0  0  0
 21 22  1  0  0  0  0
 22 18  1  0  0  0  0
  3 23  1  0  0  0  0
  3 24  1  0  0  0  0
  2 25  1  1  0  0  0
  5 26  1  1  0  0  0
 10 26  1  1  0  0  0
  9 27  1  1  0  0  0
 12 28  1  1  0  0  0
 16 29  1  1  0  0  0
 18 30  1  6  0  0  0
  4 31  1  6  0  0  0
  7 32  1  6  0  0  0
 11 33  1  6  0  0  0
 17 34  1  6  0  0  0
 35 32  1  1  0  0  0
 35 36  1  0  0  0  0
 36 37  1  0  0  0  0
 37 38  1  0  0  0  0
 38 39  1  0  0  0  0
 39 40  1  0  0  0  0
 40 35  1  0  0  0  0
 37 41  1  1  0  0  0
 39 42  1  1  0  0  0
 40 43  1  6  0  0  0
 38 44  1  6  0  0  0
 41 45  1  0  0  0  0
 46 25  1  1  0  0  0
 46 47  1  0  0  0  0
 47 48  1  0  0  0  0
 48 49  1  0  0  0  0
 49 50  1  0  0  0  0
 50 51  1  0  0  0  0
 51 46  1  0  0  0  0
 50 52  1  1  0  0  0
 49 53  1  6  0  0  0
 51 54  1  6  0  0  0
 20 55  1  6  0  0  0
 20 56  1  0  0  0  0
 56 57  1  0  0  0  0
 56 58  1  0  0  0  0
 56 59  1  0  0  0  0
 52 60  1  0  0  0  0
 60 61  1  0  0  0  0
 60 62  2  0  0  0  0
M  END
>  <cdx:fragmentId>
5

$$$$
