11784.cdx
  Mrv1902 05222410252D          

 21 23  0  0  0  0            999 V2000
    3.4064   -8.0437    0.0000 C   0  0  0  0  0  0  0  0  0  0  0  0
    3.4064   -8.8688    0.0000 C   0  0  0  0  0  0  0  0  0  0  0  0
    4.1209   -9.2813    0.0000 C   0  0  0  0  0  0  0  0  0  0  0  0
    4.8353   -8.8688    0.0000 C   0  0  0  0  0  0  0  0  0  0  0  0
    4.8353   -8.0437    0.0000 C   0  0  0  0  0  0  0  0  0  0  0  0
    4.1209   -7.6313    0.0000 C   0  0  0  0  0  0  0  0  0  0  0  0
    5.5498   -9.2813    0.0000 C   0  0  0  0  0  0  0  0  0  0  0  0
    6.2643   -8.8688    0.0000 C   0  0  0  0  0  0  0  0  0  0  0  0
    6.2643   -8.0437    0.0000 C   0  0  2  0  0  0  0  0  0  0  0  0
    5.5498   -7.6313    0.0000 O   0  0  0  0  0  0  0  0  0  0  0  0
    6.9788   -7.6313    0.0000 C   0  0  0  0  0  0  0  0  0  0  0  0
    6.9788   -6.8062    0.0000 C   0  0  0  0  0  0  0  0  0  0  0  0
    7.6932   -8.0437    0.0000 C   0  0  0  0  0  0  0  0  0  0  0  0
    8.4077   -7.6313    0.0000 C   0  0  0  0  0  0  0  0  0  0  0  0
    8.4077   -6.8062    0.0000 C   0  0  0  0  0  0  0  0  0  0  0  0
    7.6932   -6.3937    0.0000 C   0  0  0  0  0  0  0  0  0  0  0  0
    4.1209   -6.8062    0.0000 O   0  0  0  0  0  0  0  0  0  0  0  0
    2.6919   -7.6313    0.0000 O   0  0  0  0  0  0  0  0  0  0  0  0
    4.1209  -10.1063    0.0000 O   0  0  0  0  0  0  0  0  0  0  0  0
    5.5498  -10.1063    0.0000 O   0  0  0  0  0  0  0  0  0  0  0  0
    9.1222   -6.3937    0.0000 O   0  0  0  0  0  0  0  0  0  0  0  0
  1  2  2  0  0  0  0
  2  3  1  0  0  0  0
  3  4  2  0  0  0  0
  4  5  1  0  0  0  0
  5  6  2  0  0  0  0
  6  1  1  0  0  0  0
  4  7  1  0  0  0  0
  7  8  1  0  0  0  0
  8  9  1  0  0  0  0
  9 10  1  0  0  0  0
 10  5  1  0  0  0  0
  9 11  1  6  0  0  0
 11 12  1  0  0  0  0
 11 13  2  0  0  0  0
 13 14  1  0  0  0  0
 14 15  2  0  0  0  0
 15 16  1  0  0  0  0
 16 12  2  0  0  0  0
  6 17  1  0  0  0  0
  1 18  1  0  0  0  0
  3 19  1  0  0  0  0
  7 20  2  0  0  0  0
 15 21  1  0  0  0  0
M  END
>  <cdx:fragmentId>
5

$$$$
