11798.cdx
  Mrv1902 05222410232D          

 25 26  0  0  0  0            999 V2000
    3.4683   -7.9612    0.0000 C   0  0  0  0  0  0  0  0  0  0  0  0
    3.4683   -8.7862    0.0000 C   0  0  0  0  0  0  0  0  0  0  0  0
    4.1827   -9.1987    0.0000 C   0  0  0  0  0  0  0  0  0  0  0  0
    4.8972   -8.7862    0.0000 C   0  0  0  0  0  0  0  0  0  0  0  0
    4.8972   -7.9612    0.0000 C   0  0  0  0  0  0  0  0  0  0  0  0
    4.1827   -7.5488    0.0000 C   0  0  0  0  0  0  0  0  0  0  0  0
    6.3262   -7.9612    0.0000 C   0  0  0  0  0  0  0  0  0  0  0  0
    5.6117   -7.5488    0.0000 C   0  0  0  0  0  0  0  0  0  0  0  0
    7.7551   -7.9612    0.0000 O   0  0  0  0  0  0  0  0  0  0  0  0
    7.0406   -7.5488    0.0000 C   0  0  0  0  0  0  0  0  0  0  0  0
    9.1840   -8.7862    0.0000 O   0  0  0  0  0  0  0  0  0  0  0  0
    9.1840   -7.9612    0.0000 C   0  0  2  0  0  0  0  0  0  0  0  0
    8.4696   -7.5488    0.0000 C   0  0  1  0  0  0  0  0  0  0  0  0
    9.8985   -7.5488    0.0000 C   0  0  1  0  0  0  0  0  0  0  0  0
    9.8985   -6.7237    0.0000 C   0  0  0  0  0  0  0  0  0  0  0  0
    9.1840   -6.3113    0.0000 C   0  0  1  0  0  0  0  0  0  0  0  0
    8.4696   -6.7237    0.0000 C   0  0  0  0  0  0  0  0  0  0  0  0
    2.7538   -7.5488    0.0000 O   0  0  0  0  0  0  0  0  0  0  0  0
    2.7538   -9.1987    0.0000 O   0  0  0  0  0  0  0  0  0  0  0  0
    7.0406   -6.7237    0.0000 O   0  0  0  0  0  0  0  0  0  0  0  0
   10.6130   -7.9612    0.0000 O   0  0  0  0  0  0  0  0  0  0  0  0
    8.7715   -5.5968    0.0000 O   0  0  0  0  0  0  0  0  0  0  0  0
    9.5965   -5.5968    0.0000 C   0  0  0  0  0  0  0  0  0  0  0  0
    9.1840   -4.8823    0.0000 O   0  0  0  0  0  0  0  0  0  0  0  0
   10.4215   -5.5968    0.0000 O   0  0  0  0  0  0  0  0  0  0  0  0
  1  2  2  0  0  0  0
  2  3  1  0  0  0  0
  3  4  2  0  0  0  0
  4  5  1  0  0  0  0
  5  6  2  0  0  0  0
  6  1  1  0  0  0  0
  7  8  2  0  0  0  0
  8  5  1  0  0  0  0
  9 10  1  0  0  0  0
 10  7  1  0  0  0  0
 12 11  1  6  0  0  0
 12 13  1  0  0  0  0
 13  9  1  6  0  0  0
 12 14  1  0  0  0  0
 14 15  1  0  0  0  0
 15 16  1  0  0  0  0
 16 17  1  0  0  0  0
 17 13  1  0  0  0  0
  1 18  1  0  0  0  0
  2 19  1  0  0  0  0
 10 20  2  0  0  0  0
 14 21  1  1  0  0  0
 16 22  1  1  0  0  0
 16 23  1  0  0  0  0
 23 24  2  0  0  0  0
 23 25  1  0  0  0  0
M  END
>  <cdx:fragmentId>
5

$$$$
