118.cdx
  Mrv1902 05222410272D          

 22 23  0  0  0  0            999 V2000
    6.8399   -4.6302    0.0000 C   0  0  0  0  0  0  0  0  0  0  0  0
    6.1255   -5.0427    0.0000 C   0  0  0  0  0  0  0  0  0  0  0  0
    5.4110   -4.6302    0.0000 C   0  0  0  0  0  0  0  0  0  0  0  0
    4.6965   -5.0427    0.0000 C   0  0  0  0  0  0  0  0  0  0  0  0
    4.6965   -5.8677    0.0000 C   0  0  0  0  0  0  0  0  0  0  0  0
    3.9821   -6.2802    0.0000 C   0  0  0  0  0  0  0  0  0  0  0  0
    3.2676   -5.8677    0.0000 C   0  0  0  0  0  0  0  0  0  0  0  0
    3.2676   -5.0427    0.0000 C   0  0  0  0  0  0  0  0  0  0  0  0
    3.9821   -4.6302    0.0000 C   0  0  0  0  0  0  0  0  0  0  0  0
    6.8399   -3.8052    0.0000 O   0  0  0  0  0  0  0  0  0  0  0  0
    7.5544   -5.0427    0.0000 O   0  0  0  0  0  0  0  0  0  0  0  0
    2.5531   -6.2802    0.0000 O   0  0  0  0  0  0  0  0  0  0  0  0
    8.2689   -4.6302    0.0000 C   0  0  0  0  0  0  0  0  0  0  0  0
    8.9834   -5.0427    0.0000 C   0  0  0  0  0  0  0  0  0  0  0  0
    9.6978   -4.6302    0.0000 C   0  0  0  0  0  0  0  0  0  0  0  0
   10.4123   -5.0427    0.0000 C   0  0  0  0  0  0  0  0  0  0  0  0
   11.1268   -4.6302    0.0000 C   0  0  0  0  0  0  0  0  0  0  0  0
   11.8412   -5.0427    0.0000 C   0  0  0  0  0  0  0  0  0  0  0  0
   11.8412   -5.8677    0.0000 C   0  0  0  0  0  0  0  0  0  0  0  0
   11.1268   -6.2802    0.0000 C   0  0  0  0  0  0  0  0  0  0  0  0
   10.4123   -5.8677    0.0000 C   0  0  0  0  0  0  0  0  0  0  0  0
    1.8386   -5.8677    0.0000 C   0  0  0  0  0  0  0  0  0  0  0  0
  1  2  1  0  0  0  0
  2  3  2  0  0  0  0
  3  4  1  0  0  0  0
  4  5  1  0  0  0  0
  5  6  2  0  0  0  0
  6  7  1  0  0  0  0
  7  8  2  0  0  0  0
  8  9  1  0  0  0  0
  4  9  2  0  0  0  0
  1 10  2  0  0  0  0
  1 11  1  0  0  0  0
  7 12  1  0  0  0  0
 13 14  1  0  0  0  0
 14 15  2  0  0  0  0
 15 16  1  0  0  0  0
 16 17  1  0  0  0  0
 17 18  2  0  0  0  0
 18 19  1  0  0  0  0
 19 20  2  0  0  0  0
 20 21  1  0  0  0  0
 16 21  2  0  0  0  0
 11 13  1  0  0  0  0
 12 22  1  0  0  0  0
M  END
>  <cdx:groupId>
137

>  <cdx:fragmentId>
73

$$$$
