15118057.cdx
  Mrv1902 05222410212D          

 16 17  0  0  0  0            999 V2000
    8.0622  -10.0386    0.0000 C   0  0  0  0  0  0  0  0  0  0  0  0
    8.5471  -10.7061    0.0000 C   0  0  0  0  0  0  0  0  0  0  0  0
    8.0622  -11.3735    0.0000 C   0  0  0  0  0  0  0  0  0  0  0  0
    7.2775  -11.1186    0.0000 C   0  0  0  0  0  0  0  0  0  0  0  0
    6.6325  -11.6330    0.0000 C   0  0  0  0  0  0  0  0  0  0  0  0
    5.8282  -11.4494    0.0000 C   0  0  0  0  0  0  0  0  0  0  0  0
    5.4703  -10.7061    0.0000 C   0  0  0  0  0  0  0  0  0  0  0  0
    5.8282   -9.9628    0.0000 C   0  0  0  0  0  0  0  0  0  0  0  0
    6.6325   -9.7792    0.0000 C   0  0  0  0  0  0  0  0  0  0  0  0
    7.2775  -10.2936    0.0000 C   0  0  0  0  0  0  0  0  0  0  0  0
    6.8161  -12.4373    0.0000 O   0  0  0  0  0  0  0  0  0  0  0  0
    7.7651   -8.6409    0.0000 C   0  0  0  0  0  0  0  0  0  0  0  0
    8.3171   -9.2540    0.0000 C   0  0  0  0  0  0  0  0  0  0  0  0
    9.1241   -9.0825    0.0000 C   0  0  0  0  0  0  0  0  0  0  0  0
    5.3138   -9.3178    0.0000 C   0  0  0  0  0  0  0  0  0  0  0  0
    7.4248  -11.9303    0.0000 C   0  0  0  0  0  0  0  0  0  0  0  0
  1  2  1  0  0  0  0
  2  3  1  0  0  0  0
  3  4  1  0  0  0  0
  4  5  1  0  0  0  0
  5  6  1  0  0  0  0
  6  7  1  0  0  0  0
  7  8  1  0  0  0  0
  8  9  1  0  0  0  0
  9 10  1  0  0  0  0
  1 10  1  0  0  0  0
  4 10  1  0  0  0  0
  5 11  2  0  0  0  0
 12 13  1  0  0  0  0
 13 14  1  0  0  0  0
  1 13  1  0  0  0  0
  8 15  2  0  0  0  0
  4 16  1  0  0  0  0
M  END
>  <cdx:fragmentId>
5216

$$$$
