11817.cdx
  Mrv1902 05222410242D          

 22 25  0  0  0  0            999 V2000
    2.4545   -6.9207    0.0000 O   0  0  0  0  0  0  0  0  0  0  0  0
    3.8406   -4.3767    0.0000 O   0  0  0  0  0  0  0  0  0  0  0  0
    6.6516   -5.1362    0.0000 O   0  0  0  0  0  0  0  0  0  0  0  0
    8.0425   -9.0039    0.0000 O   0  0  0  0  0  0  0  0  0  0  0  0
    8.7173   -7.4982    0.0000 O   0  0  0  0  0  0  0  0  0  0  0  0
    3.8406   -5.2017    0.0000 C   0  0  0  0  0  0  0  0  0  0  0  0
    3.1251   -5.6124    0.0000 C   0  0  0  0  0  0  0  0  0  0  0  0
    3.1231   -6.4374    0.0000 C   0  0  0  0  0  0  0  0  0  0  0  0
    3.8365   -6.8517    0.0000 C   0  0  0  0  0  0  0  0  0  0  0  0
    5.9830   -5.6195    0.0000 C   0  0  0  0  0  0  0  0  0  0  0  0
    5.2696   -5.2052    0.0000 O   0  0  0  0  0  0  0  0  0  0  0  0
    4.5541   -5.6159    0.0000 C   0  0  0  0  0  0  0  0  0  0  0  0
    4.5520   -6.4409    0.0000 C   0  0  0  0  0  0  0  0  0  0  0  0
    5.9810   -6.4445    0.0000 C   0  0  0  0  0  0  0  0  0  0  0  0
    5.2655   -6.8552    0.0000 C   0  0  0  0  0  0  0  0  0  0  0  0
    5.4350   -7.6626    0.0000 O   0  0  0  0  0  0  0  0  0  0  0  0
    7.4134   -6.9138    0.0000 C   0  0  0  0  0  0  0  0  0  0  0  0
    6.5927   -6.9980    0.0000 C   0  0  0  0  0  0  0  0  0  0  0  0
    6.2553   -7.7509    0.0000 C   0  0  0  0  0  0  0  0  0  0  0  0
    6.7385   -8.4195    0.0000 C   0  0  0  0  0  0  0  0  0  0  0  0
    7.5592   -8.3353    0.0000 C   0  0  0  0  0  0  0  0  0  0  0  0
    7.8967   -7.5824    0.0000 C   0  0  0  0  0  0  0  0  0  0  0  0
  8  1  1  0  0  0  0
  6  2  1  0  0  0  0
 10  3  2  0  0  0  0
 21  4  1  0  0  0  0
 22  5  1  0  0  0  0
  6 12  1  0  0  0  0
  7  6  2  0  0  0  0
  8  7  1  0  0  0  0
  9  8  2  0  0  0  0
 13  9  1  0  0  0  0
 10 14  1  0  0  0  0
 11 10  1  0  0  0  0
 12 11  1  0  0  0  0
 13 12  2  0  0  0  0
 15 13  1  0  0  0  0
 14 18  1  0  0  0  0
 15 14  2  0  0  0  0
 16 15  1  0  0  0  0
 19 16  1  0  0  0  0
 17 22  1  0  0  0  0
 18 17  2  0  0  0  0
 19 18  1  0  0  0  0
 20 19  2  0  0  0  0
 21 20  1  0  0  0  0
 22 21  2  0  0  0  0
M  END
>  <cdx:fragmentId>
5

$$$$
