11816.cdx
  Mrv1902 05222410252D          

 20 22  0  0  0  0            999 V2000
    7.9029   -8.5078    0.0000 C   0  0  0  0  0  0  0  0  0  0  0  0
    7.9029   -7.6828    0.0000 C   0  0  0  0  0  0  0  0  0  0  0  0
    7.1884   -7.2703    0.0000 C   0  0  0  0  0  0  0  0  0  0  0  0
    6.4740   -7.6828    0.0000 C   0  0  0  0  0  0  0  0  0  0  0  0
    6.4740   -8.5078    0.0000 C   0  0  0  0  0  0  0  0  0  0  0  0
    7.1884   -8.9203    0.0000 C   0  0  0  0  0  0  0  0  0  0  0  0
    5.7595   -7.2703    0.0000 O   0  0  0  0  0  0  0  0  0  0  0  0
    5.0450   -7.6828    0.0000 C   0  0  0  0  0  0  0  0  0  0  0  0
    5.0450   -8.5078    0.0000 C   0  0  0  0  0  0  0  0  0  0  0  0
    5.7595   -8.9203    0.0000 C   0  0  0  0  0  0  0  0  0  0  0  0
    8.6875   -8.7628    0.0000 C   0  0  0  0  0  0  0  0  0  0  0  0
    9.1725   -8.0953    0.0000 C   0  0  0  0  0  0  0  0  0  0  0  0
    8.6875   -7.4279    0.0000 O   0  0  0  0  0  0  0  0  0  0  0  0
    4.3306   -7.2703    0.0000 O   0  0  0  0  0  0  0  0  0  0  0  0
    7.1884   -9.7453    0.0000 C   0  0  0  0  0  0  0  0  0  0  0  0
    7.1884   -6.4453    0.0000 O   0  0  0  0  0  0  0  0  0  0  0  0
    6.4740  -10.1578    0.0000 C   0  0  0  0  0  0  0  0  0  0  0  0
    7.9029  -10.1578    0.0000 C   0  0  0  0  0  0  0  0  0  0  0  0
    7.1884  -10.5703    0.0000 C   0  0  0  0  0  0  0  0  0  0  0  0
    6.4740  -10.9828    0.0000 C   0  0  0  0  0  0  0  0  0  0  0  0
  1  2  2  0  0  0  0
  2  3  1  0  0  0  0
  3  4  2  0  0  0  0
  4  5  1  0  0  0  0
  5  6  2  0  0  0  0
  6  1  1  0  0  0  0
  4  7  1  0  0  0  0
  7  8  1  0  0  0  0
  8  9  1  0  0  0  0
  9 10  2  0  0  0  0
 10  5  1  0  0  0  0
  1 11  1  0  0  0  0
 11 12  2  0  0  0  0
 12 13  1  0  0  0  0
 13  2  1  0  0  0  0
  8 14  2  0  0  0  0
  6 15  1  0  0  0  0
  3 16  1  0  0  0  0
 15 17  1  0  0  0  0
 15 18  1  0  0  0  0
 15 19  1  0  0  0  0
 19 20  2  0  0  0  0
M  END
>  <cdx:fragmentId>
5

$$$$
