118118.cdx
  Mrv1902 05222410222D          

 10  9  0  0  0  0            999 V2000
   18.0840   -8.2013    0.0000 C   0  0  0  0  0  0  0  0  0  0  0  0
   17.3695   -8.6138    0.0000 C   0  0  0  0  0  0  0  0  0  0  0  0
   16.6550   -8.2013    0.0000 C   0  0  0  0  0  0  0  0  0  0  0  0
   15.9406   -8.6138    0.0000 C   0  0  0  0  0  0  0  0  0  0  0  0
   15.2261   -8.2013    0.0000 C   0  0  0  0  0  0  0  0  0  0  0  0
   14.5116   -8.6138    0.0000 C   0  0  0  0  0  0  0  0  0  0  0  0
   13.7972   -8.2013    0.0000 C   0  0  0  0  0  0  0  0  0  0  0  0
   13.0827   -8.6138    0.0000 C   0  0  0  0  0  0  0  0  0  0  0  0
   15.9406   -9.4388    0.0000 O   0  0  0  0  0  0  0  0  0  0  0  0
   13.7972   -7.3763    0.0000 C   0  0  0  0  0  0  0  0  0  0  0  0
  1  2  1  0  0  0  0
  2  3  1  0  0  0  0
  3  4  1  0  0  0  0
  4  5  1  0  0  0  0
  5  6  1  0  0  0  0
  6  7  1  0  0  0  0
  7  8  1  0  0  0  0
  4  9  1  0  0  0  0
  7 10  1  0  0  0  0
M  END
>  <cdx:groupId>
128

>  <cdx:fragmentId>
102

$$$$
