118284.cdx
  Mrv1902 05222410232D          

 17 18  0  0  0  0            999 V2000
    6.2027   -9.7938    0.0000 C   0  0  0  0  0  0  0  0  0  0  0  0
    7.5623   -9.2344    0.0000 C   0  0  0  0  0  0  0  0  0  0  0  0
    6.7400   -9.1677    0.0000 C   0  0  0  0  0  0  0  0  0  0  0  0
    6.5493   -8.3651    0.0000 C   0  0  0  0  0  0  0  0  0  0  0  0
    7.2537   -7.9356    0.0000 C   0  0  0  0  0  0  0  0  0  0  0  0
    7.8798   -8.4729    0.0000 O   0  0  0  0  0  0  0  0  0  0  0  0
    7.2340   -7.1109    0.0000 C   0  0  0  0  0  0  0  0  0  0  0  0
    6.5099   -6.7155    0.0000 C   0  0  2  0  0  0  0  0  0  0  0  0
    5.8055   -7.1450    0.0000 C   0  0  0  0  0  0  0  0  0  0  0  0
    5.8252   -7.9697    0.0000 C   0  0  0  0  0  0  0  0  0  0  0  0
    7.9384   -6.6815    0.0000 C   0  0  0  0  0  0  0  0  0  0  0  0
    7.9187   -5.8567    0.0000 C   0  0  0  0  0  0  0  0  0  0  0  0
    7.1946   -5.4614    0.0000 C   0  0  0  0  0  0  0  0  0  0  0  0
    6.4902   -5.8908    0.0000 C   0  0  0  0  0  0  0  0  0  0  0  0
    8.6625   -7.0768    0.0000 C   0  0  0  0  0  0  0  0  0  0  0  0
    5.0814   -6.7496    0.0000 O   0  0  0  0  0  0  0  0  0  0  0  0
    7.2463   -6.3436    0.0000 C   0  0  0  0  0  0  0  0  0  0  0  0
  3  1  1  0  0  0  0
  6  2  1  0  0  0  0
  3  2  2  0  0  0  0
  4  3  1  0  0  0  0
  5  4  2  0  0  0  0
  6  5  1  0  0  0  0
  5  7  1  0  0  0  0
  8  9  1  0  0  0  0
  9 10  1  0  0  0  0
 10  4  1  0  0  0  0
  7 11  1  0  0  0  0
 11 12  2  0  0  0  0
 12 13  1  0  0  0  0
 13 14  1  0  0  0  0
 14  8  1  0  0  0  0
 11 15  1  0  0  0  0
  9 16  2  0  0  0  0
  8 17  1  6  0  0  0
M  END
>  <cdx:groupId>
57231

>  <cdx:fragmentId>
57232

$$$$
