11828.cdx
  Mrv1902 05222410252D          

 42 46  0  0  0  0            999 V2000
    6.7745   -9.8085    0.0000 O   0  0  0  0  0  0  0  0  0  0  0  0
    5.3528   -7.3293    0.0000 O   0  0  0  0  0  0  0  0  0  0  0  0
    8.9288   -6.1022    0.0000 O   0  0  0  0  0  0  0  0  0  0  0  0
   11.7866   -6.1106    0.0000 O   0  0  0  0  0  0  0  0  0  0  0  0
   11.7818   -7.7606    0.0000 O   0  0  0  0  0  0  0  0  0  0  0  0
   10.3529   -7.7564    0.0000 C   0  0  0  0  0  0  0  0  0  0  0  0
   11.0686   -7.3460    0.0000 C   0  0  0  0  0  0  0  0  0  0  0  0
   11.0710   -6.5210    0.0000 C   0  0  0  0  0  0  0  0  0  0  0  0
   10.3577   -6.1064    0.0000 C   0  0  0  0  0  0  0  0  0  0  0  0
    9.6420   -6.5168    0.0000 C   0  0  0  0  0  0  0  0  0  0  0  0
    9.6396   -7.3418    0.0000 C   0  0  0  0  0  0  0  0  0  0  0  0
    8.2035   -9.8127    0.0000 O   0  0  0  0  0  0  0  0  0  0  0  0
    8.2107   -7.3377    0.0000 O   0  0  0  0  0  0  0  0  0  0  0  0
    7.4950   -7.7481    0.0000 C   0  0  0  0  0  0  0  0  0  0  0  0
    6.7817   -7.3335    0.0000 C   0  0  0  0  0  0  0  0  0  0  0  0
    6.0661   -7.7439    0.0000 C   0  0  0  0  0  0  0  0  0  0  0  0
    6.0637   -8.5689    0.0000 C   0  0  0  0  0  0  0  0  0  0  0  0
    6.7769   -8.9835    0.0000 C   0  0  0  0  0  0  0  0  0  0  0  0
    7.4926   -8.5731    0.0000 C   0  0  0  0  0  0  0  0  0  0  0  0
    8.2059   -8.9877    0.0000 C   0  0  0  0  0  0  0  0  0  0  0  0
    8.9215   -8.5772    0.0000 C   0  0  0  0  0  0  0  0  0  0  0  0
    8.9240   -7.7522    0.0000 C   0  0  0  0  0  0  0  0  0  0  0  0
    4.6371   -7.7398    0.0000 C   0  0  2  0  0  0  0  0  0  0  0  0
    3.9251   -7.3231    0.0000 O   0  0  0  0  0  0  0  0  0  0  0  0
    3.2082   -7.7398    0.0000 C   0  0  1  0  0  0  0  0  0  0  0  0
    3.2082   -8.5647    0.0000 C   0  0  2  0  0  0  0  0  0  0  0  0
    3.9251   -8.9814    0.0000 C   0  0  1  0  0  0  0  0  0  0  0  0
    4.6371   -8.5647    0.0000 C   0  0  1  0  0  0  0  0  0  0  0  0
    2.4932   -7.3283    0.0000 C   0  0  0  0  0  0  0  0  0  0  0  0
    3.9263   -9.8064    0.0000 O   0  0  0  0  0  0  0  0  0  0  0  0
    2.4932   -8.9762    0.0000 O   0  0  0  0  0  0  0  0  0  0  0  0
    5.3528   -8.9752    0.0000 O   0  0  0  0  0  0  0  0  0  0  0  0
    1.7793   -7.7418    0.0000 O   0  0  0  0  0  0  0  0  0  0  0  0
    8.9312   -5.2772    0.0000 C   0  0  2  0  0  0  0  0  0  0  0  0
    9.6450   -4.8637    0.0000 O   0  0  0  0  0  0  0  0  0  0  0  0
    9.6450   -4.0387    0.0000 C   0  0  0  0  0  0  0  0  0  0  0  0
    8.9312   -3.6273    0.0000 C   0  0  2  0  0  0  0  0  0  0  0  0
    8.2173   -4.0387    0.0000 C   0  0  1  0  0  0  0  0  0  0  0  0
    8.2173   -4.8637    0.0000 C   0  0  1  0  0  0  0  0  0  0  0  0
    7.5025   -5.2757    0.0000 O   0  0  0  0  0  0  0  0  0  0  0  0
    7.5030   -3.6259    0.0000 O   0  0  0  0  0  0  0  0  0  0  0  0
    8.9312   -2.8023    0.0000 O   0  0  0  0  0  0  0  0  0  0  0  0
 18  1  1  0  0  0  0
 16  2  1  0  0  0  0
 22 11  1  0  0  0  0
 10  3  1  0  0  0  0
  8  4  1  0  0  0  0
  7  5  1  0  0  0  0
 11  6  2  0  0  0  0
  7  6  1  0  0  0  0
  8  7  2  0  0  0  0
  9  8  1  0  0  0  0
 10  9  2  0  0  0  0
 11 10  1  0  0  0  0
 20 12  2  0  0  0  0
 22 13  1  0  0  0  0
 14 13  1  0  0  0  0
 19 14  2  0  0  0  0
 15 14  1  0  0  0  0
 16 15  2  0  0  0  0
 17 16  1  0  0  0  0
 18 17  2  0  0  0  0
 19 18  1  0  0  0  0
 20 19  1  0  0  0  0
 21 20  1  0  0  0  0
 22 21  2  0  0  0  0
 23  2  1  1  0  0  0
 23 24  1  0  0  0  0
 24 25  1  0  0  0  0
 25 26  1  0  0  0  0
 26 27  1  0  0  0  0
 27 28  1  0  0  0  0
 28 23  1  0  0  0  0
 25 29  1  1  0  0  0
 27 30  1  1  0  0  0
 26 31  1  6  0  0  0
 28 32  1  6  0  0  0
 29 33  1  0  0  0  0
 34  3  1  1  0  0  0
 34 35  1  0  0  0  0
 35 36  1  0  0  0  0
 36 37  1  0  0  0  0
 37 38  1  0  0  0  0
 38 39  1  0  0  0  0
 39 34  1  0  0  0  0
 39 40  1  6  0  0  0
 38 41  1  1  0  0  0
 37 42  1  6  0  0  0
M  END
>  <cdx:groupId>
17346

>  <cdx:fragmentId>
17281

$$$$
