1183.cdx
  Mrv1902 05222410212D          

 11 11  0  0  0  0            999 V2000
    6.2133   -3.2664    0.0000 C   0  0  0  0  0  0  0  0  0  0  0  0
    5.4988   -2.8539    0.0000 C   0  0  0  0  0  0  0  0  0  0  0  0
    4.7843   -3.2664    0.0000 C   0  0  0  0  0  0  0  0  0  0  0  0
    4.0698   -2.8539    0.0000 C   0  0  0  0  0  0  0  0  0  0  0  0
    4.0698   -2.0289    0.0000 C   0  0  0  0  0  0  0  0  0  0  0  0
    4.7843   -1.6164    0.0000 C   0  0  0  0  0  0  0  0  0  0  0  0
    5.4988   -2.0289    0.0000 C   0  0  0  0  0  0  0  0  0  0  0  0
    6.9277   -2.8539    0.0000 O   0  0  0  0  0  0  0  0  0  0  0  0
    3.3554   -3.2664    0.0000 O   0  0  0  0  0  0  0  0  0  0  0  0
    2.6409   -2.8539    0.0000 C   0  0  0  0  0  0  0  0  0  0  0  0
    3.3554   -1.6164    0.0000 O   0  0  0  0  0  0  0  0  0  0  0  0
  1  2  1  0  0  0  0
  2  3  1  0  0  0  0
  3  4  2  0  0  0  0
  4  5  1  0  0  0  0
  5  6  2  0  0  0  0
  6  7  1  0  0  0  0
  2  7  2  0  0  0  0
  1  8  2  0  0  0  0
  9 10  1  0  0  0  0
  4  9  1  0  0  0  0
  5 11  1  0  0  0  0
M  END
>  <cdx:groupId>
35

>  <cdx:fragmentId>
5

$$$$
