11839.cdx
  Mrv1902 05222410232D          

 27 29  0  0  0  0            999 V2000
    3.9703   -7.2723    0.0000 C   0  0  0  0  0  0  0  0  0  0  0  0
    3.9690   -8.0973    0.0000 C   0  0  0  0  0  0  0  0  0  0  0  0
    4.6829   -8.5109    0.0000 C   0  0  0  0  0  0  0  0  0  0  0  0
    5.3980   -8.0995    0.0000 C   0  0  0  0  0  0  0  0  0  0  0  0
    5.3992   -7.2745    0.0000 C   0  0  0  0  0  0  0  0  0  0  0  0
    4.6854   -6.8609    0.0000 O   0  0  0  0  0  0  0  0  0  0  0  0
    6.1143   -6.8631    0.0000 C   0  0  0  0  0  0  0  0  0  0  0  0
    6.8282   -7.2767    0.0000 C   0  0  0  0  0  0  0  0  0  0  0  0
    6.8269   -8.1017    0.0000 C   0  0  0  0  0  0  0  0  0  0  0  0
    6.1118   -8.5131    0.0000 C   0  0  0  0  0  0  0  0  0  0  0  0
    3.2564   -6.8587    0.0000 O   0  0  0  0  0  0  0  0  0  0  0  0
    6.1156   -6.0381    0.0000 O   0  0  0  0  0  0  0  0  0  0  0  0
    5.4017   -5.6245    0.0000 C   0  0  0  0  0  0  0  0  0  0  0  0
    7.5407   -8.5153    0.0000 O   0  0  0  0  0  0  0  0  0  0  0  0
    7.5395   -9.3403    0.0000 C   0  0  0  0  0  0  0  0  0  0  0  0
    7.5433   -6.8653    0.0000 O   0  0  0  0  0  0  0  0  0  0  0  0
    8.2571   -7.2788    0.0000 C   0  0  1  0  0  0  0  0  0  0  0  0
    8.9722   -6.8674    0.0000 C   0  0  2  0  0  0  0  0  0  0  0  0
    8.9734   -6.0424    0.0000 O   0  0  0  0  0  0  0  0  0  0  0  0
    9.6860   -7.2810    0.0000 C   0  0  1  0  0  0  0  0  0  0  0  0
   10.4011   -6.8696    0.0000 O   0  0  0  0  0  0  0  0  0  0  0  0
    9.6848   -8.1060    0.0000 C   0  0  2  0  0  0  0  0  0  0  0  0
   10.3986   -8.5196    0.0000 O   0  0  0  0  0  0  0  0  0  0  0  0
    8.9697   -8.5174    0.0000 C   0  0  2  0  0  0  0  0  0  0  0  0
    8.2558   -8.1038    0.0000 O   0  0  0  0  0  0  0  0  0  0  0  0
    8.9684   -9.3424    0.0000 C   0  0  0  0  0  0  0  0  0  0  0  0
    9.6823   -9.7560    0.0000 O   0  0  0  0  0  0  0  0  0  0  0  0
  1  2  1  0  0  0  0
  2  3  2  0  0  0  0
  3  4  1  0  0  0  0
  4  5  1  0  0  0  0
  5  6  1  0  0  0  0
  1  6  1  0  0  0  0
  7  8  1  0  0  0  0
  8  9  2  0  0  0  0
  9 10  1  0  0  0  0
 10  4  2  0  0  0  0
  7  5  2  0  0  0  0
  1 11  2  0  0  0  0
 12 13  1  0  0  0  0
  7 12  1  0  0  0  0
 14 15  1  0  0  0  0
  9 14  1  0  0  0  0
 17 18  1  0  0  0  0
 18 19  1  6  0  0  0
 18 20  1  0  0  0  0
 20 21  1  1  0  0  0
 20 22  1  0  0  0  0
 22 23  1  6  0  0  0
 22 24  1  0  0  0  0
 24 25  1  0  0  0  0
 24 26  1  1  0  0  0
 26 27  1  0  0  0  0
 17 25  1  0  0  0  0
 17 16  1  1  0  0  0
  8 16  1  0  0  0  0
M  END
>  <cdx:fragmentId>
110

$$$$
