isoforbesionic acid.cdx
  Mrv1902 05222410222D          

 36 40  0  0  0  0            999 V2000
    2.0864   -7.1981    0.0000 C   0  0  0  0  0  0  0  0  0  0  0  0
    2.0864   -8.0231    0.0000 C   0  0  0  0  0  0  0  0  0  0  0  0
    2.8009   -8.4356    0.0000 C   0  0  0  0  0  0  0  0  0  0  0  0
    3.5153   -8.0231    0.0000 C   0  0  0  0  0  0  0  0  0  0  0  0
    3.5153   -7.1981    0.0000 C   0  0  0  0  0  0  0  0  0  0  0  0
    2.8009   -6.7856    0.0000 C   0  0  0  0  0  0  0  0  0  0  0  0
    4.2298   -8.4356    0.0000 C   0  0  0  0  0  0  0  0  0  0  0  0
    4.9443   -8.0231    0.0000 C   0  0  0  0  0  0  0  0  0  0  0  0
    4.9443   -7.1981    0.0000 C   0  0  0  0  0  0  0  0  0  0  0  0
    4.2298   -6.7856    0.0000 O   0  0  0  0  0  0  0  0  0  0  0  0
    5.6588   -8.4356    0.0000 C   0  0  0  0  0  0  0  0  0  0  0  0
    6.3732   -8.0231    0.0000 C   0  0  0  0  0  0  0  0  0  0  0  0
    6.3732   -7.1981    0.0000 C   0  0  0  0  0  0  0  0  0  0  0  0
    5.6588   -6.7856    0.0000 C   0  0  0  0  0  0  0  0  0  0  0  0
    2.8009   -5.9606    0.0000 C   0  0  0  0  0  0  0  0  0  0  0  0
    2.0864   -5.5481    0.0000 C   0  0  0  0  0  0  0  0  0  0  0  0
    2.0864   -4.7231    0.0000 C   0  0  0  0  0  0  0  0  0  0  0  0
    2.8009   -4.3106    0.0000 C   0  0  0  0  0  0  0  0  0  0  0  0
    1.3719   -4.3106    0.0000 C   0  0  0  0  0  0  0  0  0  0  0  0
    1.3719   -6.7856    0.0000 O   0  0  0  0  0  0  0  0  0  0  0  0
    2.8009   -9.2606    0.0000 O   0  0  0  0  0  0  0  0  0  0  0  0
    4.2298   -9.2606    0.0000 O   0  0  0  0  0  0  0  0  0  0  0  0
    7.0877   -6.7856    0.0000 O   0  0  0  0  0  0  0  0  0  0  0  0
    5.6588   -5.9606    0.0000 C   0  0  0  0  0  0  0  0  0  0  0  0
    4.9443   -5.5481    0.0000 C   0  0  0  0  0  0  0  0  0  0  0  0
    4.9443   -4.7231    0.0000 C   0  0  0  0  0  0  0  0  0  0  0  0
    4.2298   -4.3106    0.0000 C   0  0  0  0  0  0  0  0  0  0  0  0
    3.5153   -4.7231    0.0000 O   0  0  0  0  0  0  0  0  0  0  0  0
    4.2298   -3.4856    0.0000 O   0  0  0  0  0  0  0  0  0  0  0  0
    5.6588   -4.3106    0.0000 C   0  0  0  0  0  0  0  0  0  0  0  0
    5.6249   -7.1775    0.0000 C   0  0  0  0  0  0  0  0  0  0  0  0
    6.0360   -7.4119    0.0000 C   0  0  0  0  0  0  0  0  0  0  0  0
    6.1125   -5.9474    0.0000 O   0  0  0  0  0  0  0  0  0  0  0  0
    6.4350   -6.1816    0.0000 C   0  0  0  0  0  0  0  0  0  0  0  0
    7.2600   -6.1816    0.0000 C   0  0  0  0  0  0  0  0  0  0  0  0
    6.8475   -5.4671    0.0000 C   0  0  0  0  0  0  0  0  0  0  0  0
  1  2  2  0  0  0  0
  2  3  1  0  0  0  0
  3  4  2  0  0  0  0
  4  5  1  0  0  0  0
  5  6  2  0  0  0  0
  6  1  1  0  0  0  0
  4  7  1  0  0  0  0
  7  8  1  0  0  0  0
  8  9  1  0  0  0  0
  9 10  1  0  0  0  0
 10  5  1  0  0  0  0
  8 11  2  0  0  0  0
 11 12  1  0  0  0  0
 12 13  1  0  0  0  0
 13 14  1  0  0  0  0
 14  9  1  0  0  0  0
  6 15  1  0  0  0  0
 15 16  1  0  0  0  0
 16 17  2  0  0  0  0
 17 18  1  0  0  0  0
 17 19  1  0  0  0  0
  1 20  1  0  0  0  0
  3 21  1  0  0  0  0
  7 22  2  0  0  0  0
 13 23  2  0  0  0  0
 14 24  1  0  0  0  0
 24 25  1  0  0  0  0
 25 26  2  0  0  0  0
 26 27  1  0  0  0  0
 26 30  1  0  0  0  0
  9 31  1  0  0  0  0
 12 32  1  0  0  0  0
 31 32  1  0  0  0  0
 14 33  1  0  0  0  0
 33 34  1  0  0  0  0
 31 34  1  0  0  0  0
 34 35  1  0  0  0  0
 34 36  1  0  0  0  0
 27 28  2  0  0  0  0
 27 29  1  0  0  0  0
M  STY  1   1 SUP
M  SAL   1  3  27  28  29
M  SBL   1  1  29
M  SMT   1 COOH
M  SAP   1  1  27  26  1
M  END
>  <cdx:fragmentId>
5

$$$$
