11836.cdx
  Mrv1902 05222410222D          

 16 17  0  0  0  0            999 V2000
    5.6339   -6.9300    0.0000 C   0  0  0  0  0  0  0  0  0  0  0  0
    5.6339   -7.7550    0.0000 C   0  0  0  0  0  0  0  0  0  0  0  0
    6.3484   -8.1675    0.0000 C   0  0  0  0  0  0  0  0  0  0  0  0
    7.0628   -7.7550    0.0000 C   0  0  0  0  0  0  0  0  0  0  0  0
    7.0628   -6.9300    0.0000 C   0  0  0  0  0  0  0  0  0  0  0  0
    6.3484   -6.5175    0.0000 C   0  0  0  0  0  0  0  0  0  0  0  0
    7.7773   -8.1675    0.0000 O   0  0  0  0  0  0  0  0  0  0  0  0
    8.4918   -7.7550    0.0000 C   0  0  0  0  0  0  0  0  0  0  0  0
    8.4918   -6.9300    0.0000 C   0  0  0  0  0  0  0  0  0  0  0  0
    7.7773   -6.5175    0.0000 C   0  0  0  0  0  0  0  0  0  0  0  0
    9.2063   -8.1675    0.0000 O   0  0  0  0  0  0  0  0  0  0  0  0
    4.9194   -8.1675    0.0000 O   0  0  0  0  0  0  0  0  0  0  0  0
    4.9194   -6.5175    0.0000 O   0  0  0  0  0  0  0  0  0  0  0  0
    4.9194   -5.6925    0.0000 C   0  0  0  0  0  0  0  0  0  0  0  0
    6.3484   -8.9925    0.0000 O   0  0  0  0  0  0  0  0  0  0  0  0
    5.6339   -9.4050    0.0000 C   0  0  0  0  0  0  0  0  0  0  0  0
  1  2  2  0  0  0  0
  2  3  1  0  0  0  0
  3  4  2  0  0  0  0
  4  5  1  0  0  0  0
  5  6  2  0  0  0  0
  6  1  1  0  0  0  0
  4  7  1  0  0  0  0
  7  8  1  0  0  0  0
  8  9  1  0  0  0  0
  9 10  2  0  0  0  0
 10  5  1  0  0  0  0
  8 11  2  0  0  0  0
  2 12  1  0  0  0  0
  1 13  1  0  0  0  0
 13 14  1  0  0  0  0
  3 15  1  0  0  0  0
 15 16  1  0  0  0  0
M  END
>  <cdx:fragmentId>
5

$$$$
