11855.cdx
  Mrv1902 05222410192D          

 18 20  0  0  0  0            999 V2000
    4.2108   -8.2912    0.0000 C   0  0  0  0  0  0  0  0  0  0  0  0
    4.2108   -9.1162    0.0000 C   0  0  0  0  0  0  0  0  0  0  0  0
    4.9252   -9.5287    0.0000 C   0  0  0  0  0  0  0  0  0  0  0  0
    5.6397   -9.1162    0.0000 C   0  0  0  0  0  0  0  0  0  0  0  0
    5.6397   -8.2912    0.0000 C   0  0  0  0  0  0  0  0  0  0  0  0
    4.9252   -7.8788    0.0000 O   0  0  0  0  0  0  0  0  0  0  0  0
    6.3542   -9.5287    0.0000 C   0  0  0  0  0  0  0  0  0  0  0  0
    7.0687   -9.1162    0.0000 C   0  0  0  0  0  0  0  0  0  0  0  0
    7.0687   -8.2912    0.0000 C   0  0  0  0  0  0  0  0  0  0  0  0
    6.3542   -7.8788    0.0000 C   0  0  0  0  0  0  0  0  0  0  0  0
    7.8533   -9.3712    0.0000 C   0  0  0  0  0  0  0  0  0  0  0  0
    8.3382   -8.7037    0.0000 C   0  0  0  0  0  0  0  0  0  0  0  0
    7.8533   -8.0363    0.0000 O   0  0  0  0  0  0  0  0  0  0  0  0
    6.3542   -7.0537    0.0000 O   0  0  0  0  0  0  0  0  0  0  0  0
    7.0687   -6.6413    0.0000 C   0  0  0  0  0  0  0  0  0  0  0  0
    6.3542  -10.3537    0.0000 O   0  0  0  0  0  0  0  0  0  0  0  0
    7.0687  -10.7663    0.0000 C   0  0  0  0  0  0  0  0  0  0  0  0
    3.4963   -7.8788    0.0000 O   0  0  0  0  0  0  0  0  0  0  0  0
  1  2  1  0  0  0  0
  2  3  2  0  0  0  0
  3  4  1  0  0  0  0
  4  5  2  0  0  0  0
  5  6  1  0  0  0  0
  6  1  1  0  0  0  0
  4  7  1  0  0  0  0
  7  8  2  0  0  0  0
  8  9  1  0  0  0  0
  9 10  2  0  0  0  0
 10  5  1  0  0  0  0
  8 11  1  0  0  0  0
 11 12  2  0  0  0  0
 12 13  1  0  0  0  0
 13  9  1  0  0  0  0
 10 14  1  0  0  0  0
 14 15  1  0  0  0  0
  7 16  1  0  0  0  0
 16 17  1  0  0  0  0
  1 18  2  0  0  0  0
M  END
>  <cdx:fragmentId>
5

$$$$
