11850.cdx
  Mrv1902 05222410182D          

 12 11  0  0  0  0            999 V2000
    4.7883   -4.8868    0.0000 O   0  0  0  0  0  0  0  0  0  0  0  0
    6.2122   -4.0532    0.0000 O   0  0  0  0  0  0  0  0  0  0  0  0
    6.9391   -6.1113    0.0000 O   0  0  0  0  0  0  0  0  0  0  0  0
    7.6411   -4.0445    0.0000 O   0  0  0  0  0  0  0  0  0  0  0  0
    8.3681   -6.1026    0.0000 O   0  0  0  0  0  0  0  0  0  0  0  0
    9.7920   -5.2690    0.0000 O   0  0  0  0  0  0  0  0  0  0  0  0
    5.5052   -5.2950    0.0000 C   0  0  0  0  0  0  0  0  0  0  0  0
    6.2172   -4.8782    0.0000 C   0  0  1  0  0  0  0  0  0  0  0  0
    6.9341   -5.2863    0.0000 C   0  0  2  0  0  0  0  0  0  0  0  0
    7.6461   -4.8695    0.0000 C   0  0  2  0  0  0  0  0  0  0  0  0
    8.3630   -5.2776    0.0000 C   0  0  1  0  0  0  0  0  0  0  0  0
    9.0750   -4.8608    0.0000 C   0  0  0  0  0  0  0  0  0  0  0  0
  7  1  1  0  0  0  0
  8  2  1  6  0  0  0
  9  3  1  6  0  0  0
 10  4  1  1  0  0  0
 11  5  1  1  0  0  0
 12  6  1  0  0  0  0
  8  7  1  0  0  0  0
  9  8  1  0  0  0  0
 10  9  1  0  0  0  0
 11 10  1  0  0  0  0
 12 11  1  0  0  0  0
M  END
>  <cdx:fragmentId>
5

$$$$
