isoleosibirin.cdx
  Mrv1902 05222410262D          

 33 35  0  0  0  0            999 V2000
    4.0664   -6.7856    0.0000 C   0  0  0  0  0  0  0  0  0  0  0  0
    4.0664   -7.6106    0.0000 C   0  0  1  0  0  0  0  0  0  0  0  0
    4.7809   -8.0231    0.0000 C   0  0  1  0  0  0  0  0  0  0  0  0
    5.4953   -7.6106    0.0000 C   0  0  1  0  0  0  0  0  0  0  0  0
    5.4953   -6.7856    0.0000 C   0  0  2  0  0  0  0  0  0  0  0  0
    4.7809   -6.3731    0.0000 C   0  0  0  0  0  0  0  0  0  0  0  0
    6.2098   -8.0231    0.0000 C   0  0  0  0  0  0  0  0  0  0  0  0
    6.9243   -7.6106    0.0000 C   0  0  3  0  0  0  0  0  0  0  0  0
    6.9243   -6.7856    0.0000 C   0  0  3  0  0  0  0  0  0  0  0  0
    6.2098   -6.3731    0.0000 C   0  0  1  0  0  0  0  0  0  0  0  0
    6.8773   -5.8882    0.0000 O   0  0  0  0  0  0  0  0  0  0  0  0
    6.6223   -5.1036    0.0000 C   0  0  0  0  0  0  0  0  0  0  0  0
    5.7973   -5.1036    0.0000 C   0  0  0  0  0  0  0  0  0  0  0  0
    5.5424   -5.8882    0.0000 C   0  0  0  0  0  0  0  0  0  0  0  0
    7.4471   -5.1243    0.0000 C   0  0  0  0  0  0  0  0  0  0  0  0
    7.7216   -4.3463    0.0000 O   0  0  0  0  0  0  0  0  0  0  0  0
    7.0666   -3.8448    0.0000 C   0  0  0  0  0  0  0  0  0  0  0  0
    6.3872   -4.3128    0.0000 C   0  0  0  0  0  0  0  0  0  0  0  0
    6.2098   -8.8481    0.0000 O   0  0  0  0  0  0  0  0  0  0  0  0
    5.2818   -5.9887    0.0000 C   0  0  0  0  0  0  0  0  0  0  0  0
    3.3519   -7.1981    0.0000 O   0  0  0  0  0  0  0  0  0  0  0  0
    5.3642   -8.6065    0.0000 C   0  0  0  0  0  0  0  0  0  0  0  0
    5.7089   -8.4075    0.0000 H   0  0  0  0  0  0  0  0  0  0  0  0
    4.3684   -8.7376    0.0000 C   0  0  0  0  0  0  0  0  0  0  0  0
    7.6388   -6.3731    0.0000 C   0  0  0  0  0  0  0  0  0  0  0  0
    7.6388   -8.0231    0.0000 O   0  0  0  0  0  0  0  0  0  0  0  0
    2.6375   -7.6106    0.0000 C   0  0  0  0  0  0  0  0  0  0  0  0
    1.9230   -7.1981    0.0000 O   0  0  0  0  0  0  0  0  0  0  0  0
    2.6375   -8.4356    0.0000 C   0  0  0  0  0  0  0  0  0  0  0  0
    4.9517   -9.3210    0.0000 O   0  0  0  0  0  0  0  0  0  0  0  0
    5.5351   -9.9043    0.0000 C   0  0  0  0  0  0  0  0  0  0  0  0
    6.3320   -9.6908    0.0000 C   0  0  0  0  0  0  0  0  0  0  0  0
    5.3216  -10.7012    0.0000 O   0  0  0  0  0  0  0  0  0  0  0  0
  1  2  1  0  0  0  0
  2  3  1  0  0  0  0
  3  4  1  0  0  0  0
  4  5  1  0  0  0  0
  5  6  1  0  0  0  0
  6  1  1  0  0  0  0
  4  7  1  0  0  0  0
  7  8  1  0  0  0  0
  8  9  1  0  0  0  0
  9 10  1  0  0  0  0
 10  5  1  0  0  0  0
 10 11  1  6  0  0  0
 12 13  1  0  0  0  0
 13 14  1  0  0  0  0
 14 10  1  0  0  0  0
 12 15  2  0  0  0  0
 15 16  1  0  0  0  0
 16 17  1  0  0  0  0
 17 18  2  0  0  0  0
 18 12  1  0  0  0  0
  7 19  2  0  0  0  0
  5 20  1  1  0  0  0
  2 21  1  1  0  0  0
  3 22  1  1  0  0  0
  4 23  1  6  0  0  0
  3 24  1  6  0  0  0
  9 25  1  4  0  0  0
  8 26  1  4  0  0  0
 21 27  1  0  0  0  0
 27 28  2  0  0  0  0
 27 29  1  0  0  0  0
 22 30  1  0  0  0  0
 30 31  1  0  0  0  0
 31 32  1  0  0  0  0
 31 33  2  0  0  0  0
M  END
>  <cdx:fragmentId>
5

$$$$
