11877.cdx
  Mrv1902 05222410282D          

 17 19  0  0  0  0            999 V2000
    4.3758   -6.3525    0.0000 C   0  0  0  0  0  0  0  0  0  0  0  0
    4.3758   -7.1775    0.0000 C   0  0  0  0  0  0  0  0  0  0  0  0
    5.0902   -7.5900    0.0000 C   0  0  0  0  0  0  0  0  0  0  0  0
    5.8047   -7.1775    0.0000 C   0  0  1  0  0  0  0  0  0  0  0  0
    5.8047   -6.3525    0.0000 C   0  0  2  0  0  0  0  0  0  0  0  0
    5.0902   -5.9400    0.0000 C   0  0  0  0  0  0  0  0  0  0  0  0
    6.5192   -7.5900    0.0000 C   0  0  0  0  0  0  0  0  0  0  0  0
    7.2337   -7.1775    0.0000 C   0  0  0  0  0  0  0  0  0  0  0  0
    7.2337   -6.3525    0.0000 C   0  0  2  0  0  0  0  0  0  0  0  0
    6.5192   -5.9400    0.0000 C   0  0  0  0  0  0  0  0  0  0  0  0
    4.6777   -8.3045    0.0000 C   0  0  0  0  0  0  0  0  0  0  0  0
    5.5027   -8.3045    0.0000 C   0  0  0  0  0  0  0  0  0  0  0  0
    6.1067   -5.2255    0.0000 C   0  0  0  0  0  0  0  0  0  0  0  0
    6.9317   -5.2255    0.0000 C   0  0  0  0  0  0  0  0  0  0  0  0
    6.4368   -6.5660    0.0000 C   0  0  0  0  0  0  0  0  0  0  0  0
    7.9481   -5.9400    0.0000 H   0  0  0  0  0  0  0  0  0  0  0  0
    5.8047   -5.5275    0.0000 O   0  0  0  0  0  0  0  0  0  0  0  0
  1  2  1  0  0  0  0
  2  3  1  0  0  0  0
  3  4  1  0  0  0  0
  4  5  1  0  0  0  0
  5  6  1  0  0  0  0
  6  1  1  0  0  0  0
  4  7  1  0  0  0  0
  7  8  1  0  0  0  0
  8  9  1  0  0  0  0
  9 10  1  0  0  0  0
 10  5  1  0  0  0  0
  3 11  1  0  0  0  0
  3 12  1  0  0  0  0
 10 13  1  0  0  0  0
 10 14  1  0  0  0  0
  9 15  1  0  0  0  0
  4 15  1  6  0  0  0
  9 16  1  6  0  0  0
  5 17  1  1  0  0  0
M  END
>  <cdx:fragmentId>
5

$$$$
