11880.cdx
  Mrv1902 05222410202D          

 50 56  0  0  0  0            999 V2000
   10.2030   -8.7450    0.0000 C   0  0  2  0  0  0  0  0  0  0  0  0
   10.2030   -9.5700    0.0000 C   0  0  0  0  0  0  0  0  0  0  0  0
   10.9175   -9.9825    0.0000 C   0  0  1  0  0  0  0  0  0  0  0  0
   11.6320   -9.5700    0.0000 C   0  0  1  0  0  0  0  0  0  0  0  0
   11.6320   -8.7450    0.0000 C   0  0  0  0  0  0  0  0  0  0  0  0
   10.9175   -8.3325    0.0000 C   0  0  1  0  0  0  0  0  0  0  0  0
   10.9175   -7.5075    0.0000 C   0  0  0  0  0  0  0  0  0  0  0  0
   12.2650   -8.3600    0.0000 O   0  0  0  0  0  0  0  0  0  0  0  0
   10.9175   -9.1575    0.0000 C   0  0  2  0  0  0  0  0  0  0  0  0
    9.4886   -8.3325    0.0000 O   0  0  0  0  0  0  0  0  0  0  0  0
   12.2650   -9.9550    0.0000 O   0  0  0  0  0  0  0  0  0  0  0  0
   11.6320  -10.3950    0.0000 O   0  0  0  0  0  0  0  0  0  0  0  0
   10.3125   -9.9275    0.0000 C   0  0  0  0  0  0  0  0  0  0  0  0
   10.3125  -10.7525    0.0000 O   0  0  0  0  0  0  0  0  0  0  0  0
   12.2650   -9.1575    0.0000 C   0  0  1  0  0  0  0  0  0  0  0  0
    9.5940  -11.1580    0.0000 C   0  0  0  0  0  0  0  0  0  0  0  0
    8.8836  -10.7385    0.0000 O   0  0  0  0  0  0  0  0  0  0  0  0
    9.5859  -11.9829    0.0000 C   0  0  0  0  0  0  0  0  0  0  0  0
   10.2963  -12.4024    0.0000 C   0  0  0  0  0  0  0  0  0  0  0  0
   10.2882  -13.2274    0.0000 C   0  0  0  0  0  0  0  0  0  0  0  0
    9.5698  -13.6329    0.0000 C   0  0  0  0  0  0  0  0  0  0  0  0
    8.8594  -13.2134    0.0000 C   0  0  0  0  0  0  0  0  0  0  0  0
    8.8675  -12.3884    0.0000 C   0  0  0  0  0  0  0  0  0  0  0  0
    8.7741   -8.7450    0.0000 C   0  0  2  0  0  0  0  0  0  0  0  0
    8.0596   -8.3325    0.0000 O   0  0  0  0  0  0  0  0  0  0  0  0
    7.3451   -8.7450    0.0000 C   0  0  1  0  0  0  0  0  0  0  0  0
    7.3451   -9.5700    0.0000 C   0  0  2  0  0  0  0  0  0  0  0  0
    8.0596   -9.9825    0.0000 C   0  0  1  0  0  0  0  0  0  0  0  0
    8.7741   -9.5700    0.0000 C   0  0  1  0  0  0  0  0  0  0  0  0
    6.6307   -8.3325    0.0000 C   0  0  0  0  0  0  0  0  0  0  0  0
    8.0596  -10.8075    0.0000 O   0  0  0  0  0  0  0  0  0  0  0  0
    9.4886   -9.9825    0.0000 O   0  0  0  0  0  0  0  0  0  0  0  0
    6.6307   -9.9825    0.0000 O   0  0  0  0  0  0  0  0  0  0  0  0
    5.9162   -8.7450    0.0000 O   0  0  0  0  0  0  0  0  0  0  0  0
   10.9175  -10.8075    0.0000 H   0  0  0  0  0  0  0  0  0  0  0  0
   13.1725   -9.1300    0.0000 H   0  0  0  0  0  0  0  0  0  0  0  0
    5.2017   -8.3325    0.0000 C   0  0  1  0  0  0  0  0  0  0  0  0
    5.2017   -7.5075    0.0000 O   0  0  0  0  0  0  0  0  0  0  0  0
    4.4873   -7.0950    0.0000 C   0  0  1  0  0  0  0  0  0  0  0  0
    3.7728   -7.5075    0.0000 C   0  0  2  0  0  0  0  0  0  0  0  0
    3.7728   -8.3325    0.0000 C   0  0  1  0  0  0  0  0  0  0  0  0
    4.4873   -8.7450    0.0000 C   0  0  1  0  0  0  0  0  0  0  0  0
    4.4873   -6.2700    0.0000 C   0  0  0  0  0  0  0  0  0  0  0  0
    3.0583   -8.7450    0.0000 O   0  0  0  0  0  0  0  0  0  0  0  0
    4.4873   -9.5700    0.0000 O   0  0  0  0  0  0  0  0  0  0  0  0
    3.0583   -7.0950    0.0000 O   0  0  0  0  0  0  0  0  0  0  0  0
    3.7728   -5.8575    0.0000 O   0  0  0  0  0  0  0  0  0  0  0  0
   12.3464  -10.8075    0.0000 S   0  0  0  0  0  0  0  0  0  0  0  0
   12.3464  -11.6325    0.0000 O   0  0  0  0  0  0  0  0  0  0  0  0
   13.0609  -10.3950    0.0000 O   0  0  0  0  0  0  0  0  0  0  0  0
  1  2  1  0  0  0  0
  2  3  1  0  0  0  0
  3  4  1  0  0  0  0
  4  5  1  0  0  0  0
  5  6  1  0  0  0  0
  6  1  1  0  0  0  0
  6  7  1  6  0  0  0
  6  8  1  0  0  0  0
  3  9  1  0  0  0  0
  1 10  1  1  0  0  0
  4 11  1  0  0  0  0
  4 12  1  6  0  0  0
  9  1  1  0  0  0  0
  9 13  1  1  0  0  0
 13 14  1  0  0  0  0
 11 15  1  0  0  0  0
  8 15  1  0  0  0  0
  9 15  1  0  0  0  0
 14 16  1  0  0  0  0
 16 17  2  0  0  0  0
 16 18  1  0  0  0  0
 18 19  2  0  0  0  0
 19 20  1  0  0  0  0
 20 21  2  0  0  0  0
 21 22  1  0  0  0  0
 22 23  2  0  0  0  0
 23 18  1  0  0  0  0
 24 10  1  1  0  0  0
 24 25  1  0  0  0  0
 25 26  1  0  0  0  0
 26 27  1  0  0  0  0
 27 28  1  0  0  0  0
 28 29  1  0  0  0  0
 29 24  1  0  0  0  0
 26 30  1  1  0  0  0
 28 31  1  1  0  0  0
 29 32  1  6  0  0  0
 27 33  1  6  0  0  0
 30 34  1  0  0  0  0
  3 35  1  1  0  0  0
 15 36  1  1  0  0  0
 37 34  1  6  0  0  0
 37 38  1  0  0  0  0
 38 39  1  0  0  0  0
 39 40  1  0  0  0  0
 40 41  1  0  0  0  0
 41 42  1  0  0  0  0
 42 37  1  0  0  0  0
 39 43  1  1  0  0  0
 41 44  1  1  0  0  0
 42 45  1  6  0  0  0
 40 46  1  6  0  0  0
 43 47  1  0  0  0  0
 12 48  1  0  0  0  0
 48 49  2  0  0  0  0
 48 50  1  0  0  0  0
M  END
>  <cdx:fragmentId>
157

$$$$
