11896.cdx
  Mrv1902 05222410192D          

 16 17  0  0  0  0            999 V2000
    6.1495   -7.1569    0.0000 C   0  0  0  0  0  0  0  0  0  0  0  0
    6.1495   -7.9819    0.0000 C   0  0  0  0  0  0  0  0  0  0  0  0
    6.8640   -8.3944    0.0000 C   0  0  0  0  0  0  0  0  0  0  0  0
    7.5785   -7.9819    0.0000 C   0  0  1  0  0  0  0  0  0  0  0  0
    7.5785   -7.1569    0.0000 C   0  0  0  0  0  0  0  0  0  0  0  0
    6.8640   -6.7444    0.0000 C   0  0  0  0  0  0  0  0  0  0  0  0
    8.2929   -8.3944    0.0000 C   0  0  2  0  0  0  0  0  0  0  0  0
    9.0074   -7.9819    0.0000 C   0  0  0  0  0  0  0  0  0  0  0  0
    9.0074   -7.1569    0.0000 C   0  0  0  0  0  0  0  0  0  0  0  0
    8.2929   -6.7444    0.0000 C   0  0  0  0  0  0  0  0  0  0  0  0
    5.4351   -6.7444    0.0000 O   0  0  0  0  0  0  0  0  0  0  0  0
    5.4351   -8.3944    0.0000 C   0  0  0  0  0  0  0  0  0  0  0  0
    4.7206   -7.9819    0.0000 C   0  0  0  0  0  0  0  0  0  0  0  0
    5.4351   -9.2194    0.0000 C   0  0  0  0  0  0  0  0  0  0  0  0
    7.5785   -8.8069    0.0000 C   0  0  0  0  0  0  0  0  0  0  0  0
    8.2929   -9.2194    0.0000 C   0  0  0  0  0  0  0  0  0  0  0  0
  1  2  1  0  0  0  0
  2  3  1  0  0  0  0
  3  4  1  0  0  0  0
  4  5  1  0  0  0  0
  5  6  2  0  0  0  0
  6  1  1  0  0  0  0
  4  7  1  0  0  0  0
  7  8  1  0  0  0  0
  8  9  1  0  0  0  0
  9 10  1  0  0  0  0
 10  5  1  0  0  0  0
  1 11  2  0  0  0  0
  2 12  2  0  0  0  0
 12 13  1  0  0  0  0
 12 14  1  0  0  0  0
  4 15  1  6  0  0  0
  7 16  1  6  0  0  0
M  END
>  <cdx:fragmentId>
5

$$$$
