118976.cdx
  Mrv1902 05222410182D          

 12 12  0  0  0  0            999 V2000
    8.5288   -5.6431    0.0000 C   0  0  0  0  0  0  0  0  0  0  0  0
    9.2433   -6.0556    0.0000 C   0  0  0  0  0  0  0  0  0  0  0  0
    8.5288   -4.8181    0.0000 O   0  0  0  0  0  0  0  0  0  0  0  0
    7.8143   -6.0556    0.0000 C   0  0  0  0  0  0  0  0  0  0  0  0
    7.8143   -6.8806    0.0000 C   0  0  0  0  0  0  0  0  0  0  0  0
    7.0999   -7.2931    0.0000 C   0  0  0  0  0  0  0  0  0  0  0  0
    6.3854   -6.8806    0.0000 C   0  0  0  0  0  0  0  0  0  0  0  0
    6.3854   -6.0556    0.0000 C   0  0  0  0  0  0  0  0  0  0  0  0
    7.0999   -5.6431    0.0000 C   0  0  0  0  0  0  0  0  0  0  0  0
    5.6709   -5.6431    0.0000 C   0  0  0  0  0  0  0  0  0  0  0  0
    5.6709   -7.2931    0.0000 C   0  0  0  0  0  0  0  0  0  0  0  0
    8.5288   -7.2931    0.0000 O   0  0  0  0  0  0  0  0  0  0  0  0
  1  2  1  0  0  0  0
  4  5  1  0  0  0  0
  5  6  2  0  0  0  0
  6  7  1  0  0  0  0
  7  8  2  0  0  0  0
  8  9  1  0  0  0  0
  4  9  2  0  0  0  0
  1  3  2  0  0  0  0
  1  4  1  0  0  0  0
  8 10  1  0  0  0  0
  7 11  1  0  0  0  0
  5 12  1  0  0  0  0
M  END
>  <cdx:fragmentId>
165

$$$$
