118969.cdx
  Mrv1902 05222410262D          

 50 55  0  0  0  0            999 V2000
    7.3235   -6.6473    0.0000 C   0  0  1  0  0  0  0  0  0  0  0  0
    8.0380   -6.2348    0.0000 C   0  0  1  0  0  0  0  0  0  0  0  0
    8.7525   -6.6473    0.0000 C   0  0  0  0  0  0  0  0  0  0  0  0
    8.7525   -7.4723    0.0000 C   0  0  0  0  0  0  0  0  0  0  0  0
    8.0380   -7.8848    0.0000 C   0  0  2  0  0  0  0  0  0  0  0  0
    8.0380   -8.7098    0.0000 C   0  0  0  0  0  0  0  0  0  0  0  0
    7.3235   -9.1223    0.0000 C   0  0  0  0  0  0  0  0  0  0  0  0
    6.6090   -8.7098    0.0000 C   0  0  1  0  0  0  0  0  0  0  0  0
    5.8946   -9.1223    0.0000 C   0  0  2  0  0  0  0  0  0  0  0  0
    5.8946   -9.9473    0.0000 C   0  0  0  0  0  0  0  0  0  0  0  0
    5.1801  -10.3598    0.0000 C   0  0  0  0  0  0  0  0  0  0  0  0
    4.4656   -9.9473    0.0000 C   0  0  1  0  0  0  0  0  0  0  0  0
    3.7512  -10.3598    0.0000 C   0  0  2  0  0  0  0  0  0  0  0  0
    3.0367   -9.9473    0.0000 C   0  0  2  0  0  0  0  0  0  0  0  0
    3.0367   -9.1223    0.0000 C   0  0  1  0  0  0  0  0  0  0  0  0
    3.7512   -8.7098    0.0000 C   0  0  0  0  0  0  0  0  0  0  0  0
    4.4656   -9.1223    0.0000 C   0  0  2  0  0  0  0  0  0  0  0  0
    5.1801   -8.7098    0.0000 C   0  0  1  0  0  0  0  0  0  0  0  0
    5.1801   -7.8848    0.0000 C   0  0  0  0  0  0  0  0  0  0  0  0
    5.8946   -7.4723    0.0000 C   0  0  0  0  0  0  0  0  0  0  0  0
    6.6090   -7.8848    0.0000 C   0  0  0  0  0  0  0  0  0  0  0  0
    7.3235   -7.4723    0.0000 C   0  0  2  0  0  0  0  0  0  0  0  0
    8.7525   -8.2973    0.0000 C   0  0  0  0  0  0  0  0  0  0  0  0
    8.7525   -9.1223    0.0000 O   0  0  0  0  0  0  0  0  0  0  0  0
    3.3387  -11.0742    0.0000 C   0  0  0  0  0  0  0  0  0  0  0  0
    8.0380   -5.4098    0.0000 C   0  0  0  0  0  0  0  0  0  0  0  0
    6.9110   -5.9328    0.0000 C   0  0  0  0  0  0  0  0  0  0  0  0
    4.1637  -11.0742    0.0000 C   0  0  0  0  0  0  0  0  0  0  0  0
    3.7512  -11.7887    0.0000 O   0  0  0  0  0  0  0  0  0  0  0  0
    2.3222   -8.7098    0.0000 O   0  0  0  0  0  0  0  0  0  0  0  0
    2.3222  -10.3598    0.0000 O   0  0  0  0  0  0  0  0  0  0  0  0
    6.4985   -6.6473    0.0000 O   0  0  0  0  0  0  0  0  0  0  0  0
    4.4656  -10.7723    0.0000 H   0  0  0  0  0  0  0  0  0  0  0  0
    7.3235   -8.2973    0.0000 H   0  0  0  0  0  0  0  0  0  0  0  0
   10.8888   -7.0477    0.0000 O   0  0  0  0  0  0  0  0  0  0  0  0
   12.3247   -7.8606    0.0000 O   0  0  0  0  0  0  0  0  0  0  0  0
   12.3387   -9.5105    0.0000 O   0  0  0  0  0  0  0  0  0  0  0  0
   11.6347  -10.7540    0.0000 O   0  0  0  0  0  0  0  0  0  0  0  0
   10.9168  -10.3476    0.0000 C   0  0  0  0  0  0  0  0  0  0  0  0
   10.9098   -9.5226    0.0000 C   0  0  2  0  0  0  0  0  0  0  0  0
   11.6207   -9.1041    0.0000 C   0  0  2  0  0  0  0  0  0  0  0  0
   11.6138   -8.2791    0.0000 C   0  0  1  0  0  0  0  0  0  0  0  0
   10.8958   -7.8727    0.0000 C   0  0  2  0  0  0  0  0  0  0  0  0
   10.1849   -8.2912    0.0000 C   0  0  1  0  0  0  0  0  0  0  0  0
   10.1918   -9.1162    0.0000 O   0  0  0  0  0  0  0  0  0  0  0  0
    9.4669   -7.8848    0.0000 O   0  0  0  0  0  0  0  0  0  0  0  0
    4.4656   -8.2973    0.0000 C   0  0  0  0  0  0  0  0  0  0  0  0
    5.1801   -9.5348    0.0000 H   0  0  0  0  0  0  0  0  0  0  0  0
    6.6090   -9.5348    0.0000 C   0  0  0  0  0  0  0  0  0  0  0  0
    5.8946   -8.2973    0.0000 C   0  0  0  0  0  0  0  0  0  0  0  0
 44 46  1  1  0  0  0
 43 35  1  6  0  0  0
 42 36  1  1  0  0  0
 41 37  1  6  0  0  0
 40 39  1  1  0  0  0
 39 38  1  0  0  0  0
 45 40  1  0  0  0  0
 41 40  1  0  0  0  0
 42 41  1  0  0  0  0
 43 42  1  0  0  0  0
 44 43  1  0  0  0  0
 45 44  1  0  0  0  0
  1  2  1  0  0  0  0
  2  3  1  0  0  0  0
  3  4  1  0  0  0  0
  4  5  1  0  0  0  0
  5  6  1  0  0  0  0
  6  7  1  0  0  0  0
  7  8  1  0  0  0  0
  8  9  1  0  0  0  0
  9 10  1  0  0  0  0
 10 11  1  0  0  0  0
 11 12  1  0  0  0  0
 12 13  1  0  0  0  0
 13 14  1  0  0  0  0
 14 15  1  0  0  0  0
 15 16  1  0  0  0  0
 16 17  1  0  0  0  0
 12 17  1  0  0  0  0
 17 18  1  0  0  0  0
  9 18  1  0  0  0  0
 18 19  1  0  0  0  0
 19 20  1  0  0  0  0
 20 21  2  0  0  0  0
  8 21  1  0  0  0  0
 21 22  1  0  0  0  0
  5 22  1  0  0  0  0
  1 22  1  0  0  0  0
 23 24  2  0  0  0  0
 23 46  1  0  0  0  0
  5 23  1  1  0  0  0
 13 25  1  1  0  0  0
  2 26  1  6  0  0  0
  1 27  1  1  0  0  0
 28 29  1  0  0  0  0
 13 28  1  6  0  0  0
 15 30  1  6  0  0  0
 14 31  1  1  0  0  0
  1 32  1  6  0  0  0
 12 33  1  6  0  0  0
 22 34  1  1  0  0  0
 17 47  1  1  0  0  0
 18 48  1  6  0  0  0
  8 49  1  6  0  0  0
  9 50  1  1  0  0  0
M  END
>  <cdx:fragmentId>
119578

$$$$
