p-13#gallic acid.cdx
  Mrv1902 05222410262D          

 12 12  0  0  0  0            999 V2000
    8.2657   -9.7658    0.0000 C   0  0  0  0  0  0  0  0  0  0  0  0
    7.5512  -10.1783    0.0000 C   0  0  0  0  0  0  0  0  0  0  0  0
    7.5512  -11.0033    0.0000 C   0  0  0  0  0  0  0  0  0  0  0  0
    6.8368  -11.4158    0.0000 C   0  0  0  0  0  0  0  0  0  0  0  0
    6.8368  -12.2408    0.0000 O   0  0  0  0  0  0  0  0  0  0  0  0
    6.1223  -11.0033    0.0000 C   0  0  0  0  0  0  0  0  0  0  0  0
    5.4078  -11.4158    0.0000 O   0  0  0  0  0  0  0  0  0  0  0  0
    6.1223  -10.1783    0.0000 C   0  0  0  0  0  0  0  0  0  0  0  0
    5.4078   -9.7658    0.0000 O   0  0  0  0  0  0  0  0  0  0  0  0
    6.8368   -9.7658    0.0000 C   0  0  0  0  0  0  0  0  0  0  0  0
    8.2657   -8.9408    0.0000 O   0  0  0  0  0  0  0  0  0  0  0  0
    8.9802  -10.1783    0.0000 O   0  0  0  0  0  0  0  0  0  0  0  0
  1  2  1  0  0  0  0
  2  3  1  0  0  0  0
  3  4  2  0  0  0  0
  4  5  1  0  0  0  0
  4  6  1  0  0  0  0
  6  7  1  0  0  0  0
  6  8  2  0  0  0  0
  8  9  1  0  0  0  0
  8 10  1  0  0  0  0
  2 10  2  0  0  0  0
  1 11  2  0  0  0  0
  1 12  1  0  0  0  0
M  END
>  <cdx:groupId>
38

>  <cdx:fragmentId>
5

$$$$
