119033.cdx
  Mrv1902 05222410252D          

 21 22  0  0  0  0            999 V2000
    5.4188   -6.5300    0.0000 C   0  0  0  0  0  0  0  0  0  0  0  0
    6.1333   -6.9425    0.0000 C   0  0  2  0  0  0  0  0  0  0  0  0
    4.7043   -6.1175    0.0000 N   0  0  0  0  0  0  0  0  0  0  0  0
    6.8477   -6.5300    0.0000 O   0  0  0  0  0  0  0  0  0  0  0  0
    7.5622   -7.7675    0.0000 O   0  0  0  0  0  0  0  0  0  0  0  0
    7.5622   -6.9425    0.0000 C   0  0  2  0  0  0  0  0  0  0  0  0
    8.2767   -6.5300    0.0000 C   0  0  1  0  0  0  0  0  0  0  0  0
    8.9911   -6.9425    0.0000 C   0  0  2  0  0  0  0  0  0  0  0  0
    8.9911   -7.7675    0.0000 C   0  0  1  0  0  0  0  0  0  0  0  0
    8.2767   -8.1800    0.0000 C   0  0  1  0  0  0  0  0  0  0  0  0
    8.2767   -9.0050    0.0000 C   0  0  0  0  0  0  0  0  0  0  0  0
    8.9911   -9.4175    0.0000 O   0  0  0  0  0  0  0  0  0  0  0  0
    9.7056   -8.1800    0.0000 O   0  0  0  0  0  0  0  0  0  0  0  0
    9.7056   -6.5300    0.0000 O   0  0  0  0  0  0  0  0  0  0  0  0
    8.2767   -5.7050    0.0000 O   0  0  0  0  0  0  0  0  0  0  0  0
    6.1333   -7.7675    0.0000 C   0  0  0  0  0  0  0  0  0  0  0  0
    6.8477   -8.1800    0.0000 C   0  0  0  0  0  0  0  0  0  0  0  0
    6.8477   -9.0050    0.0000 C   0  0  0  0  0  0  0  0  0  0  0  0
    6.1333   -9.4175    0.0000 C   0  0  0  0  0  0  0  0  0  0  0  0
    5.4188   -9.0050    0.0000 C   0  0  0  0  0  0  0  0  0  0  0  0
    5.4188   -8.1800    0.0000 C   0  0  0  0  0  0  0  0  0  0  0  0
  1  2  1  0  0  0  0
  1  3  3  0  0  0  0
  5  6  1  0  0  0  0
  6  7  1  0  0  0  0
  7  8  1  0  0  0  0
  8  9  1  0  0  0  0
  9 10  1  0  0  0  0
  5 10  1  0  0  0  0
 11 12  1  0  0  0  0
 10 11  1  1  0  0  0
  9 13  1  6  0  0  0
  8 14  1  1  0  0  0
  7 15  1  6  0  0  0
  6  4  1  1  0  0  0
  2  4  1  6  0  0  0
 16 17  1  0  0  0  0
 17 18  2  0  0  0  0
 18 19  1  0  0  0  0
 19 20  2  0  0  0  0
 20 21  1  0  0  0  0
 16 21  2  0  0  0  0
  2 16  1  0  0  0  0
M  END
>  <cdx:fragmentId>
207

$$$$
