119041.cdx
  Mrv1902 05222410272D          

 36 41  0  0  0  0            999 V2000
    8.3543   -9.5426    0.0000 C   0  0  1  0  0  0  0  0  0  0  0  0
    9.0659   -9.1251    0.0000 C   0  0  1  0  0  0  0  0  0  0  0  0
    9.0717   -9.9501    0.0000 O   0  0  0  0  0  0  0  0  0  0  0  0
    9.7832   -9.5326    0.0000 C   0  0  2  0  0  0  0  0  0  0  0  0
   10.4948   -9.1151    0.0000 C   0  0  0  0  0  0  0  0  0  0  0  0
   10.4890   -8.2901    0.0000 O   0  0  0  0  0  0  0  0  0  0  0  0
    9.7717   -7.8826    0.0000 C   0  0  2  0  0  0  0  0  0  0  0  0
    9.0601   -8.3001    0.0000 C   0  0  2  0  0  0  0  0  0  0  0  0
    8.3428   -7.8926    0.0000 C   0  0  0  0  0  0  0  0  0  0  0  0
    7.6312   -8.3101    0.0000 C   0  0  0  0  0  0  0  0  0  0  0  0
    7.6370   -9.1351    0.0000 C   0  0  2  0  0  0  0  0  0  0  0  0
    6.9254   -9.5526    0.0000 C   0  0  1  0  0  0  0  0  0  0  0  0
    6.2768   -9.0427    0.0000 C   0  0  0  0  0  0  0  0  0  0  0  0
    5.4738   -9.2320    0.0000 C   0  0  0  0  0  0  0  0  0  0  0  0
    5.1211   -9.9777    0.0000 C   0  0  0  0  0  0  0  0  0  0  0  0
    5.4842  -10.7185    0.0000 O   0  0  0  0  0  0  0  0  0  0  0  0
    6.2898  -10.8965    0.0000 C   0  0  0  0  0  0  0  0  0  0  0  0
    6.9312  -10.3776    0.0000 C   0  0  2  0  0  0  0  0  0  0  0  0
    7.6486  -10.7851    0.0000 C   0  0  0  0  0  0  0  0  0  0  0  0
    8.3601  -10.3676    0.0000 C   0  0  0  0  0  0  0  0  0  0  0  0
   11.2122   -9.5225    0.0000 O   0  0  0  0  0  0  0  0  0  0  0  0
    4.2961   -9.9835    0.0000 O   0  0  0  0  0  0  0  0  0  0  0  0
    9.0775  -10.7750    0.0000 O   0  0  0  0  0  0  0  0  0  0  0  0
    6.7423  -11.5863    0.0000 C   0  0  0  0  0  0  0  0  0  0  0  0
    5.9842  -11.6628    0.0000 C   0  0  0  0  0  0  0  0  0  0  0  0
    6.9197   -8.7276    0.0000 C   0  0  0  0  0  0  0  0  0  0  0  0
    9.0543   -7.4751    0.0000 C   0  0  0  0  0  0  0  0  0  0  0  0
    8.3486   -8.7176    0.0000 C   0  0  0  0  0  0  0  0  0  0  0  0
   10.1695   -5.7852    0.0000 O   0  0  0  0  0  0  0  0  0  0  0  0
   10.4299   -6.5680    0.0000 C   0  0  0  0  0  0  0  0  0  0  0  0
    9.7659   -7.0576    0.0000 C   0  0  0  0  0  0  0  0  0  0  0  0
    9.0951   -6.5774    0.0000 C   0  0  0  0  0  0  0  0  0  0  0  0
    9.3445   -5.7910    0.0000 C   0  0  0  0  0  0  0  0  0  0  0  0
   10.2007  -10.2441    0.0000 H   0  0  0  0  0  0  0  0  0  0  0  0
    7.6428   -9.9601    0.0000 H   0  0  0  0  0  0  0  0  0  0  0  0
    6.9312  -11.2026    0.0000 H   0  0  0  0  0  0  0  0  0  0  0  0
  1  2  1  0  0  0  0
  2  3  1  1  0  0  0
  3  4  1  0  0  0  0
  4  5  1  0  0  0  0
  5  6  1  0  0  0  0
  6  7  1  0  0  0  0
  7  8  1  0  0  0  0
  8  9  1  0  0  0  0
  9 10  1  0  0  0  0
 10 11  1  0  0  0  0
 11 12  1  0  0  0  0
 12 13  1  0  0  0  0
 13 14  2  0  0  0  0
 14 15  1  0  0  0  0
 15 16  1  0  0  0  0
 16 17  1  0  0  0  0
 17 18  1  0  0  0  0
 18 19  1  0  0  0  0
 19 20  1  0  0  0  0
  1 20  1  0  0  0  0
  1 11  1  0  0  0  0
 12 18  1  0  0  0  0
  2  8  1  0  0  0  0
  2  4  1  0  0  0  0
  5 21  2  0  0  0  0
 15 22  2  0  0  0  0
 20 23  2  0  0  0  0
 17 24  1  0  0  0  0
 17 25  1  0  0  0  0
 12 26  1  1  0  0  0
  8 27  1  6  0  0  0
  1 28  1  1  0  0  0
 29 30  1  0  0  0  0
 30 31  2  0  0  0  0
 31 32  1  0  0  0  0
 32 33  2  0  0  0  0
 29 33  1  0  0  0  0
  7 31  1  6  0  0  0
  4 34  1  6  0  0  0
 11 35  1  6  0  0  0
 18 36  1  6  0  0  0
M  END
>  <cdx:fragmentId>
5

$$$$
