11902.cdx
  Mrv1902 05222410282D          

 13 14  0  0  0  0            999 V2000
    4.9775   -7.8375    0.0000 C   0  0  0  0  0  0  0  0  0  0  0  0
    4.4275   -8.4425    0.0000 C   0  0  1  0  0  0  0  0  0  0  0  0
    5.1975   -9.0200    0.0000 C   0  0  2  0  0  0  0  0  0  0  0  0
    6.1050   -8.5525    0.0000 C   0  0  1  0  0  0  0  0  0  0  0  0
    7.2050   -8.5525    0.0000 C   0  0  0  0  0  0  0  0  0  0  0  0
    6.3250   -7.7000    0.0000 C   0  0  2  0  0  0  0  0  0  0  0  0
    5.7750   -6.8200    0.0000 C   0  0  0  0  0  0  0  0  0  0  0  0
    6.7375   -6.9855    0.0000 H   0  0  0  0  0  0  0  0  0  0  0  0
    5.8915   -9.3494    0.0000 H   0  0  0  0  0  0  0  0  0  0  0  0
    7.6175   -9.2670    0.0000 C   0  0  0  0  0  0  0  0  0  0  0  0
    8.0019   -8.3390    0.0000 C   0  0  0  0  0  0  0  0  0  0  0  0
    5.1975   -9.8450    0.0000 C   0  0  0  0  0  0  0  0  0  0  0  0
    3.6062   -8.5205    0.0000 O   0  0  0  0  0  0  0  0  0  0  0  0
  1  2  1  0  0  0  0
  2  3  1  0  0  0  0
  3  4  1  0  0  0  0
  4  5  1  0  0  0  0
  1  6  1  0  0  0  0
  6  5  1  0  0  0  0
  6  7  1  0  0  0  0
  4  7  1  0  0  0  0
  6  8  1  6  0  0  0
  4  9  1  1  0  0  0
  5 10  1  0  0  0  0
  5 11  1  0  0  0  0
  3 12  1  6  0  0  0
  2 13  1  1  0  0  0
M  END
>  <cdx:fragmentId>
96

$$$$
