11903.cdx
  Mrv1902 05222410282D          

  9  9  0  0  0  0            999 V2000
    4.1862   -3.9394    0.0000 C   0  0  0  0  0  0  0  0  0  0  0  0
    4.1862   -4.7644    0.0000 C   0  0  0  0  0  0  0  0  0  0  0  0
    3.4717   -5.1769    0.0000 C   0  0  0  0  0  0  0  0  0  0  0  0
    2.7572   -4.7644    0.0000 C   0  0  0  0  0  0  0  0  0  0  0  0
    2.7572   -3.9394    0.0000 C   0  0  0  0  0  0  0  0  0  0  0  0
    3.4717   -3.5269    0.0000 C   0  0  0  0  0  0  0  0  0  0  0  0
    4.9007   -3.5269    0.0000 C   0  0  0  0  0  0  0  0  0  0  0  0
    4.9007   -5.1769    0.0000 C   0  0  0  0  0  0  0  0  0  0  0  0
    5.6151   -4.7644    0.0000 C   0  0  0  0  0  0  0  0  0  0  0  0
  1  2  1  0  0  0  0
  2  3  2  0  0  0  0
  3  4  1  0  0  0  0
  4  5  2  0  0  0  0
  5  6  1  0  0  0  0
  1  6  2  0  0  0  0
  1  7  1  0  0  0  0
  8  9  1  0  0  0  0
  2  8  1  0  0  0  0
M  END
>  <cdx:groupId>
29

>  <cdx:fragmentId>
5

$$$$
