11904.cdx
  Mrv1902 05222410272D          

  9  9  0  0  0  0            999 V2000
    3.1137   -3.6094    0.0000 C   0  0  0  0  0  0  0  0  0  0  0  0
    3.1137   -2.7844    0.0000 C   0  0  0  0  0  0  0  0  0  0  0  0
    2.3992   -2.3719    0.0000 C   0  0  0  0  0  0  0  0  0  0  0  0
    1.6847   -2.7844    0.0000 C   0  0  0  0  0  0  0  0  0  0  0  0
    1.6847   -3.6094    0.0000 C   0  0  0  0  0  0  0  0  0  0  0  0
    2.3992   -4.0219    0.0000 C   0  0  0  0  0  0  0  0  0  0  0  0
    3.8282   -4.0219    0.0000 C   0  0  0  0  0  0  0  0  0  0  0  0
    4.5426   -3.6094    0.0000 C   0  0  0  0  0  0  0  0  0  0  0  0
    3.8282   -2.3719    0.0000 C   0  0  0  0  0  0  0  0  0  0  0  0
  1  2  1  0  0  0  0
  2  3  2  0  0  0  0
  3  4  1  0  0  0  0
  4  5  2  0  0  0  0
  5  6  1  0  0  0  0
  1  6  2  0  0  0  0
  7  8  2  0  0  0  0
  1  7  1  0  0  0  0
  2  9  1  0  0  0  0
M  END
>  <cdx:groupId>
29

>  <cdx:fragmentId>
5

$$$$
