119199.cdx
  Mrv1902 05222410222D          

 19 21  0  0  0  0            999 V2000
   15.1318  -15.9304    0.0000 C   0  0  0  0  0  0  0  0  0  0  0  0
   15.1318  -15.1054    0.0000 O   0  0  0  0  0  0  0  0  0  0  0  0
   15.8463  -16.3429    0.0000 O   0  0  0  0  0  0  0  0  0  0  0  0
   15.8463  -17.1679    0.0000 C   0  0  0  0  0  0  0  0  0  0  0  0
   15.1318  -17.5804    0.0000 C   0  0  0  0  0  0  0  0  0  0  0  0
   14.4173  -17.1679    0.0000 C   0  0  0  0  0  0  0  0  0  0  0  0
   13.7029  -17.5804    0.0000 C   0  0  0  0  0  0  0  0  0  0  0  0
   12.9884  -17.1679    0.0000 C   0  0  0  0  0  0  0  0  0  0  0  0
   12.9884  -16.3429    0.0000 C   0  0  0  0  0  0  0  0  0  0  0  0
   13.7029  -15.9304    0.0000 C   0  0  0  0  0  0  0  0  0  0  0  0
   14.4173  -16.3429    0.0000 C   0  0  0  0  0  0  0  0  0  0  0  0
   16.5607  -17.5804    0.0000 C   0  0  0  0  0  0  0  0  0  0  0  0
   17.2752  -17.1679    0.0000 C   0  0  0  0  0  0  0  0  0  0  0  0
   17.9897  -17.5804    0.0000 C   0  0  0  0  0  0  0  0  0  0  0  0
   17.9897  -18.4054    0.0000 C   0  0  0  0  0  0  0  0  0  0  0  0
   17.2752  -18.8179    0.0000 C   0  0  0  0  0  0  0  0  0  0  0  0
   16.5607  -18.4054    0.0000 C   0  0  0  0  0  0  0  0  0  0  0  0
   18.7041  -18.8179    0.0000 O   0  0  0  0  0  0  0  0  0  0  0  0
   13.7029  -15.1054    0.0000 O   0  0  0  0  0  0  0  0  0  0  0  0
  1  2  2  0  0  0  0
  1  3  1  0  0  0  0
  3  4  1  0  0  0  0
  4  5  1  0  0  0  0
  5  6  1  0  0  0  0
  6  7  1  0  0  0  0
  7  8  2  0  0  0  0
  8  9  1  0  0  0  0
  9 10  2  0  0  0  0
 10 11  1  0  0  0  0
  1 11  1  0  0  0  0
  6 11  2  0  0  0  0
 12 13  1  0  0  0  0
 13 14  2  0  0  0  0
 14 15  1  0  0  0  0
 15 16  2  0  0  0  0
 16 17  1  0  0  0  0
 12 17  2  0  0  0  0
 15 18  1  0  0  0  0
  4 12  1  0  0  0  0
 10 19  1  0  0  0  0
M  END
>  <cdx:fragmentId>
660

$$$$
