119104.cdx
  Mrv1902 05222410192D          

 17 17  0  0  0  0            999 V2000
    6.2846   -7.3104    0.0000 C   0  0  0  0  0  0  0  0  0  0  0  0
    6.2846   -8.1355    0.0000 C   0  0  0  0  0  0  0  0  0  0  0  0
    6.9990   -8.5480    0.0000 C   0  0  0  0  0  0  0  0  0  0  0  0
    7.7135   -8.1355    0.0000 C   0  0  0  0  0  0  0  0  0  0  0  0
    7.7135   -7.3104    0.0000 C   0  0  0  0  0  0  0  0  0  0  0  0
    6.9990   -6.8979    0.0000 C   0  0  0  0  0  0  0  0  0  0  0  0
    5.5701   -8.5480    0.0000 O   0  0  0  0  0  0  0  0  0  0  0  0
    4.8556   -8.1355    0.0000 C   0  0  0  0  0  0  0  0  0  0  0  0
    4.1411   -8.5480    0.0000 C   0  0  0  0  0  0  0  0  0  0  0  0
    4.8556   -7.3104    0.0000 O   0  0  0  0  0  0  0  0  0  0  0  0
    8.4279   -6.0729    0.0000 O   0  0  0  0  0  0  0  0  0  0  0  0
    9.8569   -6.8979    0.0000 C   0  0  0  0  0  0  0  0  0  0  0  0
    9.1424   -7.3104    0.0000 C   0  0  0  0  0  0  0  0  0  0  0  0
    7.7134   -4.8354    0.0000 O   0  0  0  0  0  0  0  0  0  0  0  0
    6.9989   -6.0729    0.0000 C   0  0  0  0  0  0  0  0  0  0  0  0
    7.7134   -5.6604    0.0000 C   0  0  0  0  0  0  0  0  0  0  0  0
    8.4279   -6.8979    0.0000 C   0  0  1  0  0  0  0  0  0  0  0  0
 13 12  2  0  0  0  0
 17 13  1  0  0  0  0
 16 14  2  0  0  0  0
 16 15  1  0  0  0  0
 17 11  1  1  0  0  0
  1  2  2  0  0  0  0
  2  3  1  0  0  0  0
  3  4  2  0  0  0  0
  4  5  1  0  0  0  0
  5  6  2  0  0  0  0
  6  1  1  0  0  0  0
  2  7  1  0  0  0  0
  7  8  1  0  0  0  0
  8  9  1  0  0  0  0
  8 10  2  0  0  0  0
  5 17  1  0  0  0  0
 11 16  1  0  0  0  0
M  END
>  <cdx:fragmentId>
583

$$$$
