11929.cdx
  Mrv1902 05222410272D          

 44 48  0  0  0  0            999 V2000
    2.9320   -4.3725    0.0000 C   0  0  1  0  0  0  0  0  0  0  0  0
    2.9320   -5.1975    0.0000 C   0  0  2  0  0  0  0  0  0  0  0  0
    3.6465   -5.6100    0.0000 C   0  0  1  0  0  0  0  0  0  0  0  0
    4.3610   -5.1975    0.0000 O   0  0  0  0  0  0  0  0  0  0  0  0
    4.3610   -4.3725    0.0000 C   0  0  2  0  0  0  0  0  0  0  0  0
    3.6465   -3.9600    0.0000 C   0  0  2  0  0  0  0  0  0  0  0  0
    3.6465   -6.4350    0.0000 O   0  0  0  0  0  0  0  0  0  0  0  0
    4.3610   -6.8475    0.0000 C   0  0  0  0  0  0  0  0  0  0  0  0
    5.0754   -6.4350    0.0000 C   0  0  0  0  0  0  0  0  0  0  0  0
    4.3610   -7.6725    0.0000 C   0  0  0  0  0  0  0  0  0  0  0  0
    5.0754   -8.0850    0.0000 C   0  0  0  0  0  0  0  0  0  0  0  0
    5.7899   -7.6725    0.0000 C   0  0  0  0  0  0  0  0  0  0  0  0
    5.7899   -6.8475    0.0000 C   0  0  0  0  0  0  0  0  0  0  0  0
    6.5044   -8.0850    0.0000 C   0  0  0  0  0  0  0  0  0  0  0  0
    7.2189   -7.6725    0.0000 C   0  0  0  0  0  0  0  0  0  0  0  0
    7.2189   -6.8475    0.0000 C   0  0  0  0  0  0  0  0  0  0  0  0
    6.5044   -6.4350    0.0000 O   0  0  0  0  0  0  0  0  0  0  0  0
    7.9333   -6.4350    0.0000 C   0  0  0  0  0  0  0  0  0  0  0  0
    7.9333   -5.6100    0.0000 C   0  0  0  0  0  0  0  0  0  0  0  0
    8.6478   -6.8475    0.0000 C   0  0  0  0  0  0  0  0  0  0  0  0
    9.3623   -6.4350    0.0000 C   0  0  0  0  0  0  0  0  0  0  0  0
    9.3623   -5.6100    0.0000 C   0  0  0  0  0  0  0  0  0  0  0  0
    8.6478   -5.1975    0.0000 C   0  0  0  0  0  0  0  0  0  0  0  0
    6.5044   -8.9100    0.0000 O   0  0  0  0  0  0  0  0  0  0  0  0
    7.2189   -9.3225    0.0000 O   0  0  0  0  0  0  0  0  0  0  0  0
    7.9333   -8.9100    0.0000 C   0  0  1  0  0  0  0  0  0  0  0  0
    7.9333   -8.0850    0.0000 O   0  0  0  0  0  0  0  0  0  0  0  0
    7.2189  -10.1475    0.0000 C   0  0  1  0  0  0  0  0  0  0  0  0
    7.9333  -10.5600    0.0000 C   0  0  2  0  0  0  0  0  0  0  0  0
    8.6478  -10.1475    0.0000 C   0  0  1  0  0  0  0  0  0  0  0  0
    8.6478   -9.3225    0.0000 C   0  0  1  0  0  0  0  0  0  0  0  0
    6.5044  -10.5600    0.0000 C   0  0  0  0  0  0  0  0  0  0  0  0
    6.5044  -11.3850    0.0000 O   0  0  0  0  0  0  0  0  0  0  0  0
    7.9333  -11.3850    0.0000 O   0  0  0  0  0  0  0  0  0  0  0  0
    8.6478   -4.3725    0.0000 O   0  0  0  0  0  0  0  0  0  0  0  0
    9.3623   -3.9600    0.0000 C   0  0  0  0  0  0  0  0  0  0  0  0
   10.0767   -5.1975    0.0000 O   0  0  0  0  0  0  0  0  0  0  0  0
    5.0754   -8.9100    0.0000 O   0  0  0  0  0  0  0  0  0  0  0  0
    3.6465   -3.1350    0.0000 O   0  0  0  0  0  0  0  0  0  0  0  0
    9.3623  -10.5600    0.0000 O   0  0  0  0  0  0  0  0  0  0  0  0
    9.3623   -8.9100    0.0000 O   0  0  0  0  0  0  0  0  0  0  0  0
    5.0754   -3.9600    0.0000 C   0  0  0  0  0  0  0  0  0  0  0  0
    2.2176   -3.9600    0.0000 O   0  0  0  0  0  0  0  0  0  0  0  0
    2.2176   -5.6100    0.0000 O   0  0  0  0  0  0  0  0  0  0  0  0
  1  2  1  0  0  0  0
  2  3  1  0  0  0  0
  3  4  1  0  0  0  0
  4  5  1  0  0  0  0
  5  6  1  0  0  0  0
  6  1  1  0  0  0  0
  3  7  1  1  0  0  0
  7  8  1  0  0  0  0
  8  9  1  0  0  0  0
  8 10  2  0  0  0  0
 10 11  1  0  0  0  0
 11 12  2  0  0  0  0
 12 13  1  0  0  0  0
 13  9  2  0  0  0  0
 12 14  1  0  0  0  0
 14 15  1  0  0  0  0
 15 16  2  0  0  0  0
 16 17  1  0  0  0  0
 17 13  1  0  0  0  0
 16 18  1  0  0  0  0
 18 19  2  0  0  0  0
 18 20  1  0  0  0  0
 20 21  2  0  0  0  0
 21 22  1  0  0  0  0
 22 23  2  0  0  0  0
 23 19  1  0  0  0  0
 14 24  2  0  0  0  0
 25 26  1  0  0  0  0
 26 27  1  1  0  0  0
 27 15  1  0  0  0  0
 25 28  1  0  0  0  0
 28 29  1  0  0  0  0
 29 30  1  0  0  0  0
 30 31  1  0  0  0  0
 31 26  1  0  0  0  0
 28 32  1  1  0  0  0
 32 33  1  0  0  0  0
 29 34  1  6  0  0  0
 23 35  1  0  0  0  0
 35 36  1  0  0  0  0
 22 37  1  0  0  0  0
 11 38  1  0  0  0  0
  6 39  1  1  0  0  0
 30 40  1  1  0  0  0
 31 41  1  6  0  0  0
  5 42  1  6  0  0  0
  1 43  1  6  0  0  0
  2 44  1  6  0  0  0
M  END
>  <cdx:fragmentId>
5

$$$$
