13119212.cdx
  Mrv1902 05222410222D          

 21 22  0  0  0  0            999 V2000
    7.2717  -17.5147    0.0000 C   0  0  0  0  0  0  0  0  0  0  0  0
    6.5572  -17.1022    0.0000 C   0  0  0  0  0  0  0  0  0  0  0  0
    6.5572  -16.2772    0.0000 C   0  0  0  0  0  0  0  0  0  0  0  0
    7.2717  -15.8647    0.0000 C   0  0  0  0  0  0  0  0  0  0  0  0
    7.9862  -16.2772    0.0000 C   0  0  0  0  0  0  0  0  0  0  0  0
    7.9862  -17.1022    0.0000 C   0  0  0  0  0  0  0  0  0  0  0  0
    5.8427  -15.0397    0.0000 C   0  0  0  0  0  0  0  0  0  0  0  0
    6.5572  -14.6272    0.0000 C   0  0  0  0  0  0  0  0  0  0  0  0
    7.2717  -15.0397    0.0000 C   0  0  0  0  0  0  0  0  0  0  0  0
    7.9862  -14.6272    0.0000 C   0  0  0  0  0  0  0  0  0  0  0  0
    8.7006  -15.0397    0.0000 C   0  0  0  0  0  0  0  0  0  0  0  0
    6.5572  -13.8022    0.0000 C   0  0  0  0  0  0  0  0  0  0  0  0
    5.8427  -13.3897    0.0000 C   0  0  0  0  0  0  0  0  0  0  0  0
    5.8427  -12.5647    0.0000 C   0  0  0  0  0  0  0  0  0  0  0  0
    6.5572  -12.1522    0.0000 C   0  0  0  0  0  0  0  0  0  0  0  0
    7.2717  -12.5647    0.0000 C   0  0  0  0  0  0  0  0  0  0  0  0
    7.2717  -13.3897    0.0000 C   0  0  0  0  0  0  0  0  0  0  0  0
    6.5572  -11.3272    0.0000 O   0  0  0  0  0  0  0  0  0  0  0  0
    5.8427  -10.9147    0.0000 C   0  0  0  0  0  0  0  0  0  0  0  0
    7.2717  -18.3397    0.0000 O   0  0  0  0  0  0  0  0  0  0  0  0
    7.9862  -18.7522    0.0000 C   0  0  0  0  0  0  0  0  0  0  0  0
  1  2  1  0  0  0  0
  2  3  2  0  0  0  0
  3  4  1  0  0  0  0
  4  5  2  0  0  0  0
  5  6  1  0  0  0  0
  1  6  2  0  0  0  0
  7  8  1  0  0  0  0
  8  9  2  0  0  0  0
  9 10  1  0  0  0  0
 10 11  1  0  0  0  0
 12 13  1  0  0  0  0
 13 14  2  0  0  0  0
 14 15  1  0  0  0  0
 15 16  2  0  0  0  0
 16 17  1  0  0  0  0
 12 17  2  0  0  0  0
 18 19  1  0  0  0  0
 15 18  1  0  0  0  0
  8 12  1  0  0  0  0
  4  9  1  0  0  0  0
 20 21  1  0  0  0  0
  1 20  1  0  0  0  0
M  END
>  <cdx:groupId>
94225

>  <cdx:fragmentId>
94186

$$$$
