119201.cdx
  Mrv1902 05222410212D          

 18 21  0  0  0  0            999 V2000
    7.0985   -8.8430    0.0000 C   0  0  0  0  0  0  0  0  0  0  0  0
    6.3841   -9.2555    0.0000 C   0  0  0  0  0  0  0  0  0  0  0  0
    5.6696   -8.8430    0.0000 C   0  0  0  0  0  0  0  0  0  0  0  0
    4.9551   -9.2555    0.0000 C   0  0  0  0  0  0  0  0  0  0  0  0
    4.9551  -10.0805    0.0000 C   0  0  0  0  0  0  0  0  0  0  0  0
    5.6696  -10.4930    0.0000 C   0  0  0  0  0  0  0  0  0  0  0  0
    6.3841  -10.0805    0.0000 N   0  0  0  0  0  0  0  0  0  0  0  0
    7.0985  -10.4930    0.0000 C   0  0  0  0  0  0  0  0  0  0  0  0
    7.8130  -10.0805    0.0000 C   0  0  0  0  0  0  0  0  0  0  0  0
    8.5016   -9.6647    0.0000 C   0  0  0  0  0  0  0  0  0  0  0  0
    9.2007  -10.0626    0.0000 C   0  0  0  0  0  0  0  0  0  0  0  0
    9.8948   -9.6561    0.0000 C   0  0  0  0  0  0  0  0  0  0  0  0
    9.8898   -8.8517    0.0000 C   0  0  0  0  0  0  0  0  0  0  0  0
    9.1907   -8.4539    0.0000 C   0  0  0  0  0  0  0  0  0  0  0  0
    8.4966   -8.8604    0.0000 N   0  0  0  0  0  0  0  0  0  0  0  0
    7.8025   -8.4539    0.0000 C   0  0  0  0  0  0  0  0  0  0  0  0
    7.8130   -9.2555    0.0000 C   0  0  0  0  0  0  0  0  0  0  0  0
    5.6696  -11.3180    0.0000 O   0  0  0  0  0  0  0  0  0  0  0  0
  1  2  1  0  0  0  0
  2  3  1  0  0  0  0
  3  4  1  0  0  0  0
  4  5  1  0  0  0  0
  5  6  1  0  0  0  0
  6  7  1  0  0  0  0
  7  8  1  0  0  0  0
  8  9  1  0  0  0  0
  9 10  1  0  0  0  0
 10 11  1  0  0  0  0
 11 12  1  0  0  0  0
 12 13  1  0  0  0  0
 13 14  1  0  0  0  0
 14 15  1  0  0  0  0
 15 16  1  0  0  0  0
  1 16  1  0  0  0  0
  1 17  1  0  0  0  0
 17  9  1  0  0  0  0
 10 15  1  0  0  0  0
  2  7  1  0  0  0  0
  6 18  2  0  0  0  0
M  END
>  <cdx:groupId>
8725

>  <cdx:fragmentId>
8671

$$$$
