11934.cdx
  Mrv1902 05222410192D          

 16 18  0  0  0  0            999 V2000
    5.6405   -3.2175    0.0000 C   0  0  0  0  0  0  0  0  0  0  0  0
    6.3550   -3.6300    0.0000 C   0  0  0  0  0  0  0  0  0  0  0  0
    6.3550   -4.4550    0.0000 C   0  0  0  0  0  0  0  0  0  0  0  0
    5.6405   -4.8675    0.0000 C   0  0  0  0  0  0  0  0  0  0  0  0
    4.9260   -4.4550    0.0000 C   0  0  0  0  0  0  0  0  0  0  0  0
    4.2116   -4.8675    0.0000 C   0  0  0  0  0  0  0  0  0  0  0  0
    3.4971   -4.4550    0.0000 C   0  0  0  0  0  0  0  0  0  0  0  0
    3.4971   -3.6300    0.0000 C   0  0  0  0  0  0  0  0  0  0  0  0
    4.2116   -3.2175    0.0000 C   0  0  0  0  0  0  0  0  0  0  0  0
    4.9260   -3.6300    0.0000 C   0  0  0  0  0  0  0  0  0  0  0  0
    7.0695   -3.2175    0.0000 C   0  0  0  0  0  0  0  0  0  0  0  0
    7.0695   -2.3925    0.0000 C   0  0  0  0  0  0  0  0  0  0  0  0
    7.7839   -1.9800    0.0000 C   0  0  0  0  0  0  0  0  0  0  0  0
    8.4984   -2.3925    0.0000 C   0  0  0  0  0  0  0  0  0  0  0  0
    8.4984   -3.2175    0.0000 C   0  0  0  0  0  0  0  0  0  0  0  0
    7.7839   -3.6300    0.0000 C   0  0  0  0  0  0  0  0  0  0  0  0
  1  2  1  0  0  0  0
  2  3  2  0  0  0  0
  3  4  1  0  0  0  0
  4  5  2  0  0  0  0
  5  6  1  0  0  0  0
  6  7  2  0  0  0  0
  7  8  1  0  0  0  0
  8  9  2  0  0  0  0
  9 10  1  0  0  0  0
  1 10  2  0  0  0  0
  5 10  1  0  0  0  0
 11 12  1  0  0  0  0
 12 13  2  0  0  0  0
 13 14  1  0  0  0  0
 14 15  2  0  0  0  0
 15 16  1  0  0  0  0
 11 16  2  0  0  0  0
  2 11  1  0  0  0  0
M  END
>  <cdx:groupId>
52

>  <cdx:fragmentId>
5

$$$$
