21119328.cdx
  Mrv1902 05222410182D          

 19 21  0  0  0  0            999 V2000
    9.6232  -13.8374    0.0000 C   0  0  2  0  0  0  0  0  0  0  0  0
    9.6232  -13.0124    0.0000 C   0  0  1  0  0  0  0  0  0  0  0  0
    8.9782  -12.4980    0.0000 C   0  0  0  0  0  0  0  0  0  0  0  0
    8.1739  -12.6816    0.0000 C   0  0  0  0  0  0  0  0  0  0  0  0
    7.8159  -13.4249    0.0000 C   0  0  0  0  0  0  0  0  0  0  0  0
    8.1739  -14.1682    0.0000 C   0  0  0  0  0  0  0  0  0  0  0  0
    8.9782  -14.3517    0.0000 C   0  0  2  0  0  0  0  0  0  0  0  0
   10.0805  -13.7521    0.0000 C   0  0  2  0  0  0  0  0  0  0  0  0
   10.4078  -12.7574    0.0000 C   0  0  1  0  0  0  0  0  0  0  0  0
   10.8927  -13.4249    0.0000 C   0  0  0  0  0  0  0  0  0  0  0  0
   10.4078  -14.0923    0.0000 C   0  0  1  0  0  0  0  0  0  0  0  0
   10.7961  -14.1626    0.0000 O   0  0  0  0  0  0  0  0  0  0  0  0
   10.6627  -14.8769    0.0000 O   0  0  0  0  0  0  0  0  0  0  0  0
   10.6627  -11.9728    0.0000 C   0  0  0  0  0  0  0  0  0  0  0  0
    8.0509  -14.9839    0.0000 C   0  0  0  0  0  0  0  0  0  0  0  0
    7.4059  -14.4696    0.0000 C   0  0  0  0  0  0  0  0  0  0  0  0
    9.7705  -12.2006    0.0000 C   0  0  0  0  0  0  0  0  0  0  0  0
    8.8799  -13.4794    0.0000 H   0  0  0  0  0  0  0  0  0  0  0  0
    9.0908  -15.1690    0.0000 H   0  0  0  0  0  0  0  0  0  0  0  0
  1  2  1  0  0  0  0
  2  3  1  0  0  0  0
  3  4  1  0  0  0  0
  4  5  1  0  0  0  0
  5  6  1  0  0  0  0
  6  7  1  0  0  0  0
  7  8  1  0  0  0  0
  8  9  1  0  0  0  0
  9 10  1  0  0  0  0
 10 11  1  0  0  0  0
  1 11  1  0  0  0  0
  1  7  1  0  0  0  0
  2  9  1  0  0  0  0
  8 12  1  6  0  0  0
 11 13  1  1  0  0  0
  9 14  1  1  0  0  0
  6 15  1  0  0  0  0
  6 16  1  0  0  0  0
  2 17  1  6  0  0  0
  1 18  1  6  0  0  0
  7 19  1  6  0  0  0
M  END
>  <cdx:fragmentId>
53567

$$$$
