119301.cdx
  Mrv1902 05222410182D          

 28 29  0  0  0  0            999 V2000
    9.7582   -9.2029    0.0000 O   0  0  0  0  0  0  0  0  0  0  0  0
    8.3292  -10.0279    0.0000 O   0  0  0  0  0  0  0  0  0  0  0  0
    6.9003   -9.2029    0.0000 O   0  0  0  0  0  0  0  0  0  0  0  0
    6.1858   -6.3154    0.0000 O   0  0  0  0  0  0  0  0  0  0  0  0
    4.7569   -5.4904    0.0000 O   0  0  0  0  0  0  0  0  0  0  0  0
    3.3279   -6.3154    0.0000 O   0  0  0  0  0  0  0  0  0  0  0  0
    2.6135   -7.5529    0.0000 O   0  0  0  0  0  0  0  0  0  0  0  0
    3.3279   -7.9654    0.0000 C   0  0  0  0  0  0  0  0  0  0  0  0
    4.0424   -7.5529    0.0000 C   0  0  2  0  0  0  0  0  0  0  0  0
    4.0424   -6.7279    0.0000 C   0  0  2  0  0  0  0  0  0  0  0  0
    4.7569   -6.3154    0.0000 C   0  0  1  0  0  0  0  0  0  0  0  0
    5.4713   -6.7279    0.0000 C   0  0  2  0  0  0  0  0  0  0  0  0
    5.4713   -7.5529    0.0000 C   0  0  1  0  0  0  0  0  0  0  0  0
    4.7569   -7.9654    0.0000 O   0  0  0  0  0  0  0  0  0  0  0  0
    6.1858   -7.9654    0.0000 O   0  0  0  0  0  0  0  0  0  0  0  0
    6.9003   -7.5529    0.0000 C   0  0  0  0  0  0  0  0  0  0  0  0
    7.6148   -7.9654    0.0000 C   0  0  2  0  0  0  0  0  0  0  0  0
    7.6148   -8.7904    0.0000 C   0  0  2  0  0  0  0  0  0  0  0  0
    8.3292   -9.2029    0.0000 C   0  0  1  0  0  0  0  0  0  0  0  0
    9.0437   -8.7904    0.0000 C   0  0  2  0  0  0  0  0  0  0  0  0
    9.0437   -7.9654    0.0000 C   0  0  1  0  0  0  0  0  0  0  0  0
    8.3292   -7.5529    0.0000 O   0  0  0  0  0  0  0  0  0  0  0  0
    9.7582   -7.5529    0.0000 O   0  0  0  0  0  0  0  0  0  0  0  0
    9.7582   -6.7279    0.0000 C   0  0  0  0  0  0  0  0  0  0  0  0
    9.7582   -5.9029    0.0000 C   0  0  0  0  0  0  0  0  0  0  0  0
   10.5832   -6.7279    0.0000 C   0  0  0  0  0  0  0  0  0  0  0  0
    8.9332   -6.7279    0.0000 C   0  0  0  0  0  0  0  0  0  0  0  0
    9.7582   -5.0779    0.0000 N   0  0  0  0  0  0  0  0  0  0  0  0
 21 23  1  1  0  0  0
 20  1  1  6  0  0  0
 19  2  1  1  0  0  0
 18  3  1  6  0  0  0
 17 16  1  1  0  0  0
 16 15  1  0  0  0  0
 13 15  1  6  0  0  0
 12  4  1  1  0  0  0
 11  5  1  6  0  0  0
 10  6  1  1  0  0  0
  9  8  1  6  0  0  0
  8  7  1  0  0  0  0
 14  9  1  0  0  0  0
 10  9  1  0  0  0  0
 11 10  1  0  0  0  0
 12 11  1  0  0  0  0
 13 12  1  0  0  0  0
 14 13  1  0  0  0  0
 22 17  1  0  0  0  0
 18 17  1  0  0  0  0
 19 18  1  0  0  0  0
 20 19  1  0  0  0  0
 21 20  1  0  0  0  0
 22 21  1  0  0  0  0
 23 24  1  0  0  0  0
 24 25  1  0  0  0  0
 24 26  1  0  0  0  0
 24 27  1  0  0  0  0
 25 28  3  0  0  0  0
M  END
>  <cdx:fragmentId>
31

$$$$
