11931.cdx
  Mrv1902 05222410192D          

 14 15  0  0  0  0            999 V2000
    4.5812   -3.9394    0.0000 C   0  0  0  0  0  0  0  0  0  0  0  0
    5.2957   -3.5269    0.0000 C   0  0  0  0  0  0  0  0  0  0  0  0
    6.0102   -3.9394    0.0000 C   0  0  0  0  0  0  0  0  0  0  0  0
    6.0102   -4.7644    0.0000 C   0  0  0  0  0  0  0  0  0  0  0  0
    5.2957   -5.1769    0.0000 C   0  0  0  0  0  0  0  0  0  0  0  0
    4.5812   -4.7644    0.0000 C   0  0  0  0  0  0  0  0  0  0  0  0
    3.8668   -3.5269    0.0000 C   0  0  0  0  0  0  0  0  0  0  0  0
    3.1523   -3.9394    0.0000 C   0  0  0  0  0  0  0  0  0  0  0  0
    2.4378   -3.5269    0.0000 C   0  0  0  0  0  0  0  0  0  0  0  0
    2.4378   -2.7019    0.0000 C   0  0  0  0  0  0  0  0  0  0  0  0
    3.1523   -2.2894    0.0000 C   0  0  0  0  0  0  0  0  0  0  0  0
    3.8668   -2.7019    0.0000 C   0  0  0  0  0  0  0  0  0  0  0  0
    1.7234   -3.9394    0.0000 C   0  0  0  0  0  0  0  0  0  0  0  0
    6.7246   -3.5269    0.0000 C   0  0  0  0  0  0  0  0  0  0  0  0
  1  2  1  0  0  0  0
  2  3  2  0  0  0  0
  3  4  1  0  0  0  0
  4  5  2  0  0  0  0
  5  6  1  0  0  0  0
  1  6  2  0  0  0  0
  7  8  1  0  0  0  0
  8  9  2  0  0  0  0
  9 10  1  0  0  0  0
 10 11  2  0  0  0  0
 11 12  1  0  0  0  0
  7 12  2  0  0  0  0
  1  7  1  0  0  0  0
  9 13  1  0  0  0  0
  3 14  1  0  0  0  0
M  END
>  <cdx:groupId>
45

>  <cdx:fragmentId>
17

$$$$
