11932.cdx
  Mrv1902 05222410182D          

 35 38  0  0  0  0            999 V2000
    3.9974   -7.6781    0.0000 O   0  0  0  0  0  0  0  0  0  0  0  0
    4.7109   -8.0923    0.0000 C   0  0  0  0  0  0  0  0  0  0  0  0
    5.4263   -7.6815    0.0000 C   0  0  0  0  0  0  0  0  0  0  0  0
    4.7089   -8.9173    0.0000 C   0  0  0  0  0  0  0  0  0  0  0  0
    5.4224   -9.3315    0.0000 C   0  0  0  0  0  0  0  0  0  0  0  0
    6.1378   -8.9207    0.0000 C   0  0  0  0  0  0  0  0  0  0  0  0
    6.1398   -8.0957    0.0000 C   0  0  0  0  0  0  0  0  0  0  0  0
    6.8513   -9.3349    0.0000 C   0  0  0  0  0  0  0  0  0  0  0  0
    7.5668   -8.9241    0.0000 C   0  0  0  0  0  0  0  0  0  0  0  0
    7.5687   -8.0991    0.0000 C   0  0  0  0  0  0  0  0  0  0  0  0
    6.8553   -7.6849    0.0000 O   0  0  0  0  0  0  0  0  0  0  0  0
    8.2842   -7.6883    0.0000 C   0  0  0  0  0  0  0  0  0  0  0  0
    8.2862   -6.8633    0.0000 C   0  0  0  0  0  0  0  0  0  0  0  0
    8.9977   -8.1026    0.0000 C   0  0  0  0  0  0  0  0  0  0  0  0
    9.7131   -7.6918    0.0000 C   0  0  0  0  0  0  0  0  0  0  0  0
    9.7151   -6.8668    0.0000 C   0  0  0  0  0  0  0  0  0  0  0  0
    9.0016   -6.4526    0.0000 C   0  0  0  0  0  0  0  0  0  0  0  0
    6.8493  -10.1599    0.0000 O   0  0  0  0  0  0  0  0  0  0  0  0
    7.5628  -10.5741    0.0000 O   0  0  0  0  0  0  0  0  0  0  0  0
    8.2783  -10.1633    0.0000 C   0  0  1  0  0  0  0  0  0  0  0  0
    8.2802   -9.3383    0.0000 O   0  0  0  0  0  0  0  0  0  0  0  0
    7.5608  -11.3991    0.0000 C   0  0  1  0  0  0  0  0  0  0  0  0
    8.2743  -11.8133    0.0000 C   0  0  2  0  0  0  0  0  0  0  0  0
    8.9898  -11.4025    0.0000 C   0  0  1  0  0  0  0  0  0  0  0  0
    8.9917  -10.5775    0.0000 C   0  0  1  0  0  0  0  0  0  0  0  0
    6.8454  -11.8099    0.0000 C   0  0  0  0  0  0  0  0  0  0  0  0
    6.8434  -12.6349    0.0000 O   0  0  0  0  0  0  0  0  0  0  0  0
    8.2723  -12.6383    0.0000 O   0  0  0  0  0  0  0  0  0  0  0  0
    9.0036   -5.6276    0.0000 O   0  0  0  0  0  0  0  0  0  0  0  0
   10.4306   -6.4560    0.0000 O   0  0  0  0  0  0  0  0  0  0  0  0
    5.4204  -10.1565    0.0000 O   0  0  0  0  0  0  0  0  0  0  0  0
    9.7032  -11.8168    0.0000 O   0  0  0  0  0  0  0  0  0  0  0  0
    9.7072  -10.1668    0.0000 O   0  0  0  0  0  0  0  0  0  0  0  0
    8.2891   -5.2151    0.0000 C   0  0  0  0  0  0  0  0  0  0  0  0
    6.1309  -11.3974    0.0000 O   0  0  0  0  0  0  0  0  0  0  0  0
  1  2  1  0  0  0  0
  2  3  1  0  0  0  0
  2  4  2  0  0  0  0
  4  5  1  0  0  0  0
  5  6  2  0  0  0  0
  6  7  1  0  0  0  0
  7  3  2  0  0  0  0
  6  8  1  0  0  0  0
  8  9  1  0  0  0  0
  9 10  2  0  0  0  0
 10 11  1  0  0  0  0
 11  7  1  0  0  0  0
 10 12  1  0  0  0  0
 12 13  2  0  0  0  0
 12 14  1  0  0  0  0
 14 15  2  0  0  0  0
 15 16  1  0  0  0  0
 16 17  2  0  0  0  0
 17 13  1  0  0  0  0
  8 18  2  0  0  0  0
 19 20  1  0  0  0  0
 20 21  1  1  0  0  0
 21  9  1  0  0  0  0
 19 22  1  0  0  0  0
 22 23  1  0  0  0  0
 23 24  1  0  0  0  0
 24 25  1  0  0  0  0
 25 20  1  0  0  0  0
 22 26  1  1  0  0  0
 26 27  1  0  0  0  0
 23 28  1  6  0  0  0
 17 29  1  0  0  0  0
 16 30  1  0  0  0  0
  5 31  1  0  0  0  0
 24 32  1  1  0  0  0
 25 33  1  6  0  0  0
 29 34  1  0  0  0  0
 26 35  2  0  0  0  0
M  END
>  <cdx:fragmentId>
5

$$$$
