119454.cdx
  Mrv1902 05222410272D          

 39 45  0  0  0  0            999 V2000
    8.2935  -10.4707    0.0000 C   0  0  2  0  0  0  0  0  0  0  0  0
    9.0631  -10.1733    0.0000 C   0  0  2  0  0  0  0  0  0  0  0  0
    9.7352  -10.6517    0.0000 C   0  0  0  0  0  0  0  0  0  0  0  0
   10.3979  -10.1603    0.0000 C   0  0  0  0  0  0  0  0  0  0  0  0
   10.1353   -9.3782    0.0000 C   0  0  0  0  0  0  0  0  0  0  0  0
    9.3104   -9.3863    0.0000 C   0  0  1  0  0  0  0  0  0  0  0  0
    8.8492   -8.7022    0.0000 C   0  0  1  0  0  0  0  0  0  0  0  0
    8.0268   -8.6363    0.0000 C   0  0  1  0  0  0  0  0  0  0  0  0
    7.2235   -8.4485    0.0000 O   0  0  0  0  0  0  0  0  0  0  0  0
    7.4625   -9.2381    0.0000 C   0  0  1  0  0  0  0  0  0  0  0  0
    7.5812  -10.0545    0.0000 C   0  0  1  0  0  0  0  0  0  0  0  0
    6.8646  -10.4633    0.0000 C   0  0  1  0  0  0  0  0  0  0  0  0
    6.0813  -10.2042    0.0000 O   0  0  0  0  0  0  0  0  0  0  0  0
    5.5929  -10.8691    0.0000 C   0  0  2  0  0  0  0  0  0  0  0  0
    6.0744  -11.5391    0.0000 O   0  0  0  0  0  0  0  0  0  0  0  0
    6.8603  -11.2883    0.0000 C   0  0  1  0  0  0  0  0  0  0  0  0
    7.5726  -11.7045    0.0000 C   0  0  0  0  0  0  0  0  0  0  0  0
    8.2892  -11.2957    0.0000 C   0  0  1  0  0  0  0  0  0  0  0  0
    6.9300  -10.0650    0.0000 O   0  0  0  0  0  0  0  0  0  0  0  0
   10.6137   -8.7061    0.0000 O   0  0  0  0  0  0  0  0  0  0  0  0
    6.0144  -12.4399    0.0000 C   0  0  0  0  0  0  0  0  0  0  0  0
    6.7698  -12.1083    0.0000 C   0  0  0  0  0  0  0  0  0  0  0  0
    7.4347  -12.5967    0.0000 C   0  0  0  0  0  0  0  0  0  0  0  0
    4.7679  -10.8648    0.0000 C   0  0  0  0  0  0  0  0  0  0  0  0
    4.3517  -11.5771    0.0000 C   0  0  0  0  0  0  0  0  0  0  0  0
    3.5267  -11.5728    0.0000 C   0  0  0  0  0  0  0  0  0  0  0  0
    3.1180  -10.8562    0.0000 C   0  0  0  0  0  0  0  0  0  0  0  0
    3.5342  -10.1439    0.0000 C   0  0  0  0  0  0  0  0  0  0  0  0
    4.3592  -10.1482    0.0000 C   0  0  0  0  0  0  0  0  0  0  0  0
    9.0015  -11.7119    0.0000 C   0  0  0  0  0  0  0  0  0  0  0  0
   11.1849  -10.4076    0.0000 C   0  0  0  0  0  0  0  0  0  0  0  0
    8.1540   -7.8211    0.0000 C   0  0  0  0  0  0  0  0  0  0  0  0
    7.5117   -7.3034    0.0000 O   0  0  0  0  0  0  0  0  0  0  0  0
    9.2654   -7.9899    0.0000 O   0  0  0  0  0  0  0  0  0  0  0  0
    9.6942   -8.6560    0.0000 O   0  0  0  0  0  0  0  0  0  0  0  0
    8.9603  -10.9919    0.0000 H   0  0  0  0  0  0  0  0  0  0  0  0
    6.6375   -9.2381    0.0000 H   0  0  0  0  0  0  0  0  0  0  0  0
    6.9979   -9.4711    0.0000 H   0  0  0  0  0  0  0  0  0  0  0  0
    6.4521   -9.7488    0.0000 H   0  0  0  0  0  0  0  0  0  0  0  0
  1  2  1  0  0  0  0
  2  3  1  0  0  0  0
  3  4  2  0  0  0  0
  4  5  1  0  0  0  0
  5  6  1  0  0  0  0
  6  7  1  0  0  0  0
  7  8  1  0  0  0  0
  8  9  1  0  0  0  0
  9 10  1  0  0  0  0
 10 11  1  0  0  0  0
 11 12  1  0  0  0  0
 12 13  1  0  0  0  0
 13 14  1  0  0  0  0
 14 15  1  0  0  0  0
 15 16  1  0  0  0  0
 16 17  1  0  0  0  0
 17 18  1  0  0  0  0
  1 18  1  0  0  0  0
  1 19  1  6  0  0  0
 14 19  1  0  0  0  0
 12 16  1  0  0  0  0
  1 11  1  0  0  0  0
  8 10  1  0  0  0  0
  2  6  1  0  0  0  0
  5 20  2  0  0  0  0
 21 22  2  0  0  0  0
 22 23  1  0  0  0  0
 16 22  1  1  0  0  0
 24 25  1  0  0  0  0
 25 26  2  0  0  0  0
 26 27  1  0  0  0  0
 27 28  2  0  0  0  0
 28 29  1  0  0  0  0
 24 29  2  0  0  0  0
 14 24  1  6  0  0  0
 18 30  1  6  0  0  0
  4 31  1  0  0  0  0
 32 33  1  0  0  0  0
  8 32  1  1  0  0  0
  7 34  1  1  0  0  0
  6 35  1  1  0  0  0
  2 36  1  6  0  0  0
 10 37  1  1  0  0  0
 11 38  1  1  0  0  0
 12 39  1  1  0  0  0
M  END
>  <cdx:groupId>
992

>  <cdx:fragmentId>
872

$$$$
