119444.cdx
  Mrv1902 05222410262D          

 40 44  0  0  0  0            999 V2000
   11.2374   -7.2316    0.0000 O   0  0  0  0  0  0  0  0  0  0  0  0
   11.4089   -8.0386    0.0000 C   0  0  0  0  0  0  0  0  0  0  0  0
   10.6944   -8.4511    0.0000 C   0  0  2  0  0  0  0  0  0  0  0  0
   10.0813   -7.8991    0.0000 C   0  0  1  0  0  0  0  0  0  0  0  0
   10.4169   -7.1454    0.0000 C   0  0  1  0  0  0  0  0  0  0  0  0
   12.1626   -8.3742    0.0000 O   0  0  0  0  0  0  0  0  0  0  0  0
   10.0044   -6.4309    0.0000 C   0  0  0  0  0  0  0  0  0  0  0  0
   10.6082   -9.2716    0.0000 C   0  0  0  0  0  0  0  0  0  0  0  0
    9.2743   -8.0706    0.0000 C   0  0  0  0  0  0  0  0  0  0  0  0
    9.0194   -8.8552    0.0000 C   0  0  2  0  0  0  0  0  0  0  0  0
    8.2124   -9.0268    0.0000 C   0  0  1  0  0  0  0  0  0  0  0  0
    8.0409   -8.2198    0.0000 C   0  0  0  0  0  0  0  0  0  0  0  0
    4.3150  -10.8913    0.0000 C   0  0  0  0  0  0  0  0  0  0  0  0
    3.6005  -11.3038    0.0000 C   0  0  1  0  0  0  0  0  0  0  0  0
    3.6005  -12.1288    0.0000 C   0  0  1  0  0  0  0  0  0  0  0  0
    4.3150  -12.5413    0.0000 C   0  0  0  0  0  0  0  0  0  0  0  0
    5.0295  -12.1288    0.0000 C   0  0  1  0  0  0  0  0  0  0  0  0
    5.7439  -12.5413    0.0000 C   0  0  0  0  0  0  0  0  0  0  0  0
    6.4584  -12.1288    0.0000 C   0  0  0  0  0  0  0  0  0  0  0  0
    6.4584  -11.3038    0.0000 C   0  0  0  0  0  0  0  0  0  0  0  0
    7.1729  -10.8913    0.0000 C   0  0  2  0  0  0  0  0  0  0  0  0
    7.9575  -11.1463    0.0000 C   0  0  0  0  0  0  0  0  0  0  0  0
    8.4424  -10.4788    0.0000 C   0  0  0  0  0  0  0  0  0  0  0  0
    7.9575   -9.8114    0.0000 C   0  0  1  0  0  0  0  0  0  0  0  0
    7.1729  -10.0663    0.0000 C   0  0  1  0  0  0  0  0  0  0  0  0
    6.4584   -9.6538    0.0000 C   0  0  0  0  0  0  0  0  0  0  0  0
    5.7439  -10.0663    0.0000 C   0  0  0  0  0  0  0  0  0  0  0  0
    5.7439  -10.8913    0.0000 C   0  0  2  0  0  0  0  0  0  0  0  0
    5.0295  -11.3038    0.0000 C   0  0  1  0  0  0  0  0  0  0  0  0
    5.7439  -13.3663    0.0000 O   0  0  0  0  0  0  0  0  0  0  0  0
    7.1729   -9.2413    0.0000 C   0  0  0  0  0  0  0  0  0  0  0  0
    5.0295  -10.4788    0.0000 C   0  0  0  0  0  0  0  0  0  0  0  0
    7.1729  -11.7163    0.0000 O   0  0  0  0  0  0  0  0  0  0  0  0
    2.8860  -12.5413    0.0000 O   0  0  0  0  0  0  0  0  0  0  0  0
    2.8860  -10.8913    0.0000 O   0  0  0  0  0  0  0  0  0  0  0  0
    7.4278   -8.7718    0.0000 O   0  0  0  0  0  0  0  0  0  0  0  0
    9.5714   -9.4683    0.0000 O   0  0  0  0  0  0  0  0  0  0  0  0
    5.0295  -12.9538    0.0000 H   0  0  0  0  0  0  0  0  0  0  0  0
    5.7439  -11.7163    0.0000 H   0  0  0  0  0  0  0  0  0  0  0  0
    8.7421   -9.5564    0.0000 H   0  0  0  0  0  0  0  0  0  0  0  0
  1  2  1  0  0  0  0
  2  3  1  0  0  0  0
  3  4  1  0  0  0  0
  4  5  1  0  0  0  0
  1  5  1  0  0  0  0
  2  6  2  0  0  0  0
  5  7  1  1  0  0  0
  3  8  1  1  0  0  0
  9 10  1  0  0  0  0
 10 11  1  0  0  0  0
 11 12  1  6  0  0  0
 13 14  1  0  0  0  0
 14 15  1  0  0  0  0
 15 16  1  0  0  0  0
 16 17  1  0  0  0  0
 17 18  1  0  0  0  0
 18 19  1  0  0  0  0
 19 20  2  0  0  0  0
 20 21  1  0  0  0  0
 21 22  1  0  0  0  0
 22 23  1  0  0  0  0
 24 23  1  0  0  0  0
 24 25  1  0  0  0  0
 21 25  1  0  0  0  0
 25 26  1  0  0  0  0
 26 27  1  0  0  0  0
 27 28  1  0  0  0  0
 20 28  1  0  0  0  0
 28 29  1  0  0  0  0
 17 29  1  0  0  0  0
 13 29  1  0  0  0  0
 18 30  2  0  0  0  0
 25 31  1  1  0  0  0
 29 32  1  1  0  0  0
 21 33  1  6  0  0  0
 15 34  1  1  0  0  0
 14 35  1  1  0  0  0
 11 24  1  0  0  0  0
 11 36  1  1  0  0  0
 10 37  1  1  0  0  0
  4  9  1  6  0  0  0
 17 38  1  1  0  0  0
 28 39  1  6  0  0  0
 24 40  1  6  0  0  0
M  END
>  <cdx:fragmentId>
9047

$$$$
