11944.cdx
  Mrv1902 05222410202D          

 33 36  0  0  0  0            999 V2000
    5.3633   -6.1617    0.0000 O   0  0  0  0  0  0  0  0  0  0  0  0
    5.3613   -6.9867    0.0000 C   0  0  0  0  0  0  0  0  0  0  0  0
    6.0748   -7.4010    0.0000 C   0  0  0  0  0  0  0  0  0  0  0  0
    4.6459   -7.3975    0.0000 C   0  0  0  0  0  0  0  0  0  0  0  0
    4.6439   -8.2225    0.0000 C   0  0  0  0  0  0  0  0  0  0  0  0
    5.3574   -8.6367    0.0000 C   0  0  0  0  0  0  0  0  0  0  0  0
    6.0728   -8.2259    0.0000 C   0  0  0  0  0  0  0  0  0  0  0  0
    5.3554   -9.4617    0.0000 C   0  0  0  0  0  0  0  0  0  0  0  0
    6.0689   -9.8759    0.0000 C   0  0  0  0  0  0  0  0  0  0  0  0
    6.7843   -9.4652    0.0000 C   0  0  0  0  0  0  0  0  0  0  0  0
    6.7863   -8.6402    0.0000 O   0  0  0  0  0  0  0  0  0  0  0  0
    7.4978   -9.8794    0.0000 C   0  0  0  0  0  0  0  0  0  0  0  0
    8.2133   -9.4686    0.0000 C   0  0  0  0  0  0  0  0  0  0  0  0
    7.4959  -10.7044    0.0000 C   0  0  0  0  0  0  0  0  0  0  0  0
    8.2093  -11.1186    0.0000 C   0  0  0  0  0  0  0  0  0  0  0  0
    8.9248  -10.7078    0.0000 C   0  0  0  0  0  0  0  0  0  0  0  0
    8.9268   -9.8828    0.0000 C   0  0  0  0  0  0  0  0  0  0  0  0
    4.6400   -9.8725    0.0000 O   0  0  0  0  0  0  0  0  0  0  0  0
    6.0669  -10.7009    0.0000 O   0  0  0  0  0  0  0  0  0  0  0  0
    9.6422   -9.4720    0.0000 O   0  0  0  0  0  0  0  0  0  0  0  0
    9.6383  -11.1220    0.0000 O   0  0  0  0  0  0  0  0  0  0  0  0
    3.9284   -8.6333    0.0000 O   0  0  0  0  0  0  0  0  0  0  0  0
    9.6422   -8.6470    0.0000 C   0  0  0  0  0  0  0  0  0  0  0  0
    3.9456   -4.4960    0.0000 C   0  0  1  0  0  0  0  0  0  0  0  0
    3.2270   -4.9013    0.0000 C   0  0  1  0  0  0  0  0  0  0  0  0
    3.2186   -5.7262    0.0000 C   0  0  2  0  0  0  0  0  0  0  0  0
    3.9289   -6.1459    0.0000 C   0  0  2  0  0  0  0  0  0  0  0  0
    4.6475   -5.7407    0.0000 C   0  0  1  0  0  0  0  0  0  0  0  0
    4.6559   -4.9157    0.0000 O   0  0  0  0  0  0  0  0  0  0  0  0
    2.5167   -4.4815    0.0000 O   0  0  0  0  0  0  0  0  0  0  0  0
    3.9540   -3.6711    0.0000 C   0  0  0  0  0  0  0  0  0  0  0  0
    3.9205   -6.9709    0.0000 O   0  0  0  0  0  0  0  0  0  0  0  0
    2.5000   -6.1314    0.0000 O   0  0  0  0  0  0  0  0  0  0  0  0
  1  2  1  0  0  0  0
  2  3  1  0  0  0  0
  2  4  2  0  0  0  0
  4  5  1  0  0  0  0
  5  6  2  0  0  0  0
  6  7  1  0  0  0  0
  7  3  2  0  0  0  0
  6  8  1  0  0  0  0
  8  9  1  0  0  0  0
  9 10  2  0  0  0  0
 10 11  1  0  0  0  0
 11  7  1  0  0  0  0
 10 12  1  0  0  0  0
 12 13  2  0  0  0  0
 12 14  1  0  0  0  0
 14 15  2  0  0  0  0
 15 16  1  0  0  0  0
 16 17  2  0  0  0  0
 17 13  1  0  0  0  0
  8 18  2  0  0  0  0
 19  9  1  0  0  0  0
 17 20  1  0  0  0  0
 16 21  1  0  0  0  0
  5 22  1  0  0  0  0
 20 23  1  0  0  0  0
 24 25  1  0  0  0  0
 25 26  1  0  0  0  0
 26 27  1  0  0  0  0
 27 28  1  0  0  0  0
 28 29  1  0  0  0  0
 29 24  1  0  0  0  0
 25 30  1  1  0  0  0
 24 31  1  6  0  0  0
 27 32  1  6  0  0  0
 26 33  1  6  0  0  0
 28  1  1  1  0  0  0
M  END
>  <cdx:fragmentId>
5

$$$$
