1194.cdx
  Mrv1902 05222410202D          

 41 47  0  0  0  0            999 V2000
    2.9114   -8.3737    0.0000 C   0  0  2  0  0  0  0  0  0  0  0  0
    2.9114   -9.1987    0.0000 C   0  0  2  0  0  0  0  0  0  0  0  0
    3.6259   -9.6112    0.0000 C   0  0  1  0  0  0  0  0  0  0  0  0
    4.3403   -9.1987    0.0000 C   0  0  2  0  0  0  0  0  0  0  0  0
    4.3403   -8.3737    0.0000 C   0  0  1  0  0  0  0  0  0  0  0  0
    3.6259   -7.9612    0.0000 O   0  0  0  0  0  0  0  0  0  0  0  0
    5.0548   -7.9612    0.0000 O   0  0  0  0  0  0  0  0  0  0  0  0
    5.0548   -7.1362    0.0000 C   0  0  0  0  0  0  0  0  0  0  0  0
    4.3403   -6.7237    0.0000 C   0  0  0  0  0  0  0  0  0  0  0  0
    5.7693   -6.7237    0.0000 C   0  0  0  0  0  0  0  0  0  0  0  0
    5.7693   -5.8988    0.0000 C   0  0  0  0  0  0  0  0  0  0  0  0
    5.0548   -5.4863    0.0000 C   0  0  0  0  0  0  0  0  0  0  0  0
    4.3403   -5.8988    0.0000 C   0  0  0  0  0  0  0  0  0  0  0  0
    4.8833   -4.6793    0.0000 O   0  0  0  0  0  0  0  0  0  0  0  0
    4.0628   -4.5930    0.0000 C   0  0  0  0  0  0  0  0  0  0  0  0
    3.7273   -5.3467    0.0000 O   0  0  0  0  0  0  0  0  0  0  0  0
    2.1969   -7.9612    0.0000 C   0  0  0  0  0  0  0  0  0  0  0  0
    1.4825   -8.3737    0.0000 O   0  0  0  0  0  0  0  0  0  0  0  0
    6.4838   -7.1362    0.0000 C   0  0  1  0  0  0  0  0  0  0  0  0
    6.5700   -7.9567    0.0000 O   0  0  0  0  0  0  0  0  0  0  0  0
    7.3770   -8.1283    0.0000 C   0  0  0  0  0  0  0  0  0  0  0  0
    7.7895   -7.4138    0.0000 C   0  0  1  0  0  0  0  0  0  0  0  0
    7.2374   -6.8007    0.0000 C   0  0  2  0  0  0  0  0  0  0  0  0
    8.5431   -7.0782    0.0000 C   0  0  2  0  0  0  0  0  0  0  0  0
    8.4569   -6.2577    0.0000 O   0  0  0  0  0  0  0  0  0  0  0  0
    7.6499   -6.0862    0.0000 C   0  0  0  0  0  0  0  0  0  0  0  0
    9.2576   -7.4907    0.0000 C   0  0  0  0  0  0  0  0  0  0  0  0
    9.2576   -8.3157    0.0000 C   0  0  0  0  0  0  0  0  0  0  0  0
    9.9721   -8.7282    0.0000 C   0  0  0  0  0  0  0  0  0  0  0  0
   10.6866   -8.3157    0.0000 C   0  0  0  0  0  0  0  0  0  0  0  0
   10.6866   -7.4907    0.0000 C   0  0  0  0  0  0  0  0  0  0  0  0
    9.9721   -7.0782    0.0000 C   0  0  0  0  0  0  0  0  0  0  0  0
   11.4712   -8.5707    0.0000 O   0  0  0  0  0  0  0  0  0  0  0  0
   11.9561   -7.9032    0.0000 C   0  0  0  0  0  0  0  0  0  0  0  0
   11.4712   -7.2358    0.0000 O   0  0  0  0  0  0  0  0  0  0  0  0
    2.1969   -9.6112    0.0000 O   0  0  0  0  0  0  0  0  0  0  0  0
    5.0548   -9.6112    0.0000 O   0  0  0  0  0  0  0  0  0  0  0  0
    6.6541   -6.2173    0.0000 H   0  0  0  0  0  0  0  0  0  0  0  0
    8.3728   -7.9971    0.0000 H   0  0  0  0  0  0  0  0  0  0  0  0
    5.7693   -7.5488    0.0000 H   0  0  0  0  0  0  0  0  0  0  0  0
    3.6259  -10.4363    0.0000 O   0  0  0  0  0  0  0  0  0  0  0  0
  1  2  1  0  0  0  0
  2  3  1  0  0  0  0
  3  4  1  0  0  0  0
  4  5  1  0  0  0  0
  5  6  1  0  0  0  0
  6  1  1  0  0  0  0
  5  7  1  1  0  0  0
  7  8  1  0  0  0  0
  8  9  2  0  0  0  0
  8 10  1  0  0  0  0
 10 11  2  0  0  0  0
 11 12  1  0  0  0  0
 12 13  2  0  0  0  0
 13  9  1  0  0  0  0
 12 14  1  0  0  0  0
 14 15  1  0  0  0  0
 15 16  1  0  0  0  0
 16 13  1  0  0  0  0
  1 17  1  1  0  0  0
 17 18  1  0  0  0  0
 10 19  1  0  0  0  0
 19 20  1  0  0  0  0
 20 21  1  0  0  0  0
 21 22  1  0  0  0  0
 22 23  1  0  0  0  0
 23 19  1  0  0  0  0
 22 24  1  0  0  0  0
 24 25  1  0  0  0  0
 25 26  1  0  0  0  0
 26 23  1  0  0  0  0
 24 27  1  6  0  0  0
 27 28  2  0  0  0  0
 28 29  1  0  0  0  0
 29 30  2  0  0  0  0
 30 31  1  0  0  0  0
 31 32  2  0  0  0  0
 32 27  1  0  0  0  0
 30 33  1  0  0  0  0
 33 34  1  0  0  0  0
 34 35  1  0  0  0  0
 35 31  1  0  0  0  0
  2 36  1  6  0  0  0
  4 37  1  6  0  0  0
 23 38  1  6  0  0  0
 22 39  1  6  0  0  0
 19 40  1  1  0  0  0
  3 41  1  1  0  0  0
M  END
>  <cdx:fragmentId>
5

$$$$
