119404.cdx
  Mrv1902 05222410212D          

 20 22  0  0  0  0            999 V2000
    9.1929   -7.3595    0.0000 C   0  0  1  0  0  0  0  0  0  0  0  0
    8.4788   -7.7723    0.0000 C   0  0  0  0  0  0  0  0  0  0  0  0
    9.1923   -6.5340    0.0000 N   0  0  0  0  0  0  0  0  0  0  0  0
    8.4895   -8.5602    0.0000 O   0  0  0  0  0  0  0  0  0  0  0  0
    7.7638   -7.3597    0.0000 N   0  0  0  0  0  0  0  0  0  0  0  0
    8.4773   -6.1214    0.0000 C   0  0  0  0  0  0  0  0  0  0  0  0
    7.7631   -6.5342    0.0000 C   0  0  2  0  0  0  0  0  0  0  0  0
    8.4905   -5.3198    0.0000 O   0  0  0  0  0  0  0  0  0  0  0  0
    7.1371   -6.1656    0.0000 C   0  0  0  0  0  0  0  0  0  0  0  0
    9.9899   -7.5726    0.0000 C   0  0  0  0  0  0  0  0  0  0  0  0
   10.4389   -6.8805    0.0000 C   0  0  0  0  0  0  0  0  0  0  0  0
    9.9194   -6.2396    0.0000 C   0  0  0  0  0  0  0  0  0  0  0  0
    6.4228   -6.5784    0.0000 C   0  0  0  0  0  0  0  0  0  0  0  0
    5.7082   -6.1663    0.0000 C   0  0  0  0  0  0  0  0  0  0  0  0
    4.9939   -6.5792    0.0000 C   0  0  0  0  0  0  0  0  0  0  0  0
    4.9943   -7.4041    0.0000 C   0  0  0  0  0  0  0  0  0  0  0  0
    5.7090   -7.8163    0.0000 C   0  0  0  0  0  0  0  0  0  0  0  0
    6.4233   -7.4035    0.0000 C   0  0  0  0  0  0  0  0  0  0  0  0
    4.2801   -7.8170    0.0000 O   0  0  0  0  0  0  0  0  0  0  0  0
    9.2238   -8.1839    0.0000 H   0  0  0  0  0  0  0  0  0  0  0  0
  1  2  1  0  0  0  0
  1  3  1  0  0  0  0
  2  4  2  0  0  0  0
  2  5  1  0  0  0  0
  3  6  1  0  0  0  0
  7  5  1  0  0  0  0
  6  7  1  0  0  0  0
  6  8  2  0  0  0  0
  7  9  1  1  0  0  0
  1 10  1  0  0  0  0
 10 11  1  0  0  0  0
 11 12  1  0  0  0  0
 12  3  1  0  0  0  0
  9 13  1  0  0  0  0
 13 14  2  0  0  0  0
 14 15  1  0  0  0  0
 15 16  2  0  0  0  0
 16 17  1  0  0  0  0
 17 18  2  0  0  0  0
 18 13  1  0  0  0  0
 16 19  1  0  0  0  0
  1 20  1  6  0  0  0
M  END
>  <cdx:fragmentId>
823

$$$$
