119533.cdx
  Mrv1902 05222410262D          

 29 30  0  0  0  0            999 V2000
   19.8137  -18.4570    0.0000 C   0  0  0  0  0  0  0  0  0  0  0  0
   19.0992  -18.0445    0.0000 C   0  0  1  0  0  0  0  0  0  0  0  0
   19.0992  -17.2195    0.0000 C   0  0  0  0  0  0  0  0  0  0  0  0
   19.8137  -16.8070    0.0000 C   0  0  0  0  0  0  0  0  0  0  0  0
   20.5282  -18.8695    0.0000 N   0  0  0  0  0  0  0  0  0  0  0  0
   18.3848  -18.4570    0.0000 O   0  0  0  0  0  0  0  0  0  0  0  0
   16.9558  -18.4570    0.0000 O   0  0  0  0  0  0  0  0  0  0  0  0
   17.6703  -18.0445    0.0000 C   0  0  2  0  0  0  0  0  0  0  0  0
   17.6703  -17.2195    0.0000 C   0  0  1  0  0  0  0  0  0  0  0  0
   16.9558  -16.8070    0.0000 C   0  0  2  0  0  0  0  0  0  0  0  0
   16.2414  -17.2195    0.0000 C   0  0  1  0  0  0  0  0  0  0  0  0
   16.2414  -18.0445    0.0000 C   0  0  1  0  0  0  0  0  0  0  0  0
   15.5269  -18.4570    0.0000 C   0  0  0  0  0  0  0  0  0  0  0  0
   14.8124  -18.0445    0.0000 O   0  0  0  0  0  0  0  0  0  0  0  0
   13.3835  -18.0445    0.0000 O   0  0  0  0  0  0  0  0  0  0  0  0
   14.0979  -18.4570    0.0000 C   0  0  2  0  0  0  0  0  0  0  0  0
   14.0979  -19.2820    0.0000 C   0  0  1  0  0  0  0  0  0  0  0  0
   13.3835  -19.6945    0.0000 C   0  0  2  0  0  0  0  0  0  0  0  0
   12.6690  -19.2820    0.0000 C   0  0  1  0  0  0  0  0  0  0  0  0
   12.6690  -18.4570    0.0000 C   0  0  1  0  0  0  0  0  0  0  0  0
   11.9545  -18.0445    0.0000 C   0  0  0  0  0  0  0  0  0  0  0  0
   11.2401  -18.4570    0.0000 O   0  0  0  0  0  0  0  0  0  0  0  0
   11.9545  -19.6945    0.0000 O   0  0  0  0  0  0  0  0  0  0  0  0
   13.3835  -20.5195    0.0000 O   0  0  0  0  0  0  0  0  0  0  0  0
   14.8124  -19.6945    0.0000 O   0  0  0  0  0  0  0  0  0  0  0  0
   15.5269  -16.8070    0.0000 O   0  0  0  0  0  0  0  0  0  0  0  0
   16.9558  -15.9820    0.0000 O   0  0  0  0  0  0  0  0  0  0  0  0
   18.3848  -16.8070    0.0000 O   0  0  0  0  0  0  0  0  0  0  0  0
   19.0992  -18.8695    0.0000 C   0  0  0  0  0  0  0  0  0  0  0  0
  1  2  1  0  0  0  0
  2  3  1  0  0  0  0
  3  4  1  0  0  0  0
  1  5  3  0  0  0  0
  7  8  1  0  0  0  0
  8  9  1  0  0  0  0
  9 10  1  0  0  0  0
 10 11  1  0  0  0  0
 11 12  1  0  0  0  0
  7 12  1  0  0  0  0
 15 16  1  0  0  0  0
 16 17  1  0  0  0  0
 17 18  1  0  0  0  0
 18 19  1  0  0  0  0
 19 20  1  0  0  0  0
 15 20  1  0  0  0  0
 21 22  1  0  0  0  0
 20 21  1  1  0  0  0
 19 23  1  6  0  0  0
 18 24  1  1  0  0  0
 17 25  1  6  0  0  0
 16 14  1  1  0  0  0
 13 14  1  0  0  0  0
 12 13  1  6  0  0  0
 11 26  1  1  0  0  0
 10 27  1  6  0  0  0
  9 28  1  1  0  0  0
  8  6  1  6  0  0  0
  2  6  1  0  0  0  0
  2 29  1  1  0  0  0
M  END
>  <cdx:groupId>
1089

>  <cdx:fragmentId>
1032

$$$$
