119847.cdx
  Mrv1902 05222410202D          

 11 10  0  0  0  0            999 V2000
    5.6388  -11.0269    0.0000 C   0  0  0  0  0  0  0  0  0  0  0  0
    5.6388  -10.2019    0.0000 C   0  0  0  0  0  0  0  0  0  0  0  0
    6.3533   -9.7894    0.0000 C   0  0  0  0  0  0  0  0  0  0  0  0
    7.0678  -10.2019    0.0000 C   0  0  0  0  0  0  0  0  0  0  0  0
    7.7822   -9.7894    0.0000 C   0  0  0  0  0  0  0  0  0  0  0  0
    8.4967  -10.2019    0.0000 C   0  0  0  0  0  0  0  0  0  0  0  0
    9.2112   -9.7894    0.0000 C   0  0  0  0  0  0  0  0  0  0  0  0
    9.9256  -10.2019    0.0000 C   0  0  0  0  0  0  0  0  0  0  0  0
    6.3533   -8.9644    0.0000 O   0  0  0  0  0  0  0  0  0  0  0  0
    8.4967  -11.0269    0.0000 C   0  0  0  0  0  0  0  0  0  0  0  0
    4.9244   -9.7894    0.0000 C   0  0  0  0  0  0  0  0  0  0  0  0
  1  2  2  0  0  0  0
  2  3  1  0  0  0  0
  3  4  1  0  0  0  0
  4  5  1  0  0  0  0
  5  6  2  0  0  0  0
  6  7  1  0  0  0  0
  7  8  2  0  0  0  0
  3  9  1  0  0  0  0
  6 10  1  0  0  0  0
  2 11  1  0  0  0  0
M  END
>  <cdx:groupId>
10837

>  <cdx:fragmentId>
10808

$$$$
