119815.cdx
  Mrv1902 05222410232D          

 24 27  0  0  0  0            999 V2000
    8.0851   -5.8980    0.0000 O   0  0  0  0  0  0  0  0  0  0  0  0
    9.5140   -3.4230    0.0000 O   0  0  0  0  0  0  0  0  0  0  0  0
    8.7996   -4.6605    0.0000 C   0  0  0  0  0  0  0  0  0  0  0  0
    8.7996   -3.8355    0.0000 C   0  0  0  0  0  0  0  0  0  0  0  0
    8.0851   -3.4230    0.0000 C   0  0  0  0  0  0  0  0  0  0  0  0
    7.3706   -3.8355    0.0000 C   0  0  0  0  0  0  0  0  0  0  0  0
    8.0851   -5.0730    0.0000 C   0  0  0  0  0  0  0  0  0  0  0  0
    7.3706   -4.6605    0.0000 C   0  0  0  0  0  0  0  0  0  0  0  0
    5.9417   -6.3105    0.0000 C   0  0  0  0  0  0  0  0  0  0  0  0
    6.6562   -5.8980    0.0000 C   0  0  0  0  0  0  0  0  0  0  0  0
    6.6562   -5.0730    0.0000 C   0  0  0  0  0  0  0  0  0  0  0  0
    5.9417   -4.6605    0.0000 C   0  0  0  0  0  0  0  0  0  0  0  0
    5.2272   -5.8980    0.0000 C   0  0  0  0  0  0  0  0  0  0  0  0
    5.2272   -5.0730    0.0000 O   0  0  0  0  0  0  0  0  0  0  0  0
    4.5127   -6.3105    0.0000 C   0  0  0  0  0  0  0  0  0  0  0  0
    4.5127   -7.1355    0.0000 C   0  0  0  0  0  0  0  0  0  0  0  0
    5.2272   -7.5480    0.0000 C   0  0  0  0  0  0  0  0  0  0  0  0
    5.9417   -7.1355    0.0000 C   0  0  0  0  0  0  0  0  0  0  0  0
    3.7983   -5.8980    0.0000 C   0  0  0  0  0  0  0  0  0  0  0  0
    3.0838   -6.3105    0.0000 C   0  0  0  0  0  0  0  0  0  0  0  0
    3.0838   -7.1355    0.0000 C   0  0  0  0  0  0  0  0  0  0  0  0
    3.7983   -7.5480    0.0000 O   0  0  0  0  0  0  0  0  0  0  0  0
    2.2588   -7.1355    0.0000 C   0  0  0  0  0  0  0  0  0  0  0  0
    2.6713   -7.8500    0.0000 C   0  0  0  0  0  0  0  0  0  0  0  0
  7  1  1  0  0  0  0
  4  2  1  0  0  0  0
  3  7  1  0  0  0  0
  4  3  2  0  0  0  0
  5  4  1  0  0  0  0
  6  5  2  0  0  0  0
  8  6  1  0  0  0  0
  8  7  2  0  0  0  0
 11  8  1  0  0  0  0
  9 13  2  0  0  0  0
 10  9  1  0  0  0  0
 11 10  2  0  0  0  0
 12 11  1  0  0  0  0
 14 12  1  0  0  0  0
 14 13  1  0  0  0  0
 13 15  1  0  0  0  0
 15 16  2  0  0  0  0
 16 17  1  0  0  0  0
 17 18  2  0  0  0  0
 18  9  1  0  0  0  0
 15 19  1  0  0  0  0
 19 20  2  0  0  0  0
 20 21  1  0  0  0  0
 21 22  1  0  0  0  0
 22 16  1  0  0  0  0
 21 23  1  0  0  0  0
 21 24  1  0  0  0  0
M  END
>  <cdx:fragmentId>
5

$$$$
