119852.cdx
  Mrv1902 05222410202D          

 14 15  0  0  0  0            999 V2000
   13.2019   -9.5210    0.0000 C   0  0  0  0  0  0  0  0  0  0  0  0
   12.4875   -9.9335    0.0000 C   0  0  0  0  0  0  0  0  0  0  0  0
   13.2019   -8.6960    0.0000 O   0  0  0  0  0  0  0  0  0  0  0  0
   13.9164   -9.9335    0.0000 O   0  0  0  0  0  0  0  0  0  0  0  0
   14.6309   -9.5210    0.0000 C   0  0  0  0  0  0  0  0  0  0  0  0
   15.3453   -9.9335    0.0000 C   0  0  0  0  0  0  0  0  0  0  0  0
   15.3453  -10.7585    0.0000 C   0  0  0  0  0  0  0  0  0  0  0  0
   16.0598  -11.1710    0.0000 C   0  0  0  0  0  0  0  0  0  0  0  0
   16.7743  -10.7585    0.0000 C   0  0  0  0  0  0  0  0  0  0  0  0
   16.2424  -10.2404    0.0000 C   0  0  0  0  0  0  0  0  0  0  0  0
   16.7743   -9.9335    0.0000 C   0  0  0  0  0  0  0  0  0  0  0  0
   17.1868   -9.2191    0.0000 C   0  0  0  0  0  0  0  0  0  0  0  0
   17.5993   -9.9335    0.0000 C   0  0  0  0  0  0  0  0  0  0  0  0
   16.0598   -9.5210    0.0000 C   0  0  0  0  0  0  0  0  0  0  0  0
  1  2  1  0  0  0  0
  1  3  2  0  0  0  0
  1  4  1  0  0  0  0
  5  6  1  0  0  0  0
  6  7  1  0  0  0  0
  7  8  1  0  0  0  0
  8  9  1  0  0  0  0
  9 10  1  0  0  0  0
  9 11  1  0  0  0  0
 11 12  1  0  0  0  0
 11 13  1  0  0  0  0
 11 14  1  0  0  0  0
 10 14  1  0  0  0  0
  6 14  1  0  0  0  0
  4  5  1  0  0  0  0
M  END
>  <cdx:groupId>
1139

>  <cdx:fragmentId>
1107

$$$$
