1198.cdx
  Mrv1902 05222410252D          

 13 12  0  0  0  0            999 V2000
    6.7105   -6.8964    0.0000 C   0  0  0  0  0  0  0  0  0  0  0  0
    7.4250   -6.4839    0.0000 C   0  0  0  0  0  0  0  0  0  0  0  0
    8.1395   -6.8964    0.0000 C   0  0  0  0  0  0  0  0  0  0  0  0
    5.9961   -6.4839    0.0000 C   0  0  0  0  0  0  0  0  0  0  0  0
    5.9961   -5.6589    0.0000 O   0  0  0  0  0  0  0  0  0  0  0  0
    5.2816   -6.8964    0.0000 O   0  0  0  0  0  0  0  0  0  0  0  0
    7.4250   -5.6589    0.0000 C   0  0  0  0  0  0  0  0  0  0  0  0
    6.7105   -5.2464    0.0000 O   0  0  0  0  0  0  0  0  0  0  0  0
    8.1395   -5.2464    0.0000 O   0  0  0  0  0  0  0  0  0  0  0  0
    8.8539   -6.4839    0.0000 C   0  0  0  0  0  0  0  0  0  0  0  0
    8.8539   -5.6589    0.0000 O   0  0  0  0  0  0  0  0  0  0  0  0
    9.5684   -6.8964    0.0000 O   0  0  0  0  0  0  0  0  0  0  0  0
    6.7105   -7.7214    0.0000 O   0  0  0  0  0  0  0  0  0  0  0  0
  1  2  1  0  0  0  0
  2  3  1  0  0  0  0
  4  5  2  0  0  0  0
  4  6  1  0  0  0  0
  1  4  1  0  0  0  0
  7  8  2  0  0  0  0
  7  9  1  0  0  0  0
  2  7  1  0  0  0  0
 10 11  2  0  0  0  0
 10 12  1  0  0  0  0
  3 10  1  0  0  0  0
  1 13  1  0  0  0  0
M  END
>  <cdx:groupId>
40

>  <cdx:fragmentId>
11

$$$$
