119908.cdx
  Mrv1902 05222410192D          

 17 16  0  0  0  0            999 V2000
    1.9702   -8.9771    0.0000 C   0  0  0  0  0  0  0  0  0  0  0  0
    2.6847   -8.5646    0.0000 C   0  0  0  0  0  0  0  0  0  0  0  0
    3.3992   -8.9771    0.0000 O   0  0  0  0  0  0  0  0  0  0  0  0
    4.1136   -7.7396    0.0000 O   0  0  0  0  0  0  0  0  0  0  0  0
   12.6873   -8.5646    0.0000 C   0  0  0  0  0  0  0  0  0  0  0  0
   11.9728   -8.9771    0.0000 C   0  0  0  0  0  0  0  0  0  0  0  0
   11.2583   -8.5646    0.0000 C   0  0  0  0  0  0  0  0  0  0  0  0
   10.5439   -8.9771    0.0000 C   0  0  0  0  0  0  0  0  0  0  0  0
    9.8294   -8.5646    0.0000 C   0  0  0  0  0  0  0  0  0  0  0  0
    9.1149   -8.9771    0.0000 C   0  0  0  0  0  0  0  0  0  0  0  0
    8.4005   -8.5646    0.0000 C   0  0  0  0  0  0  0  0  0  0  0  0
    7.6860   -8.9771    0.0000 C   0  0  0  0  0  0  0  0  0  0  0  0
    6.9715   -8.5646    0.0000 C   0  0  0  0  0  0  0  0  0  0  0  0
    6.2570   -8.9771    0.0000 C   0  0  0  0  0  0  0  0  0  0  0  0
    5.5426   -8.5646    0.0000 C   0  0  0  0  0  0  0  0  0  0  0  0
    4.8281   -8.9771    0.0000 C   0  0  0  0  0  0  0  0  0  0  0  0
    4.1136   -8.5646    0.0000 C   0  0  0  0  0  0  0  0  0  0  0  0
  3  2  1  0  0  0  0
  2  1  1  0  0  0  0
 17  3  1  0  0  0  0
 17  4  2  0  0  0  0
  6  5  1  0  0  0  0
  7  6  1  0  0  0  0
  8  7  1  0  0  0  0
  9  8  1  0  0  0  0
 10  9  1  0  0  0  0
 11 10  1  0  0  0  0
 12 11  1  0  0  0  0
 13 12  1  0  0  0  0
 14 13  1  0  0  0  0
 15 14  1  0  0  0  0
 16 15  1  0  0  0  0
 17 16  1  0  0  0  0
M  END
>  <cdx:groupId>
1195

>  <cdx:fragmentId>
1148

$$$$
