isorhamnetin-3-O-ﾥ￢-gentiobioside.cdx
  Mrv1902 05222410212D          

 45 49  0  0  0  0            999 V2000
    4.2933   -6.7237    0.0000 C   0  0  0  0  0  0  0  0  0  0  0  0
    4.2933   -7.5488    0.0000 C   0  0  0  0  0  0  0  0  0  0  0  0
    5.0077   -7.9612    0.0000 C   0  0  0  0  0  0  0  0  0  0  0  0
    5.7222   -7.5488    0.0000 C   0  0  0  0  0  0  0  0  0  0  0  0
    5.7222   -6.7237    0.0000 C   0  0  0  0  0  0  0  0  0  0  0  0
    5.0077   -6.3113    0.0000 C   0  0  0  0  0  0  0  0  0  0  0  0
    6.4367   -7.9612    0.0000 C   0  0  0  0  0  0  0  0  0  0  0  0
    7.1512   -7.5488    0.0000 C   0  0  0  0  0  0  0  0  0  0  0  0
    7.1512   -6.7237    0.0000 C   0  0  0  0  0  0  0  0  0  0  0  0
    6.4367   -6.3113    0.0000 O   0  0  0  0  0  0  0  0  0  0  0  0
    7.8656   -6.3113    0.0000 C   0  0  0  0  0  0  0  0  0  0  0  0
    8.5801   -6.7237    0.0000 C   0  0  0  0  0  0  0  0  0  0  0  0
    9.2946   -6.3113    0.0000 C   0  0  0  0  0  0  0  0  0  0  0  0
    9.2946   -5.4862    0.0000 C   0  0  0  0  0  0  0  0  0  0  0  0
    8.5801   -5.0737    0.0000 C   0  0  0  0  0  0  0  0  0  0  0  0
    7.8656   -5.4862    0.0000 C   0  0  0  0  0  0  0  0  0  0  0  0
   10.0090   -5.0737    0.0000 O   0  0  0  0  0  0  0  0  0  0  0  0
   10.0090   -6.7237    0.0000 O   0  0  0  0  0  0  0  0  0  0  0  0
   10.7235   -6.3113    0.0000 C   0  0  0  0  0  0  0  0  0  0  0  0
    3.5788   -6.3113    0.0000 O   0  0  0  0  0  0  0  0  0  0  0  0
    5.0077   -8.7862    0.0000 O   0  0  0  0  0  0  0  0  0  0  0  0
    6.4367   -8.7862    0.0000 O   0  0  0  0  0  0  0  0  0  0  0  0
    7.8656   -7.9612    0.0000 O   0  0  0  0  0  0  0  0  0  0  0  0
    5.9050  -11.1625    0.0000 C   0  0  0  0  0  0  0  0  0  0  0  0
    6.5036  -11.7301    0.0000 C   0  0  0  0  0  0  0  0  0  0  0  0
    7.2093  -11.3027    0.0000 C   0  0  0  0  0  0  0  0  0  0  0  0
    8.0292  -11.2775    0.0000 C   0  0  0  0  0  0  0  0  0  0  0  0
    7.4306  -10.7099    0.0000 O   0  0  0  0  0  0  0  0  0  0  0  0
    6.7249  -11.1373    0.0000 C   0  0  0  0  0  0  0  0  0  0  0  0
    7.7927  -11.8860    0.0000 O   0  0  0  0  0  0  0  0  0  0  0  0
    5.1905  -11.5750    0.0000 O   0  0  0  0  0  0  0  0  0  0  0  0
    5.6786  -11.7301    0.0000 O   0  0  0  0  0  0  0  0  0  0  0  0
    5.8940  -10.3683    0.0000 C   0  0  0  0  0  0  0  0  0  0  0  0
    5.2415  -10.6231    0.0000 O   0  0  0  0  0  0  0  0  0  0  0  0
    2.1993  -11.5180    0.0000 C   0  0  0  0  0  0  0  0  0  0  0  0
    2.8897  -11.9697    0.0000 C   0  0  0  0  0  0  0  0  0  0  0  0
    3.5077  -11.4231    0.0000 C   0  0  0  0  0  0  0  0  0  0  0  0
    4.3100  -11.2520    0.0000 C   0  0  0  0  0  0  0  0  0  0  0  0
    3.6196  -10.8003    0.0000 O   0  0  0  0  0  0  0  0  0  0  0  0
    3.0015  -11.3468    0.0000 C   0  0  0  0  0  0  0  0  0  0  0  0
    2.4182  -10.7635    0.0000 C   0  0  0  0  0  0  0  0  0  0  0  0
    3.1326  -10.3510    0.0000 O   0  0  0  0  0  0  0  0  0  0  0  0
    4.2221  -11.8356    0.0000 O   0  0  0  0  0  0  0  0  0  0  0  0
    1.6159  -12.1014    0.0000 O   0  0  0  0  0  0  0  0  0  0  0  0
    2.0928  -12.1832    0.0000 O   0  0  0  0  0  0  0  0  0  0  0  0
  1  2  1  0  0  0  0
  2  3  2  0  0  0  0
  3  4  1  0  0  0  0
  4  5  2  0  0  0  0
  5  6  1  0  0  0  0
  6  1  2  0  0  0  0
  4  7  1  0  0  0  0
  7  8  1  0  0  0  0
  8  9  2  0  0  0  0
  9 10  1  0  0  0  0
 10  5  1  0  0  0  0
  9 11  1  0  0  0  0
 11 12  2  0  0  0  0
 12 13  1  0  0  0  0
 13 14  2  0  0  0  0
 14 15  1  0  0  0  0
 15 16  2  0  0  0  0
 16 11  1  0  0  0  0
 14 17  1  0  0  0  0
 13 18  1  0  0  0  0
 18 19  1  0  0  0  0
  1 20  1  0  0  0  0
  3 21  1  0  0  0  0
  7 22  2  0  0  0  0
  8 23  1  1  0  0  0
 24 25  1  0  0  0  0
 25 26  1  0  0  0  0
 26 27  1  0  0  0  0
 27 28  1  0  0  0  0
 28 29  1  0  0  0  0
 29 24  1  0  0  0  0
 26 30  1  0  0  0  0
 24 31  1  0  0  0  0
 25 32  1  0  0  0  0
 29 33  1  0  0  0  0
 33 34  1  0  0  0  0
 35 36  1  0  0  0  0
 36 37  1  0  0  0  0
 37 38  1  0  0  0  0
 38 39  1  0  0  0  0
 39 40  1  0  0  0  0
 40 35  1  0  0  0  0
 38 34  1  0  0  0  0
 40 41  1  0  0  0  0
 41 42  1  0  0  0  0
 37 43  1  0  0  0  0
 35 44  1  0  0  0  0
 36 45  1  0  0  0  0
 23 27  1  0  0  0  0
M  END
>  <cdx:fragmentId>
5

$$$$
