1199.cdx
  Mrv1902 05222410262D          

 23 24  0  0  0  0            999 V2000
    6.7655   -5.1425    0.0000 C   0  0  0  0  0  0  0  0  0  0  0  0
    6.7655   -5.9675    0.0000 C   0  0  0  0  0  0  0  0  0  0  0  0
    7.4800   -6.3800    0.0000 C   0  0  0  0  0  0  0  0  0  0  0  0
    8.1944   -5.9675    0.0000 C   0  0  0  0  0  0  0  0  0  0  0  0
    8.1944   -5.1425    0.0000 C   0  0  0  0  0  0  0  0  0  0  0  0
    7.4800   -4.7300    0.0000 C   0  0  0  0  0  0  0  0  0  0  0  0
    7.4800   -3.9050    0.0000 O   0  0  0  0  0  0  0  0  0  0  0  0
    6.0511   -4.7300    0.0000 O   0  0  0  0  0  0  0  0  0  0  0  0
    8.9089   -4.7300    0.0000 O   0  0  0  0  0  0  0  0  0  0  0  0
    9.6233   -5.1425    0.0000 C   0  0  0  0  0  0  0  0  0  0  0  0
    5.3366   -5.1425    0.0000 C   0  0  0  0  0  0  0  0  0  0  0  0
    7.4800   -7.2050    0.0000 O   0  0  0  0  0  0  0  0  0  0  0  0
    6.7655   -7.6175    0.0000 C   0  0  2  0  0  0  0  0  0  0  0  0
    6.0511   -7.2050    0.0000 O   0  0  0  0  0  0  0  0  0  0  0  0
    5.3366   -7.6175    0.0000 C   0  0  1  0  0  0  0  0  0  0  0  0
    5.3366   -8.4425    0.0000 C   0  0  2  0  0  0  0  0  0  0  0  0
    6.0511   -8.8550    0.0000 C   0  0  1  0  0  0  0  0  0  0  0  0
    6.7655   -8.4425    0.0000 C   0  0  1  0  0  0  0  0  0  0  0  0
    4.6222   -7.2050    0.0000 C   0  0  0  0  0  0  0  0  0  0  0  0
    6.0511   -9.6800    0.0000 O   0  0  0  0  0  0  0  0  0  0  0  0
    7.4800   -8.8550    0.0000 O   0  0  0  0  0  0  0  0  0  0  0  0
    4.6222   -8.8550    0.0000 O   0  0  0  0  0  0  0  0  0  0  0  0
    3.9077   -7.6175    0.0000 O   0  0  0  0  0  0  0  0  0  0  0  0
  1  2  2  0  0  0  0
  2  3  1  0  0  0  0
  3  4  2  0  0  0  0
  4  5  1  0  0  0  0
  5  6  2  0  0  0  0
  6  1  1  0  0  0  0
  6  7  1  0  0  0  0
  1  8  1  0  0  0  0
  5  9  1  0  0  0  0
  9 10  1  0  0  0  0
  8 11  1  0  0  0  0
  3 12  1  0  0  0  0
 13 12  1  1  0  0  0
 13 14  1  0  0  0  0
 14 15  1  0  0  0  0
 15 16  1  0  0  0  0
 16 17  1  0  0  0  0
 17 18  1  0  0  0  0
 18 13  1  0  0  0  0
 15 19  1  1  0  0  0
 17 20  1  1  0  0  0
 18 21  1  6  0  0  0
 16 22  1  6  0  0  0
 19 23  1  0  0  0  0
M  END
>  <cdx:fragmentId>
61

$$$$
