120.cdx
  Mrv1902 05222410272D          

 17 18  0  0  0  0            999 V2000
    4.2900   -5.6081    0.0000 O   0  0  0  0  0  0  0  0  0  0  0  0
    5.0008   -6.0268    0.0000 C   0  0  0  0  0  0  0  0  0  0  0  0
    5.7189   -5.6205    0.0000 C   0  0  0  0  0  0  0  0  0  0  0  0
    6.4297   -6.0392    0.0000 C   0  0  0  0  0  0  0  0  0  0  0  0
    7.1477   -5.6329    0.0000 C   0  0  0  0  0  0  0  0  0  0  0  0
    7.8586   -6.0516    0.0000 C   0  0  0  0  0  0  0  0  0  0  0  0
    8.5766   -5.6454    0.0000 C   0  0  0  0  0  0  0  0  0  0  0  0
    8.5838   -4.8204    0.0000 C   0  0  0  0  0  0  0  0  0  0  0  0
    9.3018   -4.4141    0.0000 C   0  0  0  0  0  0  0  0  0  0  0  0
   10.0127   -4.8328    0.0000 C   0  0  0  0  0  0  0  0  0  0  0  0
   10.7307   -4.4265    0.0000 O   0  0  0  0  0  0  0  0  0  0  0  0
   10.0055   -5.6578    0.0000 C   0  0  0  0  0  0  0  0  0  0  0  0
    9.2875   -6.0641    0.0000 C   0  0  0  0  0  0  0  0  0  0  0  0
    6.4226   -6.8642    0.0000 C   0  0  0  0  0  0  0  0  0  0  0  0
    5.7045   -7.2705    0.0000 C   0  0  0  0  0  0  0  0  0  0  0  0
    5.6974   -8.0954    0.0000 O   0  0  0  0  0  0  0  0  0  0  0  0
    4.9937   -6.8518    0.0000 C   0  0  0  0  0  0  0  0  0  0  0  0
  1  2  1  0  0  0  0
  2  3  1  0  0  0  0
  3  4  2  0  0  0  0
  4  5  1  0  0  0  0
  5  6  2  0  0  0  0
  6  7  1  0  0  0  0
  7  8  1  0  0  0  0
  8  9  2  0  0  0  0
  9 10  1  0  0  0  0
 10 11  1  0  0  0  0
 10 12  2  0  0  0  0
 12 13  1  0  0  0  0
  7 13  2  0  0  0  0
  4 14  1  0  0  0  0
 14 15  2  0  0  0  0
 15 16  1  0  0  0  0
 15 17  1  0  0  0  0
  2 17  2  0  0  0  0
M  END
>  <cdx:fragmentId>
5

$$$$
