120047.cdx
  Mrv1902 05222410222D          

 11 11  0  0  0  0            999 V2000
   14.0579   -9.8456    0.0000 C   0  0  0  0  0  0  0  0  0  0  0  0
   14.7724  -10.2581    0.0000 C   0  0  0  0  0  0  0  0  0  0  0  0
   15.4868   -9.8456    0.0000 C   0  0  0  0  0  0  0  0  0  0  0  0
   16.2013  -10.2581    0.0000 C   0  0  0  0  0  0  0  0  0  0  0  0
   16.2013  -11.0831    0.0000 C   0  0  0  0  0  0  0  0  0  0  0  0
   15.4868  -11.4956    0.0000 C   0  0  0  0  0  0  0  0  0  0  0  0
   14.7724  -11.0831    0.0000 C   0  0  0  0  0  0  0  0  0  0  0  0
   13.3434  -10.2581    0.0000 O   0  0  0  0  0  0  0  0  0  0  0  0
   16.9158  -11.4956    0.0000 C   0  0  0  0  0  0  0  0  0  0  0  0
   17.6303  -11.0831    0.0000 C   0  0  0  0  0  0  0  0  0  0  0  0
   18.3447  -11.4956    0.0000 C   0  0  0  0  0  0  0  0  0  0  0  0
  1  2  1  0  0  0  0
  2  3  1  0  0  0  0
  3  4  2  0  0  0  0
  4  5  1  0  0  0  0
  5  6  2  0  0  0  0
  6  7  1  0  0  0  0
  2  7  2  0  0  0  0
  1  8  2  0  0  0  0
  9 10  1  0  0  0  0
 10 11  1  0  0  0  0
  5  9  1  0  0  0  0
M  END
>  <cdx:groupId>
1234

>  <cdx:fragmentId>
1204

$$$$
