1201.cdx
  Mrv1902 05222410232D          

 17 18  0  0  0  0            999 V2000
    6.7288   -6.5347    0.0000 C   0  0  0  0  0  0  0  0  0  0  0  0
    6.0151   -6.9484    0.0000 C   0  0  0  0  0  0  0  0  0  0  0  0
    6.0164   -7.7734    0.0000 C   0  0  0  0  0  0  0  0  0  0  0  0
    5.3027   -8.1871    0.0000 C   0  0  0  0  0  0  0  0  0  0  0  0
    4.5875   -7.7758    0.0000 C   0  0  0  0  0  0  0  0  0  0  0  0
    3.8737   -8.1895    0.0000 O   0  0  0  0  0  0  0  0  0  0  0  0
    4.5861   -6.9508    0.0000 C   0  0  0  0  0  0  0  0  0  0  0  0
    5.2999   -6.5371    0.0000 C   0  0  0  0  0  0  0  0  0  0  0  0
    7.4481   -9.4210    0.0000 C   0  0  0  0  0  0  0  0  0  0  0  0
    6.0192   -9.4234    0.0000 O   0  0  0  0  0  0  0  0  0  0  0  0
    6.7330   -9.0097    0.0000 C   0  0  0  0  0  0  0  0  0  0  0  0
    6.7316   -8.1847    0.0000 C   0  0  0  0  0  0  0  0  0  0  0  0
    7.4440   -6.9460    0.0000 C   0  0  0  0  0  0  0  0  0  0  0  0
    7.4454   -7.7710    0.0000 C   0  0  0  0  0  0  0  0  0  0  0  0
    8.1605   -8.1823    0.0000 C   0  0  0  0  0  0  0  0  0  0  0  0
    8.1619   -9.0073    0.0000 C   0  0  0  0  0  0  0  0  0  0  0  0
    8.8771   -9.4186    0.0000 O   0  0  0  0  0  0  0  0  0  0  0  0
 16  9  2  0  0  0  0
 11  9  1  0  0  0  0
 11 10  1  0  0  0  0
 12 11  2  0  0  0  0
 14 12  1  0  0  0  0
 13  1  2  0  0  0  0
 14 13  1  0  0  0  0
 15 14  2  0  0  0  0
 16 15  1  0  0  0  0
 17 16  1  0  0  0  0
  1  2  1  0  0  0  0
  2  3  1  0  0  0  0
  3  4  2  0  0  0  0
  4  5  1  0  0  0  0
  5  6  1  0  0  0  0
  5  7  2  0  0  0  0
  7  8  1  0  0  0  0
  2  8  2  0  0  0  0
M  END
>  <cdx:fragmentId>
5

$$$$
