12013.cdx
  Mrv1902 05222410282D          

 33 34  0  0  0  0            999 V2000
    9.4050   -5.8575    0.0000 C   0  0  0  0  0  0  0  0  0  0  0  0
   10.1195   -5.4450    0.0000 C   0  0  0  0  0  0  0  0  0  0  0  0
   10.8339   -5.8575    0.0000 C   0  0  0  0  0  0  0  0  0  0  0  0
   11.5484   -5.4450    0.0000 C   0  0  0  0  0  0  0  0  0  0  0  0
   12.2629   -5.8575    0.0000 C   0  0  0  0  0  0  0  0  0  0  0  0
   12.9774   -5.4450    0.0000 C   0  0  0  0  0  0  0  0  0  0  0  0
   13.6918   -5.8575    0.0000 O   0  0  0  0  0  0  0  0  0  0  0  0
   12.9774   -4.6200    0.0000 C   0  0  0  0  0  0  0  0  0  0  0  0
   10.1195   -4.6200    0.0000 C   0  0  0  0  0  0  0  0  0  0  0  0
    8.6905   -5.4450    0.0000 O   0  0  0  0  0  0  0  0  0  0  0  0
    9.4050   -6.6825    0.0000 O   0  0  0  0  0  0  0  0  0  0  0  0
    7.9761   -5.8575    0.0000 C   0  0  2  0  0  0  0  0  0  0  0  0
    7.2616   -5.4450    0.0000 O   0  0  0  0  0  0  0  0  0  0  0  0
    6.5471   -5.8575    0.0000 C   0  0  1  0  0  0  0  0  0  0  0  0
    6.5471   -6.6825    0.0000 C   0  0  2  0  0  0  0  0  0  0  0  0
    7.2616   -7.0950    0.0000 C   0  0  1  0  0  0  0  0  0  0  0  0
    7.9761   -6.6825    0.0000 C   0  0  1  0  0  0  0  0  0  0  0  0
    5.8326   -5.4450    0.0000 C   0  0  0  0  0  0  0  0  0  0  0  0
    7.2616   -7.9200    0.0000 O   0  0  0  0  0  0  0  0  0  0  0  0
    8.6905   -7.0950    0.0000 O   0  0  0  0  0  0  0  0  0  0  0  0
    5.8326   -7.0950    0.0000 O   0  0  0  0  0  0  0  0  0  0  0  0
    5.1182   -5.8575    0.0000 O   0  0  0  0  0  0  0  0  0  0  0  0
    4.4037   -5.4450    0.0000 C   0  0  2  0  0  0  0  0  0  0  0  0
    4.4037   -4.6200    0.0000 O   0  0  0  0  0  0  0  0  0  0  0  0
    3.6892   -4.2075    0.0000 C   0  0  1  0  0  0  0  0  0  0  0  0
    2.9748   -4.6200    0.0000 C   0  0  2  0  0  0  0  0  0  0  0  0
    2.9748   -5.4450    0.0000 C   0  0  1  0  0  0  0  0  0  0  0  0
    3.6892   -5.8575    0.0000 C   0  0  1  0  0  0  0  0  0  0  0  0
    3.6892   -3.3825    0.0000 C   0  0  0  0  0  0  0  0  0  0  0  0
    2.2603   -5.8575    0.0000 O   0  0  0  0  0  0  0  0  0  0  0  0
    3.6892   -6.6825    0.0000 O   0  0  0  0  0  0  0  0  0  0  0  0
    2.2603   -4.2075    0.0000 O   0  0  0  0  0  0  0  0  0  0  0  0
    2.9748   -2.9700    0.0000 O   0  0  0  0  0  0  0  0  0  0  0  0
  1  2  1  0  0  0  0
  2  3  2  0  0  0  0
  3  4  1  0  0  0  0
  4  5  2  0  0  0  0
  5  6  1  0  0  0  0
  6  7  2  0  0  0  0
  6  8  1  0  0  0  0
  2  9  1  0  0  0  0
  1 10  1  0  0  0  0
  1 11  2  0  0  0  0
 12 10  1  1  0  0  0
 12 13  1  0  0  0  0
 13 14  1  0  0  0  0
 14 15  1  0  0  0  0
 15 16  1  0  0  0  0
 16 17  1  0  0  0  0
 17 12  1  0  0  0  0
 14 18  1  1  0  0  0
 16 19  1  1  0  0  0
 17 20  1  6  0  0  0
 15 21  1  6  0  0  0
 18 22  1  0  0  0  0
 23 22  1  1  0  0  0
 23 24  1  0  0  0  0
 24 25  1  0  0  0  0
 25 26  1  0  0  0  0
 26 27  1  0  0  0  0
 27 28  1  0  0  0  0
 28 23  1  0  0  0  0
 25 29  1  1  0  0  0
 27 30  1  1  0  0  0
 28 31  1  6  0  0  0
 26 32  1  6  0  0  0
 29 33  1  0  0  0  0
M  END
>  <cdx:fragmentId>
39

$$$$
