12012.cdx
  Mrv1902 05222410282D          

  8  8  0  0  0  0            999 V2000
    7.0512   -4.3859    0.0000 O   0  0  0  0  0  0  0  0  0  0  0  0
    7.7252   -4.8616    0.0000 C   0  0  0  0  0  0  0  0  0  0  0  0
    7.4812   -5.6497    0.0000 C   0  0  0  0  0  0  0  0  0  0  0  0
    6.6562   -5.6611    0.0000 C   0  0  0  0  0  0  0  0  0  0  0  0
    6.3905   -4.8800    0.0000 C   0  0  0  0  0  0  0  0  0  0  0  0
    8.5063   -4.5958    0.0000 O   0  0  0  0  0  0  0  0  0  0  0  0
    5.6024   -4.6360    0.0000 O   0  0  0  0  0  0  0  0  0  0  0  0
    7.9753   -6.3103    0.0000 C   0  0  0  0  0  0  0  0  0  0  0  0
  1  2  1  0  0  0  0
  2  3  1  0  0  0  0
  3  4  2  0  0  0  0
  4  5  1  0  0  0  0
  1  5  1  0  0  0  0
  2  6  2  0  0  0  0
  5  7  2  0  0  0  0
  3  8  1  0  0  0  0
M  END
>  <cdx:fragmentId>
5

$$$$
