120183.cdx
  Mrv1902 05222410192D          

 81 89  0  0  0  0            999 V2000
   10.0847  -11.7635    0.0000 C   0  0  2  0  0  0  0  0  0  0  0  0
   10.7991  -12.1760    0.0000 O   0  0  0  0  0  0  0  0  0  0  0  0
   12.2281  -10.5260    0.0000 C   0  0  0  0  0  0  0  0  0  0  0  0
   11.5136  -10.9385    0.0000 C   0  0  0  0  0  0  0  0  0  0  0  0
   11.5136  -11.7635    0.0000 C   0  0  1  0  0  0  0  0  0  0  0  0
   12.2281  -12.1760    0.0000 C   0  0  0  0  0  0  0  0  0  0  0  0
   12.9426  -11.7635    0.0000 C   0  0  2  0  0  0  0  0  0  0  0  0
   13.6570  -12.1760    0.0000 C   0  0  0  0  0  0  0  0  0  0  0  0
   14.3715  -11.7635    0.0000 C   0  0  0  0  0  0  0  0  0  0  0  0
   14.3715  -10.9385    0.0000 C   0  0  1  0  0  0  0  0  0  0  0  0
   15.0860  -10.5260    0.0000 C   0  0  2  0  0  0  0  0  0  0  0  0
   15.8004  -10.9385    0.0000 C   0  0  0  0  0  0  0  0  0  0  0  0
   16.5149  -10.5260    0.0000 C   0  0  0  0  0  0  0  0  0  0  0  0
   16.5149   -9.7010    0.0000 C   0  0  1  0  0  0  0  0  0  0  0  0
   17.2294   -9.2885    0.0000 C   0  0  0  0  0  0  0  0  0  0  0  0
   17.2294   -8.4635    0.0000 C   0  0  0  0  0  0  0  0  0  0  0  0
   16.5149   -8.0510    0.0000 C   0  0  0  0  0  0  0  0  0  0  0  0
   15.8004   -8.4635    0.0000 C   0  0  0  0  0  0  0  0  0  0  0  0
   15.8004   -9.2885    0.0000 C   0  0  1  0  0  0  0  0  0  0  0  0
   15.0860   -9.7010    0.0000 C   0  0  0  0  0  0  0  0  0  0  0  0
   14.3715   -9.2885    0.0000 C   0  0  0  0  0  0  0  0  0  0  0  0
   13.6570   -9.7010    0.0000 C   0  0  0  0  0  0  0  0  0  0  0  0
   13.6570  -10.5260    0.0000 C   0  0  2  0  0  0  0  0  0  0  0  0
   12.9426  -10.9385    0.0000 C   0  0  1  0  0  0  0  0  0  0  0  0
   17.2294  -10.1135    0.0000 C   0  0  0  0  0  0  0  0  0  0  0  0
   17.2294  -10.9385    0.0000 O   0  0  0  0  0  0  0  0  0  0  0  0
   17.9439   -9.7010    0.0000 O   0  0  0  0  0  0  0  0  0  0  0  0
   12.9426  -10.1135    0.0000 C   0  0  0  0  0  0  0  0  0  0  0  0
   16.1024   -7.3365    0.0000 C   0  0  0  0  0  0  0  0  0  0  0  0
   16.9274   -7.3365    0.0000 C   0  0  0  0  0  0  0  0  0  0  0  0
   15.0860  -11.3510    0.0000 C   0  0  0  0  0  0  0  0  0  0  0  0
   14.3715  -10.1135    0.0000 C   0  0  0  0  0  0  0  0  0  0  0  0
   12.6406  -12.8905    0.0000 C   0  0  0  0  0  0  0  0  0  0  0  0
   11.8156  -12.8905    0.0000 C   0  0  0  0  0  0  0  0  0  0  0  0
   12.9426  -12.5885    0.0000 H   0  0  0  0  0  0  0  0  0  0  0  0
   15.8004  -10.1135    0.0000 H   0  0  0  0  0  0  0  0  0  0  0  0
   13.6570  -11.3510    0.0000 H   0  0  0  0  0  0  0  0  0  0  0  0
   17.9439  -11.3510    0.0000 C   0  0  2  0  0  0  0  0  0  0  0  0
   17.9439  -12.1760    0.0000 O   0  0  0  0  0  0  0  0  0  0  0  0
   18.6583  -12.5885    0.0000 C   0  0  1  0  0  0  0  0  0  0  0  0
   19.3728  -12.1760    0.0000 C   0  0  2  0  0  0  0  0  0  0  0  0
   19.3728  -11.3510    0.0000 C   0  0  1  0  0  0  0  0  0  0  0  0
   18.6583  -10.9385    0.0000 C   0  0  1  0  0  0  0  0  0  0  0  0
   18.6583  -13.4135    0.0000 C   0  0  0  0  0  0  0  0  0  0  0  0
   20.0873  -10.9385    0.0000 O   0  0  0  0  0  0  0  0  0  0  0  0
   18.6583  -10.1135    0.0000 O   0  0  0  0  0  0  0  0  0  0  0  0
   20.0873  -12.5885    0.0000 O   0  0  0  0  0  0  0  0  0  0  0  0
   19.3728  -13.8260    0.0000 O   0  0  0  0  0  0  0  0  0  0  0  0
   10.0847  -10.9385    0.0000 O   0  0  0  0  0  0  0  0  0  0  0  0
    9.3702  -10.5260    0.0000 C   0  0  1  0  0  0  0  0  0  0  0  0
    8.6557  -10.9385    0.0000 C   0  0  2  0  0  0  0  0  0  0  0  0
    8.6557  -11.7635    0.0000 C   0  0  1  0  0  0  0  0  0  0  0  0
    9.3702  -12.1760    0.0000 C   0  0  1  0  0  0  0  0  0  0  0  0
    9.3702  -13.0010    0.0000 O   0  0  0  0  0  0  0  0  0  0  0  0
    9.3702   -9.7010    0.0000 C   0  0  0  0  0  0  0  0  0  0  0  0
    7.9413  -12.1760    0.0000 O   0  0  0  0  0  0  0  0  0  0  0  0
    7.9413  -10.5260    0.0000 O   0  0  0  0  0  0  0  0  0  0  0  0
    8.6557   -9.2885    0.0000 O   0  0  0  0  0  0  0  0  0  0  0  0
   10.0847   -9.2885    0.0000 O   0  0  0  0  0  0  0  0  0  0  0  0
    7.1168  -10.5555    0.0000 C   0  0  2  0  0  0  0  0  0  0  0  0
    6.6790   -9.8562    0.0000 O   0  0  0  0  0  0  0  0  0  0  0  0
    5.8545   -9.8858    0.0000 C   0  0  1  0  0  0  0  0  0  0  0  0
    5.4678  -10.6145    0.0000 C   0  0  2  0  0  0  0  0  0  0  0  0
    5.9056  -11.3138    0.0000 C   0  0  1  0  0  0  0  0  0  0  0  0
    6.7301  -11.2843    0.0000 C   0  0  1  0  0  0  0  0  0  0  0  0
    5.4167   -9.1865    0.0000 C   0  0  0  0  0  0  0  0  0  0  0  0
    5.5189  -12.0425    0.0000 O   0  0  0  0  0  0  0  0  0  0  0  0
    4.5923   -9.2160    0.0000 O   0  0  0  0  0  0  0  0  0  0  0  0
    4.6434  -10.6440    0.0000 O   0  0  0  0  0  0  0  0  0  0  0  0
    7.1679  -11.9835    0.0000 O   0  0  0  0  0  0  0  0  0  0  0  0
   19.3728  -14.6510    0.0000 C   0  0  2  0  0  0  0  0  0  0  0  0
   18.6583  -15.0635    0.0000 O   0  0  0  0  0  0  0  0  0  0  0  0
   18.6583  -15.8885    0.0000 C   0  0  1  0  0  0  0  0  0  0  0  0
   19.3728  -16.3010    0.0000 C   0  0  2  0  0  0  0  0  0  0  0  0
   20.0873  -15.8885    0.0000 C   0  0  1  0  0  0  0  0  0  0  0  0
   20.0873  -15.0635    0.0000 C   0  0  1  0  0  0  0  0  0  0  0  0
   17.9439  -16.3010    0.0000 C   0  0  0  0  0  0  0  0  0  0  0  0
   20.8017  -16.3010    0.0000 O   0  0  0  0  0  0  0  0  0  0  0  0
   20.8017  -14.6510    0.0000 O   0  0  0  0  0  0  0  0  0  0  0  0
   19.3728  -17.1260    0.0000 O   0  0  0  0  0  0  0  0  0  0  0  0
   17.9439  -17.1260    0.0000 O   0  0  0  0  0  0  0  0  0  0  0  0
  3  4  1  0  0  0  0
  4  5  1  0  0  0  0
  5  6  1  0  0  0  0
  6  7  1  0  0  0  0
  7  8  1  0  0  0  0
  8  9  1  0  0  0  0
  9 10  1  0  0  0  0
 10 11  1  0  0  0  0
 11 12  1  0  0  0  0
 12 13  1  0  0  0  0
 13 14  1  0  0  0  0
 14 15  1  0  0  0  0
 15 16  1  0  0  0  0
 16 17  1  0  0  0  0
 17 18  1  0  0  0  0
 18 19  1  0  0  0  0
 14 19  1  0  0  0  0
 19 20  1  0  0  0  0
 11 20  1  0  0  0  0
 20 21  2  0  0  0  0
 21 22  1  0  0  0  0
 22 23  1  0  0  0  0
 10 23  1  0  0  0  0
 23 24  1  0  0  0  0
  7 24  1  0  0  0  0
  3 24  1  0  0  0  0
 25 26  1  0  0  0  0
 25 27  2  0  0  0  0
 14 25  1  1  0  0  0
 24 28  1  1  0  0  0
 17 29  1  0  0  0  0
 17 30  1  0  0  0  0
 11 31  1  6  0  0  0
 10 32  1  1  0  0  0
  6 33  1  0  0  0  0
  6 34  1  0  0  0  0
  5  2  1  1  0  0  0
  1  2  1  1  0  0  0
  7 35  1  6  0  0  0
 19 36  1  1  0  0  0
 23 37  1  6  0  0  0
 38 26  1  1  0  0  0
 38 39  1  0  0  0  0
 39 40  1  0  0  0  0
 40 41  1  0  0  0  0
 41 42  1  0  0  0  0
 42 43  1  0  0  0  0
 43 38  1  0  0  0  0
 40 44  1  1  0  0  0
 42 45  1  1  0  0  0
 43 46  1  6  0  0  0
 41 47  1  6  0  0  0
 44 48  1  0  0  0  0
  1 49  1  0  0  0  0
 49 50  1  0  0  0  0
 50 51  1  0  0  0  0
 51 52  1  0  0  0  0
 52 53  1  0  0  0  0
 53  1  1  0  0  0  0
 53 54  1  6  0  0  0
 50 55  1  1  0  0  0
 52 56  1  1  0  0  0
 51 57  1  6  0  0  0
 55 58  1  0  0  0  0
 55 59  2  0  0  0  0
 60 57  1  1  0  0  0
 60 61  1  0  0  0  0
 61 62  1  0  0  0  0
 62 63  1  0  0  0  0
 63 64  1  0  0  0  0
 64 65  1  0  0  0  0
 65 60  1  0  0  0  0
 62 66  1  1  0  0  0
 64 67  1  1  0  0  0
 66 68  1  0  0  0  0
 63 69  1  6  0  0  0
 65 70  1  6  0  0  0
 71 48  1  1  0  0  0
 71 72  1  0  0  0  0
 72 73  1  0  0  0  0
 73 74  1  0  0  0  0
 74 75  1  0  0  0  0
 75 76  1  0  0  0  0
 76 71  1  0  0  0  0
 73 77  1  1  0  0  0
 75 78  1  1  0  0  0
 76 79  1  6  0  0  0
 74 80  1  6  0  0  0
 77 81  1  0  0  0  0
M  END
>  <cdx:fragmentId>
19825

$$$$
