12025.cdx
  Mrv1902 05222410192D          

  6  6  0  0  0  0            999 V2000
    4.3636   -1.9885    0.0000 N   0  0  0  0  0  0  0  0  0  0  0  0
    5.0311   -2.4734    0.0000 C   0  0  0  0  0  0  0  0  0  0  0  0
    4.7761   -3.2580    0.0000 C   0  0  0  0  0  0  0  0  0  0  0  0
    3.9511   -3.2580    0.0000 C   0  0  0  0  0  0  0  0  0  0  0  0
    3.6962   -2.4734    0.0000 C   0  0  0  0  0  0  0  0  0  0  0  0
    5.8157   -2.2185    0.0000 O   0  0  0  0  0  0  0  0  0  0  0  0
  1  2  1  0  0  0  0
  2  3  1  0  0  0  0
  3  4  1  0  0  0  0
  4  5  1  0  0  0  0
  1  5  1  0  0  0  0
  2  6  2  0  0  0  0
M  END
>  <cdx:groupId>
20

>  <cdx:fragmentId>
5

$$$$
