12024.cdx
  Mrv1902 05222410192D          

 31 34  0  0  0  0            999 V2000
    7.9439   -7.0537    0.0000 C   0  0  0  0  0  0  0  0  0  0  0  0
    7.9439   -7.8788    0.0000 C   0  0  0  0  0  0  0  0  0  0  0  0
    8.6584   -8.2912    0.0000 C   0  0  0  0  0  0  0  0  0  0  0  0
    9.3728   -7.8788    0.0000 C   0  0  0  0  0  0  0  0  0  0  0  0
    9.3728   -7.0537    0.0000 C   0  0  0  0  0  0  0  0  0  0  0  0
    8.6584   -6.6413    0.0000 C   0  0  0  0  0  0  0  0  0  0  0  0
   10.0873   -8.2912    0.0000 O   0  0  0  0  0  0  0  0  0  0  0  0
   10.8018   -7.8788    0.0000 C   0  0  0  0  0  0  0  0  0  0  0  0
   10.8018   -7.0537    0.0000 C   0  0  0  0  0  0  0  0  0  0  0  0
   10.0873   -6.6413    0.0000 C   0  0  0  0  0  0  0  0  0  0  0  0
    7.1593   -6.7988    0.0000 C   0  0  0  0  0  0  0  0  0  0  0  0
    6.6744   -7.4663    0.0000 C   0  0  1  0  0  0  0  0  0  0  0  0
    7.1593   -8.1337    0.0000 O   0  0  0  0  0  0  0  0  0  0  0  0
   11.5163   -8.2912    0.0000 O   0  0  0  0  0  0  0  0  0  0  0  0
    8.6584   -9.1162    0.0000 O   0  0  0  0  0  0  0  0  0  0  0  0
    5.8494   -7.4663    0.0000 C   0  0  0  0  0  0  0  0  0  0  0  0
    5.8494   -6.6413    0.0000 C   0  0  0  0  0  0  0  0  0  0  0  0
    5.8494   -8.2912    0.0000 C   0  0  0  0  0  0  0  0  0  0  0  0
    5.0244   -7.4663    0.0000 O   0  0  0  0  0  0  0  0  0  0  0  0
    6.2619   -8.1807    0.0000 H   0  0  0  0  0  0  0  0  0  0  0  0
    4.6119   -8.1807    0.0000 C   0  0  2  0  0  0  0  0  0  0  0  0
    3.7869   -8.1807    0.0000 O   0  0  0  0  0  0  0  0  0  0  0  0
    3.3744   -8.8952    0.0000 C   0  0  1  0  0  0  0  0  0  0  0  0
    3.7869   -9.6097    0.0000 C   0  0  2  0  0  0  0  0  0  0  0  0
    4.6119   -9.6097    0.0000 C   0  0  1  0  0  0  0  0  0  0  0  0
    5.0244   -8.8952    0.0000 C   0  0  1  0  0  0  0  0  0  0  0  0
    2.5494   -8.8952    0.0000 C   0  0  0  0  0  0  0  0  0  0  0  0
    5.0244  -10.3241    0.0000 O   0  0  0  0  0  0  0  0  0  0  0  0
    5.8494   -8.8952    0.0000 O   0  0  0  0  0  0  0  0  0  0  0  0
    3.3744  -10.3241    0.0000 O   0  0  0  0  0  0  0  0  0  0  0  0
    2.1369   -9.6097    0.0000 O   0  0  0  0  0  0  0  0  0  0  0  0
  1  2  2  0  0  0  0
  2  3  1  0  0  0  0
  3  4  2  0  0  0  0
  4  5  1  0  0  0  0
  5  6  2  0  0  0  0
  6  1  1  0  0  0  0
  4  7  1  0  0  0  0
  7  8  1  0  0  0  0
  8  9  1  0  0  0  0
  9 10  2  0  0  0  0
 10  5  1  0  0  0  0
  1 11  1  0  0  0  0
 11 12  1  0  0  0  0
 12 13  1  0  0  0  0
 13  2  1  0  0  0  0
  8 14  2  0  0  0  0
  3 15  1  0  0  0  0
 12 16  1  0  0  0  0
 16 17  1  0  0  0  0
 16 18  1  0  0  0  0
 16 19  1  0  0  0  0
 12 20  1  6  0  0  0
 21 19  1  1  0  0  0
 21 22  1  0  0  0  0
 22 23  1  0  0  0  0
 23 24  1  0  0  0  0
 24 25  1  0  0  0  0
 25 26  1  0  0  0  0
 26 21  1  0  0  0  0
 23 27  1  1  0  0  0
 25 28  1  1  0  0  0
 26 29  1  6  0  0  0
 24 30  1  6  0  0  0
 27 31  1  0  0  0  0
M  END
>  <cdx:fragmentId>
5

$$$$
