12021.cdx
  Mrv1902 05222410192D          

 22 21  0  0  0  0            999 V2000
    1.9896   -8.2431    0.0000 O   0  0  0  0  0  0  0  0  0  0  0  0
    2.7041   -7.8306    0.0000 C   0  0  0  0  0  0  0  0  0  0  0  0
    3.4186   -8.2431    0.0000 C   0  0  0  0  0  0  0  0  0  0  0  0
    4.1330   -7.8306    0.0000 C   0  0  0  0  0  0  0  0  0  0  0  0
    4.8475   -8.2431    0.0000 C   0  0  0  0  0  0  0  0  0  0  0  0
    5.5620   -7.8306    0.0000 C   0  0  0  0  0  0  0  0  0  0  0  0
    6.2765   -8.2431    0.0000 C   0  0  0  0  0  0  0  0  0  0  0  0
    6.9909   -7.8306    0.0000 C   0  0  0  0  0  0  0  0  0  0  0  0
    7.7054   -8.2431    0.0000 C   0  0  0  0  0  0  0  0  0  0  0  0
    8.4199   -7.8306    0.0000 C   0  0  0  0  0  0  0  0  0  0  0  0
    9.1343   -8.2431    0.0000 C   0  0  0  0  0  0  0  0  0  0  0  0
    9.8488   -7.8306    0.0000 C   0  0  0  0  0  0  0  0  0  0  0  0
   10.5633   -8.2431    0.0000 C   0  0  0  0  0  0  0  0  0  0  0  0
    2.7041   -7.0056    0.0000 O   0  0  0  0  0  0  0  0  0  0  0  0
    8.4199   -7.0056    0.0000 O   0  0  0  0  0  0  0  0  0  0  0  0
    1.2752   -7.8306    0.0000 C   0  0  0  0  0  0  0  0  0  0  0  0
   11.2777   -7.8306    0.0000 C   0  0  0  0  0  0  0  0  0  0  0  0
   11.2777   -7.0056    0.0000 C   0  0  0  0  0  0  0  0  0  0  0  0
   11.9922   -6.5931    0.0000 C   0  0  0  0  0  0  0  0  0  0  0  0
   11.9922   -5.7681    0.0000 C   0  0  0  0  0  0  0  0  0  0  0  0
   12.7067   -5.3556    0.0000 C   0  0  0  0  0  0  0  0  0  0  0  0
   12.7067   -4.5306    0.0000 C   0  0  0  0  0  0  0  0  0  0  0  0
  1  2  1  0  0  0  0
  2  3  1  0  0  0  0
  3  4  1  0  0  0  0
  4  5  1  0  0  0  0
  5  6  1  0  0  0  0
  6  7  1  0  0  0  0
  7  8  1  0  0  0  0
  8  9  1  0  0  0  0
  9 10  1  0  0  0  0
 10 11  1  0  0  0  0
 11 12  1  0  0  0  0
 12 13  1  0  0  0  0
  2 14  2  0  0  0  0
 10 15  1  0  0  0  0
  1 16  1  0  0  0  0
 13 17  2  0  0  0  0
 17 18  1  0  0  0  0
 18 19  1  0  0  0  0
 19 20  1  0  0  0  0
 20 21  1  0  0  0  0
 21 22  1  0  0  0  0
M  END
>  <cdx:fragmentId>
3

$$$$
