12032.cdx
  Mrv1902 05222410202D          

 14 15  0  0  0  0            999 V2000
    6.1908   -7.1156    0.0000 C   0  0  0  0  0  0  0  0  0  0  0  0
    6.1908   -6.2906    0.0000 C   0  0  0  0  0  0  0  0  0  0  0  0
    6.9052   -5.8781    0.0000 C   0  0  0  0  0  0  0  0  0  0  0  0
    7.6197   -6.2906    0.0000 C   0  0  0  0  0  0  0  0  0  0  0  0
    7.6197   -7.1156    0.0000 C   0  0  0  0  0  0  0  0  0  0  0  0
    6.9052   -7.5281    0.0000 C   0  0  0  0  0  0  0  0  0  0  0  0
    8.3342   -5.8781    0.0000 O   0  0  0  0  0  0  0  0  0  0  0  0
    9.0487   -6.2906    0.0000 C   0  0  0  0  0  0  0  0  0  0  0  0
    9.0487   -7.1156    0.0000 C   0  0  0  0  0  0  0  0  0  0  0  0
    8.3342   -7.5281    0.0000 C   0  0  0  0  0  0  0  0  0  0  0  0
    9.7631   -5.8781    0.0000 O   0  0  0  0  0  0  0  0  0  0  0  0
    5.4763   -7.5281    0.0000 O   0  0  0  0  0  0  0  0  0  0  0  0
    5.4763   -5.8781    0.0000 O   0  0  0  0  0  0  0  0  0  0  0  0
    4.7618   -6.2906    0.0000 C   0  0  0  0  0  0  0  0  0  0  0  0
  1  2  2  0  0  0  0
  2  3  1  0  0  0  0
  3  4  2  0  0  0  0
  4  5  1  0  0  0  0
  5  6  2  0  0  0  0
  6  1  1  0  0  0  0
  4  7  1  0  0  0  0
  7  8  1  0  0  0  0
  8  9  1  0  0  0  0
  9 10  2  0  0  0  0
 10  5  1  0  0  0  0
  8 11  2  0  0  0  0
  1 12  1  0  0  0  0
  2 13  1  0  0  0  0
 13 14  1  0  0  0  0
M  END
>  <cdx:fragmentId>
5

$$$$
