12041.cdx
  Mrv1902 05222410212D          

  8  7  0  0  0  0            999 V2000
    7.0678  -10.1469    0.0000 C   0  0  0  0  0  0  0  0  0  0  0  0
    6.3533   -9.7344    0.0000 C   0  0  0  0  0  0  0  0  0  0  0  0
    5.6388  -10.1469    0.0000 C   0  0  0  0  0  0  0  0  0  0  0  0
    7.0678  -10.9719    0.0000 O   0  0  0  0  0  0  0  0  0  0  0  0
    7.7822   -9.7344    0.0000 O   0  0  0  0  0  0  0  0  0  0  0  0
    6.3533   -8.9094    0.0000 O   0  0  0  0  0  0  0  0  0  0  0  0
    8.4967  -10.1469    0.0000 C   0  0  0  0  0  0  0  0  0  0  0  0
    9.2112   -9.7344    0.0000 C   0  0  0  0  0  0  0  0  0  0  0  0
  1  2  1  0  0  0  0
  2  3  1  0  0  0  0
  1  4  2  0  0  0  0
  1  5  1  0  0  0  0
  2  6  2  0  0  0  0
  7  8  1  0  0  0  0
  5  7  1  0  0  0  0
M  END
>  <cdx:groupId>
12919

>  <cdx:fragmentId>
12899

$$$$
