12046.cdx
  Mrv1902 05222410222D          

 36 40  0  0  0  0            999 V2000
    1.8389   -8.4150    0.0000 C   0  0  0  0  0  0  0  0  0  0  0  0
    1.8389   -9.2400    0.0000 C   0  0  0  0  0  0  0  0  0  0  0  0
    2.5534   -9.6525    0.0000 C   0  0  0  0  0  0  0  0  0  0  0  0
    3.2678   -9.2400    0.0000 C   0  0  0  0  0  0  0  0  0  0  0  0
    3.2678   -8.4150    0.0000 C   0  0  0  0  0  0  0  0  0  0  0  0
    2.5534   -8.0025    0.0000 C   0  0  0  0  0  0  0  0  0  0  0  0
    3.9823   -9.6525    0.0000 C   0  0  0  0  0  0  0  0  0  0  0  0
    4.6968   -9.2400    0.0000 C   0  0  1  0  0  0  0  0  0  0  0  0
    4.6968   -8.4150    0.0000 C   0  0  2  0  0  0  0  0  0  0  0  0
    3.9823   -8.0025    0.0000 O   0  0  0  0  0  0  0  0  0  0  0  0
    5.4113   -8.0025    0.0000 C   0  0  0  0  0  0  0  0  0  0  0  0
    5.4113   -7.1775    0.0000 C   0  0  0  0  0  0  0  0  0  0  0  0
    6.1257   -8.4150    0.0000 C   0  0  0  0  0  0  0  0  0  0  0  0
    6.8402   -8.0025    0.0000 C   0  0  0  0  0  0  0  0  0  0  0  0
    6.8402   -7.1775    0.0000 C   0  0  0  0  0  0  0  0  0  0  0  0
    6.1257   -6.7650    0.0000 C   0  0  0  0  0  0  0  0  0  0  0  0
    7.5547   -8.4150    0.0000 O   0  0  0  0  0  0  0  0  0  0  0  0
    8.2691   -8.0025    0.0000 C   0  0  0  0  0  0  0  0  0  0  0  0
    8.2691   -7.1775    0.0000 C   0  0  0  0  0  0  0  0  0  0  0  0
    7.5547   -6.7650    0.0000 O   0  0  0  0  0  0  0  0  0  0  0  0
    8.9836   -6.7650    0.0000 C   0  0  0  0  0  0  0  0  0  0  0  0
    8.9836   -5.9400    0.0000 C   0  0  0  0  0  0  0  0  0  0  0  0
    9.6981   -7.1775    0.0000 C   0  0  0  0  0  0  0  0  0  0  0  0
   10.4126   -6.7650    0.0000 C   0  0  0  0  0  0  0  0  0  0  0  0
   10.4126   -5.9400    0.0000 C   0  0  0  0  0  0  0  0  0  0  0  0
    9.6981   -5.5275    0.0000 C   0  0  0  0  0  0  0  0  0  0  0  0
    8.9836   -9.2400    0.0000 C   0  0  0  0  0  0  0  0  0  0  0  0
    8.9836  -10.0650    0.0000 O   0  0  0  0  0  0  0  0  0  0  0  0
    8.9836   -8.4150    0.0000 C   0  0  0  0  0  0  0  0  0  0  0  0
    1.1244   -8.0025    0.0000 O   0  0  0  0  0  0  0  0  0  0  0  0
    2.5534  -10.4775    0.0000 O   0  0  0  0  0  0  0  0  0  0  0  0
    3.9823  -10.4775    0.0000 O   0  0  0  0  0  0  0  0  0  0  0  0
   11.1270   -5.5275    0.0000 O   0  0  0  0  0  0  0  0  0  0  0  0
   11.1270   -7.1775    0.0000 O   0  0  0  0  0  0  0  0  0  0  0  0
    5.4113   -9.6525    0.0000 O   0  0  0  0  0  0  0  0  0  0  0  0
   11.8415   -7.5900    0.0000 C   0  0  0  0  0  0  0  0  0  0  0  0
  1  2  2  0  0  0  0
  2  3  1  0  0  0  0
  3  4  2  0  0  0  0
  4  5  1  0  0  0  0
  5  6  2  0  0  0  0
  6  1  1  0  0  0  0
  4  7  1  0  0  0  0
  7  8  1  0  0  0  0
  8  9  1  0  0  0  0
  9 10  1  0  0  0  0
 10  5  1  0  0  0  0
  9 11  1  6  0  0  0
 11 12  1  0  0  0  0
 11 13  2  0  0  0  0
 13 14  1  0  0  0  0
 14 15  2  0  0  0  0
 15 16  1  0  0  0  0
 16 12  2  0  0  0  0
 14 17  1  0  0  0  0
 17 18  1  0  0  0  0
 18 19  1  0  0  0  0
 19 20  1  0  0  0  0
 20 15  1  0  0  0  0
 19 21  1  0  0  0  0
 21 22  1  0  0  0  0
 21 23  2  0  0  0  0
 23 24  1  0  0  0  0
 24 25  2  0  0  0  0
 25 26  1  0  0  0  0
 26 22  2  0  0  0  0
 27 29  1  0  0  0  0
 29 18  1  0  0  0  0
  1 30  1  0  0  0  0
  3 31  1  0  0  0  0
  7 32  2  0  0  0  0
 25 33  1  0  0  0  0
 24 34  1  0  0  0  0
  8 35  1  1  0  0  0
 27 28  1  0  0  0  0
 34 36  1  0  0  0  0
M  STY  2   1 SUP   2 SUP
M  SAL   1  2  27  28
M  SBL   1  1  31
M  SMT   1 CH2OH
M  SAP   1  1  27  29  1
M  SAL   2  2  34  36
M  SBL   2  1  37
M  SMT   2 OCH3
M  SAP   2  1  34  24  1
M  END
>  <cdx:fragmentId>
5

$$$$
