12049.cdx
  Mrv1902 05222410232D          

 18 21  0  0  0  0            999 V2000
    4.1489   -8.0025    0.0000 C   0  0  0  0  0  0  0  0  0  0  0  0
    4.1489   -8.8275    0.0000 C   0  0  0  0  0  0  0  0  0  0  0  0
    4.8634   -9.2400    0.0000 C   0  0  0  0  0  0  0  0  0  0  0  0
    5.5778   -8.8275    0.0000 N   0  0  0  0  0  0  0  0  0  0  0  0
    5.5778   -8.0025    0.0000 C   0  0  0  0  0  0  0  0  0  0  0  0
    4.8634   -7.5900    0.0000 C   0  0  0  0  0  0  0  0  0  0  0  0
    6.2923   -9.2400    0.0000 C   0  0  0  0  0  0  0  0  0  0  0  0
    7.0068   -8.8275    0.0000 C   0  0  0  0  0  0  0  0  0  0  0  0
    7.0068   -8.0025    0.0000 C   0  0  0  0  0  0  0  0  0  0  0  0
    6.2923   -7.5900    0.0000 C   0  0  0  0  0  0  0  0  0  0  0  0
    7.7213   -9.2400    0.0000 C   0  0  0  0  0  0  0  0  0  0  0  0
    8.4357   -8.8275    0.0000 C   0  0  0  0  0  0  0  0  0  0  0  0
    8.4357   -8.0025    0.0000 C   0  0  0  0  0  0  0  0  0  0  0  0
    7.7213   -7.5900    0.0000 N   0  0  0  0  0  0  0  0  0  0  0  0
    7.7213   -6.7650    0.0000 C   0  0  0  0  0  0  0  0  0  0  0  0
    7.0068   -6.3525    0.0000 C   0  0  0  0  0  0  0  0  0  0  0  0
    6.2923   -6.7650    0.0000 C   0  0  0  0  0  0  0  0  0  0  0  0
    4.8634  -10.0650    0.0000 O   0  0  0  0  0  0  0  0  0  0  0  0
  1  2  2  0  0  0  0
  2  3  1  0  0  0  0
  3  4  1  0  0  0  0
  4  5  1  0  0  0  0
  5  6  1  0  0  0  0
  6  1  1  0  0  0  0
  4  7  1  0  0  0  0
  7  8  1  0  0  0  0
  8  9  1  0  0  0  0
  9 10  1  0  0  0  0
 10  5  1  0  0  0  0
  8 11  1  0  0  0  0
 11 12  1  0  0  0  0
 12 13  1  0  0  0  0
 13 14  1  0  0  0  0
 14  9  1  0  0  0  0
 14 15  1  0  0  0  0
 15 16  1  0  0  0  0
 16 17  1  0  0  0  0
 17 10  1  0  0  0  0
  3 18  2  0  0  0  0
M  END
>  <cdx:fragmentId>
5

$$$$
