102120501.cdx
  Mrv1902 05222410242D          

 58 64  0  0  0  0            999 V2000
   14.0549   -8.3163    0.0000 O   0  0  0  0  0  0  0  0  0  0  0  0
   13.5029   -8.9294    0.0000 C   0  0  2  0  0  0  0  0  0  0  0  0
   12.7492   -8.5939    0.0000 C   0  0  0  0  0  0  0  0  0  0  0  0
   12.8354   -7.7734    0.0000 C   0  0  0  0  0  0  0  0  0  0  0  0
   13.6424   -7.6019    0.0000 C   0  0  0  0  0  0  0  0  0  0  0  0
   12.0347   -9.0064    0.0000 O   0  0  0  0  0  0  0  0  0  0  0  0
   14.7928   -6.7191    0.0000 C   0  0  0  0  0  0  0  0  0  0  0  0
   13.9780   -6.8482    0.0000 C   0  0  0  0  0  0  0  0  0  0  0  0
   13.4930   -6.1807    0.0000 C   0  0  0  0  0  0  0  0  0  0  0  0
   14.0549   -9.5425    0.0000 C   0  0  0  0  0  0  0  0  0  0  0  0
    9.6054  -10.7940    0.0000 C   0  0  0  0  0  0  0  0  0  0  0  0
    8.8910  -11.2065    0.0000 C   0  0  0  0  0  0  0  0  0  0  0  0
    8.8910  -12.0315    0.0000 C   0  0  2  0  0  0  0  0  0  0  0  0
    9.6054  -12.4440    0.0000 C   0  0  0  0  0  0  0  0  0  0  0  0
   10.3199  -12.0315    0.0000 C   0  0  0  0  0  0  0  0  0  0  0  0
   11.0344  -12.4440    0.0000 C   0  0  0  0  0  0  0  0  0  0  0  0
   11.7488  -12.0315    0.0000 C   0  0  0  0  0  0  0  0  0  0  0  0
   11.7488  -11.2065    0.0000 C   0  0  1  0  0  0  0  0  0  0  0  0
   12.4633  -10.7940    0.0000 C   0  0  2  0  0  0  0  0  0  0  0  0
   13.2479  -11.0489    0.0000 C   0  0  0  0  0  0  0  0  0  0  0  0
   13.7329  -10.3815    0.0000 C   0  0  2  0  0  0  0  0  0  0  0  0
   13.2479   -9.7140    0.0000 C   0  0  1  0  0  0  0  0  0  0  0  0
   12.4633   -9.9690    0.0000 C   0  0  1  0  0  0  0  0  0  0  0  0
   11.7488   -9.5565    0.0000 C   0  0  0  0  0  0  0  0  0  0  0  0
   11.0344   -9.9690    0.0000 C   0  0  0  0  0  0  0  0  0  0  0  0
   11.0344  -10.7940    0.0000 C   0  0  1  0  0  0  0  0  0  0  0  0
   10.3199  -11.2065    0.0000 C   0  0  2  0  0  0  0  0  0  0  0  0
   10.3199   -9.5565    0.0000 O   0  0  0  0  0  0  0  0  0  0  0  0
   12.4633  -11.6190    0.0000 C   0  0  0  0  0  0  0  0  0  0  0  0
   12.5496   -9.1485    0.0000 C   0  0  0  0  0  0  0  0  0  0  0  0
   11.0344  -11.6190    0.0000 C   0  0  0  0  0  0  0  0  0  0  0  0
   10.0179  -13.1585    0.0000 C   0  0  0  0  0  0  0  0  0  0  0  0
    9.1929  -13.1585    0.0000 C   0  0  0  0  0  0  0  0  0  0  0  0
   14.5579  -10.3815    0.0000 O   0  0  0  0  0  0  0  0  0  0  0  0
    8.1765  -12.4440    0.0000 O   0  0  0  0  0  0  0  0  0  0  0  0
    6.7476  -12.4440    0.0000 O   0  0  0  0  0  0  0  0  0  0  0  0
    7.4620  -12.0315    0.0000 C   0  0  2  0  0  0  0  0  0  0  0  0
    7.4620  -11.2065    0.0000 C   0  0  1  0  0  0  0  0  0  0  0  0
    6.7476  -10.7940    0.0000 C   0  0  2  0  0  0  0  0  0  0  0  0
    6.0331  -11.2065    0.0000 C   0  0  1  0  0  0  0  0  0  0  0  0
    6.0331  -12.0315    0.0000 C   0  0  1  0  0  0  0  0  0  0  0  0
    8.1765  -10.7940    0.0000 O   0  0  0  0  0  0  0  0  0  0  0  0
    7.4620   -9.5565    0.0000 O   0  0  0  0  0  0  0  0  0  0  0  0
    8.1765   -9.9690    0.0000 C   0  0  2  0  0  0  0  0  0  0  0  0
    8.8910   -9.5565    0.0000 C   0  0  1  0  0  0  0  0  0  0  0  0
    8.8910   -8.7315    0.0000 C   0  0  1  0  0  0  0  0  0  0  0  0
    8.1765   -8.3190    0.0000 C   0  0  2  0  0  0  0  0  0  0  0  0
    7.4620   -8.7315    0.0000 C   0  0  2  0  0  0  0  0  0  0  0  0
    6.7476   -8.3190    0.0000 C   0  0  0  0  0  0  0  0  0  0  0  0
    8.1765   -7.4940    0.0000 O   0  0  0  0  0  0  0  0  0  0  0  0
    9.6054   -8.3190    0.0000 O   0  0  0  0  0  0  0  0  0  0  0  0
    9.6054   -9.9690    0.0000 O   0  0  0  0  0  0  0  0  0  0  0  0
    5.3186  -12.4440    0.0000 C   0  0  0  0  0  0  0  0  0  0  0  0
    4.6041  -12.0315    0.0000 O   0  0  0  0  0  0  0  0  0  0  0  0
    5.3186  -10.7940    0.0000 O   0  0  0  0  0  0  0  0  0  0  0  0
    6.7476   -9.9690    0.0000 O   0  0  0  0  0  0  0  0  0  0  0  0
   11.7488  -10.3815    0.0000 H   0  0  0  0  0  0  0  0  0  0  0  0
   10.3199  -10.3815    0.0000 H   0  0  0  0  0  0  0  0  0  0  0  0
  1  2  1  0  0  0  0
  2  3  1  0  0  0  0
  3  4  1  0  0  0  0
  4  5  2  0  0  0  0
  1  5  1  0  0  0  0
  3  6  2  0  0  0  0
  7  8  1  0  0  0  0
  8  9  1  0  0  0  0
  5  8  1  0  0  0  0
  2 10  1  1  0  0  0
 11 12  1  0  0  0  0
 12 13  1  0  0  0  0
 13 14  1  0  0  0  0
 14 15  1  0  0  0  0
 15 16  2  0  0  0  0
 16 17  1  0  0  0  0
 17 18  1  0  0  0  0
 18 19  1  0  0  0  0
 19 20  1  0  0  0  0
 20 21  1  0  0  0  0
 21 22  1  0  0  0  0
 22 23  1  0  0  0  0
 19 23  1  0  0  0  0
 23 24  1  0  0  0  0
 24 25  1  0  0  0  0
 25 26  1  0  0  0  0
 18 26  1  0  0  0  0
 26 27  1  0  0  0  0
 15 27  1  0  0  0  0
 11 27  1  0  0  0  0
 25 28  2  0  0  0  0
 19 29  1  6  0  0  0
 23 30  1  1  0  0  0
 26 31  1  1  0  0  0
 14 32  1  0  0  0  0
 14 33  1  0  0  0  0
 21 34  1  6  0  0  0
 36 37  1  0  0  0  0
 37 38  1  0  0  0  0
 38 39  1  0  0  0  0
 39 40  1  0  0  0  0
 40 41  1  0  0  0  0
 36 41  1  0  0  0  0
 43 44  1  0  0  0  0
 44 45  1  0  0  0  0
 45 46  1  0  0  0  0
 46 47  1  0  0  0  0
 47 48  1  0  0  0  0
 43 48  1  0  0  0  0
 48 49  1  1  0  0  0
 47 50  1  6  0  0  0
 46 51  1  1  0  0  0
 45 52  1  1  0  0  0
 44 42  1  6  0  0  0
 38 42  1  1  0  0  0
 53 54  1  0  0  0  0
 41 53  1  6  0  0  0
 40 55  1  1  0  0  0
 39 56  1  6  0  0  0
 37 35  1  6  0  0  0
 13 35  1  6  0  0  0
 22  2  1  1  0  0  0
 18 57  1  1  0  0  0
 27 58  1  6  0  0  0
M  END
>  <cdx:groupId>
13037

>  <cdx:fragmentId>
12880

$$$$
