12057.cdx
  Mrv1902 05222410212D          

 33 36  0  0  0  0            999 V2000
    6.5645  -10.1177    0.0000 O   0  0  0  0  0  0  0  0  0  0  0  0
    5.1355   -7.6427    0.0000 O   0  0  0  0  0  0  0  0  0  0  0  0
   11.5658  -10.5302    0.0000 O   0  0  0  0  0  0  0  0  0  0  0  0
   10.1368   -8.8802    0.0000 C   0  0  0  0  0  0  0  0  0  0  0  0
   10.8513   -9.2927    0.0000 C   0  0  0  0  0  0  0  0  0  0  0  0
   10.8513  -10.1177    0.0000 C   0  0  0  0  0  0  0  0  0  0  0  0
   10.1368  -10.5302    0.0000 C   0  0  0  0  0  0  0  0  0  0  0  0
    9.4224  -10.1177    0.0000 C   0  0  0  0  0  0  0  0  0  0  0  0
    9.4224   -9.2927    0.0000 C   0  0  0  0  0  0  0  0  0  0  0  0
    5.8500   -6.4052    0.0000 C   0  0  0  0  0  0  0  0  0  0  0  0
    6.5645   -6.8177    0.0000 O   0  0  0  0  0  0  0  0  0  0  0  0
    7.9934  -10.1177    0.0000 O   0  0  0  0  0  0  0  0  0  0  0  0
    7.9934   -7.6427    0.0000 O   0  0  0  0  0  0  0  0  0  0  0  0
    7.2789   -8.0552    0.0000 C   0  0  0  0  0  0  0  0  0  0  0  0
    6.5645   -7.6427    0.0000 C   0  0  0  0  0  0  0  0  0  0  0  0
    5.8500   -8.0552    0.0000 C   0  0  0  0  0  0  0  0  0  0  0  0
    5.8500   -8.8802    0.0000 C   0  0  0  0  0  0  0  0  0  0  0  0
    6.5645   -9.2927    0.0000 C   0  0  0  0  0  0  0  0  0  0  0  0
    7.2789   -8.8802    0.0000 C   0  0  0  0  0  0  0  0  0  0  0  0
    7.9934   -9.2927    0.0000 C   0  0  0  0  0  0  0  0  0  0  0  0
    8.7079   -8.8802    0.0000 C   0  0  0  0  0  0  0  0  0  0  0  0
    8.7079   -8.0552    0.0000 C   0  0  0  0  0  0  0  0  0  0  0  0
    3.7077   -7.6464    0.0000 O   0  0  0  0  0  0  0  0  0  0  0  0
    4.4233   -8.0570    0.0000 C   0  0  2  0  0  0  0  0  0  0  0  0
    4.4255   -8.8820    0.0000 C   0  0  1  0  0  0  0  0  0  0  0  0
    3.7122   -9.2964    0.0000 C   0  0  2  0  0  0  0  0  0  0  0  0
    2.9966   -8.8859    0.0000 C   0  0  1  0  0  0  0  0  0  0  0  0
    2.9944   -8.0609    0.0000 C   0  0  1  0  0  0  0  0  0  0  0  0
    2.2788   -7.6503    0.0000 C   0  0  0  0  0  0  0  0  0  0  0  0
    2.2833   -9.3003    0.0000 O   0  0  0  0  0  0  0  0  0  0  0  0
    3.7144  -10.1214    0.0000 O   0  0  0  0  0  0  0  0  0  0  0  0
    5.1411   -9.2926    0.0000 O   0  0  0  0  0  0  0  0  0  0  0  0
    1.5654   -8.0648    0.0000 O   0  0  0  0  0  0  0  0  0  0  0  0
 18  1  1  0  0  0  0
 16  2  1  0  0  0  0
 21  9  1  0  0  0  0
  6  3  1  0  0  0  0
  9  4  2  0  0  0  0
  5  4  1  0  0  0  0
  6  5  2  0  0  0  0
  7  6  1  0  0  0  0
  8  7  2  0  0  0  0
  9  8  1  0  0  0  0
 15 11  1  0  0  0  0
 11 10  1  0  0  0  0
 20 12  2  0  0  0  0
 22 13  1  0  0  0  0
 14 13  1  0  0  0  0
 19 14  2  0  0  0  0
 15 14  1  0  0  0  0
 16 15  2  0  0  0  0
 17 16  1  0  0  0  0
 18 17  2  0  0  0  0
 19 18  1  0  0  0  0
 20 19  1  0  0  0  0
 21 20  1  0  0  0  0
 22 21  2  0  0  0  0
 23 24  1  0  0  0  0
 24 25  1  0  0  0  0
 25 26  1  0  0  0  0
 26 27  1  0  0  0  0
 27 28  1  0  0  0  0
 23 28  1  0  0  0  0
 28 29  1  1  0  0  0
 27 30  1  6  0  0  0
 26 31  1  1  0  0  0
 25 32  1  6  0  0  0
 29 33  1  0  0  0  0
 24  2  1  1  0  0  0
M  END
>  <cdx:fragmentId>
5

$$$$
