120521.cdx
  Mrv1902 05222410202D          

 14 15  0  0  0  0            999 V2000
   16.9306  -10.0446    0.0000 C   0  0  0  0  0  0  0  0  0  0  0  0
   16.9306  -10.8696    0.0000 C   0  0  0  0  0  0  0  0  0  0  0  0
   16.2162  -11.2821    0.0000 C   0  0  0  0  0  0  0  0  0  0  0  0
   15.5017  -10.8696    0.0000 C   0  0  0  0  0  0  0  0  0  0  0  0
   15.5017  -10.0446    0.0000 C   0  0  0  0  0  0  0  0  0  0  0  0
   16.2162   -9.6321    0.0000 O   0  0  0  0  0  0  0  0  0  0  0  0
   16.2162  -12.1071    0.0000 O   0  0  0  0  0  0  0  0  0  0  0  0
   14.7872   -9.6321    0.0000 C   0  0  0  0  0  0  0  0  0  0  0  0
   14.0728  -10.0446    0.0000 C   0  0  0  0  0  0  0  0  0  0  0  0
   13.3583   -9.6321    0.0000 C   0  0  0  0  0  0  0  0  0  0  0  0
   13.3583   -8.8071    0.0000 C   0  0  0  0  0  0  0  0  0  0  0  0
   14.0728   -8.3946    0.0000 C   0  0  0  0  0  0  0  0  0  0  0  0
   14.7872   -8.8071    0.0000 C   0  0  0  0  0  0  0  0  0  0  0  0
   17.6451   -9.6321    0.0000 C   0  0  0  0  0  0  0  0  0  0  0  0
  1  2  2  0  0  0  0
  2  3  1  0  0  0  0
  3  4  1  0  0  0  0
  4  5  2  0  0  0  0
  5  6  1  0  0  0  0
  1  6  1  0  0  0  0
  3  7  2  0  0  0  0
  8  9  1  0  0  0  0
  9 10  2  0  0  0  0
 10 11  1  0  0  0  0
 11 12  2  0  0  0  0
 12 13  1  0  0  0  0
  8 13  2  0  0  0  0
  5  8  1  0  0  0  0
  1 14  1  0  0  0  0
M  END
>  <cdx:groupId>
1281

>  <cdx:fragmentId>
1241

$$$$
