12062.cdx
  Mrv1902 05222410242D          

 44 49  0  0  0  0            999 V2000
    4.2569   -9.6893    0.0000 C   0  0  0  0  0  0  0  0  0  0  0  0
    3.5424  -10.1018    0.0000 C   0  0  0  0  0  0  0  0  0  0  0  0
    4.2569   -8.8643    0.0000 O   0  0  0  0  0  0  0  0  0  0  0  0
    4.9714  -10.1018    0.0000 O   0  0  0  0  0  0  0  0  0  0  0  0
    7.1148   -8.8643    0.0000 C   0  0  1  0  0  0  0  0  0  0  0  0
    7.8292   -8.4518    0.0000 C   0  0  1  0  0  0  0  0  0  0  0  0
    7.8292   -7.6268    0.0000 C   0  0  0  0  0  0  0  0  0  0  0  0
    8.5437   -7.2143    0.0000 C   0  0  1  0  0  0  0  0  0  0  0  0
    9.2582   -7.6268    0.0000 C   0  0  1  0  0  0  0  0  0  0  0  0
   10.0428   -7.3719    0.0000 C   0  0  1  0  0  0  0  0  0  0  0  0
   10.5277   -8.0393    0.0000 C   0  0  0  0  0  0  0  0  0  0  0  0
   10.0428   -8.7068    0.0000 C   0  0  0  0  0  0  0  0  0  0  0  0
    9.2582   -8.4518    0.0000 C   0  0  1  0  0  0  0  0  0  0  0  0
    8.5437   -8.8643    0.0000 C   0  0  2  0  0  0  0  0  0  0  0  0
    8.5437   -9.6893    0.0000 C   0  0  1  0  0  0  0  0  0  0  0  0
    7.8292  -10.1018    0.0000 C   0  0  0  0  0  0  0  0  0  0  0  0
    7.1148   -9.6893    0.0000 C   0  0  1  0  0  0  0  0  0  0  0  0
    6.4003  -10.1018    0.0000 C   0  0  1  0  0  0  0  0  0  0  0  0
    7.1636  -10.6298    0.0000 C   0  0  0  0  0  0  0  0  0  0  0  0
    7.9797  -10.1877    0.0000 O   0  0  0  0  0  0  0  0  0  0  0  0
    7.9545   -9.2599    0.0000 C   0  0  0  0  0  0  0  0  0  0  0  0
    6.4003   -8.4518    0.0000 C   0  0  2  0  0  0  0  0  0  0  0  0
    5.6858   -8.8643    0.0000 C   0  0  0  0  0  0  0  0  0  0  0  0
    5.6858   -9.6893    0.0000 C   0  0  1  0  0  0  0  0  0  0  0  0
   10.2977   -9.4914    0.0000 O   0  0  0  0  0  0  0  0  0  0  0  0
    7.1148   -7.2143    0.0000 O   0  0  0  0  0  0  0  0  0  0  0  0
    5.9878  -10.8163    0.0000 C   0  0  0  0  0  0  0  0  0  0  0  0
    8.5437   -8.0393    0.0000 C   0  0  0  0  0  0  0  0  0  0  0  0
    9.3444   -6.8064    0.0000 C   0  0  0  0  0  0  0  0  0  0  0  0
    6.4003   -7.6268    0.0000 O   0  0  0  0  0  0  0  0  0  0  0  0
    7.1636  -11.4548    0.0000 O   0  0  0  0  0  0  0  0  0  0  0  0
    9.2582  -10.1018    0.0000 O   0  0  0  0  0  0  0  0  0  0  0  0
   11.0824   -5.5073    0.0000 O   0  0  0  0  0  0  0  0  0  0  0  0
   11.0824   -6.3323    0.0000 C   0  0  0  0  0  0  0  0  0  0  0  0
   10.2977   -6.5873    0.0000 C   0  0  0  0  0  0  0  0  0  0  0  0
    9.8128   -5.9198    0.0000 C   0  0  0  0  0  0  0  0  0  0  0  0
   10.2977   -5.2524    0.0000 C   0  0  0  0  0  0  0  0  0  0  0  0
    8.5437   -6.3893    0.0000 O   0  0  0  0  0  0  0  0  0  0  0  0
    7.8292   -5.9768    0.0000 C   0  0  0  0  0  0  0  0  0  0  0  0
    7.8292   -5.1518    0.0000 O   0  0  0  0  0  0  0  0  0  0  0  0
    7.1148   -6.3893    0.0000 C   0  0  0  0  0  0  0  0  0  0  0  0
    7.1148   -8.0393    0.0000 H   0  0  0  0  0  0  0  0  0  0  0  0
    9.2582   -9.2768    0.0000 H   0  0  0  0  0  0  0  0  0  0  0  0
    6.4003   -9.2768    0.0000 H   0  0  0  0  0  0  0  0  0  0  0  0
  1  2  1  0  0  0  0
  1  3  2  0  0  0  0
  1  4  1  0  0  0  0
  5  6  1  0  0  0  0
  6  7  1  0  0  0  0
  7  8  1  0  0  0  0
  8  9  1  0  0  0  0
  9 10  1  0  0  0  0
 10 11  1  0  0  0  0
 11 12  1  0  0  0  0
 12 13  1  0  0  0  0
 13 14  1  0  0  0  0
 14 15  1  0  0  0  0
 15 16  1  0  0  0  0
 16 17  1  0  0  0  0
 17 18  1  0  0  0  0
 18 19  1  0  0  0  0
 19 20  1  0  0  0  0
 20 21  1  0  0  0  0
 22 23  1  0  0  0  0
 23 24  1  0  0  0  0
  5 21  1  1  0  0  0
  5 22  1  0  0  0  0
 24 18  1  0  0  0  0
  5 17  1  0  0  0  0
  6 14  1  0  0  0  0
  9 13  1  0  0  0  0
 12 25  2  0  0  0  0
  7 26  2  0  0  0  0
 18 27  1  6  0  0  0
 14 28  1  1  0  0  0
  9 29  1  6  0  0  0
 22 30  1  6  0  0  0
 19 31  1  0  0  0  0
 15 32  1  6  0  0  0
 33 34  1  0  0  0  0
 34 35  2  0  0  0  0
 35 36  1  0  0  0  0
 36 37  2  0  0  0  0
 33 37  1  0  0  0  0
 10 35  1  6  0  0  0
 39 40  2  0  0  0  0
 39 41  1  0  0  0  0
 38 39  1  0  0  0  0
  8 38  1  6  0  0  0
 24  4  1  6  0  0  0
  6 42  1  6  0  0  0
 13 43  1  6  0  0  0
 17 44  1  6  0  0  0
M  END
>  <cdx:fragmentId>
179

$$$$
