isototanshinone.cdx
  Mrv1902 05222410242D          

 20 23  0  0  0  0            999 V2000
    4.7470   -9.5494    0.0000 C   0  0  0  0  0  0  0  0  0  0  0  0
    4.7470  -10.3744    0.0000 C   0  0  0  0  0  0  0  0  0  0  0  0
    5.4615  -10.7869    0.0000 C   0  0  0  0  0  0  0  0  0  0  0  0
    6.1760  -10.3744    0.0000 C   0  0  0  0  0  0  0  0  0  0  0  0
    6.1760   -9.5494    0.0000 C   0  0  0  0  0  0  0  0  0  0  0  0
    5.4615   -9.1369    0.0000 C   0  0  0  0  0  0  0  0  0  0  0  0
    6.8904  -10.7869    0.0000 C   0  0  0  0  0  0  0  0  0  0  0  0
    7.6049  -10.3744    0.0000 C   0  0  0  0  0  0  0  0  0  0  0  0
    7.6049   -9.5494    0.0000 C   0  0  0  0  0  0  0  0  0  0  0  0
    6.8904   -9.1369    0.0000 C   0  0  0  0  0  0  0  0  0  0  0  0
    8.3194   -9.1369    0.0000 C   0  0  0  0  0  0  0  0  0  0  0  0
    8.3194   -8.3119    0.0000 C   0  0  0  0  0  0  0  0  0  0  0  0
    7.6049   -7.8994    0.0000 C   0  0  0  0  0  0  0  0  0  0  0  0
    6.8904   -8.3119    0.0000 C   0  0  0  0  0  0  0  0  0  0  0  0
    5.4615  -11.6119    0.0000 C   0  0  0  0  0  0  0  0  0  0  0  0
    8.9325   -7.7598    0.0000 C   0  0  0  0  0  0  0  0  0  0  0  0
    8.5969   -7.0062    0.0000 C   0  0  0  0  0  0  0  0  0  0  0  0
    7.7764   -7.0924    0.0000 O   0  0  0  0  0  0  0  0  0  0  0  0
    9.0339   -9.5494    0.0000 O   0  0  0  0  0  0  0  0  0  0  0  0
    6.1760   -7.8994    0.0000 O   0  0  0  0  0  0  0  0  0  0  0  0
  1  2  2  0  0  0  0
  2  3  1  0  0  0  0
  3  4  2  0  0  0  0
  4  5  1  0  0  0  0
  5  6  2  0  0  0  0
  6  1  1  0  0  0  0
  4  7  1  0  0  0  0
  7  8  1  0  0  0  0
  8  9  2  0  0  0  0
  9 10  1  0  0  0  0
 10  5  1  0  0  0  0
  9 11  1  0  0  0  0
 11 12  1  0  0  0  0
 12 13  2  0  0  0  0
 13 14  1  0  0  0  0
 14 10  1  0  0  0  0
  3 15  1  0  0  0  0
 12 16  1  0  0  0  0
 16 17  2  0  0  0  0
 17 18  1  0  0  0  0
 18 13  1  0  0  0  0
 11 19  2  0  0  0  0
 14 20  2  0  0  0  0
M  END
>  <cdx:fragmentId>
5

$$$$
