12076.cdx
  Mrv1902 05222410242D          

 43 47  0  0  0  0            999 V2000
    7.7394   -5.9606    0.0000 C   0  0  0  0  0  0  0  0  0  0  0  0
    7.7394   -6.7856    0.0000 C   0  0  0  0  0  0  0  0  0  0  0  0
    8.4539   -7.1981    0.0000 C   0  0  0  0  0  0  0  0  0  0  0  0
    9.1683   -6.7856    0.0000 C   0  0  0  0  0  0  0  0  0  0  0  0
    9.1683   -5.9606    0.0000 C   0  0  0  0  0  0  0  0  0  0  0  0
    8.4539   -5.5481    0.0000 C   0  0  0  0  0  0  0  0  0  0  0  0
    9.8828   -7.1981    0.0000 C   0  0  0  0  0  0  0  0  0  0  0  0
   10.5973   -6.7856    0.0000 C   0  0  0  0  0  0  0  0  0  0  0  0
   10.5973   -5.9606    0.0000 C   0  0  0  0  0  0  0  0  0  0  0  0
    9.8828   -5.5481    0.0000 O   0  0  0  0  0  0  0  0  0  0  0  0
   11.3117   -5.5481    0.0000 C   0  0  0  0  0  0  0  0  0  0  0  0
   11.3117   -4.7231    0.0000 C   0  0  0  0  0  0  0  0  0  0  0  0
   12.0262   -5.9606    0.0000 C   0  0  0  0  0  0  0  0  0  0  0  0
   12.7407   -5.5481    0.0000 C   0  0  0  0  0  0  0  0  0  0  0  0
   12.7407   -4.7231    0.0000 C   0  0  0  0  0  0  0  0  0  0  0  0
   12.0262   -4.3106    0.0000 C   0  0  0  0  0  0  0  0  0  0  0  0
   13.4552   -4.3106    0.0000 O   0  0  0  0  0  0  0  0  0  0  0  0
    9.8828   -8.0231    0.0000 O   0  0  0  0  0  0  0  0  0  0  0  0
    8.4539   -8.0231    0.0000 O   0  0  0  0  0  0  0  0  0  0  0  0
    7.0249   -5.5481    0.0000 O   0  0  0  0  0  0  0  0  0  0  0  0
    5.7181   -7.1362    0.0000 C   0  0  2  0  0  0  0  0  0  0  0  0
    5.7181   -7.9612    0.0000 C   0  0  2  0  0  0  0  0  0  0  0  0
    6.4326   -8.3737    0.0000 C   0  0  1  0  0  0  0  0  0  0  0  0
    7.1471   -7.9612    0.0000 C   0  0  2  0  0  0  0  0  0  0  0  0
    7.1471   -7.1362    0.0000 C   0  0  1  0  0  0  0  0  0  0  0  0
    6.4326   -6.7237    0.0000 O   0  0  0  0  0  0  0  0  0  0  0  0
    6.4326   -9.1987    0.0000 O   0  0  0  0  0  0  0  0  0  0  0  0
    5.0037   -6.7237    0.0000 C   0  0  0  0  0  0  0  0  0  0  0  0
    7.8615   -8.3737    0.0000 O   0  0  0  0  0  0  0  0  0  0  0  0
    5.0037   -8.3737    0.0000 O   0  0  0  0  0  0  0  0  0  0  0  0
    4.2892   -7.1362    0.0000 O   0  0  0  0  0  0  0  0  0  0  0  0
    2.8335   -5.4950    0.0000 C   0  0  2  0  0  0  0  0  0  0  0  0
    2.1244   -5.9166    0.0000 C   0  0  2  0  0  0  0  0  0  0  0  0
    2.1349   -6.7415    0.0000 C   0  0  1  0  0  0  0  0  0  0  0  0
    2.8546   -7.1449    0.0000 C   0  0  2  0  0  0  0  0  0  0  0  0
    3.5638   -6.7233    0.0000 C   0  0  1  0  0  0  0  0  0  0  0  0
    3.5532   -5.8983    0.0000 O   0  0  0  0  0  0  0  0  0  0  0  0
    2.8229   -4.6701    0.0000 C   0  0  0  0  0  0  0  0  0  0  0  0
    1.4258   -7.1632    0.0000 O   0  0  0  0  0  0  0  0  0  0  0  0
    2.8652   -7.9698    0.0000 O   0  0  0  0  0  0  0  0  0  0  0  0
    1.4047   -5.5133    0.0000 O   0  0  0  0  0  0  0  0  0  0  0  0
    2.1032   -4.2667    0.0000 O   0  0  0  0  0  0  0  0  0  0  0  0
    7.1471   -6.3113    0.0000 H   0  0  0  0  0  0  0  0  0  0  0  0
  1  2  2  0  0  0  0
  2  3  1  0  0  0  0
  3  4  2  0  0  0  0
  4  5  1  0  0  0  0
  5  6  2  0  0  0  0
  6  1  1  0  0  0  0
  4  7  1  0  0  0  0
  7  8  1  0  0  0  0
  8  9  2  0  0  0  0
  9 10  1  0  0  0  0
 10  5  1  0  0  0  0
  9 11  1  0  0  0  0
 11 12  1  0  0  0  0
 11 13  2  0  0  0  0
 13 14  1  0  0  0  0
 14 15  2  0  0  0  0
 15 16  1  0  0  0  0
 16 12  2  0  0  0  0
 15 17  1  0  0  0  0
  7 18  2  0  0  0  0
  3 19  1  0  0  0  0
  1 20  1  0  0  0  0
 21 22  1  0  0  0  0
 22 23  1  0  0  0  0
 23 24  1  0  0  0  0
 24 25  1  0  0  0  0
 25 26  1  0  0  0  0
 26 21  1  0  0  0  0
 23 27  1  1  0  0  0
 21 28  1  1  0  0  0
 24 29  1  6  0  0  0
 22 30  1  6  0  0  0
 28 31  1  0  0  0  0
 25  2  1  0  0  0  0
 32 33  1  0  0  0  0
 33 34  1  0  0  0  0
 34 35  1  0  0  0  0
 35 36  1  0  0  0  0
 36 37  1  0  0  0  0
 37 32  1  0  0  0  0
 32 38  1  1  0  0  0
 34 39  1  1  0  0  0
 35 40  1  6  0  0  0
 33 41  1  6  0  0  0
 38 42  1  0  0  0  0
 36 31  1  1  0  0  0
 25 43  1  6  0  0  0
M  END
>  <cdx:fragmentId>
5

$$$$
