12073.cdx
  Mrv1902 05222410242D          

 43 47  0  0  0  0            999 V2000
    5.9020   -6.3731    0.0000 C   0  0  0  0  0  0  0  0  0  0  0  0
    5.9020   -7.1981    0.0000 C   0  0  0  0  0  0  0  0  0  0  0  0
    6.6165   -7.6106    0.0000 C   0  0  0  0  0  0  0  0  0  0  0  0
    7.3310   -7.1981    0.0000 C   0  0  0  0  0  0  0  0  0  0  0  0
    7.3310   -6.3731    0.0000 C   0  0  0  0  0  0  0  0  0  0  0  0
    6.6165   -5.9606    0.0000 C   0  0  0  0  0  0  0  0  0  0  0  0
    8.0454   -7.6106    0.0000 C   0  0  0  0  0  0  0  0  0  0  0  0
    8.7599   -7.1981    0.0000 C   0  0  0  0  0  0  0  0  0  0  0  0
    8.7599   -6.3731    0.0000 C   0  0  0  0  0  0  0  0  0  0  0  0
    8.0454   -5.9606    0.0000 O   0  0  0  0  0  0  0  0  0  0  0  0
    9.4744   -5.9606    0.0000 C   0  0  0  0  0  0  0  0  0  0  0  0
    9.4744   -5.1356    0.0000 C   0  0  0  0  0  0  0  0  0  0  0  0
   10.1889   -6.3731    0.0000 C   0  0  0  0  0  0  0  0  0  0  0  0
   10.9033   -5.9606    0.0000 C   0  0  0  0  0  0  0  0  0  0  0  0
   10.9033   -5.1356    0.0000 C   0  0  0  0  0  0  0  0  0  0  0  0
   10.1889   -4.7231    0.0000 C   0  0  0  0  0  0  0  0  0  0  0  0
   11.6178   -4.7231    0.0000 O   0  0  0  0  0  0  0  0  0  0  0  0
    8.0454   -8.4356    0.0000 O   0  0  0  0  0  0  0  0  0  0  0  0
    6.6165   -8.4356    0.0000 O   0  0  0  0  0  0  0  0  0  0  0  0
    5.1876   -5.9606    0.0000 O   0  0  0  0  0  0  0  0  0  0  0  0
    3.8808   -7.5488    0.0000 C   0  0  2  0  0  0  0  0  0  0  0  0
    3.8808   -8.3737    0.0000 C   0  0  2  0  0  0  0  0  0  0  0  0
    4.5952   -8.7862    0.0000 C   0  0  1  0  0  0  0  0  0  0  0  0
    5.3097   -8.3737    0.0000 C   0  0  2  0  0  0  0  0  0  0  0  0
    5.3097   -7.5488    0.0000 C   0  0  1  0  0  0  0  0  0  0  0  0
    4.5952   -7.1362    0.0000 O   0  0  0  0  0  0  0  0  0  0  0  0
    4.5952   -9.6112    0.0000 O   0  0  0  0  0  0  0  0  0  0  0  0
    3.1663   -7.1362    0.0000 C   0  0  0  0  0  0  0  0  0  0  0  0
    6.0242   -8.7862    0.0000 O   0  0  0  0  0  0  0  0  0  0  0  0
    3.1663   -8.7862    0.0000 O   0  0  0  0  0  0  0  0  0  0  0  0
    2.4518   -7.5488    0.0000 O   0  0  0  0  0  0  0  0  0  0  0  0
    2.4370  -10.0031    0.0000 C   0  0  2  0  0  0  0  0  0  0  0  0
    2.4370  -10.8281    0.0000 C   0  0  2  0  0  0  0  0  0  0  0  0
    3.1515  -11.2406    0.0000 C   0  0  1  0  0  0  0  0  0  0  0  0
    3.8660  -10.8281    0.0000 C   0  0  2  0  0  0  0  0  0  0  0  0
    3.8660  -10.0031    0.0000 C   0  0  1  0  0  0  0  0  0  0  0  0
    3.1515   -9.5906    0.0000 O   0  0  0  0  0  0  0  0  0  0  0  0
    1.7226   -9.5906    0.0000 C   0  0  0  0  0  0  0  0  0  0  0  0
    3.1515  -12.0656    0.0000 O   0  0  0  0  0  0  0  0  0  0  0  0
    4.5804  -11.2406    0.0000 O   0  0  0  0  0  0  0  0  0  0  0  0
    1.7226  -11.2406    0.0000 O   0  0  0  0  0  0  0  0  0  0  0  0
    1.0081  -10.0031    0.0000 O   0  0  0  0  0  0  0  0  0  0  0  0
    5.3097   -6.7237    0.0000 H   0  0  0  0  0  0  0  0  0  0  0  0
  1  2  2  0  0  0  0
  2  3  1  0  0  0  0
  3  4  2  0  0  0  0
  4  5  1  0  0  0  0
  5  6  2  0  0  0  0
  6  1  1  0  0  0  0
  4  7  1  0  0  0  0
  7  8  1  0  0  0  0
  8  9  2  0  0  0  0
  9 10  1  0  0  0  0
 10  5  1  0  0  0  0
  9 11  1  0  0  0  0
 11 12  1  0  0  0  0
 11 13  2  0  0  0  0
 13 14  1  0  0  0  0
 14 15  2  0  0  0  0
 15 16  1  0  0  0  0
 16 12  2  0  0  0  0
 15 17  1  0  0  0  0
  7 18  2  0  0  0  0
  3 19  1  0  0  0  0
  1 20  1  0  0  0  0
 21 22  1  0  0  0  0
 22 23  1  0  0  0  0
 23 24  1  0  0  0  0
 24 25  1  0  0  0  0
 25 26  1  0  0  0  0
 26 21  1  0  0  0  0
 23 27  1  1  0  0  0
 21 28  1  1  0  0  0
 24 29  1  6  0  0  0
 22 30  1  6  0  0  0
 28 31  1  0  0  0  0
 25  2  1  0  0  0  0
 32 33  1  0  0  0  0
 33 34  1  0  0  0  0
 34 35  1  0  0  0  0
 35 36  1  0  0  0  0
 36 37  1  0  0  0  0
 37 32  1  0  0  0  0
 32 38  1  1  0  0  0
 34 39  1  1  0  0  0
 35 40  1  6  0  0  0
 33 41  1  6  0  0  0
 38 42  1  0  0  0  0
 36 27  1  1  0  0  0
 25 43  1  6  0  0  0
M  END
>  <cdx:fragmentId>
5

$$$$
