12072.cdx
  Mrv1902 05222410252D          

 11 11  0  0  0  0            999 V2000
    6.1205   -3.1636    0.0000 C   0  0  0  0  0  0  0  0  0  0  0  0
    6.1205   -2.3386    0.0000 C   0  0  0  0  0  0  0  0  0  0  0  0
    6.8350   -1.9261    0.0000 C   0  0  0  0  0  0  0  0  0  0  0  0
    7.5495   -2.3386    0.0000 C   0  0  0  0  0  0  0  0  0  0  0  0
    7.5495   -3.1636    0.0000 C   0  0  0  0  0  0  0  0  0  0  0  0
    6.8350   -3.5761    0.0000 C   0  0  0  0  0  0  0  0  0  0  0  0
    5.4061   -3.5761    0.0000 O   0  0  0  0  0  0  0  0  0  0  0  0
    8.2639   -4.4011    0.0000 C   0  0  0  0  0  0  0  0  0  0  0  0
    8.2639   -3.5761    0.0000 C   0  0  0  0  0  0  0  0  0  0  0  0
    8.9784   -3.1636    0.0000 C   0  0  0  0  0  0  0  0  0  0  0  0
    5.4061   -1.9261    0.0000 C   0  0  0  0  0  0  0  0  0  0  0  0
  1  2  1  0  0  0  0
  2  3  1  0  0  0  0
  3  4  1  0  0  0  0
  4  5  1  0  0  0  0
  5  6  1  0  0  0  0
  1  6  1  0  0  0  0
  1  7  1  0  0  0  0
  8  9  2  0  0  0  0
  9 10  1  0  0  0  0
  5  9  1  0  0  0  0
  2 11  1  0  0  0  0
M  END
>  <cdx:fragmentId>
5

$$$$
