12086.cdx
  Mrv1902 05222410222D          

 30 34  0  0  0  0            999 V2000
    3.1795   -9.9206    0.0000 C   0  0  0  0  0  0  0  0  0  0  0  0
    3.1795  -10.7456    0.0000 C   0  0  0  0  0  0  0  0  0  0  0  0
    3.8940  -11.1581    0.0000 O   0  0  0  0  0  0  0  0  0  0  0  0
    4.6085  -10.7456    0.0000 C   0  0  0  0  0  0  0  0  0  0  0  0
    4.6085   -9.9206    0.0000 C   0  0  0  0  0  0  0  0  0  0  0  0
    3.8940   -9.5081    0.0000 C   0  0  0  0  0  0  0  0  0  0  0  0
    5.3229  -11.1581    0.0000 C   0  0  0  0  0  0  0  0  0  0  0  0
    6.0374  -10.7456    0.0000 C   0  0  0  0  0  0  0  0  0  0  0  0
    6.0374   -9.9206    0.0000 C   0  0  0  0  0  0  0  0  0  0  0  0
    5.3229   -9.5081    0.0000 C   0  0  0  0  0  0  0  0  0  0  0  0
    6.7519   -9.5081    0.0000 C   0  0  0  0  0  0  0  0  0  0  0  0
    6.7519   -8.6831    0.0000 C   0  0  1  0  0  0  0  0  0  0  0  0
    6.0374   -8.2706    0.0000 C   0  0  0  0  0  0  0  0  0  0  0  0
    5.3229   -8.6831    0.0000 O   0  0  0  0  0  0  0  0  0  0  0  0
    7.4664   -8.2706    0.0000 C   0  0  0  0  0  0  0  0  0  0  0  0
    7.4664   -7.4456    0.0000 C   0  0  0  0  0  0  0  0  0  0  0  0
    8.1808   -8.6831    0.0000 C   0  0  0  0  0  0  0  0  0  0  0  0
    8.8953   -8.2706    0.0000 C   0  0  0  0  0  0  0  0  0  0  0  0
    8.8953   -7.4456    0.0000 C   0  0  0  0  0  0  0  0  0  0  0  0
    8.1808   -7.0331    0.0000 C   0  0  0  0  0  0  0  0  0  0  0  0
    9.6098   -7.0331    0.0000 O   0  0  0  0  0  0  0  0  0  0  0  0
    9.6098   -6.2081    0.0000 C   0  0  0  0  0  0  0  0  0  0  0  0
    8.8953   -5.7956    0.0000 C   0  0  0  0  0  0  0  0  0  0  0  0
    8.1808   -6.2081    0.0000 C   0  0  0  0  0  0  0  0  0  0  0  0
    2.3545  -10.7456    0.0000 C   0  0  0  0  0  0  0  0  0  0  0  0
    2.7670  -11.4601    0.0000 C   0  0  0  0  0  0  0  0  0  0  0  0
    6.7519   -7.0331    0.0000 O   0  0  0  0  0  0  0  0  0  0  0  0
   10.0223   -5.4937    0.0000 C   0  0  0  0  0  0  0  0  0  0  0  0
   10.4067   -6.4217    0.0000 C   0  0  0  0  0  0  0  0  0  0  0  0
    7.4664   -9.0956    0.0000 H   0  0  0  0  0  0  0  0  0  0  0  0
  1  2  1  0  0  0  0
  2  3  1  0  0  0  0
  3  4  1  0  0  0  0
  4  5  2  0  0  0  0
  5  6  1  0  0  0  0
  6  1  2  0  0  0  0
  4  7  1  0  0  0  0
  7  8  2  0  0  0  0
  8  9  1  0  0  0  0
  9 10  2  0  0  0  0
 10  5  1  0  0  0  0
  9 11  1  0  0  0  0
 11 12  1  0  0  0  0
 12 13  1  0  0  0  0
 13 14  1  0  0  0  0
 14 10  1  0  0  0  0
 12 15  1  0  0  0  0
 15 16  2  0  0  0  0
 15 17  1  0  0  0  0
 17 18  2  0  0  0  0
 18 19  1  0  0  0  0
 19 20  2  0  0  0  0
 20 16  1  0  0  0  0
 19 21  1  0  0  0  0
 21 22  1  0  0  0  0
 22 23  1  0  0  0  0
 23 24  2  0  0  0  0
 24 20  1  0  0  0  0
  2 25  1  0  0  0  0
  2 26  1  0  0  0  0
 16 27  1  0  0  0  0
 22 28  1  0  0  0  0
 22 29  1  0  0  0  0
 12 30  1  6  0  0  0
M  END
>  <cdx:fragmentId>
5

$$$$
