120844.cdx
  Mrv1902 05222410232D          

 52 55  0  0  0  0            999 V2000
    7.5644   -6.0611    0.0000 C   0  0  2  0  0  0  0  0  0  0  0  0
    7.5451   -5.2363    0.0000 C   0  0  0  0  0  0  0  0  0  0  0  0
    6.8211   -4.8407    0.0000 C   0  0  0  0  0  0  0  0  0  0  0  0
    6.8018   -4.0159    0.0000 C   0  0  0  0  0  0  0  0  0  0  0  0
    6.0778   -3.6203    0.0000 C   0  0  0  0  0  0  0  0  0  0  0  0
    5.3732   -4.0494    0.0000 C   0  0  0  0  0  0  0  0  0  0  0  0
    5.3926   -4.8742    0.0000 C   0  0  0  0  0  0  0  0  0  0  0  0
    6.1165   -5.2698    0.0000 C   0  0  0  0  0  0  0  0  0  0  0  0
    4.6493   -3.6537    0.0000 O   0  0  0  0  0  0  0  0  0  0  0  0
    6.1358   -6.0946    0.0000 O   0  0  0  0  0  0  0  0  0  0  0  0
    5.4892   -8.9980    0.0000 O   0  0  0  0  0  0  0  0  0  0  0  0
    6.1938   -8.5689    0.0000 C   0  0  0  0  0  0  0  0  0  0  0  0
    6.9178   -8.9645    0.0000 C   0  0  0  0  0  0  0  0  0  0  0  0
    6.1745   -7.7441    0.0000 O   0  0  0  0  0  0  0  0  0  0  0  0
    6.8791   -7.3150    0.0000 O   0  0  0  0  0  0  0  0  0  0  0  0
    6.8598   -6.4902    0.0000 C   0  0  0  0  0  0  0  0  0  0  0  0
    8.2883   -6.4567    0.0000 O   0  0  0  0  0  0  0  0  0  0  0  0
    7.6030   -7.7106    0.0000 O   0  0  0  0  0  0  0  0  0  0  0  0
    8.3077   -7.2815    0.0000 C   0  0  0  0  0  0  0  0  0  0  0  0
    9.0316   -7.6772    0.0000 C   0  0  0  0  0  0  0  0  0  0  0  0
   10.5718   -9.1111    0.0000 O   0  0  0  0  0  0  0  0  0  0  0  0
   10.5181  -10.1180    0.0000 O   0  0  0  0  0  0  0  0  0  0  0  0
    8.3657   -9.7558    0.0000 C   0  0  0  0  0  0  0  0  0  0  0  0
    9.0896  -10.1515    0.0000 C   0  0  0  0  0  0  0  0  0  0  0  0
    9.7942   -9.7224    0.0000 C   0  0  0  0  0  0  0  0  0  0  0  0
    9.7749   -8.8976    0.0000 C   0  0  0  0  0  0  0  0  0  0  0  0
    9.0509   -8.5019    0.0000 C   0  0  0  0  0  0  0  0  0  0  0  0
    8.3463   -8.9311    0.0000 C   0  0  0  0  0  0  0  0  0  0  0  0
    2.5741   -6.5907    0.0000 O   0  0  0  0  0  0  0  0  0  0  0  0
    7.6224   -8.5354    0.0000 C   0  0  0  0  0  0  0  0  0  0  0  0
    1.1649   -7.4489    0.0000 O   0  0  0  0  0  0  0  0  0  0  0  0
    2.6321   -9.0650    0.0000 C   0  0  0  0  0  0  0  0  0  0  0  0
    1.9082   -8.6694    0.0000 C   0  0  0  0  0  0  0  0  0  0  0  0
    1.8888   -7.8446    0.0000 C   0  0  0  0  0  0  0  0  0  0  0  0
    2.5935   -7.4154    0.0000 C   0  0  0  0  0  0  0  0  0  0  0  0
    3.3174   -7.8111    0.0000 C   0  0  0  0  0  0  0  0  0  0  0  0
    3.3367   -8.6359    0.0000 C   0  0  0  0  0  0  0  0  0  0  0  0
    4.0220   -7.3820    0.0000 O   0  0  0  0  0  0  0  0  0  0  0  0
    5.4506   -7.3485    0.0000 O   0  0  0  0  0  0  0  0  0  0  0  0
    4.0607   -9.0315    0.0000 C   0  0  0  0  0  0  0  0  0  0  0  0
    4.7653   -8.6024    0.0000 C   0  0  2  0  0  0  0  0  0  0  0  0
    4.7459   -7.7776    0.0000 C   0  0  0  0  0  0  0  0  0  0  0  0
    9.7362   -7.2480    0.0000 C   0  0  0  0  0  0  0  0  0  0  0  0
   10.4601   -7.6437    0.0000 C   0  0  0  0  0  0  0  0  0  0  0  0
   10.4893   -8.4682    0.0000 C   0  0  0  0  0  0  0  0  0  0  0  0
   11.2179   -8.8551    0.0000 C   0  0  0  0  0  0  0  0  0  0  0  0
   11.9174   -8.4176    0.0000 C   0  0  0  0  0  0  0  0  0  0  0  0
   11.8882   -7.5931    0.0000 C   0  0  0  0  0  0  0  0  0  0  0  0
   11.1596   -7.2062    0.0000 C   0  0  0  0  0  0  0  0  0  0  0  0
   12.5876   -7.1556    0.0000 O   0  0  0  0  0  0  0  0  0  0  0  0
   12.6460   -8.8046    0.0000 O   0  0  0  0  0  0  0  0  0  0  0  0
    6.0585   -2.7955    0.0000 O   0  0  0  0  0  0  0  0  0  0  0  0
 40 37  1  0  0  0  0
 35 29  1  0  0  0  0
 30 28  1  0  0  0  0
 27 20  1  0  0  0  0
 19 17  1  0  0  0  0
 16 10  1  0  0  0  0
 16 15  2  0  0  0  0
  1 17  1  1  0  0  0
 19 18  2  0  0  0  0
 20 19  1  0  0  0  0
 26 21  1  0  0  0  0
 25 22  1  0  0  0  0
 28 23  2  0  0  0  0
 24 23  1  0  0  0  0
 25 24  2  0  0  0  0
 26 25  1  0  0  0  0
 27 26  2  0  0  0  0
 28 27  1  0  0  0  0
 34 31  1  0  0  0  0
 13 30  2  0  0  0  0
 37 32  2  0  0  0  0
 33 32  1  0  0  0  0
 34 33  2  0  0  0  0
 35 34  1  0  0  0  0
 36 35  2  0  0  0  0
 37 36  1  0  0  0  0
 42 38  1  0  0  0  0
 42 39  2  0  0  0  0
 41 40  1  0  0  0  0
 42 41  1  0  0  0  0
  1  2  1  0  0  0  0
  3  4  1  0  0  0  0
  4  5  2  0  0  0  0
  5  6  1  0  0  0  0
  6  7  2  0  0  0  0
  7  8  1  0  0  0  0
  3  8  2  0  0  0  0
  6  9  1  0  0  0  0
  2  3  1  0  0  0  0
  1 16  1  0  0  0  0
 12 13  1  0  0  0  0
 12 14  2  0  0  0  0
 11 12  1  0  0  0  0
 41 11  1  6  0  0  0
 20 43  2  0  0  0  0
 43 44  1  0  0  0  0
 44 45  2  0  0  0  0
 45 46  1  0  0  0  0
 46 47  2  0  0  0  0
 47 48  1  0  0  0  0
 48 49  2  0  0  0  0
 49 44  1  0  0  0  0
 48 50  1  0  0  0  0
 47 51  1  0  0  0  0
  5 52  1  0  0  0  0
M  END
>  <cdx:fragmentId>
13503

$$$$
