1208.cdx
  Mrv1902 05222410212D          

 25 27  0  0  0  0            999 V2000
    4.1471   -6.0106    0.0000 C   0  0  0  0  0  0  0  0  0  0  0  0
    3.4264   -8.0709    0.0000 C   0  0  0  0  0  0  0  0  0  0  0  0
    3.4289   -7.2459    0.0000 C   0  0  0  0  0  0  0  0  0  0  0  0
    4.1446   -6.8356    0.0000 C   0  0  0  0  0  0  0  0  0  0  0  0
    4.8553   -8.0753    0.0000 O   0  0  0  0  0  0  0  0  0  0  0  0
    4.8578   -7.2503    0.0000 C   0  0  0  0  0  0  0  0  0  0  0  0
    5.8717   -8.7941    0.0000 C   0  0  0  0  0  0  0  0  0  0  0  0
    9.1522   -4.7883    0.0000 O   0  0  0  0  0  0  0  0  0  0  0  0
    7.0050   -6.0193    0.0000 O   0  0  0  0  0  0  0  0  0  0  0  0
    5.5735   -6.8400    0.0000 O   0  0  0  0  0  0  0  0  0  0  0  0
    5.4592   -8.0796    0.0000 C   0  0  0  0  0  0  0  0  0  0  0  0
    7.0025   -6.8443    0.0000 C   0  0  1  0  0  0  0  0  0  0  0  0
    6.2868   -7.2546    0.0000 C   0  0  1  0  0  0  0  0  0  0  0  0
    6.2842   -8.0796    0.0000 C   0  0  0  0  0  0  0  0  0  0  0  0
    6.9975   -8.4943    0.0000 O   0  0  0  0  0  0  0  0  0  0  0  0
    9.8603   -6.8530    0.0000 C   0  0  0  0  0  0  0  0  0  0  0  0
    9.8629   -6.0280    0.0000 C   0  0  0  0  0  0  0  0  0  0  0  0
    9.1496   -5.6133    0.0000 C   0  0  0  0  0  0  0  0  0  0  0  0
    8.4339   -6.0237    0.0000 O   0  0  0  0  0  0  0  0  0  0  0  0
    9.1421   -8.0883    0.0000 C   0  0  0  0  0  0  0  0  0  0  0  0
    9.1446   -7.2633    0.0000 C   0  0  0  0  0  0  0  0  0  0  0  0
    8.4314   -6.8487    0.0000 C   0  0  0  0  0  0  0  0  0  0  0  0
    7.7157   -7.2590    0.0000 C   0  0  0  0  0  0  0  0  0  0  0  0
    7.7132   -8.0840    0.0000 C   0  0  0  0  0  0  0  0  0  0  0  0
    8.4264   -8.4986    0.0000 C   0  0  0  0  0  0  0  0  0  0  0  0
  4  1  1  0  0  0  0
  3  2  1  0  0  0  0
  4  3  2  0  0  0  0
  6  4  1  0  0  0  0
  6  5  2  0  0  0  0
 10  6  1  0  0  0  0
 14  7  1  0  0  0  0
 18  8  2  0  0  0  0
 12  9  1  6  0  0  0
 13 10  1  1  0  0  0
 14 11  1  0  0  0  0
 12 23  1  0  0  0  0
 13 12  1  0  0  0  0
 14 13  1  0  0  0  0
 15 14  1  0  0  0  0
 24 15  1  0  0  0  0
 16 21  1  0  0  0  0
 17 16  2  0  0  0  0
 18 17  1  0  0  0  0
 19 18  1  0  0  0  0
 22 19  1  0  0  0  0
 20 25  2  0  0  0  0
 21 20  1  0  0  0  0
 22 21  2  0  0  0  0
 23 22  1  0  0  0  0
 24 23  2  0  0  0  0
 25 24  1  0  0  0  0
M  END
>  <cdx:fragmentId>
5

$$$$
