12093.cdx
  Mrv1902 05222410232D          

 14 14  0  0  0  0            999 V2000
    4.7677   -7.1981    0.0000 C   0  0  0  0  0  0  0  0  0  0  0  0
    4.7677   -8.0231    0.0000 C   0  0  0  0  0  0  0  0  0  0  0  0
    5.4821   -8.4356    0.0000 C   0  0  0  0  0  0  0  0  0  0  0  0
    6.1966   -8.0231    0.0000 C   0  0  0  0  0  0  0  0  0  0  0  0
    6.1966   -7.1981    0.0000 C   0  0  0  0  0  0  0  0  0  0  0  0
    5.4821   -6.7856    0.0000 C   0  0  0  0  0  0  0  0  0  0  0  0
    5.4821   -5.9606    0.0000 O   0  0  0  0  0  0  0  0  0  0  0  0
    5.0696   -9.1501    0.0000 O   0  0  0  0  0  0  0  0  0  0  0  0
    5.8946   -9.1501    0.0000 C   0  0  0  0  0  0  0  0  0  0  0  0
    6.7196   -9.1501    0.0000 C   0  0  0  0  0  0  0  0  0  0  0  0
    7.1321   -9.8646    0.0000 O   0  0  0  0  0  0  0  0  0  0  0  0
    7.9571   -9.8646    0.0000 C   0  0  0  0  0  0  0  0  0  0  0  0
    8.3696  -10.5790    0.0000 C   0  0  0  0  0  0  0  0  0  0  0  0
    7.1321   -8.4356    0.0000 O   0  0  0  0  0  0  0  0  0  0  0  0
  1  2  2  0  0  0  0
  2  3  1  0  0  0  0
  3  4  1  0  0  0  0
  4  5  2  0  0  0  0
  5  6  1  0  0  0  0
  6  1  1  0  0  0  0
  6  7  2  0  0  0  0
  3  8  1  0  0  0  0
  3  9  1  0  0  0  0
  9 10  1  0  0  0  0
 10 11  1  0  0  0  0
 11 12  1  0  0  0  0
 12 13  1  0  0  0  0
 10 14  2  0  0  0  0
M  END
>  <cdx:fragmentId>
5

$$$$
