japonicone C.cdx
  Mrv1902 05222410242D          

 36 42  0  0  0  0            999 V2000
    2.5402   -5.0944    0.0000 C   0  0  0  0  0  0  0  0  0  0  0  0
    2.5402   -5.9194    0.0000 C   0  0  0  0  0  0  0  0  0  0  0  0
    3.2546   -6.3319    0.0000 C   0  0  0  0  0  0  0  0  0  0  0  0
    3.9691   -5.9194    0.0000 C   0  0  0  0  0  0  0  0  0  0  0  0
    3.9691   -5.0944    0.0000 C   0  0  2  0  0  0  0  0  0  0  0  0
    3.2546   -4.6819    0.0000 C   0  0  2  0  0  0  0  0  0  0  0  0
    4.6836   -6.3319    0.0000 C   0  0  0  0  0  0  0  0  0  0  0  0
    5.3980   -5.9194    0.0000 C   0  0  1  0  0  0  0  0  0  0  0  0
    5.3980   -5.0944    0.0000 C   0  0  1  0  0  0  0  0  0  0  0  0
    4.6836   -4.6819    0.0000 C   0  0  0  0  0  0  0  0  0  0  0  0
    6.1827   -6.1743    0.0000 C   0  0  2  0  0  0  0  0  0  0  0  0
    6.6676   -5.5069    0.0000 C   0  0  0  0  0  0  0  0  0  0  0  0
    6.1827   -4.8394    0.0000 O   0  0  0  0  0  0  0  0  0  0  0  0
    7.4926   -5.5069    0.0000 O   0  0  0  0  0  0  0  0  0  0  0  0
    7.0077   -6.1743    0.0000 C   0  0  1  0  0  0  0  0  0  0  0  0
    7.7221   -6.5868    0.0000 C   0  0  0  0  0  0  0  0  0  0  0  0
    7.5086   -7.3837    0.0000 C   0  0  0  0  0  0  0  0  0  0  0  0
    6.6836   -7.3837    0.0000 C   0  0  2  0  0  0  0  0  0  0  0  0
    6.1692   -8.0287    0.0000 C   0  0  2  0  0  0  0  0  0  0  0  0
    6.3528   -8.8330    0.0000 C   0  0  0  0  0  0  0  0  0  0  0  0
    7.0961   -9.1910    0.0000 C   0  0  1  0  0  0  0  0  0  0  0  0
    7.8394   -8.8330    0.0000 C   0  0  2  0  0  0  0  0  0  0  0  0
    8.0230   -8.0287    0.0000 C   0  0  0  0  0  0  0  0  0  0  0  0
    8.5190   -6.3733    0.0000 C   0  0  0  0  0  0  0  0  0  0  0  0
    7.2068  -10.0085    0.0000 O   0  0  0  0  0  0  0  0  0  0  0  0
    8.0186  -10.1558    0.0000 C   0  0  0  0  0  0  0  0  0  0  0  0
    8.4095   -9.4293    0.0000 C   0  0  0  0  0  0  0  0  0  0  0  0
    9.2064   -9.2158    0.0000 C   0  0  0  0  0  0  0  0  0  0  0  0
    8.4311  -10.8703    0.0000 O   0  0  0  0  0  0  0  0  0  0  0  0
    3.2546   -3.8569    0.0000 O   0  0  0  0  0  0  0  0  0  0  0  0
    3.2546   -7.1569    0.0000 C   0  0  0  0  0  0  0  0  0  0  0  0
    6.4701   -6.7106    0.0000 C   0  0  0  0  0  0  0  0  0  0  0  0
    5.9764   -6.9094    0.0000 C   0  0  0  0  0  0  0  0  0  0  0  0
    5.6669   -7.2698    0.0000 O   0  0  0  0  0  0  0  0  0  0  0  0
    5.3723   -8.2422    0.0000 C   0  0  0  0  0  0  0  0  0  0  0  0
    3.9691   -4.2694    0.0000 C   0  0  0  0  0  0  0  0  0  0  0  0
  1  2  1  0  0  0  0
  2  3  1  0  0  0  0
  3  4  2  0  0  0  0
  4  5  1  0  0  0  0
  5  6  1  0  0  0  0
  6  1  1  0  0  0  0
  4  7  1  0  0  0  0
  7  8  1  0  0  0  0
  8  9  1  0  0  0  0
  9 10  1  0  0  0  0
 10  5  1  0  0  0  0
  8 11  1  1  0  0  0
 11 12  1  0  0  0  0
 12 13  1  0  0  0  0
  9 13  1  1  0  0  0
 12 14  2  0  0  0  0
 11 15  1  0  0  0  0
 15 16  1  0  0  0  0
 16 17  2  0  0  0  0
 17 18  1  0  0  0  0
 18 19  1  0  0  0  0
 19 20  1  0  0  0  0
 20 21  1  0  0  0  0
 21 22  1  0  0  0  0
 22 23  1  0  0  0  0
 23 17  1  0  0  0  0
 16 24  1  0  0  0  0
 21 25  1  1  0  0  0
 25 26  1  0  0  0  0
 26 27  1  0  0  0  0
 22 27  1  6  0  0  0
 27 28  2  0  0  0  0
 26 29  2  0  0  0  0
  6 30  1  1  0  0  0
  3 31  1  0  0  0  0
 18 32  1  6  0  0  0
 15 32  1  6  0  0  0
 11 33  1  1  0  0  0
 32 34  1  0  0  0  0
 18 33  1  1  0  0  0
 19 35  1  6  0  0  0
  5 36  1  1  0  0  0
M  END
>  <cdx:fragmentId>
5

$$$$
