12091.cdx
  Mrv1902 05222410222D          

 27 29  0  0  0  0            999 V2000
    5.2281   -5.5500    0.0000 C   0  0  2  0  0  0  0  0  0  0  0  0
    4.5172   -5.1314    0.0000 O   0  0  0  0  0  0  0  0  0  0  0  0
    3.7992   -5.5377    0.0000 C   0  0  1  0  0  0  0  0  0  0  0  0
    3.7921   -6.3627    0.0000 C   0  0  2  0  0  0  0  0  0  0  0  0
    4.5030   -6.7813    0.0000 C   0  0  1  0  0  0  0  0  0  0  0  0
    5.2210   -6.3750    0.0000 C   0  0  1  0  0  0  0  0  0  0  0  0
    3.0848   -5.1252    0.0000 C   0  0  0  0  0  0  0  0  0  0  0  0
    4.5030   -7.6063    0.0000 O   0  0  0  0  0  0  0  0  0  0  0  0
    5.9355   -6.7875    0.0000 O   0  0  0  0  0  0  0  0  0  0  0  0
    3.0777   -6.7752    0.0000 O   0  0  0  0  0  0  0  0  0  0  0  0
    2.3703   -5.5377    0.0000 O   0  0  0  0  0  0  0  0  0  0  0  0
    5.9461   -5.1437    0.0000 O   0  0  0  0  0  0  0  0  0  0  0  0
    7.4450   -4.9192    0.0000 C   0  0  0  0  0  0  0  0  0  0  0  0
    8.1594   -4.5067    0.0000 O   0  0  0  0  0  0  0  0  0  0  0  0
    6.6558   -4.6787    0.0000 H   0  0  0  0  0  0  0  0  0  0  0  0
    6.6407   -2.2038    0.0000 H   0  0  0  0  0  0  0  0  0  0  0  0
    5.2043   -1.3919    0.0000 O   0  0  0  0  0  0  0  0  0  0  0  0
    5.9188   -1.8044    0.0000 C   0  0  0  0  0  0  0  0  0  0  0  0
    5.9188   -2.6294    0.0000 C   0  0  0  0  0  0  0  0  0  0  0  0
    5.2120   -3.0550    0.0000 C   0  0  0  0  0  0  0  0  0  0  0  0
    5.2271   -3.8798    0.0000 O   0  0  0  0  0  0  0  0  0  0  0  0
    5.9490   -4.2792    0.0000 C   0  0  2  0  0  0  0  0  0  0  0  0
    6.6407   -3.0288    0.0000 C   0  0  2  0  0  0  0  0  0  0  0  0
    6.6558   -3.8537    0.0000 C   0  0  1  0  0  0  0  0  0  0  0  0
    7.4450   -4.0942    0.0000 C   0  0  1  0  0  0  0  0  0  0  0  0
    7.9176   -3.4180    0.0000 C   0  0  0  0  0  0  0  0  0  0  0  0
    7.4205   -2.7595    0.0000 C   0  0  0  0  0  0  0  0  0  0  0  0
  1  2  1  0  0  0  0
  2  3  1  0  0  0  0
  3  4  1  0  0  0  0
  4  5  1  0  0  0  0
  5  6  1  0  0  0  0
  6  1  1  0  0  0  0
  3  7  1  1  0  0  0
  5  8  1  1  0  0  0
  6  9  1  6  0  0  0
  4 10  1  6  0  0  0
  7 11  1  0  0  0  0
  1 12  1  1  0  0  0
 25 13  1  1  0  0  0
 25 14  1  6  0  0  0
 24 15  1  6  0  0  0
 23 16  1  6  0  0  0
 18 17  2  0  0  0  0
 19 18  1  0  0  0  0
 19 23  1  0  0  0  0
 20 19  2  0  0  0  0
 21 20  1  0  0  0  0
 22 21  1  0  0  0  0
 24 22  1  0  0  0  0
 23 27  1  0  0  0  0
 24 23  1  0  0  0  0
 25 24  1  0  0  0  0
 26 25  1  0  0  0  0
 27 26  1  0  0  0  0
 22 12  1  6  0  0  0
M  END
>  <cdx:fragmentId>
91

$$$$
