121.cdx
  Mrv1902 05222410272D          

 13 13  0  0  0  0            999 V2000
    9.1914  -10.2253    0.0000 C   0  0  0  0  0  0  0  0  0  0  0  0
    8.4769  -10.6378    0.0000 C   0  0  0  0  0  0  0  0  0  0  0  0
    9.1914   -9.4003    0.0000 O   0  0  0  0  0  0  0  0  0  0  0  0
    9.9058  -10.6378    0.0000 O   0  0  0  0  0  0  0  0  0  0  0  0
    7.7624  -10.2253    0.0000 C   0  0  0  0  0  0  0  0  0  0  0  0
    7.0480  -10.6378    0.0000 C   0  0  0  0  0  0  0  0  0  0  0  0
    6.3335  -10.2253    0.0000 C   0  0  0  0  0  0  0  0  0  0  0  0
    5.6190  -10.6378    0.0000 C   0  0  0  0  0  0  0  0  0  0  0  0
    5.6190  -11.4628    0.0000 C   0  0  0  0  0  0  0  0  0  0  0  0
    4.9045  -11.8753    0.0000 C   0  0  0  0  0  0  0  0  0  0  0  0
    4.1901  -11.4628    0.0000 C   0  0  0  0  0  0  0  0  0  0  0  0
    4.1901  -10.6378    0.0000 C   0  0  0  0  0  0  0  0  0  0  0  0
    4.9045  -10.2253    0.0000 C   0  0  0  0  0  0  0  0  0  0  0  0
  1  2  1  0  0  0  0
  1  3  2  0  0  0  0
  1  4  1  0  0  0  0
  5  6  1  0  0  0  0
  6  7  2  0  0  0  0
  7  8  1  0  0  0  0
  8  9  1  0  0  0  0
  9 10  2  0  0  0  0
 10 11  1  0  0  0  0
 11 12  2  0  0  0  0
 12 13  1  0  0  0  0
  8 13  2  0  0  0  0
  2  5  2  0  0  0  0
M  END
>  <cdx:groupId>
41

>  <cdx:fragmentId>
13

$$$$
