japonicone Q.cdx
  Mrv1902 05222410212D          

 47 52  0  0  0  0            999 V2000
    4.2520   -5.8369    0.0000 C   0  0  0  0  0  0  0  0  0  0  0  0
    4.9665   -6.2494    0.0000 C   0  0  1  0  0  0  0  0  0  0  0  0
    5.6810   -5.8369    0.0000 C   0  0  0  0  0  0  0  0  0  0  0  0
    5.6810   -5.0119    0.0000 C   0  0  0  0  0  0  0  0  0  0  0  0
    4.9665   -4.5994    0.0000 O   0  0  0  0  0  0  0  0  0  0  0  0
    6.3954   -6.2494    0.0000 C   0  0  2  0  0  0  0  0  0  0  0  0
    7.1099   -5.8369    0.0000 C   0  0  1  0  0  0  0  0  0  0  0  0
    7.1099   -5.0119    0.0000 C   0  0  1  0  0  0  0  0  0  0  0  0
    6.3954   -4.5994    0.0000 C   0  0  0  0  0  0  0  0  0  0  0  0
    7.8945   -6.0918    0.0000 C   0  0  2  0  0  0  0  0  0  0  0  0
    8.3795   -5.4244    0.0000 C   0  0  0  0  0  0  0  0  0  0  0  0
    7.8945   -4.7569    0.0000 O   0  0  0  0  0  0  0  0  0  0  0  0
    9.2045   -5.4244    0.0000 O   0  0  0  0  0  0  0  0  0  0  0  0
    8.7195   -6.0918    0.0000 C   0  0  1  0  0  0  0  0  0  0  0  0
    9.4340   -6.5043    0.0000 C   0  0  0  0  0  0  0  0  0  0  0  0
    9.2205   -7.3012    0.0000 C   0  0  0  0  0  0  0  0  0  0  0  0
    8.3955   -7.3012    0.0000 C   0  0  2  0  0  0  0  0  0  0  0  0
    7.8811   -7.9462    0.0000 C   0  0  2  0  0  0  0  0  0  0  0  0
    8.0647   -8.7505    0.0000 C   0  0  0  0  0  0  0  0  0  0  0  0
    8.8080   -9.1085    0.0000 C   0  0  1  0  0  0  0  0  0  0  0  0
    9.5513   -8.7505    0.0000 C   0  0  2  0  0  0  0  0  0  0  0  0
    9.7349   -7.9462    0.0000 C   0  0  0  0  0  0  0  0  0  0  0  0
   10.2309   -6.2908    0.0000 C   0  0  0  0  0  0  0  0  0  0  0  0
    8.9187   -9.9260    0.0000 O   0  0  0  0  0  0  0  0  0  0  0  0
    9.7305  -10.0733    0.0000 C   0  0  0  0  0  0  0  0  0  0  0  0
   10.1214   -9.3468    0.0000 C   0  0  0  0  0  0  0  0  0  0  0  0
   10.9183   -9.1333    0.0000 C   0  0  0  0  0  0  0  0  0  0  0  0
   10.1430  -10.7878    0.0000 O   0  0  0  0  0  0  0  0  0  0  0  0
    4.9665   -7.0744    0.0000 C   0  0  0  0  0  0  0  0  0  0  0  0
    8.1820   -6.6281    0.0000 C   0  0  0  0  0  0  0  0  0  0  0  0
    7.6883   -6.8269    0.0000 C   0  0  0  0  0  0  0  0  0  0  0  0
    7.7789   -7.4664    0.0000 O   0  0  0  0  0  0  0  0  0  0  0  0
    7.2509   -7.4664    0.0000 C   0  0  0  0  0  0  0  0  0  0  0  0
    6.9869   -7.9236    0.0000 C   0  0  0  0  0  0  0  0  0  0  0  0
    6.9869   -7.0091    0.0000 O   0  0  0  0  0  0  0  0  0  0  0  0
    2.8231   -5.0119    0.0000 O   0  0  0  0  0  0  0  0  0  0  0  0
    2.8231   -5.8369    0.0000 C   0  0  0  0  0  0  0  0  0  0  0  0
    3.5376   -6.2494    0.0000 C   0  0  0  0  0  0  0  0  0  0  0  0
    6.3954   -7.0744    0.0000 O   0  0  0  0  0  0  0  0  0  0  0  0
    7.0842   -8.1597    0.0000 C   0  0  0  0  0  0  0  0  0  0  0  0
    6.0338   -7.4589    0.0000 C   0  0  0  0  0  0  0  0  0  0  0  0
    6.1893   -7.9635    0.0000 C   0  0  0  0  0  0  0  0  0  0  0  0
    5.5191   -7.3412    0.0000 O   0  0  0  0  0  0  0  0  0  0  0  0
    5.8534   -8.2581    0.0000 C   0  0  0  0  0  0  0  0  0  0  0  0
    6.0257   -8.7250    0.0000 C   0  0  0  0  0  0  0  0  0  0  0  0
    5.3996   -8.1550    0.0000 C   0  0  0  0  0  0  0  0  0  0  0  0
    5.6692   -8.9784    0.0000 C   0  0  0  0  0  0  0  0  0  0  0  0
  1  2  1  0  0  0  0
  2  3  1  0  0  0  0
  3  4  2  0  0  0  0
  4  5  1  0  0  0  0
  3  6  1  0  0  0  0
  6  7  1  0  0  0  0
  7  8  1  0  0  0  0
  8  9  1  0  0  0  0
  9  4  1  0  0  0  0
  7 10  1  1  0  0  0
 10 11  1  0  0  0  0
 11 12  1  0  0  0  0
  8 12  1  1  0  0  0
 11 13  2  0  0  0  0
 10 14  1  0  0  0  0
 14 15  1  0  0  0  0
 15 16  2  0  0  0  0
 16 17  1  0  0  0  0
 17 18  1  0  0  0  0
 18 19  1  0  0  0  0
 19 20  1  0  0  0  0
 20 21  1  0  0  0  0
 21 22  1  0  0  0  0
 22 16  1  0  0  0  0
 15 23  1  0  0  0  0
 20 24  1  1  0  0  0
 24 25  1  0  0  0  0
 25 26  1  0  0  0  0
 21 26  1  6  0  0  0
 26 27  2  0  0  0  0
 25 28  2  0  0  0  0
  2 29  1  1  0  0  0
 17 30  1  6  0  0  0
 14 30  1  6  0  0  0
 10 31  1  1  0  0  0
 30 32  1  0  0  0  0
 17 31  1  1  0  0  0
 32 33  1  0  0  0  0
 33 34  1  0  0  0  0
 33 35  2  0  0  0  0
 36 37  1  0  0  0  0
 37 38  1  0  0  0  0
 38  1  1  0  0  0  0
  6 39  1  6  0  0  0
 18 40  1  6  0  0  0
 41 42  1  0  0  0  0
 41 43  2  0  0  0  0
 41 39  1  0  0  0  0
 42 44  1  0  0  0  0
 44 45  1  0  0  0  0
 44 46  1  0  0  0  0
 45 47  1  0  0  0  0
M  END
>  <cdx:fragmentId>
5

$$$$
