12100.cdx
  Mrv1902 05222410232D          

  9  9  0  0  0  0            999 V2000
    5.2000   -4.0631    0.0000 C   0  0  0  0  0  0  0  0  0  0  0  0
    4.4855   -4.4756    0.0000 C   0  0  0  0  0  0  0  0  0  0  0  0
    3.7710   -4.0631    0.0000 C   0  0  0  0  0  0  0  0  0  0  0  0
    3.7710   -3.2381    0.0000 C   0  0  0  0  0  0  0  0  0  0  0  0
    4.4855   -2.8256    0.0000 C   0  0  0  0  0  0  0  0  0  0  0  0
    5.2000   -3.2381    0.0000 C   0  0  0  0  0  0  0  0  0  0  0  0
    3.0566   -4.4756    0.0000 C   0  0  0  0  0  0  0  0  0  0  0  0
    5.9145   -4.4756    0.0000 C   0  0  0  0  0  0  0  0  0  0  0  0
    6.6289   -4.0631    0.0000 C   0  0  0  0  0  0  0  0  0  0  0  0
  1  2  1  0  0  0  0
  2  3  2  0  0  0  0
  3  4  1  0  0  0  0
  4  5  2  0  0  0  0
  5  6  1  0  0  0  0
  1  6  2  0  0  0  0
  3  7  1  0  0  0  0
  8  9  1  0  0  0  0
  1  8  1  0  0  0  0
M  END
>  <cdx:groupId>
29

>  <cdx:fragmentId>
5

$$$$
