12111.cdx
  Mrv1902 05222410252D          

 15 16  0  0  0  0            999 V2000
    9.6399   -6.6375    0.0000 C   0  0  0  0  0  0  0  0  0  0  0  0
    9.6399   -5.8125    0.0000 C   0  0  0  0  0  0  0  0  0  0  0  0
    8.9254   -5.4000    0.0000 C   0  0  0  0  0  0  0  0  0  0  0  0
    8.2110   -5.8125    0.0000 C   0  0  0  0  0  0  0  0  0  0  0  0
    8.2110   -6.6375    0.0000 C   0  0  0  0  0  0  0  0  0  0  0  0
    8.9254   -7.0500    0.0000 C   0  0  0  0  0  0  0  0  0  0  0  0
   10.3544   -7.0500    0.0000 O   0  0  0  0  0  0  0  0  0  0  0  0
    7.4965   -5.4000    0.0000 C   0  0  0  0  0  0  0  0  0  0  0  0
    6.7820   -5.8125    0.0000 C   0  0  0  0  0  0  0  0  0  0  0  0
    6.0676   -5.4000    0.0000 C   0  0  0  0  0  0  0  0  0  0  0  0
    5.3531   -5.8125    0.0000 C   0  0  0  0  0  0  0  0  0  0  0  0
    5.3531   -6.6375    0.0000 C   0  0  0  0  0  0  0  0  0  0  0  0
    6.0676   -7.0500    0.0000 C   0  0  0  0  0  0  0  0  0  0  0  0
    6.7820   -6.6375    0.0000 C   0  0  0  0  0  0  0  0  0  0  0  0
    4.6386   -7.0500    0.0000 O   0  0  0  0  0  0  0  0  0  0  0  0
  1  2  1  0  0  0  0
  2  3  2  0  0  0  0
  3  4  1  0  0  0  0
  4  5  2  0  0  0  0
  5  6  1  0  0  0  0
  1  6  2  0  0  0  0
  1  7  1  0  0  0  0
  9 10  1  0  0  0  0
 10 11  2  0  0  0  0
 11 12  1  0  0  0  0
 12 13  2  0  0  0  0
 13 14  1  0  0  0  0
  9 14  2  0  0  0  0
 12 15  1  0  0  0  0
  8  9  1  0  0  0  0
  4  8  1  0  0  0  0
M  END
>  <cdx:fragmentId>
21

$$$$
