12127.cdx
  Mrv1902 05222410222D          

 11 11  0  0  0  0            999 V2000
    8.7501   -4.3389    0.0000 C   0  0  0  0  0  0  0  0  0  0  0  0
    8.0357   -3.9264    0.0000 C   0  0  0  0  0  0  0  0  0  0  0  0
    7.3212   -4.3389    0.0000 C   0  0  0  0  0  0  0  0  0  0  0  0
    6.6067   -3.9264    0.0000 C   0  0  0  0  0  0  0  0  0  0  0  0
    6.6067   -3.1014    0.0000 C   0  0  0  0  0  0  0  0  0  0  0  0
    7.3212   -2.6889    0.0000 C   0  0  0  0  0  0  0  0  0  0  0  0
    8.0357   -3.1014    0.0000 C   0  0  0  0  0  0  0  0  0  0  0  0
    9.4646   -3.9264    0.0000 O   0  0  0  0  0  0  0  0  0  0  0  0
    5.8922   -2.6889    0.0000 O   0  0  0  0  0  0  0  0  0  0  0  0
    5.1778   -3.1014    0.0000 C   0  0  0  0  0  0  0  0  0  0  0  0
    5.8922   -4.3389    0.0000 O   0  0  0  0  0  0  0  0  0  0  0  0
  1  2  1  0  0  0  0
  2  3  1  0  0  0  0
  3  4  2  0  0  0  0
  4  5  1  0  0  0  0
  5  6  2  0  0  0  0
  6  7  1  0  0  0  0
  2  7  2  0  0  0  0
  1  8  2  0  0  0  0
  9 10  1  0  0  0  0
  5  9  1  0  0  0  0
  4 11  1  0  0  0  0
M  END
>  <cdx:fragmentId>
5

$$$$
