12122.cdx
  Mrv1902 05222410212D          

 56 60  0  0  0  0            999 V2000
    6.8095   -7.2806    0.0000 C   0  0  2  0  0  0  0  0  0  0  0  0
    6.8095   -8.1056    0.0000 C   0  0  2  0  0  0  0  0  0  0  0  0
    7.5240   -8.5181    0.0000 C   0  0  1  0  0  0  0  0  0  0  0  0
    8.2385   -8.1056    0.0000 C   0  0  2  0  0  0  0  0  0  0  0  0
    8.2385   -7.2806    0.0000 C   0  0  1  0  0  0  0  0  0  0  0  0
    7.5240   -6.8681    0.0000 O   0  0  0  0  0  0  0  0  0  0  0  0
    6.1084   -4.6142    0.0000 O   0  0  0  0  0  0  0  0  0  0  0  0
    5.6893   -5.3248    0.0000 C   0  0  1  0  0  0  0  0  0  0  0  0
    6.0951   -6.0431    0.0000 O   0  0  0  0  0  0  0  0  0  0  0  0
    6.0951   -6.8681    0.0000 C   0  0  0  0  0  0  0  0  0  0  0  0
    8.9529   -6.8681    0.0000 O   0  0  0  0  0  0  0  0  0  0  0  0
    6.1218   -3.1854    0.0000 C   0  0  0  0  0  0  0  0  0  0  0  0
    5.7026   -3.8959    0.0000 C   0  0  2  0  0  0  0  0  0  0  0  0
    4.8777   -3.8882    0.0000 C   0  0  2  0  0  0  0  0  0  0  0  0
    4.4585   -4.5988    0.0000 C   0  0  1  0  0  0  0  0  0  0  0  0
    4.8643   -5.3171    0.0000 C   0  0  1  0  0  0  0  0  0  0  0  0
    5.3806   -7.2806    0.0000 O   0  0  0  0  0  0  0  0  0  0  0  0
    5.3806   -8.1056    0.0000 C   0  0  0  0  0  0  0  0  0  0  0  0
    6.0951   -8.5181    0.0000 O   0  0  0  0  0  0  0  0  0  0  0  0
    8.9529   -8.5181    0.0000 O   0  0  0  0  0  0  0  0  0  0  0  0
    9.6674   -7.2806    0.0000 C   0  0  0  0  0  0  0  0  0  0  0  0
   11.0964   -8.1056    0.0000 C   0  0  0  0  0  0  0  0  0  0  0  0
   11.0964   -7.2806    0.0000 C   0  0  0  0  0  0  0  0  0  0  0  0
   10.3819   -6.8681    0.0000 C   0  0  0  0  0  0  0  0  0  0  0  0
   11.8108   -8.5181    0.0000 C   0  0  0  0  0  0  0  0  0  0  0  0
   12.5253   -8.1056    0.0000 C   0  0  0  0  0  0  0  0  0  0  0  0
   12.5253   -7.2806    0.0000 C   0  0  0  0  0  0  0  0  0  0  0  0
   11.8108   -6.8681    0.0000 C   0  0  0  0  0  0  0  0  0  0  0  0
   13.2398   -8.5181    0.0000 O   0  0  0  0  0  0  0  0  0  0  0  0
   13.2398   -6.8681    0.0000 O   0  0  0  0  0  0  0  0  0  0  0  0
    6.0951   -9.3431    0.0000 O   0  0  0  0  0  0  0  0  0  0  0  0
    6.8095   -9.7556    0.0000 C   0  0  1  0  0  0  0  0  0  0  0  0
    7.5240   -9.3431    0.0000 O   0  0  0  0  0  0  0  0  0  0  0  0
    4.6661   -8.5181    0.0000 C   0  0  0  0  0  0  0  0  0  0  0  0
    4.6661   -9.3431    0.0000 C   0  0  0  0  0  0  0  0  0  0  0  0
    5.3806   -9.7556    0.0000 C   0  0  1  0  0  0  0  0  0  0  0  0
    5.3806  -10.5806    0.0000 C   0  0  1  0  0  0  0  0  0  0  0  0
    6.0951  -10.9931    0.0000 C   0  0  2  0  0  0  0  0  0  0  0  0
    6.8095  -10.5806    0.0000 C   0  0  1  0  0  0  0  0  0  0  0  0
    3.9516   -8.1056    0.0000 C   0  0  0  0  0  0  0  0  0  0  0  0
    3.2372   -8.5181    0.0000 C   0  0  0  0  0  0  0  0  0  0  0  0
    3.2372   -9.3431    0.0000 C   0  0  0  0  0  0  0  0  0  0  0  0
    2.5227   -8.1056    0.0000 C   0  0  0  0  0  0  0  0  0  0  0  0
    1.8082   -8.5181    0.0000 C   0  0  0  0  0  0  0  0  0  0  0  0
    1.8082   -9.3431    0.0000 C   0  0  0  0  0  0  0  0  0  0  0  0
    2.5227   -9.7556    0.0000 C   0  0  0  0  0  0  0  0  0  0  0  0
    1.0938   -8.1056    0.0000 O   0  0  0  0  0  0  0  0  0  0  0  0
    0.3793   -8.5181    0.0000 C   0  0  0  0  0  0  0  0  0  0  0  0
    1.0938   -9.7556    0.0000 O   0  0  0  0  0  0  0  0  0  0  0  0
    5.7160   -2.4671    0.0000 O   0  0  0  0  0  0  0  0  0  0  0  0
    3.6335   -4.5911    0.0000 O   0  0  0  0  0  0  0  0  0  0  0  0
    4.4451   -6.0277    0.0000 O   0  0  0  0  0  0  0  0  0  0  0  0
    4.4719   -3.1699    0.0000 O   0  0  0  0  0  0  0  0  0  0  0  0
    6.0951  -11.8181    0.0000 O   0  0  0  0  0  0  0  0  0  0  0  0
    7.5240  -10.9931    0.0000 O   0  0  0  0  0  0  0  0  0  0  0  0
    4.6661  -10.9931    0.0000 O   0  0  0  0  0  0  0  0  0  0  0  0
  1  2  1  0  0  0  0
  2  3  1  0  0  0  0
  3  4  1  0  0  0  0
  4  5  1  0  0  0  0
  5  6  1  0  0  0  0
  6  1  1  0  0  0  0
  7  8  1  0  0  0  0
  8  9  1  1  0  0  0
  9 10  1  0  0  0  0
  1 10  1  1  0  0  0
  5 11  1  1  0  0  0
 13 12  1  1  0  0  0
 13  7  1  0  0  0  0
 13 14  1  0  0  0  0
 14 15  1  0  0  0  0
 15 16  1  0  0  0  0
 16  8  1  0  0  0  0
 17 18  2  0  0  0  0
 18 19  1  0  0  0  0
  2 19  1  6  0  0  0
  4 20  1  6  0  0  0
 21 11  1  0  0  0  0
 22 23  2  0  0  0  0
 23 24  1  0  0  0  0
 24 21  1  0  0  0  0
 22 25  1  0  0  0  0
 25 26  2  0  0  0  0
 26 27  1  0  0  0  0
 27 28  2  0  0  0  0
 28 23  1  0  0  0  0
 26 29  1  0  0  0  0
 30 27  1  0  0  0  0
 31 32  1  0  0  0  0
 32 33  1  1  0  0  0
  3 33  1  1  0  0  0
 18 34  1  0  0  0  0
 36 35  1  6  0  0  0
 36 31  1  0  0  0  0
 36 37  1  0  0  0  0
 37 38  1  0  0  0  0
 38 39  1  0  0  0  0
 39 32  1  0  0  0  0
 34 40  2  0  0  0  0
 40 41  1  0  0  0  0
 41 42  1  0  0  0  0
 41 43  2  0  0  0  0
 43 44  1  0  0  0  0
 44 45  2  0  0  0  0
 45 46  1  0  0  0  0
 46 42  2  0  0  0  0
 44 47  1  0  0  0  0
 47 48  1  0  0  0  0
 49 45  1  0  0  0  0
 12 50  1  0  0  0  0
 15 51  1  1  0  0  0
 16 52  1  6  0  0  0
 14 53  1  6  0  0  0
 38 54  1  6  0  0  0
 39 55  1  6  0  0  0
 37 56  1  1  0  0  0
M  END
>  <cdx:fragmentId>
5

$$$$
