121288.cdx
  Mrv1902 05222410192D          

 41 45  0  0  0  0            999 V2000
   11.1342   -7.2618    0.0000 C   0  0  2  0  0  0  0  0  0  0  0  0
   11.9188   -7.5167    0.0000 C   0  0  1  0  0  0  0  0  0  0  0  0
   12.7393   -7.6030    0.0000 O   0  0  0  0  0  0  0  0  0  0  0  0
   12.4037   -6.8493    0.0000 C   0  0  1  0  0  0  0  0  0  0  0  0
   11.9188   -6.1818    0.0000 C   0  0  2  0  0  0  0  0  0  0  0  0
   11.1342   -6.4368    0.0000 C   0  0  2  0  0  0  0  0  0  0  0  0
   10.4197   -6.0243    0.0000 C   0  0  0  0  0  0  0  0  0  0  0  0
    9.7052   -6.4368    0.0000 C   0  0  0  0  0  0  0  0  0  0  0  0
    9.7052   -7.2618    0.0000 O   0  0  0  0  0  0  0  0  0  0  0  0
   10.4197   -7.6743    0.0000 C   0  0  1  0  0  0  0  0  0  0  0  0
   10.4197   -8.4993    0.0000 O   0  0  0  0  0  0  0  0  0  0  0  0
    8.9908   -8.4993    0.0000 O   0  0  0  0  0  0  0  0  0  0  0  0
    9.7052   -8.9118    0.0000 C   0  0  2  0  0  0  0  0  0  0  0  0
    9.7052   -9.7368    0.0000 C   0  0  1  0  0  0  0  0  0  0  0  0
    8.9908  -10.1493    0.0000 C   0  0  2  0  0  0  0  0  0  0  0  0
    8.2763   -9.7368    0.0000 C   0  0  1  0  0  0  0  0  0  0  0  0
    8.2763   -8.9118    0.0000 C   0  0  1  0  0  0  0  0  0  0  0  0
    7.5618   -8.4993    0.0000 C   0  0  0  0  0  0  0  0  0  0  0  0
    6.8474   -8.9118    0.0000 O   0  0  0  0  0  0  0  0  0  0  0  0
    7.5618  -10.1493    0.0000 O   0  0  0  0  0  0  0  0  0  0  0  0
    8.9908  -10.9743    0.0000 O   0  0  0  0  0  0  0  0  0  0  0  0
   10.4197  -10.1493    0.0000 O   0  0  0  0  0  0  0  0  0  0  0  0
   11.7473   -8.3237    0.0000 C   0  0  0  0  0  0  0  0  0  0  0  0
   12.3306   -8.9071    0.0000 O   0  0  0  0  0  0  0  0  0  0  0  0
   11.1342   -8.0868    0.0000 H   0  0  0  0  0  0  0  0  0  0  0  0
   13.1182   -6.4368    0.0000 H   0  0  0  0  0  0  0  0  0  0  0  0
   11.2204   -5.6163    0.0000 H   0  0  0  0  0  0  0  0  0  0  0  0
   12.1737   -5.3972    0.0000 O   0  0  0  0  0  0  0  0  0  0  0  0
    6.1329   -8.4993    0.0000 C   0  0  0  0  0  0  0  0  0  0  0  0
    5.4184   -8.9118    0.0000 C   0  0  0  0  0  0  0  0  0  0  0  0
    6.1329   -7.6743    0.0000 O   0  0  0  0  0  0  0  0  0  0  0  0
    4.7039   -8.4993    0.0000 C   0  0  0  0  0  0  0  0  0  0  0  0
    3.9895   -8.9118    0.0000 C   0  0  0  0  0  0  0  0  0  0  0  0
    3.2750   -8.4993    0.0000 C   0  0  0  0  0  0  0  0  0  0  0  0
    2.5605   -8.9118    0.0000 C   0  0  0  0  0  0  0  0  0  0  0  0
    2.5605   -9.7368    0.0000 C   0  0  0  0  0  0  0  0  0  0  0  0
    3.2750  -10.1493    0.0000 C   0  0  0  0  0  0  0  0  0  0  0  0
    3.9895   -9.7368    0.0000 C   0  0  0  0  0  0  0  0  0  0  0  0
    1.8461  -10.1493    0.0000 O   0  0  0  0  0  0  0  0  0  0  0  0
    1.8461   -8.4993    0.0000 O   0  0  0  0  0  0  0  0  0  0  0  0
    1.1316   -8.9118    0.0000 C   0  0  0  0  0  0  0  0  0  0  0  0
  1  2  1  0  0  0  0
  2  3  1  0  0  0  0
  3  4  1  0  0  0  0
  4  5  1  0  0  0  0
  5  6  1  0  0  0  0
  6  7  1  0  0  0  0
  7  8  2  0  0  0  0
  8  9  1  0  0  0  0
  9 10  1  0  0  0  0
  1 10  1  0  0  0  0
  1  6  1  0  0  0  0
  2  4  1  0  0  0  0
 12 13  1  0  0  0  0
 13 14  1  0  0  0  0
 14 15  1  0  0  0  0
 15 16  1  0  0  0  0
 16 17  1  0  0  0  0
 12 17  1  0  0  0  0
 18 19  1  0  0  0  0
 17 18  1  1  0  0  0
 16 20  1  6  0  0  0
 15 21  1  1  0  0  0
 14 22  1  6  0  0  0
 13 11  1  1  0  0  0
 10 11  1  6  0  0  0
 23 24  1  0  0  0  0
  2 23  1  1  0  0  0
  5 28  1  6  0  0  0
  1 25  1  6  0  0  0
  4 26  1  1  0  0  0
  6 27  1  6  0  0  0
 19 29  1  0  0  0  0
 29 30  1  0  0  0  0
 29 31  2  0  0  0  0
 30 32  2  0  0  0  0
 32 33  1  0  0  0  0
 33 34  2  0  0  0  0
 34 35  1  0  0  0  0
 35 36  2  0  0  0  0
 36 37  1  0  0  0  0
 37 38  2  0  0  0  0
 38 33  1  0  0  0  0
 36 39  1  0  0  0  0
 35 40  1  0  0  0  0
 40 41  1  0  0  0  0
M  END
>  <cdx:fragmentId>
145969

$$$$
