121290.cdx
  Mrv1902 05222410272D          

 16 17  0  0  0  0            999 V2000
    8.3893   -6.9224    0.0000 O   0  0  0  0  0  0  0  0  0  0  0  0
    7.9043   -7.5899    0.0000 C   0  0  0  0  0  0  0  0  0  0  0  0
    7.1197   -7.3349    0.0000 C   0  0  0  0  0  0  0  0  0  0  0  0
    7.1197   -6.5099    0.0000 C   0  0  0  0  0  0  0  0  0  0  0  0
    7.9043   -6.2550    0.0000 C   0  0  2  0  0  0  0  0  0  0  0  0
    6.4053   -6.0974    0.0000 C   0  0  0  0  0  0  0  0  0  0  0  0
    5.6908   -6.5099    0.0000 C   0  0  0  0  0  0  0  0  0  0  0  0
    5.6908   -7.3349    0.0000 C   0  0  2  0  0  0  0  0  0  0  0  0
    6.4053   -7.7474    0.0000 C   0  0  2  0  0  0  0  0  0  0  0  0
    8.1593   -8.3745    0.0000 O   0  0  0  0  0  0  0  0  0  0  0  0
    6.4053   -8.5724    0.0000 O   0  0  0  0  0  0  0  0  0  0  0  0
    4.9763   -7.7474    0.0000 O   0  0  0  0  0  0  0  0  0  0  0  0
    8.1593   -5.4704    0.0000 C   0  0  0  0  0  0  0  0  0  0  0  0
    8.9663   -5.2988    0.0000 C   0  0  0  0  0  0  0  0  0  0  0  0
    9.2212   -4.5142    0.0000 C   0  0  0  0  0  0  0  0  0  0  0  0
   10.0282   -4.3427    0.0000 C   0  0  0  0  0  0  0  0  0  0  0  0
  1  2  1  0  0  0  0
  2  3  1  0  0  0  0
  3  4  2  0  0  0  0
  4  5  1  0  0  0  0
  1  5  1  0  0  0  0
  6  7  1  0  0  0  0
  7  8  1  0  0  0  0
  8  9  1  0  0  0  0
  9  3  1  0  0  0  0
  6  4  1  0  0  0  0
  2 10  2  0  0  0  0
  9 11  1  1  0  0  0
  8 12  1  6  0  0  0
 13 14  1  0  0  0  0
 14 15  1  0  0  0  0
 15 16  1  0  0  0  0
  5 13  1  6  0  0  0
M  END
>  <cdx:fragmentId>
146059

$$$$
