121289.cdx
  Mrv1902 05222410192D          

 41 45  0  0  0  0            999 V2000
    6.7067   -8.0043    0.0000 C   0  0  2  0  0  0  0  0  0  0  0  0
    7.4913   -8.2592    0.0000 C   0  0  1  0  0  0  0  0  0  0  0  0
    8.3118   -8.3455    0.0000 O   0  0  0  0  0  0  0  0  0  0  0  0
    7.9762   -7.5918    0.0000 C   0  0  1  0  0  0  0  0  0  0  0  0
    7.4913   -6.9243    0.0000 C   0  0  2  0  0  0  0  0  0  0  0  0
    6.7067   -7.1793    0.0000 C   0  0  2  0  0  0  0  0  0  0  0  0
    5.9922   -6.7668    0.0000 C   0  0  0  0  0  0  0  0  0  0  0  0
    5.2777   -7.1793    0.0000 C   0  0  0  0  0  0  0  0  0  0  0  0
    5.2777   -8.0043    0.0000 O   0  0  0  0  0  0  0  0  0  0  0  0
    5.9922   -8.4168    0.0000 C   0  0  1  0  0  0  0  0  0  0  0  0
    5.9922   -9.2418    0.0000 O   0  0  0  0  0  0  0  0  0  0  0  0
    4.5633   -9.2418    0.0000 O   0  0  0  0  0  0  0  0  0  0  0  0
    5.2777   -9.6543    0.0000 C   0  0  2  0  0  0  0  0  0  0  0  0
    5.2777  -10.4793    0.0000 C   0  0  1  0  0  0  0  0  0  0  0  0
    4.5633  -10.8918    0.0000 C   0  0  2  0  0  0  0  0  0  0  0  0
    3.8488  -10.4793    0.0000 C   0  0  1  0  0  0  0  0  0  0  0  0
    3.8488   -9.6543    0.0000 C   0  0  1  0  0  0  0  0  0  0  0  0
    3.1343   -9.2418    0.0000 C   0  0  0  0  0  0  0  0  0  0  0  0
    2.4199   -9.6543    0.0000 O   0  0  0  0  0  0  0  0  0  0  0  0
    3.1343  -10.8918    0.0000 O   0  0  0  0  0  0  0  0  0  0  0  0
    4.5633  -11.7168    0.0000 O   0  0  0  0  0  0  0  0  0  0  0  0
    5.9922  -10.8918    0.0000 O   0  0  0  0  0  0  0  0  0  0  0  0
    7.3198   -9.0662    0.0000 C   0  0  0  0  0  0  0  0  0  0  0  0
    7.9031   -9.6496    0.0000 O   0  0  0  0  0  0  0  0  0  0  0  0
    6.7067   -8.8293    0.0000 H   0  0  0  0  0  0  0  0  0  0  0  0
    8.6907   -7.1793    0.0000 H   0  0  0  0  0  0  0  0  0  0  0  0
    6.7929   -6.3588    0.0000 H   0  0  0  0  0  0  0  0  0  0  0  0
    9.1689   -1.1879    0.0000 O   0  0  0  0  0  0  0  0  0  0  0  0
   10.5978   -1.1861    0.0000 C   0  0  0  0  0  0  0  0  0  0  0  0
   10.5989   -2.0111    0.0000 O   0  0  0  0  0  0  0  0  0  0  0  0
    8.4570   -3.2513    0.0000 C   0  0  0  0  0  0  0  0  0  0  0  0
    8.4560   -2.4263    0.0000 C   0  0  0  0  0  0  0  0  0  0  0  0
    9.1699   -2.0129    0.0000 C   0  0  0  0  0  0  0  0  0  0  0  0
    9.8849   -2.4245    0.0000 C   0  0  0  0  0  0  0  0  0  0  0  0
    9.8860   -3.2495    0.0000 C   0  0  0  0  0  0  0  0  0  0  0  0
    9.1720   -3.6629    0.0000 C   0  0  0  0  0  0  0  0  0  0  0  0
    7.7462   -6.1397    0.0000 O   0  0  0  0  0  0  0  0  0  0  0  0
    9.1752   -6.1379    0.0000 O   0  0  0  0  0  0  0  0  0  0  0  0
    9.1731   -4.4879    0.0000 C   0  0  0  0  0  0  0  0  0  0  0  0
    8.4591   -4.9013    0.0000 C   0  0  0  0  0  0  0  0  0  0  0  0
    8.4602   -5.7263    0.0000 C   0  0  0  0  0  0  0  0  0  0  0  0
 39 36  1  0  0  0  0
 33 28  1  0  0  0  0
 34 30  1  0  0  0  0
 30 29  1  0  0  0  0
 36 31  2  0  0  0  0
 32 31  1  0  0  0  0
 33 32  2  0  0  0  0
 34 33  1  0  0  0  0
 35 34  2  0  0  0  0
 36 35  1  0  0  0  0
 41 37  1  0  0  0  0
 41 38  2  0  0  0  0
 40 39  2  0  0  0  0
 41 40  1  0  0  0  0
  1  2  1  0  0  0  0
  2  3  1  0  0  0  0
  3  4  1  0  0  0  0
  4  5  1  0  0  0  0
  5  6  1  0  0  0  0
  6  7  1  0  0  0  0
  7  8  2  0  0  0  0
  8  9  1  0  0  0  0
  9 10  1  0  0  0  0
  1 10  1  0  0  0  0
  1  6  1  0  0  0  0
  2  4  1  0  0  0  0
 12 13  1  0  0  0  0
 13 14  1  0  0  0  0
 14 15  1  0  0  0  0
 15 16  1  0  0  0  0
 16 17  1  0  0  0  0
 12 17  1  0  0  0  0
 18 19  1  0  0  0  0
 17 18  1  1  0  0  0
 16 20  1  6  0  0  0
 15 21  1  1  0  0  0
 14 22  1  6  0  0  0
 13 11  1  1  0  0  0
 10 11  1  6  0  0  0
 23 24  1  0  0  0  0
  2 23  1  1  0  0  0
  5 37  1  6  0  0  0
  1 25  1  6  0  0  0
  4 26  1  1  0  0  0
  6 27  1  6  0  0  0
M  END
>  <cdx:fragmentId>
145969

$$$$
