12132.cdx
  Mrv1902 05222410222D          

 16 18  0  0  0  0            999 V2000
    5.1597   -3.5353    0.0000 C   0  0  0  0  0  0  0  0  0  0  0  0
    4.6748   -4.2027    0.0000 N   0  0  0  0  0  0  0  0  0  0  0  0
    3.8901   -3.9478    0.0000 C   0  0  0  0  0  0  0  0  0  0  0  0
    3.8901   -3.1228    0.0000 C   0  0  0  0  0  0  0  0  0  0  0  0
    4.6748   -2.8678    0.0000 N   0  0  0  0  0  0  0  0  0  0  0  0
    3.1757   -4.3603    0.0000 C   0  0  0  0  0  0  0  0  0  0  0  0
    2.4612   -3.9478    0.0000 C   0  0  0  0  0  0  0  0  0  0  0  0
    2.4612   -3.1228    0.0000 C   0  0  0  0  0  0  0  0  0  0  0  0
    3.1757   -2.7103    0.0000 C   0  0  0  0  0  0  0  0  0  0  0  0
    5.9847   -3.5353    0.0000 C   0  0  0  0  0  0  0  0  0  0  0  0
    6.3972   -4.2498    0.0000 C   0  0  0  0  0  0  0  0  0  0  0  0
    7.2222   -4.2498    0.0000 C   0  0  0  0  0  0  0  0  0  0  0  0
    7.6347   -4.9642    0.0000 C   0  0  0  0  0  0  0  0  0  0  0  0
    7.2222   -5.6787    0.0000 C   0  0  0  0  0  0  0  0  0  0  0  0
    6.3972   -5.6787    0.0000 C   0  0  0  0  0  0  0  0  0  0  0  0
    5.9847   -4.9642    0.0000 C   0  0  0  0  0  0  0  0  0  0  0  0
  1  2  2  0  0  0  0
  2  3  1  0  0  0  0
  3  4  1  0  0  0  0
  4  5  1  0  0  0  0
  1  5  1  0  0  0  0
  6  7  1  0  0  0  0
  7  8  2  0  0  0  0
  8  9  1  0  0  0  0
  9  4  2  0  0  0  0
  6  3  2  0  0  0  0
 10 11  1  0  0  0  0
 11 12  1  0  0  0  0
 12 13  2  0  0  0  0
 13 14  1  0  0  0  0
 14 15  2  0  0  0  0
 15 16  1  0  0  0  0
 11 16  2  0  0  0  0
  1 10  1  0  0  0  0
M  END
>  <cdx:groupId>
52

>  <cdx:fragmentId>
5

$$$$
