121658.cdx
  Mrv1902 05222410202D          

 29 28  0  0  0  0            999 V2000
   19.5525   -9.2089    0.0000 O   0  0  0  0  0  0  0  0  0  0  0  0
   18.8380   -9.6214    0.0000 C   0  0  0  0  0  0  0  0  0  0  0  0
   18.1236   -9.2089    0.0000 C   0  0  0  0  0  0  0  0  0  0  0  0
   17.4091   -9.6214    0.0000 O   0  0  0  0  0  0  0  0  0  0  0  0
   18.1236   -8.3839    0.0000 C   0  0  0  0  0  0  0  0  0  0  0  0
   18.8380   -7.9714    0.0000 O   0  0  0  0  0  0  0  0  0  0  0  0
   16.6946   -9.2089    0.0000 C   0  0  0  0  0  0  0  0  0  0  0  0
   15.9802   -9.6214    0.0000 C   0  0  0  0  0  0  0  0  0  0  0  0
   15.2657   -9.2089    0.0000 C   0  0  0  0  0  0  0  0  0  0  0  0
   14.5512   -9.6214    0.0000 C   0  0  0  0  0  0  0  0  0  0  0  0
   13.8367   -9.2089    0.0000 C   0  0  0  0  0  0  0  0  0  0  0  0
   13.1223   -9.6214    0.0000 C   0  0  0  0  0  0  0  0  0  0  0  0
   12.4078   -9.2089    0.0000 C   0  0  0  0  0  0  0  0  0  0  0  0
   11.6933   -9.6214    0.0000 C   0  0  0  0  0  0  0  0  0  0  0  0
   10.9789   -9.2089    0.0000 C   0  0  0  0  0  0  0  0  0  0  0  0
   10.2644   -9.6214    0.0000 C   0  0  0  0  0  0  0  0  0  0  0  0
    9.5499   -9.2089    0.0000 C   0  0  0  0  0  0  0  0  0  0  0  0
    8.8355   -9.6214    0.0000 C   0  0  0  0  0  0  0  0  0  0  0  0
    8.1210   -9.2089    0.0000 C   0  0  0  0  0  0  0  0  0  0  0  0
    7.4065   -9.6214    0.0000 C   0  0  0  0  0  0  0  0  0  0  0  0
    6.6920   -9.2089    0.0000 C   0  0  0  0  0  0  0  0  0  0  0  0
    5.9776   -9.6214    0.0000 C   0  0  0  0  0  0  0  0  0  0  0  0
    5.2631   -9.2089    0.0000 C   0  0  0  0  0  0  0  0  0  0  0  0
    4.5486   -9.6214    0.0000 C   0  0  0  0  0  0  0  0  0  0  0  0
    3.8342   -9.2089    0.0000 C   0  0  0  0  0  0  0  0  0  0  0  0
    3.1197   -9.6214    0.0000 C   0  0  0  0  0  0  0  0  0  0  0  0
    2.4052   -9.2089    0.0000 C   0  0  0  0  0  0  0  0  0  0  0  0
    1.6907   -9.6214    0.0000 C   0  0  0  0  0  0  0  0  0  0  0  0
   16.6946   -8.3839    0.0000 O   0  0  0  0  0  0  0  0  0  0  0  0
  1  2  1  0  0  0  0
  2  3  1  0  0  0  0
  3  4  1  0  0  0  0
  3  5  1  0  0  0  0
  5  6  1  0  0  0  0
  7  8  1  0  0  0  0
  8  9  1  0  0  0  0
  9 10  1  0  0  0  0
 10 11  1  0  0  0  0
 11 12  1  0  0  0  0
 12 13  1  0  0  0  0
 13 14  1  0  0  0  0
 14 15  1  0  0  0  0
 15 16  1  0  0  0  0
 16 17  1  0  0  0  0
 17 18  1  0  0  0  0
 18 19  1  0  0  0  0
 19 20  1  0  0  0  0
 20 21  1  0  0  0  0
 21 22  1  0  0  0  0
 22 23  1  0  0  0  0
 23 24  1  0  0  0  0
 24 25  1  0  0  0  0
 25 26  1  0  0  0  0
 26 27  1  0  0  0  0
 27 28  1  0  0  0  0
  7 29  2  0  0  0  0
  4  7  1  0  0  0  0
M  END
>  <cdx:groupId>
1414

>  <cdx:fragmentId>
1343

$$$$
