121677.cdx
  Mrv1902 05222410182D          

 13 14  0  0  0  0            999 V2000
   16.0492  -10.2831    0.0000 C   0  0  0  0  0  0  0  0  0  0  0  0
   16.7637  -10.6956    0.0000 C   0  0  0  0  0  0  0  0  0  0  0  0
   16.7637  -11.5206    0.0000 C   0  0  0  0  0  0  0  0  0  0  0  0
   16.0492  -11.9331    0.0000 C   0  0  0  0  0  0  0  0  0  0  0  0
   15.3347  -11.5206    0.0000 C   0  0  0  0  0  0  0  0  0  0  0  0
   14.6202  -11.9331    0.0000 C   0  0  0  0  0  0  0  0  0  0  0  0
   13.9058  -11.5206    0.0000 C   0  0  0  0  0  0  0  0  0  0  0  0
   13.9058  -10.6956    0.0000 C   0  0  0  0  0  0  0  0  0  0  0  0
   14.6202  -10.2831    0.0000 C   0  0  0  0  0  0  0  0  0  0  0  0
   15.3347  -10.6956    0.0000 C   0  0  0  0  0  0  0  0  0  0  0  0
   13.1913  -11.9331    0.0000 C   0  0  0  0  0  0  0  0  0  0  0  0
   15.6367   -9.5687    0.0000 C   0  0  0  0  0  0  0  0  0  0  0  0
   16.4617   -9.5687    0.0000 C   0  0  0  0  0  0  0  0  0  0  0  0
  1  2  1  0  0  0  0
  2  3  1  0  0  0  0
  3  4  2  0  0  0  0
  4  5  1  0  0  0  0
  5  6  1  0  0  0  0
  6  7  2  0  0  0  0
  7  8  1  0  0  0  0
  8  9  2  0  0  0  0
  9 10  1  0  0  0  0
  1 10  1  0  0  0  0
  5 10  2  0  0  0  0
  7 11  1  0  0  0  0
  1 12  1  0  0  0  0
  1 13  1  0  0  0  0
M  END
>  <cdx:groupId>
1463

>  <cdx:fragmentId>
1426

$$$$
