12160.cdx
  Mrv1902 05222410272D          

  9  9  0  0  0  0            999 V2000
    4.8906   -3.7950    0.0000 C   0  0  0  0  0  0  0  0  0  0  0  0
    4.1761   -4.2075    0.0000 C   0  0  0  0  0  0  0  0  0  0  0  0
    3.4617   -3.7950    0.0000 C   0  0  0  0  0  0  0  0  0  0  0  0
    3.4617   -2.9700    0.0000 C   0  0  0  0  0  0  0  0  0  0  0  0
    4.1761   -2.5575    0.0000 C   0  0  0  0  0  0  0  0  0  0  0  0
    4.8906   -2.9700    0.0000 C   0  0  0  0  0  0  0  0  0  0  0  0
    2.7472   -2.5575    0.0000 C   0  0  0  0  0  0  0  0  0  0  0  0
    5.6051   -4.2075    0.0000 C   0  0  0  0  0  0  0  0  0  0  0  0
    6.3196   -3.7950    0.0000 C   0  0  0  0  0  0  0  0  0  0  0  0
  1  2  1  0  0  0  0
  2  3  2  0  0  0  0
  3  4  1  0  0  0  0
  4  5  2  0  0  0  0
  5  6  1  0  0  0  0
  1  6  2  0  0  0  0
  4  7  1  0  0  0  0
  8  9  1  0  0  0  0
  1  8  1  0  0  0  0
M  END
>  <cdx:groupId>
29

>  <cdx:fragmentId>
5

$$$$
