12170.cdx
  Mrv1902 05222410272D          

 10 10  0  0  0  0            999 V2000
    3.5942   -3.2508    0.0000 C   0  0  0  0  0  0  0  0  0  0  0  0
    2.8797   -3.6633    0.0000 C   0  0  0  0  0  0  0  0  0  0  0  0
    3.5942   -2.4258    0.0000 O   0  0  0  0  0  0  0  0  0  0  0  0
    4.3086   -3.6633    0.0000 O   0  0  0  0  0  0  0  0  0  0  0  0
    5.0231   -3.2508    0.0000 C   0  0  0  0  0  0  0  0  0  0  0  0
    5.8238   -4.4838    0.0000 O   0  0  0  0  0  0  0  0  0  0  0  0
    5.7376   -3.6633    0.0000 C   0  0  0  0  0  0  0  0  0  0  0  0
    6.4912   -3.3277    0.0000 C   0  0  0  0  0  0  0  0  0  0  0  0
    7.0433   -3.9408    0.0000 C   0  0  0  0  0  0  0  0  0  0  0  0
    6.6308   -4.6553    0.0000 C   0  0  0  0  0  0  0  0  0  0  0  0
  1  2  1  0  0  0  0
  1  3  2  0  0  0  0
  1  4  1  0  0  0  0
  6  7  1  0  0  0  0
  7  8  2  0  0  0  0
  8  9  1  0  0  0  0
  9 10  2  0  0  0  0
  6 10  1  0  0  0  0
  5  7  1  0  0  0  0
  4  5  1  0  0  0  0
M  END
>  <cdx:groupId>
32

>  <cdx:fragmentId>
15

$$$$
