121710.cdx
  Mrv1902 05222410202D          

  8  8  0  0  0  0            999 V2000
    7.0444   -6.2064    0.0000 C   0  0  0  0  0  0  0  0  0  0  0  0
    7.5294   -5.5390    0.0000 C   0  0  0  0  0  0  0  0  0  0  0  0
    8.3140   -5.7939    0.0000 C   0  0  0  0  0  0  0  0  0  0  0  0
    8.3140   -6.6189    0.0000 C   0  0  0  0  0  0  0  0  0  0  0  0
    7.5294   -6.8739    0.0000 C   0  0  0  0  0  0  0  0  0  0  0  0
    6.2194   -6.2064    0.0000 O   0  0  0  0  0  0  0  0  0  0  0  0
    8.9814   -7.1038    0.0000 C   0  0  0  0  0  0  0  0  0  0  0  0
    8.9814   -5.3090    0.0000 C   0  0  0  0  0  0  0  0  0  0  0  0
  1  2  1  0  0  0  0
  2  3  2  0  0  0  0
  3  4  1  0  0  0  0
  4  5  1  0  0  0  0
  1  5  1  0  0  0  0
  1  6  2  0  0  0  0
  4  7  1  0  0  0  0
  3  8  1  0  0  0  0
M  END
>  <cdx:fragmentId>
1516

$$$$
