121719.cdx
  Mrv1902 05222410282D          

 11 12  0  0  0  0            999 V2000
    7.1775   -8.1400    0.0000 C   0  0  0  0  0  0  0  0  0  0  0  0
    7.1775   -8.9650    0.0000 C   0  0  0  0  0  0  0  0  0  0  0  0
    6.5769   -7.7099    0.0000 C   0  0  0  0  0  0  0  0  0  0  0  0
    6.7768   -6.9095    0.0000 C   0  0  0  0  0  0  0  0  0  0  0  0
    7.8925   -6.7375    0.0000 C   0  0  0  0  0  0  0  0  0  0  0  0
    7.2325   -5.8575    0.0000 C   0  0  0  0  0  0  0  0  0  0  0  0
    8.6350   -7.4525    0.0000 C   0  0  0  0  0  0  0  0  0  0  0  0
    9.2184   -8.0359    0.0000 C   0  0  0  0  0  0  0  0  0  0  0  0
    9.4319   -7.2390    0.0000 C   0  0  0  0  0  0  0  0  0  0  0  0
    7.7550   -7.6450    0.0000 C   0  0  0  0  0  0  0  0  0  0  0  0
    5.7838   -7.9370    0.0000 O   0  0  0  0  0  0  0  0  0  0  0  0
  1  2  2  0  0  0  0
  1  3  1  0  0  0  0
  3  4  1  0  0  0  0
  4  5  1  0  0  0  0
  5  6  1  0  0  0  0
  5  7  1  0  0  0  0
  7  8  1  0  0  0  0
  7  9  1  0  0  0  0
  7 10  1  0  0  0  0
  6 10  1  0  0  0  0
  1 10  1  0  0  0  0
  3 11  2  0  0  0  0
M  END
>  <cdx:groupId>
1575

>  <cdx:fragmentId>
1544

$$$$
