12177.cdx
  Mrv1902 05222410262D          

  7  6  0  0  0  0            999 V2000
    6.2493   -4.3901    0.0000 C   0  0  0  0  0  0  0  0  0  0  0  0
    6.9649   -4.8008    0.0000 C   0  0  0  0  0  0  0  0  0  0  0  0
    7.6783   -4.3865    0.0000 C   0  0  0  0  0  0  0  0  0  0  0  0
    8.3938   -4.7972    0.0000 C   0  0  0  0  0  0  0  0  0  0  0  0
    9.1072   -4.3829    0.0000 C   0  0  0  0  0  0  0  0  0  0  0  0
    5.5359   -4.8044    0.0000 O   0  0  0  0  0  0  0  0  0  0  0  0
    6.9669   -5.6258    0.0000 C   0  0  0  0  0  0  0  0  0  0  0  0
  1  2  1  0  0  0  0
  2  3  2  0  0  0  0
  3  4  1  0  0  0  0
  4  5  1  0  0  0  0
  1  6  2  0  0  0  0
  2  7  1  0  0  0  0
M  END
>  <cdx:groupId>
22

>  <cdx:fragmentId>
5

$$$$
