12180.cdx
  Mrv1902 05222410182D          

  7  6  0  0  0  0            999 V2000
    5.2703   -5.3839    0.0000 C   0  0  0  0  0  0  0  0  0  0  0  0
    5.9848   -5.7964    0.0000 O   0  0  0  0  0  0  0  0  0  0  0  0
    6.6993   -4.5589    0.0000 O   0  0  0  0  0  0  0  0  0  0  0  0
    8.8427   -5.7964    0.0000 C   0  0  0  0  0  0  0  0  0  0  0  0
    8.1282   -5.3839    0.0000 C   0  0  0  0  0  0  0  0  0  0  0  0
    7.4137   -5.7964    0.0000 C   0  0  0  0  0  0  0  0  0  0  0  0
    6.6993   -5.3839    0.0000 C   0  0  0  0  0  0  0  0  0  0  0  0
  2  1  1  0  0  0  0
  7  2  1  0  0  0  0
  7  3  2  0  0  0  0
  5  4  1  0  0  0  0
  6  5  1  0  0  0  0
  7  6  1  0  0  0  0
M  END
>  <cdx:groupId>
22

>  <cdx:fragmentId>
5

$$$$
