12189.cdx
  Mrv1902 05222410262D          

 33 36  0  0  0  0            999 V2000
    4.9739   -8.2500    0.0000 C   0  0  0  0  0  0  0  0  0  0  0  0
    4.9739   -9.0750    0.0000 C   0  0  0  0  0  0  0  0  0  0  0  0
    5.6884   -9.4875    0.0000 C   0  0  0  0  0  0  0  0  0  0  0  0
    6.4028   -9.0750    0.0000 C   0  0  0  0  0  0  0  0  0  0  0  0
    6.4028   -8.2500    0.0000 C   0  0  0  0  0  0  0  0  0  0  0  0
    5.6884   -7.8375    0.0000 C   0  0  0  0  0  0  0  0  0  0  0  0
    7.1173   -9.4875    0.0000 C   0  0  0  0  0  0  0  0  0  0  0  0
    7.8318   -9.0750    0.0000 C   0  0  0  0  0  0  0  0  0  0  0  0
    7.8318   -8.2500    0.0000 C   0  0  0  0  0  0  0  0  0  0  0  0
    7.1173   -7.8375    0.0000 O   0  0  0  0  0  0  0  0  0  0  0  0
    8.5463   -7.8375    0.0000 C   0  0  0  0  0  0  0  0  0  0  0  0
    8.5463   -7.0125    0.0000 C   0  0  0  0  0  0  0  0  0  0  0  0
    9.2607   -8.2500    0.0000 C   0  0  0  0  0  0  0  0  0  0  0  0
    9.9752   -7.8375    0.0000 C   0  0  0  0  0  0  0  0  0  0  0  0
    9.9752   -7.0125    0.0000 C   0  0  0  0  0  0  0  0  0  0  0  0
    9.2607   -6.6000    0.0000 C   0  0  0  0  0  0  0  0  0  0  0  0
    4.2594   -7.8375    0.0000 O   0  0  0  0  0  0  0  0  0  0  0  0
    5.6884  -10.3125    0.0000 O   0  0  0  0  0  0  0  0  0  0  0  0
    7.1173  -10.3125    0.0000 O   0  0  0  0  0  0  0  0  0  0  0  0
   10.6897   -6.6000    0.0000 O   0  0  0  0  0  0  0  0  0  0  0  0
   11.4041   -7.0125    0.0000 C   0  0  0  0  0  0  0  0  0  0  0  0
    8.5463   -9.4875    0.0000 O   0  0  0  0  0  0  0  0  0  0  0  0
    3.5450   -8.2500    0.0000 C   0  0  2  0  0  0  0  0  0  0  0  0
    2.8305   -7.8375    0.0000 O   0  0  0  0  0  0  0  0  0  0  0  0
    2.1160   -8.2500    0.0000 C   0  0  1  0  0  0  0  0  0  0  0  0
    2.1160   -9.0750    0.0000 C   0  0  2  0  0  0  0  0  0  0  0  0
    2.8305   -9.4875    0.0000 C   0  0  1  0  0  0  0  0  0  0  0  0
    3.5450   -9.0750    0.0000 C   0  0  1  0  0  0  0  0  0  0  0  0
    1.4015   -7.8375    0.0000 C   0  0  0  0  0  0  0  0  0  0  0  0
    2.8305  -10.3125    0.0000 O   0  0  0  0  0  0  0  0  0  0  0  0
    4.2594   -9.4875    0.0000 O   0  0  0  0  0  0  0  0  0  0  0  0
    1.4015   -9.4875    0.0000 O   0  0  0  0  0  0  0  0  0  0  0  0
    0.6871   -8.2500    0.0000 O   0  0  0  0  0  0  0  0  0  0  0  0
  1  2  2  0  0  0  0
  2  3  1  0  0  0  0
  3  4  2  0  0  0  0
  4  5  1  0  0  0  0
  5  6  2  0  0  0  0
  6  1  1  0  0  0  0
  4  7  1  0  0  0  0
  7  8  1  0  0  0  0
  8  9  2  0  0  0  0
  9 10  1  0  0  0  0
 10  5  1  0  0  0  0
  9 11  1  0  0  0  0
 11 12  2  0  0  0  0
 11 13  1  0  0  0  0
 13 14  2  0  0  0  0
 14 15  1  0  0  0  0
 15 16  2  0  0  0  0
 16 12  1  0  0  0  0
  1 17  1  0  0  0  0
  3 18  1  0  0  0  0
  7 19  2  0  0  0  0
 15 20  1  0  0  0  0
 20 21  1  0  0  0  0
  8 22  1  0  0  0  0
 23 17  1  1  0  0  0
 23 24  1  0  0  0  0
 24 25  1  0  0  0  0
 25 26  1  0  0  0  0
 26 27  1  0  0  0  0
 27 28  1  0  0  0  0
 28 23  1  0  0  0  0
 25 29  1  1  0  0  0
 27 30  1  1  0  0  0
 28 31  1  6  0  0  0
 26 32  1  6  0  0  0
 29 33  1  0  0  0  0
M  END
>  <cdx:fragmentId>
5

$$$$
