121996.cdx
  Mrv1902 05222410222D          

 12 13  0  0  0  0            999 V2000
    6.0417   -7.2381    0.0000 C   0  0  0  0  0  0  0  0  0  0  0  0
    5.2259   -7.3611    0.0000 O   0  0  0  0  0  0  0  0  0  0  0  0
    8.7900   -9.2939    0.0000 C   0  0  0  0  0  0  0  0  0  0  0  0
    9.2749   -8.6264    0.0000 C   0  0  0  0  0  0  0  0  0  0  0  0
    8.7900   -7.9590    0.0000 C   0  0  0  0  0  0  0  0  0  0  0  0
    8.0054   -8.2139    0.0000 C   0  0  0  0  0  0  0  0  0  0  0  0
    7.3604   -7.6995    0.0000 C   0  0  0  0  0  0  0  0  0  0  0  0
    6.5561   -7.8831    0.0000 C   0  0  0  0  0  0  0  0  0  0  0  0
    6.1981   -8.6264    0.0000 C   0  0  0  0  0  0  0  0  0  0  0  0
    6.5561   -9.3697    0.0000 C   0  0  0  0  0  0  0  0  0  0  0  0
    7.3604   -9.5533    0.0000 C   0  0  0  0  0  0  0  0  0  0  0  0
    8.0054   -9.0389    0.0000 C   0  0  0  0  0  0  0  0  0  0  0  0
  1  2  1  0  0  0  0
  3  4  1  0  0  0  0
  4  5  2  0  0  0  0
  5  6  1  0  0  0  0
  6  7  2  0  0  0  0
  7  8  1  0  0  0  0
  8  9  2  0  0  0  0
  9 10  1  0  0  0  0
 10 11  2  0  0  0  0
 11 12  1  0  0  0  0
  3 12  2  0  0  0  0
  6 12  1  0  0  0  0
  1  8  1  0  0  0  0
M  END
>  <cdx:fragmentId>
42820

$$$$
