122.cdx
  Mrv1902 05222410282D          

 19 21  0  0  0  0            999 V2000
    4.7023   -3.9463    0.0000 C   0  0  0  0  0  0  0  0  0  0  0  0
    4.7023   -4.7713    0.0000 C   0  0  0  0  0  0  0  0  0  0  0  0
    5.4168   -5.1837    0.0000 C   0  0  0  0  0  0  0  0  0  0  0  0
    6.1313   -4.7713    0.0000 C   0  0  0  0  0  0  0  0  0  0  0  0
    6.1313   -3.9463    0.0000 C   0  0  0  0  0  0  0  0  0  0  0  0
    5.4168   -3.5337    0.0000 C   0  0  0  0  0  0  0  0  0  0  0  0
    6.8458   -5.1837    0.0000 C   0  0  0  0  0  0  0  0  0  0  0  0
    7.5602   -4.7713    0.0000 C   0  0  0  0  0  0  0  0  0  0  0  0
    7.5602   -3.9463    0.0000 C   0  0  0  0  0  0  0  0  0  0  0  0
    6.8458   -3.5337    0.0000 O   0  0  0  0  0  0  0  0  0  0  0  0
    3.9879   -3.5337    0.0000 O   0  0  0  0  0  0  0  0  0  0  0  0
    5.4168   -6.0088    0.0000 O   0  0  0  0  0  0  0  0  0  0  0  0
    8.2747   -3.5337    0.0000 C   0  0  0  0  0  0  0  0  0  0  0  0
    8.9892   -3.9463    0.0000 C   0  0  0  0  0  0  0  0  0  0  0  0
    9.7036   -3.5337    0.0000 C   0  0  0  0  0  0  0  0  0  0  0  0
    9.7036   -2.7088    0.0000 C   0  0  0  0  0  0  0  0  0  0  0  0
    8.9892   -2.2963    0.0000 C   0  0  0  0  0  0  0  0  0  0  0  0
    8.2747   -2.7088    0.0000 C   0  0  0  0  0  0  0  0  0  0  0  0
    6.8458   -6.0088    0.0000 O   0  0  0  0  0  0  0  0  0  0  0  0
  1  2  2  0  0  0  0
  2  3  1  0  0  0  0
  3  4  2  0  0  0  0
  4  5  1  0  0  0  0
  5  6  2  0  0  0  0
  6  1  1  0  0  0  0
  4  7  1  0  0  0  0
  7  8  1  0  0  0  0
  8  9  2  0  0  0  0
  9 10  1  0  0  0  0
 10  5  1  0  0  0  0
  1 11  1  0  0  0  0
  3 12  1  0  0  0  0
  9 13  1  0  0  0  0
 13 14  2  0  0  0  0
 14 15  1  0  0  0  0
 15 16  2  0  0  0  0
 16 17  1  0  0  0  0
 17 18  2  0  0  0  0
 18 13  1  0  0  0  0
  7 19  2  0  0  0  0
M  END
>  <cdx:fragmentId>
5

$$$$
