122097.cdx
  Mrv1902 05222410212D          

 69 76  0  0  0  0            999 V2000
    4.8460   -8.9869    0.0000 O   0  0  0  0  0  0  0  0  0  0  0  0
    3.3988   -8.9842    0.0000 O   0  0  0  0  0  0  0  0  0  0  0  0
    4.1096   -9.4030    0.0000 C   0  0  2  0  0  0  0  0  0  0  0  0
    4.1022  -10.2280    0.0000 C   0  0  1  0  0  0  0  0  0  0  0  0
    3.3841  -10.6341    0.0000 C   0  0  2  0  0  0  0  0  0  0  0  0
    2.6734  -10.2153    0.0000 C   0  0  2  0  0  0  0  0  0  0  0  0
    2.6807   -9.3903    0.0000 C   0  0  1  0  0  0  0  0  0  0  0  0
    4.8130  -10.6468    0.0000 O   0  0  0  0  0  0  0  0  0  0  0  0
    4.0876  -11.8779    0.0000 O   0  0  0  0  0  0  0  0  0  0  0  0
    4.8057  -11.4717    0.0000 C   0  0  2  0  0  0  0  0  0  0  0  0
    5.5165  -11.8906    0.0000 C   0  0  1  0  0  0  0  0  0  0  0  0
    5.5092  -12.7155    0.0000 C   0  0  1  0  0  0  0  0  0  0  0  0
    4.7911  -13.1217    0.0000 C   0  0  2  0  0  0  0  0  0  0  0  0
    4.0803  -12.7029    0.0000 C   0  0  2  0  0  0  0  0  0  0  0  0
    3.3622  -13.1090    0.0000 C   0  0  0  0  0  0  0  0  0  0  0  0
    4.7837  -13.9466    0.0000 O   0  0  0  0  0  0  0  0  0  0  0  0
    6.2200  -13.1344    0.0000 O   0  0  0  0  0  0  0  0  0  0  0  0
    6.2346  -11.4844    0.0000 O   0  0  0  0  0  0  0  0  0  0  0  0
    1.9553  -10.6214    0.0000 O   0  0  0  0  0  0  0  0  0  0  0  0
    3.3768  -11.4591    0.0000 O   0  0  0  0  0  0  0  0  0  0  0  0
    7.7044   -6.5128    0.0000 C   0  0  0  0  0  0  0  0  0  0  0  0
    6.9899   -6.9253    0.0000 C   0  0  0  0  0  0  0  0  0  0  0  0
    6.9899   -7.7503    0.0000 C   0  0  1  0  0  0  0  0  0  0  0  0
    7.7044   -8.1628    0.0000 C   0  0  1  0  0  0  0  0  0  0  0  0
    8.4189   -7.7503    0.0000 C   0  0  2  0  0  0  0  0  0  0  0  0
    9.1333   -8.1628    0.0000 C   0  0  0  0  0  0  0  0  0  0  0  0
    9.8478   -7.7503    0.0000 C   0  0  0  0  0  0  0  0  0  0  0  0
    9.8478   -6.9253    0.0000 C   0  0  1  0  0  0  0  0  0  0  0  0
   10.5623   -6.5128    0.0000 C   0  0  2  0  0  0  0  0  0  0  0  0
   11.2768   -6.9253    0.0000 C   0  0  0  0  0  0  0  0  0  0  0  0
   11.9912   -6.5128    0.0000 C   0  0  0  0  0  0  0  0  0  0  0  0
   11.9912   -5.6878    0.0000 C   0  0  1  0  0  0  0  0  0  0  0  0
   12.7057   -5.2753    0.0000 C   0  0  1  0  0  0  0  0  0  0  0  0
   12.7057   -4.4503    0.0000 C   0  0  0  0  0  0  0  0  0  0  0  0
   11.9912   -4.0378    0.0000 C   0  0  0  0  0  0  0  0  0  0  0  0
   11.2768   -4.4503    0.0000 C   0  0  0  0  0  0  0  0  0  0  0  0
   11.2768   -5.2753    0.0000 C   0  0  1  0  0  0  0  0  0  0  0  0
   10.5623   -5.6878    0.0000 C   0  0  0  0  0  0  0  0  0  0  0  0
    9.8478   -5.2753    0.0000 C   0  0  0  0  0  0  0  0  0  0  0  0
    9.1333   -5.6878    0.0000 C   0  0  0  0  0  0  0  0  0  0  0  0
    9.1333   -6.5128    0.0000 C   0  0  2  0  0  0  0  0  0  0  0  0
    8.4189   -6.9253    0.0000 C   0  0  1  0  0  0  0  0  0  0  0  0
    8.4189   -6.1003    0.0000 C   0  0  0  0  0  0  0  0  0  0  0  0
   11.5787   -3.3233    0.0000 C   0  0  0  0  0  0  0  0  0  0  0  0
   12.4037   -3.3233    0.0000 C   0  0  0  0  0  0  0  0  0  0  0  0
   12.7057   -6.1003    0.0000 C   0  0  0  0  0  0  0  0  0  0  0  0
   10.5623   -7.3378    0.0000 C   0  0  0  0  0  0  0  0  0  0  0  0
    9.8478   -6.1003    0.0000 C   0  0  0  0  0  0  0  0  0  0  0  0
   13.4202   -5.6878    0.0000 O   0  0  0  0  0  0  0  0  0  0  0  0
    8.4189   -8.5753    0.0000 H   0  0  0  0  0  0  0  0  0  0  0  0
   11.2768   -6.1003    0.0000 H   0  0  0  0  0  0  0  0  0  0  0  0
    9.1333   -7.3378    0.0000 H   0  0  0  0  0  0  0  0  0  0  0  0
    6.2755   -8.1628    0.0000 O   0  0  0  0  0  0  0  0  0  0  0  0
    3.4186   -6.5111    0.0000 O   0  0  0  0  0  0  0  0  0  0  0  0
    3.4176   -8.1611    0.0000 O   0  0  0  0  0  0  0  0  0  0  0  0
    4.1338   -5.2740    0.0000 O   0  0  0  0  0  0  0  0  0  0  0  0
    5.5627   -5.2748    0.0000 O   0  0  0  0  0  0  0  0  0  0  0  0
    4.8480   -5.6869    0.0000 C   0  0  0  0  0  0  0  0  0  0  0  0
    5.5612   -7.7498    0.0000 C   0  0  1  0  0  0  0  0  0  0  0  0
    4.8465   -8.1619    0.0000 C   0  0  1  0  0  0  0  0  0  0  0  0
    4.1323   -7.7490    0.0000 C   0  0  2  0  0  0  0  0  0  0  0  0
    4.1328   -6.9240    0.0000 C   0  0  1  0  0  0  0  0  0  0  0  0
    4.8475   -6.5119    0.0000 C   0  0  2  0  0  0  0  0  0  0  0  0
    5.5617   -6.9248    0.0000 O   0  0  0  0  0  0  0  0  0  0  0  0
    1.9699   -8.9715    0.0000 C   0  0  0  0  0  0  0  0  0  0  0  0
    1.2518   -9.3776    0.0000 O   0  0  0  0  0  0  0  0  0  0  0  0
    7.2919   -8.8772    0.0000 C   0  0  0  0  0  0  0  0  0  0  0  0
    8.1169   -8.8772    0.0000 C   0  0  0  0  0  0  0  0  0  0  0  0
    7.7044   -9.5917    0.0000 O   0  0  0  0  0  0  0  0  0  0  0  0
 59 53  1  1  0  0  0
 60  1  1  6  0  0  0
  2  3  1  0  0  0  0
 62 54  1  6  0  0  0
 61 55  1  1  0  0  0
 63 58  1  1  0  0  0
 58 56  1  0  0  0  0
 58 57  2  0  0  0  0
 64 59  1  0  0  0  0
 60 59  1  0  0  0  0
 61 60  1  0  0  0  0
 62 61  1  0  0  0  0
 63 62  1  0  0  0  0
 64 63  1  0  0  0  0
  3  4  1  0  0  0  0
  4  5  1  0  0  0  0
  5  6  1  0  0  0  0
  6  7  1  0  0  0  0
  2  7  1  0  0  0  0
  9 10  1  0  0  0  0
 10 11  1  0  0  0  0
 11 12  1  0  0  0  0
 12 13  1  0  0  0  0
 13 14  1  0  0  0  0
  9 14  1  0  0  0  0
 14 15  1  6  0  0  0
 13 16  1  1  0  0  0
 12 17  1  6  0  0  0
 11 18  1  6  0  0  0
 10  8  1  1  0  0  0
  4  8  1  6  0  0  0
  6 19  1  1  0  0  0
  5 20  1  1  0  0  0
  3  1  1  1  0  0  0
 21 22  1  0  0  0  0
 22 23  1  0  0  0  0
 23 24  1  0  0  0  0
 24 25  1  0  0  0  0
 25 26  1  0  0  0  0
 26 27  1  0  0  0  0
 27 28  1  0  0  0  0
 28 29  1  0  0  0  0
 29 30  1  0  0  0  0
 30 31  1  0  0  0  0
 31 32  1  0  0  0  0
 32 33  1  0  0  0  0
 33 34  1  0  0  0  0
 34 35  1  0  0  0  0
 35 36  1  0  0  0  0
 36 37  1  0  0  0  0
 32 37  1  0  0  0  0
 37 38  1  0  0  0  0
 29 38  1  0  0  0  0
 38 39  2  0  0  0  0
 39 40  1  0  0  0  0
 40 41  1  0  0  0  0
 28 41  1  0  0  0  0
 41 42  1  0  0  0  0
 25 42  1  0  0  0  0
 21 42  1  0  0  0  0
 42 43  1  1  0  0  0
 35 44  1  0  0  0  0
 35 45  1  0  0  0  0
 32 46  1  1  0  0  0
 29 47  1  6  0  0  0
 28 48  1  1  0  0  0
 33 49  1  1  0  0  0
 23 53  1  1  0  0  0
 25 50  1  6  0  0  0
 37 51  1  1  0  0  0
 41 52  1  6  0  0  0
  7 65  1  1  0  0  0
 65 66  1  0  0  0  0
 24 67  1  1  0  0  0
 24 68  1  6  0  0  0
 67 69  1  0  0  0  0
M  END
>  <cdx:fragmentId>
69

$$$$
