12218.cdx
  Mrv1902 05222410202D          

 53 58  0  0  0  0            999 V2000
    4.6517   -7.5435    0.0000 O   0  0  0  0  0  0  0  0  0  0  0  0
    3.2228   -5.0685    0.0000 O   0  0  0  0  0  0  0  0  0  0  0  0
    9.6530   -3.8310    0.0000 O   0  0  0  0  0  0  0  0  0  0  0  0
    7.5096   -4.2435    0.0000 C   0  0  0  0  0  0  0  0  0  0  0  0
    8.2241   -3.8310    0.0000 C   0  0  0  0  0  0  0  0  0  0  0  0
    8.9385   -4.2435    0.0000 C   0  0  0  0  0  0  0  0  0  0  0  0
    8.9385   -5.0685    0.0000 C   0  0  0  0  0  0  0  0  0  0  0  0
    8.2241   -5.4810    0.0000 C   0  0  0  0  0  0  0  0  0  0  0  0
    7.5096   -5.0685    0.0000 C   0  0  0  0  0  0  0  0  0  0  0  0
    8.9385   -7.5435    0.0000 O   0  0  0  0  0  0  0  0  0  0  0  0
    8.9385   -9.1935    0.0000 O   0  0  0  0  0  0  0  0  0  0  0  0
    7.5096  -10.0185    0.0000 O   0  0  0  0  0  0  0  0  0  0  0  0
    6.0807   -9.1935    0.0000 C   0  0  0  0  0  0  0  0  0  0  0  0
    6.7951   -8.7810    0.0000 C   0  0  1  0  0  0  0  0  0  0  0  0
    7.5096   -9.1935    0.0000 C   0  0  1  0  0  0  0  0  0  0  0  0
    8.2241   -8.7810    0.0000 C   0  0  2  0  0  0  0  0  0  0  0  0
    8.2241   -7.9560    0.0000 C   0  0  2  0  0  0  0  0  0  0  0  0
    7.5096   -7.5435    0.0000 C   0  0  1  0  0  0  0  0  0  0  0  0
    6.7951   -7.9560    0.0000 O   0  0  0  0  0  0  0  0  0  0  0  0
    7.5096   -6.7185    0.0000 O   0  0  0  0  0  0  0  0  0  0  0  0
    6.0807   -7.5435    0.0000 O   0  0  0  0  0  0  0  0  0  0  0  0
    6.0807   -5.0685    0.0000 O   0  0  0  0  0  0  0  0  0  0  0  0
    5.3662   -5.4810    0.0000 C   0  0  0  0  0  0  0  0  0  0  0  0
    4.6517   -5.0685    0.0000 C   0  0  0  0  0  0  0  0  0  0  0  0
    3.9373   -5.4810    0.0000 C   0  0  0  0  0  0  0  0  0  0  0  0
    3.9373   -6.3060    0.0000 C   0  0  0  0  0  0  0  0  0  0  0  0
    4.6517   -6.7185    0.0000 C   0  0  0  0  0  0  0  0  0  0  0  0
    5.3662   -6.3060    0.0000 C   0  0  0  0  0  0  0  0  0  0  0  0
    6.0807   -6.7185    0.0000 C   0  0  0  0  0  0  0  0  0  0  0  0
    6.7951   -6.3060    0.0000 C   0  0  0  0  0  0  0  0  0  0  0  0
    6.7951   -5.4810    0.0000 C   0  0  0  0  0  0  0  0  0  0  0  0
   10.3867   -9.1861    0.0000 C   0  0  2  0  0  0  0  0  0  0  0  0
   11.1010   -8.7734    0.0000 C   0  0  2  0  0  0  0  0  0  0  0  0
   11.1008   -7.9484    0.0000 C   0  0  1  0  0  0  0  0  0  0  0  0
   10.3862   -7.5361    0.0000 C   0  0  2  0  0  0  0  0  0  0  0  0
    9.6718   -7.9488    0.0000 C   0  0  1  0  0  0  0  0  0  0  0  0
    9.6721   -8.7738    0.0000 O   0  0  0  0  0  0  0  0  0  0  0  0
   11.8156   -9.1857    0.0000 O   0  0  0  0  0  0  0  0  0  0  0  0
   10.3869  -10.0111    0.0000 C   0  0  0  0  0  0  0  0  0  0  0  0
   11.8151   -7.5357    0.0000 O   0  0  0  0  0  0  0  0  0  0  0  0
   10.3860   -6.7111    0.0000 O   0  0  0  0  0  0  0  0  0  0  0  0
    9.6726  -10.4238    0.0000 O   0  0  0  0  0  0  0  0  0  0  0  0
   10.3899  -11.6600    0.0000 O   0  0  0  0  0  0  0  0  0  0  0  0
    9.6754  -11.2475    0.0000 C   0  0  0  0  0  0  0  0  0  0  0  0
   11.1044  -13.7225    0.0000 C   0  0  0  0  0  0  0  0  0  0  0  0
   10.3899  -14.1350    0.0000 C   0  0  0  0  0  0  0  0  0  0  0  0
    9.6754  -13.7225    0.0000 C   0  0  0  0  0  0  0  0  0  0  0  0
    9.6754  -12.8975    0.0000 C   0  0  0  0  0  0  0  0  0  0  0  0
   10.3899  -12.4850    0.0000 C   0  0  0  0  0  0  0  0  0  0  0  0
   11.1044  -12.8975    0.0000 C   0  0  0  0  0  0  0  0  0  0  0  0
   11.8188  -14.1350    0.0000 O   0  0  0  0  0  0  0  0  0  0  0  0
    8.9609  -12.4850    0.0000 C   0  0  0  0  0  0  0  0  0  0  0  0
    8.9609  -11.6600    0.0000 C   0  0  0  0  0  0  0  0  0  0  0  0
 27  1  1  0  0  0  0
 25  2  1  0  0  0  0
 31  9  1  0  0  0  0
  6  3  1  0  0  0  0
  9  4  2  0  0  0  0
  5  4  1  0  0  0  0
  6  5  2  0  0  0  0
  7  6  1  0  0  0  0
  8  7  2  0  0  0  0
  9  8  1  0  0  0  0
 30 20  1  0  0  0  0
 18 20  1  1  0  0  0
 17 10  1  6  0  0  0
 16 11  1  6  0  0  0
 15 12  1  1  0  0  0
 14 13  1  6  0  0  0
 19 14  1  0  0  0  0
 15 14  1  0  0  0  0
 16 15  1  0  0  0  0
 17 16  1  0  0  0  0
 18 17  1  0  0  0  0
 19 18  1  0  0  0  0
 29 21  2  0  0  0  0
 31 22  1  0  0  0  0
 23 22  1  0  0  0  0
 28 23  2  0  0  0  0
 24 23  1  0  0  0  0
 25 24  2  0  0  0  0
 26 25  1  0  0  0  0
 27 26  2  0  0  0  0
 28 27  1  0  0  0  0
 29 28  1  0  0  0  0
 30 29  1  0  0  0  0
 31 30  2  0  0  0  0
 32 33  1  0  0  0  0
 33 34  1  0  0  0  0
 34 35  1  0  0  0  0
 35 36  1  0  0  0  0
 36 37  1  0  0  0  0
 37 32  1  0  0  0  0
 33 38  1  6  0  0  0
 32 39  1  1  0  0  0
 34 40  1  1  0  0  0
 35 41  1  6  0  0  0
 36 10  1  1  0  0  0
 39 42  1  0  0  0  0
 44 43  2  0  0  0  0
 53 44  1  0  0  0  0
 45 46  2  0  0  0  0
 46 47  1  0  0  0  0
 47 48  2  0  0  0  0
 48 49  1  0  0  0  0
 49 50  2  0  0  0  0
 50 45  1  0  0  0  0
 45 51  1  0  0  0  0
 48 52  1  0  0  0  0
 52 53  2  0  0  0  0
 44 42  1  0  0  0  0
M  END
>  <cdx:fragmentId>
29

$$$$
