122159.cdx
  Mrv1902 05222410272D          

 26 28  0  0  0  0            999 V2000
   15.5997   -8.3287    0.0000 O   0  0  0  0  0  0  0  0  0  0  0  0
   12.2812  -10.3188    0.0000 C   0  0  0  0  0  0  0  0  0  0  0  0
   13.1065  -10.3188    0.0000 C   0  0  0  0  0  0  0  0  0  0  0  0
   13.5204   -9.6049    0.0000 C   0  0  0  0  0  0  0  0  0  0  0  0
   13.1065   -8.8897    0.0000 C   0  0  0  0  0  0  0  0  0  0  0  0
   12.2812   -8.8897    0.0000 C   0  0  0  0  0  0  0  0  0  0  0  0
   11.8701   -9.6049    0.0000 C   0  0  0  0  0  0  0  0  0  0  0  0
   14.3194   -9.6049    0.0000 C   0  0  1  0  0  0  0  0  0  0  0  0
   14.8240  -10.2569    0.0000 O   0  0  0  0  0  0  0  0  0  0  0  0
   15.5997   -9.9764    0.0000 C   0  0  0  0  0  0  0  0  0  0  0  0
   15.5997   -9.1537    0.0000 C   0  0  2  0  0  0  0  0  0  0  0  0
   14.8240   -8.9228    0.0000 C   0  0  2  0  0  0  0  0  0  0  0  0
   16.3122  -10.3890    0.0000 C   0  0  0  0  0  0  0  0  0  0  0  0
   17.0259   -9.9764    0.0000 C   0  0  0  0  0  0  0  0  0  0  0  0
   17.0259   -9.1537    0.0000 C   0  0  0  0  0  0  0  0  0  0  0  0
   16.3122   -8.7412    0.0000 C   0  0  0  0  0  0  0  0  0  0  0  0
   14.4102   -8.2090    0.0000 C   0  0  0  0  0  0  0  0  0  0  0  0
   17.7383   -8.7371    0.0000 C   0  0  0  0  0  0  0  0  0  0  0  0
   17.7397  -10.3903    0.0000 O   0  0  0  0  0  0  0  0  0  0  0  0
   18.4535   -9.1497    0.0000 C   0  0  0  0  0  0  0  0  0  0  0  0
   19.1686   -8.7371    0.0000 C   0  0  0  0  0  0  0  0  0  0  0  0
   11.0628   -9.7741    0.0000 O   0  0  0  0  0  0  0  0  0  0  0  0
   11.7270  -10.9307    0.0000 O   0  0  0  0  0  0  0  0  0  0  0  0
   14.8846   -7.9161    0.0000 C   0  0  0  0  0  0  0  0  0  0  0  0
   10.5127   -9.1593    0.0000 C   0  0  0  0  0  0  0  0  0  0  0  0
   11.9800  -11.7160    0.0000 C   0  0  0  0  0  0  0  0  0  0  0  0
 11  1  1  6  0  0  0
 18 20  1  0  0  0  0
  2 23  1  0  0  0  0
 20 21  2  0  0  0  0
  7 22  1  0  0  0  0
 14 19  2  0  0  0  0
 15 18  1  0  0  0  0
 12 17  1  1  0  0  0
 11 16  1  0  0  0  0
 15 16  2  0  0  0  0
 14 15  1  0  0  0  0
 13 14  1  0  0  0  0
 10 13  2  0  0  0  0
  8 12  1  0  0  0  0
 11 12  1  1  0  0  0
 10 11  1  0  0  0  0
  9 10  1  0  0  0  0
  8  9  1  0  0  0  0
  8  4  1  6  0  0  0
  2  7  1  0  0  0  0
  6  7  2  0  0  0  0
  5  6  1  0  0  0  0
  4  5  2  0  0  0  0
  3  4  1  0  0  0  0
  2  3  2  0  0  0  0
  1 24  1  0  0  0  0
 22 25  1  0  0  0  0
 23 26  1  0  0  0  0
M  END
>  <cdx:fragmentId>
1820

$$$$
