12232.cdx
  Mrv1902 05222410192D          

  4  3  0  0  0  0            999 V2000
    8.1695   -3.7546    0.0000 C   0  0  0  0  0  0  0  0  0  0  0  0
    6.7405   -3.7546    0.0000 S   0  0  0  0  0  0  0  0  0  0  0  0
    7.4550   -4.1671    0.0000 S   0  0  0  0  0  0  0  0  0  0  0  0
    6.0260   -4.1671    0.0000 C   0  0  0  0  0  0  0  0  0  0  0  0
  4  2  1  0  0  0  0
  3  1  1  0  0  0  0
  3  2  1  0  0  0  0
M  END
>  <cdx:groupId>
13

>  <cdx:fragmentId>
7

$$$$
