122371.cdx
  Mrv1902 05222410282D          

 11 11  0  0  0  0            999 V2000
    6.2705   -6.3219    0.0000 O   0  0  0  0  0  0  0  0  0  0  0  0
    5.8580   -5.6074    0.0000 C   0  0  0  0  0  0  0  0  0  0  0  0
    6.6830   -5.6074    0.0000 C   0  0  0  0  0  0  0  0  0  0  0  0
    7.3974   -5.1949    0.0000 C   0  0  0  0  0  0  0  0  0  0  0  0
    8.1119   -5.6074    0.0000 C   0  0  0  0  0  0  0  0  0  0  0  0
    8.8264   -5.1949    0.0000 C   0  0  0  0  0  0  0  0  0  0  0  0
    9.5409   -5.6074    0.0000 C   0  0  0  0  0  0  0  0  0  0  0  0
   10.2553   -5.1949    0.0000 C   0  0  0  0  0  0  0  0  0  0  0  0
    8.8264   -4.3699    0.0000 C   0  0  0  0  0  0  0  0  0  0  0  0
    5.0330   -5.6074    0.0000 C   0  0  0  0  0  0  0  0  0  0  0  0
    5.4455   -4.8929    0.0000 C   0  0  0  0  0  0  0  0  0  0  0  0
  1  2  1  0  0  0  0
  2  3  1  0  0  0  0
  1  3  1  0  0  0  0
  4  5  1  0  0  0  0
  5  6  1  0  0  0  0
  6  7  1  0  0  0  0
  7  8  2  0  0  0  0
  6  9  2  0  0  0  0
  3  4  1  0  0  0  0
  2 10  1  0  0  0  0
  2 11  1  0  0  0  0
M  END
>  <cdx:fragmentId>
1929

$$$$
