12254.cdx
  Mrv1902 05222410212D          

 32 35  0  0  0  0            999 V2000
    4.2314   -6.4144    0.0000 C   0  0  0  0  0  0  0  0  0  0  0  0
    4.2314   -7.2394    0.0000 C   0  0  0  0  0  0  0  0  0  0  0  0
    4.9459   -7.6519    0.0000 C   0  0  0  0  0  0  0  0  0  0  0  0
    5.6603   -7.2394    0.0000 C   0  0  0  0  0  0  0  0  0  0  0  0
    5.6603   -6.4144    0.0000 C   0  0  0  0  0  0  0  0  0  0  0  0
    4.9459   -6.0019    0.0000 C   0  0  0  0  0  0  0  0  0  0  0  0
    6.3748   -7.6519    0.0000 C   0  0  0  0  0  0  0  0  0  0  0  0
    7.0893   -7.2394    0.0000 C   0  0  0  0  0  0  0  0  0  0  0  0
    7.0893   -6.4144    0.0000 C   0  0  0  0  0  0  0  0  0  0  0  0
    6.3748   -6.0019    0.0000 O   0  0  0  0  0  0  0  0  0  0  0  0
    7.8038   -6.0019    0.0000 C   0  0  0  0  0  0  0  0  0  0  0  0
    7.8038   -5.1769    0.0000 C   0  0  0  0  0  0  0  0  0  0  0  0
    8.5182   -6.4144    0.0000 C   0  0  0  0  0  0  0  0  0  0  0  0
    9.2327   -6.0019    0.0000 C   0  0  0  0  0  0  0  0  0  0  0  0
    9.2327   -5.1769    0.0000 C   0  0  0  0  0  0  0  0  0  0  0  0
    8.5182   -4.7644    0.0000 C   0  0  0  0  0  0  0  0  0  0  0  0
    3.5169   -6.0019    0.0000 O   0  0  0  0  0  0  0  0  0  0  0  0
    4.9459   -8.4769    0.0000 O   0  0  0  0  0  0  0  0  0  0  0  0
    6.3748   -8.4769    0.0000 O   0  0  0  0  0  0  0  0  0  0  0  0
    9.9472   -4.7644    0.0000 O   0  0  0  0  0  0  0  0  0  0  0  0
    7.1877   -9.7945    0.0000 C   0  0  2  0  0  0  0  0  0  0  0  0
    7.9028  -10.2058    0.0000 C   0  0  2  0  0  0  0  0  0  0  0  0
    8.6166   -9.7922    0.0000 C   0  0  1  0  0  0  0  0  0  0  0  0
    8.6153   -8.9672    0.0000 C   0  0  2  0  0  0  0  0  0  0  0  0
    7.9001   -8.5558    0.0000 C   0  0  1  0  0  0  0  0  0  0  0  0
    7.1863   -8.9695    0.0000 O   0  0  0  0  0  0  0  0  0  0  0  0
    7.8988   -7.7308    0.0000 O   0  0  0  0  0  0  0  0  0  0  0  0
    6.4739  -10.2081    0.0000 C   0  0  0  0  0  0  0  0  0  0  0  0
    9.3317  -10.2035    0.0000 O   0  0  0  0  0  0  0  0  0  0  0  0
    9.3291   -8.5535    0.0000 O   0  0  0  0  0  0  0  0  0  0  0  0
    7.9041  -11.0308    0.0000 O   0  0  0  0  0  0  0  0  0  0  0  0
    6.4752  -11.0331    0.0000 O   0  0  0  0  0  0  0  0  0  0  0  0
  1  2  2  0  0  0  0
  2  3  1  0  0  0  0
  3  4  2  0  0  0  0
  4  5  1  0  0  0  0
  5  6  2  0  0  0  0
  6  1  1  0  0  0  0
  4  7  1  0  0  0  0
  7  8  1  0  0  0  0
  8  9  2  0  0  0  0
  9 10  1  0  0  0  0
 10  5  1  0  0  0  0
  9 11  1  0  0  0  0
 11 12  1  0  0  0  0
 11 13  2  0  0  0  0
 13 14  1  0  0  0  0
 14 15  2  0  0  0  0
 15 16  1  0  0  0  0
 16 12  2  0  0  0  0
  1 17  1  0  0  0  0
  3 18  1  0  0  0  0
  7 19  2  0  0  0  0
 15 20  1  0  0  0  0
 21 22  1  0  0  0  0
 22 23  1  0  0  0  0
 23 24  1  0  0  0  0
 24 25  1  0  0  0  0
 25 26  1  0  0  0  0
 26 21  1  0  0  0  0
 25 27  1  1  0  0  0
 21 28  1  1  0  0  0
 23 29  1  1  0  0  0
 24 30  1  6  0  0  0
 22 31  1  6  0  0  0
 28 32  1  0  0  0  0
  8 27  1  0  0  0  0
M  END
>  <cdx:fragmentId>
6

$$$$
