12253.cdx
  Mrv1902 05222410222D          

  6  5  0  0  0  0            999 V2000
    6.4314   -4.8925    0.0000 C   0  0  0  0  0  0  0  0  0  0  0  0
    5.7169   -5.3050    0.0000 C   0  0  0  0  0  0  0  0  0  0  0  0
    6.4314   -4.0675    0.0000 O   0  0  0  0  0  0  0  0  0  0  0  0
    7.1459   -5.3050    0.0000 N   0  0  0  0  0  0  0  0  0  0  0  0
    7.8603   -4.8925    0.0000 C   0  0  0  0  0  0  0  0  0  0  0  0
    8.5748   -5.3050    0.0000 C   0  0  0  0  0  0  0  0  0  0  0  0
  1  2  1  0  0  0  0
  1  3  2  0  0  0  0
  1  4  1  0  0  0  0
  5  6  1  0  0  0  0
  4  5  1  0  0  0  0
M  END
>  <cdx:fragmentId>
5

$$$$
