122640.cdx
  Mrv1902 05222410222D          

 14 13  0  0  0  0            999 V2000
    4.1449   -5.9856    0.0000 C   0  0  0  0  0  0  0  0  0  0  0  0
    4.8594   -6.3981    0.0000 C   0  0  0  0  0  0  0  0  0  0  0  0
    5.5739   -5.9856    0.0000 C   0  0  0  0  0  0  0  0  0  0  0  0
    6.2883   -6.3981    0.0000 C   0  0  0  0  0  0  0  0  0  0  0  0
    7.0028   -5.9856    0.0000 C   0  0  0  0  0  0  0  0  0  0  0  0
    7.7173   -6.3981    0.0000 C   0  0  0  0  0  0  0  0  0  0  0  0
    8.4317   -5.9856    0.0000 C   0  0  0  0  0  0  0  0  0  0  0  0
    9.1462   -6.3981    0.0000 C   0  0  0  0  0  0  0  0  0  0  0  0
    9.8607   -5.9856    0.0000 C   0  0  0  0  0  0  0  0  0  0  0  0
   10.5752   -6.3981    0.0000 C   0  0  0  0  0  0  0  0  0  0  0  0
   11.2896   -5.9856    0.0000 C   0  0  0  0  0  0  0  0  0  0  0  0
   12.0041   -6.3981    0.0000 C   0  0  0  0  0  0  0  0  0  0  0  0
    3.4304   -6.3981    0.0000 O   0  0  0  0  0  0  0  0  0  0  0  0
    5.5739   -5.1606    0.0000 O   0  0  0  0  0  0  0  0  0  0  0  0
  1  2  1  0  0  0  0
  2  3  1  0  0  0  0
  3  4  1  0  0  0  0
  4  5  1  0  0  0  0
  5  6  1  0  0  0  0
  6  7  1  0  0  0  0
  7  8  1  0  0  0  0
  8  9  1  0  0  0  0
  9 10  1  0  0  0  0
 10 11  1  0  0  0  0
 11 12  1  0  0  0  0
  1 13  2  0  0  0  0
  3 14  2  0  0  0  0
M  END
>  <cdx:groupId>
2106

>  <cdx:fragmentId>
2068

$$$$
