122691.cdx
  Mrv1902 05222410202D          

 22 25  0  0  0  0            999 V2000
    6.3068   -9.9859    0.0000 C   0  0  0  0  0  0  0  0  0  0  0  0
    7.0257  -10.3907    0.0000 C   0  0  0  0  0  0  0  0  0  0  0  0
    7.7357   -9.9705    0.0000 C   0  0  0  0  0  0  0  0  0  0  0  0
    7.7268   -9.1456    0.0000 C   0  0  0  0  0  0  0  0  0  0  0  0
    7.0079   -8.7408    0.0000 C   0  0  0  0  0  0  0  0  0  0  0  0
    6.2979   -9.1610    0.0000 C   0  0  0  0  0  0  0  0  0  0  0  0
    8.4368   -8.7254    0.0000 C   0  0  0  0  0  0  0  0  0  0  0  0
    8.4279   -7.9004    0.0000 C   0  0  0  0  0  0  0  0  0  0  0  0
    7.7090   -7.4957    0.0000 C   0  0  0  0  0  0  0  0  0  0  0  0
    6.9990   -7.9158    0.0000 C   0  0  0  0  0  0  0  0  0  0  0  0
    9.1379   -7.4803    0.0000 N   0  0  0  0  0  0  0  0  0  0  0  0
    9.1290   -6.6553    0.0000 C   0  0  0  0  0  0  0  0  0  0  0  0
    8.4101   -6.2505    0.0000 C   0  0  0  0  0  0  0  0  0  0  0  0
    7.7001   -6.6707    0.0000 C   0  0  0  0  0  0  0  0  0  0  0  0
    6.9812   -6.2659    0.0000 C   0  0  0  0  0  0  0  0  0  0  0  0
    6.2713   -6.6861    0.0000 C   0  0  0  0  0  0  0  0  0  0  0  0
    6.2802   -7.5111    0.0000 C   0  0  0  0  0  0  0  0  0  0  0  0
    5.5702   -7.9312    0.0000 O   0  0  0  0  0  0  0  0  0  0  0  0
    5.5524   -6.2813    0.0000 O   0  0  0  0  0  0  0  0  0  0  0  0
    4.8424   -6.7015    0.0000 C   0  0  0  0  0  0  0  0  0  0  0  0
    5.5791   -8.7562    0.0000 C   0  0  0  0  0  0  0  0  0  0  0  0
    9.1556   -9.1302    0.0000 O   0  0  0  0  0  0  0  0  0  0  0  0
  1  2  2  0  0  0  0
  2  3  1  0  0  0  0
  3  4  2  0  0  0  0
  4  5  1  0  0  0  0
  5  6  2  0  0  0  0
  6  1  1  0  0  0  0
  4  7  1  0  0  0  0
  7  8  1  0  0  0  0
  8  9  1  0  0  0  0
  9 10  2  0  0  0  0
 10  5  1  0  0  0  0
  8 11  2  0  0  0  0
 11 12  1  0  0  0  0
 12 13  2  0  0  0  0
 13 14  1  0  0  0  0
 14  9  1  0  0  0  0
 14 15  2  0  0  0  0
 15 16  1  0  0  0  0
 16 17  2  0  0  0  0
 17 10  1  0  0  0  0
 17 18  1  0  0  0  0
 16 19  1  0  0  0  0
 19 20  1  0  0  0  0
 18 21  1  0  0  0  0
  7 22  2  0  0  0  0
M  END
>  <cdx:fragmentId>
4184

$$$$
