12266.cdx
  Mrv1902 05222410252D          

  7  7  0  0  0  0            999 V2000
    4.3065   -2.5354    0.0000 O   0  0  0  0  0  0  0  0  0  0  0  0
    4.9739   -3.0203    0.0000 C   0  0  0  0  0  0  0  0  0  0  0  0
    4.7190   -3.8049    0.0000 C   0  0  0  0  0  0  0  0  0  0  0  0
    3.8940   -3.8049    0.0000 C   0  0  0  0  0  0  0  0  0  0  0  0
    3.6391   -3.0203    0.0000 C   0  0  0  0  0  0  0  0  0  0  0  0
    2.8544   -2.7654    0.0000 C   0  0  0  0  0  0  0  0  0  0  0  0
    5.7586   -2.7654    0.0000 C   0  0  0  0  0  0  0  0  0  0  0  0
  1  2  1  0  0  0  0
  2  3  2  0  0  0  0
  3  4  1  0  0  0  0
  4  5  2  0  0  0  0
  1  5  1  0  0  0  0
  5  6  1  0  0  0  0
  2  7  1  0  0  0  0
M  END
>  <cdx:groupId>
23

>  <cdx:fragmentId>
5

$$$$
