1227.cdx
  Mrv1902 05222410222D          

 22 24  0  0  0  0            999 V2000
    4.4308   -5.8712    0.0000 C   0  0  0  0  0  0  0  0  0  0  0  0
    4.4308   -6.6962    0.0000 C   0  0  0  0  0  0  0  0  0  0  0  0
    5.1452   -7.1088    0.0000 C   0  0  0  0  0  0  0  0  0  0  0  0
    5.8597   -6.6962    0.0000 C   0  0  0  0  0  0  0  0  0  0  0  0
    5.8597   -5.8712    0.0000 C   0  0  0  0  0  0  0  0  0  0  0  0
    5.1452   -5.4588    0.0000 C   0  0  0  0  0  0  0  0  0  0  0  0
    6.5742   -7.1088    0.0000 C   0  0  0  0  0  0  0  0  0  0  0  0
    7.2887   -6.6962    0.0000 C   0  0  1  0  0  0  0  0  0  0  0  0
    7.2887   -5.8712    0.0000 C   0  0  2  0  0  0  0  0  0  0  0  0
    6.5742   -5.4588    0.0000 O   0  0  0  0  0  0  0  0  0  0  0  0
    3.7163   -5.4588    0.0000 O   0  0  0  0  0  0  0  0  0  0  0  0
    5.1452   -7.9337    0.0000 O   0  0  0  0  0  0  0  0  0  0  0  0
    8.0031   -7.1088    0.0000 O   0  0  0  0  0  0  0  0  0  0  0  0
    8.0031   -5.4588    0.0000 C   0  0  0  0  0  0  0  0  0  0  0  0
    8.7176   -5.8712    0.0000 C   0  0  0  0  0  0  0  0  0  0  0  0
    9.4321   -5.4588    0.0000 C   0  0  0  0  0  0  0  0  0  0  0  0
    9.4321   -4.6338    0.0000 C   0  0  0  0  0  0  0  0  0  0  0  0
    8.7176   -4.2213    0.0000 C   0  0  0  0  0  0  0  0  0  0  0  0
    8.0031   -4.6338    0.0000 C   0  0  0  0  0  0  0  0  0  0  0  0
    8.7176   -3.3963    0.0000 O   0  0  0  0  0  0  0  0  0  0  0  0
   10.1465   -4.2213    0.0000 O   0  0  0  0  0  0  0  0  0  0  0  0
   10.1465   -5.8712    0.0000 O   0  0  0  0  0  0  0  0  0  0  0  0
  1  2  1  0  0  0  0
  2  3  2  0  0  0  0
  3  4  1  0  0  0  0
  4  5  2  0  0  0  0
  5  6  1  0  0  0  0
  6  1  2  0  0  0  0
  4  7  1  0  0  0  0
  7  8  1  0  0  0  0
  8  9  1  0  0  0  0
  9 10  1  0  0  0  0
 10  5  1  0  0  0  0
  1 11  1  0  0  0  0
  3 12  1  0  0  0  0
  8 13  1  1  0  0  0
  9 14  1  6  0  0  0
 14 15  2  0  0  0  0
 15 16  1  0  0  0  0
 16 17  2  0  0  0  0
 17 18  1  0  0  0  0
 18 19  2  0  0  0  0
 19 14  1  0  0  0  0
 18 20  1  0  0  0  0
 17 21  1  0  0  0  0
 16 22  1  0  0  0  0
M  END
>  <cdx:fragmentId>
5

$$$$
