122783.cdx
  Mrv1902 05222410202D          

 12 13  0  0  0  0            999 V2000
   15.7229  -14.9637    0.0000 O   0  0  0  0  0  0  0  0  0  0  0  0
   16.4373  -15.3762    0.0000 C   0  0  0  0  0  0  0  0  0  0  0  0
   17.1518  -14.9637    0.0000 O   0  0  0  0  0  0  0  0  0  0  0  0
   16.4373  -16.2012    0.0000 C   0  0  0  0  0  0  0  0  0  0  0  0
   15.7229  -16.6137    0.0000 C   0  0  0  0  0  0  0  0  0  0  0  0
   15.0084  -16.2012    0.0000 C   0  0  0  0  0  0  0  0  0  0  0  0
   14.2939  -16.6137    0.0000 C   0  0  0  0  0  0  0  0  0  0  0  0
   13.5795  -16.2012    0.0000 C   0  0  0  0  0  0  0  0  0  0  0  0
   13.5795  -15.3762    0.0000 C   0  0  0  0  0  0  0  0  0  0  0  0
   14.2939  -14.9637    0.0000 C   0  0  0  0  0  0  0  0  0  0  0  0
   15.0084  -15.3762    0.0000 C   0  0  0  0  0  0  0  0  0  0  0  0
   14.2939  -14.1387    0.0000 O   0  0  0  0  0  0  0  0  0  0  0  0
  1  2  1  0  0  0  0
  2  3  2  0  0  0  0
  2  4  1  0  0  0  0
  4  5  2  0  0  0  0
  5  6  1  0  0  0  0
  6  7  1  0  0  0  0
  7  8  2  0  0  0  0
  8  9  1  0  0  0  0
  9 10  2  0  0  0  0
 10 11  1  0  0  0  0
  1 11  1  0  0  0  0
  6 11  2  0  0  0  0
 10 12  1  0  0  0  0
M  END
>  <cdx:groupId>
2307

>  <cdx:fragmentId>
2273

$$$$
