1228.cdx
  Mrv1902 05222410232D          

 22 24  0  0  0  0            999 V2000
    4.4033   -5.8438    0.0000 C   0  0  0  0  0  0  0  0  0  0  0  0
    4.4033   -6.6688    0.0000 C   0  0  0  0  0  0  0  0  0  0  0  0
    5.1177   -7.0812    0.0000 C   0  0  0  0  0  0  0  0  0  0  0  0
    5.8322   -6.6688    0.0000 C   0  0  0  0  0  0  0  0  0  0  0  0
    5.8322   -5.8438    0.0000 C   0  0  0  0  0  0  0  0  0  0  0  0
    5.1177   -5.4313    0.0000 C   0  0  0  0  0  0  0  0  0  0  0  0
    6.5467   -7.0812    0.0000 C   0  0  0  0  0  0  0  0  0  0  0  0
    7.2612   -6.6688    0.0000 C   0  0  2  0  0  0  0  0  0  0  0  0
    7.2612   -5.8438    0.0000 C   0  0  1  0  0  0  0  0  0  0  0  0
    6.5467   -5.4313    0.0000 O   0  0  0  0  0  0  0  0  0  0  0  0
    3.6888   -5.4313    0.0000 O   0  0  0  0  0  0  0  0  0  0  0  0
    5.1177   -7.9063    0.0000 O   0  0  0  0  0  0  0  0  0  0  0  0
    7.9756   -7.0812    0.0000 O   0  0  0  0  0  0  0  0  0  0  0  0
    7.9756   -5.4313    0.0000 C   0  0  0  0  0  0  0  0  0  0  0  0
    8.6901   -5.8438    0.0000 C   0  0  0  0  0  0  0  0  0  0  0  0
    9.4046   -5.4313    0.0000 C   0  0  0  0  0  0  0  0  0  0  0  0
    9.4046   -4.6063    0.0000 C   0  0  0  0  0  0  0  0  0  0  0  0
    8.6901   -4.1937    0.0000 C   0  0  0  0  0  0  0  0  0  0  0  0
    7.9756   -4.6063    0.0000 C   0  0  0  0  0  0  0  0  0  0  0  0
    8.6901   -3.3687    0.0000 O   0  0  0  0  0  0  0  0  0  0  0  0
   10.1190   -4.1937    0.0000 O   0  0  0  0  0  0  0  0  0  0  0  0
   10.1190   -5.8438    0.0000 O   0  0  0  0  0  0  0  0  0  0  0  0
  1  2  1  0  0  0  0
  2  3  2  0  0  0  0
  3  4  1  0  0  0  0
  4  5  2  0  0  0  0
  5  6  1  0  0  0  0
  6  1  2  0  0  0  0
  4  7  1  0  0  0  0
  7  8  1  0  0  0  0
  8  9  1  0  0  0  0
  9 10  1  0  0  0  0
 10  5  1  0  0  0  0
  1 11  1  0  0  0  0
  3 12  1  0  0  0  0
  8 13  1  6  0  0  0
  9 14  1  1  0  0  0
 14 15  2  0  0  0  0
 15 16  1  0  0  0  0
 16 17  2  0  0  0  0
 17 18  1  0  0  0  0
 18 19  2  0  0  0  0
 19 14  1  0  0  0  0
 18 20  1  0  0  0  0
 17 21  1  0  0  0  0
 16 22  1  0  0  0  0
M  END
>  <cdx:fragmentId>
5

$$$$
