122865.cdx
  Mrv1902 05222410232D          

 34 38  0  0  0  0            999 V2000
    8.4699   -7.0645    0.0000 C   0  0  2  0  0  0  0  0  0  0  0  0
    9.1843   -7.4770    0.0000 C   0  0  2  0  0  0  0  0  0  0  0  0
    9.1843   -8.3020    0.0000 C   0  0  0  0  0  0  0  0  0  0  0  0
    8.4699   -8.7145    0.0000 C   0  0  0  0  0  0  0  0  0  0  0  0
    7.7554   -8.3020    0.0000 C   0  0  2  0  0  0  0  0  0  0  0  0
    7.0409   -8.7145    0.0000 C   0  0  1  0  0  0  0  0  0  0  0  0
    7.0409   -9.5395    0.0000 C   0  0  0  0  0  0  0  0  0  0  0  0
    6.3264   -9.9520    0.0000 C   0  0  0  0  0  0  0  0  0  0  0  0
    5.6120   -9.5395    0.0000 C   0  0  1  0  0  0  0  0  0  0  0  0
    4.8975   -9.9520    0.0000 C   0  0  0  0  0  0  0  0  0  0  0  0
    4.1830   -9.5395    0.0000 C   0  0  2  0  0  0  0  0  0  0  0  0
    4.1830   -8.7145    0.0000 C   0  0  0  0  0  0  0  0  0  0  0  0
    4.8975   -8.3020    0.0000 C   0  0  0  0  0  0  0  0  0  0  0  0
    5.6120   -8.7145    0.0000 C   0  0  2  0  0  0  0  0  0  0  0  0
    6.3264   -8.3020    0.0000 C   0  0  0  0  0  0  0  0  0  0  0  0
    6.3264   -7.4770    0.0000 C   0  0  0  0  0  0  0  0  0  0  0  0
    7.0409   -7.0645    0.0000 C   0  0  0  0  0  0  0  0  0  0  0  0
    7.7554   -7.4770    0.0000 C   0  0  1  0  0  0  0  0  0  0  0  0
    9.7974   -6.9250    0.0000 C   0  0  2  0  0  0  0  0  0  0  0  0
    9.4619   -6.1713    0.0000 C   0  0  0  0  0  0  0  0  0  0  0  0
    8.6414   -6.2576    0.0000 C   0  0  0  0  0  0  0  0  0  0  0  0
    3.4686   -9.9520    0.0000 O   0  0  0  0  0  0  0  0  0  0  0  0
   10.8593   -7.8812    0.0000 C   0  0  0  0  0  0  0  0  0  0  0  0
   10.6044   -7.0965    0.0000 C   0  0  0  0  0  0  0  0  0  0  0  0
   11.1878   -6.5132    0.0000 C   0  0  0  0  0  0  0  0  0  0  0  0
    7.7554   -6.6520    0.0000 C   0  0  0  0  0  0  0  0  0  0  0  0
    5.6120   -7.8895    0.0000 C   0  0  0  0  0  0  0  0  0  0  0  0
    5.3100  -10.6665    0.0000 C   0  0  0  0  0  0  0  0  0  0  0  0
    4.4850  -10.6665    0.0000 C   0  0  0  0  0  0  0  0  0  0  0  0
    7.7554   -9.1270    0.0000 C   0  0  0  0  0  0  0  0  0  0  0  0
    9.9380   -7.8126    0.0000 C   0  0  0  0  0  0  0  0  0  0  0  0
    8.4699   -7.8895    0.0000 H   0  0  0  0  0  0  0  0  0  0  0  0
    7.0409   -7.8895    0.0000 H   0  0  0  0  0  0  0  0  0  0  0  0
    5.6120  -10.3645    0.0000 H   0  0  0  0  0  0  0  0  0  0  0  0
  1  2  1  0  0  0  0
  2  3  1  0  0  0  0
  3  4  1  0  0  0  0
  4  5  1  0  0  0  0
  5  6  1  0  0  0  0
  6  7  1  0  0  0  0
  7  8  1  0  0  0  0
  8  9  1  0  0  0  0
  9 10  1  0  0  0  0
 10 11  1  0  0  0  0
 11 12  1  0  0  0  0
 12 13  1  0  0  0  0
 13 14  1  0  0  0  0
  9 14  1  0  0  0  0
 14 15  1  0  0  0  0
  6 15  1  0  0  0  0
 15 16  2  0  0  0  0
 16 17  1  0  0  0  0
 17 18  1  0  0  0  0
  5 18  1  0  0  0  0
  1 18  1  0  0  0  0
 19 20  1  0  0  0  0
 20 21  1  0  0  0  0
 21  1  1  0  0  0  0
 19  2  1  0  0  0  0
 11 22  1  1  0  0  0
 23 24  1  0  0  0  0
 24 25  1  0  0  0  0
 19 24  1  6  0  0  0
 18 26  1  6  0  0  0
 14 27  1  1  0  0  0
 10 28  1  0  0  0  0
 10 29  1  0  0  0  0
  5 30  1  1  0  0  0
  2 31  1  6  0  0  0
  1 32  1  1  0  0  0
  6 33  1  6  0  0  0
  9 34  1  6  0  0  0
M  END
>  <cdx:groupId>
20945

>  <cdx:fragmentId>
20851

$$$$
