122851.cdx
  Mrv1902 05222410252D          

 28 31  0  0  0  0            999 V2000
   18.2619   -9.2367    0.0000 C   0  0  0  0  0  0  0  0  0  0  0  0
   17.8494   -9.9512    0.0000 C   0  0  0  0  0  0  0  0  0  0  0  0
   17.8494  -10.7762    0.0000 C   0  0  0  0  0  0  0  0  0  0  0  0
   17.1350  -11.1887    0.0000 C   0  0  0  0  0  0  0  0  0  0  0  0
   16.4205  -10.7762    0.0000 C   0  0  0  0  0  0  0  0  0  0  0  0
   16.4205   -9.9512    0.0000 C   0  0  0  0  0  0  0  0  0  0  0  0
   17.1350   -9.5387    0.0000 O   0  0  0  0  0  0  0  0  0  0  0  0
   15.7060   -9.5387    0.0000 C   0  0  0  0  0  0  0  0  0  0  0  0
   14.9916   -9.9512    0.0000 C   0  0  0  0  0  0  0  0  0  0  0  0
   14.9916  -10.7762    0.0000 C   0  0  0  0  0  0  0  0  0  0  0  0
   15.7060  -11.1887    0.0000 C   0  0  0  0  0  0  0  0  0  0  0  0
   15.7060  -12.0137    0.0000 O   0  0  0  0  0  0  0  0  0  0  0  0
   14.9916  -12.4262    0.0000 C   0  0  0  0  0  0  0  0  0  0  0  0
   14.2771  -11.1887    0.0000 C   0  0  0  0  0  0  0  0  0  0  0  0
   13.5626  -10.7762    0.0000 C   0  0  0  0  0  0  0  0  0  0  0  0
   13.5626   -9.9512    0.0000 C   0  0  0  0  0  0  0  0  0  0  0  0
   12.8481   -9.5387    0.0000 O   0  0  0  0  0  0  0  0  0  0  0  0
   14.2771   -9.5387    0.0000 O   0  0  0  0  0  0  0  0  0  0  0  0
   12.8481  -11.1887    0.0000 C   0  0  0  0  0  0  0  0  0  0  0  0
   12.8481  -12.0137    0.0000 C   0  0  0  0  0  0  0  0  0  0  0  0
   12.1337  -12.4262    0.0000 C   0  0  0  0  0  0  0  0  0  0  0  0
   11.4192  -12.0137    0.0000 C   0  0  0  0  0  0  0  0  0  0  0  0
   11.4192  -11.1887    0.0000 C   0  0  0  0  0  0  0  0  0  0  0  0
   12.1337  -10.7762    0.0000 C   0  0  0  0  0  0  0  0  0  0  0  0
   10.7047  -12.4262    0.0000 O   0  0  0  0  0  0  0  0  0  0  0  0
   13.5626  -12.4262    0.0000 O   0  0  0  0  0  0  0  0  0  0  0  0
   18.6744   -9.9512    0.0000 C   0  0  0  0  0  0  0  0  0  0  0  0
   19.0869   -9.2367    0.0000 O   0  0  0  0  0  0  0  0  0  0  0  0
  1  2  1  0  0  0  0
  2  3  1  0  0  0  0
  3  4  1  0  0  0  0
  4  5  1  0  0  0  0
  5  6  2  0  0  0  0
  6  7  1  0  0  0  0
  2  7  1  0  0  0  0
  6  8  1  0  0  0  0
  8  9  2  0  0  0  0
  9 10  1  0  0  0  0
 10 11  2  0  0  0  0
  5 11  1  0  0  0  0
 11 12  1  0  0  0  0
 12 13  1  0  0  0  0
 10 14  1  0  0  0  0
 14 15  2  0  0  0  0
 15 16  1  0  0  0  0
 16 17  2  0  0  0  0
 16 18  1  0  0  0  0
  9 18  1  0  0  0  0
 15 19  1  0  0  0  0
 19 20  2  0  0  0  0
 20 21  1  0  0  0  0
 21 22  2  0  0  0  0
 22 23  1  0  0  0  0
 23 24  2  0  0  0  0
 19 24  1  0  0  0  0
 22 25  1  0  0  0  0
 20 26  1  0  0  0  0
  2 27  1  0  0  0  0
 27 28  1  0  0  0  0
M  END
>  <cdx:fragmentId>
2542

$$$$
