122842.cdx
  Mrv1902 05222410242D          

 16 16  0  0  0  0            999 V2000
    7.8954   -7.7423    0.0000 O   0  0  0  0  0  0  0  0  0  0  0  0
    7.8954   -6.9173    0.0000 C   0  0  0  0  0  0  0  0  0  0  0  0
    7.1809   -6.5048    0.0000 C   0  0  0  0  0  0  0  0  0  0  0  0
    7.1809   -5.6798    0.0000 C   0  0  0  0  0  0  0  0  0  0  0  0
    7.8954   -5.2673    0.0000 O   0  0  0  0  0  0  0  0  0  0  0  0
    6.4664   -5.2673    0.0000 C   0  0  0  0  0  0  0  0  0  0  0  0
    5.7520   -5.6798    0.0000 C   0  0  0  0  0  0  0  0  0  0  0  0
    5.0375   -5.2673    0.0000 O   0  0  0  0  0  0  0  0  0  0  0  0
    4.3231   -5.6798    0.0000 C   0  0  0  0  0  0  0  0  0  0  0  0
    5.7520   -6.5048    0.0000 C   0  0  0  0  0  0  0  0  0  0  0  0
    6.4664   -6.9173    0.0000 C   0  0  0  0  0  0  0  0  0  0  0  0
    6.4664   -7.7423    0.0000 O   0  0  0  0  0  0  0  0  0  0  0  0
    8.6099   -6.5048    0.0000 C   0  0  0  0  0  0  0  0  0  0  0  0
    9.3244   -6.9173    0.0000 C   0  0  0  0  0  0  0  0  0  0  0  0
   10.0388   -6.5048    0.0000 C   0  0  0  0  0  0  0  0  0  0  0  0
    6.4664   -4.4423    0.0000 C   0  0  0  0  0  0  0  0  0  0  0  0
  1  2  2  0  0  0  0
  2  3  1  0  0  0  0
  3  4  1  0  0  0  0
  4  5  1  0  0  0  0
  4  6  2  0  0  0  0
  6  7  1  0  0  0  0
  7  8  1  0  0  0  0
  8  9  1  0  0  0  0
  7 10  2  0  0  0  0
 10 11  1  0  0  0  0
  3 11  2  0  0  0  0
 11 12  1  0  0  0  0
  2 13  1  0  0  0  0
 13 14  1  0  0  0  0
 14 15  1  0  0  0  0
  6 16  1  0  0  0  0
M  END
>  <cdx:fragmentId>
2505

$$$$
