122857.cdx
  Mrv1902 05222410242D          

 34 38  0  0  0  0            999 V2000
    6.7621  -11.8479    0.0000 C   0  0  0  0  0  0  0  0  0  0  0  0
    6.7621  -12.6729    0.0000 C   0  0  1  0  0  0  0  0  0  0  0  0
    7.4766  -13.0854    0.0000 C   0  0  0  0  0  0  0  0  0  0  0  0
    8.1910  -12.6729    0.0000 C   0  0  1  0  0  0  0  0  0  0  0  0
    8.1910  -11.8479    0.0000 C   0  0  2  0  0  0  0  0  0  0  0  0
    7.4766  -11.4354    0.0000 C   0  0  0  0  0  0  0  0  0  0  0  0
    8.9055  -13.0854    0.0000 C   0  0  0  0  0  0  0  0  0  0  0  0
    9.6200  -12.6729    0.0000 C   0  0  0  0  0  0  0  0  0  0  0  0
    9.6200  -11.8479    0.0000 C   0  0  2  0  0  0  0  0  0  0  0  0
    8.9055  -11.4354    0.0000 C   0  0  2  0  0  0  0  0  0  0  0  0
   10.3344  -11.4354    0.0000 C   0  0  1  0  0  0  0  0  0  0  0  0
   10.3344  -10.6104    0.0000 C   0  0  2  0  0  0  0  0  0  0  0  0
    9.6200  -10.1979    0.0000 C   0  0  0  0  0  0  0  0  0  0  0  0
    8.9055  -10.6104    0.0000 C   0  0  0  0  0  0  0  0  0  0  0  0
   11.0489  -11.8479    0.0000 C   0  0  0  0  0  0  0  0  0  0  0  0
   11.7634  -11.4354    0.0000 C   0  0  0  0  0  0  0  0  0  0  0  0
   11.7634  -10.6104    0.0000 C   0  0  2  0  0  0  0  0  0  0  0  0
   11.0489  -10.1979    0.0000 C   0  0  0  0  0  0  0  0  0  0  0  0
   12.4779  -10.1979    0.0000 C   0  0  0  0  0  0  0  0  0  0  0  0
   12.4779   -9.3729    0.0000 C   0  0  0  0  0  0  0  0  0  0  0  0
   11.7634   -8.9604    0.0000 C   0  0  0  0  0  0  0  0  0  0  0  0
   11.0489   -9.3729    0.0000 C   0  0  0  0  0  0  0  0  0  0  0  0
    7.0641  -13.7999    0.0000 C   0  0  0  0  0  0  0  0  0  0  0  0
    7.8891  -13.7999    0.0000 C   0  0  0  0  0  0  0  0  0  0  0  0
   11.3509   -8.2460    0.0000 C   0  0  0  0  0  0  0  0  0  0  0  0
   12.1759   -8.2460    0.0000 C   0  0  0  0  0  0  0  0  0  0  0  0
    9.6200  -11.0229    0.0000 H   0  0  0  0  0  0  0  0  0  0  0  0
   10.7469  -12.1499    0.0000 C   0  0  0  0  0  0  0  0  0  0  0  0
    8.1910  -13.4979    0.0000 H   0  0  0  0  0  0  0  0  0  0  0  0
   12.4779  -11.0229    0.0000 C   0  0  0  0  0  0  0  0  0  0  0  0
   10.3344   -9.7854    0.0000 H   0  0  0  0  0  0  0  0  0  0  0  0
   10.2033  -12.4313    0.0000 C   0  0  0  0  0  0  0  0  0  0  0  0
    8.1910  -11.0229    0.0000 C   0  0  0  0  0  0  0  0  0  0  0  0
    6.0476  -13.0854    0.0000 O   0  0  0  0  0  0  0  0  0  0  0  0
  1  2  1  0  0  0  0
  2  3  1  0  0  0  0
  3  4  1  0  0  0  0
  4  5  1  0  0  0  0
  5  6  1  0  0  0  0
  6  1  1  0  0  0  0
  4  7  1  0  0  0  0
  7  8  1  0  0  0  0
  8  9  1  0  0  0  0
  9 10  1  0  0  0  0
 10  5  1  0  0  0  0
  9 11  1  0  0  0  0
 11 12  1  0  0  0  0
 12 13  1  0  0  0  0
 13 14  1  0  0  0  0
 14 10  1  0  0  0  0
 11 15  1  0  0  0  0
 15 16  1  0  0  0  0
 16 17  1  0  0  0  0
 17 18  1  0  0  0  0
 18 12  1  0  0  0  0
 17 19  1  0  0  0  0
 19 20  1  0  0  0  0
 20 21  1  0  0  0  0
 21 22  1  0  0  0  0
 22 18  2  0  0  0  0
  3 23  1  0  0  0  0
  3 24  1  0  0  0  0
 21 25  1  0  0  0  0
 21 26  1  0  0  0  0
 10 27  1  6  0  0  0
 11 28  1  6  0  0  0
  4 29  1  6  0  0  0
 17 30  1  1  0  0  0
 12 31  1  1  0  0  0
  9 32  1  1  0  0  0
  5 33  1  1  0  0  0
  2 34  1  1  0  0  0
M  END
>  <cdx:fragmentId>
2751

$$$$
