12282.cdx
  Mrv1902 05222410212D          

 42 46  0  0  0  0            999 V2000
    3.9581   -6.2700    0.0000 C   0  0  0  0  0  0  0  0  0  0  0  0
    3.9581   -7.0950    0.0000 C   0  0  0  0  0  0  0  0  0  0  0  0
    4.6725   -7.5075    0.0000 C   0  0  0  0  0  0  0  0  0  0  0  0
    5.3870   -7.0950    0.0000 C   0  0  0  0  0  0  0  0  0  0  0  0
    5.3870   -6.2700    0.0000 C   0  0  0  0  0  0  0  0  0  0  0  0
    4.6725   -5.8575    0.0000 C   0  0  0  0  0  0  0  0  0  0  0  0
    6.1015   -7.5075    0.0000 C   0  0  0  0  0  0  0  0  0  0  0  0
    6.8159   -7.0950    0.0000 C   0  0  0  0  0  0  0  0  0  0  0  0
    6.8159   -6.2700    0.0000 C   0  0  0  0  0  0  0  0  0  0  0  0
    6.1015   -5.8575    0.0000 O   0  0  0  0  0  0  0  0  0  0  0  0
    7.5304   -7.5075    0.0000 O   0  0  0  0  0  0  0  0  0  0  0  0
    8.2449   -6.2700    0.0000 C   0  0  0  0  0  0  0  0  0  0  0  0
    7.5304   -5.8575    0.0000 C   0  0  0  0  0  0  0  0  0  0  0  0
    8.9594   -5.8575    0.0000 C   0  0  0  0  0  0  0  0  0  0  0  0
    8.9594   -5.0325    0.0000 C   0  0  0  0  0  0  0  0  0  0  0  0
    8.2449   -4.6200    0.0000 C   0  0  0  0  0  0  0  0  0  0  0  0
    7.5304   -5.0325    0.0000 C   0  0  0  0  0  0  0  0  0  0  0  0
    3.2436   -5.8575    0.0000 O   0  0  0  0  0  0  0  0  0  0  0  0
    4.6725   -8.3325    0.0000 O   0  0  0  0  0  0  0  0  0  0  0  0
    6.1015   -8.3325    0.0000 O   0  0  0  0  0  0  0  0  0  0  0  0
    9.6738   -4.6200    0.0000 O   0  0  0  0  0  0  0  0  0  0  0  0
    8.9524   -9.9726    0.0000 O   0  0  0  0  0  0  0  0  0  0  0  0
    7.5234  -10.7975    0.0000 O   0  0  0  0  0  0  0  0  0  0  0  0
    3.9511  -11.2098    0.0000 C   0  0  1  0  0  0  0  0  0  0  0  0
    3.9510  -12.0348    0.0000 C   0  0  1  0  0  0  0  0  0  0  0  0
    4.6654  -12.4473    0.0000 C   0  0  2  0  0  0  0  0  0  0  0  0
    5.3799  -12.0349    0.0000 C   0  0  2  0  0  0  0  0  0  0  0  0
    5.3800  -11.2099    0.0000 C   0  0  1  0  0  0  0  0  0  0  0  0
    4.6656  -10.7973    0.0000 O   0  0  0  0  0  0  0  0  0  0  0  0
    8.9525   -8.3226    0.0000 O   0  0  0  0  0  0  0  0  0  0  0  0
    7.5235   -9.9725    0.0000 C   0  0  2  0  0  0  0  0  0  0  0  0
    8.2380   -9.5601    0.0000 C   0  0  1  0  0  0  0  0  0  0  0  0
    8.2380   -8.7351    0.0000 C   0  0  2  0  0  0  0  0  0  0  0  0
    7.5236   -8.3225    0.0000 C   0  0  1  0  0  0  0  0  0  0  0  0
    6.8090   -9.5600    0.0000 C   0  0  2  0  0  0  0  0  0  0  0  0
    6.8091   -8.7350    0.0000 O   0  0  0  0  0  0  0  0  0  0  0  0
    6.0945  -10.7974    0.0000 O   0  0  0  0  0  0  0  0  0  0  0  0
    6.0945   -9.9724    0.0000 C   0  0  0  0  0  0  0  0  0  0  0  0
    3.2365  -12.4472    0.0000 O   0  0  0  0  0  0  0  0  0  0  0  0
    3.2366  -10.7972    0.0000 C   0  0  0  0  0  0  0  0  0  0  0  0
    4.6654  -13.2723    0.0000 O   0  0  0  0  0  0  0  0  0  0  0  0
    6.0944  -12.4474    0.0000 O   0  0  0  0  0  0  0  0  0  0  0  0
  1  2  2  0  0  0  0
  2  3  1  0  0  0  0
  3  4  2  0  0  0  0
  4  5  1  0  0  0  0
  5  6  2  0  0  0  0
  6  1  1  0  0  0  0
  4  7  1  0  0  0  0
  7  8  1  0  0  0  0
  8  9  2  0  0  0  0
  9 10  1  0  0  0  0
 10  5  1  0  0  0  0
  8 11  1  0  0  0  0
 12 13  2  0  0  0  0
 13  9  1  0  0  0  0
 12 14  1  0  0  0  0
 14 15  2  0  0  0  0
 15 16  1  0  0  0  0
 16 17  2  0  0  0  0
 17 13  1  0  0  0  0
  1 18  1  0  0  0  0
  3 19  1  0  0  0  0
  7 20  2  0  0  0  0
 15 21  1  0  0  0  0
 32 22  1  1  0  0  0
 31 23  1  1  0  0  0
 24 25  1  0  0  0  0
 25 26  1  0  0  0  0
 33 30  1  6  0  0  0
 31 35  1  0  0  0  0
 32 31  1  0  0  0  0
 33 32  1  0  0  0  0
 34 33  1  0  0  0  0
 36 34  1  0  0  0  0
 35 38  1  1  0  0  0
 36 35  1  0  0  0  0
 26 27  1  0  0  0  0
 27 28  1  0  0  0  0
 28 29  1  0  0  0  0
 29 24  1  0  0  0  0
 28 37  1  1  0  0  0
 37 38  1  0  0  0  0
 25 39  1  1  0  0  0
 24 40  1  6  0  0  0
 26 41  1  6  0  0  0
 27 42  1  6  0  0  0
 34 11  1  1  0  0  0
M  END
>  <cdx:fragmentId>
5

$$$$
