12290.cdx
  Mrv1902 05222410222D          

  7  7  0  0  0  0            999 V2000
    2.9178   -2.4679    0.0000 C   0  0  0  0  0  0  0  0  0  0  0  0
    3.6322   -2.0554    0.0000 C   0  0  0  0  0  0  0  0  0  0  0  0
    4.3467   -2.4679    0.0000 C   0  0  0  0  0  0  0  0  0  0  0  0
    4.3467   -3.2929    0.0000 C   0  0  0  0  0  0  0  0  0  0  0  0
    3.6322   -3.7054    0.0000 C   0  0  0  0  0  0  0  0  0  0  0  0
    2.9178   -3.2929    0.0000 N   0  0  0  0  0  0  0  0  0  0  0  0
    5.0612   -2.0554    0.0000 O   0  0  0  0  0  0  0  0  0  0  0  0
  1  2  2  0  0  0  0
  2  3  1  0  0  0  0
  3  4  1  0  0  0  0
  4  5  2  0  0  0  0
  5  6  1  0  0  0  0
  1  6  1  0  0  0  0
  3  7  2  0  0  0  0
M  END
>  <cdx:groupId>
23

>  <cdx:fragmentId>
5

$$$$
