122977.cdx
  Mrv1902 05222410182D          

 25 24  0  0  0  0            999 V2000
    2.7580   -8.2824    0.0000 C   0  0  0  0  0  0  0  0  0  0  0  0
    3.4725   -7.8699    0.0000 O   0  0  0  0  0  0  0  0  0  0  0  0
    4.1870   -9.1074    0.0000 O   0  0  0  0  0  0  0  0  0  0  0  0
   10.6172   -7.8699    0.0000 C   0  0  0  0  0  0  0  0  0  0  0  0
    9.9027   -8.2824    0.0000 C   0  0  0  0  0  0  0  0  0  0  0  0
    9.1883   -7.8699    0.0000 C   0  0  0  0  0  0  0  0  0  0  0  0
    8.4738   -8.2824    0.0000 C   0  0  0  0  0  0  0  0  0  0  0  0
    7.7593   -7.8699    0.0000 C   0  0  0  0  0  0  0  0  0  0  0  0
    7.0449   -8.2824    0.0000 C   0  0  0  0  0  0  0  0  0  0  0  0
    6.3304   -7.8699    0.0000 C   0  0  0  0  0  0  0  0  0  0  0  0
    5.6159   -8.2824    0.0000 C   0  0  0  0  0  0  0  0  0  0  0  0
    4.9015   -7.8699    0.0000 C   0  0  0  0  0  0  0  0  0  0  0  0
    4.1870   -8.2824    0.0000 C   0  0  0  0  0  0  0  0  0  0  0  0
   11.3317   -8.2824    0.0000 C   0  0  0  0  0  0  0  0  0  0  0  0
   11.3317   -9.1074    0.0000 C   0  0  0  0  0  0  0  0  0  0  0  0
   12.0462   -9.5199    0.0000 C   0  0  0  0  0  0  0  0  0  0  0  0
   12.0462  -10.3449    0.0000 C   0  0  0  0  0  0  0  0  0  0  0  0
   11.3317  -10.7574    0.0000 C   0  0  0  0  0  0  0  0  0  0  0  0
   11.3317  -11.5824    0.0000 C   0  0  0  0  0  0  0  0  0  0  0  0
   10.6172  -11.9949    0.0000 C   0  0  0  0  0  0  0  0  0  0  0  0
    9.9027  -11.5824    0.0000 C   0  0  0  0  0  0  0  0  0  0  0  0
    9.1883  -11.9949    0.0000 C   0  0  0  0  0  0  0  0  0  0  0  0
    8.4738  -11.5824    0.0000 C   0  0  0  0  0  0  0  0  0  0  0  0
    7.7593  -11.9949    0.0000 C   0  0  0  0  0  0  0  0  0  0  0  0
    7.0449  -11.5824    0.0000 C   0  0  0  0  0  0  0  0  0  0  0  0
  2  1  1  0  0  0  0
 13  2  1  0  0  0  0
 13  3  2  0  0  0  0
  5  4  1  0  0  0  0
  6  5  1  0  0  0  0
  7  6  1  0  0  0  0
  8  7  1  0  0  0  0
  9  8  1  0  0  0  0
 10  9  1  0  0  0  0
 11 10  1  0  0  0  0
 12 11  1  0  0  0  0
 13 12  1  0  0  0  0
  4 14  2  0  0  0  0
 14 15  1  0  0  0  0
 15 16  1  0  0  0  0
 16 17  2  0  0  0  0
 17 18  1  0  0  0  0
 18 19  1  0  0  0  0
 19 20  2  0  0  0  0
 20 21  1  0  0  0  0
 21 22  1  0  0  0  0
 22 23  1  0  0  0  0
 23 24  1  0  0  0  0
 24 25  1  0  0  0  0
M  END
>  <cdx:fragmentId>
101660

$$$$
