12296.cdx
  Mrv1902 05222410212D          

  7  6  0  0  0  0            999 V2000
    5.3937   -3.5189    0.0000 C   0  0  0  0  0  0  0  0  0  0  0  0
    4.6792   -3.1064    0.0000 C   0  0  0  0  0  0  0  0  0  0  0  0
    3.9648   -3.5189    0.0000 C   0  0  0  0  0  0  0  0  0  0  0  0
    3.2503   -3.1064    0.0000 C   0  0  0  0  0  0  0  0  0  0  0  0
    2.5358   -3.5189    0.0000 C   0  0  0  0  0  0  0  0  0  0  0  0
    6.1082   -3.1064    0.0000 O   0  0  0  0  0  0  0  0  0  0  0  0
    3.2503   -2.2814    0.0000 C   0  0  0  0  0  0  0  0  0  0  0  0
  1  2  1  0  0  0  0
  2  3  1  0  0  0  0
  3  4  1  0  0  0  0
  4  5  1  0  0  0  0
  1  6  1  0  0  0  0
  4  7  1  0  0  0  0
M  END
>  <cdx:groupId>
22

>  <cdx:fragmentId>
5

$$$$
