12294.cdx
  Mrv1902 05222410212D          

 12 11  0  0  0  0            999 V2000
    5.3790   -2.9571    0.0000 C   0  0  0  0  0  0  0  0  0  0  0  0
    4.6645   -3.3696    0.0000 C   0  0  0  0  0  0  0  0  0  0  0  0
    3.9501   -2.9571    0.0000 C   0  0  0  0  0  0  0  0  0  0  0  0
    3.2356   -3.3696    0.0000 C   0  0  0  0  0  0  0  0  0  0  0  0
    2.5211   -2.9571    0.0000 C   0  0  0  0  0  0  0  0  0  0  0  0
    1.8066   -3.3696    0.0000 C   0  0  0  0  0  0  0  0  0  0  0  0
    5.3790   -2.1321    0.0000 O   0  0  0  0  0  0  0  0  0  0  0  0
    6.0935   -3.3696    0.0000 O   0  0  0  0  0  0  0  0  0  0  0  0
    6.8079   -2.9571    0.0000 C   0  0  0  0  0  0  0  0  0  0  0  0
    7.5224   -3.3696    0.0000 C   0  0  0  0  0  0  0  0  0  0  0  0
    8.2369   -2.9571    0.0000 C   0  0  0  0  0  0  0  0  0  0  0  0
    8.9514   -3.3696    0.0000 C   0  0  0  0  0  0  0  0  0  0  0  0
  1  2  1  0  0  0  0
  2  3  1  0  0  0  0
  3  4  1  0  0  0  0
  4  5  1  0  0  0  0
  5  6  1  0  0  0  0
  1  7  2  0  0  0  0
  1  8  1  0  0  0  0
  9 10  1  0  0  0  0
 10 11  1  0  0  0  0
 11 12  1  0  0  0  0
  8  9  1  0  0  0  0
M  END
>  <cdx:groupId>
37

>  <cdx:fragmentId>
5

$$$$
