12293.cdx
  Mrv1902 05222410222D          

 11 10  0  0  0  0            999 V2000
    5.5094   -4.0089    0.0000 C   0  0  0  0  0  0  0  0  0  0  0  0
    4.7949   -4.4214    0.0000 C   0  0  0  0  0  0  0  0  0  0  0  0
    4.0804   -4.0089    0.0000 C   0  0  0  0  0  0  0  0  0  0  0  0
    3.3659   -4.4214    0.0000 C   0  0  0  0  0  0  0  0  0  0  0  0
    2.6515   -4.0089    0.0000 C   0  0  0  0  0  0  0  0  0  0  0  0
    1.9370   -4.4214    0.0000 C   0  0  0  0  0  0  0  0  0  0  0  0
    5.5094   -3.1839    0.0000 O   0  0  0  0  0  0  0  0  0  0  0  0
    6.2238   -4.4214    0.0000 O   0  0  0  0  0  0  0  0  0  0  0  0
    6.9383   -4.0089    0.0000 C   0  0  0  0  0  0  0  0  0  0  0  0
    7.6528   -4.4214    0.0000 C   0  0  0  0  0  0  0  0  0  0  0  0
    8.3672   -4.0089    0.0000 C   0  0  0  0  0  0  0  0  0  0  0  0
  1  2  1  0  0  0  0
  2  3  1  0  0  0  0
  3  4  1  0  0  0  0
  4  5  1  0  0  0  0
  5  6  1  0  0  0  0
  1  7  2  0  0  0  0
  1  8  1  0  0  0  0
  9 10  1  0  0  0  0
 10 11  1  0  0  0  0
  8  9  1  0  0  0  0
M  END
>  <cdx:groupId>
34

>  <cdx:fragmentId>
5

$$$$
