123.cdx
  Mrv1902 05222410282D          

 20 22  0  0  0  0            999 V2000
    5.1973   -3.5887    0.0000 C   0  0  0  0  0  0  0  0  0  0  0  0
    5.1973   -4.4138    0.0000 C   0  0  0  0  0  0  0  0  0  0  0  0
    5.9118   -4.8263    0.0000 C   0  0  0  0  0  0  0  0  0  0  0  0
    6.6263   -4.4138    0.0000 C   0  0  0  0  0  0  0  0  0  0  0  0
    6.6263   -3.5887    0.0000 C   0  0  0  0  0  0  0  0  0  0  0  0
    5.9118   -3.1763    0.0000 C   0  0  0  0  0  0  0  0  0  0  0  0
    7.3408   -4.8263    0.0000 C   0  0  0  0  0  0  0  0  0  0  0  0
    8.0552   -4.4138    0.0000 C   0  0  0  0  0  0  0  0  0  0  0  0
    8.0552   -3.5887    0.0000 C   0  0  0  0  0  0  0  0  0  0  0  0
    7.3408   -3.1763    0.0000 O   0  0  0  0  0  0  0  0  0  0  0  0
    4.4829   -3.1763    0.0000 O   0  0  0  0  0  0  0  0  0  0  0  0
    5.9118   -5.6512    0.0000 O   0  0  0  0  0  0  0  0  0  0  0  0
    8.7697   -3.1763    0.0000 C   0  0  0  0  0  0  0  0  0  0  0  0
    9.4842   -3.5887    0.0000 C   0  0  0  0  0  0  0  0  0  0  0  0
   10.1986   -3.1763    0.0000 C   0  0  0  0  0  0  0  0  0  0  0  0
   10.1986   -2.3512    0.0000 C   0  0  0  0  0  0  0  0  0  0  0  0
    9.4842   -1.9388    0.0000 C   0  0  0  0  0  0  0  0  0  0  0  0
    8.7697   -2.3512    0.0000 C   0  0  0  0  0  0  0  0  0  0  0  0
    7.3408   -5.6512    0.0000 O   0  0  0  0  0  0  0  0  0  0  0  0
    3.7684   -3.5887    0.0000 C   0  0  0  0  0  0  0  0  0  0  0  0
  1  2  2  0  0  0  0
  2  3  1  0  0  0  0
  3  4  2  0  0  0  0
  4  5  1  0  0  0  0
  5  6  2  0  0  0  0
  6  1  1  0  0  0  0
  4  7  1  0  0  0  0
  7  8  1  0  0  0  0
  8  9  2  0  0  0  0
  9 10  1  0  0  0  0
 10  5  1  0  0  0  0
  1 11  1  0  0  0  0
  3 12  1  0  0  0  0
  9 13  1  0  0  0  0
 13 14  2  0  0  0  0
 14 15  1  0  0  0  0
 15 16  2  0  0  0  0
 16 17  1  0  0  0  0
 17 18  2  0  0  0  0
 18 13  1  0  0  0  0
  7 19  2  0  0  0  0
 11 20  1  0  0  0  0
M  END
>  <cdx:fragmentId>
5

$$$$
