123115.cdx
  Mrv1902 05222410192D          

 10 10  0  0  0  0            999 V2000
    6.8743   -4.9974    0.0000 C   0  0  0  0  0  0  0  0  0  0  0  0
    6.8856   -5.8223    0.0000 C   0  0  0  0  0  0  0  0  0  0  0  0
    6.8969   -6.6472    0.0000 C   0  0  0  0  0  0  0  0  0  0  0  0
    7.5830   -4.5751    0.0000 O   0  0  0  0  0  0  0  0  0  0  0  0
    6.9082   -7.4722    0.0000 C   0  0  0  0  0  0  0  0  0  0  0  0
    7.6283   -7.8748    0.0000 C   0  0  0  0  0  0  0  0  0  0  0  0
    7.6396   -8.6997    0.0000 C   0  0  0  0  0  0  0  0  0  0  0  0
    6.9309   -9.1220    0.0000 C   0  0  0  0  0  0  0  0  0  0  0  0
    6.2108   -8.7194    0.0000 C   0  0  0  0  0  0  0  0  0  0  0  0
    6.1995   -7.8944    0.0000 C   0  0  0  0  0  0  0  0  0  0  0  0
  1  2  1  0  0  0  0
  2  3  3  0  0  0  0
  1  4  1  0  0  0  0
  5  6  1  0  0  0  0
  6  7  2  0  0  0  0
  7  8  1  0  0  0  0
  8  9  2  0  0  0  0
  9 10  1  0  0  0  0
  5 10  2  0  0  0  0
  3  5  1  0  0  0  0
M  END
>  <cdx:fragmentId>
2881

$$$$
