123212.cdx
  Mrv1902 05222410232D          

 11 11  0  0  0  0            999 V2000
    7.3109  -10.1182    0.0000 C   0  0  0  0  0  0  0  0  0  0  0  0
    6.5961   -9.7063    0.0000 C   0  0  0  0  0  0  0  0  0  0  0  0
    6.5953   -8.8813    0.0000 C   0  0  0  0  0  0  0  0  0  0  0  0
    7.3094   -8.4682    0.0000 C   0  0  0  0  0  0  0  0  0  0  0  0
    8.0242   -8.8800    0.0000 C   0  0  0  0  0  0  0  0  0  0  0  0
    8.0250   -9.7050    0.0000 C   0  0  0  0  0  0  0  0  0  0  0  0
    7.3117  -10.9432    0.0000 O   0  0  0  0  0  0  0  0  0  0  0  0
    7.3086   -7.6432    0.0000 C   0  0  0  0  0  0  0  0  0  0  0  0
    6.5938   -7.2313    0.0000 C   0  0  0  0  0  0  0  0  0  0  0  0
    5.8797   -7.6445    0.0000 C   0  0  0  0  0  0  0  0  0  0  0  0
    6.5930   -6.4063    0.0000 C   0  0  0  0  0  0  0  0  0  0  0  0
  1  2  1  0  0  0  0
  2  3  2  0  0  0  0
  3  4  1  0  0  0  0
  4  5  2  0  0  0  0
  5  6  1  0  0  0  0
  1  6  2  0  0  0  0
  1  7  1  0  0  0  0
  8  9  1  0  0  0  0
  9 10  1  0  0  0  0
  9 11  1  0  0  0  0
  4  8  1  0  0  0  0
M  END
>  <cdx:fragmentId>
5

$$$$
