12320.cdx
  Mrv1902 05222410212D          

  5  4  0  0  0  0            999 V2000
    6.9809   -3.5279    0.0000 S   0  0  0  0  0  0  0  0  0  0  0  0
    6.2664   -3.1154    0.0000 C   0  0  0  0  0  0  0  0  0  0  0  0
    5.5519   -3.5279    0.0000 C   0  0  0  0  0  0  0  0  0  0  0  0
    7.6953   -3.1154    0.0000 C   0  0  0  0  0  0  0  0  0  0  0  0
    8.4098   -3.5279    0.0000 C   0  0  0  0  0  0  0  0  0  0  0  0
  2  3  2  0  0  0  0
  1  2  1  0  0  0  0
  4  5  1  0  0  0  0
  1  4  1  0  0  0  0
M  END
>  <cdx:groupId>
16

>  <cdx:fragmentId>
7

$$$$
