12329.cdx
  Mrv1902 05222410242D          

 12 11  0  0  0  0            999 V2000
    5.4559   -5.9133    0.0000 C   0  0  0  0  0  0  0  0  0  0  0  0
    6.1704   -5.5008    0.0000 C   0  0  0  0  0  0  0  0  0  0  0  0
    6.8849   -5.9133    0.0000 C   0  0  0  0  0  0  0  0  0  0  0  0
    7.5994   -5.5008    0.0000 C   0  0  0  0  0  0  0  0  0  0  0  0
    8.3138   -5.9133    0.0000 C   0  0  0  0  0  0  0  0  0  0  0  0
    9.0283   -5.5008    0.0000 C   0  0  0  0  0  0  0  0  0  0  0  0
    5.4559   -6.7383    0.0000 O   0  0  0  0  0  0  0  0  0  0  0  0
    4.7415   -5.5008    0.0000 O   0  0  0  0  0  0  0  0  0  0  0  0
    9.0283   -4.6758    0.0000 O   0  0  0  0  0  0  0  0  0  0  0  0
    9.7428   -5.9133    0.0000 O   0  0  0  0  0  0  0  0  0  0  0  0
    4.0270   -5.9133    0.0000 C   0  0  0  0  0  0  0  0  0  0  0  0
   10.4572   -5.5008    0.0000 C   0  0  0  0  0  0  0  0  0  0  0  0
  1  2  1  0  0  0  0
  2  3  1  0  0  0  0
  3  4  1  0  0  0  0
  4  5  1  0  0  0  0
  5  6  1  0  0  0  0
  1  7  2  0  0  0  0
  1  8  1  0  0  0  0
  6  9  2  0  0  0  0
  6 10  1  0  0  0  0
  8 11  1  0  0  0  0
 10 12  1  0  0  0  0
M  END
>  <cdx:fragmentId>
5

$$$$
