12331.cdx
  Mrv1902 05222410222D          

 35 38  0  0  0  0            999 V2000
    4.5820   -5.7544    0.0000 C   0  0  0  0  0  0  0  0  0  0  0  0
    4.5820   -6.5794    0.0000 C   0  0  0  0  0  0  0  0  0  0  0  0
    5.2965   -6.9919    0.0000 C   0  0  0  0  0  0  0  0  0  0  0  0
    6.0110   -6.5794    0.0000 C   0  0  0  0  0  0  0  0  0  0  0  0
    6.0110   -5.7544    0.0000 C   0  0  0  0  0  0  0  0  0  0  0  0
    5.2965   -5.3419    0.0000 C   0  0  0  0  0  0  0  0  0  0  0  0
    6.7254   -6.9919    0.0000 C   0  0  0  0  0  0  0  0  0  0  0  0
    7.4399   -6.5794    0.0000 C   0  0  0  0  0  0  0  0  0  0  0  0
    7.4399   -5.7544    0.0000 C   0  0  0  0  0  0  0  0  0  0  0  0
    6.7254   -5.3419    0.0000 O   0  0  0  0  0  0  0  0  0  0  0  0
    8.1544   -5.3419    0.0000 C   0  0  0  0  0  0  0  0  0  0  0  0
    8.1544   -4.5169    0.0000 C   0  0  0  0  0  0  0  0  0  0  0  0
    8.8689   -5.7544    0.0000 C   0  0  0  0  0  0  0  0  0  0  0  0
    9.5833   -5.3419    0.0000 C   0  0  0  0  0  0  0  0  0  0  0  0
    9.5833   -4.5169    0.0000 C   0  0  0  0  0  0  0  0  0  0  0  0
    8.8689   -4.1044    0.0000 C   0  0  0  0  0  0  0  0  0  0  0  0
    6.7254   -7.8169    0.0000 O   0  0  0  0  0  0  0  0  0  0  0  0
    7.4399   -8.2294    0.0000 O   0  0  0  0  0  0  0  0  0  0  0  0
    8.1544   -7.8169    0.0000 C   0  0  1  0  0  0  0  0  0  0  0  0
    8.1544   -6.9919    0.0000 O   0  0  0  0  0  0  0  0  0  0  0  0
    7.4399   -9.0544    0.0000 C   0  0  1  0  0  0  0  0  0  0  0  0
    8.1544   -9.4669    0.0000 C   0  0  2  0  0  0  0  0  0  0  0  0
    8.8689   -9.0544    0.0000 C   0  0  1  0  0  0  0  0  0  0  0  0
    8.8689   -8.2294    0.0000 C   0  0  1  0  0  0  0  0  0  0  0  0
    6.0110   -9.0544    0.0000 O   0  0  0  0  0  0  0  0  0  0  0  0
    6.7254   -9.4669    0.0000 C   0  0  0  0  0  0  0  0  0  0  0  0
    4.5820   -9.0544    0.0000 C   0  0  0  0  0  0  0  0  0  0  0  0
    5.2965   -9.4669    0.0000 C   0  0  0  0  0  0  0  0  0  0  0  0
    3.8676   -5.3419    0.0000 O   0  0  0  0  0  0  0  0  0  0  0  0
    5.2965   -7.8169    0.0000 O   0  0  0  0  0  0  0  0  0  0  0  0
   10.2978   -4.1044    0.0000 O   0  0  0  0  0  0  0  0  0  0  0  0
    5.2965  -10.2919    0.0000 O   0  0  0  0  0  0  0  0  0  0  0  0
    9.5833   -9.4669    0.0000 O   0  0  0  0  0  0  0  0  0  0  0  0
    8.1544  -10.2919    0.0000 O   0  0  0  0  0  0  0  0  0  0  0  0
    9.5833   -7.8169    0.0000 O   0  0  0  0  0  0  0  0  0  0  0  0
  1  2  2  0  0  0  0
  2  3  1  0  0  0  0
  3  4  2  0  0  0  0
  4  5  1  0  0  0  0
  5  6  2  0  0  0  0
  6  1  1  0  0  0  0
  4  7  1  0  0  0  0
  7  8  1  0  0  0  0
  8  9  2  0  0  0  0
  9 10  1  0  0  0  0
 10  5  1  0  0  0  0
  9 11  1  0  0  0  0
 11 12  1  0  0  0  0
 11 13  2  0  0  0  0
 13 14  1  0  0  0  0
 14 15  2  0  0  0  0
 15 16  1  0  0  0  0
 16 12  2  0  0  0  0
  7 17  2  0  0  0  0
 18 19  1  0  0  0  0
 19 20  1  1  0  0  0
 20  8  1  0  0  0  0
 18 21  1  0  0  0  0
 21 22  1  0  0  0  0
 22 23  1  0  0  0  0
 23 24  1  0  0  0  0
 24 19  1  0  0  0  0
 25 26  1  0  0  0  0
 21 26  1  1  0  0  0
 27 28  1  0  0  0  0
 28 25  1  0  0  0  0
  1 29  1  0  0  0  0
  3 30  1  0  0  0  0
 15 31  1  0  0  0  0
 28 32  2  0  0  0  0
 23 33  1  1  0  0  0
 22 34  1  6  0  0  0
 24 35  1  6  0  0  0
M  END
>  <cdx:fragmentId>
5

$$$$
