12343.cdx
  Mrv1902 05222410192D          

  6  6  0  0  0  0            999 V2000
    6.4933   -4.1525    0.0000 C   0  0  0  0  0  0  0  0  0  0  0  0
    7.2077   -3.7400    0.0000 C   0  0  0  0  0  0  0  0  0  0  0  0
    7.9222   -4.1525    0.0000 C   0  0  0  0  0  0  0  0  0  0  0  0
    7.9222   -4.9775    0.0000 C   0  0  0  0  0  0  0  0  0  0  0  0
    7.2077   -5.3900    0.0000 C   0  0  0  0  0  0  0  0  0  0  0  0
    6.4933   -4.9775    0.0000 C   0  0  0  0  0  0  0  0  0  0  0  0
  6  1  1  0  0  0  0
  2  1  1  0  0  0  0
  3  2  2  0  0  0  0
  4  3  1  0  0  0  0
  5  4  1  0  0  0  0
  6  5  2  0  0  0  0
M  END
>  <cdx:fragmentId>
5

$$$$
