12348.cdx
  Mrv1902 05222410262D          

  9  8  0  0  0  0            999 V2000
    2.7884   -3.7821    0.0000 C   0  0  0  0  0  0  0  0  0  0  0  0
    2.0740   -4.1946    0.0000 C   0  0  0  0  0  0  0  0  0  0  0  0
    2.7884   -2.9571    0.0000 O   0  0  0  0  0  0  0  0  0  0  0  0
    3.5029   -4.1946    0.0000 O   0  0  0  0  0  0  0  0  0  0  0  0
    4.2174   -3.7821    0.0000 C   0  0  0  0  0  0  0  0  0  0  0  0
    4.9319   -4.1946    0.0000 C   0  0  0  0  0  0  0  0  0  0  0  0
    5.6463   -3.7821    0.0000 C   0  0  0  0  0  0  0  0  0  0  0  0
    6.3608   -4.1946    0.0000 C   0  0  0  0  0  0  0  0  0  0  0  0
    7.0753   -3.7821    0.0000 C   0  0  0  0  0  0  0  0  0  0  0  0
  1  2  1  0  0  0  0
  1  3  2  0  0  0  0
  1  4  1  0  0  0  0
  5  6  1  0  0  0  0
  6  7  1  0  0  0  0
  7  8  1  0  0  0  0
  8  9  1  0  0  0  0
  4  5  1  0  0  0  0
M  END
>  <cdx:groupId>
28

>  <cdx:fragmentId>
13

$$$$
