123425.cdx
  Mrv1902 05222410232D          

 11 12  0  0  0  0            999 V2000
   15.9752  -15.7023    0.0000 C   0  0  0  0  0  0  0  0  0  0  0  0
   15.9752  -16.5273    0.0000 C   0  0  0  0  0  0  0  0  0  0  0  0
   15.2608  -16.9398    0.0000 C   0  0  0  0  0  0  0  0  0  0  0  0
   14.5463  -16.5273    0.0000 C   0  0  0  0  0  0  0  0  0  0  0  0
   14.5463  -15.7023    0.0000 C   0  0  0  0  0  0  0  0  0  0  0  0
   15.2608  -15.2898    0.0000 C   0  0  0  0  0  0  0  0  0  0  0  0
   14.9252  -16.1152    0.0000 C   0  0  0  0  0  0  0  0  0  0  0  0
   14.2107  -16.5277    0.0000 C   0  0  0  0  0  0  0  0  0  0  0  0
   14.2107  -15.7027    0.0000 C   0  0  0  0  0  0  0  0  0  0  0  0
   15.2608  -14.4648    0.0000 C   0  0  0  0  0  0  0  0  0  0  0  0
   16.6897  -15.2898    0.0000 C   0  0  0  0  0  0  0  0  0  0  0  0
  1  2  1  0  0  0  0
  2  3  1  0  0  0  0
  3  4  1  0  0  0  0
  4  5  1  0  0  0  0
  5  6  1  0  0  0  0
  1  6  1  0  0  0  0
  6  7  1  0  0  0  0
  3  7  1  0  0  0  0
  7  8  1  0  0  0  0
  7  9  1  0  0  0  0
  6 10  1  0  0  0  0
  1 11  2  0  0  0  0
M  END
>  <cdx:groupId>
3125

>  <cdx:fragmentId>
3094

$$$$
