123505.cdx
  Mrv1902 05222410192D          

  7  6  0  0  0  0            999 V2000
   14.0398  -15.9362    0.0000 C   0  0  0  0  0  0  0  0  0  0  0  0
   14.7543  -15.5237    0.0000 C   0  0  0  0  0  0  0  0  0  0  0  0
   15.4688  -15.9362    0.0000 C   0  0  0  0  0  0  0  0  0  0  0  0
   16.1832  -15.5237    0.0000 C   0  0  0  0  0  0  0  0  0  0  0  0
   16.8977  -15.9362    0.0000 C   0  0  0  0  0  0  0  0  0  0  0  0
   14.7543  -14.6987    0.0000 O   0  0  0  0  0  0  0  0  0  0  0  0
   15.4688  -16.7612    0.0000 O   0  0  0  0  0  0  0  0  0  0  0  0
  1  2  1  0  0  0  0
  2  3  1  0  0  0  0
  3  4  1  0  0  0  0
  4  5  1  0  0  0  0
  2  6  1  0  0  0  0
  3  7  1  0  0  0  0
M  END
>  <cdx:groupId>
3148

>  <cdx:fragmentId>
3131

$$$$
