123543.cdx
  Mrv1902 05222410242D          

  9  8  0  0  0  0            999 V2000
   15.4688  -15.4221    0.0000 C   0  0  0  0  0  0  0  0  0  0  0  0
   15.4688  -16.2471    0.0000 C   0  0  0  0  0  0  0  0  0  0  0  0
   14.7543  -16.6596    0.0000 C   0  0  0  0  0  0  0  0  0  0  0  0
   14.0398  -16.2471    0.0000 C   0  0  0  0  0  0  0  0  0  0  0  0
   13.3253  -16.6596    0.0000 C   0  0  0  0  0  0  0  0  0  0  0  0
   14.7543  -15.0096    0.0000 O   0  0  0  0  0  0  0  0  0  0  0  0
   16.1832  -16.6596    0.0000 C   0  0  0  0  0  0  0  0  0  0  0  0
   16.8977  -16.2471    0.0000 C   0  0  0  0  0  0  0  0  0  0  0  0
   17.6122  -16.6596    0.0000 C   0  0  0  0  0  0  0  0  0  0  0  0
  1  2  1  0  0  0  0
  2  3  1  0  0  0  0
  3  4  1  0  0  0  0
  4  5  1  0  0  0  0
  1  6  1  0  0  0  0
  7  8  1  0  0  0  0
  8  9  1  0  0  0  0
  2  7  1  0  0  0  0
M  END
>  <cdx:groupId>
3176

>  <cdx:fragmentId>
3153

$$$$
