12366.cdx
  Mrv1902 05222410272D          

 20 19  0  0  0  0            999 V2000
    2.7875   -3.6996    0.0000 C   0  0  0  0  0  0  0  0  0  0  0  0
    3.5020   -3.2871    0.0000 C   0  0  0  0  0  0  0  0  0  0  0  0
    4.2165   -3.6996    0.0000 C   0  0  0  0  0  0  0  0  0  0  0  0
    4.9310   -3.2871    0.0000 C   0  0  0  0  0  0  0  0  0  0  0  0
    5.6454   -3.6996    0.0000 C   0  0  0  0  0  0  0  0  0  0  0  0
    6.3599   -3.2871    0.0000 C   0  0  0  0  0  0  0  0  0  0  0  0
    7.0744   -3.6996    0.0000 C   0  0  0  0  0  0  0  0  0  0  0  0
    7.7888   -3.2871    0.0000 C   0  0  0  0  0  0  0  0  0  0  0  0
    8.5033   -3.6996    0.0000 C   0  0  0  0  0  0  0  0  0  0  0  0
    9.2178   -3.2871    0.0000 C   0  0  0  0  0  0  0  0  0  0  0  0
    9.9323   -3.6996    0.0000 C   0  0  0  0  0  0  0  0  0  0  0  0
   10.6467   -3.2871    0.0000 C   0  0  0  0  0  0  0  0  0  0  0  0
   11.3612   -3.6996    0.0000 C   0  0  0  0  0  0  0  0  0  0  0  0
   12.0757   -3.2871    0.0000 C   0  0  0  0  0  0  0  0  0  0  0  0
   12.7901   -3.6996    0.0000 C   0  0  0  0  0  0  0  0  0  0  0  0
   13.5046   -3.2871    0.0000 C   0  0  0  0  0  0  0  0  0  0  0  0
    2.7875   -4.5246    0.0000 O   0  0  0  0  0  0  0  0  0  0  0  0
    2.0731   -3.2871    0.0000 O   0  0  0  0  0  0  0  0  0  0  0  0
    1.3586   -3.6996    0.0000 C   0  0  0  0  0  0  0  0  0  0  0  0
    0.6441   -3.2871    0.0000 C   0  0  0  0  0  0  0  0  0  0  0  0
  1  2  1  0  0  0  0
  2  3  1  0  0  0  0
  3  4  1  0  0  0  0
  4  5  1  0  0  0  0
  5  6  1  0  0  0  0
  6  7  1  0  0  0  0
  7  8  1  0  0  0  0
  8  9  1  0  0  0  0
  9 10  1  0  0  0  0
 10 11  1  0  0  0  0
 11 12  1  0  0  0  0
 12 13  1  0  0  0  0
 13 14  1  0  0  0  0
 14 15  1  0  0  0  0
 15 16  1  0  0  0  0
  1 17  2  0  0  0  0
  1 18  1  0  0  0  0
 19 20  1  0  0  0  0
 18 19  1  0  0  0  0
M  END
>  <cdx:fragmentId>
5

$$$$
