123631.cdx
  Mrv1902 05222410242D          

 31 34  0  0  0  0            999 V2000
   15.4131  -14.2833    0.0000 C   0  0  0  0  0  0  0  0  0  0  0  0
   15.4131  -15.1083    0.0000 C   0  0  0  0  0  0  0  0  0  0  0  0
   16.1276  -15.5208    0.0000 C   0  0  0  0  0  0  0  0  0  0  0  0
   16.8420  -15.1083    0.0000 C   0  0  0  0  0  0  0  0  0  0  0  0
   16.8420  -14.2833    0.0000 C   0  0  0  0  0  0  0  0  0  0  0  0
   16.1276  -13.8708    0.0000 C   0  0  0  0  0  0  0  0  0  0  0  0
   17.5565  -15.5208    0.0000 C   0  0  0  0  0  0  0  0  0  0  0  0
   18.2710  -15.1083    0.0000 N   0  0  0  0  0  0  0  0  0  0  0  0
   18.2710  -14.2833    0.0000 C   0  0  0  0  0  0  0  0  0  0  0  0
   17.5565  -13.8708    0.0000 N   0  0  0  0  0  0  0  0  0  0  0  0
   14.6986  -13.8708    0.0000 O   0  0  0  0  0  0  0  0  0  0  0  0
   13.9841  -14.2833    0.0000 C   0  0  0  0  0  0  0  0  0  0  0  0
   17.5565  -16.3458    0.0000 N   0  0  0  0  0  0  0  0  0  0  0  0
   18.2710  -16.7583    0.0000 C   0  0  0  0  0  0  0  0  0  0  0  0
   18.2710  -17.5833    0.0000 C   0  0  0  0  0  0  0  0  0  0  0  0
   18.9854  -17.9958    0.0000 C   0  0  0  0  0  0  0  0  0  0  0  0
   19.6999  -17.5833    0.0000 C   0  0  0  0  0  0  0  0  0  0  0  0
   19.6999  -16.7583    0.0000 C   0  0  0  0  0  0  0  0  0  0  0  0
   18.9854  -16.3458    0.0000 C   0  0  0  0  0  0  0  0  0  0  0  0
   20.4144  -16.3458    0.0000 Cl  0  0  0  0  0  0  0  0  0  0  0  0
   20.4144  -17.9958    0.0000 F   0  0  0  0  0  0  0  0  0  0  0  0
   14.6986  -15.5208    0.0000 O   0  0  0  0  0  0  0  0  0  0  0  0
   13.9841  -15.1083    0.0000 C   0  0  0  0  0  0  0  0  0  0  0  0
   13.2697  -15.5208    0.0000 C   0  0  0  0  0  0  0  0  0  0  0  0
   12.5552  -15.1083    0.0000 C   0  0  0  0  0  0  0  0  0  0  0  0
   11.8407  -15.5208    0.0000 N   0  0  0  0  0  0  0  0  0  0  0  0
   11.1263  -15.1083    0.0000 C   0  0  0  0  0  0  0  0  0  0  0  0
   10.4118  -15.5208    0.0000 C   0  0  0  0  0  0  0  0  0  0  0  0
   10.4118  -16.3458    0.0000 O   0  0  0  0  0  0  0  0  0  0  0  0
   11.1263  -16.7583    0.0000 C   0  0  0  0  0  0  0  0  0  0  0  0
   11.8407  -16.3458    0.0000 C   0  0  0  0  0  0  0  0  0  0  0  0
  1  2  2  0  0  0  0
  2  3  1  0  0  0  0
  3  4  2  0  0  0  0
  4  5  1  0  0  0  0
  5  6  2  0  0  0  0
  6  1  1  0  0  0  0
  4  7  1  0  0  0  0
  7  8  2  0  0  0  0
  8  9  1  0  0  0  0
  9 10  2  0  0  0  0
 10  5  1  0  0  0  0
  1 11  1  0  0  0  0
 11 12  1  0  0  0  0
  7 13  1  0  0  0  0
 13 14  1  0  0  0  0
 14 15  2  0  0  0  0
 15 16  1  0  0  0  0
 16 17  2  0  0  0  0
 17 18  1  0  0  0  0
 18 19  2  0  0  0  0
 19 14  1  0  0  0  0
 18 20  1  0  0  0  0
 17 21  1  0  0  0  0
  2 22  1  0  0  0  0
 22 23  1  0  0  0  0
 23 24  1  0  0  0  0
 24 25  1  0  0  0  0
 25 26  1  0  0  0  0
 26 27  1  0  0  0  0
 27 28  1  0  0  0  0
 28 29  1  0  0  0  0
 29 30  1  0  0  0  0
 30 31  1  0  0  0  0
 31 26  1  0  0  0  0
M  END
>  <cdx:fragmentId>
3180

$$$$
