12374.cdx
  Mrv1902 05222410262D          

  8  7  0  0  0  0            999 V2000
    9.2662   -5.2464    0.0000 C   0  0  0  0  0  0  0  0  0  0  0  0
    8.5517   -4.8339    0.0000 C   0  0  0  0  0  0  0  0  0  0  0  0
    7.8372   -5.2464    0.0000 C   0  0  0  0  0  0  0  0  0  0  0  0
    7.1228   -4.8339    0.0000 C   0  0  0  0  0  0  0  0  0  0  0  0
    6.4083   -5.2464    0.0000 C   0  0  0  0  0  0  0  0  0  0  0  0
    5.6938   -4.8339    0.0000 C   0  0  0  0  0  0  0  0  0  0  0  0
    9.9806   -4.8339    0.0000 O   0  0  0  0  0  0  0  0  0  0  0  0
    4.9794   -5.2464    0.0000 O   0  0  0  0  0  0  0  0  0  0  0  0
  1  2  1  0  0  0  0
  2  3  1  0  0  0  0
  3  4  1  0  0  0  0
  4  5  1  0  0  0  0
  5  6  1  0  0  0  0
  1  7  1  0  0  0  0
  6  8  1  0  0  0  0
M  END
>  <cdx:fragmentId>
5

$$$$
