12377.cdx
  Mrv1902 05222410262D          

  8  7  0  0  0  0            999 V2000
    6.3423   -4.5452    0.0000 C   0  0  0  0  0  0  0  0  0  0  0  0
    5.6278   -4.1327    0.0000 C   0  0  0  0  0  0  0  0  0  0  0  0
    4.9134   -4.5452    0.0000 C   0  0  0  0  0  0  0  0  0  0  0  0
    7.7712   -4.5452    0.0000 S   0  0  0  0  0  0  0  0  0  0  0  0
    7.0568   -4.1327    0.0000 S   0  0  0  0  0  0  0  0  0  0  0  0
    8.4857   -4.1327    0.0000 C   0  0  0  0  0  0  0  0  0  0  0  0
    9.2002   -4.5452    0.0000 C   0  0  0  0  0  0  0  0  0  0  0  0
    9.9146   -4.1327    0.0000 C   0  0  0  0  0  0  0  0  0  0  0  0
  1  2  1  0  0  0  0
  2  3  1  0  0  0  0
  4  5  1  0  0  0  0
  6  7  1  0  0  0  0
  7  8  1  0  0  0  0
  4  6  1  0  0  0  0
  1  5  1  0  0  0  0
M  END
>  <cdx:groupId>
25

>  <cdx:fragmentId>
15

$$$$
