12388.cdx
  Mrv1902 05222410262D          

 13 12  0  0  0  0            999 V2000
    1.2572   -2.5987    0.0000 C   0  0  0  0  0  0  0  0  0  0  0  0
    1.9716   -2.1862    0.0000 C   0  0  0  0  0  0  0  0  0  0  0  0
    2.6861   -2.5987    0.0000 C   0  0  0  0  0  0  0  0  0  0  0  0
    3.4006   -2.1862    0.0000 C   0  0  0  0  0  0  0  0  0  0  0  0
    4.1151   -2.5987    0.0000 C   0  0  0  0  0  0  0  0  0  0  0  0
    4.8295   -2.1863    0.0000 C   0  0  0  0  0  0  0  0  0  0  0  0
    5.5440   -2.5987    0.0000 C   0  0  0  0  0  0  0  0  0  0  0  0
    6.2585   -2.1863    0.0000 C   0  0  0  0  0  0  0  0  0  0  0  0
    6.9729   -2.5987    0.0000 C   0  0  0  0  0  0  0  0  0  0  0  0
    7.6874   -2.1863    0.0000 C   0  0  0  0  0  0  0  0  0  0  0  0
    8.4019   -2.5987    0.0000 C   0  0  0  0  0  0  0  0  0  0  0  0
    9.1164   -2.1863    0.0000 C   0  0  0  0  0  0  0  0  0  0  0  0
    9.8308   -2.5987    0.0000 C   0  0  0  0  0  0  0  0  0  0  0  0
  1  2  1  0  0  0  0
  2  3  1  0  0  0  0
  3  4  1  0  0  0  0
  4  5  1  0  0  0  0
  5  6  1  0  0  0  0
  6  7  1  0  0  0  0
  7  8  1  0  0  0  0
  8  9  1  0  0  0  0
  9 10  1  0  0  0  0
 10 11  1  0  0  0  0
 11 12  1  0  0  0  0
 12 13  1  0  0  0  0
M  END
>  <cdx:groupId>
40

>  <cdx:fragmentId>
5

$$$$
