123831.cdx
  Mrv1902 05222410232D          

 14 13  0  0  0  0            999 V2000
    9.8752   -6.9226    0.0000 C   0  0  0  0  0  0  0  0  0  0  0  0
    9.1607   -7.3351    0.0000 C   0  0  2  0  0  0  0  0  0  0  0  0
    8.4462   -6.9226    0.0000 C   0  0  0  0  0  0  0  0  0  0  0  0
    7.7317   -7.3351    0.0000 C   0  0  0  0  0  0  0  0  0  0  0  0
    7.0173   -6.9226    0.0000 C   0  0  0  0  0  0  0  0  0  0  0  0
    9.8752   -6.0976    0.0000 O   0  0  0  0  0  0  0  0  0  0  0  0
   10.5896   -7.3351    0.0000 O   0  0  0  0  0  0  0  0  0  0  0  0
    6.3028   -7.3351    0.0000 N   0  0  0  0  0  0  0  0  0  0  0  0
    5.5883   -6.9226    0.0000 C   0  0  0  0  0  0  0  0  0  0  0  0
    4.8739   -7.3351    0.0000 N   0  0  0  0  0  0  0  0  0  0  0  0
    4.8739   -8.1601    0.0000 C   0  0  0  0  0  0  0  0  0  0  0  0
    4.1594   -6.9226    0.0000 C   0  0  0  0  0  0  0  0  0  0  0  0
    5.5883   -6.0976    0.0000 N   0  0  0  0  0  0  0  0  0  0  0  0
    9.1607   -8.1601    0.0000 N   0  0  0  0  0  0  0  0  0  0  0  0
  1  2  1  0  0  0  0
  2  3  1  0  0  0  0
  3  4  1  0  0  0  0
  4  5  1  0  0  0  0
  1  6  2  0  0  0  0
  1  7  1  0  0  0  0
 10 11  1  0  0  0  0
 10 12  1  0  0  0  0
  9 10  1  0  0  0  0
  9 13  1  0  0  0  0
  8  9  2  0  0  0  0
  5  8  1  0  0  0  0
  2 14  1  1  0  0  0
M  END
>  <cdx:groupId>
39196

>  <cdx:fragmentId>
39158

$$$$
