12398.cdx
  Mrv1902 05222410272D          

 17 16  0  0  0  0            999 V2000
    0.9874   -3.0112    0.0000 C   0  0  0  0  0  0  0  0  0  0  0  0
    1.7018   -2.5987    0.0000 C   0  0  0  0  0  0  0  0  0  0  0  0
    2.4163   -3.0112    0.0000 C   0  0  0  0  0  0  0  0  0  0  0  0
    3.1308   -2.5987    0.0000 C   0  0  0  0  0  0  0  0  0  0  0  0
    3.8452   -3.0112    0.0000 C   0  0  0  0  0  0  0  0  0  0  0  0
    4.5597   -2.5987    0.0000 C   0  0  0  0  0  0  0  0  0  0  0  0
    5.2742   -3.0112    0.0000 C   0  0  0  0  0  0  0  0  0  0  0  0
    5.9887   -2.5987    0.0000 C   0  0  0  0  0  0  0  0  0  0  0  0
    6.7031   -3.0112    0.0000 C   0  0  0  0  0  0  0  0  0  0  0  0
    7.4176   -2.5987    0.0000 C   0  0  0  0  0  0  0  0  0  0  0  0
    8.1321   -3.0112    0.0000 C   0  0  0  0  0  0  0  0  0  0  0  0
    8.8465   -2.5987    0.0000 C   0  0  0  0  0  0  0  0  0  0  0  0
    9.5610   -3.0112    0.0000 C   0  0  0  0  0  0  0  0  0  0  0  0
   10.2755   -2.5987    0.0000 C   0  0  0  0  0  0  0  0  0  0  0  0
   10.9900   -3.0112    0.0000 C   0  0  0  0  0  0  0  0  0  0  0  0
   11.7044   -2.5987    0.0000 C   0  0  0  0  0  0  0  0  0  0  0  0
   12.4189   -3.0112    0.0000 C   0  0  0  0  0  0  0  0  0  0  0  0
  1  2  1  0  0  0  0
  2  3  1  0  0  0  0
  3  4  1  0  0  0  0
  4  5  1  0  0  0  0
  5  6  1  0  0  0  0
  6  7  1  0  0  0  0
  7  8  1  0  0  0  0
  8  9  1  0  0  0  0
  9 10  1  0  0  0  0
 10 11  1  0  0  0  0
 11 12  1  0  0  0  0
 12 13  1  0  0  0  0
 13 14  1  0  0  0  0
 14 15  1  0  0  0  0
 15 16  1  0  0  0  0
 16 17  1  0  0  0  0
M  END
>  <cdx:groupId>
52

>  <cdx:fragmentId>
5

$$$$
