12395.cdx
  Mrv1902 05222410182D          

 16 15  0  0  0  0            999 V2000
    1.2827   -3.4860    0.0000 C   0  0  0  0  0  0  0  0  0  0  0  0
    1.9972   -3.0735    0.0000 C   0  0  0  0  0  0  0  0  0  0  0  0
    2.7117   -3.4860    0.0000 C   0  0  0  0  0  0  0  0  0  0  0  0
    3.4261   -3.0735    0.0000 C   0  0  0  0  0  0  0  0  0  0  0  0
    4.1406   -3.4860    0.0000 C   0  0  0  0  0  0  0  0  0  0  0  0
    4.8551   -3.0735    0.0000 C   0  0  0  0  0  0  0  0  0  0  0  0
    5.5695   -3.4860    0.0000 C   0  0  0  0  0  0  0  0  0  0  0  0
    6.2840   -3.0735    0.0000 C   0  0  0  0  0  0  0  0  0  0  0  0
    6.9985   -3.4860    0.0000 C   0  0  0  0  0  0  0  0  0  0  0  0
    7.7130   -3.0735    0.0000 C   0  0  0  0  0  0  0  0  0  0  0  0
    8.4274   -3.4860    0.0000 C   0  0  0  0  0  0  0  0  0  0  0  0
    9.1419   -3.0735    0.0000 C   0  0  0  0  0  0  0  0  0  0  0  0
    9.8564   -3.4860    0.0000 C   0  0  0  0  0  0  0  0  0  0  0  0
   10.5708   -3.0735    0.0000 C   0  0  0  0  0  0  0  0  0  0  0  0
   11.2853   -3.4860    0.0000 C   0  0  0  0  0  0  0  0  0  0  0  0
   11.9998   -3.0735    0.0000 C   0  0  0  0  0  0  0  0  0  0  0  0
  1  2  2  0  0  0  0
  2  3  1  0  0  0  0
  3  4  1  0  0  0  0
  4  5  1  0  0  0  0
  5  6  1  0  0  0  0
  6  7  1  0  0  0  0
  7  8  1  0  0  0  0
  8  9  1  0  0  0  0
  9 10  1  0  0  0  0
 10 11  1  0  0  0  0
 11 12  1  0  0  0  0
 12 13  1  0  0  0  0
 13 14  1  0  0  0  0
 14 15  1  0  0  0  0
 15 16  1  0  0  0  0
M  END
>  <cdx:fragmentId>
5

$$$$
