12397.cdx
  Mrv1902 05222410182D          

 16 15  0  0  0  0            999 V2000
    2.7009   -8.2029    0.0000 C   0  0  0  0  0  0  0  0  0  0  0  0
    3.4154   -8.6154    0.0000 C   0  0  0  0  0  0  0  0  0  0  0  0
    4.1299   -8.2029    0.0000 C   0  0  0  0  0  0  0  0  0  0  0  0
    4.8443   -8.6154    0.0000 C   0  0  0  0  0  0  0  0  0  0  0  0
    5.5588   -8.2029    0.0000 C   0  0  0  0  0  0  0  0  0  0  0  0
    6.2733   -8.6154    0.0000 C   0  0  0  0  0  0  0  0  0  0  0  0
    6.9878   -8.2029    0.0000 C   0  0  0  0  0  0  0  0  0  0  0  0
    7.7022   -8.6154    0.0000 C   0  0  0  0  0  0  0  0  0  0  0  0
    8.4167   -8.2029    0.0000 C   0  0  0  0  0  0  0  0  0  0  0  0
    9.1312   -8.6154    0.0000 C   0  0  0  0  0  0  0  0  0  0  0  0
    9.8456   -8.2029    0.0000 C   0  0  0  0  0  0  0  0  0  0  0  0
   10.5601   -8.6154    0.0000 C   0  0  0  0  0  0  0  0  0  0  0  0
   11.2746   -8.2029    0.0000 C   0  0  0  0  0  0  0  0  0  0  0  0
   11.9890   -8.6154    0.0000 C   0  0  0  0  0  0  0  0  0  0  0  0
   12.7035   -8.2029    0.0000 C   0  0  0  0  0  0  0  0  0  0  0  0
    1.9865   -8.6154    0.0000 O   0  0  0  0  0  0  0  0  0  0  0  0
  1  2  1  0  0  0  0
  2  3  1  0  0  0  0
  3  4  1  0  0  0  0
  4  5  1  0  0  0  0
  5  6  1  0  0  0  0
  6  7  1  0  0  0  0
  7  8  1  0  0  0  0
  8  9  1  0  0  0  0
  9 10  1  0  0  0  0
 10 11  1  0  0  0  0
 11 12  1  0  0  0  0
 12 13  1  0  0  0  0
 13 14  1  0  0  0  0
 14 15  1  0  0  0  0
  1 16  1  0  0  0  0
M  END
>  <cdx:fragmentId>
67

$$$$
