12391.cdx
  Mrv1902 05222410192D          

 15 14  0  0  0  0            999 V2000
    2.1350   -2.7431    0.0000 C   0  0  0  0  0  0  0  0  0  0  0  0
    2.8494   -2.3306    0.0000 C   0  0  0  0  0  0  0  0  0  0  0  0
    3.5639   -2.7431    0.0000 C   0  0  0  0  0  0  0  0  0  0  0  0
    4.2784   -2.3306    0.0000 C   0  0  0  0  0  0  0  0  0  0  0  0
    4.9928   -2.7431    0.0000 C   0  0  0  0  0  0  0  0  0  0  0  0
    5.7073   -2.3306    0.0000 C   0  0  0  0  0  0  0  0  0  0  0  0
    6.4218   -2.7431    0.0000 C   0  0  0  0  0  0  0  0  0  0  0  0
    7.1362   -2.3306    0.0000 C   0  0  0  0  0  0  0  0  0  0  0  0
    7.8507   -2.7431    0.0000 C   0  0  0  0  0  0  0  0  0  0  0  0
    8.5652   -2.3306    0.0000 C   0  0  0  0  0  0  0  0  0  0  0  0
    9.2797   -2.7431    0.0000 C   0  0  0  0  0  0  0  0  0  0  0  0
    9.9941   -2.3306    0.0000 C   0  0  0  0  0  0  0  0  0  0  0  0
   10.7086   -2.7431    0.0000 C   0  0  0  0  0  0  0  0  0  0  0  0
   11.4231   -2.3306    0.0000 C   0  0  0  0  0  0  0  0  0  0  0  0
   12.1375   -2.7431    0.0000 C   0  0  0  0  0  0  0  0  0  0  0  0
  1  2  1  0  0  0  0
  2  3  1  0  0  0  0
  3  4  1  0  0  0  0
  4  5  1  0  0  0  0
  5  6  1  0  0  0  0
  6  7  1  0  0  0  0
  7  8  1  0  0  0  0
  8  9  1  0  0  0  0
  9 10  1  0  0  0  0
 10 11  1  0  0  0  0
 11 12  1  0  0  0  0
 12 13  1  0  0  0  0
 13 14  1  0  0  0  0
 14 15  1  0  0  0  0
M  END
>  <cdx:groupId>
46

>  <cdx:fragmentId>
5

$$$$
