124.cdx
  Mrv1902 05222410272D          

 20 22  0  0  0  0            999 V2000
    4.8467   -5.3006    0.0000 C   0  0  0  0  0  0  0  0  0  0  0  0
    4.8467   -6.1256    0.0000 C   0  0  0  0  0  0  0  0  0  0  0  0
    5.5612   -6.5381    0.0000 C   0  0  0  0  0  0  0  0  0  0  0  0
    6.2757   -6.1256    0.0000 C   0  0  0  0  0  0  0  0  0  0  0  0
    6.2757   -5.3006    0.0000 C   0  0  0  0  0  0  0  0  0  0  0  0
    5.5612   -4.8881    0.0000 C   0  0  0  0  0  0  0  0  0  0  0  0
    6.9901   -6.5381    0.0000 C   0  0  0  0  0  0  0  0  0  0  0  0
    7.7046   -6.1256    0.0000 C   0  0  0  0  0  0  0  0  0  0  0  0
    7.7046   -5.3006    0.0000 C   0  0  0  0  0  0  0  0  0  0  0  0
    6.9901   -4.8881    0.0000 O   0  0  0  0  0  0  0  0  0  0  0  0
    4.1322   -4.8881    0.0000 O   0  0  0  0  0  0  0  0  0  0  0  0
    5.5612   -7.3631    0.0000 O   0  0  0  0  0  0  0  0  0  0  0  0
    8.4191   -4.8881    0.0000 C   0  0  0  0  0  0  0  0  0  0  0  0
    9.1335   -5.3006    0.0000 C   0  0  0  0  0  0  0  0  0  0  0  0
    9.8480   -4.8881    0.0000 C   0  0  0  0  0  0  0  0  0  0  0  0
    9.8480   -4.0631    0.0000 C   0  0  0  0  0  0  0  0  0  0  0  0
    9.1335   -3.6506    0.0000 C   0  0  0  0  0  0  0  0  0  0  0  0
    8.4191   -4.0631    0.0000 C   0  0  0  0  0  0  0  0  0  0  0  0
   10.5625   -3.6506    0.0000 O   0  0  0  0  0  0  0  0  0  0  0  0
    6.9901   -7.3631    0.0000 O   0  0  0  0  0  0  0  0  0  0  0  0
  1  2  2  0  0  0  0
  2  3  1  0  0  0  0
  3  4  2  0  0  0  0
  4  5  1  0  0  0  0
  5  6  2  0  0  0  0
  6  1  1  0  0  0  0
  4  7  1  0  0  0  0
  7  8  1  0  0  0  0
  8  9  2  0  0  0  0
  9 10  1  0  0  0  0
 10  5  1  0  0  0  0
  1 11  1  0  0  0  0
  3 12  1  0  0  0  0
  9 13  1  0  0  0  0
 13 14  2  0  0  0  0
 14 15  1  0  0  0  0
 15 16  2  0  0  0  0
 16 17  1  0  0  0  0
 17 18  2  0  0  0  0
 18 13  1  0  0  0  0
 16 19  1  0  0  0  0
  7 20  2  0  0  0  0
M  END
>  <cdx:fragmentId>
5

$$$$
