12407.cdx
  Mrv1902 05222410262D          

 13 12  0  0  0  0            999 V2000
    8.7896   -7.2869    0.0000 C   0  0  0  0  0  0  0  0  0  0  0  0
    8.0751   -7.6994    0.0000 C   0  0  0  0  0  0  0  0  0  0  0  0
    7.3606   -7.2869    0.0000 C   0  0  0  0  0  0  0  0  0  0  0  0
    7.3606   -8.1119    0.0000 O   0  0  0  0  0  0  0  0  0  0  0  0
    7.3606   -6.4619    0.0000 C   0  0  0  0  0  0  0  0  0  0  0  0
    6.6462   -7.6994    0.0000 C   0  0  0  0  0  0  0  0  0  0  0  0
    5.9317   -7.2869    0.0000 C   0  0  0  0  0  0  0  0  0  0  0  0
    8.7896   -6.4619    0.0000 O   0  0  0  0  0  0  0  0  0  0  0  0
    9.5041   -7.6994    0.0000 O   0  5  0  0  0  0  0  0  0  0  0  0
    6.6462   -6.0494    0.0000 O   0  0  0  0  0  0  0  0  0  0  0  0
    8.0751   -6.0494    0.0000 O   0  5  0  0  0  0  0  0  0  0  0  0
    5.9317   -6.4619    0.0000 O   0  0  0  0  0  0  0  0  0  0  0  0
    5.2172   -7.6994    0.0000 O   0  5  0  0  0  0  0  0  0  0  0  0
  1  2  1  0  0  0  0
  2  3  1  0  0  0  0
  3  4  1  0  0  0  0
  3  5  1  0  0  0  0
  3  6  1  0  0  0  0
  6  7  1  0  0  0  0
  1  8  2  0  0  0  0
  1  9  1  0  0  0  0
  5 10  2  0  0  0  0
  5 11  1  0  0  0  0
  7 12  2  0  0  0  0
  7 13  1  0  0  0  0
M  CHG  3   9  -1  11  -1  13  -1
M  END
>  <cdx:groupId>
1957

>  <cdx:fragmentId>
1922

$$$$
