12401.cdx
  Mrv1902 05222410272D          

 19 18  0  0  0  0            999 V2000
    0.8710   -3.3000    0.0000 C   0  0  0  0  0  0  0  0  0  0  0  0
    1.5855   -2.8875    0.0000 C   0  0  0  0  0  0  0  0  0  0  0  0
    2.3000   -3.3000    0.0000 C   0  0  0  0  0  0  0  0  0  0  0  0
    3.0144   -2.8875    0.0000 C   0  0  0  0  0  0  0  0  0  0  0  0
    3.7289   -3.3000    0.0000 C   0  0  0  0  0  0  0  0  0  0  0  0
    4.4434   -2.8875    0.0000 C   0  0  0  0  0  0  0  0  0  0  0  0
    5.1578   -3.3000    0.0000 C   0  0  0  0  0  0  0  0  0  0  0  0
    5.8723   -2.8875    0.0000 C   0  0  0  0  0  0  0  0  0  0  0  0
    6.5868   -3.3000    0.0000 C   0  0  0  0  0  0  0  0  0  0  0  0
    7.3012   -2.8875    0.0000 C   0  0  0  0  0  0  0  0  0  0  0  0
    8.0157   -3.3000    0.0000 C   0  0  0  0  0  0  0  0  0  0  0  0
    8.7302   -2.8875    0.0000 C   0  0  0  0  0  0  0  0  0  0  0  0
    9.4447   -3.3000    0.0000 C   0  0  0  0  0  0  0  0  0  0  0  0
   10.1591   -2.8875    0.0000 C   0  0  0  0  0  0  0  0  0  0  0  0
   10.8736   -3.3000    0.0000 C   0  0  0  0  0  0  0  0  0  0  0  0
   11.5881   -2.8875    0.0000 C   0  0  0  0  0  0  0  0  0  0  0  0
   12.3025   -3.3000    0.0000 C   0  0  0  0  0  0  0  0  0  0  0  0
   13.0170   -2.8875    0.0000 C   0  0  0  0  0  0  0  0  0  0  0  0
   13.7315   -3.3000    0.0000 C   0  0  0  0  0  0  0  0  0  0  0  0
  1  2  1  0  0  0  0
  2  3  1  0  0  0  0
  3  4  1  0  0  0  0
  4  5  1  0  0  0  0
  5  6  1  0  0  0  0
  6  7  1  0  0  0  0
  7  8  1  0  0  0  0
  8  9  1  0  0  0  0
  9 10  1  0  0  0  0
 10 11  1  0  0  0  0
 11 12  1  0  0  0  0
 12 13  1  0  0  0  0
 13 14  1  0  0  0  0
 14 15  1  0  0  0  0
 15 16  1  0  0  0  0
 16 17  1  0  0  0  0
 17 18  1  0  0  0  0
 18 19  1  0  0  0  0
M  END
>  <cdx:groupId>
58

>  <cdx:fragmentId>
5

$$$$
