12403.cdx
  Mrv1902 05222410282D          

 21 20  0  0  0  0            999 V2000
    0.0972   -3.6919    0.0000 C   0  0  0  0  0  0  0  0  0  0  0  0
    0.8117   -3.2794    0.0000 C   0  0  0  0  0  0  0  0  0  0  0  0
    1.5261   -3.6919    0.0000 C   0  0  0  0  0  0  0  0  0  0  0  0
    2.2406   -3.2794    0.0000 C   0  0  0  0  0  0  0  0  0  0  0  0
    2.9551   -3.6919    0.0000 C   0  0  0  0  0  0  0  0  0  0  0  0
    3.6696   -3.2794    0.0000 C   0  0  0  0  0  0  0  0  0  0  0  0
    4.3840   -3.6919    0.0000 C   0  0  0  0  0  0  0  0  0  0  0  0
    5.0985   -3.2794    0.0000 C   0  0  0  0  0  0  0  0  0  0  0  0
    5.8130   -3.6919    0.0000 C   0  0  0  0  0  0  0  0  0  0  0  0
    6.5274   -3.2794    0.0000 C   0  0  0  0  0  0  0  0  0  0  0  0
    7.2419   -3.6919    0.0000 C   0  0  0  0  0  0  0  0  0  0  0  0
    7.9564   -3.2794    0.0000 C   0  0  0  0  0  0  0  0  0  0  0  0
    8.6709   -3.6919    0.0000 C   0  0  0  0  0  0  0  0  0  0  0  0
    9.3853   -3.2794    0.0000 C   0  0  0  0  0  0  0  0  0  0  0  0
   10.0998   -3.6919    0.0000 C   0  0  0  0  0  0  0  0  0  0  0  0
   10.8143   -3.2794    0.0000 C   0  0  0  0  0  0  0  0  0  0  0  0
   11.5287   -3.6919    0.0000 C   0  0  0  0  0  0  0  0  0  0  0  0
   12.2432   -3.2794    0.0000 C   0  0  0  0  0  0  0  0  0  0  0  0
   12.9577   -3.6919    0.0000 C   0  0  0  0  0  0  0  0  0  0  0  0
   13.6722   -3.2794    0.0000 C   0  0  0  0  0  0  0  0  0  0  0  0
   14.3866   -3.6919    0.0000 C   0  0  0  0  0  0  0  0  0  0  0  0
  1  2  1  0  0  0  0
  2  3  1  0  0  0  0
  3  4  1  0  0  0  0
  4  5  1  0  0  0  0
  5  6  1  0  0  0  0
  6  7  1  0  0  0  0
  7  8  1  0  0  0  0
  8  9  1  0  0  0  0
  9 10  1  0  0  0  0
 10 11  1  0  0  0  0
 11 12  1  0  0  0  0
 12 13  1  0  0  0  0
 13 14  1  0  0  0  0
 14 15  1  0  0  0  0
 15 16  1  0  0  0  0
 16 17  1  0  0  0  0
 17 18  1  0  0  0  0
 18 19  1  0  0  0  0
 19 20  1  0  0  0  0
 20 21  1  0  0  0  0
M  END
>  <cdx:groupId>
64

>  <cdx:fragmentId>
5

$$$$
