124034.cdx
  Mrv1902 05222410212D          

 33 36  0  0  0  0            999 V2000
    9.1699   -6.7454    0.0000 C   0  0  0  0  0  0  0  0  0  0  0  0
    9.1699   -7.5704    0.0000 C   0  0  0  0  0  0  0  0  0  0  0  0
    8.4555   -7.9829    0.0000 C   0  0  0  0  0  0  0  0  0  0  0  0
    8.4555   -8.8079    0.0000 O   0  0  0  0  0  0  0  0  0  0  0  0
    7.7410   -7.5704    0.0000 C   0  0  0  0  0  0  0  0  0  0  0  0
    7.0265   -7.9829    0.0000 C   0  0  0  0  0  0  0  0  0  0  0  0
    7.0265   -8.8079    0.0000 O   0  0  0  0  0  0  0  0  0  0  0  0
    6.3121   -7.5704    0.0000 C   0  0  0  0  0  0  0  0  0  0  0  0
    6.3121   -6.7454    0.0000 C   0  0  0  0  0  0  0  0  0  0  0  0
    5.5976   -6.3329    0.0000 O   0  0  0  0  0  0  0  0  0  0  0  0
    7.0265   -6.3329    0.0000 C   0  0  0  0  0  0  0  0  0  0  0  0
    7.7410   -6.7454    0.0000 C   0  0  0  0  0  0  0  0  0  0  0  0
    8.4555   -6.3329    0.0000 O   0  0  0  0  0  0  0  0  0  0  0  0
    9.8844   -6.3329    0.0000 C   0  0  0  0  0  0  0  0  0  0  0  0
    9.8844   -5.5079    0.0000 C   0  0  0  0  0  0  0  0  0  0  0  0
   10.5989   -5.0954    0.0000 C   0  0  0  0  0  0  0  0  0  0  0  0
   11.3134   -5.5079    0.0000 C   0  0  0  0  0  0  0  0  0  0  0  0
   12.0278   -5.0954    0.0000 O   0  0  0  0  0  0  0  0  0  0  0  0
   11.3134   -6.3329    0.0000 C   0  0  0  0  0  0  0  0  0  0  0  0
   10.5989   -6.7454    0.0000 C   0  0  0  0  0  0  0  0  0  0  0  0
    4.8831   -6.7454    0.0000 C   0  0  0  0  0  0  0  0  0  0  0  0
    5.5976   -7.9829    0.0000 C   0  0  1  0  0  0  0  0  0  0  0  0
    5.5976   -8.8079    0.0000 C   0  0  2  0  0  0  0  0  0  0  0  0
    6.3121   -9.2204    0.0000 O   0  0  0  0  0  0  0  0  0  0  0  0
    4.8831   -9.2204    0.0000 C   0  0  1  0  0  0  0  0  0  0  0  0
    4.8831  -10.0454    0.0000 O   0  0  0  0  0  0  0  0  0  0  0  0
    4.1686   -8.8079    0.0000 C   0  0  2  0  0  0  0  0  0  0  0  0
    3.4542   -9.2204    0.0000 O   0  0  0  0  0  0  0  0  0  0  0  0
    4.1686   -7.9829    0.0000 C   0  0  2  0  0  0  0  0  0  0  0  0
    4.8831   -7.5704    0.0000 O   0  0  0  0  0  0  0  0  0  0  0  0
    3.4542   -7.5704    0.0000 C   0  0  0  0  0  0  0  0  0  0  0  0
    2.7397   -7.9829    0.0000 O   0  0  0  0  0  0  0  0  0  0  0  0
    5.5976   -7.1579    0.0000 H   0  0  0  0  0  0  0  0  0  0  0  0
  1  2  2  0  0  0  0
  2  3  1  0  0  0  0
  3  4  2  0  0  0  0
  3  5  1  0  0  0  0
  5  6  1  0  0  0  0
  6  7  1  0  0  0  0
  6  8  2  0  0  0  0
  8  9  1  0  0  0  0
  9 10  1  0  0  0  0
  9 11  2  0  0  0  0
 11 12  1  0  0  0  0
  5 12  2  0  0  0  0
 12 13  1  0  0  0  0
  1 13  1  0  0  0  0
  1 14  1  0  0  0  0
 14 15  1  0  0  0  0
 15 16  2  0  0  0  0
 16 17  1  0  0  0  0
 17 18  1  0  0  0  0
 17 19  2  0  0  0  0
 19 20  1  0  0  0  0
 14 20  2  0  0  0  0
 10 21  1  0  0  0  0
 22 23  1  0  0  0  0
 23 24  1  6  0  0  0
 23 25  1  0  0  0  0
 25 26  1  1  0  0  0
 25 27  1  0  0  0  0
 27 28  1  6  0  0  0
 27 29  1  0  0  0  0
 29 30  1  0  0  0  0
 29 31  1  1  0  0  0
 31 32  1  0  0  0  0
 22 30  1  0  0  0  0
  8 22  1  0  0  0  0
 22 33  1  6  0  0  0
M  END
>  <cdx:fragmentId>
3731

$$$$
