124025.cdx
  Mrv1902 05222410232D          

 42 48  0  0  0  0            999 V2000
    4.1574   -6.6413    0.0000 C   0  0  0  0  0  0  0  0  0  0  0  0
    4.1574   -7.4663    0.0000 C   0  0  0  0  0  0  0  0  0  0  0  0
    4.8719   -7.8788    0.0000 C   0  0  0  0  0  0  0  0  0  0  0  0
    5.5864   -7.4663    0.0000 C   0  0  0  0  0  0  0  0  0  0  0  0
    5.5864   -6.6413    0.0000 C   0  0  0  0  0  0  0  0  0  0  0  0
    4.8719   -6.2287    0.0000 C   0  0  0  0  0  0  0  0  0  0  0  0
    3.4430   -6.2287    0.0000 O   0  0  0  0  0  0  0  0  0  0  0  0
    4.8719   -8.7037    0.0000 O   0  0  0  0  0  0  0  0  0  0  0  0
    6.3008   -7.8788    0.0000 C   0  0  1  0  0  0  0  0  0  0  0  0
    7.0153   -7.4663    0.0000 C   0  0  2  0  0  0  0  0  0  0  0  0
    7.0153   -6.6413    0.0000 C   0  0  2  0  0  0  0  0  0  0  0  0
    6.3008   -6.2287    0.0000 O   0  0  0  0  0  0  0  0  0  0  0  0
    7.7298   -6.2287    0.0000 C   0  0  0  0  0  0  0  0  0  0  0  0
    7.7298   -5.4037    0.0000 C   0  0  0  0  0  0  0  0  0  0  0  0
    8.4443   -6.6413    0.0000 C   0  0  0  0  0  0  0  0  0  0  0  0
    9.1587   -6.2287    0.0000 C   0  0  0  0  0  0  0  0  0  0  0  0
    9.1587   -5.4037    0.0000 C   0  0  0  0  0  0  0  0  0  0  0  0
    8.4443   -4.9913    0.0000 C   0  0  0  0  0  0  0  0  0  0  0  0
    8.4443   -4.1662    0.0000 O   0  0  0  0  0  0  0  0  0  0  0  0
    9.8732   -4.9913    0.0000 O   0  0  0  0  0  0  0  0  0  0  0  0
    7.7298   -7.8788    0.0000 O   0  0  0  0  0  0  0  0  0  0  0  0
    7.5537   -8.5938    0.0000 C   0  0  0  0  0  0  0  0  0  0  0  0
    7.5537   -9.4187    0.0000 C   0  0  0  0  0  0  0  0  0  0  0  0
    8.2681   -9.8312    0.0000 C   0  0  0  0  0  0  0  0  0  0  0  0
    8.9826   -9.4187    0.0000 C   0  0  0  0  0  0  0  0  0  0  0  0
    8.9826   -8.5938    0.0000 C   0  0  0  0  0  0  0  0  0  0  0  0
    8.2681   -8.1813    0.0000 C   0  0  0  0  0  0  0  0  0  0  0  0
    8.2681   -7.3563    0.0000 O   0  0  0  0  0  0  0  0  0  0  0  0
    9.6971   -9.8312    0.0000 O   0  0  0  0  0  0  0  0  0  0  0  0
    6.8392   -9.8312    0.0000 O   0  0  0  0  0  0  0  0  0  0  0  0
    6.8392  -10.6563    0.0000 C   0  0  1  0  0  0  0  0  0  0  0  0
    7.5537  -11.0688    0.0000 C   0  0  1  0  0  0  0  0  0  0  0  0
    8.2681  -10.6563    0.0000 C   0  0  0  0  0  0  0  0  0  0  0  0
    6.1247  -11.0688    0.0000 C   0  0  0  0  0  0  0  0  0  0  0  0
    6.1247  -11.8938    0.0000 C   0  0  0  0  0  0  0  0  0  0  0  0
    7.5537  -11.8938    0.0000 O   0  0  0  0  0  0  0  0  0  0  0  0
    5.4103  -10.6563    0.0000 C   0  0  0  0  0  0  0  0  0  0  0  0
    4.6958  -11.0688    0.0000 C   0  0  0  0  0  0  0  0  0  0  0  0
    4.6958  -11.8938    0.0000 C   0  0  0  0  0  0  0  0  0  0  0  0
    5.4103  -12.3063    0.0000 C   0  0  0  0  0  0  0  0  0  0  0  0
    3.9813  -10.6563    0.0000 O   0  0  0  0  0  0  0  0  0  0  0  0
    3.9813  -12.3063    0.0000 O   0  0  0  0  0  0  0  0  0  0  0  0
  1  2  2  0  0  0  0
  2  3  1  0  0  0  0
  3  4  2  0  0  0  0
  4  5  1  0  0  0  0
  5  6  2  0  0  0  0
  6  1  1  0  0  0  0
  1  7  1  0  0  0  0
  3  8  1  0  0  0  0
  4  9  1  0  0  0  0
  9 10  1  0  0  0  0
 10 11  1  0  0  0  0
 11 12  1  0  0  0  0
 12  5  1  0  0  0  0
 11 13  1  6  0  0  0
 13 14  2  0  0  0  0
 13 15  1  0  0  0  0
 15 16  2  0  0  0  0
 16 17  1  0  0  0  0
 17 18  2  0  0  0  0
 18 14  1  0  0  0  0
 18 19  1  0  0  0  0
 17 20  1  0  0  0  0
 10 21  1  6  0  0  0
 22 23  2  0  0  0  0
 23 24  1  0  0  0  0
 24 25  2  0  0  0  0
 25 26  1  0  0  0  0
 26 27  2  0  0  0  0
 27 22  1  0  0  0  0
 27 28  1  0  0  0  0
 25 29  1  0  0  0  0
 23 30  1  0  0  0  0
 30 31  1  0  0  0  0
 31 32  1  0  0  0  0
 32 33  1  0  0  0  0
 33 24  1  0  0  0  0
 31 34  1  1  0  0  0
 34 35  2  0  0  0  0
 32 36  1  1  0  0  0
 34 37  1  0  0  0  0
 37 38  2  0  0  0  0
 38 39  1  0  0  0  0
 39 40  2  0  0  0  0
 40 35  1  0  0  0  0
 38 41  1  0  0  0  0
 39 42  1  0  0  0  0
 11 28  1  1  0  0  0
  9 22  1  1  0  0  0
M  END
>  <cdx:fragmentId>
76

$$$$
