12408.cdx
  Mrv1902 05222410192D          

 28 27  0  0  0  0            999 V2000
    1.5911   -3.6094    0.0000 C   0  0  0  0  0  0  0  0  0  0  0  0
    2.3056   -3.1969    0.0000 C   0  0  0  0  0  0  0  0  0  0  0  0
    3.0201   -3.6094    0.0000 C   0  0  0  0  0  0  0  0  0  0  0  0
    3.7346   -3.1969    0.0000 C   0  0  0  0  0  0  0  0  0  0  0  0
    4.4490   -3.6094    0.0000 C   0  0  0  0  0  0  0  0  0  0  0  0
    5.1635   -3.1969    0.0000 C   0  0  0  0  0  0  0  0  0  0  0  0
    5.8780   -3.6094    0.0000 C   0  0  0  0  0  0  0  0  0  0  0  0
    6.5924   -3.1969    0.0000 C   0  0  0  0  0  0  0  0  0  0  0  0
    7.3069   -3.6094    0.0000 C   0  0  0  0  0  0  0  0  0  0  0  0
    8.0214   -3.1969    0.0000 C   0  0  0  0  0  0  0  0  0  0  0  0
    8.7359   -3.6094    0.0000 C   0  0  0  0  0  0  0  0  0  0  0  0
    9.4503   -3.1969    0.0000 C   0  0  0  0  0  0  0  0  0  0  0  0
   10.1648   -3.6094    0.0000 C   0  0  0  0  0  0  0  0  0  0  0  0
   10.8793   -3.1969    0.0000 C   0  0  0  0  0  0  0  0  0  0  0  0
   11.5937   -3.6094    0.0000 C   0  0  0  0  0  0  0  0  0  0  0  0
   12.3082   -3.1969    0.0000 C   0  0  0  0  0  0  0  0  0  0  0  0
   13.0227   -3.6094    0.0000 C   0  0  0  0  0  0  0  0  0  0  0  0
   13.7371   -3.1969    0.0000 C   0  0  0  0  0  0  0  0  0  0  0  0
   14.4516   -3.6094    0.0000 C   0  0  0  0  0  0  0  0  0  0  0  0
   15.1661   -3.1969    0.0000 C   0  0  0  0  0  0  0  0  0  0  0  0
   15.8806   -3.6094    0.0000 C   0  0  0  0  0  0  0  0  0  0  0  0
   16.5950   -3.1969    0.0000 C   0  0  0  0  0  0  0  0  0  0  0  0
   17.3095   -3.6094    0.0000 C   0  0  0  0  0  0  0  0  0  0  0  0
   18.0240   -3.1969    0.0000 C   0  0  0  0  0  0  0  0  0  0  0  0
   18.7384   -3.6094    0.0000 C   0  0  0  0  0  0  0  0  0  0  0  0
   19.4529   -3.1969    0.0000 C   0  0  0  0  0  0  0  0  0  0  0  0
   20.1674   -3.6094    0.0000 C   0  0  0  0  0  0  0  0  0  0  0  0
   20.8819   -3.1969    0.0000 C   0  0  0  0  0  0  0  0  0  0  0  0
  1  2  1  0  0  0  0
  2  3  1  0  0  0  0
  3  4  1  0  0  0  0
  4  5  1  0  0  0  0
  5  6  1  0  0  0  0
  6  7  1  0  0  0  0
  7  8  1  0  0  0  0
  8  9  1  0  0  0  0
  9 10  1  0  0  0  0
 10 11  1  0  0  0  0
 11 12  1  0  0  0  0
 12 13  1  0  0  0  0
 13 14  1  0  0  0  0
 14 15  1  0  0  0  0
 15 16  1  0  0  0  0
 16 17  1  0  0  0  0
 17 18  1  0  0  0  0
 18 19  1  0  0  0  0
 19 20  1  0  0  0  0
 20 21  1  0  0  0  0
 21 22  1  0  0  0  0
 22 23  1  0  0  0  0
 23 24  1  0  0  0  0
 24 25  1  0  0  0  0
 25 26  1  0  0  0  0
 26 27  1  0  0  0  0
 27 28  1  0  0  0  0
M  END
>  <cdx:fragmentId>
5

$$$$
