124063.cdx
  Mrv1902 05222410262D          

 19 21  0  0  0  0            999 V2000
   17.2120  -14.9049    0.0000 C   0  0  0  0  0  0  0  0  0  0  0  0
   17.9265  -15.3174    0.0000 C   0  0  0  0  0  0  0  0  0  0  0  0
   17.9265  -16.1424    0.0000 C   0  0  0  0  0  0  0  0  0  0  0  0
   17.2120  -16.5549    0.0000 C   0  0  0  0  0  0  0  0  0  0  0  0
   16.4975  -16.1424    0.0000 C   0  0  0  0  0  0  0  0  0  0  0  0
   15.7830  -16.5549    0.0000 C   0  0  0  0  0  0  0  0  0  0  0  0
   15.0686  -16.1424    0.0000 C   0  0  0  0  0  0  0  0  0  0  0  0
   14.3541  -16.5549    0.0000 C   0  0  0  0  0  0  0  0  0  0  0  0
   13.6396  -16.1424    0.0000 C   0  0  0  0  0  0  0  0  0  0  0  0
   13.6396  -15.3174    0.0000 C   0  0  0  0  0  0  0  0  0  0  0  0
   14.3541  -14.9049    0.0000 C   0  0  0  0  0  0  0  0  0  0  0  0
   15.0686  -15.3174    0.0000 C   0  0  0  0  0  0  0  0  0  0  0  0
   15.7830  -14.9049    0.0000 C   0  0  0  0  0  0  0  0  0  0  0  0
   16.4975  -15.3174    0.0000 C   0  0  0  0  0  0  0  0  0  0  0  0
   15.7830  -17.3799    0.0000 O   0  0  0  0  0  0  0  0  0  0  0  0
   15.7830  -14.0799    0.0000 O   0  0  0  0  0  0  0  0  0  0  0  0
   18.6409  -14.9049    0.0000 C   0  0  0  0  0  0  0  0  0  0  0  0
   12.9252  -16.5549    0.0000 O   0  0  0  0  0  0  0  0  0  0  0  0
   17.2120  -14.0799    0.0000 O   0  0  0  0  0  0  0  0  0  0  0  0
  1  2  1  0  0  0  0
  2  3  2  0  0  0  0
  3  4  1  0  0  0  0
  4  5  2  0  0  0  0
  5  6  1  0  0  0  0
  6  7  1  0  0  0  0
  7  8  1  0  0  0  0
  8  9  2  0  0  0  0
  9 10  1  0  0  0  0
 10 11  2  0  0  0  0
 11 12  1  0  0  0  0
  7 12  2  0  0  0  0
 12 13  1  0  0  0  0
 13 14  1  0  0  0  0
  5 14  1  0  0  0  0
  1 14  2  0  0  0  0
  6 15  2  0  0  0  0
 13 16  2  0  0  0  0
  2 17  1  0  0  0  0
  9 18  1  0  0  0  0
  1 19  1  0  0  0  0
M  END
>  <cdx:groupId>
4252

>  <cdx:fragmentId>
4196

$$$$
