124050.cdx
  Mrv1902 05222410192D          

 27 31  0  0  0  0            999 V2000
   15.2432  -16.3476    0.0000 C   0  0  0  0  0  0  0  0  0  0  0  0
   15.9577  -15.9351    0.0000 C   0  0  0  0  0  0  0  0  0  0  0  0
   16.1292  -15.1282    0.0000 O   0  0  0  0  0  0  0  0  0  0  0  0
   16.9497  -15.0419    0.0000 C   0  0  0  0  0  0  0  0  0  0  0  0
   17.4346  -14.3745    0.0000 C   0  0  0  0  0  0  0  0  0  0  0  0
   18.2551  -14.4607    0.0000 C   0  0  0  0  0  0  0  0  0  0  0  0
   18.5906  -15.2144    0.0000 C   0  0  0  0  0  0  0  0  0  0  0  0
   18.1057  -15.8818    0.0000 C   0  0  0  0  0  0  0  0  0  0  0  0
   17.2852  -15.7956    0.0000 C   0  0  0  0  0  0  0  0  0  0  0  0
   16.6721  -16.3476    0.0000 C   0  0  0  0  0  0  0  0  0  0  0  0
   16.6721  -17.1726    0.0000 C   0  0  0  0  0  0  0  0  0  0  0  0
   15.9577  -17.5851    0.0000 O   0  0  0  0  0  0  0  0  0  0  0  0
   15.2432  -17.1726    0.0000 C   0  0  0  0  0  0  0  0  0  0  0  0
   14.5287  -17.5851    0.0000 C   0  0  0  0  0  0  0  0  0  0  0  0
   13.8143  -17.1726    0.0000 C   0  0  0  0  0  0  0  0  0  0  0  0
   13.0998  -17.5851    0.0000 O   0  0  0  0  0  0  0  0  0  0  0  0
   12.3853  -17.1726    0.0000 C   0  0  0  0  0  0  0  0  0  0  0  0
   12.3853  -16.3476    0.0000 C   0  0  0  0  0  0  0  0  0  0  0  0
   13.0998  -15.9351    0.0000 C   0  0  0  0  0  0  0  0  0  0  0  0
   13.8143  -16.3476    0.0000 C   0  0  0  0  0  0  0  0  0  0  0  0
   14.5287  -15.9351    0.0000 C   0  0  0  0  0  0  0  0  0  0  0  0
   17.3866  -17.5851    0.0000 O   0  0  0  0  0  0  0  0  0  0  0  0
   11.9728  -17.8871    0.0000 C   0  0  0  0  0  0  0  0  0  0  0  0
   11.5603  -17.1726    0.0000 C   0  0  0  0  0  0  0  0  0  0  0  0
   14.5287  -15.1101    0.0000 O   0  0  0  0  0  0  0  0  0  0  0  0
   13.8143  -14.6976    0.0000 C   0  0  0  0  0  0  0  0  0  0  0  0
   18.7400  -13.7933    0.0000 O   0  0  0  0  0  0  0  0  0  0  0  0
  1  2  1  0  0  0  0
  2  3  1  0  0  0  0
  3  4  1  0  0  0  0
  4  5  1  0  0  0  0
  5  6  2  0  0  0  0
  6  7  1  0  0  0  0
  7  8  2  0  0  0  0
  8  9  1  0  0  0  0
  9 10  1  0  0  0  0
 10 11  1  0  0  0  0
 11 12  1  0  0  0  0
 12 13  1  0  0  0  0
 13 14  2  0  0  0  0
 14 15  1  0  0  0  0
 15 16  1  0  0  0  0
 16 17  1  0  0  0  0
 17 18  1  0  0  0  0
 18 19  1  0  0  0  0
 19 20  1  0  0  0  0
 20 21  1  0  0  0  0
  1 21  2  0  0  0  0
  1 13  1  0  0  0  0
 15 20  2  0  0  0  0
  2 10  2  0  0  0  0
  4  9  2  0  0  0  0
 11 22  2  0  0  0  0
 17 23  1  0  0  0  0
 17 24  1  0  0  0  0
 25 26  1  0  0  0  0
 21 25  1  0  0  0  0
  6 27  1  0  0  0  0
M  END
>  <cdx:groupId>
4066

>  <cdx:fragmentId>
3984

$$$$
