124039.cdx
  Mrv1902 05222410252D          

 17 19  0  0  0  0            999 V2000
    5.8166   -7.5355    0.0000 C   0  0  0  0  0  0  0  0  0  0  0  0
    5.8166   -8.3605    0.0000 C   0  0  0  0  0  0  0  0  0  0  0  0
    6.5311   -8.7730    0.0000 C   0  0  0  0  0  0  0  0  0  0  0  0
    7.2455   -8.3605    0.0000 C   0  0  0  0  0  0  0  0  0  0  0  0
    7.2455   -7.5355    0.0000 C   0  0  1  0  0  0  0  0  0  0  0  0
    6.5311   -7.1230    0.0000 C   0  0  0  0  0  0  0  0  0  0  0  0
    8.0301   -8.6155    0.0000 C   0  0  0  0  0  0  0  0  0  0  0  0
    8.5151   -7.9480    0.0000 O   0  0  0  0  0  0  0  0  0  0  0  0
    8.0301   -7.2806    0.0000 C   0  0  1  0  0  0  0  0  0  0  0  0
    8.2851   -9.4001    0.0000 O   0  0  0  0  0  0  0  0  0  0  0  0
    6.5311   -9.5980    0.0000 C   0  0  0  0  0  0  0  0  0  0  0  0
    7.2455   -6.7105    0.0000 C   0  0  0  0  0  0  0  0  0  0  0  0
    9.0697   -6.2410    0.0000 C   0  0  0  0  0  0  0  0  0  0  0  0
    9.0696   -5.4160    0.0000 C   0  0  0  0  0  0  0  0  0  0  0  0
    8.2850   -5.1611    0.0000 O   0  0  0  0  0  0  0  0  0  0  0  0
    7.8001   -5.8286    0.0000 C   0  0  0  0  0  0  0  0  0  0  0  0
    8.2851   -6.4960    0.0000 C   0  0  0  0  0  0  0  0  0  0  0  0
 13 17  1  0  0  0  0
 14 13  2  0  0  0  0
 15 14  1  0  0  0  0
 16 15  1  0  0  0  0
 17 16  2  0  0  0  0
  1  2  1  0  0  0  0
  2  3  1  0  0  0  0
  3  4  2  0  0  0  0
  4  5  1  0  0  0  0
  5  6  1  0  0  0  0
  6  1  1  0  0  0  0
  4  7  1  0  0  0  0
  7  8  1  0  0  0  0
  8  9  1  0  0  0  0
  9  5  1  0  0  0  0
  7 10  2  0  0  0  0
  3 11  1  0  0  0  0
  5 12  1  6  0  0  0
  9 17  1  6  0  0  0
M  END
>  <cdx:fragmentId>
3806

$$$$
