124049.cdx
  Mrv1902 05222410272D          

 24 26  0  0  0  0            999 V2000
   16.4932  -15.6251    0.0000 C   0  0  2  0  0  0  0  0  0  0  0  0
   16.4932  -14.8001    0.0000 C   0  0  0  0  0  0  0  0  0  0  0  0
   15.7788  -14.3876    0.0000 C   0  0  0  0  0  0  0  0  0  0  0  0
   15.0643  -14.8001    0.0000 C   0  0  0  0  0  0  0  0  0  0  0  0
   14.3498  -14.3876    0.0000 C   0  0  0  0  0  0  0  0  0  0  0  0
   13.6353  -14.8001    0.0000 C   0  0  0  0  0  0  0  0  0  0  0  0
   13.6353  -15.6251    0.0000 C   0  0  0  0  0  0  0  0  0  0  0  0
   14.3498  -16.0376    0.0000 C   0  0  0  0  0  0  0  0  0  0  0  0
   15.0643  -15.6251    0.0000 C   0  0  0  0  0  0  0  0  0  0  0  0
   15.7788  -16.0376    0.0000 O   0  0  0  0  0  0  0  0  0  0  0  0
   15.7788  -13.5626    0.0000 O   0  0  0  0  0  0  0  0  0  0  0  0
   17.2077  -16.0376    0.0000 C   0  0  0  0  0  0  0  0  0  0  0  0
   17.9222  -15.6251    0.0000 C   0  0  0  0  0  0  0  0  0  0  0  0
   18.6366  -16.0376    0.0000 C   0  0  0  0  0  0  0  0  0  0  0  0
   18.6366  -16.8626    0.0000 C   0  0  0  0  0  0  0  0  0  0  0  0
   17.9222  -17.2751    0.0000 C   0  0  0  0  0  0  0  0  0  0  0  0
   17.2077  -16.8626    0.0000 C   0  0  0  0  0  0  0  0  0  0  0  0
   14.3498  -16.8626    0.0000 C   0  0  0  0  0  0  0  0  0  0  0  0
   13.6353  -17.2751    0.0000 C   0  0  0  0  0  0  0  0  0  0  0  0
   13.6353  -18.1001    0.0000 C   0  0  0  0  0  0  0  0  0  0  0  0
   14.3498  -18.5126    0.0000 C   0  0  0  0  0  0  0  0  0  0  0  0
   12.9209  -18.5126    0.0000 C   0  0  0  0  0  0  0  0  0  0  0  0
   12.9209  -16.0376    0.0000 O   0  0  0  0  0  0  0  0  0  0  0  0
   14.3498  -13.5626    0.0000 O   0  0  0  0  0  0  0  0  0  0  0  0
  1  2  1  0  0  0  0
  2  3  1  0  0  0  0
  3  4  1  0  0  0  0
  4  5  1  0  0  0  0
  5  6  2  0  0  0  0
  6  7  1  0  0  0  0
  7  8  2  0  0  0  0
  8  9  1  0  0  0  0
  4  9  2  0  0  0  0
  9 10  1  0  0  0  0
  1 10  1  0  0  0  0
  3 11  2  0  0  0  0
 12 13  1  0  0  0  0
 13 14  2  0  0  0  0
 14 15  1  0  0  0  0
 15 16  2  0  0  0  0
 16 17  1  0  0  0  0
 12 17  2  0  0  0  0
  1 12  1  1  0  0  0
 18 19  1  0  0  0  0
 19 20  2  0  0  0  0
 20 21  1  0  0  0  0
 20 22  1  0  0  0  0
  8 18  1  0  0  0  0
  7 23  1  0  0  0  0
  5 24  1  0  0  0  0
M  END
>  <cdx:fragmentId>
3846

$$$$
