12405.cdx
  Mrv1902 05222410262D          

 22 21  0  0  0  0            999 V2000
    0.5171   -3.2381    0.0000 C   0  0  0  0  0  0  0  0  0  0  0  0
    1.2315   -2.8256    0.0000 C   0  0  0  0  0  0  0  0  0  0  0  0
    1.9460   -3.2381    0.0000 C   0  0  0  0  0  0  0  0  0  0  0  0
    2.6605   -2.8256    0.0000 C   0  0  0  0  0  0  0  0  0  0  0  0
    3.3749   -3.2381    0.0000 C   0  0  0  0  0  0  0  0  0  0  0  0
    4.0894   -2.8256    0.0000 C   0  0  0  0  0  0  0  0  0  0  0  0
    4.8039   -3.2381    0.0000 C   0  0  0  0  0  0  0  0  0  0  0  0
    5.5184   -2.8256    0.0000 C   0  0  0  0  0  0  0  0  0  0  0  0
    6.2328   -3.2381    0.0000 C   0  0  0  0  0  0  0  0  0  0  0  0
    6.9473   -2.8256    0.0000 C   0  0  0  0  0  0  0  0  0  0  0  0
    7.6618   -3.2381    0.0000 C   0  0  0  0  0  0  0  0  0  0  0  0
    8.3762   -2.8256    0.0000 C   0  0  0  0  0  0  0  0  0  0  0  0
    9.0907   -3.2381    0.0000 C   0  0  0  0  0  0  0  0  0  0  0  0
    9.8052   -2.8256    0.0000 C   0  0  0  0  0  0  0  0  0  0  0  0
   10.5196   -3.2381    0.0000 C   0  0  0  0  0  0  0  0  0  0  0  0
   11.2341   -2.8256    0.0000 C   0  0  0  0  0  0  0  0  0  0  0  0
   11.9486   -3.2381    0.0000 C   0  0  0  0  0  0  0  0  0  0  0  0
   12.6631   -2.8256    0.0000 C   0  0  0  0  0  0  0  0  0  0  0  0
   13.3775   -3.2381    0.0000 C   0  0  0  0  0  0  0  0  0  0  0  0
   14.0920   -2.8256    0.0000 C   0  0  0  0  0  0  0  0  0  0  0  0
   14.8065   -3.2381    0.0000 C   0  0  0  0  0  0  0  0  0  0  0  0
   15.5209   -2.8256    0.0000 C   0  0  0  0  0  0  0  0  0  0  0  0
  1  2  1  0  0  0  0
  2  3  1  0  0  0  0
  3  4  1  0  0  0  0
  4  5  1  0  0  0  0
  5  6  1  0  0  0  0
  6  7  1  0  0  0  0
  7  8  1  0  0  0  0
  8  9  1  0  0  0  0
  9 10  1  0  0  0  0
 10 11  1  0  0  0  0
 11 12  1  0  0  0  0
 12 13  1  0  0  0  0
 13 14  1  0  0  0  0
 14 15  1  0  0  0  0
 15 16  1  0  0  0  0
 16 17  1  0  0  0  0
 17 18  1  0  0  0  0
 18 19  1  0  0  0  0
 19 20  1  0  0  0  0
 20 21  1  0  0  0  0
 21 22  1  0  0  0  0
M  END
>  <cdx:groupId>
67

>  <cdx:fragmentId>
5

$$$$
