12404.cdx
  Mrv1902 05222410272D          

 22 21  0  0  0  0            999 V2000
    1.7729   -3.3767    0.0000 C   0  0  0  0  0  0  0  0  0  0  0  0
    2.4874   -3.7892    0.0000 C   0  0  0  0  0  0  0  0  0  0  0  0
    3.2018   -3.3767    0.0000 C   0  0  0  0  0  0  0  0  0  0  0  0
    3.9163   -3.7892    0.0000 C   0  0  0  0  0  0  0  0  0  0  0  0
    4.6308   -3.3767    0.0000 C   0  0  0  0  0  0  0  0  0  0  0  0
    5.3452   -3.7892    0.0000 C   0  0  0  0  0  0  0  0  0  0  0  0
    6.0597   -3.3767    0.0000 C   0  0  0  0  0  0  0  0  0  0  0  0
    6.7742   -3.7892    0.0000 C   0  0  0  0  0  0  0  0  0  0  0  0
    7.4887   -3.3767    0.0000 C   0  0  0  0  0  0  0  0  0  0  0  0
    8.2031   -3.7892    0.0000 C   0  0  0  0  0  0  0  0  0  0  0  0
    8.9176   -3.3767    0.0000 C   0  0  0  0  0  0  0  0  0  0  0  0
    9.6321   -3.7892    0.0000 C   0  0  0  0  0  0  0  0  0  0  0  0
   10.3465   -3.3767    0.0000 C   0  0  0  0  0  0  0  0  0  0  0  0
   11.0610   -3.7892    0.0000 C   0  0  0  0  0  0  0  0  0  0  0  0
   11.7755   -3.3767    0.0000 C   0  0  0  0  0  0  0  0  0  0  0  0
   12.4900   -3.7892    0.0000 C   0  0  0  0  0  0  0  0  0  0  0  0
   13.2044   -3.3767    0.0000 C   0  0  0  0  0  0  0  0  0  0  0  0
   13.9189   -3.7892    0.0000 C   0  0  0  0  0  0  0  0  0  0  0  0
   14.6334   -3.3767    0.0000 C   0  0  0  0  0  0  0  0  0  0  0  0
   15.3478   -3.7892    0.0000 C   0  0  0  0  0  0  0  0  0  0  0  0
   16.0623   -3.3767    0.0000 C   0  0  0  0  0  0  0  0  0  0  0  0
    1.0584   -3.7892    0.0000 O   0  0  0  0  0  0  0  0  0  0  0  0
  1  2  1  0  0  0  0
  2  3  1  0  0  0  0
  3  4  1  0  0  0  0
  4  5  1  0  0  0  0
  5  6  1  0  0  0  0
  6  7  1  0  0  0  0
  7  8  1  0  0  0  0
  8  9  1  0  0  0  0
  9 10  1  0  0  0  0
 10 11  1  0  0  0  0
 11 12  1  0  0  0  0
 12 13  1  0  0  0  0
 13 14  1  0  0  0  0
 14 15  1  0  0  0  0
 15 16  1  0  0  0  0
 16 17  1  0  0  0  0
 17 18  1  0  0  0  0
 18 19  1  0  0  0  0
 19 20  1  0  0  0  0
 20 21  1  0  0  0  0
  1 22  1  0  0  0  0
M  END
>  <cdx:groupId>
67

>  <cdx:fragmentId>
5

$$$$
