124069.cdx
  Mrv1902 05222410182D          

 25 30  0  0  0  0            999 V2000
    4.5735   -7.9269    0.0000 C   0  0  0  0  0  0  0  0  0  0  0  0
    4.5735   -8.7519    0.0000 C   0  0  0  0  0  0  0  0  0  0  0  0
    5.2880   -9.1644    0.0000 C   0  0  0  0  0  0  0  0  0  0  0  0
    6.0024   -8.7519    0.0000 C   0  0  0  0  0  0  0  0  0  0  0  0
    6.0024   -7.9269    0.0000 C   0  0  0  0  0  0  0  0  0  0  0  0
    5.2880   -7.5144    0.0000 C   0  0  0  0  0  0  0  0  0  0  0  0
    6.7169   -9.1644    0.0000 C   0  0  0  0  0  0  0  0  0  0  0  0
    7.4313   -8.7519    0.0000 N   0  0  0  0  0  0  0  0  0  0  0  0
    7.4313   -7.9269    0.0000 C   0  0  0  0  0  0  0  0  0  0  0  0
    6.7169   -7.5144    0.0000 C   0  0  0  0  0  0  0  0  0  0  0  0
    8.1458   -7.5144    0.0000 C   0  0  0  0  0  0  0  0  0  0  0  0
    8.1458   -6.6894    0.0000 C   0  0  0  0  0  0  0  0  0  0  0  0
    7.4313   -6.2769    0.0000 C   0  0  0  0  0  0  0  0  0  0  0  0
    6.7169   -6.6894    0.0000 C   0  0  0  0  0  0  0  0  0  0  0  0
    8.8603   -7.9269    0.0000 C   0  0  0  0  0  0  0  0  0  0  0  0
    9.5748   -7.5144    0.0000 C   0  0  0  0  0  0  0  0  0  0  0  0
    9.5748   -6.6894    0.0000 C   0  0  0  0  0  0  0  0  0  0  0  0
    8.8603   -6.2769    0.0000 C   0  0  0  0  0  0  0  0  0  0  0  0
    3.9604   -9.3040    0.0000 O   0  0  0  0  0  0  0  0  0  0  0  0
    4.2960  -10.0576    0.0000 C   0  0  0  0  0  0  0  0  0  0  0  0
    5.1164   -9.9714    0.0000 O   0  0  0  0  0  0  0  0  0  0  0  0
   10.3594   -7.7693    0.0000 O   0  0  0  0  0  0  0  0  0  0  0  0
   10.8443   -7.1019    0.0000 C   0  0  0  0  0  0  0  0  0  0  0  0
   10.3594   -6.4345    0.0000 O   0  0  0  0  0  0  0  0  0  0  0  0
    8.1458   -9.1644    0.0000 C   0  0  0  0  0  0  0  0  0  0  0  0
  1  2  1  0  0  0  0
  2  3  2  0  0  0  0
  3  4  1  0  0  0  0
  4  5  2  0  0  0  0
  5  6  1  0  0  0  0
  6  1  2  0  0  0  0
  4  7  1  0  0  0  0
  7  8  1  0  0  0  0
  8  9  1  0  0  0  0
  9 10  2  0  0  0  0
 10  5  1  0  0  0  0
  9 11  1  0  0  0  0
 11 12  2  0  0  0  0
 12 13  1  0  0  0  0
 13 14  2  0  0  0  0
 14 10  1  0  0  0  0
 11 15  1  0  0  0  0
 15 16  2  0  0  0  0
 16 17  1  0  0  0  0
 17 18  2  0  0  0  0
 18 12  1  0  0  0  0
  2 19  1  0  0  0  0
 19 20  1  0  0  0  0
 20 21  1  0  0  0  0
 21  3  1  0  0  0  0
 16 22  1  0  0  0  0
 22 23  1  0  0  0  0
 23 24  1  0  0  0  0
 24 17  1  0  0  0  0
  8 25  1  0  0  0  0
M  END
>  <cdx:fragmentId>
4260

$$$$
