12409.cdx
  Mrv1902 05222410192D          

 29 28  0  0  0  0            999 V2000
    1.1445   -9.1025    0.0000 C   0  0  0  0  0  0  0  0  0  0  0  0
    1.8590   -8.6900    0.0000 C   0  0  0  0  0  0  0  0  0  0  0  0
    2.5735   -9.1025    0.0000 C   0  0  0  0  0  0  0  0  0  0  0  0
    3.2879   -8.6900    0.0000 C   0  0  0  0  0  0  0  0  0  0  0  0
    4.0024   -9.1025    0.0000 C   0  0  0  0  0  0  0  0  0  0  0  0
    4.7169   -8.6900    0.0000 C   0  0  0  0  0  0  0  0  0  0  0  0
    5.4314   -9.1025    0.0000 C   0  0  0  0  0  0  0  0  0  0  0  0
    6.1458   -8.6900    0.0000 C   0  0  0  0  0  0  0  0  0  0  0  0
    6.8603   -9.1025    0.0000 C   0  0  0  0  0  0  0  0  0  0  0  0
    7.5748   -8.6900    0.0000 C   0  0  0  0  0  0  0  0  0  0  0  0
    8.2892   -9.1025    0.0000 C   0  0  0  0  0  0  0  0  0  0  0  0
    9.0037   -8.6900    0.0000 C   0  0  0  0  0  0  0  0  0  0  0  0
    9.7182   -9.1025    0.0000 C   0  0  0  0  0  0  0  0  0  0  0  0
   10.4327   -8.6900    0.0000 C   0  0  0  0  0  0  0  0  0  0  0  0
   11.1471   -9.1025    0.0000 C   0  0  0  0  0  0  0  0  0  0  0  0
   11.8616   -8.6900    0.0000 C   0  0  0  0  0  0  0  0  0  0  0  0
   12.5761   -9.1025    0.0000 C   0  0  0  0  0  0  0  0  0  0  0  0
   13.2905   -8.6900    0.0000 C   0  0  0  0  0  0  0  0  0  0  0  0
   14.0050   -9.1025    0.0000 C   0  0  0  0  0  0  0  0  0  0  0  0
   14.7195   -8.6900    0.0000 C   0  0  0  0  0  0  0  0  0  0  0  0
   15.4340   -9.1025    0.0000 C   0  0  0  0  0  0  0  0  0  0  0  0
   16.1484   -8.6900    0.0000 C   0  0  0  0  0  0  0  0  0  0  0  0
   16.8629   -9.1025    0.0000 C   0  0  0  0  0  0  0  0  0  0  0  0
   17.5774   -8.6900    0.0000 C   0  0  0  0  0  0  0  0  0  0  0  0
   18.2918   -9.1025    0.0000 C   0  0  0  0  0  0  0  0  0  0  0  0
   19.0063   -8.6900    0.0000 C   0  0  0  0  0  0  0  0  0  0  0  0
   19.7208   -9.1025    0.0000 C   0  0  0  0  0  0  0  0  0  0  0  0
   20.4352   -8.6900    0.0000 C   0  0  0  0  0  0  0  0  0  0  0  0
   21.1497   -9.1025    0.0000 C   0  0  0  0  0  0  0  0  0  0  0  0
  1  2  1  0  0  0  0
  2  3  1  0  0  0  0
  3  4  1  0  0  0  0
  4  5  1  0  0  0  0
  5  6  1  0  0  0  0
  6  7  1  0  0  0  0
  7  8  1  0  0  0  0
  8  9  1  0  0  0  0
  9 10  1  0  0  0  0
 10 11  1  0  0  0  0
 11 12  1  0  0  0  0
 12 13  1  0  0  0  0
 13 14  1  0  0  0  0
 14 15  1  0  0  0  0
 15 16  1  0  0  0  0
 16 17  1  0  0  0  0
 17 18  1  0  0  0  0
 18 19  1  0  0  0  0
 19 20  1  0  0  0  0
 20 21  1  0  0  0  0
 21 22  1  0  0  0  0
 22 23  1  0  0  0  0
 23 24  1  0  0  0  0
 24 25  1  0  0  0  0
 25 26  1  0  0  0  0
 26 27  1  0  0  0  0
 27 28  1  0  0  0  0
 28 29  1  0  0  0  0
M  END
>  <cdx:groupId>
88

>  <cdx:fragmentId>
5

$$$$
