12406.cdx
  Mrv1902 05222410262D          

 25 24  0  0  0  0            999 V2000
    1.0747   -3.4031    0.0000 C   0  0  0  0  0  0  0  0  0  0  0  0
    1.7892   -2.9906    0.0000 C   0  0  0  0  0  0  0  0  0  0  0  0
    2.5037   -3.4031    0.0000 C   0  0  0  0  0  0  0  0  0  0  0  0
    3.2181   -2.9906    0.0000 C   0  0  0  0  0  0  0  0  0  0  0  0
    3.9326   -3.4031    0.0000 C   0  0  0  0  0  0  0  0  0  0  0  0
    4.6471   -2.9906    0.0000 C   0  0  0  0  0  0  0  0  0  0  0  0
    5.3615   -3.4031    0.0000 C   0  0  0  0  0  0  0  0  0  0  0  0
    6.0760   -2.9906    0.0000 C   0  0  0  0  0  0  0  0  0  0  0  0
    6.7905   -3.4031    0.0000 C   0  0  0  0  0  0  0  0  0  0  0  0
    7.5050   -2.9906    0.0000 C   0  0  0  0  0  0  0  0  0  0  0  0
    8.2194   -3.4031    0.0000 C   0  0  0  0  0  0  0  0  0  0  0  0
    8.9339   -2.9906    0.0000 C   0  0  0  0  0  0  0  0  0  0  0  0
    9.6484   -3.4031    0.0000 C   0  0  0  0  0  0  0  0  0  0  0  0
   10.3628   -2.9906    0.0000 C   0  0  0  0  0  0  0  0  0  0  0  0
   11.0773   -3.4031    0.0000 C   0  0  0  0  0  0  0  0  0  0  0  0
   11.7918   -2.9906    0.0000 C   0  0  0  0  0  0  0  0  0  0  0  0
   12.5063   -3.4031    0.0000 C   0  0  0  0  0  0  0  0  0  0  0  0
   13.2207   -2.9906    0.0000 C   0  0  0  0  0  0  0  0  0  0  0  0
   13.9352   -3.4031    0.0000 C   0  0  0  0  0  0  0  0  0  0  0  0
   14.6497   -2.9906    0.0000 C   0  0  0  0  0  0  0  0  0  0  0  0
   15.3641   -3.4031    0.0000 C   0  0  0  0  0  0  0  0  0  0  0  0
   16.0786   -2.9906    0.0000 C   0  0  0  0  0  0  0  0  0  0  0  0
   16.7931   -3.4031    0.0000 C   0  0  0  0  0  0  0  0  0  0  0  0
   17.5076   -2.9906    0.0000 C   0  0  0  0  0  0  0  0  0  0  0  0
   18.2220   -3.4031    0.0000 C   0  0  0  0  0  0  0  0  0  0  0  0
  1  2  1  0  0  0  0
  2  3  1  0  0  0  0
  3  4  1  0  0  0  0
  4  5  1  0  0  0  0
  5  6  1  0  0  0  0
  6  7  1  0  0  0  0
  7  8  1  0  0  0  0
  8  9  1  0  0  0  0
  9 10  1  0  0  0  0
 10 11  1  0  0  0  0
 11 12  1  0  0  0  0
 12 13  1  0  0  0  0
 13 14  1  0  0  0  0
 14 15  1  0  0  0  0
 15 16  1  0  0  0  0
 16 17  1  0  0  0  0
 17 18  1  0  0  0  0
 18 19  1  0  0  0  0
 19 20  1  0  0  0  0
 20 21  1  0  0  0  0
 21 22  1  0  0  0  0
 22 23  1  0  0  0  0
 23 24  1  0  0  0  0
 24 25  1  0  0  0  0
M  END
>  <cdx:groupId>
76

>  <cdx:fragmentId>
5

$$$$
