12413.cdx
  Mrv1902 05222410262D          

 35 34  0  0  0  0            999 V2000
    0.0186   -4.8675    0.0000 C   0  0  0  0  0  0  0  0  0  0  0  0
    0.7331   -4.4550    0.0000 C   0  0  0  0  0  0  0  0  0  0  0  0
    1.4476   -4.8675    0.0000 C   0  0  0  0  0  0  0  0  0  0  0  0
    2.1620   -4.4550    0.0000 C   0  0  0  0  0  0  0  0  0  0  0  0
    2.8765   -4.8675    0.0000 C   0  0  0  0  0  0  0  0  0  0  0  0
    3.5910   -4.4550    0.0000 C   0  0  0  0  0  0  0  0  0  0  0  0
    4.3054   -4.8675    0.0000 C   0  0  0  0  0  0  0  0  0  0  0  0
    5.0199   -4.4550    0.0000 C   0  0  0  0  0  0  0  0  0  0  0  0
    5.7344   -4.8675    0.0000 C   0  0  0  0  0  0  0  0  0  0  0  0
    6.4489   -4.4550    0.0000 C   0  0  0  0  0  0  0  0  0  0  0  0
    7.1633   -4.8675    0.0000 C   0  0  0  0  0  0  0  0  0  0  0  0
    7.8778   -4.4550    0.0000 C   0  0  0  0  0  0  0  0  0  0  0  0
    8.5923   -4.8675    0.0000 C   0  0  0  0  0  0  0  0  0  0  0  0
    9.3067   -4.4550    0.0000 C   0  0  0  0  0  0  0  0  0  0  0  0
   10.0212   -4.8675    0.0000 C   0  0  0  0  0  0  0  0  0  0  0  0
   10.7357   -4.4550    0.0000 C   0  0  0  0  0  0  0  0  0  0  0  0
   11.4502   -4.8675    0.0000 C   0  0  0  0  0  0  0  0  0  0  0  0
   12.1646   -4.4550    0.0000 C   0  0  0  0  0  0  0  0  0  0  0  0
   12.8791   -4.8675    0.0000 C   0  0  0  0  0  0  0  0  0  0  0  0
   13.5936   -4.4550    0.0000 C   0  0  0  0  0  0  0  0  0  0  0  0
   14.3080   -4.8675    0.0000 C   0  0  0  0  0  0  0  0  0  0  0  0
   15.0225   -4.4550    0.0000 C   0  0  0  0  0  0  0  0  0  0  0  0
   15.7370   -4.8675    0.0000 C   0  0  0  0  0  0  0  0  0  0  0  0
   16.4515   -4.4550    0.0000 C   0  0  0  0  0  0  0  0  0  0  0  0
   17.1659   -4.8675    0.0000 C   0  0  0  0  0  0  0  0  0  0  0  0
   17.8804   -4.4550    0.0000 C   0  0  0  0  0  0  0  0  0  0  0  0
   18.5949   -4.8675    0.0000 C   0  0  0  0  0  0  0  0  0  0  0  0
   19.3093   -4.4550    0.0000 C   0  0  0  0  0  0  0  0  0  0  0  0
   20.0238   -4.8675    0.0000 C   0  0  0  0  0  0  0  0  0  0  0  0
   20.7383   -4.4550    0.0000 C   0  0  0  0  0  0  0  0  0  0  0  0
   21.4527   -4.8675    0.0000 C   0  0  0  0  0  0  0  0  0  0  0  0
   22.1672   -4.4550    0.0000 C   0  0  0  0  0  0  0  0  0  0  0  0
   22.8817   -4.8675    0.0000 C   0  0  0  0  0  0  0  0  0  0  0  0
   23.5962   -4.4550    0.0000 C   0  0  0  0  0  0  0  0  0  0  0  0
   24.3106   -4.8675    0.0000 C   0  0  0  0  0  0  0  0  0  0  0  0
  1  2  1  0  0  0  0
  2  3  1  0  0  0  0
  3  4  1  0  0  0  0
  4  5  1  0  0  0  0
  5  6  1  0  0  0  0
  6  7  1  0  0  0  0
  7  8  1  0  0  0  0
  8  9  1  0  0  0  0
  9 10  1  0  0  0  0
 10 11  1  0  0  0  0
 11 12  1  0  0  0  0
 12 13  1  0  0  0  0
 13 14  1  0  0  0  0
 14 15  1  0  0  0  0
 15 16  1  0  0  0  0
 16 17  1  0  0  0  0
 17 18  1  0  0  0  0
 18 19  1  0  0  0  0
 19 20  1  0  0  0  0
 20 21  1  0  0  0  0
 21 22  1  0  0  0  0
 22 23  1  0  0  0  0
 23 24  1  0  0  0  0
 24 25  1  0  0  0  0
 25 26  1  0  0  0  0
 26 27  1  0  0  0  0
 27 28  1  0  0  0  0
 28 29  1  0  0  0  0
 29 30  1  0  0  0  0
 30 31  1  0  0  0  0
 31 32  1  0  0  0  0
 32 33  1  0  0  0  0
 33 34  1  0  0  0  0
 34 35  1  0  0  0  0
M  END
>  <cdx:groupId>
106

>  <cdx:fragmentId>
5

$$$$
