12410.cdx
  Mrv1902 05222410272D          

 31 30  0  0  0  0            999 V2000
    1.0969   -3.0525    0.0000 C   0  0  0  0  0  0  0  0  0  0  0  0
    1.8114   -2.6400    0.0000 C   0  0  0  0  0  0  0  0  0  0  0  0
    2.5259   -3.0525    0.0000 C   0  0  0  0  0  0  0  0  0  0  0  0
    3.2403   -2.6400    0.0000 C   0  0  0  0  0  0  0  0  0  0  0  0
    3.9548   -3.0525    0.0000 C   0  0  0  0  0  0  0  0  0  0  0  0
    4.6693   -2.6400    0.0000 C   0  0  0  0  0  0  0  0  0  0  0  0
    5.3838   -3.0525    0.0000 C   0  0  0  0  0  0  0  0  0  0  0  0
    6.0982   -2.6400    0.0000 C   0  0  0  0  0  0  0  0  0  0  0  0
    6.8127   -3.0525    0.0000 C   0  0  0  0  0  0  0  0  0  0  0  0
    7.5272   -2.6400    0.0000 C   0  0  0  0  0  0  0  0  0  0  0  0
    8.2416   -3.0525    0.0000 C   0  0  0  0  0  0  0  0  0  0  0  0
    8.9561   -2.6400    0.0000 C   0  0  0  0  0  0  0  0  0  0  0  0
    9.6706   -3.0525    0.0000 C   0  0  0  0  0  0  0  0  0  0  0  0
   10.3851   -2.6400    0.0000 C   0  0  0  0  0  0  0  0  0  0  0  0
   11.0995   -3.0525    0.0000 C   0  0  0  0  0  0  0  0  0  0  0  0
   11.8140   -2.6400    0.0000 C   0  0  0  0  0  0  0  0  0  0  0  0
   12.5285   -3.0525    0.0000 C   0  0  0  0  0  0  0  0  0  0  0  0
   13.2429   -2.6400    0.0000 C   0  0  0  0  0  0  0  0  0  0  0  0
   13.9574   -3.0525    0.0000 C   0  0  0  0  0  0  0  0  0  0  0  0
   14.6719   -2.6400    0.0000 C   0  0  0  0  0  0  0  0  0  0  0  0
   15.3864   -3.0525    0.0000 C   0  0  0  0  0  0  0  0  0  0  0  0
   16.1008   -2.6400    0.0000 C   0  0  0  0  0  0  0  0  0  0  0  0
   16.8153   -3.0525    0.0000 C   0  0  0  0  0  0  0  0  0  0  0  0
   17.5298   -2.6400    0.0000 C   0  0  0  0  0  0  0  0  0  0  0  0
   18.2442   -3.0525    0.0000 C   0  0  0  0  0  0  0  0  0  0  0  0
   18.9587   -2.6400    0.0000 C   0  0  0  0  0  0  0  0  0  0  0  0
   19.6732   -3.0525    0.0000 C   0  0  0  0  0  0  0  0  0  0  0  0
   20.3877   -2.6400    0.0000 C   0  0  0  0  0  0  0  0  0  0  0  0
   21.1021   -3.0525    0.0000 C   0  0  0  0  0  0  0  0  0  0  0  0
   21.8166   -2.6400    0.0000 C   0  0  0  0  0  0  0  0  0  0  0  0
   22.5311   -3.0525    0.0000 C   0  0  0  0  0  0  0  0  0  0  0  0
  1  2  1  0  0  0  0
  2  3  1  0  0  0  0
  3  4  1  0  0  0  0
  4  5  1  0  0  0  0
  5  6  1  0  0  0  0
  6  7  1  0  0  0  0
  7  8  1  0  0  0  0
  8  9  1  0  0  0  0
  9 10  1  0  0  0  0
 10 11  1  0  0  0  0
 11 12  1  0  0  0  0
 12 13  1  0  0  0  0
 13 14  1  0  0  0  0
 14 15  1  0  0  0  0
 15 16  1  0  0  0  0
 16 17  1  0  0  0  0
 17 18  1  0  0  0  0
 18 19  1  0  0  0  0
 19 20  1  0  0  0  0
 20 21  1  0  0  0  0
 21 22  1  0  0  0  0
 22 23  1  0  0  0  0
 23 24  1  0  0  0  0
 24 25  1  0  0  0  0
 25 26  1  0  0  0  0
 26 27  1  0  0  0  0
 27 28  1  0  0  0  0
 28 29  1  0  0  0  0
 29 30  1  0  0  0  0
 30 31  1  0  0  0  0
M  END
>  <cdx:groupId>
94

>  <cdx:fragmentId>
5

$$$$
