12411.cdx
  Mrv1902 05222410262D          

 33 32  0  0  0  0            999 V2000
    3.2631   -9.9756    0.0000 C   0  0  0  0  0  0  0  0  0  0  0  0
    3.9776   -9.5631    0.0000 C   0  0  0  0  0  0  0  0  0  0  0  0
    4.6920   -9.9756    0.0000 C   0  0  0  0  0  0  0  0  0  0  0  0
    5.4065   -9.5631    0.0000 C   0  0  0  0  0  0  0  0  0  0  0  0
    6.1210   -9.9756    0.0000 C   0  0  0  0  0  0  0  0  0  0  0  0
    6.8354   -9.5631    0.0000 C   0  0  0  0  0  0  0  0  0  0  0  0
    7.5499   -9.9756    0.0000 C   0  0  0  0  0  0  0  0  0  0  0  0
    8.2644   -9.5631    0.0000 C   0  0  0  0  0  0  0  0  0  0  0  0
    8.9789   -9.9756    0.0000 C   0  0  0  0  0  0  0  0  0  0  0  0
    9.6933   -9.5631    0.0000 C   0  0  0  0  0  0  0  0  0  0  0  0
   10.4078   -9.9756    0.0000 C   0  0  0  0  0  0  0  0  0  0  0  0
   11.1223   -9.5631    0.0000 C   0  0  0  0  0  0  0  0  0  0  0  0
   11.8367   -9.9756    0.0000 C   0  0  0  0  0  0  0  0  0  0  0  0
   12.5512   -9.5631    0.0000 C   0  0  0  0  0  0  0  0  0  0  0  0
   13.2657   -9.9756    0.0000 C   0  0  0  0  0  0  0  0  0  0  0  0
   13.9802   -9.5631    0.0000 C   0  0  0  0  0  0  0  0  0  0  0  0
   14.6946   -9.9756    0.0000 C   0  0  0  0  0  0  0  0  0  0  0  0
   15.4091   -9.5631    0.0000 C   0  0  0  0  0  0  0  0  0  0  0  0
   16.1236   -9.9756    0.0000 C   0  0  0  0  0  0  0  0  0  0  0  0
   16.8380   -9.5631    0.0000 C   0  0  0  0  0  0  0  0  0  0  0  0
   17.5525   -9.9756    0.0000 C   0  0  0  0  0  0  0  0  0  0  0  0
   18.2670   -9.5631    0.0000 C   0  0  0  0  0  0  0  0  0  0  0  0
   18.9815   -9.9756    0.0000 C   0  0  0  0  0  0  0  0  0  0  0  0
   19.6959   -9.5631    0.0000 C   0  0  0  0  0  0  0  0  0  0  0  0
   20.4104   -9.9756    0.0000 C   0  0  0  0  0  0  0  0  0  0  0  0
   21.1249   -9.5631    0.0000 C   0  0  0  0  0  0  0  0  0  0  0  0
   21.8393   -9.9756    0.0000 C   0  0  0  0  0  0  0  0  0  0  0  0
   22.5538   -9.5631    0.0000 C   0  0  0  0  0  0  0  0  0  0  0  0
   23.2683   -9.9756    0.0000 C   0  0  0  0  0  0  0  0  0  0  0  0
   23.9827   -9.5631    0.0000 C   0  0  0  0  0  0  0  0  0  0  0  0
   24.6972   -9.9756    0.0000 C   0  0  0  0  0  0  0  0  0  0  0  0
   25.4117   -9.5631    0.0000 C   0  0  0  0  0  0  0  0  0  0  0  0
   26.1262   -9.9756    0.0000 C   0  0  0  0  0  0  0  0  0  0  0  0
  1  2  1  0  0  0  0
  2  3  1  0  0  0  0
  3  4  1  0  0  0  0
  4  5  1  0  0  0  0
  5  6  1  0  0  0  0
  6  7  1  0  0  0  0
  7  8  1  0  0  0  0
  8  9  1  0  0  0  0
  9 10  1  0  0  0  0
 10 11  1  0  0  0  0
 11 12  1  0  0  0  0
 12 13  1  0  0  0  0
 13 14  1  0  0  0  0
 14 15  1  0  0  0  0
 15 16  1  0  0  0  0
 16 17  1  0  0  0  0
 17 18  1  0  0  0  0
 18 19  1  0  0  0  0
 19 20  1  0  0  0  0
 20 21  1  0  0  0  0
 21 22  1  0  0  0  0
 22 23  1  0  0  0  0
 23 24  1  0  0  0  0
 24 25  1  0  0  0  0
 25 26  1  0  0  0  0
 26 27  1  0  0  0  0
 27 28  1  0  0  0  0
 28 29  1  0  0  0  0
 29 30  1  0  0  0  0
 30 31  1  0  0  0  0
 31 32  1  0  0  0  0
 32 33  1  0  0  0  0
M  END
>  <cdx:fragmentId>
5

$$$$
