12412.cdx
  Mrv1902 05222410262D          

 36 35  0  0  0  0            999 V2000
    0.3214   -4.0219    0.0000 C   0  0  0  0  0  0  0  0  0  0  0  0
    1.0359   -3.6094    0.0000 C   0  0  0  0  0  0  0  0  0  0  0  0
    1.7503   -4.0219    0.0000 C   0  0  0  0  0  0  0  0  0  0  0  0
    2.4648   -3.6094    0.0000 C   0  0  0  0  0  0  0  0  0  0  0  0
    3.1793   -4.0219    0.0000 C   0  0  0  0  0  0  0  0  0  0  0  0
    3.8937   -3.6094    0.0000 C   0  0  0  0  0  0  0  0  0  0  0  0
    4.6082   -4.0219    0.0000 C   0  0  0  0  0  0  0  0  0  0  0  0
    5.3227   -3.6094    0.0000 C   0  0  0  0  0  0  0  0  0  0  0  0
    6.0372   -4.0219    0.0000 C   0  0  0  0  0  0  0  0  0  0  0  0
    6.7516   -3.6094    0.0000 C   0  0  0  0  0  0  0  0  0  0  0  0
    7.4661   -4.0219    0.0000 C   0  0  0  0  0  0  0  0  0  0  0  0
    8.1806   -3.6094    0.0000 C   0  0  0  0  0  0  0  0  0  0  0  0
    8.8950   -4.0219    0.0000 C   0  0  0  0  0  0  0  0  0  0  0  0
    9.6095   -3.6094    0.0000 C   0  0  0  0  0  0  0  0  0  0  0  0
   10.3240   -4.0219    0.0000 C   0  0  0  0  0  0  0  0  0  0  0  0
   11.0384   -3.6094    0.0000 C   0  0  0  0  0  0  0  0  0  0  0  0
   11.7529   -4.0219    0.0000 C   0  0  0  0  0  0  0  0  0  0  0  0
   12.4674   -3.6094    0.0000 C   0  0  0  0  0  0  0  0  0  0  0  0
   13.1819   -4.0219    0.0000 C   0  0  0  0  0  0  0  0  0  0  0  0
   13.8963   -3.6094    0.0000 C   0  0  0  0  0  0  0  0  0  0  0  0
   14.6108   -4.0219    0.0000 C   0  0  0  0  0  0  0  0  0  0  0  0
   15.3253   -3.6094    0.0000 C   0  0  0  0  0  0  0  0  0  0  0  0
   16.0397   -4.0219    0.0000 C   0  0  0  0  0  0  0  0  0  0  0  0
   16.7542   -3.6094    0.0000 C   0  0  0  0  0  0  0  0  0  0  0  0
   17.4687   -4.0219    0.0000 C   0  0  0  0  0  0  0  0  0  0  0  0
   18.1832   -3.6094    0.0000 C   0  0  0  0  0  0  0  0  0  0  0  0
   18.8976   -4.0219    0.0000 C   0  0  0  0  0  0  0  0  0  0  0  0
   19.6121   -3.6094    0.0000 C   0  0  0  0  0  0  0  0  0  0  0  0
   20.3266   -4.0219    0.0000 C   0  0  0  0  0  0  0  0  0  0  0  0
   21.0410   -3.6094    0.0000 C   0  0  0  0  0  0  0  0  0  0  0  0
   21.7555   -4.0219    0.0000 C   0  0  0  0  0  0  0  0  0  0  0  0
   22.4700   -3.6094    0.0000 C   0  0  0  0  0  0  0  0  0  0  0  0
   23.1845   -4.0219    0.0000 C   0  0  0  0  0  0  0  0  0  0  0  0
   23.8989   -3.6094    0.0000 C   0  0  0  0  0  0  0  0  0  0  0  0
   24.6134   -4.0219    0.0000 C   0  0  0  0  0  0  0  0  0  0  0  0
   25.3279   -3.6094    0.0000 C   0  0  0  0  0  0  0  0  0  0  0  0
  1  2  1  0  0  0  0
  2  3  1  0  0  0  0
  3  4  1  0  0  0  0
  4  5  1  0  0  0  0
  5  6  1  0  0  0  0
  6  7  1  0  0  0  0
  7  8  1  0  0  0  0
  8  9  1  0  0  0  0
  9 10  1  0  0  0  0
 10 11  1  0  0  0  0
 11 12  1  0  0  0  0
 12 13  1  0  0  0  0
 13 14  1  0  0  0  0
 14 15  1  0  0  0  0
 15 16  1  0  0  0  0
 16 17  1  0  0  0  0
 17 18  1  0  0  0  0
 18 19  1  0  0  0  0
 19 20  1  0  0  0  0
 20 21  1  0  0  0  0
 21 22  1  0  0  0  0
 22 23  1  0  0  0  0
 23 24  1  0  0  0  0
 24 25  1  0  0  0  0
 25 26  1  0  0  0  0
 26 27  1  0  0  0  0
 27 28  1  0  0  0  0
 28 29  1  0  0  0  0
 29 30  1  0  0  0  0
 30 31  1  0  0  0  0
 31 32  1  0  0  0  0
 32 33  1  0  0  0  0
 33 34  1  0  0  0  0
 34 35  1  0  0  0  0
 35 36  1  0  0  0  0
M  END
>  <cdx:groupId>
109

>  <cdx:fragmentId>
5

$$$$
