124210.cdx
  Mrv1902 05222410242D          

 46 53  0  0  0  0            999 V2000
    6.3293   -7.1886    0.0000 C   0  0  0  0  0  0  0  0  0  0  0  0
    6.0601   -6.4088    0.0000 C   0  0  0  0  0  0  0  0  0  0  0  0
    5.2501   -6.2521    0.0000 C   0  0  0  0  0  0  0  0  0  0  0  0
    4.9809   -5.4722    0.0000 C   0  0  0  0  0  0  0  0  0  0  0  0
    5.5216   -4.8491    0.0000 C   0  0  0  0  0  0  0  0  0  0  0  0
    6.3316   -5.0059    0.0000 C   0  0  0  0  0  0  0  0  0  0  0  0
    6.6008   -5.7857    0.0000 C   0  0  0  0  0  0  0  0  0  0  0  0
    5.7657   -7.7911    0.0000 O   0  0  0  0  0  0  0  0  0  0  0  0
    7.1329   -7.3756    0.0000 O   0  0  0  0  0  0  0  0  0  0  0  0
    7.0490   -9.5567    0.0000 C   0  0  2  0  0  0  0  0  0  0  0  0
    6.4018  -10.0684    0.0000 C   0  0  2  0  0  0  0  0  0  0  0  0
    5.6183   -9.8102    0.0000 C   0  0  0  0  0  0  0  0  0  0  0  0
    5.1306  -10.4756    0.0000 C   0  0  0  0  0  0  0  0  0  0  0  0
    5.6127  -11.1450    0.0000 C   0  0  0  0  0  0  0  0  0  0  0  0
    6.3984  -10.8934    0.0000 C   0  0  1  0  0  0  0  0  0  0  0  0
    7.0413  -11.4104    0.0000 C   0  0  1  0  0  0  0  0  0  0  0  0
    7.8463  -11.2302    0.0000 C   0  0  1  0  0  0  0  0  0  0  0  0
    8.6693  -11.1720    0.0000 O   0  0  0  0  0  0  0  0  0  0  0  0
    8.2074  -10.4884    0.0000 C   0  0  1  0  0  0  0  0  0  0  0  0
    7.8525   -9.7436    0.0000 C   0  0  1  0  0  0  0  0  0  0  0  0
    8.4162   -9.1412    0.0000 C   0  0  1  0  0  0  0  0  0  0  0  0
    9.2410   -9.1570    0.0000 O   0  0  0  0  0  0  0  0  0  0  0  0
    9.5109   -8.3774    0.0000 C   0  0  1  0  0  0  0  0  0  0  0  0
    8.8529   -7.8798    0.0000 O   0  0  0  0  0  0  0  0  0  0  0  0
    8.1763   -8.3518    0.0000 C   0  0  1  0  0  0  0  0  0  0  0  0
    7.3727   -8.1649    0.0000 C   0  0  1  0  0  0  0  0  0  0  0  0
    6.8091   -8.7673    0.0000 C   0  0  1  0  0  0  0  0  0  0  0  0
    7.6450   -8.8825    0.0000 O   0  0  0  0  0  0  0  0  0  0  0  0
   10.2271   -7.9678    0.0000 C   0  0  0  0  0  0  0  0  0  0  0  0
   10.2305   -7.1428    0.0000 C   0  0  0  0  0  0  0  0  0  0  0  0
   10.9467   -6.7333    0.0000 C   0  0  0  0  0  0  0  0  0  0  0  0
   11.6595   -7.1488    0.0000 C   0  0  0  0  0  0  0  0  0  0  0  0
   11.6560   -7.9738    0.0000 C   0  0  0  0  0  0  0  0  0  0  0  0
   10.9399   -8.3833    0.0000 C   0  0  0  0  0  0  0  0  0  0  0  0
    5.3545  -11.9286    0.0000 O   0  0  0  0  0  0  0  0  0  0  0  0
    6.0055   -8.5804    0.0000 C   0  0  0  0  0  0  0  0  0  0  0  0
    4.3056  -10.4722    0.0000 C   0  0  0  0  0  0  0  0  0  0  0  0
    7.9659  -12.0465    0.0000 C   0  0  0  0  0  0  0  0  0  0  0  0
    8.7326  -12.3511    0.0000 O   0  0  0  0  0  0  0  0  0  0  0  0
    6.8543  -12.2140    0.0000 O   0  0  0  0  0  0  0  0  0  0  0  0
    6.2477  -11.7045    0.0000 O   0  0  0  0  0  0  0  0  0  0  0  0
    6.2579   -9.2560    0.0000 H   0  0  0  0  0  0  0  0  0  0  0  0
    8.6739   -9.8211    0.0000 H   0  0  0  0  0  0  0  0  0  0  0  0
    8.1763   -7.5268    0.0000 C   0  0  0  0  0  0  0  0  0  0  0  0
    7.4618   -7.1143    0.0000 C   0  0  0  0  0  0  0  0  0  0  0  0
    8.8908   -7.1143    0.0000 C   0  0  0  0  0  0  0  0  0  0  0  0
  1  2  1  0  0  0  0
  2  3  1  0  0  0  0
  3  4  2  0  0  0  0
  4  5  1  0  0  0  0
  5  6  2  0  0  0  0
  6  7  1  0  0  0  0
  2  7  2  0  0  0  0
  1  8  2  0  0  0  0
  1  9  1  0  0  0  0
 10 11  1  0  0  0  0
 11 12  1  0  0  0  0
 12 13  2  0  0  0  0
 13 14  1  0  0  0  0
 14 15  1  0  0  0  0
 15 16  1  0  0  0  0
 16 17  1  0  0  0  0
 17 18  1  6  0  0  0
 19 18  1  6  0  0  0
 19 20  1  0  0  0  0
 20 21  1  0  0  0  0
 21 22  1  6  0  0  0
 23 22  1  0  0  0  0
 23 24  1  0  0  0  0
 25 24  1  6  0  0  0
 25 26  1  0  0  0  0
 26 27  1  0  0  0  0
 10 27  1  0  0  0  0
 10 28  1  6  0  0  0
 28 23  1  0  0  0  0
 21 25  1  0  0  0  0
 10 20  1  0  0  0  0
 17 19  1  0  0  0  0
 11 15  1  0  0  0  0
 29 30  1  0  0  0  0
 30 31  2  0  0  0  0
 31 32  1  0  0  0  0
 32 33  2  0  0  0  0
 33 34  1  0  0  0  0
 29 34  2  0  0  0  0
 23 29  1  1  0  0  0
 14 35  2  0  0  0  0
 27 36  1  6  0  0  0
 13 37  1  0  0  0  0
 38 39  1  0  0  0  0
 17 38  1  0  0  0  0
 16 40  1  1  0  0  0
 15 41  1  1  0  0  0
 26  9  1  1  0  0  0
 11 42  1  6  0  0  0
 20 43  1  1  0  0  0
 25 44  1  0  0  0  0
 44 45  1  0  0  0  0
 44 46  2  0  0  0  0
M  END
>  <cdx:fragmentId>
39755

$$$$
