124268.cdx
  Mrv1902 05222410182D          

 23 26  0  0  0  0            999 V2000
    9.5653   -6.8235    0.0000 O   0  0  0  0  0  0  0  0  0  0  0  0
   10.0502   -6.1560    0.0000 C   0  0  0  0  0  0  0  0  0  0  0  0
    9.5653   -5.4886    0.0000 C   0  0  0  0  0  0  0  0  0  0  0  0
    8.7806   -5.7435    0.0000 C   0  0  0  0  0  0  0  0  0  0  0  0
    8.0662   -5.3310    0.0000 C   0  0  0  0  0  0  0  0  0  0  0  0
    7.3517   -5.7435    0.0000 C   0  0  0  0  0  0  0  0  0  0  0  0
    7.3517   -6.5685    0.0000 C   0  0  0  0  0  0  0  0  0  0  0  0
    8.0662   -6.9810    0.0000 C   0  0  0  0  0  0  0  0  0  0  0  0
    8.7806   -6.5685    0.0000 C   0  0  0  0  0  0  0  0  0  0  0  0
    8.0662   -7.8060    0.0000 C   0  0  0  0  0  0  0  0  0  0  0  0
    7.3517   -8.2185    0.0000 C   0  0  0  0  0  0  0  0  0  0  0  0
    6.6372   -7.8060    0.0000 C   0  0  0  0  0  0  0  0  0  0  0  0
    5.9227   -8.2185    0.0000 C   0  0  0  0  0  0  0  0  0  0  0  0
    5.2083   -7.8060    0.0000 C   0  0  0  0  0  0  0  0  0  0  0  0
    5.2083   -6.9810    0.0000 C   0  0  0  0  0  0  0  0  0  0  0  0
    5.9227   -6.5685    0.0000 C   0  0  0  0  0  0  0  0  0  0  0  0
    6.6372   -6.9810    0.0000 C   0  0  0  0  0  0  0  0  0  0  0  0
    6.3352   -8.9330    0.0000 C   0  0  0  0  0  0  0  0  0  0  0  0
    8.0662   -4.5060    0.0000 O   0  0  0  0  0  0  0  0  0  0  0  0
    6.6372   -5.3310    0.0000 O   0  0  0  0  0  0  0  0  0  0  0  0
    5.5102   -8.9330    0.0000 C   0  0  0  0  0  0  0  0  0  0  0  0
    9.8202   -4.7040    0.0000 C   0  0  0  0  0  0  0  0  0  0  0  0
    5.9227   -9.6475    0.0000 O   0  0  0  0  0  0  0  0  0  0  0  0
  1  2  1  0  0  0  0
  2  3  1  0  0  0  0
  3  4  1  0  0  0  0
  4  5  1  0  0  0  0
  5  6  1  0  0  0  0
  6  7  1  0  0  0  0
  7  8  1  0  0  0  0
  8  9  1  0  0  0  0
  4  9  2  0  0  0  0
  1  9  1  0  0  0  0
 10 11  1  0  0  0  0
 11 12  2  0  0  0  0
 12 13  1  0  0  0  0
 13 14  1  0  0  0  0
 14 15  1  0  0  0  0
 15 16  1  0  0  0  0
 16 17  1  0  0  0  0
 12 17  1  0  0  0  0
 17  7  2  0  0  0  0
 10  8  2  0  0  0  0
 13 18  1  0  0  0  0
  5 19  2  0  0  0  0
  6 20  2  0  0  0  0
 13 21  1  0  0  0  0
  3 22  1  0  0  0  0
 21 23  2  0  0  0  0
M  END
>  <cdx:fragmentId>
4717

$$$$
