12428.cdx
  Mrv1902 05222410272D          

 42 46  0  0  0  0            999 V2000
    7.6949  -12.1830    0.0000 C   0  0  1  0  0  0  0  0  0  0  0  0
    8.4104  -12.5938    0.0000 C   0  0  1  0  0  0  0  0  0  0  0  0
    9.1239  -12.1796    0.0000 C   0  0  2  0  0  0  0  0  0  0  0  0
    9.1219  -11.3546    0.0000 C   0  0  2  0  0  0  0  0  0  0  0  0
    8.4064  -10.9438    0.0000 C   0  0  1  0  0  0  0  0  0  0  0  0
    7.6929  -11.3580    0.0000 O   0  0  0  0  0  0  0  0  0  0  0  0
    8.4281   -8.4797    0.0000 O   0  0  0  0  0  0  0  0  0  0  0  0
    7.7082   -8.8826    0.0000 C   0  0  2  0  0  0  0  0  0  0  0  0
    7.6972   -9.7076    0.0000 C   0  0  1  0  0  0  0  0  0  0  0  0
    8.4061  -10.1295    0.0000 O   0  0  0  0  0  0  0  0  0  0  0  0
    6.9993   -8.4606    0.0000 C   0  0  1  0  0  0  0  0  0  0  0  0
    6.2794   -8.8636    0.0000 O   0  0  0  0  0  0  0  0  0  0  0  0
    6.2683   -9.6885    0.0000 C   0  0  1  0  0  0  0  0  0  0  0  0
    6.9772  -10.1105    0.0000 C   0  0  1  0  0  0  0  0  0  0  0  0
    7.0103   -7.6357    0.0000 O   0  0  0  0  0  0  0  0  0  0  0  0
    6.3014   -7.2137    0.0000 C   0  0  0  0  0  0  0  0  0  0  0  0
    5.5815   -7.6166    0.0000 C   0  0  0  0  0  0  0  0  0  0  0  0
    5.5705   -8.4416    0.0000 O   0  0  0  0  0  0  0  0  0  0  0  0
    6.3124   -6.3888    0.0000 C   0  0  0  0  0  0  0  0  0  0  0  0
    5.6035   -5.9668    0.0000 O   0  0  0  0  0  0  0  0  0  0  0  0
    4.8836   -6.3697    0.0000 C   0  0  0  0  0  0  0  0  0  0  0  0
    4.8726   -7.1946    0.0000 C   0  0  0  0  0  0  0  0  0  0  0  0
    4.1747   -5.9477    0.0000 C   0  0  0  0  0  0  0  0  0  0  0  0
    3.4548   -6.3506    0.0000 C   0  0  0  0  0  0  0  0  0  0  0  0
    3.4438   -7.1756    0.0000 C   0  0  0  0  0  0  0  0  0  0  0  0
    4.1527   -7.5976    0.0000 C   0  0  0  0  0  0  0  0  0  0  0  0
    7.0323   -5.9858    0.0000 C   0  0  0  0  0  0  0  0  0  0  0  0
    7.0433   -5.1609    0.0000 C   0  0  0  0  0  0  0  0  0  0  0  0
    7.7412   -6.4078    0.0000 C   0  0  0  0  0  0  0  0  0  0  0  0
    8.4611   -6.0049    0.0000 C   0  0  0  0  0  0  0  0  0  0  0  0
    8.4721   -5.1800    0.0000 C   0  0  0  0  0  0  0  0  0  0  0  0
    7.7632   -4.7580    0.0000 C   0  0  0  0  0  0  0  0  0  0  0  0
    4.1416   -8.4225    0.0000 O   0  0  0  0  0  0  0  0  0  0  0  0
    2.7459   -5.9286    0.0000 O   0  0  0  0  0  0  0  0  0  0  0  0
    9.1920   -4.7771    0.0000 O   0  0  0  0  0  0  0  0  0  0  0  0
    6.9815  -12.5972    0.0000 C   0  0  0  0  0  0  0  0  0  0  0  0
    6.9662  -10.9354    0.0000 O   0  0  0  0  0  0  0  0  0  0  0  0
    9.8393  -12.5903    0.0000 O   0  0  0  0  0  0  0  0  0  0  0  0
    8.4124  -13.4188    0.0000 O   0  0  0  0  0  0  0  0  0  0  0  0
    9.8354  -10.9404    0.0000 O   0  0  0  0  0  0  0  0  0  0  0  0
    5.5484  -10.0914    0.0000 C   0  0  0  0  0  0  0  0  0  0  0  0
    5.5374  -10.9163    0.0000 O   0  0  0  0  0  0  0  0  0  0  0  0
  1  2  1  0  0  0  0
  2  3  1  0  0  0  0
  3  4  1  0  0  0  0
  4  5  1  0  0  0  0
  5  6  1  0  0  0  0
  6  1  1  0  0  0  0
  8  7  1  6  0  0  0
  8  9  1  0  0  0  0
  9 10  1  1  0  0  0
  8 11  1  0  0  0  0
 11 12  1  0  0  0  0
 12 13  1  0  0  0  0
 13 14  1  0  0  0  0
 14  9  1  0  0  0  0
 11 15  1  1  0  0  0
 15 16  1  0  0  0  0
 16 17  1  0  0  0  0
 17 18  2  0  0  0  0
 16 19  2  0  0  0  0
 19 20  1  0  0  0  0
 20 21  1  0  0  0  0
 21 22  1  0  0  0  0
 22 17  1  0  0  0  0
 21 23  2  0  0  0  0
 23 24  1  0  0  0  0
 24 25  2  0  0  0  0
 25 26  1  0  0  0  0
 26 22  2  0  0  0  0
 19 27  1  0  0  0  0
 27 28  2  0  0  0  0
 27 29  1  0  0  0  0
 29 30  2  0  0  0  0
 30 31  1  0  0  0  0
 31 32  2  0  0  0  0
 32 28  1  0  0  0  0
 26 33  1  0  0  0  0
 24 34  1  0  0  0  0
 31 35  1  0  0  0  0
  1 36  1  6  0  0  0
 14 37  1  6  0  0  0
  3 38  1  6  0  0  0
  2 39  1  1  0  0  0
  4 40  1  6  0  0  0
 13 41  1  1  0  0  0
 41 42  1  0  0  0  0
  5 10  1  1  0  0  0
M  END
>  <cdx:fragmentId>
181

$$$$
