124247.cdx
  Mrv1902 05222410202D          

 35 38  0  0  0  0            999 V2000
    7.3606  -10.1924    0.0000 C   0  0  1  0  0  0  0  0  0  0  0  0
    7.8455  -10.8599    0.0000 C   0  0  0  0  0  0  0  0  0  0  0  0
    7.3606  -11.5273    0.0000 C   0  0  0  0  0  0  0  0  0  0  0  0
    6.5760  -11.2723    0.0000 C   0  0  1  0  0  0  0  0  0  0  0  0
    6.5760  -12.0973    0.0000 C   0  0  0  0  0  0  0  0  0  0  0  0
    5.8615  -11.6848    0.0000 C   0  0  0  0  0  0  0  0  0  0  0  0
    5.8615  -12.5098    0.0000 C   0  0  0  0  0  0  0  0  0  0  0  0
    5.1470  -12.9224    0.0000 C   0  0  0  0  0  0  0  0  0  0  0  0
    4.4325  -12.5098    0.0000 C   0  0  1  0  0  0  0  0  0  0  0  0
    3.7181  -12.9224    0.0000 C   0  0  0  0  0  0  0  0  0  0  0  0
    4.1306  -13.6368    0.0000 C   0  0  0  0  0  0  0  0  0  0  0  0
    3.3056  -13.6368    0.0000 C   0  0  0  0  0  0  0  0  0  0  0  0
    3.0036  -12.5098    0.0000 C   0  0  1  0  0  0  0  0  0  0  0  0
    2.2891  -12.9224    0.0000 O   0  0  0  0  0  0  0  0  0  0  0  0
    3.0036  -11.6848    0.0000 C   0  0  0  0  0  0  0  0  0  0  0  0
    3.7181  -11.2723    0.0000 C   0  0  0  0  0  0  0  0  0  0  0  0
    4.4325  -11.6848    0.0000 C   0  0  1  0  0  0  0  0  0  0  0  0
    4.4325  -10.8599    0.0000 C   0  0  0  0  0  0  0  0  0  0  0  0
    5.1470  -11.2723    0.0000 C   0  0  0  0  0  0  0  0  0  0  0  0
    5.1470  -10.4473    0.0000 C   0  0  0  0  0  0  0  0  0  0  0  0
    5.8615  -10.0348    0.0000 C   0  0  0  0  0  0  0  0  0  0  0  0
    6.5760  -10.4473    0.0000 C   0  0  2  0  0  0  0  0  0  0  0  0
    6.5760   -9.6223    0.0000 C   0  0  0  0  0  0  0  0  0  0  0  0
    7.6155   -9.4077    0.0000 C   0  0  2  0  0  0  0  0  0  0  0  0
    7.0635   -8.7946    0.0000 C   0  0  0  0  0  0  0  0  0  0  0  0
    8.4225   -9.2362    0.0000 C   0  0  0  0  0  0  0  0  0  0  0  0
    8.6774   -8.4516    0.0000 C   0  0  0  0  0  0  0  0  0  0  0  0
    9.4844   -8.2801    0.0000 C   0  0  0  0  0  0  0  0  0  0  0  0
    9.7393   -7.4954    0.0000 C   0  0  0  0  0  0  0  0  0  0  0  0
    9.1873   -6.8823    0.0000 C   0  0  0  0  0  0  0  0  0  0  0  0
   10.5463   -7.3239    0.0000 C   0  0  0  0  0  0  0  0  0  0  0  0
    9.4422   -6.0977    0.0000 O   0  0  0  0  0  0  0  0  0  0  0  0
   10.8012   -6.5393    0.0000 O   0  0  0  0  0  0  0  0  0  0  0  0
    8.1575   -9.9788    0.0000 H   0  0  0  0  0  0  0  0  0  0  0  0
    4.4325  -13.3348    0.0000 H   0  0  0  0  0  0  0  0  0  0  0  0
  1  2  1  0  0  0  0
  2  3  1  0  0  0  0
  3  4  1  0  0  0  0
  4  5  1  6  0  0  0
  4  6  1  0  0  0  0
  6  7  2  0  0  0  0
  7  8  1  0  0  0  0
  8  9  1  0  0  0  0
  9 10  1  0  0  0  0
 10 11  1  0  0  0  0
 10 12  1  0  0  0  0
 10 13  1  0  0  0  0
 13 14  1  1  0  0  0
 13 15  1  0  0  0  0
 15 16  1  0  0  0  0
 16 17  1  0  0  0  0
  9 17  1  0  0  0  0
 17 18  1  1  0  0  0
 17 19  1  0  0  0  0
  6 19  1  0  0  0  0
 19 20  2  0  0  0  0
 20 21  1  0  0  0  0
 21 22  1  0  0  0  0
  1 22  1  0  0  0  0
  4 22  1  0  0  0  0
 22 23  1  1  0  0  0
  1 24  1  0  0  0  0
 24 25  1  6  0  0  0
 24 26  1  0  0  0  0
 26 27  1  0  0  0  0
 27 28  1  0  0  0  0
 28 29  2  0  0  0  0
 29 30  1  0  0  0  0
 29 31  1  0  0  0  0
 30 32  1  0  0  0  0
 31 33  1  0  0  0  0
  1 34  1  6  0  0  0
  9 35  1  6  0  0  0
M  END
>  <cdx:fragmentId>
1194

$$$$
