124219.cdx
  Mrv1902 05222410222D          

 21 23  0  0  0  0            999 V2000
    9.9387   -9.3060    0.0000 C   0  0  0  0  0  0  0  0  0  0  0  0
    8.5075  -10.1272    0.0000 O   0  0  0  0  0  0  0  0  0  0  0  0
    9.2253   -8.8916    0.0000 O   0  0  0  0  0  0  0  0  0  0  0  0
    8.5098   -9.3022    0.0000 C   0  0  0  0  0  0  0  0  0  0  0  0
    7.0786  -10.1233    0.0000 O   0  0  0  0  0  0  0  0  0  0  0  0
    8.2175   -5.6994    0.0000 C   0  0  0  0  0  0  0  0  0  0  0  0
    7.3925   -5.6971    0.0000 C   0  0  0  0  0  0  0  0  0  0  0  0
    8.5142   -7.6522    0.0000 C   0  0  0  0  0  0  0  0  0  0  0  0
    8.5165   -6.8272    0.0000 C   0  0  0  0  0  0  0  0  0  0  0  0
    7.8031   -6.4127    0.0000 C   0  0  0  0  0  0  0  0  0  0  0  0
    7.0875   -6.8233    0.0000 O   0  0  0  0  0  0  0  0  0  0  0  0
    5.6564   -7.6444    0.0000 C   0  0  0  0  0  0  0  0  0  0  0  0
    4.9408   -8.0550    0.0000 C   0  0  0  0  0  0  0  0  0  0  0  0
    4.9385   -8.8800    0.0000 C   0  0  0  0  0  0  0  0  0  0  0  0
    5.6519   -9.2944    0.0000 C   0  0  0  0  0  0  0  0  0  0  0  0
    7.0808   -9.2983    0.0000 C   0  0  0  0  0  0  0  0  0  0  0  0
    7.7964   -8.8877    0.0000 C   0  0  0  0  0  0  0  0  0  0  0  0
    7.7986   -8.0627    0.0000 C   0  0  0  0  0  0  0  0  0  0  0  0
    7.0853   -7.6483    0.0000 C   0  0  0  0  0  0  0  0  0  0  0  0
    6.3697   -8.0589    0.0000 C   0  0  0  0  0  0  0  0  0  0  0  0
    6.3675   -8.8839    0.0000 C   0  0  0  0  0  0  0  0  0  0  0  0
  3  1  1  0  0  0  0
  4  2  2  0  0  0  0
  4  3  1  0  0  0  0
 17  4  1  0  0  0  0
 16  5  1  0  0  0  0
 10  6  1  0  0  0  0
 10  7  1  0  0  0  0
  8 18  1  0  0  0  0
  9  8  2  0  0  0  0
 10  9  1  0  0  0  0
 11 10  1  0  0  0  0
 19 11  1  0  0  0  0
 12 20  1  0  0  0  0
 13 12  2  0  0  0  0
 14 13  1  0  0  0  0
 15 14  2  0  0  0  0
 21 15  1  0  0  0  0
 16 21  1  0  0  0  0
 17 16  2  0  0  0  0
 18 17  1  0  0  0  0
 19 18  2  0  0  0  0
 20 19  1  0  0  0  0
 21 20  2  0  0  0  0
M  END
>  <cdx:fragmentId>
4505

$$$$
