12435.cdx
  Mrv1902 05222410192D          

  7  6  0  0  0  0            999 V2000
    3.6952   -4.0846    0.0000 N   0  0  0  0  0  0  0  0  0  0  0  0
    4.4096   -3.6721    0.0000 C   0  0  0  0  0  0  0  0  0  0  0  0
    4.4096   -2.8471    0.0000 O   0  0  0  0  0  0  0  0  0  0  0  0
    5.1241   -4.0846    0.0000 N   0  0  0  0  0  0  0  0  0  0  0  0
    3.6952   -4.9096    0.0000 C   0  0  0  0  0  0  0  0  0  0  0  0
    2.9807   -3.6721    0.0000 C   0  0  0  0  0  0  0  0  0  0  0  0
    5.8386   -3.6721    0.0000 C   0  0  0  0  0  0  0  0  0  0  0  0
  1  2  1  0  0  0  0
  2  3  2  0  0  0  0
  2  4  1  0  0  0  0
  1  5  1  0  0  0  0
  1  6  1  0  0  0  0
  4  7  1  0  0  0  0
M  END
>  <cdx:groupId>
22

>  <cdx:fragmentId>
5

$$$$
