124375.cdx
  Mrv1902 05222410242D          

 23 24  0  0  0  0            999 V2000
    7.9984   -8.6212    0.0000 C   0  0  0  0  0  0  0  0  0  0  0  0
    8.7129   -8.2087    0.0000 C   0  0  0  0  0  0  0  0  0  0  0  0
    8.7129   -7.3837    0.0000 C   0  0  0  0  0  0  0  0  0  0  0  0
    9.4274   -6.9712    0.0000 C   0  0  0  0  0  0  0  0  0  0  0  0
   10.1418   -7.3837    0.0000 C   0  0  0  0  0  0  0  0  0  0  0  0
   10.1418   -8.2087    0.0000 C   0  0  0  0  0  0  0  0  0  0  0  0
    9.4274   -8.6212    0.0000 C   0  0  0  0  0  0  0  0  0  0  0  0
    7.9984   -9.4462    0.0000 O   0  0  0  0  0  0  0  0  0  0  0  0
    7.2840   -8.2087    0.0000 O   0  0  0  0  0  0  0  0  0  0  0  0
   10.8563   -8.6212    0.0000 O   0  0  0  0  0  0  0  0  0  0  0  0
   10.8563   -6.9712    0.0000 O   0  0  0  0  0  0  0  0  0  0  0  0
    9.4274   -6.1462    0.0000 O   0  0  0  0  0  0  0  0  0  0  0  0
    5.8550   -8.2087    0.0000 O   0  0  0  0  0  0  0  0  0  0  0  0
    6.5695   -8.6212    0.0000 C   0  0  2  0  0  0  0  0  0  0  0  0
    6.5695   -9.4462    0.0000 C   0  0  1  0  0  0  0  0  0  0  0  0
    5.8550   -9.8587    0.0000 C   0  0  2  0  0  0  0  0  0  0  0  0
    5.1406   -9.4462    0.0000 C   0  0  1  0  0  0  0  0  0  0  0  0
    5.1406   -8.6212    0.0000 C   0  0  1  0  0  0  0  0  0  0  0  0
    4.4261   -8.2087    0.0000 C   0  0  0  0  0  0  0  0  0  0  0  0
    3.7116   -8.6212    0.0000 O   0  0  0  0  0  0  0  0  0  0  0  0
    4.4261   -9.8587    0.0000 O   0  0  0  0  0  0  0  0  0  0  0  0
    5.8550  -10.6837    0.0000 O   0  0  0  0  0  0  0  0  0  0  0  0
    7.2840   -9.8587    0.0000 O   0  0  0  0  0  0  0  0  0  0  0  0
  1  2  1  0  0  0  0
  2  3  1  0  0  0  0
  3  4  2  0  0  0  0
  4  5  1  0  0  0  0
  5  6  2  0  0  0  0
  6  7  1  0  0  0  0
  2  7  2  0  0  0  0
  1  8  2  0  0  0  0
  1  9  1  0  0  0  0
  6 10  1  0  0  0  0
  5 11  1  0  0  0  0
  4 12  1  0  0  0  0
 13 14  1  0  0  0  0
 14 15  1  0  0  0  0
 15 16  1  0  0  0  0
 16 17  1  0  0  0  0
 17 18  1  0  0  0  0
 13 18  1  0  0  0  0
 19 20  1  0  0  0  0
 18 19  1  1  0  0  0
 17 21  1  6  0  0  0
 16 22  1  1  0  0  0
 15 23  1  6  0  0  0
 14  9  1  1  0  0  0
M  END
>  <cdx:groupId>
4866

>  <cdx:fragmentId>
4799

$$$$
