124416.cdx
  Mrv1902 05222410252D          

 21 24  0  0  0  0            999 V2000
    6.2278   -8.3862    0.0000 C   0  0  0  0  0  0  0  0  0  0  0  0
    6.2278   -9.2112    0.0000 C   0  0  0  0  0  0  0  0  0  0  0  0
    6.9424   -9.6238    0.0000 C   0  0  0  0  0  0  0  0  0  0  0  0
    7.6568   -9.2112    0.0000 C   0  0  0  0  0  0  0  0  0  0  0  0
    7.6568   -8.3862    0.0000 C   0  0  0  0  0  0  0  0  0  0  0  0
    6.9424   -7.9738    0.0000 C   0  0  0  0  0  0  0  0  0  0  0  0
    5.5134   -7.9738    0.0000 C   0  0  0  0  0  0  0  0  0  0  0  0
    4.7989   -8.3862    0.0000 C   0  0  0  0  0  0  0  0  0  0  0  0
    4.7989   -9.2112    0.0000 C   0  0  0  0  0  0  0  0  0  0  0  0
    5.5134   -9.6238    0.0000 C   0  0  0  0  0  0  0  0  0  0  0  0
    5.5134  -10.4486    0.0000 C   0  0  0  0  0  0  0  0  0  0  0  0
    8.3712   -7.9738    0.0000 C   0  0  0  0  0  0  0  0  0  0  0  0
    8.3712   -7.1488    0.0000 C   0  0  0  0  0  0  0  0  0  0  0  0
    7.6568   -6.7362    0.0000 C   0  0  0  0  0  0  0  0  0  0  0  0
    6.9424   -7.1488    0.0000 C   0  0  0  0  0  0  0  0  0  0  0  0
    9.1558   -8.2288    0.0000 O   0  0  0  0  0  0  0  0  0  0  0  0
    9.6408   -7.5612    0.0000 C   0  0  0  0  0  0  0  0  0  0  0  0
    9.1558   -6.8939    0.0000 C   0  0  0  0  0  0  0  0  0  0  0  0
    9.4109   -6.1093    0.0000 C   0  0  0  0  0  0  0  0  0  0  0  0
    6.2278   -6.7362    0.0000 O   0  0  0  0  0  0  0  0  0  0  0  0
    7.6568   -5.9114    0.0000 O   0  0  0  0  0  0  0  0  0  0  0  0
  1  2  2  0  0  0  0
  2  3  1  0  0  0  0
  3  4  2  0  0  0  0
  4  5  1  0  0  0  0
  5  6  2  0  0  0  0
  6  1  1  0  0  0  0
  1  7  1  0  0  0  0
  7  8  1  0  0  0  0
  8  9  1  0  0  0  0
  9 10  2  0  0  0  0
 10  2  1  0  0  0  0
 10 11  1  0  0  0  0
  5 12  1  0  0  0  0
 12 13  2  0  0  0  0
 13 14  1  0  0  0  0
 14 15  1  0  0  0  0
 15  6  1  0  0  0  0
 12 16  1  0  0  0  0
 16 17  1  0  0  0  0
 17 18  1  0  0  0  0
 18 13  1  0  0  0  0
 18 19  1  0  0  0  0
 15 20  2  0  0  0  0
 14 21  2  0  0  0  0
M  END
>  <cdx:fragmentId>
1

$$$$
