12457.cdx
  Mrv1902 05222410222D          

 53 57  0  0  0  0            999 V2000
    6.0396  -10.2789    0.0000 C   0  0  0  0  0  0  0  0  0  0  0  0
    5.3251  -10.6914    0.0000 C   0  0  0  0  0  0  0  0  0  0  0  0
    4.6106  -10.2789    0.0000 C   0  0  0  0  0  0  0  0  0  0  0  0
    6.0396   -9.4539    0.0000 O   0  0  0  0  0  0  0  0  0  0  0  0
    6.7540  -10.6914    0.0000 O   0  0  0  0  0  0  0  0  0  0  0  0
    3.8961  -10.6914    0.0000 C   0  0  0  0  0  0  0  0  0  0  0  0
    3.8961  -11.5164    0.0000 C   0  0  0  0  0  0  0  0  0  0  0  0
    3.1817  -11.9289    0.0000 C   0  0  0  0  0  0  0  0  0  0  0  0
    2.4672  -11.5164    0.0000 C   0  0  0  0  0  0  0  0  0  0  0  0
    2.4672  -10.6914    0.0000 C   0  0  0  0  0  0  0  0  0  0  0  0
    3.1817  -10.2789    0.0000 C   0  0  0  0  0  0  0  0  0  0  0  0
    1.7527  -11.9289    0.0000 O   0  0  0  0  0  0  0  0  0  0  0  0
    8.1830   -9.0414    0.0000 O   0  0  0  0  0  0  0  0  0  0  0  0
    7.4685   -9.4539    0.0000 C   0  0  1  0  0  0  0  0  0  0  0  0
    7.4685  -10.2789    0.0000 C   0  0  2  0  0  0  0  0  0  0  0  0
    8.1830  -10.6914    0.0000 C   0  0  1  0  0  0  0  0  0  0  0  0
    8.8974  -10.2789    0.0000 C   0  0  2  0  0  0  0  0  0  0  0  0
    8.8974   -9.4539    0.0000 C   0  0  2  0  0  0  0  0  0  0  0  0
    8.1830  -11.5164    0.0000 O   0  0  0  0  0  0  0  0  0  0  0  0
    6.7540  -11.5164    0.0000 O   0  0  0  0  0  0  0  0  0  0  0  0
    7.4685  -11.9289    0.0000 C   0  0  2  0  0  0  0  0  0  0  0  0
    7.4685  -12.7539    0.0000 C   0  0  1  0  0  0  0  0  0  0  0  0
    6.7540  -13.1664    0.0000 C   0  0  1  0  0  0  0  0  0  0  0  0
    6.0396  -12.7539    0.0000 C   0  0  2  0  0  0  0  0  0  0  0  0
    6.0396  -11.9289    0.0000 C   0  0  2  0  0  0  0  0  0  0  0  0
    5.3251  -11.5164    0.0000 C   0  0  0  0  0  0  0  0  0  0  0  0
    5.3251  -13.1664    0.0000 O   0  0  0  0  0  0  0  0  0  0  0  0
    6.7540  -13.9914    0.0000 O   0  0  0  0  0  0  0  0  0  0  0  0
    8.1830  -13.1664    0.0000 O   0  0  0  0  0  0  0  0  0  0  0  0
    6.7540   -9.0414    0.0000 C   0  0  0  0  0  0  0  0  0  0  0  0
   11.7553   -9.4539    0.0000 C   0  0  0  0  0  0  0  0  0  0  0  0
   12.4698   -9.0414    0.0000 C   0  0  0  0  0  0  0  0  0  0  0  0
   13.1843   -9.4539    0.0000 C   0  0  0  0  0  0  0  0  0  0  0  0
   13.1843  -10.2789    0.0000 C   0  0  0  0  0  0  0  0  0  0  0  0
   12.4698  -10.6914    0.0000 C   0  0  0  0  0  0  0  0  0  0  0  0
   11.7553  -10.2789    0.0000 C   0  0  0  0  0  0  0  0  0  0  0  0
    5.1048   -8.1647    0.0000 O   0  0  0  0  0  0  0  0  0  0  0  0
    4.3251   -6.7105    0.0000 O   0  0  0  0  0  0  0  0  0  0  0  0
    5.1945   -5.3082    0.0000 O   0  0  0  0  0  0  0  0  0  0  0  0
    6.4538   -4.6329    0.0000 O   0  0  0  0  0  0  0  0  0  0  0  0
    6.8437   -5.3599    0.0000 C   0  0  0  0  0  0  0  0  0  0  0  0
    6.4090   -6.0611    0.0000 C   0  0  2  0  0  0  0  0  0  0  0  0
    5.5844   -6.0352    0.0000 C   0  0  2  0  0  0  0  0  0  0  0  0
    5.1497   -6.7364    0.0000 C   0  0  1  0  0  0  0  0  0  0  0  0
    5.5396   -7.4635    0.0000 C   0  0  2  0  0  0  0  0  0  0  0  0
    6.3642   -7.4894    0.0000 C   0  0  1  0  0  0  0  0  0  0  0  0
    6.7989   -6.7882    0.0000 O   0  0  0  0  0  0  0  0  0  0  0  0
    6.7540   -8.2164    0.0000 O   0  0  0  0  0  0  0  0  0  0  0  0
   11.0409   -9.0414    0.0000 C   0  0  0  0  0  0  0  0  0  0  0  0
   10.3264   -9.4539    0.0000 C   0  0  0  0  0  0  0  0  0  0  0  0
    9.6119   -9.0414    0.0000 O   0  0  0  0  0  0  0  0  0  0  0  0
    9.6119  -10.6914    0.0000 O   0  0  0  0  0  0  0  0  0  0  0  0
    1.7527  -10.2789    0.0000 O   0  0  0  0  0  0  0  0  0  0  0  0
 46 48  1  1  0  0  0
 45 37  1  6  0  0  0
 44 38  1  1  0  0  0
 43 39  1  6  0  0  0
 42 41  1  1  0  0  0
 41 40  1  0  0  0  0
 47 42  1  0  0  0  0
 43 42  1  0  0  0  0
 44 43  1  0  0  0  0
 45 44  1  0  0  0  0
 46 45  1  0  0  0  0
 47 46  1  0  0  0  0
 49 31  1  0  0  0  0
 51 50  1  0  0  0  0
 50 49  1  0  0  0  0
  1  2  1  0  0  0  0
  2  3  2  0  0  0  0
  1  4  2  0  0  0  0
  1  5  1  0  0  0  0
  6  7  1  0  0  0  0
  7  8  2  0  0  0  0
  8  9  1  0  0  0  0
  9 10  2  0  0  0  0
 10 11  1  0  0  0  0
  6 11  2  0  0  0  0
  9 12  1  0  0  0  0
  3  6  1  0  0  0  0
 13 14  1  0  0  0  0
 14 15  1  0  0  0  0
 15 16  1  0  0  0  0
 16 17  1  0  0  0  0
 17 18  1  0  0  0  0
 13 18  1  0  0  0  0
 20 21  1  0  0  0  0
 21 22  1  0  0  0  0
 22 23  1  0  0  0  0
 23 24  1  0  0  0  0
 24 25  1  0  0  0  0
 20 25  1  0  0  0  0
 25 26  1  6  0  0  0
 24 27  1  1  0  0  0
 23 28  1  6  0  0  0
 22 29  1  6  0  0  0
 21 19  1  1  0  0  0
 16 19  1  1  0  0  0
 30 48  1  0  0  0  0
 14 30  1  1  0  0  0
 31 32  1  0  0  0  0
 32 33  2  0  0  0  0
 33 34  1  0  0  0  0
 34 35  2  0  0  0  0
 35 36  1  0  0  0  0
 31 36  2  0  0  0  0
 18 51  1  1  0  0  0
 17 52  1  6  0  0  0
 15  5  1  6  0  0  0
 10 53  1  0  0  0  0
M  END
>  <cdx:groupId>
176990

>  <cdx:fragmentId>
176856

$$$$
