12456.cdx
  Mrv1902 05222410222D          

 26 29  0  0  0  0            999 V2000
    7.9114  -10.6364    0.0000 C   0  0  0  0  0  0  0  0  0  0  0  0
    8.6259  -10.2239    0.0000 C   0  0  0  0  0  0  0  0  0  0  0  0
    8.6259   -9.3989    0.0000 C   0  0  0  0  0  0  0  0  0  0  0  0
    9.3403   -8.9864    0.0000 C   0  0  0  0  0  0  0  0  0  0  0  0
    9.5119   -8.1794    0.0000 O   0  0  0  0  0  0  0  0  0  0  0  0
   10.3323   -8.0932    0.0000 C   0  0  0  0  0  0  0  0  0  0  0  0
   10.6679   -8.8469    0.0000 O   0  0  0  0  0  0  0  0  0  0  0  0
   10.0548   -9.3989    0.0000 C   0  0  0  0  0  0  0  0  0  0  0  0
   10.0548  -10.2239    0.0000 C   0  0  0  0  0  0  0  0  0  0  0  0
    9.3403  -10.6364    0.0000 C   0  0  0  0  0  0  0  0  0  0  0  0
    9.3403  -11.4614    0.0000 C   0  0  0  0  0  0  0  0  0  0  0  0
    8.6259  -11.8739    0.0000 C   0  0  0  0  0  0  0  0  0  0  0  0
    7.9114  -11.4614    0.0000 N   0  3  0  0  0  0  0  0  0  0  0  0
    7.1969  -11.8739    0.0000 C   0  0  0  0  0  0  0  0  0  0  0  0
    6.4825  -11.4614    0.0000 C   0  0  0  0  0  0  0  0  0  0  0  0
    5.7680  -11.8739    0.0000 C   0  0  0  0  0  0  0  0  0  0  0  0
    5.0535  -11.4614    0.0000 C   0  0  0  0  0  0  0  0  0  0  0  0
    5.0535  -10.6364    0.0000 C   0  0  0  0  0  0  0  0  0  0  0  0
    5.7680  -10.2239    0.0000 C   0  0  0  0  0  0  0  0  0  0  0  0
    6.4825  -10.6364    0.0000 C   0  0  0  0  0  0  0  0  0  0  0  0
    7.1969  -10.2239    0.0000 C   0  0  0  0  0  0  0  0  0  0  0  0
    4.3390  -11.8739    0.0000 O   0  0  0  0  0  0  0  0  0  0  0  0
    3.6246  -11.4614    0.0000 C   0  0  0  0  0  0  0  0  0  0  0  0
    5.7680  -12.6989    0.0000 O   0  0  0  0  0  0  0  0  0  0  0  0
    5.0535  -13.1114    0.0000 C   0  0  0  0  0  0  0  0  0  0  0  0
    7.9114  -12.2864    0.0000 Cl  0  5  0  0  0  0  0  0  0  0  0  0
  1  2  1  0  0  0  0
  2  3  2  0  0  0  0
  3  4  1  0  0  0  0
  4  5  1  0  0  0  0
  5  6  1  0  0  0  0
  6  7  1  0  0  0  0
  7  8  1  0  0  0  0
  8  9  1  0  0  0  0
  9 10  2  0  0  0  0
 10 11  1  0  0  0  0
 11 12  1  0  0  0  0
 12 13  1  0  0  0  0
 13 14  1  0  0  0  0
 14 15  2  0  0  0  0
 15 16  1  0  0  0  0
 16 17  2  0  0  0  0
 17 18  1  0  0  0  0
 18 19  2  0  0  0  0
 19 20  1  0  0  0  0
 20 21  2  0  0  0  0
  1 21  1  0  0  0  0
  1 13  2  0  0  0  0
  2 10  1  0  0  0  0
  4  8  2  0  0  0  0
 15 20  1  0  0  0  0
 22 23  1  0  0  0  0
 17 22  1  0  0  0  0
 24 25  1  0  0  0  0
 16 24  1  0  0  0  0
M  CHG  2  13   1  26  -1
M  END
>  <cdx:fragmentId>
3759

$$$$
