1245.cdx
  Mrv1902 05222410192D          

 14 14  0  0  0  0            999 V2000
    8.8032   -5.5283    0.0000 C   0  0  0  0  0  0  0  0  0  0  0  0
    8.0887   -5.9408    0.0000 C   0  0  0  0  0  0  0  0  0  0  0  0
    8.8032   -4.7033    0.0000 O   0  0  0  0  0  0  0  0  0  0  0  0
    9.5177   -5.9408    0.0000 O   0  0  0  0  0  0  0  0  0  0  0  0
    7.3742   -5.5283    0.0000 C   0  0  0  0  0  0  0  0  0  0  0  0
    6.6598   -5.9408    0.0000 C   0  0  0  0  0  0  0  0  0  0  0  0
    5.9453   -5.5283    0.0000 C   0  0  0  0  0  0  0  0  0  0  0  0
    5.9453   -4.7033    0.0000 C   0  0  0  0  0  0  0  0  0  0  0  0
    6.6598   -4.2908    0.0000 C   0  0  0  0  0  0  0  0  0  0  0  0
    7.3742   -4.7033    0.0000 C   0  0  0  0  0  0  0  0  0  0  0  0
    5.2308   -5.9408    0.0000 O   0  0  0  0  0  0  0  0  0  0  0  0
    4.5164   -5.5283    0.0000 C   0  0  0  0  0  0  0  0  0  0  0  0
    5.2308   -4.2908    0.0000 O   0  0  0  0  0  0  0  0  0  0  0  0
    8.0887   -6.7658    0.0000 O   0  0  0  0  0  0  0  0  0  0  0  0
  1  2  1  0  0  0  0
  1  3  2  0  0  0  0
  1  4  1  0  0  0  0
  5  6  1  0  0  0  0
  6  7  2  0  0  0  0
  7  8  1  0  0  0  0
  8  9  2  0  0  0  0
  9 10  1  0  0  0  0
  5 10  2  0  0  0  0
 11 12  1  0  0  0  0
  7 11  1  0  0  0  0
  8 13  1  0  0  0  0
  2  5  1  0  0  0  0
  2 14  1  0  0  0  0
M  END
>  <cdx:fragmentId>
13

$$$$
