124675.cdx
  Mrv1902 05222410282D          

 19 21  0  0  0  0            999 V2000
    4.4982   -4.6902    0.0000 C   0  0  0  0  0  0  0  0  0  0  0  0
    4.5007   -5.5152    0.0000 C   0  0  0  0  0  0  0  0  0  0  0  0
    5.2164   -5.9255    0.0000 C   0  0  0  0  0  0  0  0  0  0  0  0
    5.9296   -5.5109    0.0000 C   0  0  0  0  0  0  0  0  0  0  0  0
    6.6453   -5.9212    0.0000 C   0  0  0  0  0  0  0  0  0  0  0  0
    7.3585   -5.5066    0.0000 C   0  0  0  0  0  0  0  0  0  0  0  0
    7.3561   -4.6816    0.0000 C   0  0  0  0  0  0  0  0  0  0  0  0
    6.6404   -4.2712    0.0000 C   0  0  0  0  0  0  0  0  0  0  0  0
    5.9271   -4.6859    0.0000 C   0  0  0  0  0  0  0  0  0  0  0  0
    5.2114   -4.2755    0.0000 O   0  0  0  0  0  0  0  0  0  0  0  0
    8.1399   -4.4243    0.0000 O   0  0  0  0  0  0  0  0  0  0  0  0
    8.1439   -5.7592    0.0000 C   0  0  0  0  0  0  0  0  0  0  0  0
    8.6269   -5.0903    0.0000 C   0  0  0  0  0  0  0  0  0  0  0  0
    3.7825   -4.2798    0.0000 O   0  0  0  0  0  0  0  0  0  0  0  0
    9.4518   -5.8628    0.0000 C   0  0  0  0  0  0  0  0  0  0  0  0
    9.4518   -5.0878    0.0000 C   0  0  0  0  0  0  0  0  0  0  0  0
    9.4518   -4.3167    0.0000 C   0  0  0  0  0  0  0  0  0  0  0  0
   10.2768   -5.0854    0.0000 O   0  0  0  0  0  0  0  0  0  0  0  0
    6.6478   -6.7462    0.0000 O   0  0  0  0  0  0  0  0  0  0  0  0
  1  2  1  0  0  0  0
  2  3  2  0  0  0  0
  3  4  1  0  0  0  0
  4  5  2  0  0  0  0
  5  6  1  0  0  0  0
  6  7  2  0  0  0  0
  7  8  1  0  0  0  0
  8  9  2  0  0  0  0
  4  9  1  0  0  0  0
  9 10  1  0  0  0  0
  1 10  1  0  0  0  0
 12 13  1  0  0  0  0
 11 13  1  0  0  0  0
 12  6  1  0  0  0  0
 11  7  1  0  0  0  0
  1 14  2  0  0  0  0
 15 16  1  0  0  0  0
 16 17  1  0  0  0  0
 16 18  1  0  0  0  0
 13 16  1  0  0  0  0
  5 19  1  0  0  0  0
M  END
>  <cdx:fragmentId>
11400

$$$$
