12471.cdx
  Mrv1902 05222410232D          

 25 28  0  0  0  0            999 V2000
    8.6985   -4.2518    0.0000 H   0  0  0  0  0  0  0  0  0  0  0  0
    7.0242   -7.1495    0.0000 H   0  0  0  0  0  0  0  0  0  0  0  0
    6.3089   -8.3867    0.0000 H   0  0  0  0  0  0  0  0  0  0  0  0
    5.1821   -8.6883    0.0000 C   0  0  0  0  0  0  0  0  0  0  0  0
    6.3096   -5.9117    0.0000 C   0  0  0  0  0  0  0  0  0  0  0  0
    9.5660   -5.5253    0.0000 C   0  0  0  0  0  0  0  0  0  0  0  0
    7.5016   -5.6930    0.0000 C   0  0  0  0  0  0  0  0  0  0  0  0
    8.5066   -6.4362    0.0000 C   0  0  0  0  0  0  0  0  0  0  0  0
    8.7501   -5.6480    0.0000 C   0  0  0  0  0  0  0  0  0  0  0  0
    8.2857   -4.9661    0.0000 C   0  0  2  0  0  0  0  0  0  0  0  0
    7.4630   -4.9041    0.0000 C   0  0  0  0  0  0  0  0  0  0  0  0
    6.9016   -5.5086    0.0000 C   0  0  0  0  0  0  0  0  0  0  0  0
    7.0242   -6.3245    0.0000 C   0  0  1  0  0  0  0  0  0  0  0  0
    6.3096   -6.7367    0.0000 C   0  0  1  0  0  0  0  0  0  0  0  0
    5.5953   -6.3239    0.0000 C   0  0  0  0  0  0  0  0  0  0  0  0
    4.8806   -6.7361    0.0000 C   0  0  0  0  0  0  0  0  0  0  0  0
    4.8803   -7.5611    0.0000 C   0  0  0  0  0  0  0  0  0  0  0  0
    5.5946   -7.9739    0.0000 C   0  0  1  0  0  0  0  0  0  0  0  0
    6.3092   -7.5617    0.0000 C   0  0  1  0  0  0  0  0  0  0  0  0
    7.0235   -7.9745    0.0000 C   0  0  0  0  0  0  0  0  0  0  0  0
    7.7382   -7.5623    0.0000 C   0  0  0  0  0  0  0  0  0  0  0  0
    7.7385   -6.7373    0.0000 C   0  0  1  0  0  0  0  0  0  0  0  0
    6.0071   -8.6883    0.0000 C   0  0  0  0  0  0  0  0  0  0  0  0
    5.5946   -9.4028    0.0000 O   0  0  0  0  0  0  0  0  0  0  0  0
    6.8321   -8.6883    0.0000 O   0  0  0  0  0  0  0  0  0  0  0  0
 10  1  1  6  0  0  0
 13  2  1  1  0  0  0
 19  3  1  1  0  0  0
 18  4  1  1  0  0  0
 14  5  1  6  0  0  0
  9  6  2  0  0  0  0
 19 14  1  0  0  0  0
 22 13  1  0  0  0  0
 10  7  1  0  0  0  0
 22  7  1  0  0  0  0
 22  8  1  0  0  0  0
  9  8  1  0  0  0  0
 10  9  1  0  0  0  0
 11 10  1  0  0  0  0
 12 11  1  0  0  0  0
 13 12  1  0  0  0  0
 14 13  1  0  0  0  0
 15 14  1  0  0  0  0
 16 15  1  0  0  0  0
 17 16  1  0  0  0  0
 18 17  1  0  0  0  0
 19 18  1  0  0  0  0
 20 19  1  0  0  0  0
 21 20  1  0  0  0  0
 22 21  1  6  0  0  0
 18 23  1  0  0  0  0
 23 24  1  0  0  0  0
 23 25  2  0  0  0  0
M  END
>  <cdx:fragmentId>
5

$$$$
