12485.cdx
  Mrv1902 05222410212D          

 32 34  0  0  0  0            999 V2000
    4.1077   -8.7037    0.0000 C   0  0  0  0  0  0  0  0  0  0  0  0
    4.1077   -9.5287    0.0000 C   0  0  0  0  0  0  0  0  0  0  0  0
    4.8221   -9.9413    0.0000 C   0  0  0  0  0  0  0  0  0  0  0  0
    5.5366   -9.5287    0.0000 C   0  0  0  0  0  0  0  0  0  0  0  0
    5.5366   -8.7037    0.0000 C   0  0  0  0  0  0  0  0  0  0  0  0
    4.8221   -8.2912    0.0000 C   0  0  0  0  0  0  0  0  0  0  0  0
    6.2511   -9.9413    0.0000 C   0  0  0  0  0  0  0  0  0  0  0  0
    6.9655   -9.5287    0.0000 C   0  0  0  0  0  0  0  0  0  0  0  0
    6.9655   -8.7037    0.0000 C   0  0  0  0  0  0  0  0  0  0  0  0
    6.2511   -8.2912    0.0000 O   0  0  0  0  0  0  0  0  0  0  0  0
    7.6800   -8.2912    0.0000 C   0  0  0  0  0  0  0  0  0  0  0  0
    7.6800   -7.4663    0.0000 C   0  0  0  0  0  0  0  0  0  0  0  0
    6.9655   -7.0537    0.0000 O   0  0  0  0  0  0  0  0  0  0  0  0
    8.3945   -8.7037    0.0000 C   0  0  0  0  0  0  0  0  0  0  0  0
    9.1090   -8.2912    0.0000 C   0  0  0  0  0  0  0  0  0  0  0  0
    9.1090   -7.4663    0.0000 C   0  0  0  0  0  0  0  0  0  0  0  0
    8.3945   -7.0537    0.0000 C   0  0  0  0  0  0  0  0  0  0  0  0
    9.8234   -7.0537    0.0000 H   0  0  0  0  0  0  0  0  0  0  0  0
    6.2511  -10.7663    0.0000 O   0  0  0  0  0  0  0  0  0  0  0  0
    4.8221  -10.7663    0.0000 O   0  0  0  0  0  0  0  0  0  0  0  0
    4.8221  -11.5912    0.0000 C   0  0  0  0  0  0  0  0  0  0  0  0
    4.8221   -7.4663    0.0000 C   0  0  0  0  0  0  0  0  0  0  0  0
    4.1077   -7.0537    0.0000 C   0  0  0  0  0  0  0  0  0  0  0  0
    4.1077   -6.2287    0.0000 C   0  0  0  0  0  0  0  0  0  0  0  0
    3.3932   -5.8163    0.0000 C   0  0  0  0  0  0  0  0  0  0  0  0
    3.3932   -4.9913    0.0000 C   0  0  0  0  0  0  0  0  0  0  0  0
    2.6787   -4.5788    0.0000 C   0  0  0  0  0  0  0  0  0  0  0  0
    4.1077   -4.5788    0.0000 C   0  0  0  0  0  0  0  0  0  0  0  0
    3.3932   -7.4663    0.0000 C   0  0  0  0  0  0  0  0  0  0  0  0
    3.3932   -8.2912    0.0000 C   0  0  0  0  0  0  0  0  0  0  0  0
    2.6787   -7.0537    0.0000 C   0  0  0  0  0  0  0  0  0  0  0  0
    3.2827   -8.7037    0.0000 O   0  0  0  0  0  0  0  0  0  0  0  0
  1  2  1  0  0  0  0
  2  3  2  0  0  0  0
  3  4  1  0  0  0  0
  4  5  2  0  0  0  0
  5  6  1  0  0  0  0
  6  1  2  0  0  0  0
  4  7  1  0  0  0  0
  7  8  1  0  0  0  0
  8  9  1  0  0  0  0
  9 10  1  0  0  0  0
 10  5  1  0  0  0  0
  9 11  1  0  0  0  0
 11 12  1  0  0  0  0
 12 13  1  0  0  0  0
 11 14  2  0  0  0  0
 14 15  1  0  0  0  0
 15 16  2  0  0  0  0
 16 17  1  0  0  0  0
 17 12  2  0  0  0  0
 16 18  1  0  0  0  0
  7 19  2  0  0  0  0
  3 20  1  0  0  0  0
  6 22  1  0  0  0  0
 22 23  1  0  0  0  0
 23 24  1  0  0  0  0
 24 25  1  0  0  0  0
 25 26  2  0  0  0  0
 26 27  1  0  0  0  0
 26 28  1  0  0  0  0
 23 29  1  0  0  0  0
 29 30  2  0  0  0  0
 29 31  1  0  0  0  0
  1 32  1  0  0  0  0
 20 21  1  0  0  0  0
M  STY  1   1 SUP
M  SAL   1  2  20  21
M  SBL   1  1  22
M  SMT   1 OCH3
M  SAP   1  1  20   3  1
M  END
>  <cdx:fragmentId>
5

$$$$
