124886.cdx
  Mrv1902 05222410272D          

 20 19  0  0  0  0            999 V2000
    4.3378   -7.2272    0.0000 N   0  0  0  0  0  0  0  0  0  0  0  0
   11.4825   -8.0522    0.0000 O   0  0  0  0  0  0  0  0  0  0  0  0
   10.7680   -9.2897    0.0000 O   0  0  0  0  0  0  0  0  0  0  0  0
   10.7680   -8.4647    0.0000 C   0  0  0  0  0  0  0  0  0  0  0  0
   10.0535   -8.0522    0.0000 C   0  0  0  0  0  0  0  0  0  0  0  0
    9.3391   -8.4647    0.0000 N   0  0  0  0  0  0  0  0  0  0  0  0
    8.6246   -7.2272    0.0000 O   0  0  0  0  0  0  0  0  0  0  0  0
    8.6246   -9.7022    0.0000 S   0  0  0  0  0  0  0  0  0  0  0  0
    7.9101   -9.2897    0.0000 C   0  0  0  0  0  0  0  0  0  0  0  0
    7.9101   -8.4647    0.0000 C   0  0  1  0  0  0  0  0  0  0  0  0
    8.6246   -8.0522    0.0000 C   0  0  0  0  0  0  0  0  0  0  0  0
    7.1956   -8.0522    0.0000 N   0  0  0  0  0  0  0  0  0  0  0  0
    6.4812   -9.2897    0.0000 O   0  0  0  0  0  0  0  0  0  0  0  0
    2.9088   -8.0522    0.0000 O   0  0  0  0  0  0  0  0  0  0  0  0
    3.6233   -9.2897    0.0000 O   0  0  0  0  0  0  0  0  0  0  0  0
    6.4812   -8.4647    0.0000 C   0  0  0  0  0  0  0  0  0  0  0  0
    5.7667   -8.0522    0.0000 C   0  0  0  0  0  0  0  0  0  0  0  0
    5.0522   -8.4647    0.0000 C   0  0  0  0  0  0  0  0  0  0  0  0
    4.3378   -8.0522    0.0000 C   0  0  1  0  0  0  0  0  0  0  0  0
    3.6233   -8.4647    0.0000 C   0  0  0  0  0  0  0  0  0  0  0  0
 19  1  1  1  0  0  0
 16 12  1  0  0  0  0
 10 12  1  6  0  0  0
 11  6  1  0  0  0  0
  6  5  1  0  0  0  0
  5  4  1  0  0  0  0
  4  2  1  0  0  0  0
  4  3  2  0  0  0  0
 11  7  2  0  0  0  0
  9  8  1  0  0  0  0
 10  9  1  0  0  0  0
 11 10  1  0  0  0  0
 16 13  2  0  0  0  0
 20 14  1  0  0  0  0
 20 15  2  0  0  0  0
 17 16  1  0  0  0  0
 18 17  1  0  0  0  0
 19 18  1  0  0  0  0
 20 19  1  0  0  0  0
M  END
>  <cdx:fragmentId>
37

$$$$
