1249.cdx
  Mrv1902 05222410272D          

 46 49  0  0  0  0            999 V2000
    1.4058   -3.4031    0.0000 C   0  0  0  0  0  0  0  0  0  0  0  0
    2.1202   -4.6406    0.0000 O   0  0  0  0  0  0  0  0  0  0  0  0
    2.8347   -4.2281    0.0000 C   0  0  0  0  0  0  0  0  0  0  0  0
    2.8347   -3.4031    0.0000 C   0  0  0  0  0  0  0  0  0  0  0  0
    2.1202   -2.9906    0.0000 O   0  0  0  0  0  0  0  0  0  0  0  0
    3.5492   -4.6406    0.0000 C   0  0  0  0  0  0  0  0  0  0  0  0
    4.2637   -4.2281    0.0000 C   0  0  0  0  0  0  0  0  0  0  0  0
    4.2637   -3.4031    0.0000 C   0  0  0  0  0  0  0  0  0  0  0  0
    3.5492   -2.9906    0.0000 C   0  0  0  0  0  0  0  0  0  0  0  0
    4.9781   -4.6406    0.0000 C   0  0  1  0  0  0  0  0  0  0  0  0
    5.6926   -4.2281    0.0000 C   0  0  2  0  0  0  0  0  0  0  0  0
    5.6926   -3.4031    0.0000 C   0  0  0  0  0  0  0  0  0  0  0  0
    4.9781   -2.9906    0.0000 C   0  0  0  0  0  0  0  0  0  0  0  0
    3.5492   -5.4656    0.0000 O   0  0  0  0  0  0  0  0  0  0  0  0
    4.2637   -5.8781    0.0000 C   0  0  0  0  0  0  0  0  0  0  0  0
    4.9781   -5.4656    0.0000 C   0  0  0  0  0  0  0  0  0  0  0  0
    5.6926   -5.8781    0.0000 C   0  0  0  0  0  0  0  0  0  0  0  0
    6.4071   -5.4656    0.0000 O   0  0  0  0  0  0  0  0  0  0  0  0
    6.4071   -4.6406    0.0000 C   0  0  0  0  0  0  0  0  0  0  0  0
    4.2637   -6.7031    0.0000 C   0  0  0  0  0  0  0  0  0  0  0  0
    4.9781   -7.1156    0.0000 C   0  0  0  0  0  0  0  0  0  0  0  0
    5.6926   -6.7031    0.0000 C   0  0  0  0  0  0  0  0  0  0  0  0
    7.8360   -4.6406    0.0000 C   0  0  0  0  0  0  0  0  0  0  0  0
    7.1215   -4.2281    0.0000 N   0  0  0  0  0  0  0  0  0  0  0  0
    9.2650   -5.4656    0.0000 C   0  0  0  0  0  0  0  0  0  0  0  0
    9.2650   -4.6406    0.0000 C   0  0  0  0  0  0  0  0  0  0  0  0
    8.5505   -4.2281    0.0000 C   0  0  0  0  0  0  0  0  0  0  0  0
    9.9794   -5.8781    0.0000 C   0  0  0  0  0  0  0  0  0  0  0  0
   10.6939   -5.4656    0.0000 C   0  0  0  0  0  0  0  0  0  0  0  0
   10.6939   -4.6406    0.0000 C   0  0  0  0  0  0  0  0  0  0  0  0
    9.9794   -4.2281    0.0000 C   0  0  0  0  0  0  0  0  0  0  0  0
    6.4071   -2.9906    0.0000 C   0  0  0  0  0  0  0  0  0  0  0  0
    7.1215   -3.4031    0.0000 N   0  0  0  0  0  0  0  0  0  0  0  0
    6.4071   -2.1656    0.0000 O   0  0  0  0  0  0  0  0  0  0  0  0
    7.8360   -2.9906    0.0000 C   0  0  0  0  0  0  0  0  0  0  0  0
    8.5505   -3.4031    0.0000 C   0  0  0  0  0  0  0  0  0  0  0  0
    9.2650   -2.9906    0.0000 C   0  0  0  0  0  0  0  0  0  0  0  0
    9.9794   -3.4031    0.0000 C   0  0  0  0  0  0  0  0  0  0  0  0
   10.6939   -2.9906    0.0000 N   0  0  0  0  0  0  0  0  0  0  0  0
   11.4084   -3.4031    0.0000 C   0  0  0  0  0  0  0  0  0  0  0  0
   12.1228   -2.9906    0.0000 C   0  0  0  0  0  0  0  0  0  0  0  0
   11.4084   -4.2281    0.0000 O   0  0  0  0  0  0  0  0  0  0  0  0
    3.5492   -7.1156    0.0000 O   0  0  0  0  0  0  0  0  0  0  0  0
    4.9781   -7.9406    0.0000 O   0  0  0  0  0  0  0  0  0  0  0  0
    2.8347   -5.8781    0.0000 C   0  0  0  0  0  0  0  0  0  0  0  0
   11.4084   -5.8781    0.0000 O   0  0  0  0  0  0  0  0  0  0  0  0
  2  3  1  0  0  0  0
  3  4  2  0  0  0  0
  4  5  1  0  0  0  0
  5  1  1  0  0  0  0
  3  6  1  0  0  0  0
  6  7  2  0  0  0  0
  7  8  1  0  0  0  0
  8  9  2  0  0  0  0
  9  4  1  0  0  0  0
  7 10  1  0  0  0  0
 10 11  1  0  0  0  0
 11 12  1  0  0  0  0
 12 13  2  0  0  0  0
 13  8  1  0  0  0  0
  6 14  1  0  0  0  0
 15 16  2  0  0  0  0
 10 16  1  1  0  0  0
 16 17  1  0  0  0  0
 18 19  2  0  0  0  0
 11 19  1  6  0  0  0
 15 20  1  0  0  0  0
 20 21  2  0  0  0  0
 21 22  1  0  0  0  0
 22 17  2  0  0  0  0
 23 24  1  0  0  0  0
 24 19  1  0  0  0  0
 25 26  2  0  0  0  0
 26 27  1  0  0  0  0
 27 23  1  0  0  0  0
 25 28  1  0  0  0  0
 28 29  2  0  0  0  0
 29 30  1  0  0  0  0
 30 31  2  0  0  0  0
 31 26  1  0  0  0  0
 12 32  1  0  0  0  0
 32 33  1  0  0  0  0
 32 34  2  0  0  0  0
 33 35  1  0  0  0  0
 35 36  1  0  0  0  0
 36 37  1  0  0  0  0
 37 38  1  0  0  0  0
 38 39  1  0  0  0  0
 39 40  1  0  0  0  0
 40 41  1  0  0  0  0
 40 42  2  0  0  0  0
 20 43  1  0  0  0  0
 21 44  1  0  0  0  0
 14 45  1  0  0  0  0
 29 46  1  0  0  0  0
M  END
>  <cdx:fragmentId>
5

$$$$
