12492.cdx
  Mrv1902 05222410212D          

 33 35  0  0  0  0            999 V2000
    4.3139   -8.5800    0.0000 C   0  0  0  0  0  0  0  0  0  0  0  0
    4.3139   -9.4050    0.0000 C   0  0  0  0  0  0  0  0  0  0  0  0
    5.0284   -9.8175    0.0000 C   0  0  0  0  0  0  0  0  0  0  0  0
    5.7428   -9.4050    0.0000 C   0  0  0  0  0  0  0  0  0  0  0  0
    5.7428   -8.5800    0.0000 C   0  0  0  0  0  0  0  0  0  0  0  0
    5.0284   -8.1675    0.0000 C   0  0  0  0  0  0  0  0  0  0  0  0
    6.4573   -9.8175    0.0000 C   0  0  0  0  0  0  0  0  0  0  0  0
    7.1718   -9.4050    0.0000 C   0  0  1  0  0  0  0  0  0  0  0  0
    7.1718   -8.5800    0.0000 C   0  0  0  0  0  0  0  0  0  0  0  0
    6.4573   -8.1675    0.0000 O   0  0  0  0  0  0  0  0  0  0  0  0
    7.8863   -9.8175    0.0000 O   0  0  0  0  0  0  0  0  0  0  0  0
    8.6007   -8.5800    0.0000 C   0  0  0  0  0  0  0  0  0  0  0  0
    7.8863   -8.1675    0.0000 C   0  0  0  0  0  0  0  0  0  0  0  0
    9.3152   -8.1675    0.0000 C   0  0  0  0  0  0  0  0  0  0  0  0
    9.3152   -7.3425    0.0000 C   0  0  0  0  0  0  0  0  0  0  0  0
    8.6007   -6.9300    0.0000 C   0  0  0  0  0  0  0  0  0  0  0  0
    7.8863   -7.3425    0.0000 C   0  0  0  0  0  0  0  0  0  0  0  0
    5.0284   -7.3425    0.0000 C   0  0  0  0  0  0  0  0  0  0  0  0
    4.3139   -6.9300    0.0000 C   0  0  0  0  0  0  0  0  0  0  0  0
    3.5994   -7.3425    0.0000 C   0  0  0  0  0  0  0  0  0  0  0  0
    3.5994   -8.1675    0.0000 O   0  0  0  0  0  0  0  0  0  0  0  0
    4.3139   -6.1050    0.0000 C   0  0  0  0  0  0  0  0  0  0  0  0
    3.5994   -5.6925    0.0000 C   0  0  0  0  0  0  0  0  0  0  0  0
    2.8850   -6.9300    0.0000 C   0  0  0  0  0  0  0  0  0  0  0  0
    2.1705   -7.3425    0.0000 C   0  0  0  0  0  0  0  0  0  0  0  0
    5.0284  -10.6425    0.0000 O   0  0  0  0  0  0  0  0  0  0  0  0
    6.4573  -10.6425    0.0000 O   0  0  0  0  0  0  0  0  0  0  0  0
    5.0284   -5.6925    0.0000 C   0  0  0  0  0  0  0  0  0  0  0  0
    1.4560   -6.9300    0.0000 C   0  0  0  0  0  0  0  0  0  0  0  0
    2.1705   -8.1675    0.0000 C   0  0  0  0  0  0  0  0  0  0  0  0
    4.3139  -11.0550    0.0000 C   0  0  0  0  0  0  0  0  0  0  0  0
   10.0297   -6.9300    0.0000 O   0  0  0  0  0  0  0  0  0  0  0  0
    8.6007   -9.4050    0.0000 O   0  0  0  0  0  0  0  0  0  0  0  0
  1  2  2  0  0  0  0
  2  3  1  0  0  0  0
  3  4  2  0  0  0  0
  4  5  1  0  0  0  0
  5  6  2  0  0  0  0
  6  1  1  0  0  0  0
  4  7  1  0  0  0  0
  7  8  1  0  0  0  0
  8  9  1  0  0  0  0
  9 10  1  0  0  0  0
 10  5  1  0  0  0  0
  8 11  1  1  0  0  0
 12 13  2  0  0  0  0
 13  9  1  0  0  0  0
 12 14  1  0  0  0  0
 14 15  2  0  0  0  0
 15 16  1  0  0  0  0
 16 17  2  0  0  0  0
 17 13  1  0  0  0  0
  6 18  1  0  0  0  0
 18 19  1  0  0  0  0
 19 20  1  0  0  0  0
 21  1  1  0  0  0  0
 19 22  1  0  0  0  0
 22 23  1  0  0  0  0
 24 20  1  0  0  0  0
 24 25  2  0  0  0  0
  3 26  1  0  0  0  0
 27  7  2  0  0  0  0
 22 28  2  0  0  0  0
 25 29  1  0  0  0  0
 25 30  1  0  0  0  0
 26 31  1  0  0  0  0
 15 32  1  0  0  0  0
 12 33  1  0  0  0  0
M  END
>  <cdx:fragmentId>
5

$$$$
