12495.cdx
  Mrv1902 05222410222D          

 33 35  0  0  0  0            999 V2000
    5.8264   -8.3875    0.0000 C   0  0  0  0  0  0  0  0  0  0  0  0
    5.8264   -9.2125    0.0000 C   0  0  0  0  0  0  0  0  0  0  0  0
    6.5409   -9.6250    0.0000 C   0  0  0  0  0  0  0  0  0  0  0  0
    7.2553   -9.2125    0.0000 C   0  0  0  0  0  0  0  0  0  0  0  0
    7.2553   -8.3875    0.0000 C   0  0  0  0  0  0  0  0  0  0  0  0
    6.5409   -7.9750    0.0000 C   0  0  0  0  0  0  0  0  0  0  0  0
    7.9698   -9.6250    0.0000 C   0  0  0  0  0  0  0  0  0  0  0  0
    8.6843   -9.2125    0.0000 C   0  0  1  0  0  0  0  0  0  0  0  0
    8.6843   -8.3875    0.0000 C   0  0  2  0  0  0  0  0  0  0  0  0
    7.9698   -7.9750    0.0000 O   0  0  0  0  0  0  0  0  0  0  0  0
    9.3988   -9.6250    0.0000 O   0  0  0  0  0  0  0  0  0  0  0  0
   10.1132   -8.3875    0.0000 C   0  0  0  0  0  0  0  0  0  0  0  0
    9.3988   -7.9750    0.0000 C   0  0  0  0  0  0  0  0  0  0  0  0
   10.8277   -7.9750    0.0000 C   0  0  0  0  0  0  0  0  0  0  0  0
   10.8277   -7.1500    0.0000 C   0  0  0  0  0  0  0  0  0  0  0  0
   10.1132   -6.7375    0.0000 C   0  0  0  0  0  0  0  0  0  0  0  0
    9.3988   -7.1500    0.0000 C   0  0  0  0  0  0  0  0  0  0  0  0
    6.5409   -7.1500    0.0000 C   0  0  0  0  0  0  0  0  0  0  0  0
    5.8264   -6.7375    0.0000 C   0  0  1  0  0  0  0  0  0  0  0  0
    5.1119   -7.1500    0.0000 C   0  0  0  0  0  0  0  0  0  0  0  0
    5.1119   -7.9750    0.0000 O   0  0  0  0  0  0  0  0  0  0  0  0
    5.8264   -5.9125    0.0000 C   0  0  0  0  0  0  0  0  0  0  0  0
    5.1119   -5.5000    0.0000 C   0  0  0  0  0  0  0  0  0  0  0  0
    4.3975   -6.7375    0.0000 C   0  0  0  0  0  0  0  0  0  0  0  0
    3.6830   -7.1500    0.0000 C   0  0  0  0  0  0  0  0  0  0  0  0
    6.5409  -10.4500    0.0000 O   0  0  0  0  0  0  0  0  0  0  0  0
    7.9698  -10.4500    0.0000 O   0  0  0  0  0  0  0  0  0  0  0  0
    6.5409   -5.5000    0.0000 C   0  0  0  0  0  0  0  0  0  0  0  0
    2.9685   -6.7375    0.0000 C   0  0  0  0  0  0  0  0  0  0  0  0
    3.6830   -7.9750    0.0000 C   0  0  0  0  0  0  0  0  0  0  0  0
    5.8264  -10.8625    0.0000 C   0  0  0  0  0  0  0  0  0  0  0  0
    8.6843   -6.7375    0.0000 O   0  0  0  0  0  0  0  0  0  0  0  0
   11.5422   -6.7375    0.0000 O   0  0  0  0  0  0  0  0  0  0  0  0
  1  2  2  0  0  0  0
  2  3  1  0  0  0  0
  3  4  2  0  0  0  0
  4  5  1  0  0  0  0
  5  6  2  0  0  0  0
  6  1  1  0  0  0  0
  4  7  1  0  0  0  0
  7  8  1  0  0  0  0
  8  9  1  0  0  0  0
  9 10  1  0  0  0  0
 10  5  1  0  0  0  0
  8 11  1  1  0  0  0
 12 13  2  0  0  0  0
  9 13  1  6  0  0  0
 12 14  1  0  0  0  0
 14 15  2  0  0  0  0
 15 16  1  0  0  0  0
 16 17  2  0  0  0  0
 17 13  1  0  0  0  0
  6 18  1  0  0  0  0
 18 19  1  0  0  0  0
 19 20  1  1  0  0  0
 21  1  1  0  0  0  0
 19 22  1  0  0  0  0
 22 23  2  0  0  0  0
 24 20  1  0  0  0  0
 24 25  2  0  0  0  0
  3 26  1  0  0  0  0
 27  7  2  0  0  0  0
 22 28  1  0  0  0  0
 25 29  1  0  0  0  0
 25 30  1  0  0  0  0
 26 31  1  0  0  0  0
 17 32  1  0  0  0  0
 15 33  1  0  0  0  0
M  END
>  <cdx:fragmentId>
5

$$$$
