12502.cdx
  Mrv1902 05222410252D          

 26 27  0  0  0  0            999 V2000
    5.2145   -8.6487    0.0000 C   0  0  0  0  0  0  0  0  0  0  0  0
    5.2145   -9.4738    0.0000 C   0  0  0  0  0  0  0  0  0  0  0  0
    5.9290   -9.8863    0.0000 C   0  0  1  0  0  0  0  0  0  0  0  0
    6.6435   -9.4738    0.0000 C   0  0  1  0  0  0  0  0  0  0  0  0
    6.6435   -8.6487    0.0000 C   0  0  2  0  0  0  0  0  0  0  0  0
    5.9290   -8.2363    0.0000 C   0  0  0  0  0  0  0  0  0  0  0  0
    7.3579   -9.8863    0.0000 C   0  0  0  0  0  0  0  0  0  0  0  0
    8.0724   -9.4738    0.0000 C   0  0  0  0  0  0  0  0  0  0  0  0
    8.0724   -8.6487    0.0000 C   0  0  0  0  0  0  0  0  0  0  0  0
    7.3579   -8.2363    0.0000 C   0  0  2  0  0  0  0  0  0  0  0  0
    8.7869   -5.7612    0.0000 C   0  0  0  0  0  0  0  0  0  0  0  0
    8.0724   -6.1737    0.0000 C   0  0  0  0  0  0  0  0  0  0  0  0
    8.7869   -4.9362    0.0000 C   0  0  0  0  0  0  0  0  0  0  0  0
    8.0724   -4.5237    0.0000 O   0  0  0  0  0  0  0  0  0  0  0  0
    9.5014   -4.5237    0.0000 O   0  0  0  0  0  0  0  0  0  0  0  0
    9.5014   -3.6987    0.0000 C   0  0  0  0  0  0  0  0  0  0  0  0
    8.0724   -6.9988    0.0000 C   0  0  0  0  0  0  0  0  0  0  0  0
    7.3579   -7.4112    0.0000 C   0  0  0  0  0  0  0  0  0  0  0  0
    8.7869   -8.2363    0.0000 C   0  0  0  0  0  0  0  0  0  0  0  0
    6.3415  -10.6007    0.0000 C   0  0  0  0  0  0  0  0  0  0  0  0
    5.5165  -10.6007    0.0000 C   0  0  0  0  0  0  0  0  0  0  0  0
    4.6915  -10.6007    0.0000 O   0  0  0  0  0  0  0  0  0  0  0  0
    5.9290  -11.3152    0.0000 O   0  0  0  0  0  0  0  0  0  0  0  0
    6.6435   -7.8237    0.0000 C   0  0  0  0  0  0  0  0  0  0  0  0
    6.6435  -10.2988    0.0000 H   0  0  0  0  0  0  0  0  0  0  0  0
    7.3579   -5.7612    0.0000 C   0  0  0  0  0  0  0  0  0  0  0  0
  1  2  1  0  0  0  0
  2  3  1  0  0  0  0
  3  4  1  0  0  0  0
  4  5  1  0  0  0  0
  5  6  1  0  0  0  0
  6  1  1  0  0  0  0
  4  7  1  0  0  0  0
  7  8  1  0  0  0  0
  8  9  1  0  0  0  0
  9 10  1  0  0  0  0
 10  5  1  0  0  0  0
 10 18  1  1  0  0  0
 11 12  2  0  0  0  0
 11 13  1  0  0  0  0
 13 14  2  0  0  0  0
 12 17  1  0  0  0  0
 13 15  1  0  0  0  0
 15 16  1  0  0  0  0
 18 17  1  0  0  0  0
  9 19  2  0  0  0  0
  3 20  1  1  0  0  0
  3 21  1  6  0  0  0
 21 22  1  0  0  0  0
 21 23  2  0  0  0  0
  5 24  1  1  0  0  0
  4 25  1  6  0  0  0
 12 26  1  0  0  0  0
M  END
>  <cdx:fragmentId>
5

$$$$
