12507.cdx
  Mrv1902 05222410242D          

 10 10  0  0  0  0            999 V2000
    7.1099   -3.7466    0.0000 C   0  0  0  0  0  0  0  0  0  0  0  0
    6.3954   -4.1591    0.0000 C   0  0  0  0  0  0  0  0  0  0  0  0
    5.6810   -3.7466    0.0000 C   0  0  0  0  0  0  0  0  0  0  0  0
    4.9665   -4.1591    0.0000 C   0  0  0  0  0  0  0  0  0  0  0  0
    4.2520   -3.7466    0.0000 C   0  0  0  0  0  0  0  0  0  0  0  0
    4.2520   -2.9216    0.0000 C   0  0  0  0  0  0  0  0  0  0  0  0
    4.9665   -2.5091    0.0000 C   0  0  0  0  0  0  0  0  0  0  0  0
    5.6810   -2.9216    0.0000 C   0  0  0  0  0  0  0  0  0  0  0  0
    3.5376   -2.5091    0.0000 O   0  0  0  0  0  0  0  0  0  0  0  0
    2.8231   -2.9216    0.0000 C   0  0  0  0  0  0  0  0  0  0  0  0
  1  2  2  0  0  0  0
  2  3  1  0  0  0  0
  3  4  1  0  0  0  0
  4  5  2  0  0  0  0
  5  6  1  0  0  0  0
  6  7  2  0  0  0  0
  7  8  1  0  0  0  0
  3  8  2  0  0  0  0
  9 10  1  0  0  0  0
  6  9  1  0  0  0  0
M  END
>  <cdx:groupId>
32

>  <cdx:fragmentId>
5

$$$$
