12517.cdx
  Mrv1902 05222410242D          

 54 58  0  0  0  0            999 V2000
    7.2586   -7.5632    0.0000 O   0  0  0  0  0  0  0  0  0  0  0  0
    6.5815   -7.0918    0.0000 C   0  0  0  0  0  0  0  0  0  0  0  0
    6.8205   -6.3022    0.0000 C   0  0  2  0  0  0  0  0  0  0  0  0
    7.6454   -6.2855    0.0000 C   0  0  1  0  0  0  0  0  0  0  0  0
    7.9161   -7.0649    0.0000 C   0  0  0  0  0  0  0  0  0  0  0  0
    5.8022   -7.3625    0.0000 O   0  0  0  0  0  0  0  0  0  0  0  0
    8.1167   -5.6085    0.0000 C   0  0  0  0  0  0  0  0  0  0  0  0
    8.9388   -5.6781    0.0000 C   0  0  0  0  0  0  0  0  0  0  0  0
    9.2895   -6.4249    0.0000 C   0  0  0  0  0  0  0  0  0  0  0  0
   10.1115   -6.4945    0.0000 C   0  0  0  0  0  0  0  0  0  0  0  0
   10.5829   -5.8174    0.0000 C   0  0  0  0  0  0  0  0  0  0  0  0
   10.2322   -5.0707    0.0000 C   0  0  0  0  0  0  0  0  0  0  0  0
    9.4101   -5.0010    0.0000 C   0  0  0  0  0  0  0  0  0  0  0  0
   10.7035   -4.3936    0.0000 O   0  0  0  0  0  0  0  0  0  0  0  0
   11.5256   -4.4633    0.0000 C   0  0  0  0  0  0  0  0  0  0  0  0
   11.4049   -5.8871    0.0000 O   0  0  0  0  0  0  0  0  0  0  0  0
   11.2843   -7.3109    0.0000 C   0  0  0  0  0  0  0  0  0  0  0  0
   10.4622   -7.2413    0.0000 C   0  0  0  0  0  0  0  0  0  0  0  0
    9.9909   -7.9184    0.0000 C   0  0  0  0  0  0  0  0  0  0  0  0
   11.6350   -8.0577    0.0000 C   0  0  0  0  0  0  0  0  0  0  0  0
   12.4570   -8.1273    0.0000 C   0  0  0  0  0  0  0  0  0  0  0  0
   12.8077   -8.8741    0.0000 C   0  0  0  0  0  0  0  0  0  0  0  0
   12.3364   -9.5512    0.0000 C   0  0  0  0  0  0  0  0  0  0  0  0
   11.5143   -9.4815    0.0000 C   0  0  0  0  0  0  0  0  0  0  0  0
   11.1636   -8.7348    0.0000 C   0  0  0  0  0  0  0  0  0  0  0  0
   13.6298   -8.9438    0.0000 O   0  0  0  0  0  0  0  0  0  0  0  0
   13.9805   -9.6905    0.0000 C   0  0  0  0  0  0  0  0  0  0  0  0
   12.6871  -10.2979    0.0000 O   0  0  0  0  0  0  0  0  0  0  0  0
    9.1688   -7.8487    0.0000 O   0  0  0  0  0  0  0  0  0  0  0  0
   11.7556   -6.6338    0.0000 O   0  0  0  0  0  0  0  0  0  0  0  0
    6.3222   -5.6447    0.0000 C   0  0  0  0  0  0  0  0  0  0  0  0
    5.5037   -5.7475    0.0000 C   0  0  0  0  0  0  0  0  0  0  0  0
    5.1834   -6.5077    0.0000 C   0  0  0  0  0  0  0  0  0  0  0  0
    4.3648   -6.6105    0.0000 C   0  0  0  0  0  0  0  0  0  0  0  0
    3.8665   -5.9530    0.0000 C   0  0  0  0  0  0  0  0  0  0  0  0
    4.1868   -5.1927    0.0000 C   0  0  0  0  0  0  0  0  0  0  0  0
    5.0054   -5.0899    0.0000 C   0  0  0  0  0  0  0  0  0  0  0  0
    3.6885   -4.5352    0.0000 O   0  0  0  0  0  0  0  0  0  0  0  0
    4.0088   -3.7749    0.0000 C   0  0  0  0  0  0  0  0  0  0  0  0
    3.0479   -6.0558    0.0000 O   0  0  0  0  0  0  0  0  0  0  0  0
    3.2260   -7.4736    0.0000 C   0  0  0  0  0  0  0  0  0  0  0  0
    4.0445   -7.3708    0.0000 C   0  0  0  0  0  0  0  0  0  0  0  0
    4.5428   -8.0283    0.0000 C   0  0  0  0  0  0  0  0  0  0  0  0
    2.9057   -8.2339    0.0000 C   0  0  0  0  0  0  0  0  0  0  0  0
    2.0871   -8.3367    0.0000 C   0  0  0  0  0  0  0  0  0  0  0  0
    1.7668   -9.0970    0.0000 C   0  0  0  0  0  0  0  0  0  0  0  0
    2.2651   -9.7545    0.0000 C   0  0  0  0  0  0  0  0  0  0  0  0
    3.0837   -9.6517    0.0000 C   0  0  0  0  0  0  0  0  0  0  0  0
    3.4040   -8.8914    0.0000 C   0  0  0  0  0  0  0  0  0  0  0  0
    0.9483   -9.1997    0.0000 O   0  0  0  0  0  0  0  0  0  0  0  0
    0.6682   -9.9757    0.0000 C   0  0  0  0  0  0  0  0  0  0  0  0
    1.9448  -10.5148    0.0000 O   0  0  0  0  0  0  0  0  0  0  0  0
    5.3614   -7.9256    0.0000 O   0  0  0  0  0  0  0  0  0  0  0  0
    2.7277   -6.8161    0.0000 O   0  0  0  0  0  0  0  0  0  0  0  0
  1  2  1  0  0  0  0
  2  3  1  0  0  0  0
  3  4  1  0  0  0  0
  4  5  1  0  0  0  0
  1  5  1  0  0  0  0
  2  6  2  0  0  0  0
  8  9  1  0  0  0  0
  9 10  2  0  0  0  0
 10 11  1  0  0  0  0
 11 12  2  0  0  0  0
 12 13  1  0  0  0  0
  8 13  2  0  0  0  0
 14 15  1  0  0  0  0
 12 14  1  0  0  0  0
 11 16  1  0  0  0  0
 17 18  1  0  0  0  0
 18 19  1  0  0  0  0
 20 21  1  0  0  0  0
 21 22  2  0  0  0  0
 22 23  1  0  0  0  0
 23 24  2  0  0  0  0
 24 25  1  0  0  0  0
 20 25  2  0  0  0  0
 26 27  1  0  0  0  0
 22 26  1  0  0  0  0
 23 28  1  0  0  0  0
 17 20  1  0  0  0  0
 19 29  1  0  0  0  0
 17 30  1  0  0  0  0
 10 18  1  0  0  0  0
  7  8  1  0  0  0  0
  4  7  1  6  0  0  0
 32 33  1  0  0  0  0
 33 34  2  0  0  0  0
 34 35  1  0  0  0  0
 35 36  2  0  0  0  0
 36 37  1  0  0  0  0
 32 37  2  0  0  0  0
 38 39  1  0  0  0  0
 36 38  1  0  0  0  0
 35 40  1  0  0  0  0
 41 42  1  0  0  0  0
 42 43  1  0  0  0  0
 44 45  1  0  0  0  0
 45 46  2  0  0  0  0
 46 47  1  0  0  0  0
 47 48  2  0  0  0  0
 48 49  1  0  0  0  0
 44 49  2  0  0  0  0
 50 51  1  0  0  0  0
 46 50  1  0  0  0  0
 47 52  1  0  0  0  0
 41 44  1  0  0  0  0
 43 53  1  0  0  0  0
 41 54  1  0  0  0  0
 34 42  1  0  0  0  0
 31 32  1  0  0  0  0
  3 31  1  1  0  0  0
M  END
>  <cdx:fragmentId>
43

$$$$
