12516.cdx
  Mrv1902 05222410252D          

  9  8  0  0  0  0            999 V2000
    4.4921   -4.0089    0.0000 C   0  0  0  0  0  0  0  0  0  0  0  0
    3.7777   -4.4214    0.0000 C   0  0  0  0  0  0  0  0  0  0  0  0
    3.0632   -4.0089    0.0000 C   0  0  0  0  0  0  0  0  0  0  0  0
    3.0632   -3.1839    0.0000 C   0  0  0  0  0  0  0  0  0  0  0  0
    4.4921   -3.1839    0.0000 O   0  0  0  0  0  0  0  0  0  0  0  0
    5.2066   -4.4214    0.0000 O   0  0  0  0  0  0  0  0  0  0  0  0
    2.3487   -4.4214    0.0000 C   0  0  0  0  0  0  0  0  0  0  0  0
    5.9211   -4.0089    0.0000 C   0  0  0  0  0  0  0  0  0  0  0  0
    6.6355   -4.4214    0.0000 C   0  0  0  0  0  0  0  0  0  0  0  0
  1  2  1  0  0  0  0
  2  3  2  0  0  0  0
  3  4  1  0  0  0  0
  1  5  2  0  0  0  0
  1  6  1  0  0  0  0
  3  7  1  0  0  0  0
  8  9  1  0  0  0  0
  6  8  1  0  0  0  0
M  END
>  <cdx:groupId>
28

>  <cdx:fragmentId>
5

$$$$
