12523.cdx
  Mrv1902 05222410222D          

 20 19  0  0  0  0            999 V2000
   11.3266   -2.0133    0.0000 C   0  0  0  0  0  0  0  0  0  0  0  0
   11.3266   -2.8383    0.0000 C   0  0  0  0  0  0  0  0  0  0  0  0
   10.6121   -3.2508    0.0000 C   0  0  0  0  0  0  0  0  0  0  0  0
    9.8976   -2.8383    0.0000 C   0  0  0  0  0  0  0  0  0  0  0  0
    9.1831   -3.2508    0.0000 C   0  0  0  0  0  0  0  0  0  0  0  0
    8.4687   -2.8383    0.0000 C   0  0  0  0  0  0  0  0  0  0  0  0
    7.7542   -3.2508    0.0000 C   0  0  0  0  0  0  0  0  0  0  0  0
    7.0397   -2.8383    0.0000 C   0  0  0  0  0  0  0  0  0  0  0  0
    6.3253   -3.2508    0.0000 C   0  0  0  0  0  0  0  0  0  0  0  0
    5.6108   -2.8383    0.0000 C   0  0  0  0  0  0  0  0  0  0  0  0
    4.8963   -3.2508    0.0000 C   0  0  0  0  0  0  0  0  0  0  0  0
    4.1819   -2.8383    0.0000 C   0  0  0  0  0  0  0  0  0  0  0  0
    3.4674   -3.2508    0.0000 C   0  0  0  0  0  0  0  0  0  0  0  0
    2.7529   -2.8383    0.0000 C   0  0  0  0  0  0  0  0  0  0  0  0
    2.0384   -3.2508    0.0000 C   0  0  0  0  0  0  0  0  0  0  0  0
    1.3240   -2.8383    0.0000 C   0  0  0  0  0  0  0  0  0  0  0  0
    2.7529   -2.0133    0.0000 C   0  0  0  0  0  0  0  0  0  0  0  0
    5.6108   -2.0133    0.0000 C   0  0  0  0  0  0  0  0  0  0  0  0
    8.4687   -2.0133    0.0000 C   0  0  0  0  0  0  0  0  0  0  0  0
   12.0410   -3.2508    0.0000 C   0  0  0  0  0  0  0  0  0  0  0  0
  1  2  1  0  0  0  0
  2  3  1  0  0  0  0
  3  4  1  0  0  0  0
  4  5  1  0  0  0  0
  5  6  1  0  0  0  0
  6  7  1  0  0  0  0
  7  8  1  0  0  0  0
  8  9  1  0  0  0  0
  9 10  1  0  0  0  0
 10 11  1  0  0  0  0
 11 12  1  0  0  0  0
 12 13  1  0  0  0  0
 13 14  1  0  0  0  0
 14 15  1  0  0  0  0
 15 16  1  0  0  0  0
 14 17  1  0  0  0  0
 10 18  1  0  0  0  0
  6 19  1  0  0  0  0
  2 20  1  0  0  0  0
M  END
>  <cdx:groupId>
61

>  <cdx:fragmentId>
5

$$$$
