12526.cdx
  Mrv1902 05222410212D          

 48 52  0  0  0  0            999 V2000
    8.0827   -8.4475    0.0000 C   0  0  1  0  0  0  0  0  0  0  0  0
    7.2577   -8.4525    0.0000 C   0  0  2  0  0  0  0  0  0  0  0  0
    7.0075   -9.2386    0.0000 C   0  0  0  0  0  0  0  0  0  0  0  0
    7.6778   -9.7195    0.0000 O   0  0  0  0  0  0  0  0  0  0  0  0
    8.3423   -9.2305    0.0000 C   0  0  2  0  0  0  0  0  0  0  0  0
    5.9630   -7.9655    0.0000 C   0  0  0  0  0  0  0  0  0  0  0  0
    9.1285   -9.4807    0.0000 C   0  0  0  0  0  0  0  0  0  0  0  0
    9.3049  -10.2867    0.0000 C   0  0  0  0  0  0  0  0  0  0  0  0
   10.0910  -10.5369    0.0000 C   0  0  0  0  0  0  0  0  0  0  0  0
   10.7008   -9.9811    0.0000 C   0  0  0  0  0  0  0  0  0  0  0  0
   10.5244   -9.1752    0.0000 C   0  0  0  0  0  0  0  0  0  0  0  0
    9.7382   -8.9250    0.0000 C   0  0  0  0  0  0  0  0  0  0  0  0
    5.4065   -7.3565    0.0000 C   0  0  0  0  0  0  0  0  0  0  0  0
    4.6008   -7.5340    0.0000 C   0  0  0  0  0  0  0  0  0  0  0  0
    4.3517   -8.3205    0.0000 C   0  0  0  0  0  0  0  0  0  0  0  0
    4.9083   -8.9295    0.0000 C   0  0  0  0  0  0  0  0  0  0  0  0
    5.7139   -8.7520    0.0000 C   0  0  0  0  0  0  0  0  0  0  0  0
    4.6591   -9.7159    0.0000 O   0  0  0  0  0  0  0  0  0  0  0  0
    8.5635   -7.7771    0.0000 C   0  0  0  0  0  0  0  0  0  0  0  0
    8.2039   -7.0347    0.0000 O   0  0  0  0  0  0  0  0  0  0  0  0
   11.4869  -10.2313    0.0000 O   0  0  0  0  0  0  0  0  0  0  0  0
    3.8535   -9.8934    0.0000 C   0  0  0  0  0  0  0  0  0  0  0  0
    3.5460   -8.4980    0.0000 O   0  0  0  0  0  0  0  0  0  0  0  0
   10.2674  -11.3428    0.0000 O   0  0  0  0  0  0  0  0  0  0  0  0
    9.6577  -11.8985    0.0000 C   0  0  0  0  0  0  0  0  0  0  0  0
   11.6353  -11.0429    0.0000 C   0  0  2  0  0  0  0  0  0  0  0  0
   11.0067  -11.5772    0.0000 O   0  0  0  0  0  0  0  0  0  0  0  0
   11.1551  -12.3887    0.0000 C   0  0  1  0  0  0  0  0  0  0  0  0
   11.9321  -12.6660    0.0000 C   0  0  2  0  0  0  0  0  0  0  0  0
   12.5607  -12.1317    0.0000 C   0  0  1  0  0  0  0  0  0  0  0  0
   12.4123  -11.3202    0.0000 C   0  0  1  0  0  0  0  0  0  0  0  0
    2.9979   -7.8813    0.0000 C   0  0  2  0  0  0  0  0  0  0  0  0
    3.2563   -7.0978    0.0000 O   0  0  0  0  0  0  0  0  0  0  0  0
    2.7073   -6.4820    0.0000 C   0  0  1  0  0  0  0  0  0  0  0  0
    1.9001   -6.6496    0.0000 C   0  0  2  0  0  0  0  0  0  0  0  0
    1.6411   -7.4324    0.0000 C   0  0  1  0  0  0  0  0  0  0  0  0
   10.5264  -12.9230    0.0000 C   0  0  0  0  0  0  0  0  0  0  0  0
   13.3377  -12.4090    0.0000 O   0  0  0  0  0  0  0  0  0  0  0  0
   12.0805  -13.4775    0.0000 O   0  0  0  0  0  0  0  0  0  0  0  0
   13.0409  -10.7859    0.0000 O   0  0  0  0  0  0  0  0  0  0  0  0
   10.6748  -13.7345    0.0000 O   0  0  0  0  0  0  0  0  0  0  0  0
    2.1900   -8.0482    0.0000 C   0  0  1  0  0  0  0  0  0  0  0  0
    2.9661   -5.6986    0.0000 C   0  0  0  0  0  0  0  0  0  0  0  0
    0.8332   -7.5997    0.0000 O   0  0  0  0  0  0  0  0  0  0  0  0
    1.9308   -8.8315    0.0000 O   0  0  0  0  0  0  0  0  0  0  0  0
    1.3511   -6.0337    0.0000 O   0  0  0  0  0  0  0  0  0  0  0  0
    2.4171   -5.0828    0.0000 O   0  0  0  0  0  0  0  0  0  0  0  0
    6.7687   -7.7880    0.0000 C   0  0  0  0  0  0  0  0  0  0  0  0
  1  2  1  0  0  0  0
  2  3  1  0  0  0  0
  3  4  1  0  0  0  0
  4  5  1  0  0  0  0
  5  1  1  0  0  0  0
  2 48  1  6  0  0  0
  5  7  1  1  0  0  0
  7  8  2  0  0  0  0
  8  9  1  0  0  0  0
  9 10  2  0  0  0  0
 10 11  1  0  0  0  0
 11 12  2  0  0  0  0
 12  7  1  0  0  0  0
  6 13  2  0  0  0  0
 13 14  1  0  0  0  0
 14 15  2  0  0  0  0
 15 16  1  0  0  0  0
 16 17  2  0  0  0  0
 17  6  1  0  0  0  0
 16 18  1  0  0  0  0
  1 19  1  6  0  0  0
 19 20  1  0  0  0  0
 10 21  1  0  0  0  0
 18 22  1  0  0  0  0
 15 23  1  0  0  0  0
  9 24  1  0  0  0  0
 24 25  1  0  0  0  0
 26 21  1  1  0  0  0
 26 27  1  0  0  0  0
 27 28  1  0  0  0  0
 28 29  1  0  0  0  0
 29 30  1  0  0  0  0
 30 31  1  0  0  0  0
 31 26  1  0  0  0  0
 32 23  1  1  0  0  0
 28 37  1  1  0  0  0
 30 38  1  1  0  0  0
 29 39  1  6  0  0  0
 31 40  1  6  0  0  0
 37 41  1  0  0  0  0
 32 33  1  0  0  0  0
 33 34  1  0  0  0  0
 34 35  1  0  0  0  0
 35 36  1  0  0  0  0
 36 42  1  0  0  0  0
 42 32  1  0  0  0  0
 34 43  1  1  0  0  0
 36 44  1  1  0  0  0
 42 45  1  6  0  0  0
 35 46  1  6  0  0  0
 48  6  1  0  0  0  0
 43 47  1  0  0  0  0
M  END
>  <cdx:fragmentId>
325

$$$$
