12534.cdx
  Mrv1902 05222410232D          

 23 22  0  0  0  0            999 V2000
    0.4898   -4.5994    0.0000 C   0  0  0  0  0  0  0  0  0  0  0  0
    1.2043   -4.1869    0.0000 C   0  0  0  0  0  0  0  0  0  0  0  0
    1.9188   -4.5994    0.0000 C   0  0  0  0  0  0  0  0  0  0  0  0
    2.6332   -4.1869    0.0000 C   0  0  0  0  0  0  0  0  0  0  0  0
    3.3477   -4.5994    0.0000 C   0  0  0  0  0  0  0  0  0  0  0  0
    4.0622   -4.1869    0.0000 C   0  0  0  0  0  0  0  0  0  0  0  0
    4.7766   -4.5994    0.0000 C   0  0  0  0  0  0  0  0  0  0  0  0
    5.4911   -4.1869    0.0000 C   0  0  0  0  0  0  0  0  0  0  0  0
    6.2056   -4.5994    0.0000 C   0  0  0  0  0  0  0  0  0  0  0  0
    6.9201   -4.1869    0.0000 C   0  0  0  0  0  0  0  0  0  0  0  0
    7.6345   -4.5994    0.0000 C   0  0  0  0  0  0  0  0  0  0  0  0
    8.3490   -4.1869    0.0000 C   0  0  0  0  0  0  0  0  0  0  0  0
    9.0635   -4.5994    0.0000 C   0  0  0  0  0  0  0  0  0  0  0  0
    9.7779   -4.1869    0.0000 C   0  0  0  0  0  0  0  0  0  0  0  0
   10.4924   -4.5994    0.0000 C   0  0  0  0  0  0  0  0  0  0  0  0
   11.2069   -4.1869    0.0000 C   0  0  0  0  0  0  0  0  0  0  0  0
   11.9214   -4.5994    0.0000 C   0  0  0  0  0  0  0  0  0  0  0  0
   12.6358   -4.1869    0.0000 C   0  0  0  0  0  0  0  0  0  0  0  0
   13.3503   -4.5994    0.0000 C   0  0  0  0  0  0  0  0  0  0  0  0
   14.0648   -4.1869    0.0000 C   0  0  0  0  0  0  0  0  0  0  0  0
   14.7792   -4.5994    0.0000 C   0  0  0  0  0  0  0  0  0  0  0  0
   15.4937   -4.1869    0.0000 C   0  0  0  0  0  0  0  0  0  0  0  0
   16.2082   -4.5994    0.0000 C   0  0  0  0  0  0  0  0  0  0  0  0
  1  2  1  0  0  0  0
  2  3  1  0  0  0  0
  3  4  1  0  0  0  0
  4  5  1  0  0  0  0
  5  6  1  0  0  0  0
  6  7  1  0  0  0  0
  7  8  1  0  0  0  0
  8  9  1  0  0  0  0
  9 10  1  0  0  0  0
 10 11  1  0  0  0  0
 11 12  1  0  0  0  0
 12 13  1  0  0  0  0
 13 14  1  0  0  0  0
 14 15  1  0  0  0  0
 15 16  1  0  0  0  0
 16 17  1  0  0  0  0
 17 18  1  0  0  0  0
 18 19  1  0  0  0  0
 19 20  1  0  0  0  0
 20 21  1  0  0  0  0
 21 22  1  0  0  0  0
 22 23  1  0  0  0  0
M  END
>  <cdx:groupId>
70

>  <cdx:fragmentId>
5

$$$$
