125379.cdx
  Mrv1902 05222410282D          

 13 13  0  0  0  0            999 V2000
   13.3253  -16.0201    0.0000 N   0  0  0  0  0  0  0  0  0  0  0  0
   13.3253  -15.1951    0.0000 C   0  0  0  0  0  0  0  0  0  0  0  0
   12.6109  -14.7826    0.0000 C   0  0  0  0  0  0  0  0  0  0  0  0
   14.0398  -14.7826    0.0000 C   0  0  0  0  0  0  0  0  0  0  0  0
   14.7543  -15.1951    0.0000 C   0  0  0  0  0  0  0  0  0  0  0  0
   15.4688  -14.7826    0.0000 C   0  0  0  0  0  0  0  0  0  0  0  0
   16.1832  -15.1951    0.0000 C   0  0  0  0  0  0  0  0  0  0  0  0
   16.1832  -16.0201    0.0000 C   0  0  0  0  0  0  0  0  0  0  0  0
   15.4688  -16.4326    0.0000 C   0  0  0  0  0  0  0  0  0  0  0  0
   14.7543  -16.0201    0.0000 C   0  0  0  0  0  0  0  0  0  0  0  0
   16.8977  -16.4326    0.0000 O   0  0  0  0  0  0  0  0  0  0  0  0
   17.6122  -16.0201    0.0000 C   0  0  0  0  0  0  0  0  0  0  0  0
   18.3266  -16.4326    0.0000 C   0  0  0  0  0  0  0  0  0  0  0  0
  1  2  1  0  0  0  0
  2  3  1  0  0  0  0
  2  4  1  0  0  0  0
  4  5  1  0  0  0  0
  5  6  1  0  0  0  0
  6  7  2  0  0  0  0
  7  8  1  0  0  0  0
  8  9  2  0  0  0  0
  9 10  1  0  0  0  0
  5 10  2  0  0  0  0
 12 13  1  0  0  0  0
 11 12  1  0  0  0  0
  8 11  1  0  0  0  0
M  END
>  <cdx:groupId>
5093

>  <cdx:fragmentId>
5057

$$$$
