12533.cdx
  Mrv1902 05222410212D          

 19 18  0  0  0  0            999 V2000
    1.1489   -3.6646    0.0000 C   0  0  0  0  0  0  0  0  0  0  0  0
    1.8634   -4.0771    0.0000 C   0  0  0  0  0  0  0  0  0  0  0  0
    2.5779   -3.6646    0.0000 C   0  0  0  0  0  0  0  0  0  0  0  0
    3.2923   -4.0771    0.0000 C   0  0  0  0  0  0  0  0  0  0  0  0
    4.0068   -3.6646    0.0000 C   0  0  0  0  0  0  0  0  0  0  0  0
    4.7213   -4.0771    0.0000 C   0  0  0  0  0  0  0  0  0  0  0  0
    5.4357   -3.6646    0.0000 C   0  0  0  0  0  0  0  0  0  0  0  0
    6.1502   -4.0771    0.0000 C   0  0  0  0  0  0  0  0  0  0  0  0
    6.8647   -3.6646    0.0000 C   0  0  0  0  0  0  0  0  0  0  0  0
    7.5792   -4.0771    0.0000 C   0  0  0  0  0  0  0  0  0  0  0  0
    8.2936   -3.6646    0.0000 C   0  0  0  0  0  0  0  0  0  0  0  0
    9.0081   -4.0771    0.0000 C   0  0  0  0  0  0  0  0  0  0  0  0
    9.7226   -3.6646    0.0000 C   0  0  0  0  0  0  0  0  0  0  0  0
   10.4370   -4.0771    0.0000 C   0  0  0  0  0  0  0  0  0  0  0  0
   11.1515   -3.6646    0.0000 C   0  0  0  0  0  0  0  0  0  0  0  0
   11.8660   -4.0771    0.0000 C   0  0  0  0  0  0  0  0  0  0  0  0
   12.5805   -3.6646    0.0000 C   0  0  0  0  0  0  0  0  0  0  0  0
   13.2949   -4.0771    0.0000 C   0  0  0  0  0  0  0  0  0  0  0  0
    0.4344   -4.0771    0.0000 O   0  0  0  0  0  0  0  0  0  0  0  0
  1  2  1  0  0  0  0
  2  3  1  0  0  0  0
  3  4  1  0  0  0  0
  4  5  1  0  0  0  0
  5  6  1  0  0  0  0
  6  7  1  0  0  0  0
  7  8  1  0  0  0  0
  8  9  1  0  0  0  0
  9 10  1  0  0  0  0
 10 11  1  0  0  0  0
 11 12  1  0  0  0  0
 12 13  1  0  0  0  0
 13 14  1  0  0  0  0
 14 15  1  0  0  0  0
 15 16  1  0  0  0  0
 16 17  1  0  0  0  0
 17 18  1  0  0  0  0
  1 19  2  0  0  0  0
M  END
>  <cdx:groupId>
58

>  <cdx:fragmentId>
5

$$$$
