12535.cdx
  Mrv1902 05222410222D          

 30 29  0  0  0  0            999 V2000
    0.4642   -3.6094    0.0000 C   0  0  0  0  0  0  0  0  0  0  0  0
    1.1786   -3.1969    0.0000 C   0  0  0  0  0  0  0  0  0  0  0  0
    1.8931   -3.6094    0.0000 C   0  0  0  0  0  0  0  0  0  0  0  0
    2.6076   -3.1969    0.0000 C   0  0  0  0  0  0  0  0  0  0  0  0
    3.3221   -3.6094    0.0000 C   0  0  0  0  0  0  0  0  0  0  0  0
    4.0365   -3.1969    0.0000 C   0  0  0  0  0  0  0  0  0  0  0  0
    4.7510   -3.6094    0.0000 C   0  0  0  0  0  0  0  0  0  0  0  0
    5.4655   -3.1969    0.0000 C   0  0  0  0  0  0  0  0  0  0  0  0
    6.1799   -3.6094    0.0000 C   0  0  0  0  0  0  0  0  0  0  0  0
    6.8944   -3.1969    0.0000 C   0  0  0  0  0  0  0  0  0  0  0  0
    7.6089   -3.6094    0.0000 C   0  0  0  0  0  0  0  0  0  0  0  0
    8.3234   -3.1969    0.0000 C   0  0  0  0  0  0  0  0  0  0  0  0
    9.0378   -3.6094    0.0000 C   0  0  0  0  0  0  0  0  0  0  0  0
    9.7523   -3.1969    0.0000 C   0  0  0  0  0  0  0  0  0  0  0  0
   10.4668   -3.6094    0.0000 C   0  0  0  0  0  0  0  0  0  0  0  0
   11.1812   -3.1969    0.0000 C   0  0  0  0  0  0  0  0  0  0  0  0
   11.8957   -3.6094    0.0000 C   0  0  0  0  0  0  0  0  0  0  0  0
   12.6102   -3.1969    0.0000 C   0  0  0  0  0  0  0  0  0  0  0  0
   13.3246   -3.6094    0.0000 C   0  0  0  0  0  0  0  0  0  0  0  0
   14.0391   -3.1969    0.0000 C   0  0  0  0  0  0  0  0  0  0  0  0
   14.7536   -3.6094    0.0000 C   0  0  0  0  0  0  0  0  0  0  0  0
   15.4681   -3.1969    0.0000 C   0  0  0  0  0  0  0  0  0  0  0  0
   16.1825   -3.6094    0.0000 C   0  0  0  0  0  0  0  0  0  0  0  0
   16.8970   -3.1969    0.0000 C   0  0  0  0  0  0  0  0  0  0  0  0
   17.6115   -3.6094    0.0000 C   0  0  0  0  0  0  0  0  0  0  0  0
   18.3259   -3.1969    0.0000 C   0  0  0  0  0  0  0  0  0  0  0  0
   19.0404   -3.6094    0.0000 C   0  0  0  0  0  0  0  0  0  0  0  0
   19.7549   -3.1969    0.0000 C   0  0  0  0  0  0  0  0  0  0  0  0
   20.4694   -3.6094    0.0000 C   0  0  0  0  0  0  0  0  0  0  0  0
   21.1838   -3.1969    0.0000 C   0  0  0  0  0  0  0  0  0  0  0  0
  1  2  1  0  0  0  0
  2  3  1  0  0  0  0
  3  4  1  0  0  0  0
  4  5  1  0  0  0  0
  5  6  1  0  0  0  0
  6  7  1  0  0  0  0
  7  8  1  0  0  0  0
  8  9  1  0  0  0  0
  9 10  1  0  0  0  0
 10 11  1  0  0  0  0
 11 12  1  0  0  0  0
 12 13  1  0  0  0  0
 13 14  1  0  0  0  0
 14 15  1  0  0  0  0
 15 16  1  0  0  0  0
 16 17  1  0  0  0  0
 17 18  1  0  0  0  0
 18 19  1  0  0  0  0
 19 20  1  0  0  0  0
 20 21  1  0  0  0  0
 21 22  1  0  0  0  0
 22 23  1  0  0  0  0
 23 24  1  0  0  0  0
 24 25  1  0  0  0  0
 25 26  1  0  0  0  0
 26 27  1  0  0  0  0
 27 28  1  0  0  0  0
 28 29  1  0  0  0  0
 29 30  1  0  0  0  0
M  END
>  <cdx:groupId>
91

>  <cdx:fragmentId>
5

$$$$
