12530.cdx
  Mrv1902 05222410202D          

 15 14  0  0  0  0            999 V2000
   10.5657   -3.2871    0.0000 C   0  0  0  0  0  0  0  0  0  0  0  0
    9.8513   -3.6996    0.0000 C   0  0  0  0  0  0  0  0  0  0  0  0
    9.1368   -3.2871    0.0000 C   0  0  0  0  0  0  0  0  0  0  0  0
    8.4223   -3.6996    0.0000 C   0  0  0  0  0  0  0  0  0  0  0  0
    7.7078   -3.2871    0.0000 C   0  0  0  0  0  0  0  0  0  0  0  0
    6.9934   -3.6996    0.0000 C   0  0  0  0  0  0  0  0  0  0  0  0
    6.2789   -3.2871    0.0000 C   0  0  0  0  0  0  0  0  0  0  0  0
    5.5644   -3.6996    0.0000 C   0  0  0  0  0  0  0  0  0  0  0  0
    4.8500   -3.2871    0.0000 C   0  0  0  0  0  0  0  0  0  0  0  0
    4.1355   -3.6996    0.0000 C   0  0  0  0  0  0  0  0  0  0  0  0
    3.4210   -3.2871    0.0000 C   0  0  0  0  0  0  0  0  0  0  0  0
    2.7065   -3.6996    0.0000 C   0  0  0  0  0  0  0  0  0  0  0  0
    1.9921   -3.2871    0.0000 C   0  0  0  0  0  0  0  0  0  0  0  0
   10.5657   -2.4621    0.0000 O   0  0  0  0  0  0  0  0  0  0  0  0
   11.2802   -3.6996    0.0000 O   0  0  0  0  0  0  0  0  0  0  0  0
  1  2  1  0  0  0  0
  2  3  1  0  0  0  0
  3  4  1  0  0  0  0
  4  5  1  0  0  0  0
  5  6  1  0  0  0  0
  6  7  1  0  0  0  0
  7  8  1  0  0  0  0
  8  9  1  0  0  0  0
  9 10  1  0  0  0  0
 10 11  1  0  0  0  0
 11 12  1  0  0  0  0
 12 13  1  0  0  0  0
  1 14  2  0  0  0  0
  1 15  1  0  0  0  0
M  END
>  <cdx:groupId>
46

>  <cdx:fragmentId>
5

$$$$
