12548.cdx
  Mrv1902 05222410272D          

 21 23  0  0  0  0            999 V2000
    6.4728   -2.5033    0.0000 C   0  0  0  0  0  0  0  0  0  0  0  0
    7.1873   -2.9158    0.0000 C   0  0  0  0  0  0  0  0  0  0  0  0
    7.1873   -3.7408    0.0000 C   0  0  0  0  0  0  0  0  0  0  0  0
    6.4728   -4.1533    0.0000 C   0  0  0  0  0  0  0  0  0  0  0  0
    5.7584   -3.7408    0.0000 C   0  0  0  0  0  0  0  0  0  0  0  0
    5.0439   -4.1533    0.0000 C   0  0  0  0  0  0  0  0  0  0  0  0
    4.3294   -3.7408    0.0000 C   0  0  0  0  0  0  0  0  0  0  0  0
    3.6149   -4.1533    0.0000 C   0  0  0  0  0  0  0  0  0  0  0  0
    2.9005   -3.7408    0.0000 C   0  0  0  0  0  0  0  0  0  0  0  0
    2.9005   -2.9158    0.0000 C   0  0  0  0  0  0  0  0  0  0  0  0
    3.6149   -2.5033    0.0000 C   0  0  0  0  0  0  0  0  0  0  0  0
    4.3294   -2.9158    0.0000 C   0  0  0  0  0  0  0  0  0  0  0  0
    5.0439   -2.5033    0.0000 C   0  0  0  0  0  0  0  0  0  0  0  0
    5.7584   -2.9158    0.0000 C   0  0  0  0  0  0  0  0  0  0  0  0
    5.0439   -1.6783    0.0000 O   0  0  0  0  0  0  0  0  0  0  0  0
    5.0439   -4.9783    0.0000 O   0  0  0  0  0  0  0  0  0  0  0  0
    2.1860   -4.1533    0.0000 C   0  0  0  0  0  0  0  0  0  0  0  0
    3.6149   -1.6783    0.0000 O   0  0  0  0  0  0  0  0  0  0  0  0
    7.9018   -4.1533    0.0000 O   0  0  0  0  0  0  0  0  0  0  0  0
    7.9018   -2.5033    0.0000 O   0  0  0  0  0  0  0  0  0  0  0  0
    6.4728   -1.6783    0.0000 O   0  0  0  0  0  0  0  0  0  0  0  0
  1  2  1  0  0  0  0
  2  3  2  0  0  0  0
  3  4  1  0  0  0  0
  4  5  2  0  0  0  0
  5  6  1  0  0  0  0
  6  7  1  0  0  0  0
  7  8  1  0  0  0  0
  8  9  2  0  0  0  0
  9 10  1  0  0  0  0
 10 11  2  0  0  0  0
 11 12  1  0  0  0  0
  7 12  2  0  0  0  0
 12 13  1  0  0  0  0
 13 14  1  0  0  0  0
  5 14  1  0  0  0  0
  1 14  2  0  0  0  0
 13 15  2  0  0  0  0
  6 16  2  0  0  0  0
  9 17  1  0  0  0  0
 11 18  1  0  0  0  0
  3 19  1  0  0  0  0
  2 20  1  0  0  0  0
  1 21  1  0  0  0  0
M  END
>  <cdx:groupId>
67

>  <cdx:fragmentId>
5

$$$$
