125468.cdx
  Mrv1902 05222410262D          

  7  6  0  0  0  0            999 V2000
   15.8689  -15.6382    0.0000 C   0  0  0  0  0  0  0  0  0  0  0  0
   15.1545  -16.0507    0.0000 C   0  0  0  0  0  0  0  0  0  0  0  0
   14.4400  -15.6382    0.0000 C   0  0  0  0  0  0  0  0  0  0  0  0
   13.7255  -16.0507    0.0000 C   0  0  0  0  0  0  0  0  0  0  0  0
   15.8689  -14.8132    0.0000 O   0  0  0  0  0  0  0  0  0  0  0  0
   16.5834  -16.0507    0.0000 O   0  0  0  0  0  0  0  0  0  0  0  0
   15.1545  -16.8757    0.0000 C   0  0  0  0  0  0  0  0  0  0  0  0
  1  2  1  0  0  0  0
  2  3  2  0  0  0  0
  3  4  1  0  0  0  0
  1  5  2  0  0  0  0
  1  6  1  0  0  0  0
  2  7  1  0  0  0  0
M  END
>  <cdx:groupId>
5117

>  <cdx:fragmentId>
5100

$$$$
