12545.cdx
  Mrv1902 05222410192D          

  9  9  0  0  0  0            999 V2000
    6.2877   -6.3791    0.0000 C   0  0  0  0  0  0  0  0  0  0  0  0
    6.0333   -7.1639    0.0000 C   0  0  0  0  0  0  0  0  0  0  0  0
    6.7011   -7.6483    0.0000 O   0  0  0  0  0  0  0  0  0  0  0  0
    7.3682   -7.1629    0.0000 C   0  0  0  0  0  0  0  0  0  0  0  0
    7.1127   -6.3785    0.0000 C   0  0  0  0  0  0  0  0  0  0  0  0
    5.2364   -7.3774    0.0000 O   0  0  0  0  0  0  0  0  0  0  0  0
    8.1651   -6.9494    0.0000 C   0  0  0  0  0  0  0  0  0  0  0  0
    7.7807   -7.8774    0.0000 C   0  0  0  0  0  0  0  0  0  0  0  0
    7.1973   -8.4607    0.0000 C   0  0  0  0  0  0  0  0  0  0  0  0
  1  2  1  0  0  0  0
  2  3  1  0  0  0  0
  3  4  1  0  0  0  0
  4  5  1  0  0  0  0
  5  1  1  0  0  0  0
  2  6  2  0  0  0  0
  4  7  1  0  0  0  0
  4  8  1  0  0  0  0
  8  9  2  0  0  0  0
M  END
>  <cdx:fragmentId>
5

$$$$
