1255.cdx
  Mrv1902 05222410192D          

 12 12  0  0  0  0            999 V2000
    6.5875   -5.5846    0.0000 C   0  0  1  0  0  0  0  0  0  0  0  0
    7.2967   -6.0060    0.0000 C   0  0  1  0  0  0  0  0  0  0  0  0
    8.0163   -5.6026    0.0000 C   0  0  2  0  0  0  0  0  0  0  0  0
    8.0267   -4.7776    0.0000 C   0  0  2  0  0  0  0  0  0  0  0  0
    7.3175   -4.3562    0.0000 O   0  0  0  0  0  0  0  0  0  0  0  0
    6.5978   -4.7596    0.0000 C   0  0  2  0  0  0  0  0  0  0  0  0
    5.8886   -4.3382    0.0000 C   0  0  0  0  0  0  0  0  0  0  0  0
    5.8679   -5.9880    0.0000 O   0  0  0  0  0  0  0  0  0  0  0  0
    8.7463   -4.3741    0.0000 O   0  0  0  0  0  0  0  0  0  0  0  0
    8.7255   -6.0240    0.0000 O   0  0  0  0  0  0  0  0  0  0  0  0
    5.1690   -4.7416    0.0000 O   0  0  0  0  0  0  0  0  0  0  0  0
    7.2863   -6.8310    0.0000 O   0  0  0  0  0  0  0  0  0  0  0  0
  1  2  1  0  0  0  0
  2  3  1  0  0  0  0
  3  4  1  0  0  0  0
  4  5  1  0  0  0  0
  5  6  1  0  0  0  0
  6  1  1  0  0  0  0
  6  7  1  1  0  0  0
  1  8  1  6  0  0  0
  4  9  1  6  0  0  0
  3 10  1  6  0  0  0
  7 11  1  0  0  0  0
  2 12  1  1  0  0  0
M  END
>  <cdx:fragmentId>
5

$$$$
