12565.cdx
  Mrv1902 05222410262D          

 16 17  0  0  0  0            999 V2000
    6.5565   -2.8425    0.0000 C   0  0  0  0  0  0  0  0  0  0  0  0
    6.5565   -3.6675    0.0000 C   0  0  0  0  0  0  0  0  0  0  0  0
    5.8420   -4.0800    0.0000 C   0  0  0  0  0  0  0  0  0  0  0  0
    5.1275   -3.6675    0.0000 C   0  0  0  0  0  0  0  0  0  0  0  0
    4.4131   -4.0800    0.0000 C   0  0  0  0  0  0  0  0  0  0  0  0
    3.6986   -3.6675    0.0000 C   0  0  0  0  0  0  0  0  0  0  0  0
    3.6986   -2.8425    0.0000 C   0  0  0  0  0  0  0  0  0  0  0  0
    4.4131   -2.4300    0.0000 C   0  0  0  0  0  0  0  0  0  0  0  0
    5.1275   -2.8425    0.0000 C   0  0  0  0  0  0  0  0  0  0  0  0
    5.8420   -2.4300    0.0000 O   0  0  0  0  0  0  0  0  0  0  0  0
    6.9690   -2.1281    0.0000 C   0  0  0  0  0  0  0  0  0  0  0  0
    7.3815   -2.8425    0.0000 C   0  0  0  0  0  0  0  0  0  0  0  0
    2.9841   -2.4300    0.0000 O   0  0  0  0  0  0  0  0  0  0  0  0
    2.2696   -2.8425    0.0000 C   0  0  0  0  0  0  0  0  0  0  0  0
    2.9841   -4.0800    0.0000 O   0  0  0  0  0  0  0  0  0  0  0  0
    2.2696   -3.6675    0.0000 C   0  0  0  0  0  0  0  0  0  0  0  0
  1  2  1  0  0  0  0
  2  3  2  0  0  0  0
  3  4  1  0  0  0  0
  4  5  1  0  0  0  0
  5  6  2  0  0  0  0
  6  7  1  0  0  0  0
  7  8  2  0  0  0  0
  8  9  1  0  0  0  0
  4  9  2  0  0  0  0
  9 10  1  0  0  0  0
  1 10  1  0  0  0  0
  1 11  1  0  0  0  0
  1 12  1  0  0  0  0
 13 14  1  0  0  0  0
  7 13  1  0  0  0  0
 15 16  1  0  0  0  0
  6 15  1  0  0  0  0
M  END
>  <cdx:groupId>
51

>  <cdx:fragmentId>
5

$$$$
