12560.cdx
  Mrv1902 05222410272D          

 21 24  0  0  0  0            999 V2000
    4.5202   -9.3225    0.0000 C   0  0  0  0  0  0  0  0  0  0  0  0
    4.5202  -10.1475    0.0000 C   0  0  0  0  0  0  0  0  0  0  0  0
    5.2346  -10.5600    0.0000 C   0  0  0  0  0  0  0  0  0  0  0  0
    5.9491  -10.1475    0.0000 N   0  3  2  0  0  0  0  0  0  0  0  0
    5.9491   -9.3225    0.0000 C   0  0  1  0  0  0  0  0  0  0  0  0
    5.2346   -8.9100    0.0000 C   0  0  2  0  0  0  0  0  0  0  0  0
    6.6636  -10.5600    0.0000 C   0  0  0  0  0  0  0  0  0  0  0  0
    7.3780  -10.1475    0.0000 C   0  0  0  0  0  0  0  0  0  0  0  0
    7.3780   -9.3225    0.0000 C   0  0  0  0  0  0  0  0  0  0  0  0
    6.6636   -8.9100    0.0000 C   0  0  0  0  0  0  0  0  0  0  0  0
    6.6636   -8.0850    0.0000 C   0  0  0  0  0  0  0  0  0  0  0  0
    5.9491   -7.6725    0.0000 N   0  0  0  0  0  0  0  0  0  0  0  0
    5.2346   -8.0850    0.0000 C   0  0  0  0  0  0  0  0  0  0  0  0
    7.3780   -7.6725    0.0000 C   0  0  0  0  0  0  0  0  0  0  0  0
    7.3780   -6.8475    0.0000 C   0  0  0  0  0  0  0  0  0  0  0  0
    6.6636   -6.4350    0.0000 C   0  0  0  0  0  0  0  0  0  0  0  0
    5.9491   -6.8475    0.0000 C   0  0  0  0  0  0  0  0  0  0  0  0
    5.2346   -6.4350    0.0000 O   0  0  0  0  0  0  0  0  0  0  0  0
    5.2346   -9.7350    0.0000 H   0  0  0  0  0  0  0  0  0  0  0  0
    5.9491   -8.4975    0.0000 H   0  0  0  0  0  0  0  0  0  0  0  0
    5.9491  -10.9725    0.0000 O   0  5  0  0  0  0  0  0  0  0  0  0
  1  2  1  0  0  0  0
  2  3  1  0  0  0  0
  3  4  1  0  0  0  0
  4  5  1  0  0  0  0
  5  6  1  0  0  0  0
  6  1  1  0  0  0  0
  4  7  1  0  0  0  0
  7  8  1  0  0  0  0
  8  9  1  0  0  0  0
  9 10  1  0  0  0  0
 10  5  1  0  0  0  0
 10 11  2  0  0  0  0
 11 12  1  0  0  0  0
 12 13  1  0  0  0  0
 13  6  1  0  0  0  0
 11 14  1  0  0  0  0
 14 15  1  0  0  0  0
 15 16  1  0  0  0  0
 16 17  1  0  0  0  0
 17 12  1  0  0  0  0
 17 18  2  0  0  0  0
  6 19  1  6  0  0  0
  5 20  1  6  0  0  0
  4 21  1  1  0  0  0
M  CHG  2   4   1  21  -1
M  END
>  <cdx:fragmentId>
5

$$$$
