12578.cdx
  Mrv1902 05222410182D          

 21 22  0  0  0  0            999 V2000
    5.7370   -9.8381    0.0000 C   0  0  0  0  0  0  0  0  0  0  0  0
    5.7370  -10.6631    0.0000 C   0  0  0  0  0  0  0  0  0  0  0  0
    6.4515  -11.0756    0.0000 C   0  0  0  0  0  0  0  0  0  0  0  0
    7.1660  -10.6631    0.0000 C   0  0  0  0  0  0  0  0  0  0  0  0
    7.1660   -9.8381    0.0000 C   0  0  0  0  0  0  0  0  0  0  0  0
    6.4515   -9.4256    0.0000 C   0  0  0  0  0  0  0  0  0  0  0  0
    7.1660   -8.1881    0.0000 C   0  0  0  0  0  0  0  0  0  0  0  0
    6.4515   -8.6006    0.0000 C   0  0  0  0  0  0  0  0  0  0  0  0
    8.5949   -7.3631    0.0000 C   0  0  0  0  0  0  0  0  0  0  0  0
    7.8804   -6.9506    0.0000 C   0  0  0  0  0  0  0  0  0  0  0  0
    7.1660   -7.3631    0.0000 C   0  0  0  0  0  0  0  0  0  0  0  0
    9.3094   -6.9506    0.0000 C   0  0  0  0  0  0  0  0  0  0  0  0
    9.3094   -6.1256    0.0000 C   0  0  0  0  0  0  0  0  0  0  0  0
    8.5949   -5.7131    0.0000 C   0  0  0  0  0  0  0  0  0  0  0  0
    7.8804   -6.1256    0.0000 C   0  0  0  0  0  0  0  0  0  0  0  0
    6.4515  -11.9006    0.0000 O   0  0  0  0  0  0  0  0  0  0  0  0
    5.0226  -11.0756    0.0000 O   0  0  0  0  0  0  0  0  0  0  0  0
    5.0226   -9.4256    0.0000 O   0  0  0  0  0  0  0  0  0  0  0  0
    4.3081   -9.8381    0.0000 C   0  0  0  0  0  0  0  0  0  0  0  0
    6.4515   -6.9506    0.0000 O   0  0  0  0  0  0  0  0  0  0  0  0
   10.0239   -5.7131    0.0000 O   0  0  0  0  0  0  0  0  0  0  0  0
  1  2  2  0  0  0  0
  2  3  1  0  0  0  0
  3  4  2  0  0  0  0
  4  5  1  0  0  0  0
  5  6  2  0  0  0  0
  6  1  1  0  0  0  0
  7  8  2  0  0  0  0
  8  6  1  0  0  0  0
  9 10  2  0  0  0  0
 10 11  1  0  0  0  0
 11  7  1  0  0  0  0
  9 12  1  0  0  0  0
 12 13  2  0  0  0  0
 13 14  1  0  0  0  0
 14 15  2  0  0  0  0
 15 10  1  0  0  0  0
  3 16  1  0  0  0  0
  2 17  1  0  0  0  0
  1 18  1  0  0  0  0
 18 19  1  0  0  0  0
 11 20  2  0  0  0  0
 13 21  1  0  0  0  0
M  END
>  <cdx:fragmentId>
5

$$$$
