12575.cdx
  Mrv1902 05222410272D          

 12 12  0  0  0  0            999 V2000
    6.4316   -2.8746    0.0000 C   0  0  0  0  0  0  0  0  0  0  0  0
    5.7171   -3.2871    0.0000 C   0  0  0  0  0  0  0  0  0  0  0  0
    5.0026   -2.8746    0.0000 C   0  0  0  0  0  0  0  0  0  0  0  0
    4.2882   -3.2871    0.0000 C   0  0  0  0  0  0  0  0  0  0  0  0
    4.2882   -4.1121    0.0000 C   0  0  0  0  0  0  0  0  0  0  0  0
    5.0026   -4.5246    0.0000 C   0  0  0  0  0  0  0  0  0  0  0  0
    5.7171   -4.1121    0.0000 C   0  0  0  0  0  0  0  0  0  0  0  0
    6.4316   -2.0496    0.0000 O   0  0  0  0  0  0  0  0  0  0  0  0
    7.1461   -3.2871    0.0000 O   0  0  0  0  0  0  0  0  0  0  0  0
    3.5737   -4.5246    0.0000 O   0  0  0  0  0  0  0  0  0  0  0  0
    2.8592   -4.1121    0.0000 C   0  0  0  0  0  0  0  0  0  0  0  0
    3.5737   -2.8746    0.0000 O   0  0  0  0  0  0  0  0  0  0  0  0
  1  2  1  0  0  0  0
  2  3  1  0  0  0  0
  3  4  2  0  0  0  0
  4  5  1  0  0  0  0
  5  6  2  0  0  0  0
  6  7  1  0  0  0  0
  2  7  2  0  0  0  0
  1  8  2  0  0  0  0
  1  9  1  0  0  0  0
 10 11  1  0  0  0  0
  5 10  1  0  0  0  0
  4 12  1  0  0  0  0
M  END
>  <cdx:groupId>
38

>  <cdx:fragmentId>
5

$$$$
