12573.cdx
  Mrv1902 05222410262D          

 24 27  0  0  0  0            999 V2000
    3.6556   -6.5026    0.0000 C   0  0  0  0  0  0  0  0  0  0  0  0
    5.0845   -7.3276    0.0000 C   0  0  0  0  0  0  0  0  0  0  0  0
    5.0845   -6.5026    0.0000 C   0  0  0  0  0  0  0  0  0  0  0  0
    4.3700   -6.0901    0.0000 C   0  0  0  0  0  0  0  0  0  0  0  0
    5.7990   -7.7401    0.0000 C   0  0  0  0  0  0  0  0  0  0  0  0
    6.5134   -7.3276    0.0000 C   0  0  0  0  0  0  0  0  0  0  0  0
    6.5134   -6.5026    0.0000 C   0  0  0  0  0  0  0  0  0  0  0  0
    5.7990   -6.0901    0.0000 C   0  0  0  0  0  0  0  0  0  0  0  0
    7.2981   -7.5826    0.0000 O   0  0  0  0  0  0  0  0  0  0  0  0
    7.7830   -6.9151    0.0000 C   0  0  2  0  0  0  0  0  0  0  0  0
    7.2981   -6.2477    0.0000 C   0  0  2  0  0  0  0  0  0  0  0  0
    8.6080   -6.9151    0.0000 C   0  0  0  0  0  0  0  0  0  0  0  0
    9.0205   -7.6296    0.0000 C   0  0  0  0  0  0  0  0  0  0  0  0
    9.8455   -7.6296    0.0000 C   0  0  0  0  0  0  0  0  0  0  0  0
   10.2580   -6.9151    0.0000 C   0  0  0  0  0  0  0  0  0  0  0  0
    9.8455   -6.2007    0.0000 C   0  0  0  0  0  0  0  0  0  0  0  0
    9.0205   -6.2007    0.0000 C   0  0  0  0  0  0  0  0  0  0  0  0
    2.9411   -6.0901    0.0000 C   0  0  0  0  0  0  0  0  0  0  0  0
    5.7990   -8.5651    0.0000 O   0  0  0  0  0  0  0  0  0  0  0  0
    5.0845   -8.9776    0.0000 C   0  0  0  0  0  0  0  0  0  0  0  0
   10.3975   -8.2427    0.0000 O   0  0  0  0  0  0  0  0  0  0  0  0
   11.1512   -7.9072    0.0000 C   0  0  0  0  0  0  0  0  0  0  0  0
   11.0650   -7.0867    0.0000 O   0  0  0  0  0  0  0  0  0  0  0  0
    7.5530   -5.4631    0.0000 C   0  0  0  0  0  0  0  0  0  0  0  0
  2  3  2  0  0  0  0
  3  4  1  0  0  0  0
  4  1  2  0  0  0  0
  2  5  1  0  0  0  0
  5  6  2  0  0  0  0
  6  7  1  0  0  0  0
  7  8  2  0  0  0  0
  8  3  1  0  0  0  0
  6  9  1  0  0  0  0
  9 10  1  0  0  0  0
 10 11  1  0  0  0  0
 11  7  1  0  0  0  0
 10 12  1  6  0  0  0
 12 13  2  0  0  0  0
 13 14  1  0  0  0  0
 14 15  2  0  0  0  0
 15 16  1  0  0  0  0
 16 17  2  0  0  0  0
 17 12  1  0  0  0  0
  1 18  1  0  0  0  0
  5 19  1  0  0  0  0
 19 20  1  0  0  0  0
 14 21  1  0  0  0  0
 21 22  1  0  0  0  0
 22 23  1  0  0  0  0
 23 15  1  0  0  0  0
 11 24  1  1  0  0  0
M  END
>  <cdx:fragmentId>
5

$$$$
