12577.cdx
  Mrv1902 05222410282D          

 25 26  0  0  0  0            999 V2000
    3.0764   -6.4144    0.0000 C   0  0  0  0  0  0  0  0  0  0  0  0
    3.0764   -7.2394    0.0000 C   0  0  0  0  0  0  0  0  0  0  0  0
    3.7909   -7.6519    0.0000 C   0  0  0  0  0  0  0  0  0  0  0  0
    4.5053   -7.2394    0.0000 C   0  0  0  0  0  0  0  0  0  0  0  0
    4.5053   -6.4144    0.0000 C   0  0  0  0  0  0  0  0  0  0  0  0
    3.7909   -6.0019    0.0000 C   0  0  0  0  0  0  0  0  0  0  0  0
    5.2198   -7.6519    0.0000 C   0  0  0  0  0  0  0  0  0  0  0  0
    5.9343   -7.2394    0.0000 C   0  0  0  0  0  0  0  0  0  0  0  0
    6.6488   -7.6519    0.0000 C   0  0  0  0  0  0  0  0  0  0  0  0
    7.3632   -7.2394    0.0000 C   0  0  0  0  0  0  0  0  0  0  0  0
    7.3632   -6.4144    0.0000 C   0  0  0  0  0  0  0  0  0  0  0  0
    8.0777   -7.6519    0.0000 C   0  0  0  0  0  0  0  0  0  0  0  0
    8.7922   -7.2394    0.0000 C   0  0  0  0  0  0  0  0  0  0  0  0
    8.7922   -6.4144    0.0000 C   0  0  0  0  0  0  0  0  0  0  0  0
    8.0777   -6.0019    0.0000 C   0  0  0  0  0  0  0  0  0  0  0  0
    3.7909   -5.1769    0.0000 C   0  0  0  0  0  0  0  0  0  0  0  0
    2.3619   -6.0019    0.0000 O   0  0  0  0  0  0  0  0  0  0  0  0
    9.5066   -6.0019    0.0000 O   0  0  0  0  0  0  0  0  0  0  0  0
    6.6488   -8.4769    0.0000 O   0  0  0  0  0  0  0  0  0  0  0  0
    3.7909   -8.4769    0.0000 O   0  0  0  0  0  0  0  0  0  0  0  0
    3.0764   -8.8894    0.0000 C   0  0  0  0  0  0  0  0  0  0  0  0
    4.6159   -5.1769    0.0000 C   0  0  0  0  0  0  0  0  0  0  0  0
    2.9659   -5.1769    0.0000 C   0  0  0  0  0  0  0  0  0  0  0  0
    3.7909   -4.3519    0.0000 C   0  0  0  0  0  0  0  0  0  0  0  0
    4.5053   -3.9394    0.0000 C   0  0  0  0  0  0  0  0  0  0  0  0
  1  2  2  0  0  0  0
  2  3  1  0  0  0  0
  3  4  2  0  0  0  0
  4  5  1  0  0  0  0
  5  6  2  0  0  0  0
  6  1  1  0  0  0  0
  4  7  1  0  0  0  0
  7  8  2  0  0  0  0
  8  9  1  0  0  0  0
  9 10  1  0  0  0  0
 10 11  2  0  0  0  0
 10 12  1  0  0  0  0
 12 13  2  0  0  0  0
 13 14  1  0  0  0  0
 14 15  2  0  0  0  0
 15 11  1  0  0  0  0
  6 16  1  0  0  0  0
 17  1  1  0  0  0  0
 14 18  1  0  0  0  0
  9 19  2  0  0  0  0
  3 20  1  0  0  0  0
 20 21  1  0  0  0  0
 16 22  1  0  0  0  0
 16 23  1  0  0  0  0
 16 24  1  0  0  0  0
 24 25  2  0  0  0  0
M  END
>  <cdx:fragmentId>
5

$$$$
