125777.cdx
  Mrv1902 05222410192D          

 26 27  0  0  0  0            999 V2000
    4.1764   -6.4419    0.0000 C   0  0  0  0  0  0  0  0  0  0  0  0
    4.1764   -7.2669    0.0000 C   0  0  0  0  0  0  0  0  0  0  0  0
    4.8909   -7.6794    0.0000 C   0  0  0  0  0  0  0  0  0  0  0  0
    5.6053   -7.2669    0.0000 C   0  0  0  0  0  0  0  0  0  0  0  0
    5.6053   -6.4419    0.0000 C   0  0  0  0  0  0  0  0  0  0  0  0
    4.8909   -6.0294    0.0000 C   0  0  0  0  0  0  0  0  0  0  0  0
    6.3198   -7.6794    0.0000 C   0  0  0  0  0  0  0  0  0  0  0  0
    7.0343   -7.2669    0.0000 C   0  0  0  0  0  0  0  0  0  0  0  0
    7.7488   -7.6794    0.0000 C   0  0  0  0  0  0  0  0  0  0  0  0
    8.4632   -7.2669    0.0000 C   0  0  0  0  0  0  0  0  0  0  0  0
    8.4632   -6.4419    0.0000 C   0  0  0  0  0  0  0  0  0  0  0  0
    9.1777   -7.6794    0.0000 C   0  0  0  0  0  0  0  0  0  0  0  0
    9.8922   -7.2669    0.0000 C   0  0  0  0  0  0  0  0  0  0  0  0
    9.8922   -6.4419    0.0000 C   0  0  0  0  0  0  0  0  0  0  0  0
    9.1777   -6.0294    0.0000 C   0  0  0  0  0  0  0  0  0  0  0  0
    4.8909   -5.2044    0.0000 C   0  0  0  0  0  0  0  0  0  0  0  0
    3.4619   -6.0294    0.0000 O   0  0  0  0  0  0  0  0  0  0  0  0
   10.6066   -6.0294    0.0000 O   0  0  0  0  0  0  0  0  0  0  0  0
    7.7488   -8.5044    0.0000 O   0  0  0  0  0  0  0  0  0  0  0  0
    4.8909   -8.5044    0.0000 O   0  0  0  0  0  0  0  0  0  0  0  0
    4.1764   -8.9169    0.0000 C   0  0  0  0  0  0  0  0  0  0  0  0
    5.7159   -5.2044    0.0000 C   0  0  0  0  0  0  0  0  0  0  0  0
    4.0659   -5.2044    0.0000 C   0  0  0  0  0  0  0  0  0  0  0  0
    4.8909   -4.3794    0.0000 C   0  0  0  0  0  0  0  0  0  0  0  0
    5.6053   -3.9669    0.0000 C   0  0  0  0  0  0  0  0  0  0  0  0
    3.4619   -7.6794    0.0000 O   0  0  0  0  0  0  0  0  0  0  0  0
  1  2  2  0  0  0  0
  2  3  1  0  0  0  0
  3  4  2  0  0  0  0
  4  5  1  0  0  0  0
  5  6  2  0  0  0  0
  6  1  1  0  0  0  0
  4  7  1  0  0  0  0
  7  8  2  0  0  0  0
  8  9  1  0  0  0  0
  9 10  1  0  0  0  0
 10 11  2  0  0  0  0
 10 12  1  0  0  0  0
 12 13  2  0  0  0  0
 13 14  1  0  0  0  0
 14 15  2  0  0  0  0
 15 11  1  0  0  0  0
  6 16  1  0  0  0  0
 17  1  1  0  0  0  0
 14 18  1  0  0  0  0
  9 19  2  0  0  0  0
  3 20  1  0  0  0  0
 20 21  1  0  0  0  0
 16 22  1  0  0  0  0
 16 23  1  0  0  0  0
 16 24  1  0  0  0  0
 24 25  2  0  0  0  0
  2 26  1  0  0  0  0
M  END
>  <cdx:fragmentId>
5

$$$$
