12574.cdx
  Mrv1902 05222410272D          

 26 28  0  0  0  0            999 V2000
    7.0556   -6.2698    0.0000 O   0  0  0  0  0  0  0  0  0  0  0  0
    7.5405   -5.6024    0.0000 C   0  0  0  0  0  0  0  0  0  0  0  0
    7.0556   -4.9349    0.0000 C   0  0  0  0  0  0  0  0  0  0  0  0
    6.2710   -5.1899    0.0000 C   0  0  0  0  0  0  0  0  0  0  0  0
    5.5565   -4.7774    0.0000 C   0  0  0  0  0  0  0  0  0  0  0  0
    4.8420   -5.1899    0.0000 C   0  0  0  0  0  0  0  0  0  0  0  0
    4.8420   -6.0149    0.0000 C   0  0  0  0  0  0  0  0  0  0  0  0
    5.5565   -6.4274    0.0000 C   0  0  0  0  0  0  0  0  0  0  0  0
    6.2710   -6.0149    0.0000 C   0  0  0  0  0  0  0  0  0  0  0  0
    7.3105   -4.1503    0.0000 O   0  0  0  0  0  0  0  0  0  0  0  0
    4.1276   -6.4274    0.0000 O   0  0  0  0  0  0  0  0  0  0  0  0
    3.4131   -6.0149    0.0000 C   0  0  0  0  0  0  0  0  0  0  0  0
    4.1276   -4.7774    0.0000 O   0  0  0  0  0  0  0  0  0  0  0  0
    3.4131   -5.1899    0.0000 C   0  0  0  0  0  0  0  0  0  0  0  0
    8.3655   -5.6024    0.0000 C   0  0  0  0  0  0  0  0  0  0  0  0
    8.7780   -4.8879    0.0000 C   0  0  0  0  0  0  0  0  0  0  0  0
    9.6030   -4.8879    0.0000 C   0  0  0  0  0  0  0  0  0  0  0  0
   10.0155   -5.6024    0.0000 C   0  0  0  0  0  0  0  0  0  0  0  0
    9.6030   -6.3168    0.0000 C   0  0  0  0  0  0  0  0  0  0  0  0
    8.7780   -6.3168    0.0000 C   0  0  0  0  0  0  0  0  0  0  0  0
   10.0155   -4.1734    0.0000 C   0  0  0  0  0  0  0  0  0  0  0  0
   10.8405   -4.1734    0.0000 C   0  0  0  0  0  0  0  0  0  0  0  0
   11.2530   -3.4589    0.0000 C   0  0  0  0  0  0  0  0  0  0  0  0
   10.8405   -2.7445    0.0000 C   0  0  0  0  0  0  0  0  0  0  0  0
   12.0780   -3.4589    0.0000 C   0  0  0  0  0  0  0  0  0  0  0  0
   10.8405   -5.6024    0.0000 O   0  0  0  0  0  0  0  0  0  0  0  0
  1  2  1  0  0  0  0
  2  3  2  0  0  0  0
  3  4  1  0  0  0  0
  4  5  1  0  0  0  0
  5  6  2  0  0  0  0
  6  7  1  0  0  0  0
  7  8  2  0  0  0  0
  8  9  1  0  0  0  0
  4  9  2  0  0  0  0
  1  9  1  0  0  0  0
  3 10  1  0  0  0  0
 11 12  1  0  0  0  0
  7 11  1  0  0  0  0
 13 14  1  0  0  0  0
  6 13  1  0  0  0  0
 15 16  1  0  0  0  0
 16 17  2  0  0  0  0
 17 18  1  0  0  0  0
 18 19  2  0  0  0  0
 19 20  1  0  0  0  0
 15 20  2  0  0  0  0
 21 22  1  0  0  0  0
 22 23  2  0  0  0  0
 23 24  1  0  0  0  0
 23 25  1  0  0  0  0
 17 21  1  0  0  0  0
 18 26  1  0  0  0  0
  2 15  1  0  0  0  0
M  END
>  <cdx:fragmentId>
97

$$$$
