12580.cdx
  Mrv1902 05222410202D          

 26 29  0  0  0  0            999 V2000
    3.9427   -8.3531    0.0000 C   0  0  0  0  0  0  0  0  0  0  0  0
    3.9427   -9.1781    0.0000 C   0  0  0  0  0  0  0  0  0  0  0  0
    4.6571   -9.5906    0.0000 C   0  0  0  0  0  0  0  0  0  0  0  0
    5.3716   -9.1781    0.0000 C   0  0  0  0  0  0  0  0  0  0  0  0
    5.3716   -8.3531    0.0000 C   0  0  0  0  0  0  0  0  0  0  0  0
    4.6571   -7.9406    0.0000 C   0  0  0  0  0  0  0  0  0  0  0  0
    6.0861   -9.5906    0.0000 O   0  0  0  0  0  0  0  0  0  0  0  0
    6.8005   -9.1781    0.0000 C   0  0  0  0  0  0  0  0  0  0  0  0
    6.8005   -8.3531    0.0000 C   0  0  0  0  0  0  0  0  0  0  0  0
    6.0861   -7.9406    0.0000 C   0  0  0  0  0  0  0  0  0  0  0  0
    7.5150   -7.9406    0.0000 C   0  0  0  0  0  0  0  0  0  0  0  0
    7.5150   -7.1156    0.0000 C   0  0  0  0  0  0  0  0  0  0  0  0
    6.0861   -7.1156    0.0000 O   0  0  0  0  0  0  0  0  0  0  0  0
    8.2295   -8.3531    0.0000 C   0  0  0  0  0  0  0  0  0  0  0  0
    8.9440   -7.9406    0.0000 C   0  0  0  0  0  0  0  0  0  0  0  0
    8.9440   -7.1156    0.0000 C   0  0  0  0  0  0  0  0  0  0  0  0
    8.2295   -6.7031    0.0000 C   0  0  0  0  0  0  0  0  0  0  0  0
    9.6584   -8.3531    0.0000 C   0  0  0  0  0  0  0  0  0  0  0  0
   10.3729   -7.9406    0.0000 C   0  0  0  0  0  0  0  0  0  0  0  0
   10.3729   -7.1156    0.0000 C   0  0  0  0  0  0  0  0  0  0  0  0
    9.6584   -6.7031    0.0000 O   0  0  0  0  0  0  0  0  0  0  0  0
    4.6571   -7.1156    0.0000 O   0  0  0  0  0  0  0  0  0  0  0  0
    3.2282   -9.5906    0.0000 O   0  0  0  0  0  0  0  0  0  0  0  0
    8.2295   -9.1781    0.0000 O   0  0  0  0  0  0  0  0  0  0  0  0
   10.9563   -6.5323    0.0000 C   0  0  0  0  0  0  0  0  0  0  0  0
   11.1698   -7.3292    0.0000 C   0  0  0  0  0  0  0  0  0  0  0  0
  1  2  2  0  0  0  0
  2  3  1  0  0  0  0
  3  4  2  0  0  0  0
  4  5  1  0  0  0  0
  5  6  2  0  0  0  0
  6  1  1  0  0  0  0
  4  7  1  0  0  0  0
  7  8  1  0  0  0  0
  8  9  1  0  0  0  0
  9 10  1  0  0  0  0
 10  5  1  0  0  0  0
  9 11  1  0  0  0  0
 11 12  1  0  0  0  0
 13 10  2  0  0  0  0
 11 14  2  0  0  0  0
 14 15  1  0  0  0  0
 15 16  2  0  0  0  0
 16 17  1  0  0  0  0
 17 12  2  0  0  0  0
 15 18  1  0  0  0  0
 18 19  2  0  0  0  0
 19 20  1  0  0  0  0
 20 21  1  0  0  0  0
 21 16  1  0  0  0  0
  6 22  1  0  0  0  0
  2 23  1  0  0  0  0
 14 24  1  0  0  0  0
 20 25  1  0  0  0  0
 20 26  1  0  0  0  0
M  END
>  <cdx:fragmentId>
5

$$$$
