12581.cdx
  Mrv1902 05222410202D          

 10 10  0  0  0  0            999 V2000
    9.2691   -7.8058    0.0000 N   0  0  0  0  0  0  0  0  0  0  0  0
    6.4107   -8.6290    0.0000 C   0  0  0  0  0  0  0  0  0  0  0  0
    6.4102   -9.4540    0.0000 C   0  0  0  0  0  0  0  0  0  0  0  0
    5.6954   -9.8660    0.0000 C   0  0  0  0  0  0  0  0  0  0  0  0
    4.9812   -9.4531    0.0000 C   0  0  0  0  0  0  0  0  0  0  0  0
    4.9817   -8.6281    0.0000 C   0  0  0  0  0  0  0  0  0  0  0  0
    5.6965   -8.2160    0.0000 C   0  0  0  0  0  0  0  0  0  0  0  0
    7.1254   -8.2169    0.0000 C   0  0  0  0  0  0  0  0  0  0  0  0
    7.8396   -8.6299    0.0000 C   0  0  0  0  0  0  0  0  0  0  0  0
    8.5543   -8.2178    0.0000 C   0  0  0  0  0  0  0  0  0  0  0  0
 10  1  3  0  0  0  0
  9  8  1  0  0  0  0
 10  9  1  0  0  0  0
  2  3  1  0  0  0  0
  3  4  2  0  0  0  0
  4  5  1  0  0  0  0
  5  6  2  0  0  0  0
  6  7  1  0  0  0  0
  2  7  2  0  0  0  0
  8  2  1  0  0  0  0
M  END
>  <cdx:fragmentId>
13

$$$$
