12597.cdx
  Mrv1902 05222410192D          

 75 82  0  0  0  0            999 V2000
    6.2320   -8.0231    0.0000 C   0  0  0  0  0  0  0  0  0  0  0  0
    6.2320   -8.8481    0.0000 C   0  0  1  0  0  0  0  0  0  0  0  0
    6.9465   -9.2606    0.0000 C   0  0  2  0  0  0  0  0  0  0  0  0
    7.6610   -8.8481    0.0000 C   0  0  1  0  0  0  0  0  0  0  0  0
    7.6610   -8.0231    0.0000 C   0  0  2  0  0  0  0  0  0  0  0  0
    6.9465   -7.6106    0.0000 C   0  0  0  0  0  0  0  0  0  0  0  0
    8.3754   -9.2606    0.0000 C   0  0  0  0  0  0  0  0  0  0  0  0
    9.0899   -8.8481    0.0000 C   0  0  0  0  0  0  0  0  0  0  0  0
    9.0899   -8.0231    0.0000 C   0  0  2  0  0  0  0  0  0  0  0  0
    8.3754   -7.6106    0.0000 C   0  0  2  0  0  0  0  0  0  0  0  0
    9.8044   -7.6106    0.0000 C   0  0  1  0  0  0  0  0  0  0  0  0
    9.8044   -6.7856    0.0000 C   0  0  0  0  0  0  0  0  0  0  0  0
    9.0899   -6.3731    0.0000 C   0  0  0  0  0  0  0  0  0  0  0  0
    8.3754   -6.7856    0.0000 C   0  0  0  0  0  0  0  0  0  0  0  0
   10.5189   -8.0231    0.0000 C   0  0  0  0  0  0  0  0  0  0  0  0
   11.2333   -7.6106    0.0000 C   0  0  0  0  0  0  0  0  0  0  0  0
   11.2333   -6.7856    0.0000 C   0  0  2  0  0  0  0  0  0  0  0  0
   10.5189   -6.3731    0.0000 C   0  0  1  0  0  0  0  0  0  0  0  0
   11.9478   -6.3731    0.0000 C   0  0  1  0  0  0  0  0  0  0  0  0
   11.9478   -5.5481    0.0000 C   0  0  0  0  0  0  0  0  0  0  0  0
   11.2333   -5.1356    0.0000 C   0  0  1  0  0  0  0  0  0  0  0  0
   10.5189   -5.5481    0.0000 C   0  0  0  0  0  0  0  0  0  0  0  0
    6.5340   -9.9751    0.0000 C   0  0  0  0  0  0  0  0  0  0  0  0
    7.3590   -9.9751    0.0000 C   0  0  0  0  0  0  0  0  0  0  0  0
   11.6458   -4.4212    0.0000 C   0  0  0  0  0  0  0  0  0  0  0  0
   12.4708   -4.4212    0.0000 O   0  0  0  0  0  0  0  0  0  0  0  0
   11.2333   -3.7067    0.0000 O   0  0  0  0  0  0  0  0  0  0  0  0
    5.5176   -9.2606    0.0000 O   0  0  0  0  0  0  0  0  0  0  0  0
    7.6610   -7.1981    0.0000 C   0  0  0  0  0  0  0  0  0  0  0  0
    9.0899   -7.1981    0.0000 C   0  0  0  0  0  0  0  0  0  0  0  0
    9.8044   -5.9606    0.0000 H   0  0  0  0  0  0  0  0  0  0  0  0
   11.9478   -7.1981    0.0000 C   0  0  0  0  0  0  0  0  0  0  0  0
   10.8208   -4.4212    0.0000 C   0  0  0  0  0  0  0  0  0  0  0  0
    9.8044   -8.4356    0.0000 C   0  0  0  0  0  0  0  0  0  0  0  0
    8.3754   -8.4356    0.0000 H   0  0  0  0  0  0  0  0  0  0  0  0
    7.6610   -9.6731    0.0000 H   0  0  0  0  0  0  0  0  0  0  0  0
    4.8031   -8.8481    0.0000 C   0  0  1  0  0  0  0  0  0  0  0  0
    4.8031   -8.0231    0.0000 O   0  0  0  0  0  0  0  0  0  0  0  0
    4.0886   -7.6106    0.0000 C   0  0  1  0  0  0  0  0  0  0  0  0
    3.3741   -8.0231    0.0000 C   0  0  2  0  0  0  0  0  0  0  0  0
    3.3741   -8.8481    0.0000 C   0  0  1  0  0  0  0  0  0  0  0  0
    4.0886   -9.2606    0.0000 C   0  0  1  0  0  0  0  0  0  0  0  0
    4.0886   -6.7856    0.0000 C   0  0  0  0  0  0  0  0  0  0  0  0
    2.6597   -9.2606    0.0000 O   0  0  0  0  0  0  0  0  0  0  0  0
    2.6597   -7.6106    0.0000 O   0  0  0  0  0  0  0  0  0  0  0  0
    4.0886  -10.0856    0.0000 O   0  0  0  0  0  0  0  0  0  0  0  0
    4.8031   -6.3731    0.0000 O   0  0  0  0  0  0  0  0  0  0  0  0
    3.3741   -6.3731    0.0000 O   0  0  0  0  0  0  0  0  0  0  0  0
    3.3741  -10.4981    0.0000 C   0  0  2  0  0  0  0  0  0  0  0  0
    2.6597  -10.0856    0.0000 O   0  0  0  0  0  0  0  0  0  0  0  0
    1.9452  -10.4981    0.0000 C   0  0  1  0  0  0  0  0  0  0  0  0
    1.9452  -11.3231    0.0000 C   0  0  2  0  0  0  0  0  0  0  0  0
    2.6597  -11.7356    0.0000 C   0  0  1  0  0  0  0  0  0  0  0  0
    3.3741  -11.3231    0.0000 C   0  0  1  0  0  0  0  0  0  0  0  0
    1.2307  -10.0856    0.0000 C   0  0  0  0  0  0  0  0  0  0  0  0
    2.6597  -12.5606    0.0000 O   0  0  0  0  0  0  0  0  0  0  0  0
    1.2307  -11.7356    0.0000 O   0  0  0  0  0  0  0  0  0  0  0  0
    4.0886  -11.7356    0.0000 O   0  0  0  0  0  0  0  0  0  0  0  0
    0.5163  -10.4981    0.0000 O   0  0  0  0  0  0  0  0  0  0  0  0
    1.2307   -9.2606    0.0000 O   0  0  0  0  0  0  0  0  0  0  0  0
   12.6623   -6.7856    0.0000 O   0  0  0  0  0  0  0  0  0  0  0  0
   13.3767   -6.3731    0.0000 C   0  0  0  0  0  0  0  0  0  0  0  0
   14.0912   -6.7856    0.0000 C   0  0  0  0  0  0  0  0  0  0  0  0
   13.3767   -5.5481    0.0000 O   0  0  0  0  0  0  0  0  0  0  0  0
    4.9136  -11.7336    0.0000 C   0  0  1  0  0  0  0  0  0  0  0  0
    5.3278  -12.4471    0.0000 O   0  0  0  0  0  0  0  0  0  0  0  0
    6.1528  -12.4451    0.0000 C   0  0  1  0  0  0  0  0  0  0  0  0
    6.5636  -11.7296    0.0000 C   0  0  2  0  0  0  0  0  0  0  0  0
    6.1494  -11.0161    0.0000 C   0  0  1  0  0  0  0  0  0  0  0  0
    5.3244  -11.0181    0.0000 C   0  0  2  0  0  0  0  0  0  0  0  0
    7.3886  -11.7276    0.0000 O   0  0  0  0  0  0  0  0  0  0  0  0
    6.5671  -13.1585    0.0000 C   0  0  0  0  0  0  0  0  0  0  0  0
    6.5601  -10.3007    0.0000 O   0  0  0  0  0  0  0  0  0  0  0  0
    4.9101  -10.3047    0.0000 O   0  0  0  0  0  0  0  0  0  0  0  0
    6.9465  -10.6896    0.0000 O   0  0  0  0  0  0  0  0  0  0  0  0
  1  2  1  0  0  0  0
  2  3  1  0  0  0  0
  3  4  1  0  0  0  0
  4  5  1  0  0  0  0
  5  6  1  0  0  0  0
  6  1  1  0  0  0  0
  4  7  1  0  0  0  0
  7  8  1  0  0  0  0
  8  9  1  0  0  0  0
  9 10  1  0  0  0  0
 10  5  1  0  0  0  0
  9 11  1  0  0  0  0
 11 12  1  0  0  0  0
 12 13  2  0  0  0  0
 13 14  1  0  0  0  0
 14 10  1  0  0  0  0
 11 15  1  0  0  0  0
 15 16  1  0  0  0  0
 16 17  1  0  0  0  0
 17 18  1  0  0  0  0
 18 12  1  0  0  0  0
 17 19  1  0  0  0  0
 19 20  1  0  0  0  0
 20 21  1  0  0  0  0
 21 22  1  0  0  0  0
 22 18  1  0  0  0  0
  3 23  1  6  0  0  0
  3 24  1  1  0  0  0
 21 25  1  1  0  0  0
 25 26  1  0  0  0  0
 25 27  2  0  0  0  0
  2 28  1  1  0  0  0
  5 29  1  1  0  0  0
  9 30  1  1  0  0  0
 18 31  1  1  0  0  0
 17 32  1  1  0  0  0
 21 33  1  6  0  0  0
 11 34  1  6  0  0  0
 10 35  1  6  0  0  0
  4 36  1  6  0  0  0
 37 28  1  6  0  0  0
 37 38  1  0  0  0  0
 38 39  1  0  0  0  0
 39 40  1  0  0  0  0
 40 41  1  0  0  0  0
 41 42  1  0  0  0  0
 42 37  1  0  0  0  0
 39 43  1  1  0  0  0
 41 44  1  1  0  0  0
 40 45  1  6  0  0  0
 42 46  1  6  0  0  0
 43 47  2  0  0  0  0
 43 48  1  0  0  0  0
 49 46  1  1  0  0  0
 49 50  1  0  0  0  0
 50 51  1  0  0  0  0
 51 52  1  0  0  0  0
 52 53  1  0  0  0  0
 53 54  1  0  0  0  0
 54 49  1  0  0  0  0
 51 55  1  1  0  0  0
 53 56  1  1  0  0  0
 52 57  1  6  0  0  0
 54 58  1  6  0  0  0
 55 59  1  0  0  0  0
 55 60  2  0  0  0  0
 19 61  1  1  0  0  0
 61 62  1  0  0  0  0
 62 63  1  0  0  0  0
 62 64  2  0  0  0  0
 65 58  1  6  0  0  0
 65 66  1  0  0  0  0
 66 67  1  0  0  0  0
 67 68  1  0  0  0  0
 68 69  1  0  0  0  0
 69 70  1  0  0  0  0
 70 65  1  0  0  0  0
 68 71  1  6  0  0  0
 67 72  1  1  0  0  0
 69 73  1  1  0  0  0
 70 74  1  1  0  0  0
 24 75  1  0  0  0  0
M  END
>  <cdx:fragmentId>
4796

$$$$
