12591.cdx
  Mrv1902 05222410182D          

 21 20  0  0  0  0            999 V2000
    0.6518   -5.9202    0.0000 O   0  0  0  0  0  0  0  0  0  0  0  0
    1.3663   -7.1577    0.0000 O   0  0  0  0  0  0  0  0  0  0  0  0
   14.2267   -6.3327    0.0000 C   0  0  0  0  0  0  0  0  0  0  0  0
   13.5123   -5.9202    0.0000 C   0  0  0  0  0  0  0  0  0  0  0  0
   12.7978   -6.3327    0.0000 C   0  0  0  0  0  0  0  0  0  0  0  0
   12.0833   -5.9202    0.0000 C   0  0  0  0  0  0  0  0  0  0  0  0
   11.3689   -6.3327    0.0000 C   0  0  0  0  0  0  0  0  0  0  0  0
   10.6544   -5.9202    0.0000 C   0  0  0  0  0  0  0  0  0  0  0  0
    9.9399   -6.3327    0.0000 C   0  0  0  0  0  0  0  0  0  0  0  0
    9.2254   -5.9202    0.0000 C   0  0  0  0  0  0  0  0  0  0  0  0
    8.5110   -6.3327    0.0000 C   0  0  0  0  0  0  0  0  0  0  0  0
    7.7965   -5.9202    0.0000 C   0  0  0  0  0  0  0  0  0  0  0  0
    7.0820   -6.3327    0.0000 C   0  0  0  0  0  0  0  0  0  0  0  0
    6.3676   -5.9202    0.0000 C   0  0  0  0  0  0  0  0  0  0  0  0
    5.6531   -6.3327    0.0000 C   0  0  0  0  0  0  0  0  0  0  0  0
    4.9386   -5.9202    0.0000 C   0  0  0  0  0  0  0  0  0  0  0  0
    4.2241   -6.3327    0.0000 C   0  0  0  0  0  0  0  0  0  0  0  0
    3.5097   -5.9202    0.0000 C   0  0  0  0  0  0  0  0  0  0  0  0
    2.7952   -6.3327    0.0000 C   0  0  0  0  0  0  0  0  0  0  0  0
    2.0807   -5.9202    0.0000 C   0  0  0  0  0  0  0  0  0  0  0  0
    1.3663   -6.3327    0.0000 C   0  0  0  0  0  0  0  0  0  0  0  0
 21  1  1  0  0  0  0
 21  2  2  0  0  0  0
  4  3  1  0  0  0  0
  5  4  1  0  0  0  0
  6  5  1  0  0  0  0
  7  6  1  0  0  0  0
  8  7  1  0  0  0  0
  9  8  1  0  0  0  0
 10  9  1  0  0  0  0
 11 10  1  0  0  0  0
 12 11  1  0  0  0  0
 13 12  1  0  0  0  0
 14 13  1  0  0  0  0
 15 14  1  0  0  0  0
 16 15  1  0  0  0  0
 17 16  1  0  0  0  0
 18 17  1  0  0  0  0
 19 18  1  0  0  0  0
 20 19  1  0  0  0  0
 21 20  1  0  0  0  0
M  END
>  <cdx:fragmentId>
5

$$$$
