12592.cdx
  Mrv1902 05222410192D          

 24 23  0  0  0  0            999 V2000
    0.5245   -4.3519    0.0000 C   0  0  0  0  0  0  0  0  0  0  0  0
    1.2389   -3.9394    0.0000 C   0  0  0  0  0  0  0  0  0  0  0  0
    1.9534   -4.3519    0.0000 C   0  0  0  0  0  0  0  0  0  0  0  0
    2.6679   -3.9394    0.0000 C   0  0  0  0  0  0  0  0  0  0  0  0
    3.3823   -4.3519    0.0000 C   0  0  0  0  0  0  0  0  0  0  0  0
    4.0968   -3.9394    0.0000 C   0  0  0  0  0  0  0  0  0  0  0  0
    4.8113   -4.3519    0.0000 C   0  0  0  0  0  0  0  0  0  0  0  0
    5.5258   -3.9394    0.0000 C   0  0  0  0  0  0  0  0  0  0  0  0
    6.2402   -4.3519    0.0000 C   0  0  0  0  0  0  0  0  0  0  0  0
    6.9547   -3.9394    0.0000 C   0  0  0  0  0  0  0  0  0  0  0  0
    7.6692   -4.3519    0.0000 C   0  0  0  0  0  0  0  0  0  0  0  0
    8.3836   -3.9394    0.0000 C   0  0  0  0  0  0  0  0  0  0  0  0
    9.0981   -4.3519    0.0000 C   0  0  0  0  0  0  0  0  0  0  0  0
    9.8126   -3.9394    0.0000 C   0  0  0  0  0  0  0  0  0  0  0  0
   10.5271   -4.3519    0.0000 C   0  0  0  0  0  0  0  0  0  0  0  0
   11.2415   -3.9394    0.0000 C   0  0  0  0  0  0  0  0  0  0  0  0
   11.9560   -4.3519    0.0000 C   0  0  0  0  0  0  0  0  0  0  0  0
   12.6705   -3.9394    0.0000 C   0  0  0  0  0  0  0  0  0  0  0  0
   13.3849   -4.3519    0.0000 C   0  0  0  0  0  0  0  0  0  0  0  0
   14.0994   -3.9394    0.0000 C   0  0  0  0  0  0  0  0  0  0  0  0
   14.8139   -4.3519    0.0000 C   0  0  0  0  0  0  0  0  0  0  0  0
   15.5283   -3.9394    0.0000 C   0  0  0  0  0  0  0  0  0  0  0  0
   16.2428   -4.3519    0.0000 C   0  0  0  0  0  0  0  0  0  0  0  0
   16.9573   -3.9394    0.0000 C   0  0  0  0  0  0  0  0  0  0  0  0
  1  2  1  0  0  0  0
  2  3  1  0  0  0  0
  3  4  1  0  0  0  0
  4  5  1  0  0  0  0
  5  6  1  0  0  0  0
  6  7  1  0  0  0  0
  7  8  1  0  0  0  0
  8  9  1  0  0  0  0
  9 10  1  0  0  0  0
 10 11  1  0  0  0  0
 11 12  1  0  0  0  0
 12 13  1  0  0  0  0
 13 14  1  0  0  0  0
 14 15  1  0  0  0  0
 15 16  1  0  0  0  0
 16 17  1  0  0  0  0
 17 18  1  0  0  0  0
 18 19  1  0  0  0  0
 19 20  1  0  0  0  0
 20 21  1  0  0  0  0
 21 22  1  0  0  0  0
 22 23  1  0  0  0  0
 23 24  1  0  0  0  0
M  END
>  <cdx:groupId>
73

>  <cdx:fragmentId>
5

$$$$
