12599.cdx
  Mrv1902 05222410262D          

 22 24  0  0  0  0            999 V2000
    4.1387   -9.1135    0.0000 P   0  0  0  0  0  0  0  0  0  0  0  0
    4.8061   -8.6285    0.0000 O   0  0  0  0  0  0  0  0  0  0  0  0
    5.5598   -8.9640    0.0000 C   0  0  0  0  0  0  0  0  0  0  0  0
    6.2271   -7.6540    0.0000 O   0  0  0  0  0  0  0  0  0  0  0  0
    6.2272   -8.4790    0.0000 C   0  0  1  0  0  0  0  0  0  0  0  0
    7.0118   -8.7339    0.0000 C   0  0  2  0  0  0  0  0  0  0  0  0
    7.4967   -8.0664    0.0000 C   0  0  0  0  0  0  0  0  0  0  0  0
    7.0117   -7.3990    0.0000 C   0  0  2  0  0  0  0  0  0  0  0  0
    7.2668   -9.5185    0.0000 O   0  0  0  0  0  0  0  0  0  0  0  0
    7.2665   -5.2795    0.0000 N   0  0  0  0  0  0  0  0  0  0  0  0
    6.7816   -5.9470    0.0000 C   0  0  0  0  0  0  0  0  0  0  0  0
    7.2666   -6.6144    0.0000 N   0  0  0  0  0  0  0  0  0  0  0  0
    8.0512   -6.3594    0.0000 C   0  0  0  0  0  0  0  0  0  0  0  0
    8.7657   -6.7718    0.0000 N   0  0  0  0  0  0  0  0  0  0  0  0
    9.4801   -6.3593    0.0000 C   0  0  0  0  0  0  0  0  0  0  0  0
    9.4801   -5.5343    0.0000 N   0  0  0  0  0  0  0  0  0  0  0  0
    8.7656   -5.1218    0.0000 C   0  0  0  0  0  0  0  0  0  0  0  0
    8.0511   -5.5344    0.0000 C   0  0  0  0  0  0  0  0  0  0  0  0
    8.7655   -4.2968    0.0000 N   0  0  0  0  0  0  0  0  0  0  0  0
    3.5553   -8.5301    0.0000 O   0  0  0  0  0  0  0  0  0  0  0  0
    3.5553   -9.6968    0.0000 O   0  0  0  0  0  0  0  0  0  0  0  0
    4.6745   -9.7408    0.0000 O   0  0  0  0  0  0  0  0  0  0  0  0
  1  2  1  0  0  0  0
  4  5  1  0  0  0  0
  5  6  1  0  0  0  0
  6  7  1  0  0  0  0
  7  8  1  0  0  0  0
  4  8  1  0  0  0  0
  6  9  1  6  0  0  0
 10 11  2  0  0  0  0
 11 12  1  0  0  0  0
 12 13  1  0  0  0  0
 13 14  2  0  0  0  0
 14 15  1  0  0  0  0
 15 16  2  0  0  0  0
 16 17  1  0  0  0  0
 17 18  2  0  0  0  0
 10 18  1  0  0  0  0
 13 18  1  0  0  0  0
 17 19  1  0  0  0  0
  8 12  1  1  0  0  0
  5  3  1  1  0  0  0
  2  3  1  0  0  0  0
  1 20  2  0  0  0  0
  1 21  1  0  0  0  0
  1 22  1  0  0  0  0
M  END
>  <cdx:fragmentId>
29

$$$$
