126.cdx
  Mrv1902 05222410262D          

 22 24  0  0  0  0            999 V2000
    3.8292   -4.0631    0.0000 C   0  0  0  0  0  0  0  0  0  0  0  0
    3.8292   -4.8881    0.0000 C   0  0  0  0  0  0  0  0  0  0  0  0
    4.5437   -5.3006    0.0000 C   0  0  0  0  0  0  0  0  0  0  0  0
    5.2582   -4.8881    0.0000 C   0  0  0  0  0  0  0  0  0  0  0  0
    5.2582   -4.0631    0.0000 C   0  0  0  0  0  0  0  0  0  0  0  0
    4.5437   -3.6506    0.0000 C   0  0  0  0  0  0  0  0  0  0  0  0
    5.9726   -5.3006    0.0000 C   0  0  0  0  0  0  0  0  0  0  0  0
    6.6871   -4.8881    0.0000 C   0  0  0  0  0  0  0  0  0  0  0  0
    6.6871   -4.0631    0.0000 C   0  0  0  0  0  0  0  0  0  0  0  0
    5.9726   -3.6506    0.0000 O   0  0  0  0  0  0  0  0  0  0  0  0
    3.1147   -3.6506    0.0000 O   0  0  0  0  0  0  0  0  0  0  0  0
    4.5437   -6.1256    0.0000 O   0  0  0  0  0  0  0  0  0  0  0  0
    7.4016   -3.6506    0.0000 C   0  0  0  0  0  0  0  0  0  0  0  0
    8.1160   -4.0631    0.0000 C   0  0  0  0  0  0  0  0  0  0  0  0
    8.8305   -3.6506    0.0000 C   0  0  0  0  0  0  0  0  0  0  0  0
    8.8305   -2.8256    0.0000 C   0  0  0  0  0  0  0  0  0  0  0  0
    8.1160   -2.4131    0.0000 C   0  0  0  0  0  0  0  0  0  0  0  0
    7.4016   -2.8256    0.0000 C   0  0  0  0  0  0  0  0  0  0  0  0
    9.5450   -2.4131    0.0000 O   0  0  0  0  0  0  0  0  0  0  0  0
    5.9726   -6.1256    0.0000 O   0  0  0  0  0  0  0  0  0  0  0  0
    8.1160   -1.5881    0.0000 O   0  0  0  0  0  0  0  0  0  0  0  0
    3.8292   -6.5381    0.0000 C   0  0  0  0  0  0  0  0  0  0  0  0
  1  2  2  0  0  0  0
  2  3  1  0  0  0  0
  3  4  2  0  0  0  0
  4  5  1  0  0  0  0
  5  6  2  0  0  0  0
  6  1  1  0  0  0  0
  4  7  1  0  0  0  0
  7  8  1  0  0  0  0
  8  9  2  0  0  0  0
  9 10  1  0  0  0  0
 10  5  1  0  0  0  0
  1 11  1  0  0  0  0
  3 12  1  0  0  0  0
  9 13  1  0  0  0  0
 13 14  2  0  0  0  0
 14 15  1  0  0  0  0
 15 16  2  0  0  0  0
 16 17  1  0  0  0  0
 17 18  2  0  0  0  0
 18 13  1  0  0  0  0
 16 19  1  0  0  0  0
  7 20  2  0  0  0  0
 17 21  1  0  0  0  0
 12 22  1  0  0  0  0
M  END
>  <cdx:fragmentId>
5

$$$$
