126022.cdx
  Mrv1902 05222410222D          

 23 27  0  0  0  0            999 V2000
   10.4873   -7.6879    0.0000 C   0  0  0  0  0  0  0  0  0  0  0  0
    9.7713   -7.2780    0.0000 O   0  0  0  0  0  0  0  0  0  0  0  0
    9.0584   -7.6932    0.0000 C   0  0  0  0  0  0  0  0  0  0  0  0
    8.3424   -7.2834    0.0000 C   0  0  0  0  0  0  0  0  0  0  0  0
    7.6294   -7.6986    0.0000 C   0  0  0  0  0  0  0  0  0  0  0  0
    7.6325   -8.5236    0.0000 C   0  0  0  0  0  0  0  0  0  0  0  0
    8.3485   -8.9334    0.0000 C   0  0  0  0  0  0  0  0  0  0  0  0
    9.0615   -8.5182    0.0000 C   0  0  0  0  0  0  0  0  0  0  0  0
    6.9196   -8.9387    0.0000 C   0  0  0  0  0  0  0  0  0  0  0  0
    6.9227   -9.7637    0.0000 N   0  0  0  0  0  0  0  0  0  0  0  0
    6.2098  -10.1789    0.0000 C   0  0  0  0  0  0  0  0  0  0  0  0
    5.4938   -9.7691    0.0000 C   0  0  0  0  0  0  0  0  0  0  0  0
    5.4907   -8.9441    0.0000 C   0  0  0  0  0  0  0  0  0  0  0  0
    6.2036   -8.5289    0.0000 C   0  0  0  0  0  0  0  0  0  0  0  0
    6.2005   -7.7039    0.0000 C   0  0  0  0  0  0  0  0  0  0  0  0
    5.4845   -7.2941    0.0000 C   0  0  0  0  0  0  0  0  0  0  0  0
    5.3099   -6.4878    0.0000 O   0  0  0  0  0  0  0  0  0  0  0  0
    4.4892   -6.4046    0.0000 C   0  0  0  0  0  0  0  0  0  0  0  0
    4.1564   -7.1595    0.0000 O   0  0  0  0  0  0  0  0  0  0  0  0
    4.7716   -7.7093    0.0000 C   0  0  0  0  0  0  0  0  0  0  0  0
    4.7747   -8.5343    0.0000 C   0  0  0  0  0  0  0  0  0  0  0  0
    6.9134   -7.2887    0.0000 C   0  0  0  0  0  0  0  0  0  0  0  0
    6.9104   -6.4638    0.0000 O   0  0  0  0  0  0  0  0  0  0  0  0
  1  2  1  0  0  0  0
  2  3  1  0  0  0  0
  3  4  2  0  0  0  0
  4  5  1  0  0  0  0
  5  6  2  0  0  0  0
  6  7  1  0  0  0  0
  7  8  2  0  0  0  0
  3  8  1  0  0  0  0
  6  9  1  0  0  0  0
  9 10  2  0  0  0  0
 10 11  1  0  0  0  0
 11 12  2  0  0  0  0
 12 13  1  0  0  0  0
 13 14  2  0  0  0  0
  9 14  1  0  0  0  0
 14 15  1  0  0  0  0
 15 16  2  0  0  0  0
 16 17  1  0  0  0  0
 17 18  1  0  0  0  0
 18 19  1  0  0  0  0
 19 20  1  0  0  0  0
 16 20  1  0  0  0  0
 20 21  2  0  0  0  0
 13 21  1  0  0  0  0
 15 22  1  0  0  0  0
  5 22  1  0  0  0  0
 22 23  2  0  0  0  0
M  END
>  <cdx:fragmentId>
5174

$$$$
