12601.cdx
  Mrv1902 05222410282D          

 31 33  0  0  0  0            999 V2000
    1.7358   -7.1156    0.0000 C   0  0  0  0  0  0  0  0  0  0  0  0
    3.1647   -7.1156    0.0000 C   0  0  0  0  0  0  0  0  0  0  0  0
    2.4502   -6.7031    0.0000 C   0  0  0  0  0  0  0  0  0  0  0  0
    3.8792   -8.3531    0.0000 O   0  0  0  0  0  0  0  0  0  0  0  0
    4.5937   -7.9406    0.0000 C   0  0  0  0  0  0  0  0  0  0  0  0
    4.5937   -7.1156    0.0000 C   0  0  0  0  0  0  0  0  0  0  0  0
    3.8792   -6.7031    0.0000 C   0  0  0  0  0  0  0  0  0  0  0  0
    5.3081   -8.3531    0.0000 C   0  0  0  0  0  0  0  0  0  0  0  0
    6.0226   -7.9406    0.0000 C   0  0  0  0  0  0  0  0  0  0  0  0
    6.0226   -7.1156    0.0000 C   0  0  0  0  0  0  0  0  0  0  0  0
    5.3081   -6.7031    0.0000 C   0  0  0  0  0  0  0  0  0  0  0  0
    6.7371   -8.3531    0.0000 O   0  0  0  0  0  0  0  0  0  0  0  0
    7.4515   -7.9406    0.0000 C   0  0  0  0  0  0  0  0  0  0  0  0
    7.4515   -7.1156    0.0000 C   0  0  1  0  0  0  0  0  0  0  0  0
    6.7371   -6.7031    0.0000 C   0  0  0  0  0  0  0  0  0  0  0  0
    8.8805   -7.9406    0.0000 O   0  0  0  0  0  0  0  0  0  0  0  0
    8.8805   -7.1156    0.0000 C   0  0  0  0  0  0  0  0  0  0  0  0
    8.1660   -6.7031    0.0000 C   0  0  0  0  0  0  0  0  0  0  0  0
    9.5950   -6.7031    0.0000 C   0  0  0  0  0  0  0  0  0  0  0  0
    9.5950   -5.8781    0.0000 C   0  0  0  0  0  0  0  0  0  0  0  0
    8.8805   -5.4656    0.0000 C   0  0  0  0  0  0  0  0  0  0  0  0
    8.1660   -5.8781    0.0000 C   0  0  0  0  0  0  0  0  0  0  0  0
   10.3094   -7.1156    0.0000 C   0  0  0  0  0  0  0  0  0  0  0  0
   11.0239   -6.7031    0.0000 C   0  0  0  0  0  0  0  0  0  0  0  0
   10.3094   -5.4656    0.0000 O   0  0  0  0  0  0  0  0  0  0  0  0
   11.7384   -7.1156    0.0000 C   0  0  0  0  0  0  0  0  0  0  0  0
   12.4528   -6.7031    0.0000 C   0  0  0  0  0  0  0  0  0  0  0  0
    2.4502   -5.8781    0.0000 C   0  0  0  0  0  0  0  0  0  0  0  0
    5.3081   -5.8781    0.0000 O   0  0  0  0  0  0  0  0  0  0  0  0
    4.5937   -5.4656    0.0000 C   0  0  0  0  0  0  0  0  0  0  0  0
   11.7384   -7.9406    0.0000 C   0  0  0  0  0  0  0  0  0  0  0  0
  2  3  2  0  0  0  0
  3  1  1  0  0  0  0
  4  5  1  0  0  0  0
  5  6  2  0  0  0  0
  6  7  1  0  0  0  0
  7  2  1  0  0  0  0
  5  8  1  0  0  0  0
  8  9  2  0  0  0  0
  9 10  1  0  0  0  0
 10 11  2  0  0  0  0
 11  6  1  0  0  0  0
  9 12  1  0  0  0  0
 12 13  1  0  0  0  0
 13 14  1  0  0  0  0
 14 15  1  0  0  0  0
 15 10  1  0  0  0  0
 16 17  1  0  0  0  0
 17 18  2  0  0  0  0
 14 18  1  1  0  0  0
 17 19  1  0  0  0  0
 19 20  2  0  0  0  0
 20 21  1  0  0  0  0
 21 22  2  0  0  0  0
 22 18  1  0  0  0  0
 19 23  1  0  0  0  0
 23 24  1  0  0  0  0
 25 20  1  0  0  0  0
 24 26  2  0  0  0  0
 26 27  1  0  0  0  0
  3 28  1  0  0  0  0
 11 29  1  0  0  0  0
 29 30  1  0  0  0  0
 26 31  1  0  0  0  0
M  END
>  <cdx:fragmentId>
5

$$$$
