126073.cdx
  Mrv1902 05222410262D          

 23 26  0  0  0  0            999 V2000
    9.7925   -7.5905    0.0000 O   0  0  0  0  0  0  0  0  0  0  0  0
   10.2774   -6.9230    0.0000 C   0  0  0  0  0  0  0  0  0  0  0  0
    9.7925   -6.2556    0.0000 C   0  0  0  0  0  0  0  0  0  0  0  0
    9.0079   -6.5105    0.0000 C   0  0  0  0  0  0  0  0  0  0  0  0
    8.2934   -6.0980    0.0000 C   0  0  0  0  0  0  0  0  0  0  0  0
    7.5789   -6.5105    0.0000 C   0  0  0  0  0  0  0  0  0  0  0  0
    7.5789   -7.3355    0.0000 C   0  0  0  0  0  0  0  0  0  0  0  0
    8.2934   -7.7480    0.0000 C   0  0  0  0  0  0  0  0  0  0  0  0
    9.0079   -7.3355    0.0000 C   0  0  0  0  0  0  0  0  0  0  0  0
    8.2934   -8.5730    0.0000 C   0  0  0  0  0  0  0  0  0  0  0  0
    7.5789   -8.9855    0.0000 C   0  0  0  0  0  0  0  0  0  0  0  0
    6.8645   -8.5730    0.0000 C   0  0  0  0  0  0  0  0  0  0  0  0
    6.1500   -8.9855    0.0000 C   0  0  0  0  0  0  0  0  0  0  0  0
    5.4355   -8.5730    0.0000 C   0  0  0  0  0  0  0  0  0  0  0  0
    5.4355   -7.7480    0.0000 C   0  0  0  0  0  0  0  0  0  0  0  0
    6.1500   -7.3355    0.0000 C   0  0  0  0  0  0  0  0  0  0  0  0
    6.8645   -7.7480    0.0000 C   0  0  0  0  0  0  0  0  0  0  0  0
    6.8645   -6.0980    0.0000 O   0  0  0  0  0  0  0  0  0  0  0  0
    8.2934   -5.2730    0.0000 O   0  0  0  0  0  0  0  0  0  0  0  0
   10.0474   -5.4710    0.0000 C   0  0  0  0  0  0  0  0  0  0  0  0
    6.1500   -9.8105    0.0000 C   0  0  0  0  0  0  0  0  0  0  0  0
    5.4355  -10.2230    0.0000 O   0  0  0  0  0  0  0  0  0  0  0  0
    4.7210   -8.9855    0.0000 O   0  0  0  0  0  0  0  0  0  0  0  0
  1  2  1  0  0  0  0
  2  3  2  0  0  0  0
  3  4  1  0  0  0  0
  4  5  1  0  0  0  0
  5  6  1  0  0  0  0
  6  7  1  0  0  0  0
  7  8  1  0  0  0  0
  8  9  1  0  0  0  0
  4  9  2  0  0  0  0
  1  9  1  0  0  0  0
 10 11  1  0  0  0  0
 11 12  2  0  0  0  0
 12 13  1  0  0  0  0
 13 14  1  0  0  0  0
 14 15  1  0  0  0  0
 15 16  1  0  0  0  0
 16 17  1  0  0  0  0
 12 17  1  0  0  0  0
 17  7  2  0  0  0  0
 10  8  2  0  0  0  0
  6 18  2  0  0  0  0
  5 19  2  0  0  0  0
  3 20  1  0  0  0  0
 21 22  1  0  0  0  0
 13 21  1  0  0  0  0
 14 23  1  0  0  0  0
M  END
>  <cdx:fragmentId>
5443

$$$$
