126072.cdx
  Mrv1902 05222410262D          

 23 26  0  0  0  0            999 V2000
    9.5175   -6.8895    0.0000 O   0  0  0  0  0  0  0  0  0  0  0  0
   10.0024   -6.2220    0.0000 C   0  0  0  0  0  0  0  0  0  0  0  0
    9.5175   -5.5546    0.0000 C   0  0  0  0  0  0  0  0  0  0  0  0
    8.7329   -5.8095    0.0000 C   0  0  0  0  0  0  0  0  0  0  0  0
    8.0184   -5.3970    0.0000 C   0  0  0  0  0  0  0  0  0  0  0  0
    7.3039   -5.8095    0.0000 C   0  0  0  0  0  0  0  0  0  0  0  0
    7.3039   -6.6345    0.0000 C   0  0  0  0  0  0  0  0  0  0  0  0
    8.0184   -7.0470    0.0000 C   0  0  0  0  0  0  0  0  0  0  0  0
    8.7329   -6.6345    0.0000 C   0  0  0  0  0  0  0  0  0  0  0  0
    8.0184   -7.8720    0.0000 C   0  0  0  0  0  0  0  0  0  0  0  0
    7.3039   -8.2845    0.0000 C   0  0  0  0  0  0  0  0  0  0  0  0
    6.5895   -7.8720    0.0000 C   0  0  0  0  0  0  0  0  0  0  0  0
    5.8750   -8.2845    0.0000 C   0  0  1  0  0  0  0  0  0  0  0  0
    5.1605   -7.8720    0.0000 C   0  0  1  0  0  0  0  0  0  0  0  0
    5.1605   -7.0470    0.0000 C   0  0  0  0  0  0  0  0  0  0  0  0
    5.8750   -6.6345    0.0000 C   0  0  0  0  0  0  0  0  0  0  0  0
    6.5895   -7.0470    0.0000 C   0  0  0  0  0  0  0  0  0  0  0  0
    6.5895   -5.3970    0.0000 O   0  0  0  0  0  0  0  0  0  0  0  0
    8.0184   -4.5720    0.0000 O   0  0  0  0  0  0  0  0  0  0  0  0
    6.2875   -8.9990    0.0000 C   0  0  0  0  0  0  0  0  0  0  0  0
    9.7724   -4.7700    0.0000 C   0  0  0  0  0  0  0  0  0  0  0  0
    4.4460   -8.2845    0.0000 O   0  0  0  0  0  0  0  0  0  0  0  0
    5.4625   -8.9990    0.0000 O   0  0  0  0  0  0  0  0  0  0  0  0
  1  2  1  0  0  0  0
  2  3  2  0  0  0  0
  3  4  1  0  0  0  0
  4  5  1  0  0  0  0
  5  6  1  0  0  0  0
  6  7  1  0  0  0  0
  7  8  1  0  0  0  0
  8  9  1  0  0  0  0
  4  9  2  0  0  0  0
  1  9  1  0  0  0  0
 10 11  1  0  0  0  0
 11 12  2  0  0  0  0
 12 13  1  0  0  0  0
 13 14  1  0  0  0  0
 14 15  1  0  0  0  0
 15 16  1  0  0  0  0
 16 17  1  0  0  0  0
 12 17  1  0  0  0  0
 17  7  2  0  0  0  0
 10  8  2  0  0  0  0
  6 18  2  0  0  0  0
  5 19  2  0  0  0  0
 13 20  1  6  0  0  0
  3 21  1  0  0  0  0
 14 22  1  6  0  0  0
 13 23  1  1  0  0  0
M  END
>  <cdx:fragmentId>
5366

$$$$
