126021.cdx
  Mrv1902 05222410222D          

 22 25  0  0  0  0            999 V2000
    6.7926   -9.7217    0.0000 N   0  0  0  0  0  0  0  0  0  0  0  0
    6.0745  -10.1278    0.0000 C   0  0  0  0  0  0  0  0  0  0  0  0
    5.3635   -9.7094    0.0000 C   0  0  0  0  0  0  0  0  0  0  0  0
    5.3717   -8.8844    0.0000 C   0  0  0  0  0  0  0  0  0  0  0  0
    6.0897   -8.4781    0.0000 C   0  0  0  0  0  0  0  0  0  0  0  0
    6.0968   -7.6531    0.0000 C   0  0  0  0  0  0  0  0  0  0  0  0
    6.8148   -7.2468    0.0000 C   0  0  0  0  0  0  0  0  0  0  0  0
    7.5257   -7.6654    0.0000 C   0  0  0  0  0  0  0  0  0  0  0  0
    7.5186   -8.4904    0.0000 C   0  0  0  0  0  0  0  0  0  0  0  0
    6.8006   -8.8967    0.0000 C   0  0  0  0  0  0  0  0  0  0  0  0
    5.3859   -7.2345    0.0000 C   0  0  0  0  0  0  0  0  0  0  0  0
    4.6679   -7.6408    0.0000 C   0  0  0  0  0  0  0  0  0  0  0  0
    4.6608   -8.4658    0.0000 C   0  0  0  0  0  0  0  0  0  0  0  0
    8.2294   -8.9090    0.0000 C   0  0  0  0  0  0  0  0  0  0  0  0
    8.9475   -8.5027    0.0000 C   0  0  0  0  0  0  0  0  0  0  0  0
    8.9546   -7.6777    0.0000 C   0  0  0  0  0  0  0  0  0  0  0  0
    8.2436   -7.2591    0.0000 C   0  0  0  0  0  0  0  0  0  0  0  0
    6.8219   -6.4218    0.0000 O   0  0  0  0  0  0  0  0  0  0  0  0
    9.6725   -7.2714    0.0000 O   0  0  0  0  0  0  0  0  0  0  0  0
   10.3834   -7.6900    0.0000 C   0  0  0  0  0  0  0  0  0  0  0  0
    3.9570   -7.2222    0.0000 O   0  0  0  0  0  0  0  0  0  0  0  0
    3.2390   -7.6285    0.0000 C   0  0  0  0  0  0  0  0  0  0  0  0
  1  2  1  0  0  0  0
  2  3  2  0  0  0  0
  3  4  1  0  0  0  0
  4  5  2  0  0  0  0
  5  6  1  0  0  0  0
  6  7  1  0  0  0  0
  7  8  1  0  0  0  0
  8  9  1  0  0  0  0
  9 10  1  0  0  0  0
  1 10  2  0  0  0  0
  5 10  1  0  0  0  0
 11 12  1  0  0  0  0
 12 13  2  0  0  0  0
  4 13  1  0  0  0  0
  6 11  2  0  0  0  0
 14 15  1  0  0  0  0
 15 16  2  0  0  0  0
 16 17  1  0  0  0  0
  8 17  2  0  0  0  0
  9 14  2  0  0  0  0
  7 18  2  0  0  0  0
 19 20  1  0  0  0  0
 16 19  1  0  0  0  0
 21 22  1  0  0  0  0
 12 21  1  0  0  0  0
M  END
>  <cdx:fragmentId>
5119

$$$$
