12604.cdx
  Mrv1902 05222410262D          

 39 42  0  0  0  0            999 V2000
    5.5720   -7.3838    0.0000 C   0  0  0  0  0  0  0  0  0  0  0  0
    5.5720   -8.2088    0.0000 C   0  0  0  0  0  0  0  0  0  0  0  0
    6.2865   -8.6212    0.0000 C   0  0  0  0  0  0  0  0  0  0  0  0
    7.0010   -8.2088    0.0000 C   0  0  0  0  0  0  0  0  0  0  0  0
    7.0010   -7.3838    0.0000 C   0  0  0  0  0  0  0  0  0  0  0  0
    6.2865   -6.9712    0.0000 C   0  0  0  0  0  0  0  0  0  0  0  0
    6.2865   -6.1463    0.0000 C   0  0  0  0  0  0  0  0  0  0  0  0
    7.0010   -5.7338    0.0000 C   0  0  0  0  0  0  0  0  0  0  0  0
    7.0010   -4.9088    0.0000 C   0  0  0  0  0  0  0  0  0  0  0  0
    7.7154   -4.4962    0.0000 C   0  0  0  0  0  0  0  0  0  0  0  0
    8.4299   -4.9088    0.0000 C   0  0  0  0  0  0  0  0  0  0  0  0
    9.1444   -4.4962    0.0000 C   0  0  0  0  0  0  0  0  0  0  0  0
    9.1444   -3.6713    0.0000 C   0  0  0  0  0  0  0  0  0  0  0  0
    8.4299   -3.2588    0.0000 C   0  0  0  0  0  0  0  0  0  0  0  0
    7.7154   -3.6713    0.0000 C   0  0  0  0  0  0  0  0  0  0  0  0
    9.8589   -3.2588    0.0000 O   0  0  0  0  0  0  0  0  0  0  0  0
    6.2865   -9.4462    0.0000 O   0  0  0  0  0  0  0  0  0  0  0  0
    5.5720   -9.8588    0.0000 C   0  0  2  0  0  0  0  0  0  0  0  0
    4.8576   -9.4462    0.0000 O   0  0  0  0  0  0  0  0  0  0  0  0
    4.1431   -9.8588    0.0000 C   0  0  1  0  0  0  0  0  0  0  0  0
    4.1431  -10.6837    0.0000 C   0  0  2  0  0  0  0  0  0  0  0  0
    4.8576  -11.0962    0.0000 C   0  0  1  0  0  0  0  0  0  0  0  0
    5.5720  -10.6837    0.0000 C   0  0  1  0  0  0  0  0  0  0  0  0
    3.4286   -9.4462    0.0000 C   0  0  0  0  0  0  0  0  0  0  0  0
    2.7141   -9.8588    0.0000 O   0  0  0  0  0  0  0  0  0  0  0  0
    3.4286  -11.0962    0.0000 O   0  0  0  0  0  0  0  0  0  0  0  0
    4.8576  -11.9213    0.0000 O   0  0  0  0  0  0  0  0  0  0  0  0
    6.2865  -11.0962    0.0000 O   0  0  0  0  0  0  0  0  0  0  0  0
    7.0010  -10.6837    0.0000 C   0  0  1  0  0  0  0  0  0  0  0  0
    7.7546  -11.0193    0.0000 C   0  0  1  0  0  0  0  0  0  0  0  0
    8.3067  -10.4062    0.0000 C   0  0  1  0  0  0  0  0  0  0  0  0
    7.8942   -9.6917    0.0000 C   0  0  0  0  0  0  0  0  0  0  0  0
    7.0872   -9.8633    0.0000 O   0  0  0  0  0  0  0  0  0  0  0  0
    9.0211   -9.9937    0.0000 O   0  0  0  0  0  0  0  0  0  0  0  0
    7.9682  -11.8162    0.0000 O   0  0  0  0  0  0  0  0  0  0  0  0
    8.8900  -10.9896    0.0000 C   0  0  0  0  0  0  0  0  0  0  0  0
    9.6869  -10.7761    0.0000 O   0  0  0  0  0  0  0  0  0  0  0  0
    4.8576   -6.9712    0.0000 O   0  0  0  0  0  0  0  0  0  0  0  0
    5.5720   -5.7338    0.0000 O   0  0  0  0  0  0  0  0  0  0  0  0
  1  2  2  0  0  0  0
  2  3  1  0  0  0  0
  3  4  2  0  0  0  0
  4  5  1  0  0  0  0
  5  6  2  0  0  0  0
  6  1  1  0  0  0  0
  6  7  1  0  0  0  0
  7  8  1  0  0  0  0
  8  9  2  0  0  0  0
  9 10  1  0  0  0  0
 10 11  2  0  0  0  0
 11 12  1  0  0  0  0
 12 13  2  0  0  0  0
 13 14  1  0  0  0  0
 14 15  2  0  0  0  0
 15 10  1  0  0  0  0
 13 16  1  0  0  0  0
  3 17  1  0  0  0  0
 18 17  1  1  0  0  0
 18 19  1  0  0  0  0
 19 20  1  0  0  0  0
 20 21  1  0  0  0  0
 21 22  1  0  0  0  0
 22 23  1  0  0  0  0
 23 18  1  0  0  0  0
 20 24  1  1  0  0  0
 24 25  1  0  0  0  0
 21 26  1  6  0  0  0
 22 27  1  1  0  0  0
 23 28  1  6  0  0  0
 29 28  1  6  0  0  0
 29 30  1  0  0  0  0
 30 31  1  0  0  0  0
 31 32  1  0  0  0  0
 32 33  1  0  0  0  0
 33 29  1  0  0  0  0
 31 34  1  1  0  0  0
 30 35  1  1  0  0  0
 31 36  1  0  0  0  0
 36 37  1  0  0  0  0
  1 38  1  0  0  0  0
  7 39  2  0  0  0  0
M  END
>  <cdx:fragmentId>
5

$$$$
