12617.cdx
  Mrv1902 05222410272D          

 10 10  0  0  0  0            999 V2000
    6.7573   -7.8230    0.0000 C   0  0  0  0  0  0  0  0  0  0  0  0
    7.4723   -7.4115    0.0000 C   0  0  0  0  0  0  0  0  0  0  0  0
    7.4734   -6.5865    0.0000 C   0  0  0  0  0  0  0  0  0  0  0  0
    6.7595   -6.1730    0.0000 C   0  0  0  0  0  0  0  0  0  0  0  0
    6.0445   -6.5846    0.0000 C   0  0  0  0  0  0  0  0  0  0  0  0
    6.0434   -7.4096    0.0000 C   0  0  0  0  0  0  0  0  0  0  0  0
    6.7563   -8.6480    0.0000 C   0  0  0  0  0  0  0  0  0  0  0  0
    5.3305   -6.1712    0.0000 C   0  0  0  0  0  0  0  0  0  0  0  0
    6.7605   -5.3480    0.0000 C   0  0  0  0  0  0  0  0  0  0  0  0
    7.4756   -4.9365    0.0000 O   0  0  0  0  0  0  0  0  0  0  0  0
  1  2  1  0  0  0  0
  2  3  1  0  0  0  0
  3  4  1  0  0  0  0
  4  5  1  0  0  0  0
  5  6  1  0  0  0  0
  6  1  2  0  0  0  0
  1  7  1  0  0  0  0
  5  8  1  0  0  0  0
  4  9  1  0  0  0  0
  9 10  2  0  0  0  0
M  END
>  <cdx:fragmentId>
5

$$$$
