12613.cdx
  Mrv1902 05222410272D          

 12 11  0  0  0  0            999 V2000
    4.4789   -2.9364    0.0000 C   0  0  0  0  0  0  0  0  0  0  0  0
    3.7644   -3.3489    0.0000 C   0  0  0  0  0  0  0  0  0  0  0  0
    3.0500   -2.9364    0.0000 C   0  0  0  0  0  0  0  0  0  0  0  0
    3.0500   -2.1114    0.0000 C   0  0  0  0  0  0  0  0  0  0  0  0
    4.4789   -2.1114    0.0000 O   0  0  0  0  0  0  0  0  0  0  0  0
    5.1934   -3.3489    0.0000 O   0  0  0  0  0  0  0  0  0  0  0  0
    2.3355   -3.3489    0.0000 C   0  0  0  0  0  0  0  0  0  0  0  0
    5.9078   -2.9364    0.0000 C   0  0  0  0  0  0  0  0  0  0  0  0
    6.6223   -3.3489    0.0000 C   0  0  0  0  0  0  0  0  0  0  0  0
    7.3368   -2.9364    0.0000 C   0  0  0  0  0  0  0  0  0  0  0  0
    8.0513   -3.3489    0.0000 C   0  0  0  0  0  0  0  0  0  0  0  0
    7.3368   -2.1114    0.0000 C   0  0  0  0  0  0  0  0  0  0  0  0
  1  2  1  0  0  0  0
  2  3  1  0  0  0  0
  3  4  1  0  0  0  0
  1  5  2  0  0  0  0
  1  6  1  0  0  0  0
  3  7  1  0  0  0  0
  8  9  1  0  0  0  0
  9 10  1  0  0  0  0
 10 11  1  0  0  0  0
 10 12  1  0  0  0  0
  6  8  1  0  0  0  0
M  END
>  <cdx:groupId>
37

>  <cdx:fragmentId>
5

$$$$
