12620.cdx
  Mrv1902 05222410202D          

 23 22  0  0  0  0            999 V2000
    1.6425   -3.8717    0.0000 C   0  0  0  0  0  0  0  0  0  0  0  0
    2.3570   -4.2842    0.0000 C   0  0  0  0  0  0  0  0  0  0  0  0
    3.0715   -3.8717    0.0000 C   0  0  0  0  0  0  0  0  0  0  0  0
    3.7859   -4.2842    0.0000 C   0  0  0  0  0  0  0  0  0  0  0  0
    4.5004   -3.8717    0.0000 C   0  0  0  0  0  0  0  0  0  0  0  0
    5.2149   -4.2842    0.0000 C   0  0  0  0  0  0  0  0  0  0  0  0
    5.9294   -3.8717    0.0000 C   0  0  0  0  0  0  0  0  0  0  0  0
    6.6438   -4.2842    0.0000 C   0  0  0  0  0  0  0  0  0  0  0  0
    7.3583   -3.8717    0.0000 C   0  0  0  0  0  0  0  0  0  0  0  0
    8.0728   -4.2842    0.0000 C   0  0  0  0  0  0  0  0  0  0  0  0
    8.7872   -3.8717    0.0000 C   0  0  0  0  0  0  0  0  0  0  0  0
    9.5017   -4.2842    0.0000 C   0  0  0  0  0  0  0  0  0  0  0  0
   10.2162   -3.8717    0.0000 C   0  0  0  0  0  0  0  0  0  0  0  0
   10.9306   -4.2842    0.0000 C   0  0  0  0  0  0  0  0  0  0  0  0
   11.6451   -3.8717    0.0000 C   0  0  0  0  0  0  0  0  0  0  0  0
   12.3596   -4.2842    0.0000 C   0  0  0  0  0  0  0  0  0  0  0  0
   13.0741   -3.8717    0.0000 C   0  0  0  0  0  0  0  0  0  0  0  0
   13.7885   -4.2842    0.0000 C   0  0  0  0  0  0  0  0  0  0  0  0
   14.5030   -3.8717    0.0000 C   0  0  0  0  0  0  0  0  0  0  0  0
   15.2175   -4.2842    0.0000 C   0  0  0  0  0  0  0  0  0  0  0  0
   15.9319   -3.8717    0.0000 C   0  0  0  0  0  0  0  0  0  0  0  0
   16.6464   -4.2842    0.0000 C   0  0  0  0  0  0  0  0  0  0  0  0
    0.9281   -4.2842    0.0000 O   0  0  0  0  0  0  0  0  0  0  0  0
  1  2  1  0  0  0  0
  2  3  1  0  0  0  0
  3  4  1  0  0  0  0
  4  5  1  0  0  0  0
  5  6  1  0  0  0  0
  6  7  1  0  0  0  0
  7  8  1  0  0  0  0
  8  9  1  0  0  0  0
  9 10  1  0  0  0  0
 10 11  1  0  0  0  0
 11 12  1  0  0  0  0
 12 13  1  0  0  0  0
 13 14  1  0  0  0  0
 14 15  1  0  0  0  0
 15 16  1  0  0  0  0
 16 17  1  0  0  0  0
 17 18  1  0  0  0  0
 18 19  1  0  0  0  0
 19 20  1  0  0  0  0
 20 21  1  0  0  0  0
 21 22  1  0  0  0  0
  1 23  1  0  0  0  0
M  END
>  <cdx:groupId>
70

>  <cdx:fragmentId>
5

$$$$
