126339.cdx
  Mrv1902 05222410262D          

 18 18  0  0  0  0            999 V2000
   16.1832  -13.3351    0.0000 C   0  0  0  0  0  0  0  0  0  0  0  0
   16.1832  -12.5101    0.0000 C   0  0  0  0  0  0  0  0  0  0  0  0
   15.4688  -12.0976    0.0000 C   0  0  0  0  0  0  0  0  0  0  0  0
   14.7543  -12.5101    0.0000 C   0  0  0  0  0  0  0  0  0  0  0  0
   14.7543  -13.3351    0.0000 C   0  0  0  0  0  0  0  0  0  0  0  0
   15.4688  -13.7476    0.0000 C   0  0  0  0  0  0  0  0  0  0  0  0
   14.0398  -12.0976    0.0000 N   0  3  0  0  0  0  0  0  0  0  0  0
   14.0398  -11.2726    0.0000 O   0  0  0  0  0  0  0  0  0  0  0  0
   13.3253  -12.5101    0.0000 O   0  5  0  0  0  0  0  0  0  0  0  0
   16.8977  -12.0976    0.0000 N   0  3  0  0  0  0  0  0  0  0  0  0
   16.8977  -11.2726    0.0000 O   0  0  0  0  0  0  0  0  0  0  0  0
   17.6122  -12.5101    0.0000 O   0  5  0  0  0  0  0  0  0  0  0  0
   14.0398  -13.7476    0.0000 C   0  0  0  0  0  0  0  0  0  0  0  0
   15.4688  -11.2726    0.0000 C   0  0  0  0  0  0  0  0  0  0  0  0
   16.8977  -13.7476    0.0000 C   0  0  0  0  0  0  0  0  0  0  0  0
   17.6122  -14.1601    0.0000 C   0  0  0  0  0  0  0  0  0  0  0  0
   16.8977  -14.5726    0.0000 C   0  0  0  0  0  0  0  0  0  0  0  0
   17.6122  -13.3351    0.0000 C   0  0  0  0  0  0  0  0  0  0  0  0
  1  2  1  0  0  0  0
  2  3  2  0  0  0  0
  3  4  1  0  0  0  0
  4  5  2  0  0  0  0
  5  6  1  0  0  0  0
  1  6  2  0  0  0  0
  7  8  2  0  0  0  0
  7  9  1  0  0  0  0
  4  7  1  0  0  0  0
 10 11  2  0  0  0  0
 10 12  1  0  0  0  0
  2 10  1  0  0  0  0
  5 13  1  0  0  0  0
  3 14  1  0  0  0  0
 15 16  1  0  0  0  0
 15 17  1  0  0  0  0
 15 18  1  0  0  0  0
  1 15  1  0  0  0  0
M  CHG  4   7   1   9  -1  10   1  12  -1
M  END
>  <cdx:groupId>
5698

>  <cdx:fragmentId>
5647

$$$$
