12631.cdx
  Mrv1902 05222410182D          

 27 30  0  0  0  0            999 V2000
    4.1077   -7.4663    0.0000 C   0  0  0  0  0  0  0  0  0  0  0  0
    4.1077   -8.2912    0.0000 C   0  0  0  0  0  0  0  0  0  0  0  0
    4.8221   -8.7037    0.0000 C   0  0  0  0  0  0  0  0  0  0  0  0
    5.5366   -8.2912    0.0000 C   0  0  0  0  0  0  0  0  0  0  0  0
    5.5366   -7.4663    0.0000 C   0  0  0  0  0  0  0  0  0  0  0  0
    4.8221   -7.0537    0.0000 C   0  0  0  0  0  0  0  0  0  0  0  0
    6.2511   -8.7037    0.0000 C   0  0  0  0  0  0  0  0  0  0  0  0
    6.9655   -8.2912    0.0000 N   0  3  0  0  0  0  0  0  0  0  0  0
    6.9655   -7.4663    0.0000 C   0  0  0  0  0  0  0  0  0  0  0  0
    6.2511   -7.0537    0.0000 C   0  0  0  0  0  0  0  0  0  0  0  0
    7.6800   -8.7037    0.0000 C   0  0  0  0  0  0  0  0  0  0  0  0
    8.3945   -8.2912    0.0000 C   0  0  0  0  0  0  0  0  0  0  0  0
    8.3945   -7.4663    0.0000 C   0  0  0  0  0  0  0  0  0  0  0  0
    7.6800   -7.0537    0.0000 C   0  0  0  0  0  0  0  0  0  0  0  0
    9.1090   -7.0537    0.0000 C   0  0  0  0  0  0  0  0  0  0  0  0
    9.1090   -6.2287    0.0000 C   0  0  0  0  0  0  0  0  0  0  0  0
    8.3945   -5.8163    0.0000 C   0  0  0  0  0  0  0  0  0  0  0  0
    7.6800   -6.2287    0.0000 C   0  0  0  0  0  0  0  0  0  0  0  0
    9.8234   -7.4663    0.0000 O   0  0  0  0  0  0  0  0  0  0  0  0
   10.5379   -6.2287    0.0000 C   0  0  0  0  0  0  0  0  0  0  0  0
    9.8234   -5.8163    0.0000 O   0  0  0  0  0  0  0  0  0  0  0  0
    8.3945   -4.9913    0.0000 O   0  0  0  0  0  0  0  0  0  0  0  0
    7.6800   -4.5788    0.0000 C   0  0  0  0  0  0  0  0  0  0  0  0
    4.8221   -9.5287    0.0000 O   0  0  0  0  0  0  0  0  0  0  0  0
    5.5366   -9.9412    0.0000 C   0  0  0  0  0  0  0  0  0  0  0  0
    2.6787   -8.2912    0.0000 C   0  0  0  0  0  0  0  0  0  0  0  0
    3.3932   -8.7037    0.0000 O   0  0  0  0  0  0  0  0  0  0  0  0
  1  2  1  0  0  0  0
  2  3  2  0  0  0  0
  3  4  1  0  0  0  0
  4  5  1  0  0  0  0
  5  6  1  0  0  0  0
  6  1  2  0  0  0  0
  4  7  2  0  0  0  0
  7  8  1  0  0  0  0
  8  9  2  0  0  0  0
  9 10  1  0  0  0  0
 10  5  2  0  0  0  0
  8 11  1  0  0  0  0
 11 12  1  0  0  0  0
 12 13  1  0  0  0  0
 13 14  2  0  0  0  0
 14  9  1  0  0  0  0
 13 15  1  0  0  0  0
 15 16  2  0  0  0  0
 16 17  1  0  0  0  0
 17 18  2  0  0  0  0
 18 14  1  0  0  0  0
 15 19  1  0  0  0  0
 20 21  1  0  0  0  0
 21 16  1  0  0  0  0
 17 22  1  0  0  0  0
 22 23  1  0  0  0  0
  3 24  1  0  0  0  0
 24 25  1  0  0  0  0
 26 27  1  0  0  0  0
 27  2  1  0  0  0  0
M  CHG  1   8   1
M  END
>  <cdx:fragmentId>
5

$$$$
