12640.cdx
  Mrv1902 05222410222D          

 43 46  0  0  0  0            999 V2000
    4.5065   -8.8814    0.0000 O   0  0  0  0  0  0  0  0  0  0  0  0
   12.3656  -10.1189    0.0000 O   0  0  0  0  0  0  0  0  0  0  0  0
   12.3656   -8.4689    0.0000 O   0  0  0  0  0  0  0  0  0  0  0  0
    6.6499  -10.9439    0.0000 O   0  0  0  0  0  0  0  0  0  0  0  0
    5.2209   -8.4689    0.0000 C   0  0  0  0  0  0  0  0  0  0  0  0
    5.2209  -10.1189    0.0000 O   0  0  0  0  0  0  0  0  0  0  0  0
    6.6499   -8.4689    0.0000 O   0  0  0  0  0  0  0  0  0  0  0  0
    5.9354   -8.8814    0.0000 C   0  0  1  0  0  0  0  0  0  0  0  0
    5.9354   -9.7064    0.0000 C   0  0  2  0  0  0  0  0  0  0  0  0
    6.6499  -10.1189    0.0000 C   0  0  1  0  0  0  0  0  0  0  0  0
    8.0788   -8.4689    0.0000 O   0  0  0  0  0  0  0  0  0  0  0  0
    7.3644   -8.8814    0.0000 C   0  0  1  0  0  0  0  0  0  0  0  0
    7.3644   -9.7064    0.0000 C   0  0  2  0  0  0  0  0  0  0  0  0
    8.0788  -10.1189    0.0000 O   0  0  0  0  0  0  0  0  0  0  0  0
    9.5078   -8.4689    0.0000 C   0  0  0  0  0  0  0  0  0  0  0  0
    8.7933   -8.8814    0.0000 C   0  0  0  0  0  0  0  0  0  0  0  0
   10.9367   -8.4689    0.0000 C   0  0  0  0  0  0  0  0  0  0  0  0
   10.2222   -8.8814    0.0000 C   0  0  0  0  0  0  0  0  0  0  0  0
   10.2222   -9.7064    0.0000 C   0  0  0  0  0  0  0  0  0  0  0  0
   10.9367  -10.1189    0.0000 C   0  0  0  0  0  0  0  0  0  0  0  0
   11.6512   -9.7064    0.0000 C   0  0  0  0  0  0  0  0  0  0  0  0
   11.6512   -8.8814    0.0000 C   0  0  0  0  0  0  0  0  0  0  0  0
    5.2211  -10.9439    0.0000 C   0  0  0  0  0  0  0  0  0  0  0  0
    4.5067  -11.3566    0.0000 C   0  0  0  0  0  0  0  0  0  0  0  0
    5.9357  -11.3562    0.0000 O   0  0  0  0  0  0  0  0  0  0  0  0
    4.5069  -12.1816    0.0000 C   0  0  0  0  0  0  0  0  0  0  0  0
    3.7926  -12.5942    0.0000 C   0  0  0  0  0  0  0  0  0  0  0  0
    3.0780  -12.1819    0.0000 C   0  0  0  0  0  0  0  0  0  0  0  0
    2.3636  -12.5945    0.0000 C   0  0  0  0  0  0  0  0  0  0  0  0
    2.3638  -13.4195    0.0000 C   0  0  0  0  0  0  0  0  0  0  0  0
    3.0784  -13.8319    0.0000 C   0  0  0  0  0  0  0  0  0  0  0  0
    3.7927  -13.4192    0.0000 C   0  0  0  0  0  0  0  0  0  0  0  0
    1.6494  -13.8322    0.0000 O   0  0  0  0  0  0  0  0  0  0  0  0
    3.7920   -8.4689    0.0000 C   0  0  2  0  0  0  0  0  0  0  0  0
    3.7920   -7.6439    0.0000 O   0  0  0  0  0  0  0  0  0  0  0  0
    3.0775   -7.2314    0.0000 C   0  0  2  0  0  0  0  0  0  0  0  0
    2.3631   -7.6439    0.0000 C   0  0  1  0  0  0  0  0  0  0  0  0
    2.3631   -8.4689    0.0000 C   0  0  2  0  0  0  0  0  0  0  0  0
    3.0775   -8.8814    0.0000 C   0  0  1  0  0  0  0  0  0  0  0  0
    3.0775   -6.4064    0.0000 C   0  0  0  0  0  0  0  0  0  0  0  0
    1.6486   -7.2314    0.0000 O   0  0  0  0  0  0  0  0  0  0  0  0
    1.6486   -8.8814    0.0000 O   0  0  0  0  0  0  0  0  0  0  0  0
    3.0775   -9.7064    0.0000 O   0  0  0  0  0  0  0  0  0  0  0  0
  5  1  1  0  0  0  0
 21  2  1  0  0  0  0
 22  3  1  0  0  0  0
 10  4  1  1  0  0  0
  8  5  1  1  0  0  0
  9  6  1  6  0  0  0
  7 12  1  0  0  0  0
  8  7  1  0  0  0  0
  9  8  1  0  0  0  0
 10  9  1  0  0  0  0
 13 10  1  0  0  0  0
 11 16  1  0  0  0  0
 12 11  1  1  0  0  0
 13 12  1  0  0  0  0
 13 14  1  6  0  0  0
 15 18  1  0  0  0  0
 16 15  1  0  0  0  0
 17 22  1  0  0  0  0
 18 17  2  0  0  0  0
 19 18  1  0  0  0  0
 20 19  2  0  0  0  0
 21 20  1  0  0  0  0
 22 21  2  0  0  0  0
  6 23  1  0  0  0  0
 23 24  1  0  0  0  0
 23 25  2  0  0  0  0
 24 26  2  0  0  0  0
 26 27  1  0  0  0  0
 27 28  2  0  0  0  0
 28 29  1  0  0  0  0
 29 30  2  0  0  0  0
 30 31  1  0  0  0  0
 31 32  2  0  0  0  0
 32 27  1  0  0  0  0
 30 33  1  0  0  0  0
 34  1  1  1  0  0  0
 34 35  1  0  0  0  0
 35 36  1  0  0  0  0
 36 37  1  0  0  0  0
 37 38  1  0  0  0  0
 38 39  1  0  0  0  0
 39 34  1  0  0  0  0
 36 40  1  6  0  0  0
 37 41  1  1  0  0  0
 38 42  1  6  0  0  0
 39 43  1  6  0  0  0
M  END
>  <cdx:fragmentId>
423

$$$$
