12657.cdx
  Mrv1902 05222410232D          

 65 73  0  0  0  0            999 V2000
   15.7463  -10.4469    0.0000 C   0  0  1  0  0  0  0  0  0  0  0  0
   16.4577  -10.0293    0.0000 C   0  0  2  0  0  0  0  0  0  0  0  0
   17.2442  -10.2785    0.0000 C   0  0  0  0  0  0  0  0  0  0  0  0
   17.7243   -9.6076    0.0000 C   0  0  2  0  0  0  0  0  0  0  0  0
   18.5070   -9.3470    0.0000 O   0  0  0  0  0  0  0  0  0  0  0  0
   18.5011   -8.5220    0.0000 C   0  0  2  0  0  0  0  0  0  0  0  0
   17.7146   -8.2728    0.0000 C   0  0  2  0  0  0  0  0  0  0  0  0
   17.2345   -8.9437    0.0000 C   0  0  2  0  0  0  0  0  0  0  0  0
   16.4518   -9.2043    0.0000 C   0  0  1  0  0  0  0  0  0  0  0  0
   15.7344   -8.7969    0.0000 C   0  0  0  0  0  0  0  0  0  0  0  0
   15.0229   -9.2146    0.0000 C   0  0  0  0  0  0  0  0  0  0  0  0
   15.0288  -10.0396    0.0000 C   0  0  2  0  0  0  0  0  0  0  0  0
   14.3174  -10.4572    0.0000 C   0  0  1  0  0  0  0  0  0  0  0  0
   13.5999  -10.0499    0.0000 C   0  0  1  0  0  0  0  0  0  0  0  0
   12.8885  -10.4675    0.0000 C   0  0  0  0  0  0  0  0  0  0  0  0
   12.8944  -11.2925    0.0000 C   0  0  1  0  0  0  0  0  0  0  0  0
   13.6118  -11.6998    0.0000 C   0  0  0  0  0  0  0  0  0  0  0  0
   14.3233  -11.2822    0.0000 C   0  0  0  0  0  0  0  0  0  0  0  0
   15.0408  -11.6895    0.0000 C   0  0  0  0  0  0  0  0  0  0  0  0
   15.7522  -11.2719    0.0000 C   0  0  0  0  0  0  0  0  0  0  0  0
   18.4089   -7.7022    0.0000 O   0  0  0  0  0  0  0  0  0  0  0  0
   19.2572   -8.8521    0.0000 C   0  0  0  0  0  0  0  0  0  0  0  0
   19.9211   -8.3624    0.0000 C   0  0  0  0  0  0  0  0  0  0  0  0
   19.8289   -7.5426    0.0000 C   0  0  2  0  0  0  0  0  0  0  0  0
   19.0728   -7.2125    0.0000 C   0  0  0  0  0  0  0  0  0  0  0  0
   13.5940   -9.2249    0.0000 O   0  0  0  0  0  0  0  0  0  0  0  0
   12.1829  -11.7102    0.0000 O   0  0  0  0  0  0  0  0  0  0  0  0
   14.3114   -9.6322    0.0000 C   0  0  0  0  0  0  0  0  0  0  0  0
   16.4518   -8.3793    0.0000 C   0  0  0  0  0  0  0  0  0  0  0  0
   17.4540   -7.4900    0.0000 C   0  0  0  0  0  0  0  0  0  0  0  0
   20.4928   -7.0528    0.0000 C   0  0  0  0  0  0  0  0  0  0  0  0
   15.7403   -9.6219    0.0000 H   0  0  0  0  0  0  0  0  0  0  0  0
   16.4637  -10.8542    0.0000 H   0  0  0  0  0  0  0  0  0  0  0  0
   18.2140  -10.2715    0.0000 H   0  0  0  0  0  0  0  0  0  0  0  0
   16.8675   -8.2048    0.0000 H   0  0  0  0  0  0  0  0  0  0  0  0
   15.0348  -10.8645    0.0000 H   0  0  0  0  0  0  0  0  0  0  0  0
   13.1815   -8.5104    0.0000 C   0  0  2  0  0  0  0  0  0  0  0  0
   13.5940   -7.7960    0.0000 O   0  0  0  0  0  0  0  0  0  0  0  0
   13.1815   -7.0815    0.0000 C   0  0  1  0  0  0  0  0  0  0  0  0
   12.3565   -7.0815    0.0000 C   0  0  1  0  0  0  0  0  0  0  0  0
   11.9440   -7.7960    0.0000 C   0  0  1  0  0  0  0  0  0  0  0  0
   12.3565   -8.5104    0.0000 C   0  0  1  0  0  0  0  0  0  0  0  0
   13.5940   -6.3670    0.0000 C   0  0  0  0  0  0  0  0  0  0  0  0
   11.9440   -6.3670    0.0000 O   0  0  0  0  0  0  0  0  0  0  0  0
   11.1190   -7.7960    0.0000 O   0  0  0  0  0  0  0  0  0  0  0  0
   11.9440   -9.2249    0.0000 O   0  0  0  0  0  0  0  0  0  0  0  0
   11.2240   -9.6277    0.0000 C   0  0  2  0  0  0  0  0  0  0  0  0
   10.5152   -9.2055    0.0000 O   0  0  0  0  0  0  0  0  0  0  0  0
    9.7952   -9.6083    0.0000 C   0  0  1  0  0  0  0  0  0  0  0  0
    9.7840  -10.4332    0.0000 C   0  0  1  0  0  0  0  0  0  0  0  0
   10.4928  -10.8554    0.0000 C   0  0  1  0  0  0  0  0  0  0  0  0
   11.2128  -10.4526    0.0000 C   0  0  1  0  0  0  0  0  0  0  0  0
    9.0864   -9.1861    0.0000 C   0  0  0  0  0  0  0  0  0  0  0  0
   10.4816  -11.6803    0.0000 O   0  0  0  0  0  0  0  0  0  0  0  0
    9.0640  -10.8360    0.0000 O   0  0  0  0  0  0  0  0  0  0  0  0
   11.9216  -10.8748    0.0000 O   0  0  0  0  0  0  0  0  0  0  0  0
   11.2386   -5.9391    0.0000 C   0  0  2  0  0  0  0  0  0  0  0  0
   11.2566   -5.1143    0.0000 O   0  0  0  0  0  0  0  0  0  0  0  0
   10.5512   -4.6864    0.0000 C   0  0  0  0  0  0  0  0  0  0  0  0
    9.8280   -5.0832    0.0000 C   0  0  2  0  0  0  0  0  0  0  0  0
    9.8100   -5.9080    0.0000 C   0  0  1  0  0  0  0  0  0  0  0  0
   10.5154   -6.3360    0.0000 C   0  0  1  0  0  0  0  0  0  0  0  0
   10.4974   -7.1608    0.0000 O   0  0  0  0  0  0  0  0  0  0  0  0
    9.0868   -6.3049    0.0000 O   0  0  0  0  0  0  0  0  0  0  0  0
    9.1226   -4.6553    0.0000 O   0  0  0  0  0  0  0  0  0  0  0  0
  1  2  1  0  0  0  0
  2  3  1  0  0  0  0
  3  4  1  0  0  0  0
  4  5  1  0  0  0  0
  6  5  1  6  0  0  0
  6  7  1  0  0  0  0
  7  8  1  0  0  0  0
  8  9  1  0  0  0  0
  9 10  1  0  0  0  0
 10 11  1  0  0  0  0
 11 12  1  0  0  0  0
 12 13  1  0  0  0  0
 13 14  1  0  0  0  0
 14 15  1  0  0  0  0
 15 16  1  0  0  0  0
 16 17  1  0  0  0  0
 17 18  1  0  0  0  0
 18 19  2  0  0  0  0
 19 20  1  0  0  0  0
  1 20  1  0  0  0  0
  1 12  1  0  0  0  0
 13 18  1  0  0  0  0
  2  9  1  0  0  0  0
  4  8  1  0  0  0  0
 22 23  1  0  0  0  0
 23 24  1  0  0  0  0
 24 25  1  0  0  0  0
 21 25  1  0  0  0  0
  6 21  1  0  0  0  0
  6 22  1  0  0  0  0
 14 26  1  1  0  0  0
 16 27  1  1  0  0  0
 13 28  1  1  0  0  0
  9 29  1  1  0  0  0
  7 30  1  6  0  0  0
 24 31  1  6  0  0  0
  1 32  1  1  0  0  0
  2 33  1  6  0  0  0
  4 34  1  6  0  0  0
  8 35  1  6  0  0  0
 12 36  1  6  0  0  0
 37 26  1  1  0  0  0
 37 38  1  0  0  0  0
 38 39  1  0  0  0  0
 39 40  1  0  0  0  0
 40 41  1  0  0  0  0
 41 42  1  0  0  0  0
 42 37  1  0  0  0  0
 39 43  1  1  0  0  0
 40 44  1  1  0  0  0
 41 45  1  1  0  0  0
 42 46  1  6  0  0  0
 47 46  1  1  0  0  0
 47 48  1  0  0  0  0
 48 49  1  0  0  0  0
 49 50  1  0  0  0  0
 50 51  1  0  0  0  0
 51 52  1  0  0  0  0
 52 47  1  0  0  0  0
 49 53  1  1  0  0  0
 51 54  1  1  0  0  0
 50 55  1  1  0  0  0
 52 56  1  6  0  0  0
 57 44  1  1  0  0  0
 57 58  1  0  0  0  0
 58 59  1  0  0  0  0
 59 60  1  0  0  0  0
 60 61  1  0  0  0  0
 61 62  1  0  0  0  0
 62 57  1  0  0  0  0
 62 63  1  6  0  0  0
 61 64  1  1  0  0  0
 60 65  1  6  0  0  0
M  END
>  <cdx:fragmentId>
1026

$$$$
