12655.cdx
  Mrv1902 05222410222D          

 19 21  0  0  0  0            999 V2000
    4.0236   -3.4386    0.0000 O   0  0  0  0  0  0  0  0  0  0  0  0
   10.4470   -2.1660    0.0000 O   0  0  0  0  0  0  0  0  0  0  0  0
    8.3058   -2.5902    0.0000 C   0  0  0  0  0  0  0  0  0  0  0  0
    9.0180   -2.1738    0.0000 C   0  0  0  0  0  0  0  0  0  0  0  0
    9.7347   -2.5824    0.0000 C   0  0  0  0  0  0  0  0  0  0  0  0
    9.7392   -3.4074    0.0000 C   0  0  0  0  0  0  0  0  0  0  0  0
    9.0270   -3.8238    0.0000 C   0  0  0  0  0  0  0  0  0  0  0  0
    8.3103   -3.4152    0.0000 C   0  0  0  0  0  0  0  0  0  0  0  0
    6.8949   -5.8980    0.0000 O   0  0  0  0  0  0  0  0  0  0  0  0
    6.8814   -3.4230    0.0000 O   0  0  0  0  0  0  0  0  0  0  0  0
    6.1692   -3.8394    0.0000 C   0  0  0  0  0  0  0  0  0  0  0  0
    5.4525   -3.4308    0.0000 C   0  0  0  0  0  0  0  0  0  0  0  0
    4.7403   -3.8472    0.0000 C   0  0  0  0  0  0  0  0  0  0  0  0
    4.7448   -4.6722    0.0000 C   0  0  0  0  0  0  0  0  0  0  0  0
    5.4615   -5.0808    0.0000 C   0  0  0  0  0  0  0  0  0  0  0  0
    6.1737   -4.6644    0.0000 C   0  0  0  0  0  0  0  0  0  0  0  0
    6.8904   -5.0730    0.0000 C   0  0  0  0  0  0  0  0  0  0  0  0
    7.6026   -4.6566    0.0000 C   0  0  0  0  0  0  0  0  0  0  0  0
    7.5981   -3.8316    0.0000 C   0  0  1  0  0  0  0  0  0  0  0  0
 13  1  1  0  0  0  0
 19  8  1  6  0  0  0
  5  2  1  0  0  0  0
  8  3  2  0  0  0  0
  4  3  1  0  0  0  0
  5  4  2  0  0  0  0
  6  5  1  0  0  0  0
  7  6  2  0  0  0  0
  8  7  1  0  0  0  0
 17  9  2  0  0  0  0
 19 10  1  0  0  0  0
 11 10  1  0  0  0  0
 16 11  2  0  0  0  0
 12 11  1  0  0  0  0
 13 12  2  0  0  0  0
 14 13  1  0  0  0  0
 15 14  2  0  0  0  0
 16 15  1  0  0  0  0
 17 16  1  0  0  0  0
 18 17  1  0  0  0  0
 19 18  1  0  0  0  0
M  END
>  <cdx:fragmentId>
77

$$$$
