12658.cdx
  Mrv1902 05222410242D          

 24 27  0  0  0  0            999 V2000
    5.0107   -5.3222    0.0000 C   0  0  0  0  0  0  0  0  0  0  0  0
    4.7944   -6.1183    0.0000 C   0  0  0  0  0  0  0  0  0  0  0  0
    5.3758   -6.7037    0.0000 C   0  0  0  0  0  0  0  0  0  0  0  0
    6.1734   -6.4929    0.0000 C   0  0  0  0  0  0  0  0  0  0  0  0
    6.3897   -5.6968    0.0000 C   0  0  0  0  0  0  0  0  0  0  0  0
    5.8083   -5.1114    0.0000 C   0  0  0  0  0  0  0  0  0  0  0  0
    6.8637   -6.9446    0.0000 C   0  0  0  0  0  0  0  0  0  0  0  0
    7.5067   -6.4277    0.0000 C   0  0  0  0  0  0  0  0  0  0  0  0
    7.2137   -5.6564    0.0000 N   0  3  0  0  0  0  0  0  0  0  0  0
    8.3211   -6.5595    0.0000 C   0  0  0  0  0  0  0  0  0  0  0  0
    8.8425   -5.9202    0.0000 C   0  0  0  0  0  0  0  0  0  0  0  0
    8.5495   -5.1490    0.0000 C   0  0  0  0  0  0  0  0  0  0  0  0
    7.7351   -5.0171    0.0000 C   0  0  0  0  0  0  0  0  0  0  0  0
    8.6141   -7.3307    0.0000 C   0  0  0  0  0  0  0  0  0  0  0  0
    9.4285   -7.4626    0.0000 C   0  0  0  0  0  0  0  0  0  0  0  0
    9.9499   -6.8233    0.0000 C   0  0  0  0  0  0  0  0  0  0  0  0
    9.6569   -6.0521    0.0000 C   0  0  0  0  0  0  0  0  0  0  0  0
    4.4294   -4.7368    0.0000 O   0  0  0  0  0  0  0  0  0  0  0  0
    3.9968   -6.3291    0.0000 O   0  0  0  0  0  0  0  0  0  0  0  0
    3.7805   -7.1252    0.0000 C   0  0  0  0  0  0  0  0  0  0  0  0
    6.8980   -4.8517    0.0000 C   0  0  0  0  0  0  0  0  0  0  0  0
    9.7297   -8.2421    0.0000 O   0  0  0  0  0  0  0  0  0  0  0  0
   10.7460   -7.0395    0.0000 O   0  0  0  0  0  0  0  0  0  0  0  0
   11.1214   -7.8605    0.0000 C   0  0  0  0  0  0  0  0  0  0  0  0
  1  2  2  0  0  0  0
  2  3  1  0  0  0  0
  3  4  2  0  0  0  0
  4  5  1  0  0  0  0
  5  6  2  0  0  0  0
  6  1  1  0  0  0  0
  4  7  1  0  0  0  0
  7  8  1  0  0  0  0
  8  9  1  0  0  0  0
  9  5  1  0  0  0  0
  8 10  1  0  0  0  0
 10 11  2  0  0  0  0
 11 12  1  0  0  0  0
 12 13  1  0  0  0  0
 13  9  1  0  0  0  0
 10 14  1  0  0  0  0
 14 15  2  0  0  0  0
 15 16  1  0  0  0  0
 16 17  2  0  0  0  0
 17 11  1  0  0  0  0
  1 18  1  0  0  0  0
  2 19  1  0  0  0  0
 19 20  1  0  0  0  0
  9 21  1  0  0  0  0
 15 22  1  0  0  0  0
 16 23  1  0  0  0  0
 23 24  1  0  0  0  0
M  CHG  1   9   1
M  END
>  <cdx:fragmentId>
5

$$$$
