126537.cdx
  Mrv1902 05222410182D          

 13 14  0  0  0  0            999 V2000
    8.6415   -7.3691    0.0000 O   0  0  0  0  0  0  0  0  0  0  0  0
    9.1264   -6.7017    0.0000 C   0  0  0  0  0  0  0  0  0  0  0  0
    8.6415   -6.0342    0.0000 C   0  0  2  0  0  0  0  0  0  0  0  0
    7.8569   -6.2892    0.0000 C   0  0  2  0  0  0  0  0  0  0  0  0
    7.1424   -5.8767    0.0000 C   0  0  0  0  0  0  0  0  0  0  0  0
    6.4279   -6.2892    0.0000 C   0  0  0  0  0  0  0  0  0  0  0  0
    6.4279   -7.1142    0.0000 C   0  0  0  0  0  0  0  0  0  0  0  0
    7.1424   -7.5267    0.0000 C   0  0  0  0  0  0  0  0  0  0  0  0
    7.8569   -7.1142    0.0000 C   0  0  2  0  0  0  0  0  0  0  0  0
    5.7135   -7.5267    0.0000 C   0  0  0  0  0  0  0  0  0  0  0  0
    8.8964   -5.2496    0.0000 C   0  0  0  0  0  0  0  0  0  0  0  0
    7.9431   -5.4687    0.0000 H   0  0  0  0  0  0  0  0  0  0  0  0
    7.9431   -7.9346    0.0000 H   0  0  0  0  0  0  0  0  0  0  0  0
  1  2  1  0  0  0  0
  2  3  1  0  0  0  0
  3  4  1  0  0  0  0
  4  5  1  0  0  0  0
  5  6  1  0  0  0  0
  6  7  1  0  0  0  0
  7  8  2  0  0  0  0
  8  9  1  0  0  0  0
  4  9  1  0  0  0  0
  1  9  1  0  0  0  0
  7 10  1  0  0  0  0
  3 11  1  6  0  0  0
  4 12  1  6  0  0  0
  9 13  1  6  0  0  0
M  END
>  <cdx:groupId>
42

>  <cdx:fragmentId>
5

$$$$
