12656.cdx
  Mrv1902 05222410232D          

 66 74  0  0  0  0            999 V2000
   15.8288  -10.3369    0.0000 C   0  0  1  0  0  0  0  0  0  0  0  0
   16.5402   -9.9193    0.0000 C   0  0  2  0  0  0  0  0  0  0  0  0
   17.3267  -10.1685    0.0000 C   0  0  0  0  0  0  0  0  0  0  0  0
   17.8068   -9.4976    0.0000 C   0  0  2  0  0  0  0  0  0  0  0  0
   18.5895   -9.2370    0.0000 O   0  0  0  0  0  0  0  0  0  0  0  0
   18.5836   -8.4120    0.0000 C   0  0  2  0  0  0  0  0  0  0  0  0
   17.7971   -8.1628    0.0000 C   0  0  2  0  0  0  0  0  0  0  0  0
   17.3170   -8.8337    0.0000 C   0  0  2  0  0  0  0  0  0  0  0  0
   16.5343   -9.0943    0.0000 C   0  0  1  0  0  0  0  0  0  0  0  0
   15.8169   -8.6869    0.0000 C   0  0  0  0  0  0  0  0  0  0  0  0
   15.1054   -9.1046    0.0000 C   0  0  0  0  0  0  0  0  0  0  0  0
   15.1113   -9.9296    0.0000 C   0  0  2  0  0  0  0  0  0  0  0  0
   14.3999  -10.3472    0.0000 C   0  0  1  0  0  0  0  0  0  0  0  0
   13.6824   -9.9399    0.0000 C   0  0  1  0  0  0  0  0  0  0  0  0
   12.9710  -10.3575    0.0000 C   0  0  0  0  0  0  0  0  0  0  0  0
   12.9769  -11.1825    0.0000 C   0  0  1  0  0  0  0  0  0  0  0  0
   13.6943  -11.5898    0.0000 C   0  0  0  0  0  0  0  0  0  0  0  0
   14.4058  -11.1722    0.0000 C   0  0  0  0  0  0  0  0  0  0  0  0
   15.1233  -11.5795    0.0000 C   0  0  0  0  0  0  0  0  0  0  0  0
   15.8347  -11.1619    0.0000 C   0  0  0  0  0  0  0  0  0  0  0  0
   18.4914   -7.5922    0.0000 O   0  0  0  0  0  0  0  0  0  0  0  0
   19.3397   -8.7421    0.0000 C   0  0  0  0  0  0  0  0  0  0  0  0
   20.0036   -8.2524    0.0000 C   0  0  0  0  0  0  0  0  0  0  0  0
   19.9114   -7.4326    0.0000 C   0  0  2  0  0  0  0  0  0  0  0  0
   19.1553   -7.1025    0.0000 C   0  0  0  0  0  0  0  0  0  0  0  0
   13.6765   -9.1149    0.0000 O   0  0  0  0  0  0  0  0  0  0  0  0
   12.2654  -11.6002    0.0000 O   0  0  0  0  0  0  0  0  0  0  0  0
   14.3939   -9.5222    0.0000 C   0  0  0  0  0  0  0  0  0  0  0  0
   16.5343   -8.2693    0.0000 C   0  0  0  0  0  0  0  0  0  0  0  0
   17.5365   -7.3800    0.0000 C   0  0  0  0  0  0  0  0  0  0  0  0
   20.5753   -6.9428    0.0000 C   0  0  0  0  0  0  0  0  0  0  0  0
   15.8228   -9.5119    0.0000 H   0  0  0  0  0  0  0  0  0  0  0  0
   16.5462  -10.7442    0.0000 H   0  0  0  0  0  0  0  0  0  0  0  0
   18.2965  -10.1615    0.0000 H   0  0  0  0  0  0  0  0  0  0  0  0
   16.9500   -8.0948    0.0000 H   0  0  0  0  0  0  0  0  0  0  0  0
   15.1173  -10.7545    0.0000 H   0  0  0  0  0  0  0  0  0  0  0  0
   13.2640   -8.4004    0.0000 C   0  0  2  0  0  0  0  0  0  0  0  0
   13.6765   -7.6860    0.0000 O   0  0  0  0  0  0  0  0  0  0  0  0
   13.2640   -6.9715    0.0000 C   0  0  1  0  0  0  0  0  0  0  0  0
   12.4390   -6.9715    0.0000 C   0  0  2  0  0  0  0  0  0  0  0  0
   12.0265   -7.6860    0.0000 C   0  0  1  0  0  0  0  0  0  0  0  0
   12.4390   -8.4004    0.0000 C   0  0  1  0  0  0  0  0  0  0  0  0
   13.6765   -6.2570    0.0000 C   0  0  0  0  0  0  0  0  0  0  0  0
   12.0265   -6.2570    0.0000 O   0  0  0  0  0  0  0  0  0  0  0  0
   11.2015   -7.6860    0.0000 O   0  0  0  0  0  0  0  0  0  0  0  0
   12.0265   -9.1149    0.0000 O   0  0  0  0  0  0  0  0  0  0  0  0
   11.3065   -9.5177    0.0000 C   0  0  2  0  0  0  0  0  0  0  0  0
   10.5977   -9.0955    0.0000 O   0  0  0  0  0  0  0  0  0  0  0  0
    9.8777   -9.4983    0.0000 C   0  0  1  0  0  0  0  0  0  0  0  0
    9.8665  -10.3232    0.0000 C   0  0  1  0  0  0  0  0  0  0  0  0
   10.5753  -10.7454    0.0000 C   0  0  1  0  0  0  0  0  0  0  0  0
   11.2953  -10.3426    0.0000 C   0  0  1  0  0  0  0  0  0  0  0  0
   10.4870   -7.2735    0.0000 C   0  0  2  0  0  0  0  0  0  0  0  0
   10.4870   -6.4485    0.0000 O   0  0  0  0  0  0  0  0  0  0  0  0
    9.7725   -6.0360    0.0000 C   0  0  0  0  0  0  0  0  0  0  0  0
    9.0581   -6.4485    0.0000 C   0  0  2  0  0  0  0  0  0  0  0  0
    9.0581   -7.2735    0.0000 C   0  0  1  0  0  0  0  0  0  0  0  0
    9.7725   -7.6860    0.0000 C   0  0  1  0  0  0  0  0  0  0  0  0
    9.7725   -8.5110    0.0000 O   0  0  0  0  0  0  0  0  0  0  0  0
    8.3436   -7.6860    0.0000 O   0  0  0  0  0  0  0  0  0  0  0  0
    8.3436   -6.0360    0.0000 O   0  0  0  0  0  0  0  0  0  0  0  0
    9.1689   -9.0761    0.0000 C   0  0  0  0  0  0  0  0  0  0  0  0
   10.5641  -11.5703    0.0000 O   0  0  0  0  0  0  0  0  0  0  0  0
    9.1465  -10.7260    0.0000 O   0  0  0  0  0  0  0  0  0  0  0  0
   12.0041  -10.7648    0.0000 O   0  0  0  0  0  0  0  0  0  0  0  0
   13.2640   -5.5426    0.0000 O   0  0  0  0  0  0  0  0  0  0  0  0
  1  2  1  0  0  0  0
  2  3  1  0  0  0  0
  3  4  1  0  0  0  0
  4  5  1  0  0  0  0
  6  5  1  6  0  0  0
  6  7  1  0  0  0  0
  7  8  1  0  0  0  0
  8  9  1  0  0  0  0
  9 10  1  0  0  0  0
 10 11  1  0  0  0  0
 11 12  1  0  0  0  0
 12 13  1  0  0  0  0
 13 14  1  0  0  0  0
 14 15  1  0  0  0  0
 15 16  1  0  0  0  0
 16 17  1  0  0  0  0
 17 18  1  0  0  0  0
 18 19  2  0  0  0  0
 19 20  1  0  0  0  0
  1 20  1  0  0  0  0
  1 12  1  0  0  0  0
 13 18  1  0  0  0  0
  2  9  1  0  0  0  0
  4  8  1  0  0  0  0
 22 23  1  0  0  0  0
 23 24  1  0  0  0  0
 24 25  1  0  0  0  0
 21 25  1  0  0  0  0
  6 21  1  0  0  0  0
  6 22  1  0  0  0  0
 14 26  1  1  0  0  0
 16 27  1  1  0  0  0
 13 28  1  1  0  0  0
  9 29  1  1  0  0  0
  7 30  1  6  0  0  0
 24 31  1  6  0  0  0
  1 32  1  1  0  0  0
  2 33  1  6  0  0  0
  4 34  1  6  0  0  0
  8 35  1  6  0  0  0
 12 36  1  6  0  0  0
 37 26  1  1  0  0  0
 37 38  1  0  0  0  0
 38 39  1  0  0  0  0
 39 40  1  0  0  0  0
 40 41  1  0  0  0  0
 41 42  1  0  0  0  0
 42 37  1  0  0  0  0
 39 43  1  1  0  0  0
 40 44  1  6  0  0  0
 41 45  1  1  0  0  0
 42 46  1  6  0  0  0
 47 46  1  1  0  0  0
 47 48  1  0  0  0  0
 48 49  1  0  0  0  0
 49 50  1  0  0  0  0
 50 51  1  0  0  0  0
 51 52  1  0  0  0  0
 52 47  1  0  0  0  0
 53 45  1  1  0  0  0
 53 54  1  0  0  0  0
 54 55  1  0  0  0  0
 55 56  1  0  0  0  0
 56 57  1  0  0  0  0
 57 58  1  0  0  0  0
 58 53  1  0  0  0  0
 58 59  1  6  0  0  0
 57 60  1  1  0  0  0
 56 61  1  6  0  0  0
 49 62  1  1  0  0  0
 51 63  1  1  0  0  0
 50 64  1  1  0  0  0
 52 65  1  6  0  0  0
 43 66  1  0  0  0  0
M  END
>  <cdx:fragmentId>
751

$$$$
