12672.cdx
  Mrv1902 05222410232D          

 25 26  0  0  0  0            999 V2000
    3.4064   -6.3731    0.0000 C   0  0  0  0  0  0  0  0  0  0  0  0
    3.4064   -7.1981    0.0000 C   0  0  0  0  0  0  0  0  0  0  0  0
    4.1209   -7.6106    0.0000 C   0  0  0  0  0  0  0  0  0  0  0  0
    4.8353   -7.1981    0.0000 C   0  0  0  0  0  0  0  0  0  0  0  0
    4.8353   -6.3731    0.0000 C   0  0  0  0  0  0  0  0  0  0  0  0
    4.1209   -5.9606    0.0000 C   0  0  0  0  0  0  0  0  0  0  0  0
    5.5498   -7.6106    0.0000 C   0  0  0  0  0  0  0  0  0  0  0  0
    6.2643   -7.1981    0.0000 C   0  0  0  0  0  0  0  0  0  0  0  0
    6.2643   -6.3731    0.0000 C   0  0  0  0  0  0  0  0  0  0  0  0
    5.5498   -5.9606    0.0000 C   0  0  0  0  0  0  0  0  0  0  0  0
    4.1209   -5.1356    0.0000 O   0  0  0  0  0  0  0  0  0  0  0  0
    4.1209   -8.4356    0.0000 O   0  0  0  0  0  0  0  0  0  0  0  0
    5.5498   -5.1356    0.0000 O   0  0  0  0  0  0  0  0  0  0  0  0
    5.5498   -8.4356    0.0000 O   0  0  0  0  0  0  0  0  0  0  0  0
    6.9788   -5.9606    0.0000 C   0  0  0  0  0  0  0  0  0  0  0  0
    7.6932   -6.3731    0.0000 C   0  0  0  0  0  0  0  0  0  0  0  0
    8.4077   -5.9606    0.0000 C   0  0  0  0  0  0  0  0  0  0  0  0
    9.1222   -6.3731    0.0000 C   0  0  0  0  0  0  0  0  0  0  0  0
    9.8366   -5.9606    0.0000 C   0  0  0  0  0  0  0  0  0  0  0  0
    9.8366   -6.7856    0.0000 O   0  0  0  0  0  0  0  0  0  0  0  0
    9.1222   -7.1981    0.0000 C   0  0  0  0  0  0  0  0  0  0  0  0
    6.9788   -5.1356    0.0000 O   0  0  0  0  0  0  0  0  0  0  0  0
    7.6932   -4.7231    0.0000 C   0  0  0  0  0  0  0  0  0  0  0  0
    8.4077   -5.1356    0.0000 C   0  0  0  0  0  0  0  0  0  0  0  0
    7.6932   -3.8981    0.0000 O   0  0  0  0  0  0  0  0  0  0  0  0
  1  2  1  0  0  0  0
  2  3  2  0  0  0  0
  3  4  1  0  0  0  0
  4  5  2  0  0  0  0
  5  6  1  0  0  0  0
  6  1  2  0  0  0  0
  4  7  1  0  0  0  0
  7  8  1  0  0  0  0
  8  9  2  0  0  0  0
  9 10  1  0  0  0  0
 10  5  1  0  0  0  0
  6 11  1  0  0  0  0
  3 12  1  0  0  0  0
 10 13  2  0  0  0  0
  7 14  2  0  0  0  0
  9 15  1  0  0  0  0
 15 16  1  0  0  0  0
 16 17  2  0  0  0  0
 17 18  1  0  0  0  0
 18 19  1  0  0  0  0
 18 20  1  0  0  0  0
 18 21  1  0  0  0  0
 15 22  1  0  0  0  0
 22 23  1  0  0  0  0
 23 24  1  0  0  0  0
 23 25  2  0  0  0  0
M  END
>  <cdx:fragmentId>
5

$$$$
