12673.cdx
  Mrv1902 05222410232D          

 32 33  0  0  0  0            999 V2000
    3.5302   -6.1256    0.0000 C   0  0  0  0  0  0  0  0  0  0  0  0
    3.5302   -6.9506    0.0000 C   0  0  0  0  0  0  0  0  0  0  0  0
    4.2446   -7.3631    0.0000 C   0  0  0  0  0  0  0  0  0  0  0  0
    4.9591   -6.9506    0.0000 C   0  0  0  0  0  0  0  0  0  0  0  0
    4.9591   -6.1256    0.0000 C   0  0  0  0  0  0  0  0  0  0  0  0
    4.2446   -5.7131    0.0000 C   0  0  0  0  0  0  0  0  0  0  0  0
    5.6736   -7.3631    0.0000 C   0  0  0  0  0  0  0  0  0  0  0  0
    6.3880   -6.9506    0.0000 C   0  0  0  0  0  0  0  0  0  0  0  0
    6.3880   -6.1256    0.0000 C   0  0  0  0  0  0  0  0  0  0  0  0
    5.6736   -5.7131    0.0000 C   0  0  0  0  0  0  0  0  0  0  0  0
    7.8170   -6.1256    0.0000 C   0  0  0  0  0  0  0  0  0  0  0  0
    7.1025   -5.7131    0.0000 C   0  0  0  0  0  0  0  0  0  0  0  0
    9.2459   -6.9506    0.0000 C   0  0  0  0  0  0  0  0  0  0  0  0
    9.2459   -6.1256    0.0000 C   0  0  0  0  0  0  0  0  0  0  0  0
    8.5315   -5.7131    0.0000 C   0  0  0  0  0  0  0  0  0  0  0  0
    4.2446   -4.8881    0.0000 O   0  0  0  0  0  0  0  0  0  0  0  0
    4.2446   -8.1881    0.0000 O   0  0  0  0  0  0  0  0  0  0  0  0
    5.6736   -4.8881    0.0000 O   0  0  0  0  0  0  0  0  0  0  0  0
    5.6736   -8.1881    0.0000 O   0  0  0  0  0  0  0  0  0  0  0  0
    9.9604   -5.7131    0.0000 C   0  0  0  0  0  0  0  0  0  0  0  0
    9.9604   -6.5381    0.0000 O   0  0  0  0  0  0  0  0  0  0  0  0
    7.1025   -4.8881    0.0000 O   0  0  0  0  0  0  0  0  0  0  0  0
    7.8170   -4.4756    0.0000 C   0  0  0  0  0  0  0  0  0  0  0  0
    7.8170   -3.6506    0.0000 O   0  0  0  0  0  0  0  0  0  0  0  0
    8.5315   -4.8881    0.0000 C   0  0  0  0  0  0  0  0  0  0  0  0
    9.2459   -4.4756    0.0000 C   0  0  0  0  0  0  0  0  0  0  0  0
    9.9604   -4.8881    0.0000 C   0  0  0  0  0  0  0  0  0  0  0  0
    8.8334   -3.7612    0.0000 C   0  0  0  0  0  0  0  0  0  0  0  0
    9.6584   -3.7612    0.0000 O   0  0  0  0  0  0  0  0  0  0  0  0
   10.4834   -3.7612    0.0000 C   0  0  0  0  0  0  0  0  0  0  0  0
   11.0668   -3.1778    0.0000 O   0  0  0  0  0  0  0  0  0  0  0  0
   11.0668   -4.3445    0.0000 C   0  0  0  0  0  0  0  0  0  0  0  0
  1  2  1  0  0  0  0
  2  3  2  0  0  0  0
  3  4  1  0  0  0  0
  4  5  2  0  0  0  0
  5  6  1  0  0  0  0
  6  1  2  0  0  0  0
  4  7  1  0  0  0  0
  7  8  1  0  0  0  0
  8  9  2  0  0  0  0
  9 10  1  0  0  0  0
 10  5  1  0  0  0  0
 11 12  1  0  0  0  0
 12  9  1  0  0  0  0
 13 14  1  0  0  0  0
 14 15  1  0  0  0  0
 15 11  2  0  0  0  0
  6 16  1  0  0  0  0
  3 17  1  0  0  0  0
 10 18  2  0  0  0  0
  7 19  2  0  0  0  0
 14 20  1  0  0  0  0
 14 21  1  0  0  0  0
 12 22  1  0  0  0  0
 22 23  1  0  0  0  0
 23 24  2  0  0  0  0
 23 25  1  0  0  0  0
 25 26  1  0  0  0  0
 26 27  1  0  0  0  0
 26 28  1  0  0  0  0
 26 29  1  0  0  0  0
 29 30  1  0  0  0  0
 30 31  2  0  0  0  0
 30 32  1  0  0  0  0
M  END
>  <cdx:fragmentId>
5

$$$$
