12676.cdx
  Mrv1902 05222410252D          

 30 33  0  0  0  0            999 V2000
    6.6234   -2.1642    0.0000 C   0  0  0  0  0  0  0  0  0  0  0  0
    7.3390   -2.5747    0.0000 C   0  0  0  0  0  0  0  0  0  0  0  0
    7.3412   -3.3997    0.0000 C   0  0  0  0  0  0  0  0  0  0  0  0
    6.6279   -3.8141    0.0000 C   0  0  0  0  0  0  0  0  0  0  0  0
    5.9123   -3.4036    0.0000 C   0  0  0  0  0  0  0  0  0  0  0  0
    5.9100   -2.5786    0.0000 C   0  0  0  0  0  0  0  0  0  0  0  0
    6.6302   -4.6391    0.0000 O   0  0  0  0  0  0  0  0  0  0  0  0
    5.9169   -5.0536    0.0000 C   0  0  1  0  0  0  0  0  0  0  0  0
    5.2013   -4.6431    0.0000 C   0  0  0  0  0  0  0  0  0  0  0  0
    5.1990   -3.8181    0.0000 C   0  0  0  0  0  0  0  0  0  0  0  0
    5.9191   -5.8786    0.0000 C   0  0  0  0  0  0  0  0  0  0  0  0
    5.2058   -6.2931    0.0000 C   0  0  0  0  0  0  0  0  0  0  0  0
    6.6347   -6.2891    0.0000 C   0  0  0  0  0  0  0  0  0  0  0  0
    6.6370   -7.1141    0.0000 C   0  0  0  0  0  0  0  0  0  0  0  0
    5.9237   -7.5286    0.0000 C   0  0  0  0  0  0  0  0  0  0  0  0
    5.2081   -7.1181    0.0000 C   0  0  0  0  0  0  0  0  0  0  0  0
    8.0523   -2.1602    0.0000 O   0  0  0  0  0  0  0  0  0  0  0  0
    4.4834   -3.4076    0.0000 O   0  0  0  0  0  0  0  0  0  0  0  0
    5.9260   -8.3536    0.0000 O   0  0  0  0  0  0  0  0  0  0  0  0
    3.8073   -8.8084    0.0000 C   0  0  2  0  0  0  0  0  0  0  0  0
    3.8232   -9.6333    0.0000 C   0  0  2  0  0  0  0  0  0  0  0  0
    4.5455  -10.0319    0.0000 C   0  0  1  0  0  0  0  0  0  0  0  0
    5.2519   -9.6057    0.0000 C   0  0  2  0  0  0  0  0  0  0  0  0
    5.2360   -8.7809    0.0000 C   0  0  1  0  0  0  0  0  0  0  0  0
    4.5137   -8.3822    0.0000 O   0  0  0  0  0  0  0  0  0  0  0  0
    3.0850   -8.4097    0.0000 C   0  0  0  0  0  0  0  0  0  0  0  0
    4.5614  -10.8568    0.0000 O   0  0  0  0  0  0  0  0  0  0  0  0
    5.9742  -10.0044    0.0000 O   0  0  0  0  0  0  0  0  0  0  0  0
    3.1168  -10.0594    0.0000 O   0  0  0  0  0  0  0  0  0  0  0  0
    2.3787   -8.8359    0.0000 O   0  0  0  0  0  0  0  0  0  0  0  0
  1  2  1  0  0  0  0
  2  3  2  0  0  0  0
  3  4  1  0  0  0  0
  4  5  2  0  0  0  0
  5  6  1  0  0  0  0
  6  1  2  0  0  0  0
  4  7  1  0  0  0  0
  7  8  1  0  0  0  0
  8  9  1  0  0  0  0
  9 10  1  0  0  0  0
 10  5  1  0  0  0  0
  8 11  1  6  0  0  0
 11 12  1  0  0  0  0
 11 13  2  0  0  0  0
 13 14  1  0  0  0  0
 14 15  2  0  0  0  0
 15 16  1  0  0  0  0
 16 12  2  0  0  0  0
  2 17  1  0  0  0  0
 10 18  2  0  0  0  0
 15 19  1  0  0  0  0
 20 21  1  0  0  0  0
 21 22  1  0  0  0  0
 22 23  1  0  0  0  0
 23 24  1  0  0  0  0
 24 25  1  0  0  0  0
 25 20  1  0  0  0  0
 20 26  1  1  0  0  0
 22 27  1  1  0  0  0
 23 28  1  6  0  0  0
 21 29  1  6  0  0  0
 26 30  1  0  0  0  0
 24 19  1  1  0  0  0
M  END
>  <cdx:fragmentId>
5

$$$$
