12679.cdx
  Mrv1902 05222410212D          

 75 84  0  0  0  0            999 V2000
   15.8013   -9.1269    0.0000 C   0  0  1  0  0  0  0  0  0  0  0  0
   16.5127   -8.7093    0.0000 C   0  0  2  0  0  0  0  0  0  0  0  0
   17.2992   -8.9585    0.0000 C   0  0  0  0  0  0  0  0  0  0  0  0
   17.7793   -8.2876    0.0000 C   0  0  2  0  0  0  0  0  0  0  0  0
   18.5620   -8.0270    0.0000 O   0  0  0  0  0  0  0  0  0  0  0  0
   18.5561   -7.2020    0.0000 C   0  0  2  0  0  0  0  0  0  0  0  0
   17.7696   -6.9528    0.0000 C   0  0  2  0  0  0  0  0  0  0  0  0
   17.2895   -7.6237    0.0000 C   0  0  2  0  0  0  0  0  0  0  0  0
   16.5068   -7.8843    0.0000 C   0  0  1  0  0  0  0  0  0  0  0  0
   15.7894   -7.4769    0.0000 C   0  0  0  0  0  0  0  0  0  0  0  0
   15.0779   -7.8946    0.0000 C   0  0  0  0  0  0  0  0  0  0  0  0
   15.0838   -8.7196    0.0000 C   0  0  2  0  0  0  0  0  0  0  0  0
   14.3724   -9.1372    0.0000 C   0  0  1  0  0  0  0  0  0  0  0  0
   13.6549   -8.7299    0.0000 C   0  0  1  0  0  0  0  0  0  0  0  0
   12.9435   -9.1475    0.0000 C   0  0  0  0  0  0  0  0  0  0  0  0
   12.9494   -9.9725    0.0000 C   0  0  1  0  0  0  0  0  0  0  0  0
   13.6668  -10.3798    0.0000 C   0  0  0  0  0  0  0  0  0  0  0  0
   14.3783   -9.9622    0.0000 C   0  0  0  0  0  0  0  0  0  0  0  0
   15.0958  -10.3695    0.0000 C   0  0  0  0  0  0  0  0  0  0  0  0
   15.8072   -9.9519    0.0000 C   0  0  0  0  0  0  0  0  0  0  0  0
   18.4639   -6.3822    0.0000 O   0  0  0  0  0  0  0  0  0  0  0  0
   19.3122   -7.5321    0.0000 C   0  0  0  0  0  0  0  0  0  0  0  0
   19.9761   -7.0424    0.0000 C   0  0  0  0  0  0  0  0  0  0  0  0
   19.8839   -6.2226    0.0000 C   0  0  2  0  0  0  0  0  0  0  0  0
   19.1278   -5.8925    0.0000 C   0  0  0  0  0  0  0  0  0  0  0  0
   13.6490   -7.9049    0.0000 O   0  0  0  0  0  0  0  0  0  0  0  0
   12.2379  -10.3902    0.0000 O   0  0  0  0  0  0  0  0  0  0  0  0
   14.3664   -8.3122    0.0000 C   0  0  0  0  0  0  0  0  0  0  0  0
   16.5068   -7.0593    0.0000 C   0  0  0  0  0  0  0  0  0  0  0  0
   17.5090   -6.1700    0.0000 C   0  0  0  0  0  0  0  0  0  0  0  0
   20.5478   -5.7328    0.0000 C   0  0  0  0  0  0  0  0  0  0  0  0
   15.7953   -8.3019    0.0000 H   0  0  0  0  0  0  0  0  0  0  0  0
   16.5187   -9.5342    0.0000 H   0  0  0  0  0  0  0  0  0  0  0  0
   18.2690   -8.9515    0.0000 H   0  0  0  0  0  0  0  0  0  0  0  0
   16.9225   -6.8848    0.0000 H   0  0  0  0  0  0  0  0  0  0  0  0
   15.0898   -9.5445    0.0000 H   0  0  0  0  0  0  0  0  0  0  0  0
   13.2365   -7.1904    0.0000 C   0  0  2  0  0  0  0  0  0  0  0  0
   13.6490   -6.4760    0.0000 O   0  0  0  0  0  0  0  0  0  0  0  0
   13.2365   -5.7615    0.0000 C   0  0  1  0  0  0  0  0  0  0  0  0
   12.4115   -5.7615    0.0000 C   0  0  1  0  0  0  0  0  0  0  0  0
   11.9990   -6.4760    0.0000 C   0  0  1  0  0  0  0  0  0  0  0  0
   12.4115   -7.1904    0.0000 C   0  0  1  0  0  0  0  0  0  0  0  0
   13.6490   -5.0470    0.0000 C   0  0  0  0  0  0  0  0  0  0  0  0
   11.9990   -5.0470    0.0000 O   0  0  0  0  0  0  0  0  0  0  0  0
   11.1740   -6.4760    0.0000 O   0  0  0  0  0  0  0  0  0  0  0  0
   11.9990   -7.9049    0.0000 O   0  0  0  0  0  0  0  0  0  0  0  0
   11.2790   -8.3077    0.0000 C   0  0  2  0  0  0  0  0  0  0  0  0
   10.5702   -7.8855    0.0000 O   0  0  0  0  0  0  0  0  0  0  0  0
    9.8502   -8.2883    0.0000 C   0  0  2  0  0  0  0  0  0  0  0  0
    9.8390   -9.1132    0.0000 C   0  0  1  0  0  0  0  0  0  0  0  0
   10.5478   -9.5354    0.0000 C   0  0  2  0  0  0  0  0  0  0  0  0
   11.2678   -9.1326    0.0000 C   0  0  1  0  0  0  0  0  0  0  0  0
   10.4595   -6.0635    0.0000 C   0  0  2  0  0  0  0  0  0  0  0  0
   10.4595   -5.2385    0.0000 O   0  0  0  0  0  0  0  0  0  0  0  0
    9.7450   -4.8260    0.0000 C   0  0  0  0  0  0  0  0  0  0  0  0
    9.0306   -5.2385    0.0000 C   0  0  2  0  0  0  0  0  0  0  0  0
    9.0306   -6.0635    0.0000 C   0  0  1  0  0  0  0  0  0  0  0  0
    9.7450   -6.4760    0.0000 C   0  0  1  0  0  0  0  0  0  0  0  0
    9.7450   -7.3010    0.0000 O   0  0  0  0  0  0  0  0  0  0  0  0
    8.3161   -6.4760    0.0000 O   0  0  0  0  0  0  0  0  0  0  0  0
    8.3161   -4.8260    0.0000 O   0  0  0  0  0  0  0  0  0  0  0  0
    9.1414   -7.8661    0.0000 C   0  0  0  0  0  0  0  0  0  0  0  0
   10.5366  -10.3603    0.0000 O   0  0  0  0  0  0  0  0  0  0  0  0
    9.1190   -9.5160    0.0000 O   0  0  0  0  0  0  0  0  0  0  0  0
   11.9766   -9.5548    0.0000 O   0  0  0  0  0  0  0  0  0  0  0  0
   12.2379  -11.2152    0.0000 C   0  0  2  0  0  0  0  0  0  0  0  0
   11.5235  -11.6277    0.0000 O   0  0  0  0  0  0  0  0  0  0  0  0
   11.5235  -12.4527    0.0000 C   0  0  2  0  0  0  0  0  0  0  0  0
   12.2379  -12.8652    0.0000 C   0  0  1  0  0  0  0  0  0  0  0  0
   12.9524  -12.4527    0.0000 C   0  0  2  0  0  0  0  0  0  0  0  0
   12.9524  -11.6277    0.0000 C   0  0  1  0  0  0  0  0  0  0  0  0
   13.6669  -11.2152    0.0000 O   0  0  0  0  0  0  0  0  0  0  0  0
   13.6669  -12.8652    0.0000 O   0  0  0  0  0  0  0  0  0  0  0  0
   12.2379  -13.6902    0.0000 O   0  0  0  0  0  0  0  0  0  0  0  0
   10.8090  -12.8652    0.0000 C   0  0  0  0  0  0  0  0  0  0  0  0
  1  2  1  0  0  0  0
  2  3  1  0  0  0  0
  3  4  1  0  0  0  0
  4  5  1  0  0  0  0
  6  5  1  6  0  0  0
  6  7  1  0  0  0  0
  7  8  1  0  0  0  0
  8  9  1  0  0  0  0
  9 10  1  0  0  0  0
 10 11  1  0  0  0  0
 11 12  1  0  0  0  0
 12 13  1  0  0  0  0
 13 14  1  0  0  0  0
 14 15  1  0  0  0  0
 15 16  1  0  0  0  0
 16 17  1  0  0  0  0
 17 18  1  0  0  0  0
 18 19  2  0  0  0  0
 19 20  1  0  0  0  0
  1 20  1  0  0  0  0
  1 12  1  0  0  0  0
 13 18  1  0  0  0  0
  2  9  1  0  0  0  0
  4  8  1  0  0  0  0
 22 23  1  0  0  0  0
 23 24  1  0  0  0  0
 24 25  1  0  0  0  0
 21 25  1  0  0  0  0
  6 21  1  0  0  0  0
  6 22  1  0  0  0  0
 14 26  1  1  0  0  0
 16 27  1  1  0  0  0
 13 28  1  1  0  0  0
  9 29  1  1  0  0  0
  7 30  1  6  0  0  0
 24 31  1  6  0  0  0
  1 32  1  1  0  0  0
  2 33  1  6  0  0  0
  4 34  1  6  0  0  0
  8 35  1  6  0  0  0
 12 36  1  6  0  0  0
 37 26  1  1  0  0  0
 37 38  1  0  0  0  0
 38 39  1  0  0  0  0
 39 40  1  0  0  0  0
 40 41  1  0  0  0  0
 41 42  1  0  0  0  0
 42 37  1  0  0  0  0
 39 43  1  1  0  0  0
 40 44  1  1  0  0  0
 41 45  1  1  0  0  0
 42 46  1  6  0  0  0
 47 46  1  1  0  0  0
 47 48  1  0  0  0  0
 48 49  1  0  0  0  0
 49 50  1  0  0  0  0
 50 51  1  0  0  0  0
 51 52  1  0  0  0  0
 52 47  1  0  0  0  0
 53 45  1  1  0  0  0
 53 54  1  0  0  0  0
 54 55  1  0  0  0  0
 55 56  1  0  0  0  0
 56 57  1  0  0  0  0
 57 58  1  0  0  0  0
 58 53  1  0  0  0  0
 58 59  1  6  0  0  0
 57 60  1  1  0  0  0
 56 61  1  6  0  0  0
 49 62  1  6  0  0  0
 51 63  1  6  0  0  0
 50 64  1  1  0  0  0
 52 65  1  6  0  0  0
 66 27  1  1  0  0  0
 66 67  1  0  0  0  0
 67 68  1  0  0  0  0
 68 69  1  0  0  0  0
 69 70  1  0  0  0  0
 70 71  1  0  0  0  0
 71 66  1  0  0  0  0
 71 72  1  6  0  0  0
 70 73  1  6  0  0  0
 69 74  1  1  0  0  0
 68 75  1  6  0  0  0
M  END
>  <cdx:fragmentId>
1035

$$$$
