12687.cdx
  Mrv1902 05222410212D          

 15 17  0  0  0  0            999 V2000
    5.5225   -6.9529    0.0000 C   0  0  0  0  0  0  0  0  0  0  0  0
    5.6987   -7.7588    0.0000 C   0  0  0  0  0  0  0  0  0  0  0  0
    6.4387   -8.1235    0.0000 C   0  0  0  0  0  0  0  0  0  0  0  0
    7.1853   -7.7724    0.0000 C   0  0  0  0  0  0  0  0  0  0  0  0
    7.3761   -6.9697    0.0000 C   0  0  0  0  0  0  0  0  0  0  0  0
    6.8676   -6.3201    0.0000 C   0  0  0  0  0  0  0  0  0  0  0  0
    6.0427   -6.3126    0.0000 C   0  0  0  0  0  0  0  0  0  0  0  0
    5.6987   -8.5838    0.0000 C   0  0  0  0  0  0  0  0  0  0  0  0
    7.1853   -8.5974    0.0000 C   0  0  0  0  0  0  0  0  0  0  0  0
    6.1112   -9.2983    0.0000 C   0  0  0  0  0  0  0  0  0  0  0  0
    6.8257   -8.8858    0.0000 C   0  0  0  0  0  0  0  0  0  0  0  0
    4.9018   -7.9724    0.0000 C   0  0  0  0  0  0  0  0  0  0  0  0
    4.9018   -8.7974    0.0000 C   0  0  0  0  0  0  0  0  0  0  0  0
    8.0906   -6.5572    0.0000 C   0  0  0  0  0  0  0  0  0  0  0  0
    8.1730   -7.1833    0.0000 C   0  0  0  0  0  0  0  0  0  0  0  0
  1  2  1  0  0  0  0
  2  3  1  0  0  0  0
  3  4  1  0  0  0  0
  4  5  1  0  0  0  0
  5  6  1  0  0  0  0
  6  7  1  0  0  0  0
  7  1  2  0  0  0  0
  2  8  1  0  0  0  0
  4  9  1  0  0  0  0
  8  9  1  0  0  0  0
  8 10  1  0  0  0  0
 10 11  1  0  0  0  0
  3 11  1  0  0  0  0
  2 12  1  0  0  0  0
  8 13  1  0  0  0  0
  5 14  1  0  0  0  0
  5 15  1  0  0  0  0
M  END
>  <cdx:fragmentId>
5

$$$$
