12680.cdx
  Mrv1902 05222410232D          

 75 84  0  0  0  0            999 V2000
   15.8288   -8.5494    0.0000 C   0  0  1  0  0  0  0  0  0  0  0  0
   16.5402   -8.1318    0.0000 C   0  0  2  0  0  0  0  0  0  0  0  0
   17.3267   -8.3810    0.0000 C   0  0  0  0  0  0  0  0  0  0  0  0
   17.8068   -7.7101    0.0000 C   0  0  2  0  0  0  0  0  0  0  0  0
   18.5895   -7.4495    0.0000 O   0  0  0  0  0  0  0  0  0  0  0  0
   18.5836   -6.6245    0.0000 C   0  0  2  0  0  0  0  0  0  0  0  0
   17.7971   -6.3753    0.0000 C   0  0  2  0  0  0  0  0  0  0  0  0
   17.3170   -7.0462    0.0000 C   0  0  2  0  0  0  0  0  0  0  0  0
   16.5343   -7.3068    0.0000 C   0  0  1  0  0  0  0  0  0  0  0  0
   15.8169   -6.8994    0.0000 C   0  0  0  0  0  0  0  0  0  0  0  0
   15.1054   -7.3171    0.0000 C   0  0  0  0  0  0  0  0  0  0  0  0
   15.1113   -8.1421    0.0000 C   0  0  2  0  0  0  0  0  0  0  0  0
   14.3999   -8.5597    0.0000 C   0  0  1  0  0  0  0  0  0  0  0  0
   13.6824   -8.1524    0.0000 C   0  0  1  0  0  0  0  0  0  0  0  0
   12.9710   -8.5700    0.0000 C   0  0  0  0  0  0  0  0  0  0  0  0
   12.9769   -9.3950    0.0000 C   0  0  1  0  0  0  0  0  0  0  0  0
   13.6943   -9.8023    0.0000 C   0  0  0  0  0  0  0  0  0  0  0  0
   14.4058   -9.3847    0.0000 C   0  0  0  0  0  0  0  0  0  0  0  0
   15.1233   -9.7920    0.0000 C   0  0  0  0  0  0  0  0  0  0  0  0
   15.8347   -9.3744    0.0000 C   0  0  0  0  0  0  0  0  0  0  0  0
   18.4914   -5.8047    0.0000 O   0  0  0  0  0  0  0  0  0  0  0  0
   19.3397   -6.9546    0.0000 C   0  0  0  0  0  0  0  0  0  0  0  0
   20.0036   -6.4649    0.0000 C   0  0  0  0  0  0  0  0  0  0  0  0
   19.9114   -5.6451    0.0000 C   0  0  1  0  0  0  0  0  0  0  0  0
   19.1553   -5.3150    0.0000 C   0  0  0  0  0  0  0  0  0  0  0  0
   13.6765   -7.3274    0.0000 O   0  0  0  0  0  0  0  0  0  0  0  0
   12.2654   -9.8127    0.0000 O   0  0  0  0  0  0  0  0  0  0  0  0
   14.3939   -7.7347    0.0000 C   0  0  0  0  0  0  0  0  0  0  0  0
   16.5343   -6.4818    0.0000 C   0  0  0  0  0  0  0  0  0  0  0  0
   17.5365   -5.5925    0.0000 C   0  0  0  0  0  0  0  0  0  0  0  0
   20.5753   -5.1553    0.0000 C   0  0  0  0  0  0  0  0  0  0  0  0
   15.8228   -7.7244    0.0000 H   0  0  0  0  0  0  0  0  0  0  0  0
   16.5462   -8.9567    0.0000 H   0  0  0  0  0  0  0  0  0  0  0  0
   18.2965   -8.3740    0.0000 H   0  0  0  0  0  0  0  0  0  0  0  0
   16.9500   -6.3073    0.0000 H   0  0  0  0  0  0  0  0  0  0  0  0
   15.1173   -8.9670    0.0000 H   0  0  0  0  0  0  0  0  0  0  0  0
   13.2640   -6.6129    0.0000 C   0  0  2  0  0  0  0  0  0  0  0  0
   13.6765   -5.8985    0.0000 O   0  0  0  0  0  0  0  0  0  0  0  0
   13.2640   -5.1840    0.0000 C   0  0  1  0  0  0  0  0  0  0  0  0
   12.4390   -5.1840    0.0000 C   0  0  1  0  0  0  0  0  0  0  0  0
   12.0265   -5.8985    0.0000 C   0  0  1  0  0  0  0  0  0  0  0  0
   12.4390   -6.6129    0.0000 C   0  0  1  0  0  0  0  0  0  0  0  0
   13.6765   -4.4695    0.0000 C   0  0  0  0  0  0  0  0  0  0  0  0
   12.0265   -4.4695    0.0000 O   0  0  0  0  0  0  0  0  0  0  0  0
   11.2015   -5.8985    0.0000 O   0  0  0  0  0  0  0  0  0  0  0  0
   12.0265   -7.3274    0.0000 O   0  0  0  0  0  0  0  0  0  0  0  0
   11.3065   -7.7302    0.0000 C   0  0  2  0  0  0  0  0  0  0  0  0
   10.5977   -7.3080    0.0000 O   0  0  0  0  0  0  0  0  0  0  0  0
    9.8777   -7.7108    0.0000 C   0  0  2  0  0  0  0  0  0  0  0  0
    9.8665   -8.5357    0.0000 C   0  0  1  0  0  0  0  0  0  0  0  0
   10.5753   -8.9579    0.0000 C   0  0  2  0  0  0  0  0  0  0  0  0
   11.2953   -8.5551    0.0000 C   0  0  1  0  0  0  0  0  0  0  0  0
   10.4870   -5.4860    0.0000 C   0  0  2  0  0  0  0  0  0  0  0  0
   10.4870   -4.6610    0.0000 O   0  0  0  0  0  0  0  0  0  0  0  0
    9.7725   -4.2485    0.0000 C   0  0  0  0  0  0  0  0  0  0  0  0
    9.0581   -4.6610    0.0000 C   0  0  2  0  0  0  0  0  0  0  0  0
    9.0581   -5.4860    0.0000 C   0  0  1  0  0  0  0  0  0  0  0  0
    9.7725   -5.8985    0.0000 C   0  0  1  0  0  0  0  0  0  0  0  0
    9.7725   -6.7235    0.0000 O   0  0  0  0  0  0  0  0  0  0  0  0
    8.3436   -5.8985    0.0000 O   0  0  0  0  0  0  0  0  0  0  0  0
    8.3436   -4.2485    0.0000 O   0  0  0  0  0  0  0  0  0  0  0  0
    9.1689   -7.2886    0.0000 C   0  0  0  0  0  0  0  0  0  0  0  0
   10.5641   -9.7828    0.0000 O   0  0  0  0  0  0  0  0  0  0  0  0
    9.1465   -8.9385    0.0000 O   0  0  0  0  0  0  0  0  0  0  0  0
   12.0041   -8.9773    0.0000 O   0  0  0  0  0  0  0  0  0  0  0  0
   12.2654  -10.6377    0.0000 C   0  0  2  0  0  0  0  0  0  0  0  0
   11.5510  -11.0502    0.0000 O   0  0  0  0  0  0  0  0  0  0  0  0
   11.5510  -11.8752    0.0000 C   0  0  2  0  0  0  0  0  0  0  0  0
   12.2654  -12.2877    0.0000 C   0  0  1  0  0  0  0  0  0  0  0  0
   12.9799  -11.8752    0.0000 C   0  0  2  0  0  0  0  0  0  0  0  0
   12.9799  -11.0502    0.0000 C   0  0  1  0  0  0  0  0  0  0  0  0
   13.6944  -10.6377    0.0000 O   0  0  0  0  0  0  0  0  0  0  0  0
   13.6944  -12.2877    0.0000 O   0  0  0  0  0  0  0  0  0  0  0  0
   12.2654  -13.1127    0.0000 O   0  0  0  0  0  0  0  0  0  0  0  0
   10.8365  -12.2877    0.0000 C   0  0  0  0  0  0  0  0  0  0  0  0
  1  2  1  0  0  0  0
  2  3  1  0  0  0  0
  3  4  1  0  0  0  0
  4  5  1  0  0  0  0
  6  5  1  6  0  0  0
  6  7  1  0  0  0  0
  7  8  1  0  0  0  0
  8  9  1  0  0  0  0
  9 10  1  0  0  0  0
 10 11  1  0  0  0  0
 11 12  1  0  0  0  0
 12 13  1  0  0  0  0
 13 14  1  0  0  0  0
 14 15  1  0  0  0  0
 15 16  1  0  0  0  0
 16 17  1  0  0  0  0
 17 18  1  0  0  0  0
 18 19  2  0  0  0  0
 19 20  1  0  0  0  0
  1 20  1  0  0  0  0
  1 12  1  0  0  0  0
 13 18  1  0  0  0  0
  2  9  1  0  0  0  0
  4  8  1  0  0  0  0
 22 23  1  0  0  0  0
 23 24  1  0  0  0  0
 24 25  1  0  0  0  0
 21 25  1  0  0  0  0
  6 21  1  0  0  0  0
  6 22  1  0  0  0  0
 14 26  1  1  0  0  0
 16 27  1  1  0  0  0
 13 28  1  1  0  0  0
  9 29  1  1  0  0  0
  7 30  1  6  0  0  0
 24 31  1  1  0  0  0
  1 32  1  1  0  0  0
  2 33  1  6  0  0  0
  4 34  1  6  0  0  0
  8 35  1  6  0  0  0
 12 36  1  6  0  0  0
 37 26  1  1  0  0  0
 37 38  1  0  0  0  0
 38 39  1  0  0  0  0
 39 40  1  0  0  0  0
 40 41  1  0  0  0  0
 41 42  1  0  0  0  0
 42 37  1  0  0  0  0
 39 43  1  1  0  0  0
 40 44  1  1  0  0  0
 41 45  1  1  0  0  0
 42 46  1  6  0  0  0
 47 46  1  1  0  0  0
 47 48  1  0  0  0  0
 48 49  1  0  0  0  0
 49 50  1  0  0  0  0
 50 51  1  0  0  0  0
 51 52  1  0  0  0  0
 52 47  1  0  0  0  0
 53 45  1  1  0  0  0
 53 54  1  0  0  0  0
 54 55  1  0  0  0  0
 55 56  1  0  0  0  0
 56 57  1  0  0  0  0
 57 58  1  0  0  0  0
 58 53  1  0  0  0  0
 58 59  1  6  0  0  0
 57 60  1  1  0  0  0
 56 61  1  6  0  0  0
 49 62  1  6  0  0  0
 51 63  1  6  0  0  0
 50 64  1  1  0  0  0
 52 65  1  6  0  0  0
 66 27  1  1  0  0  0
 66 67  1  0  0  0  0
 67 68  1  0  0  0  0
 68 69  1  0  0  0  0
 69 70  1  0  0  0  0
 70 71  1  0  0  0  0
 71 66  1  0  0  0  0
 71 72  1  6  0  0  0
 70 73  1  6  0  0  0
 69 74  1  1  0  0  0
 68 75  1  6  0  0  0
M  END
>  <cdx:fragmentId>
5

$$$$
