1268.cdx
  Mrv1902 05222410192D          

 35 40  0  0  0  0            999 V2000
    3.8808   -8.4838    0.0000 C   0  0  1  0  0  0  0  0  0  0  0  0
    3.8808   -9.3087    0.0000 C   0  0  2  0  0  0  0  0  0  0  0  0
    4.5952   -9.7212    0.0000 C   0  0  1  0  0  0  0  0  0  0  0  0
    5.3097   -9.3087    0.0000 C   0  0  0  0  0  0  0  0  0  0  0  0
    5.3097   -8.4838    0.0000 C   0  0  2  0  0  0  0  0  0  0  0  0
    4.5952   -8.0713    0.0000 C   0  0  0  0  0  0  0  0  0  0  0  0
    6.0242   -9.7212    0.0000 C   0  0  0  0  0  0  0  0  0  0  0  0
    6.7387   -9.3087    0.0000 C   0  0  0  0  0  0  0  0  0  0  0  0
    6.7387   -8.4838    0.0000 C   0  0  2  0  0  0  0  0  0  0  0  0
    6.0242   -8.0713    0.0000 C   0  0  0  0  0  0  0  0  0  0  0  0
    7.4531   -8.0713    0.0000 C   0  0  0  0  0  0  0  0  0  0  0  0
    7.4531   -7.2462    0.0000 C   0  0  1  0  0  0  0  0  0  0  0  0
    6.7387   -6.8338    0.0000 C   0  0  2  0  0  0  0  0  0  0  0  0
    6.0242   -7.2462    0.0000 C   0  0  0  0  0  0  0  0  0  0  0  0
    8.1676   -8.4838    0.0000 C   0  0  0  0  0  0  0  0  0  0  0  0
    8.8821   -8.0713    0.0000 C   0  0  0  0  0  0  0  0  0  0  0  0
    8.8821   -7.2462    0.0000 C   0  0  2  0  0  0  0  0  0  0  0  0
    8.1676   -6.8338    0.0000 C   0  0  0  0  0  0  0  0  0  0  0  0
    9.5965   -6.8338    0.0000 C   0  0  0  0  0  0  0  0  0  0  0  0
    9.5965   -6.0088    0.0000 C   0  0  0  0  0  0  0  0  0  0  0  0
    8.8821   -5.5962    0.0000 C   0  0  0  0  0  0  0  0  0  0  0  0
    8.1676   -6.0088    0.0000 C   0  0  0  0  0  0  0  0  0  0  0  0
    9.5965   -7.6587    0.0000 C   0  0  0  0  0  0  0  0  0  0  0  0
    9.5965   -8.4838    0.0000 O   0  0  0  0  0  0  0  0  0  0  0  0
   10.3110   -7.2462    0.0000 O   0  0  0  0  0  0  0  0  0  0  0  0
    4.1827  -10.4357    0.0000 C   0  0  0  0  0  0  0  0  0  0  0  0
    5.3097   -7.6587    0.0000 C   0  0  0  0  0  0  0  0  0  0  0  0
    6.7387   -7.6587    0.0000 C   0  0  0  0  0  0  0  0  0  0  0  0
    8.4696   -4.8818    0.0000 C   0  0  0  0  0  0  0  0  0  0  0  0
    5.0077  -10.4357    0.0000 C   0  0  0  0  0  0  0  0  0  0  0  0
    3.1663   -8.0713    0.0000 O   0  0  0  0  0  0  0  0  0  0  0  0
    3.1663   -9.7212    0.0000 O   0  0  0  0  0  0  0  0  0  0  0  0
    9.2946   -4.8818    0.0000 C   0  0  0  0  0  0  0  0  0  0  0  0
    7.4531   -6.4213    0.0000 C   0  0  0  0  0  0  0  0  0  0  0  0
    4.5952  -11.1502    0.0000 O   0  0  0  0  0  0  0  0  0  0  0  0
  1  2  1  0  0  0  0
  2  3  1  0  0  0  0
  3  4  1  0  0  0  0
  4  5  1  0  0  0  0
  5  6  1  0  0  0  0
  6  1  1  0  0  0  0
  4  7  1  0  0  0  0
  7  8  1  0  0  0  0
  8  9  1  0  0  0  0
  9 10  1  0  0  0  0
 10  5  1  0  0  0  0
  9 11  1  0  0  0  0
 11 12  1  0  0  0  0
 12 13  1  0  0  0  0
 13 14  1  0  0  0  0
 14 10  1  0  0  0  0
 11 15  2  0  0  0  0
 15 16  1  0  0  0  0
 16 17  1  0  0  0  0
 17 18  1  0  0  0  0
 18 12  1  0  0  0  0
 17 19  1  0  0  0  0
 19 20  1  0  0  0  0
 20 21  1  0  0  0  0
 21 22  1  0  0  0  0
 22 18  1  0  0  0  0
 17 23  1  1  0  0  0
 23 24  2  0  0  0  0
 23 25  1  0  0  0  0
  3 26  1  1  0  0  0
  5 27  1  1  0  0  0
  9 28  1  1  0  0  0
 21 29  1  0  0  0  0
  3 30  1  6  0  0  0
  1 31  1  6  0  0  0
  2 32  1  6  0  0  0
 21 33  1  0  0  0  0
 13 34  1  6  0  0  0
 12 34  1  6  0  0  0
 26 35  1  0  0  0  0
M  END
>  <cdx:fragmentId>
5

$$$$
