126890.cdx
  Mrv1902 05222410262D          

 24 24  0  0  0  0            999 V2000
    5.5698   -6.6755    0.0000 C   0  0  0  0  0  0  0  0  0  0  0  0
    6.2843   -7.0880    0.0000 C   0  0  0  0  0  0  0  0  0  0  0  0
    6.9988   -6.6755    0.0000 C   0  0  0  0  0  0  0  0  0  0  0  0
    7.7132   -7.0880    0.0000 C   0  0  0  0  0  0  0  0  0  0  0  0
    8.4277   -6.6755    0.0000 C   0  0  0  0  0  0  0  0  0  0  0  0
    9.1422   -7.0880    0.0000 C   0  0  0  0  0  0  0  0  0  0  0  0
    9.8566   -6.6755    0.0000 C   0  0  0  0  0  0  0  0  0  0  0  0
   10.5711   -7.0880    0.0000 C   0  0  0  0  0  0  0  0  0  0  0  0
   11.2856   -6.6755    0.0000 C   0  0  0  0  0  0  0  0  0  0  0  0
   12.0001   -7.0880    0.0000 C   0  0  0  0  0  0  0  0  0  0  0  0
    8.4277   -5.8505    0.0000 S   0  0  0  0  0  0  0  0  0  0  0  0
    9.2527   -5.8505    0.0000 O   0  0  0  0  0  0  0  0  0  0  0  0
    7.6027   -5.8505    0.0000 O   0  0  0  0  0  0  0  0  0  0  0  0
    8.4277   -5.0255    0.0000 O   0  0  0  0  0  0  0  0  0  0  0  0
    6.9988   -5.8505    0.0000 O   0  0  0  0  0  0  0  0  0  0  0  0
    4.8553   -7.0880    0.0000 C   0  0  0  0  0  0  0  0  0  0  0  0
    4.1409   -6.6755    0.0000 C   0  0  0  0  0  0  0  0  0  0  0  0
    3.4264   -7.0880    0.0000 C   0  0  0  0  0  0  0  0  0  0  0  0
    3.4264   -7.9130    0.0000 C   0  0  0  0  0  0  0  0  0  0  0  0
    4.1409   -8.3255    0.0000 C   0  0  0  0  0  0  0  0  0  0  0  0
    4.8553   -7.9130    0.0000 C   0  0  0  0  0  0  0  0  0  0  0  0
    2.7119   -6.6755    0.0000 O   0  0  0  0  0  0  0  0  0  0  0  0
    1.9975   -7.0880    0.0000 C   0  0  0  0  0  0  0  0  0  0  0  0
    2.7119   -8.3255    0.0000 O   0  0  0  0  0  0  0  0  0  0  0  0
  1  2  1  0  0  0  0
  2  3  1  0  0  0  0
  3  4  1  0  0  0  0
  4  5  1  0  0  0  0
  5  6  1  0  0  0  0
  6  7  1  0  0  0  0
  7  8  1  0  0  0  0
  8  9  1  0  0  0  0
  9 10  1  0  0  0  0
 11 12  2  0  0  0  0
 11 13  2  0  0  0  0
 11 14  1  0  0  0  0
  5 11  1  0  0  0  0
  3 15  2  0  0  0  0
 16 17  1  0  0  0  0
 17 18  2  0  0  0  0
 18 19  1  0  0  0  0
 19 20  2  0  0  0  0
 20 21  1  0  0  0  0
 16 21  2  0  0  0  0
 22 23  1  0  0  0  0
 18 22  1  0  0  0  0
 19 24  1  0  0  0  0
  1 16  1  0  0  0  0
M  END
>  <cdx:groupId>
5777

>  <cdx:fragmentId>
5708

$$$$
