12681.cdx
  Mrv1902 05222410232D          

 29 31  0  0  0  0            999 V2000
    5.7439   -9.2263    0.0000 C   0  0  2  0  0  0  0  0  0  0  0  0
    5.7439  -10.0512    0.0000 C   0  0  2  0  0  0  0  0  0  0  0  0
    6.4584  -10.4637    0.0000 C   0  0  1  0  0  0  0  0  0  0  0  0
    7.1728  -10.0512    0.0000 C   0  0  2  0  0  0  0  0  0  0  0  0
    7.1728   -9.2263    0.0000 C   0  0  1  0  0  0  0  0  0  0  0  0
    6.4584   -8.8138    0.0000 O   0  0  0  0  0  0  0  0  0  0  0  0
    7.8873   -8.8138    0.0000 O   0  0  0  0  0  0  0  0  0  0  0  0
    7.8873   -7.9888    0.0000 C   0  0  2  0  0  0  0  0  0  0  0  0
    7.1728   -7.5762    0.0000 O   0  0  0  0  0  0  0  0  0  0  0  0
    8.6018   -7.5762    0.0000 C   0  0  1  0  0  0  0  0  0  0  0  0
    8.6018   -6.7512    0.0000 C   0  0  1  0  0  0  0  0  0  0  0  0
    7.8873   -6.3388    0.0000 C   0  0  0  0  0  0  0  0  0  0  0  0
    7.1728   -6.7512    0.0000 C   0  0  0  0  0  0  0  0  0  0  0  0
    7.8873   -5.5137    0.0000 C   0  0  0  0  0  0  0  0  0  0  0  0
    7.1728   -5.1013    0.0000 O   0  0  0  0  0  0  0  0  0  0  0  0
    9.3864   -7.8312    0.0000 C   0  0  2  0  0  0  0  0  0  0  0  0
    9.8713   -7.1638    0.0000 C   0  0  2  0  0  0  0  0  0  0  0  0
    9.3864   -6.4963    0.0000 C   0  0  0  0  0  0  0  0  0  0  0  0
    7.1728   -4.2763    0.0000 C   0  0  0  0  0  0  0  0  0  0  0  0
    8.6018   -5.1013    0.0000 O   0  0  0  0  0  0  0  0  0  0  0  0
    5.0294   -8.8138    0.0000 C   0  0  0  0  0  0  0  0  0  0  0  0
    4.3150   -9.2263    0.0000 O   0  0  0  0  0  0  0  0  0  0  0  0
    6.4584  -11.2888    0.0000 O   0  0  0  0  0  0  0  0  0  0  0  0
    5.0294  -10.4637    0.0000 O   0  0  0  0  0  0  0  0  0  0  0  0
    7.8873  -10.4637    0.0000 O   0  0  0  0  0  0  0  0  0  0  0  0
    8.6018   -5.9262    0.0000 H   0  0  0  0  0  0  0  0  0  0  0  0
    8.6018   -8.4013    0.0000 H   0  0  0  0  0  0  0  0  0  0  0  0
    9.5999   -8.6281    0.0000 C   0  0  0  0  0  0  0  0  0  0  0  0
   10.6963   -7.1638    0.0000 O   0  0  0  0  0  0  0  0  0  0  0  0
  1  2  1  0  0  0  0
  2  3  1  0  0  0  0
  3  4  1  0  0  0  0
  4  5  1  0  0  0  0
  5  6  1  0  0  0  0
  6  1  1  0  0  0  0
  5  7  1  1  0  0  0
  8  7  1  6  0  0  0
  8  9  1  0  0  0  0
  8 10  1  0  0  0  0
 10 11  1  0  0  0  0
 11 12  1  0  0  0  0
 12 13  2  0  0  0  0
 13  9  1  0  0  0  0
 12 14  1  0  0  0  0
 14 15  1  0  0  0  0
 10 16  1  0  0  0  0
 16 17  1  0  0  0  0
 17 18  1  0  0  0  0
 18 11  1  0  0  0  0
 15 19  1  0  0  0  0
 14 20  2  0  0  0  0
  1 21  1  1  0  0  0
 21 22  1  0  0  0  0
  3 23  1  1  0  0  0
  2 24  1  6  0  0  0
  4 25  1  6  0  0  0
 11 26  1  6  0  0  0
 10 27  1  6  0  0  0
 16 28  1  6  0  0  0
 17 29  1  6  0  0  0
M  END
>  <cdx:fragmentId>
5

$$$$
