12686.cdx
  Mrv1902 05222410212D          

 37 39  0  0  0  0            999 V2000
    8.9339   -6.7237    0.0000 C   0  0  1  0  0  0  0  0  0  0  0  0
    8.9339   -7.5488    0.0000 C   0  0  2  0  0  0  0  0  0  0  0  0
    9.6484   -7.9612    0.0000 C   0  0  1  0  0  0  0  0  0  0  0  0
   10.3628   -7.5488    0.0000 O   0  0  0  0  0  0  0  0  0  0  0  0
   10.3628   -6.7237    0.0000 C   0  0  0  0  0  0  0  0  0  0  0  0
    9.6484   -6.3113    0.0000 C   0  0  0  0  0  0  0  0  0  0  0  0
    8.1493   -6.4688    0.0000 C   0  0  0  0  0  0  0  0  0  0  0  0
    7.6644   -7.1362    0.0000 C   0  0  1  0  0  0  0  0  0  0  0  0
    8.1493   -7.8037    0.0000 C   0  0  2  0  0  0  0  0  0  0  0  0
    6.9499   -6.7237    0.0000 O   0  0  0  0  0  0  0  0  0  0  0  0
    6.2354   -7.1362    0.0000 C   0  0  0  0  0  0  0  0  0  0  0  0
    5.5209   -6.7237    0.0000 C   0  0  0  0  0  0  0  0  0  0  0  0
    4.8065   -7.1362    0.0000 C   0  0  0  0  0  0  0  0  0  0  0  0
    4.0920   -6.7237    0.0000 C   0  0  0  0  0  0  0  0  0  0  0  0
    3.3775   -7.1362    0.0000 O   0  0  0  0  0  0  0  0  0  0  0  0
    4.0920   -5.8988    0.0000 O   0  0  0  0  0  0  0  0  0  0  0  0
    6.2354   -7.9612    0.0000 O   0  0  0  0  0  0  0  0  0  0  0  0
    9.6484   -5.4863    0.0000 C   0  0  0  0  0  0  0  0  0  0  0  0
    7.8943   -8.5883    0.0000 C   0  0  0  0  0  0  0  0  0  0  0  0
    8.9339   -8.3737    0.0000 H   0  0  0  0  0  0  0  0  0  0  0  0
    8.9339   -5.8988    0.0000 H   0  0  0  0  0  0  0  0  0  0  0  0
    9.6484   -8.7862    0.0000 O   0  0  0  0  0  0  0  0  0  0  0  0
    8.9339   -5.0737    0.0000 O   0  0  0  0  0  0  0  0  0  0  0  0
   10.3628   -5.0737    0.0000 O   0  0  0  0  0  0  0  0  0  0  0  0
   11.0773   -5.4862    0.0000 C   0  0  0  0  0  0  0  0  0  0  0  0
    8.9339   -9.1987    0.0000 C   0  0  2  0  0  0  0  0  0  0  0  0
    8.2194   -8.7862    0.0000 O   0  0  0  0  0  0  0  0  0  0  0  0
    7.5050   -9.1987    0.0000 C   0  0  1  0  0  0  0  0  0  0  0  0
    7.5050  -10.0238    0.0000 C   0  0  2  0  0  0  0  0  0  0  0  0
    8.2194  -10.4362    0.0000 C   0  0  1  0  0  0  0  0  0  0  0  0
    8.9339  -10.0238    0.0000 C   0  0  1  0  0  0  0  0  0  0  0  0
    6.7905   -8.7862    0.0000 C   0  0  0  0  0  0  0  0  0  0  0  0
    8.2194  -11.2612    0.0000 O   0  0  0  0  0  0  0  0  0  0  0  0
    9.6484  -10.4363    0.0000 O   0  0  0  0  0  0  0  0  0  0  0  0
    6.7905  -10.4363    0.0000 O   0  0  0  0  0  0  0  0  0  0  0  0
    6.0760   -9.1987    0.0000 O   0  0  0  0  0  0  0  0  0  0  0  0
    4.8065   -7.9612    0.0000 O   0  0  0  0  0  0  0  0  0  0  0  0
  1  2  1  0  0  0  0
  2  3  1  0  0  0  0
  3  4  1  0  0  0  0
  4  5  1  0  0  0  0
  5  6  2  0  0  0  0
  6  1  1  0  0  0  0
  1  7  1  0  0  0  0
  7  8  1  0  0  0  0
  8  9  1  0  0  0  0
  9  2  1  0  0  0  0
  8 10  1  1  0  0  0
 10 11  1  0  0  0  0
 11 12  1  0  0  0  0
 12 13  1  0  0  0  0
 13 14  1  0  0  0  0
 14 15  1  0  0  0  0
 14 16  2  0  0  0  0
 11 17  2  0  0  0  0
  6 18  1  0  0  0  0
  9 19  1  1  0  0  0
  2 20  1  1  0  0  0
  1 21  1  1  0  0  0
  3 22  1  1  0  0  0
 18 23  2  0  0  0  0
 18 24  1  0  0  0  0
 24 25  1  0  0  0  0
 26 22  1  1  0  0  0
 26 27  1  0  0  0  0
 27 28  1  0  0  0  0
 28 29  1  0  0  0  0
 29 30  1  0  0  0  0
 30 31  1  0  0  0  0
 31 26  1  0  0  0  0
 28 32  1  1  0  0  0
 30 33  1  1  0  0  0
 31 34  1  6  0  0  0
 29 35  1  6  0  0  0
 32 36  1  0  0  0  0
 13 37  1  0  0  0  0
M  END
>  <cdx:fragmentId>
5

$$$$
