12698.cdx
  Mrv1902 05222410232D          

 12 12  0  0  0  0            999 V2000
    3.5920   -6.7031    0.0000 C   0  0  0  0  0  0  0  0  0  0  0  0
    3.5920   -7.5281    0.0000 C   0  0  0  0  0  0  0  0  0  0  0  0
    4.3065   -7.9406    0.0000 C   0  0  0  0  0  0  0  0  0  0  0  0
    5.0210   -7.5281    0.0000 C   0  0  0  0  0  0  0  0  0  0  0  0
    5.0210   -6.7031    0.0000 C   0  0  0  0  0  0  0  0  0  0  0  0
    4.3065   -6.2906    0.0000 C   0  0  0  0  0  0  0  0  0  0  0  0
    5.7354   -6.2906    0.0000 C   0  0  0  0  0  0  0  0  0  0  0  0
    6.4499   -6.7031    0.0000 C   0  0  1  0  0  0  0  0  0  0  0  0
    7.1644   -6.2906    0.0000 C   0  0  0  0  0  0  0  0  0  0  0  0
    7.8789   -6.7031    0.0000 O   0  0  0  0  0  0  0  0  0  0  0  0
    7.1644   -5.4656    0.0000 O   0  0  0  0  0  0  0  0  0  0  0  0
    6.4499   -7.5281    0.0000 O   0  0  0  0  0  0  0  0  0  0  0  0
  1  2  2  0  0  0  0
  2  3  1  0  0  0  0
  3  4  2  0  0  0  0
  4  5  1  0  0  0  0
  5  6  2  0  0  0  0
  6  1  1  0  0  0  0
  5  7  1  0  0  0  0
  7  8  1  0  0  0  0
  8  9  1  0  0  0  0
  9 10  1  0  0  0  0
  9 11  2  0  0  0  0
  8 12  1  1  0  0  0
M  END
>  <cdx:fragmentId>
5

$$$$
