12704.cdx
  Mrv1902 05222410242D          

 39 42  0  0  0  0            999 V2000
    2.7877   -8.3325    0.0000 C   0  0  0  0  0  0  0  0  0  0  0  0
    2.7877   -9.1575    0.0000 C   0  0  0  0  0  0  0  0  0  0  0  0
    3.5021   -9.5700    0.0000 C   0  0  0  0  0  0  0  0  0  0  0  0
    4.2166   -9.1575    0.0000 C   0  0  1  0  0  0  0  0  0  0  0  0
    4.2166   -8.3325    0.0000 C   0  0  2  0  0  0  0  0  0  0  0  0
    3.5021   -7.9200    0.0000 C   0  0  0  0  0  0  0  0  0  0  0  0
    4.9311   -9.5700    0.0000 C   0  0  0  0  0  0  0  0  0  0  0  0
    5.6455   -9.1575    0.0000 C   0  0  0  0  0  0  0  0  0  0  0  0
    5.6455   -8.3325    0.0000 C   0  0  0  0  0  0  0  0  0  0  0  0
    4.9311   -7.9200    0.0000 C   0  0  0  0  0  0  0  0  0  0  0  0
    6.3600   -7.9200    0.0000 C   0  0  1  0  0  0  0  0  0  0  0  0
    6.3600   -7.0950    0.0000 C   0  0  2  0  0  0  0  0  0  0  0  0
    5.6455   -6.6825    0.0000 C   0  0  1  0  0  0  0  0  0  0  0  0
    4.9311   -7.0950    0.0000 C   0  0  0  0  0  0  0  0  0  0  0  0
    7.1446   -8.1749    0.0000 C   0  0  0  0  0  0  0  0  0  0  0  0
    7.6296   -7.5075    0.0000 C   0  0  0  0  0  0  0  0  0  0  0  0
    7.1446   -6.8401    0.0000 C   0  0  2  0  0  0  0  0  0  0  0  0
    2.0732   -9.5700    0.0000 O   0  0  0  0  0  0  0  0  0  0  0  0
    4.2166   -6.6825    0.0000 O   0  0  0  0  0  0  0  0  0  0  0  0
    5.6455   -5.8575    0.0000 O   0  0  0  0  0  0  0  0  0  0  0  0
    6.3600   -9.5700    0.0000 O   0  0  0  0  0  0  0  0  0  0  0  0
    7.3582   -8.9718    0.0000 O   0  0  0  0  0  0  0  0  0  0  0  0
    3.0896  -10.2845    0.0000 C   0  0  0  0  0  0  0  0  0  0  0  0
    4.2166   -7.5075    0.0000 C   0  0  0  0  0  0  0  0  0  0  0  0
    6.3600   -6.2700    0.0000 C   0  0  0  0  0  0  0  0  0  0  0  0
    7.3582   -6.0432    0.0000 C   0  0  2  0  0  0  0  0  0  0  0  0
    3.9146  -10.2845    0.0000 C   0  0  0  0  0  0  0  0  0  0  0  0
    4.2166  -10.0650    0.0000 H   0  0  0  0  0  0  0  0  0  0  0  0
    6.3600   -8.8000    0.0000 C   0  0  0  0  0  0  0  0  0  0  0  0
    6.7748   -5.4598    0.0000 C   0  0  0  0  0  0  0  0  0  0  0  0
    9.1655   -4.8192    0.0000 C   0  0  0  0  0  0  0  0  0  0  0  0
    8.3686   -5.0328    0.0000 C   0  0  0  0  0  0  0  0  0  0  0  0
    8.1550   -5.8296    0.0000 C   0  0  0  0  0  0  0  0  0  0  0  0
    4.9311   -4.6200    0.0000 O   0  0  0  0  0  0  0  0  0  0  0  0
    4.2166   -5.8575    0.0000 C   0  0  0  0  0  0  0  0  0  0  0  0
    4.9311   -5.4450    0.0000 C   0  0  0  0  0  0  0  0  0  0  0  0
    8.1278   -6.5766    0.0000 H   0  0  0  0  0  0  0  0  0  0  0  0
    9.3790   -4.0223    0.0000 O   0  0  0  0  0  0  0  0  0  0  0  0
    9.7488   -5.4026    0.0000 O   0  0  0  0  0  0  0  0  0  0  0  0
  1  2  1  0  0  0  0
  2  3  1  0  0  0  0
  3  4  1  0  0  0  0
  4  5  1  0  0  0  0
  5  6  1  0  0  0  0
  6  1  1  0  0  0  0
  4  7  1  0  0  0  0
  7  8  1  0  0  0  0
  8  9  1  0  0  0  0
  9 10  2  0  0  0  0
 10  5  1  0  0  0  0
  9 11  1  0  0  0  0
 11 12  1  0  0  0  0
 12 13  1  0  0  0  0
 13 14  1  0  0  0  0
 14 10  1  0  0  0  0
 11 15  1  0  0  0  0
 15 16  1  0  0  0  0
 16 17  1  0  0  0  0
 17 12  1  0  0  0  0
  2 18  2  0  0  0  0
 14 19  2  0  0  0  0
 13 20  1  1  0  0  0
  8 21  2  0  0  0  0
 15 22  2  0  0  0  0
  3 23  1  0  0  0  0
  5 24  1  1  0  0  0
 12 25  1  1  0  0  0
  3 27  1  0  0  0  0
  4 28  1  6  0  0  0
 11 29  1  6  0  0  0
 26 30  1  6  0  0  0
 32 31  1  0  0  0  0
 26 33  1  0  0  0  0
 33 32  1  0  0  0  0
 36 34  2  0  0  0  0
 20 36  1  0  0  0  0
 36 35  1  0  0  0  0
 17 26  1  0  0  0  0
 17 37  1  6  0  0  0
 31 38  1  0  0  0  0
 31 39  2  0  0  0  0
M  END
>  <cdx:fragmentId>
5

$$$$
