12738.cdx
  Mrv1902 05222410242D          

 32 35  0  0  0  0            999 V2000
    5.5514   -7.8788    0.0000 C   0  0  0  0  0  0  0  0  0  0  0  0
    5.5514   -8.7037    0.0000 C   0  0  0  0  0  0  0  0  0  0  0  0
    6.2659   -9.1162    0.0000 C   0  0  0  0  0  0  0  0  0  0  0  0
    6.9803   -8.7037    0.0000 C   0  0  0  0  0  0  0  0  0  0  0  0
    6.9803   -7.8788    0.0000 C   0  0  0  0  0  0  0  0  0  0  0  0
    6.2659   -7.4663    0.0000 C   0  0  0  0  0  0  0  0  0  0  0  0
    7.6948   -9.1162    0.0000 C   0  0  0  0  0  0  0  0  0  0  0  0
    8.4093   -8.7037    0.0000 C   0  0  0  0  0  0  0  0  0  0  0  0
    8.4093   -7.8788    0.0000 C   0  0  0  0  0  0  0  0  0  0  0  0
    7.6948   -7.4663    0.0000 O   0  0  0  0  0  0  0  0  0  0  0  0
    9.1238   -7.4663    0.0000 C   0  0  0  0  0  0  0  0  0  0  0  0
    4.8369   -9.1162    0.0000 C   0  0  0  0  0  0  0  0  0  0  0  0
    7.6948   -9.9413    0.0000 O   0  0  0  0  0  0  0  0  0  0  0  0
    6.2659   -9.9413    0.0000 O   0  0  0  0  0  0  0  0  0  0  0  0
    4.8369   -7.4663    0.0000 O   0  0  0  0  0  0  0  0  0  0  0  0
    9.8382   -7.8788    0.0000 C   0  0  0  0  0  0  0  0  0  0  0  0
   10.5527   -7.4663    0.0000 C   0  0  0  0  0  0  0  0  0  0  0  0
   10.5527   -6.6412    0.0000 C   0  0  0  0  0  0  0  0  0  0  0  0
    9.8382   -6.2287    0.0000 C   0  0  0  0  0  0  0  0  0  0  0  0
    9.1238   -6.6412    0.0000 C   0  0  0  0  0  0  0  0  0  0  0  0
    4.1225   -8.7037    0.0000 O   0  0  0  0  0  0  0  0  0  0  0  0
    3.4080   -9.1162    0.0000 C   0  0  0  0  0  0  0  0  0  0  0  0
    3.4080   -9.9413    0.0000 C   0  0  0  0  0  0  0  0  0  0  0  0
    4.1225  -10.3537    0.0000 C   0  0  0  0  0  0  0  0  0  0  0  0
    4.8369   -9.9413    0.0000 C   0  0  0  0  0  0  0  0  0  0  0  0
    9.8382   -5.4037    0.0000 O   0  0  0  0  0  0  0  0  0  0  0  0
   11.2672   -6.2287    0.0000 O   0  0  0  0  0  0  0  0  0  0  0  0
    2.6935  -10.3537    0.0000 O   0  0  0  0  0  0  0  0  0  0  0  0
    4.1225  -11.1788    0.0000 O   0  0  0  0  0  0  0  0  0  0  0  0
    5.5514  -10.3537    0.0000 O   0  0  0  0  0  0  0  0  0  0  0  0
    2.6935   -8.7037    0.0000 C   0  0  0  0  0  0  0  0  0  0  0  0
    1.9790   -9.1162    0.0000 O   0  0  0  0  0  0  0  0  0  0  0  0
  1  2  1  0  0  0  0
  2  3  2  0  0  0  0
  3  4  1  0  0  0  0
  4  5  2  0  0  0  0
  5  6  1  0  0  0  0
  6  1  2  0  0  0  0
  4  7  1  0  0  0  0
  7  8  1  0  0  0  0
  8  9  2  0  0  0  0
  9 10  1  0  0  0  0
 10  5  1  0  0  0  0
  9 11  1  0  0  0  0
  2 12  1  0  0  0  0
  7 13  2  0  0  0  0
  3 14  1  0  0  0  0
  1 15  1  0  0  0  0
 11 16  2  0  0  0  0
 16 17  1  0  0  0  0
 17 18  2  0  0  0  0
 18 19  1  0  0  0  0
 19 20  2  0  0  0  0
 20 11  1  0  0  0  0
 12 21  1  0  0  0  0
 21 22  1  0  0  0  0
 22 23  1  0  0  0  0
 23 24  1  0  0  0  0
 24 25  1  0  0  0  0
 25 12  1  0  0  0  0
 19 26  1  0  0  0  0
 18 27  1  0  0  0  0
 23 28  1  0  0  0  0
 24 29  1  0  0  0  0
 25 30  1  0  0  0  0
 22 31  1  0  0  0  0
 31 32  1  0  0  0  0
M  END
>  <cdx:fragmentId>
5

$$$$
