12737.cdx
  Mrv1902 05222410222D          

 47 51  0  0  0  0            999 V2000
    7.7927   -7.6175    0.0000 C   0  0  0  0  0  0  0  0  0  0  0  0
    7.7927   -8.4425    0.0000 C   0  0  0  0  0  0  0  0  0  0  0  0
    8.5071   -8.8550    0.0000 C   0  0  0  0  0  0  0  0  0  0  0  0
    9.2216   -8.4425    0.0000 C   0  0  0  0  0  0  0  0  0  0  0  0
    9.2216   -7.6175    0.0000 C   0  0  0  0  0  0  0  0  0  0  0  0
    8.5071   -7.2050    0.0000 C   0  0  0  0  0  0  0  0  0  0  0  0
    9.9361   -8.8550    0.0000 C   0  0  0  0  0  0  0  0  0  0  0  0
   10.6505   -8.4425    0.0000 C   0  0  0  0  0  0  0  0  0  0  0  0
   10.6505   -7.6175    0.0000 C   0  0  0  0  0  0  0  0  0  0  0  0
    9.9361   -7.2050    0.0000 O   0  0  0  0  0  0  0  0  0  0  0  0
   11.3650   -7.2050    0.0000 C   0  0  0  0  0  0  0  0  0  0  0  0
    7.0782   -8.8550    0.0000 C   0  0  0  0  0  0  0  0  0  0  0  0
    9.9361   -9.6800    0.0000 O   0  0  0  0  0  0  0  0  0  0  0  0
    8.5071   -9.6800    0.0000 O   0  0  0  0  0  0  0  0  0  0  0  0
    7.0782   -7.2050    0.0000 O   0  0  0  0  0  0  0  0  0  0  0  0
   12.0795   -7.6175    0.0000 C   0  0  0  0  0  0  0  0  0  0  0  0
   12.7940   -7.2050    0.0000 C   0  0  0  0  0  0  0  0  0  0  0  0
   12.7940   -6.3800    0.0000 C   0  0  0  0  0  0  0  0  0  0  0  0
   12.0795   -5.9675    0.0000 C   0  0  0  0  0  0  0  0  0  0  0  0
   11.3650   -6.3800    0.0000 C   0  0  0  0  0  0  0  0  0  0  0  0
    6.3637   -8.4425    0.0000 O   0  0  0  0  0  0  0  0  0  0  0  0
    5.6492   -8.8550    0.0000 C   0  0  0  0  0  0  0  0  0  0  0  0
    5.6492   -9.6800    0.0000 C   0  0  0  0  0  0  0  0  0  0  0  0
    6.3637  -10.0925    0.0000 C   0  0  0  0  0  0  0  0  0  0  0  0
    7.0782   -9.6800    0.0000 C   0  0  0  0  0  0  0  0  0  0  0  0
   12.0795   -5.1425    0.0000 O   0  0  0  0  0  0  0  0  0  0  0  0
   13.5084   -5.9675    0.0000 O   0  0  0  0  0  0  0  0  0  0  0  0
    4.9348  -10.0925    0.0000 O   0  0  0  0  0  0  0  0  0  0  0  0
    6.3637  -10.9175    0.0000 O   0  0  0  0  0  0  0  0  0  0  0  0
    7.7927  -10.0925    0.0000 O   0  0  0  0  0  0  0  0  0  0  0  0
    4.9348   -8.4425    0.0000 C   0  0  0  0  0  0  0  0  0  0  0  0
    4.2203   -8.8550    0.0000 O   0  0  0  0  0  0  0  0  0  0  0  0
    3.5058   -8.4425    0.0000 C   0  0  0  0  0  0  0  0  0  0  0  0
    2.7914   -8.8550    0.0000 C   0  0  0  0  0  0  0  0  0  0  0  0
    2.0769   -8.4425    0.0000 C   0  0  0  0  0  0  0  0  0  0  0  0
    1.3624   -8.8550    0.0000 O   0  0  0  0  0  0  0  0  0  0  0  0
    2.0769   -7.6175    0.0000 O   0  0  0  0  0  0  0  0  0  0  0  0
    3.5058   -7.6175    0.0000 O   0  0  0  0  0  0  0  0  0  0  0  0
    7.0715   -6.4180    0.0000 O   0  0  0  0  0  0  0  0  0  0  0  0
    7.0435   -4.7682    0.0000 O   0  0  0  0  0  0  0  0  0  0  0  0
    8.4583   -3.9191    0.0000 O   0  0  0  0  0  0  0  0  0  0  0  0
    8.4723   -4.7440    0.0000 C   0  0  0  0  0  0  0  0  0  0  0  0
    7.7649   -5.1685    0.0000 C   0  0  0  0  0  0  0  0  0  0  0  0
    7.7789   -5.9934    0.0000 C   0  0  0  0  0  0  0  0  0  0  0  0
    8.5002   -6.3937    0.0000 C   0  0  0  0  0  0  0  0  0  0  0  0
    9.2076   -5.9692    0.0000 O   0  0  0  0  0  0  0  0  0  0  0  0
    9.1936   -5.1443    0.0000 C   0  0  0  0  0  0  0  0  0  0  0  0
  1  2  1  0  0  0  0
  2  3  2  0  0  0  0
  3  4  1  0  0  0  0
  4  5  2  0  0  0  0
  5  6  1  0  0  0  0
  6  1  2  0  0  0  0
  4  7  1  0  0  0  0
  7  8  1  0  0  0  0
  8  9  2  0  0  0  0
  9 10  1  0  0  0  0
 10  5  1  0  0  0  0
  9 11  1  0  0  0  0
  2 12  1  0  0  0  0
  7 13  2  0  0  0  0
  3 14  1  0  0  0  0
  1 15  1  0  0  0  0
 11 16  2  0  0  0  0
 16 17  1  0  0  0  0
 17 18  2  0  0  0  0
 18 19  1  0  0  0  0
 19 20  2  0  0  0  0
 20 11  1  0  0  0  0
 12 21  1  0  0  0  0
 21 22  1  0  0  0  0
 22 23  1  0  0  0  0
 23 24  1  0  0  0  0
 24 25  1  0  0  0  0
 25 12  1  0  0  0  0
 19 26  1  0  0  0  0
 18 27  1  0  0  0  0
 23 28  1  0  0  0  0
 24 29  1  0  0  0  0
 25 30  1  0  0  0  0
 22 31  1  0  0  0  0
 31 32  1  0  0  0  0
 32 33  1  0  0  0  0
 33 34  1  0  0  0  0
 34 35  1  0  0  0  0
 35 36  1  0  0  0  0
 35 37  2  0  0  0  0
 33 38  2  0  0  0  0
 44 39  1  0  0  0  0
 43 40  1  0  0  0  0
 42 41  1  0  0  0  0
 42 47  1  0  0  0  0
 43 42  1  0  0  0  0
 44 43  1  0  0  0  0
 45 44  1  0  0  0  0
 46 45  1  0  0  0  0
 47 46  1  0  0  0  0
 45  6  1  0  0  0  0
M  END
>  <cdx:fragmentId>
5

$$$$
