127402.cdx
  Mrv1902 05222410182D          

 16 18  0  0  0  0            999 V2000
    7.3409   -6.9492    0.0000 C   0  0  1  0  0  0  0  0  0  0  0  0
    8.0553   -6.5367    0.0000 C   0  0  0  0  0  0  0  0  0  0  0  0
    8.7698   -6.9492    0.0000 C   0  0  0  0  0  0  0  0  0  0  0  0
    8.7698   -7.7742    0.0000 C   0  0  0  0  0  0  0  0  0  0  0  0
    8.0553   -8.1867    0.0000 C   0  0  0  0  0  0  0  0  0  0  0  0
    7.3409   -7.7742    0.0000 C   0  0  0  0  0  0  0  0  0  0  0  0
    6.6264   -8.1867    0.0000 C   0  0  0  0  0  0  0  0  0  0  0  0
    5.9119   -7.7742    0.0000 C   0  0  1  0  0  0  0  0  0  0  0  0
    5.9119   -6.9492    0.0000 C   0  0  0  0  0  0  0  0  0  0  0  0
    6.6264   -6.5367    0.0000 C   0  0  0  0  0  0  0  0  0  0  0  0
    6.4583   -7.0713    0.0000 C   0  0  0  0  0  0  0  0  0  0  0  0
    7.0389   -8.9012    0.0000 C   0  0  0  0  0  0  0  0  0  0  0  0
    6.2139   -8.9012    0.0000 C   0  0  0  0  0  0  0  0  0  0  0  0
    7.6428   -5.8223    0.0000 C   0  0  0  0  0  0  0  0  0  0  0  0
    8.4678   -5.8223    0.0000 C   0  0  0  0  0  0  0  0  0  0  0  0
    5.1974   -8.1867    0.0000 H   0  0  0  0  0  0  0  0  0  0  0  0
  1  2  1  6  0  0  0
  2  3  1  0  0  0  0
  3  4  1  0  0  0  0
  4  5  1  0  0  0  0
  5  6  2  0  0  0  0
  6  7  1  0  0  0  0
  7  8  1  0  0  0  0
  8  9  1  0  0  0  0
  9 10  1  0  0  0  0
  1 10  1  0  0  0  0
  1 11  1  0  0  0  0
  8 11  1  0  0  0  0
  1  6  1  0  0  0  0
  7 12  1  0  0  0  0
  7 13  1  0  0  0  0
  2 14  1  0  0  0  0
  2 15  1  0  0  0  0
  8 16  1  6  0  0  0
M  END
>  <cdx:fragmentId>
66692

$$$$
