12741.cdx
  Mrv1902 05222410202D          

 11 10  0  0  0  0            999 V2000
    8.9241   -2.9422    0.0000 C   0  0  0  0  0  0  0  0  0  0  0  0
    8.2096   -2.5297    0.0000 C   0  0  0  0  0  0  0  0  0  0  0  0
    7.4952   -2.9422    0.0000 C   0  0  0  0  0  0  0  0  0  0  0  0
    6.7807   -2.5297    0.0000 C   0  0  0  0  0  0  0  0  0  0  0  0
    6.0662   -2.9422    0.0000 C   0  0  0  0  0  0  0  0  0  0  0  0
    5.3518   -2.5297    0.0000 C   0  0  0  0  0  0  0  0  0  0  0  0
    4.6373   -2.9422    0.0000 C   0  0  0  0  0  0  0  0  0  0  0  0
    3.9228   -2.5297    0.0000 C   0  0  0  0  0  0  0  0  0  0  0  0
    3.2084   -2.9422    0.0000 C   0  0  0  0  0  0  0  0  0  0  0  0
    2.4939   -2.5297    0.0000 C   0  0  0  0  0  0  0  0  0  0  0  0
    8.2096   -1.7047    0.0000 O   0  0  0  0  0  0  0  0  0  0  0  0
  1  2  1  0  0  0  0
  2  3  1  0  0  0  0
  3  4  1  0  0  0  0
  4  5  1  0  0  0  0
  5  6  1  0  0  0  0
  6  7  1  0  0  0  0
  7  8  1  0  0  0  0
  8  9  1  0  0  0  0
  9 10  1  0  0  0  0
  2 11  2  0  0  0  0
M  END
>  <cdx:groupId>
34

>  <cdx:fragmentId>
5

$$$$
