127419.cdx
  Mrv1902 05222410272D          

 15 15  0  0  0  0            999 V2000
    8.4922   -6.3519    0.0000 C   0  0  0  0  0  0  0  0  0  0  0  0
    7.7777   -6.7644    0.0000 C   0  0  0  0  0  0  0  0  0  0  0  0
    7.0632   -6.3519    0.0000 C   0  0  0  0  0  0  0  0  0  0  0  0
    8.4922   -5.5269    0.0000 O   0  0  0  0  0  0  0  0  0  0  0  0
    9.2067   -6.7644    0.0000 O   0  0  0  0  0  0  0  0  0  0  0  0
    6.3488   -6.7644    0.0000 C   0  0  0  0  0  0  0  0  0  0  0  0
    5.6343   -6.3519    0.0000 C   0  0  0  0  0  0  0  0  0  0  0  0
    4.9198   -6.7644    0.0000 C   0  0  0  0  0  0  0  0  0  0  0  0
    4.9198   -7.5894    0.0000 C   0  0  0  0  0  0  0  0  0  0  0  0
    5.6343   -8.0019    0.0000 C   0  0  0  0  0  0  0  0  0  0  0  0
    6.3488   -7.5894    0.0000 C   0  0  0  0  0  0  0  0  0  0  0  0
    4.2054   -8.0019    0.0000 O   0  0  0  0  0  0  0  0  0  0  0  0
    4.2054   -6.3519    0.0000 O   0  0  0  0  0  0  0  0  0  0  0  0
    9.9211   -6.3519    0.0000 C   0  0  0  0  0  0  0  0  0  0  0  0
   10.6356   -6.7644    0.0000 C   0  0  0  0  0  0  0  0  0  0  0  0
  1  2  1  0  0  0  0
  2  3  2  0  0  0  0
  1  4  2  0  0  0  0
  1  5  1  0  0  0  0
  6  7  1  0  0  0  0
  7  8  2  0  0  0  0
  8  9  1  0  0  0  0
  9 10  2  0  0  0  0
 10 11  1  0  0  0  0
  6 11  2  0  0  0  0
  9 12  1  0  0  0  0
  8 13  1  0  0  0  0
  3  6  1  0  0  0  0
 14 15  2  0  0  0  0
  5 14  1  0  0  0  0
M  END
>  <cdx:fragmentId>
66756

$$$$
