12753.cdx
  Mrv1902 05222410192D          

 43 47  0  0  0  0            999 V2000
    7.5529   -7.9791    0.0000 O   0  0  0  0  0  0  0  0  0  0  0  0
    6.8384   -8.3916    0.0000 C   0  0  2  0  0  0  0  0  0  0  0  0
    6.1239   -7.9791    0.0000 C   0  0  1  0  0  0  0  0  0  0  0  0
    6.1239   -7.1541    0.0000 C   0  0  2  0  0  0  0  0  0  0  0  0
    6.8384   -6.7416    0.0000 C   0  0  2  0  0  0  0  0  0  0  0  0
    7.5529   -7.1541    0.0000 C   0  0  0  0  0  0  0  0  0  0  0  0
    6.8384   -5.9166    0.0000 O   0  0  0  0  0  0  0  0  0  0  0  0
    5.4095   -6.7416    0.0000 O   0  0  0  0  0  0  0  0  0  0  0  0
    5.4095   -8.3916    0.0000 O   0  0  0  0  0  0  0  0  0  0  0  0
   11.8397   -9.6291    0.0000 O   0  0  0  0  0  0  0  0  0  0  0  0
   11.8397   -7.9791    0.0000 O   0  0  0  0  0  0  0  0  0  0  0  0
    9.6963   -8.3916    0.0000 C   0  0  0  0  0  0  0  0  0  0  0  0
   10.4108   -7.9791    0.0000 C   0  0  0  0  0  0  0  0  0  0  0  0
   11.1252   -8.3916    0.0000 C   0  0  0  0  0  0  0  0  0  0  0  0
   11.1252   -9.2166    0.0000 C   0  0  0  0  0  0  0  0  0  0  0  0
   10.4108   -9.6291    0.0000 C   0  0  0  0  0  0  0  0  0  0  0  0
    9.6963   -9.2166    0.0000 C   0  0  0  0  0  0  0  0  0  0  0  0
    6.8384  -11.6916    0.0000 O   0  0  0  0  0  0  0  0  0  0  0  0
    5.4095   -9.2166    0.0000 O   0  0  0  0  0  0  0  0  0  0  0  0
    6.1239  -12.1041    0.0000 O   0  0  0  0  0  0  0  0  0  0  0  0
    4.6950  -12.9291    0.0000 O   0  0  0  0  0  0  0  0  0  0  0  0
    3.2661  -12.1041    0.0000 O   0  0  0  0  0  0  0  0  0  0  0  0
    2.5516  -10.8666    0.0000 O   0  0  0  0  0  0  0  0  0  0  0  0
    3.2661  -10.4541    0.0000 C   0  0  0  0  0  0  0  0  0  0  0  0
    3.9805  -10.8666    0.0000 C   0  0  2  0  0  0  0  0  0  0  0  0
    3.9805  -11.6916    0.0000 C   0  0  2  0  0  0  0  0  0  0  0  0
    4.6950  -12.1041    0.0000 C   0  0  1  0  0  0  0  0  0  0  0  0
    5.4095  -11.6916    0.0000 C   0  0  2  0  0  0  0  0  0  0  0  0
    5.4095  -10.8666    0.0000 C   0  0  1  0  0  0  0  0  0  0  0  0
    4.6950  -10.4541    0.0000 O   0  0  0  0  0  0  0  0  0  0  0  0
    8.2674  -11.6916    0.0000 O   0  0  0  0  0  0  0  0  0  0  0  0
    8.2674   -9.2166    0.0000 O   0  0  0  0  0  0  0  0  0  0  0  0
    7.5529   -9.6291    0.0000 C   0  0  0  0  0  0  0  0  0  0  0  0
    6.8384   -9.2166    0.0000 C   0  0  0  0  0  0  0  0  0  0  0  0
    6.1239   -9.6291    0.0000 C   0  0  0  0  0  0  0  0  0  0  0  0
    6.1239  -10.4541    0.0000 C   0  0  0  0  0  0  0  0  0  0  0  0
    6.8384  -10.8666    0.0000 C   0  0  0  0  0  0  0  0  0  0  0  0
    7.5529  -10.4541    0.0000 C   0  0  0  0  0  0  0  0  0  0  0  0
    8.2674  -10.8666    0.0000 C   0  0  0  0  0  0  0  0  0  0  0  0
    8.9818  -10.4541    0.0000 C   0  0  0  0  0  0  0  0  0  0  0  0
    8.9818   -9.6291    0.0000 C   0  0  0  0  0  0  0  0  0  0  0  0
    5.4095  -10.0416    0.0000 H   0  0  0  0  0  0  0  0  0  0  0  0
    7.5529   -8.8041    0.0000 H   0  0  0  0  0  0  0  0  0  0  0  0
 41 17  1  0  0  0  0
 15 10  1  0  0  0  0
 14 11  1  0  0  0  0
 17 12  2  0  0  0  0
 13 12  1  0  0  0  0
 14 13  2  0  0  0  0
 15 14  1  0  0  0  0
 16 15  2  0  0  0  0
 17 16  1  0  0  0  0
 37 18  1  0  0  0  0
 35 19  1  0  0  0  0
 29 36  1  0  0  0  0
 28 20  1  6  0  0  0
 27 21  1  1  0  0  0
 26 22  1  6  0  0  0
 25 24  1  1  0  0  0
 24 23  1  0  0  0  0
 30 25  1  0  0  0  0
 26 25  1  0  0  0  0
 27 26  1  0  0  0  0
 28 27  1  0  0  0  0
 29 28  1  0  0  0  0
 30 29  1  0  0  0  0
  2 34  1  0  0  0  0
 39 31  2  0  0  0  0
 41 32  1  0  0  0  0
 33 32  1  0  0  0  0
 38 33  2  0  0  0  0
 34 33  1  0  0  0  0
 35 34  2  0  0  0  0
 36 35  1  0  0  0  0
 37 36  2  0  0  0  0
 38 37  1  0  0  0  0
 39 38  1  0  0  0  0
 40 39  1  0  0  0  0
 41 40  2  0  0  0  0
  1  2  1  0  0  0  0
  2  3  1  0  0  0  0
  3  4  1  0  0  0  0
  4  5  1  0  0  0  0
  5  6  1  0  0  0  0
  1  6  1  0  0  0  0
  5  7  1  1  0  0  0
  4  8  1  1  0  0  0
  3  9  1  6  0  0  0
 29 42  1  6  0  0  0
  2 43  1  6  0  0  0
M  END
>  <cdx:fragmentId>
5

$$$$
