127509.cdx
  Mrv1902 05222410232D          

 32 34  0  0  0  0            999 V2000
   11.5848   -6.1307    0.0000 C   0  0  0  0  0  0  0  0  0  0  0  0
   10.8703   -6.5432    0.0000 C   0  0  0  0  0  0  0  0  0  0  0  0
   10.1558   -6.1307    0.0000 O   0  0  0  0  0  0  0  0  0  0  0  0
   10.8703   -7.3682    0.0000 C   0  0  0  0  0  0  0  0  0  0  0  0
   10.1558   -7.7807    0.0000 C   0  0  0  0  0  0  0  0  0  0  0  0
   10.1558   -8.6057    0.0000 C   0  0  0  0  0  0  0  0  0  0  0  0
   10.8703   -9.0182    0.0000 C   0  0  0  0  0  0  0  0  0  0  0  0
   11.5848   -8.6057    0.0000 C   0  0  0  0  0  0  0  0  0  0  0  0
   11.5848   -7.7807    0.0000 C   0  0  0  0  0  0  0  0  0  0  0  0
   10.8703   -9.8432    0.0000 O   0  0  0  0  0  0  0  0  0  0  0  0
   11.5848  -10.2557    0.0000 C   0  0  0  0  0  0  0  0  0  0  0  0
    9.4413   -7.3682    0.0000 O   0  0  0  0  0  0  0  0  0  0  0  0
    8.7269   -7.7807    0.0000 C   0  0  1  0  0  0  0  0  0  0  0  0
    8.7269   -8.6057    0.0000 C   0  0  1  0  0  0  0  0  0  0  0  0
    8.0124   -9.0182    0.0000 C   0  0  2  0  0  0  0  0  0  0  0  0
    7.2979   -8.6057    0.0000 C   0  0  1  0  0  0  0  0  0  0  0  0
    7.2979   -7.7807    0.0000 C   0  0  2  0  0  0  0  0  0  0  0  0
    8.0124   -7.3682    0.0000 O   0  0  0  0  0  0  0  0  0  0  0  0
    6.5835   -7.3682    0.0000 C   0  0  0  0  0  0  0  0  0  0  0  0
    5.8690   -7.7807    0.0000 O   0  0  0  0  0  0  0  0  0  0  0  0
    5.1545   -7.3682    0.0000 C   0  0  1  0  0  0  0  0  0  0  0  0
    4.4009   -7.7037    0.0000 C   0  0  1  0  0  0  0  0  0  0  0  0
    3.8488   -7.0906    0.0000 C   0  0  2  0  0  0  0  0  0  0  0  0
    4.2613   -6.3762    0.0000 C   0  0  0  0  0  0  0  0  0  0  0  0
    5.0683   -6.5477    0.0000 O   0  0  0  0  0  0  0  0  0  0  0  0
    3.0951   -6.7551    0.0000 C   0  0  0  0  0  0  0  0  0  0  0  0
    2.4277   -7.2400    0.0000 O   0  0  0  0  0  0  0  0  0  0  0  0
    3.1814   -7.5756    0.0000 O   0  0  0  0  0  0  0  0  0  0  0  0
    4.2293   -8.5107    0.0000 O   0  0  0  0  0  0  0  0  0  0  0  0
    6.5835   -9.0182    0.0000 O   0  0  0  0  0  0  0  0  0  0  0  0
    8.0124   -9.8432    0.0000 O   0  0  0  0  0  0  0  0  0  0  0  0
    9.4413   -9.0182    0.0000 O   0  0  0  0  0  0  0  0  0  0  0  0
  1  2  1  0  0  0  0
  2  3  2  0  0  0  0
  2  4  1  0  0  0  0
  4  5  2  0  0  0  0
  5  6  1  0  0  0  0
  6  7  2  0  0  0  0
  7  8  1  0  0  0  0
  8  9  2  0  0  0  0
  4  9  1  0  0  0  0
  7 10  1  0  0  0  0
 10 11  1  0  0  0  0
  5 12  1  0  0  0  0
 13 12  1  1  0  0  0
 13 14  1  0  0  0  0
 14 15  1  0  0  0  0
 15 16  1  0  0  0  0
 16 17  1  0  0  0  0
 17 18  1  0  0  0  0
 13 18  1  0  0  0  0
 17 19  1  1  0  0  0
 19 20  1  0  0  0  0
 21 20  1  1  0  0  0
 21 22  1  0  0  0  0
 22 23  1  0  0  0  0
 23 24  1  0  0  0  0
 24 25  1  0  0  0  0
 21 25  1  0  0  0  0
 23 26  1  1  0  0  0
 26 27  1  0  0  0  0
 23 28  1  6  0  0  0
 22 29  1  6  0  0  0
 16 30  1  6  0  0  0
 15 31  1  1  0  0  0
 14 32  1  6  0  0  0
M  END
>  <cdx:fragmentId>
3

$$$$
