12751.cdx
  Mrv1902 05222410182D          

 34 37  0  0  0  0            999 V2000
    5.8814   -5.7750    0.0000 C   0  0  0  0  0  0  0  0  0  0  0  0
    5.8814   -6.6000    0.0000 C   0  0  0  0  0  0  0  0  0  0  0  0
    6.5959   -7.0125    0.0000 C   0  0  0  0  0  0  0  0  0  0  0  0
    7.3103   -6.6000    0.0000 C   0  0  0  0  0  0  0  0  0  0  0  0
    7.3103   -5.7750    0.0000 C   0  0  0  0  0  0  0  0  0  0  0  0
    6.5959   -5.3625    0.0000 C   0  0  0  0  0  0  0  0  0  0  0  0
    8.0248   -7.0125    0.0000 C   0  0  0  0  0  0  0  0  0  0  0  0
    8.7393   -6.6000    0.0000 C   0  0  0  0  0  0  0  0  0  0  0  0
    8.7393   -5.7750    0.0000 C   0  0  0  0  0  0  0  0  0  0  0  0
    8.0248   -5.3625    0.0000 O   0  0  0  0  0  0  0  0  0  0  0  0
    9.4538   -5.3625    0.0000 C   0  0  0  0  0  0  0  0  0  0  0  0
    9.4538   -4.5375    0.0000 C   0  0  0  0  0  0  0  0  0  0  0  0
   10.1682   -5.7750    0.0000 C   0  0  0  0  0  0  0  0  0  0  0  0
   10.8827   -5.3625    0.0000 C   0  0  0  0  0  0  0  0  0  0  0  0
   10.8827   -4.5375    0.0000 C   0  0  0  0  0  0  0  0  0  0  0  0
   10.1682   -4.1250    0.0000 C   0  0  0  0  0  0  0  0  0  0  0  0
    5.1669   -5.3625    0.0000 O   0  0  0  0  0  0  0  0  0  0  0  0
    6.5959   -7.8375    0.0000 O   0  0  0  0  0  0  0  0  0  0  0  0
    8.0248   -7.8375    0.0000 O   0  0  0  0  0  0  0  0  0  0  0  0
    9.4538   -7.0125    0.0000 H   0  0  0  0  0  0  0  0  0  0  0  0
   10.1682   -3.3000    0.0000 O   0  0  0  0  0  0  0  0  0  0  0  0
   11.5972   -4.1250    0.0000 O   0  0  0  0  0  0  0  0  0  0  0  0
    2.9320   -7.4869    0.0000 C   0  0  2  0  0  0  0  0  0  0  0  0
    2.9320   -8.3119    0.0000 C   0  0  2  0  0  0  0  0  0  0  0  0
    3.6465   -8.7244    0.0000 C   0  0  1  0  0  0  0  0  0  0  0  0
    4.3610   -8.3119    0.0000 C   0  0  2  0  0  0  0  0  0  0  0  0
    4.3610   -7.4869    0.0000 C   0  0  1  0  0  0  0  0  0  0  0  0
    3.6465   -7.0744    0.0000 O   0  0  0  0  0  0  0  0  0  0  0  0
    2.2176   -7.0744    0.0000 C   0  0  0  0  0  0  0  0  0  0  0  0
    5.0754   -7.0744    0.0000 O   0  0  0  0  0  0  0  0  0  0  0  0
    3.6465   -9.5494    0.0000 O   0  0  0  0  0  0  0  0  0  0  0  0
    2.2176   -8.7244    0.0000 O   0  0  0  0  0  0  0  0  0  0  0  0
    5.0754   -8.7244    0.0000 O   0  0  0  0  0  0  0  0  0  0  0  0
    1.5031   -7.4869    0.0000 O   0  0  0  0  0  0  0  0  0  0  0  0
  1  2  2  0  0  0  0
  2  3  1  0  0  0  0
  3  4  2  0  0  0  0
  4  5  1  0  0  0  0
  5  6  2  0  0  0  0
  6  1  1  0  0  0  0
  4  7  1  0  0  0  0
  7  8  1  0  0  0  0
  8  9  2  0  0  0  0
  9 10  1  0  0  0  0
 10  5  1  0  0  0  0
  9 11  1  0  0  0  0
 11 12  1  0  0  0  0
 11 13  2  0  0  0  0
 13 14  1  0  0  0  0
 14 15  2  0  0  0  0
 15 16  1  0  0  0  0
 16 12  2  0  0  0  0
  1 17  1  0  0  0  0
  3 18  1  0  0  0  0
  7 19  2  0  0  0  0
  8 20  1  0  0  0  0
 16 21  1  0  0  0  0
 15 22  1  0  0  0  0
 23 24  1  0  0  0  0
 24 25  1  0  0  0  0
 25 26  1  0  0  0  0
 26 27  1  0  0  0  0
 27 28  1  0  0  0  0
 28 23  1  0  0  0  0
 23 29  1  1  0  0  0
 27 30  1  1  0  0  0
 25 31  1  1  0  0  0
 24 32  1  6  0  0  0
 26 33  1  6  0  0  0
 29 34  1  0  0  0  0
  2 30  1  0  0  0  0
M  END
>  <cdx:fragmentId>
5

$$$$
