12756.cdx
  Mrv1902 05222410192D          

  8  8  0  0  0  0            999 V2000
    8.0031   -3.5196    0.0000 C   0  0  0  0  0  0  0  0  0  0  0  0
    7.3939   -2.9633    0.0000 C   0  0  0  0  0  0  0  0  0  0  0  0
    4.4899   -2.9429    0.0000 O   0  0  0  0  0  0  0  0  0  0  0  0
    6.6075   -3.2127    0.0000 C   0  0  0  0  0  0  0  0  0  0  0  0
    6.3471   -3.9955    0.0000 C   0  0  0  0  0  0  0  0  0  0  0  0
    5.5221   -3.9897    0.0000 C   0  0  0  0  0  0  0  0  0  0  0  0
    5.2727   -3.2033    0.0000 C   0  0  0  0  0  0  0  0  0  0  0  0
    5.9435   -2.7231    0.0000 O   0  0  0  0  0  0  0  0  0  0  0  0
  4  2  1  0  0  0  0
  2  1  1  0  0  0  0
  7  3  2  0  0  0  0
  8  4  1  0  0  0  0
  5  4  1  0  0  0  0
  6  5  1  0  0  0  0
  7  6  1  0  0  0  0
  8  7  1  0  0  0  0
M  END
>  <cdx:fragmentId>
5

$$$$
