12767.cdx
  Mrv1902 05222410262D          

 65 73  0  0  0  0            999 V2000
   15.8013  -10.2819    0.0000 C   0  0  1  0  0  0  0  0  0  0  0  0
   16.5127   -9.8643    0.0000 C   0  0  2  0  0  0  0  0  0  0  0  0
   17.2992  -10.1135    0.0000 C   0  0  0  0  0  0  0  0  0  0  0  0
   17.7793   -9.4426    0.0000 C   0  0  2  0  0  0  0  0  0  0  0  0
   18.5620   -9.1820    0.0000 O   0  0  0  0  0  0  0  0  0  0  0  0
   18.5561   -8.3570    0.0000 C   0  0  2  0  0  0  0  0  0  0  0  0
   17.7696   -8.1078    0.0000 C   0  0  2  0  0  0  0  0  0  0  0  0
   17.2895   -8.7787    0.0000 C   0  0  2  0  0  0  0  0  0  0  0  0
   16.5068   -9.0393    0.0000 C   0  0  1  0  0  0  0  0  0  0  0  0
   15.7894   -8.6319    0.0000 C   0  0  0  0  0  0  0  0  0  0  0  0
   15.0779   -9.0496    0.0000 C   0  0  0  0  0  0  0  0  0  0  0  0
   15.0838   -9.8746    0.0000 C   0  0  2  0  0  0  0  0  0  0  0  0
   14.3724  -10.2922    0.0000 C   0  0  1  0  0  0  0  0  0  0  0  0
   13.6549   -9.8849    0.0000 C   0  0  1  0  0  0  0  0  0  0  0  0
   12.9435  -10.3025    0.0000 C   0  0  0  0  0  0  0  0  0  0  0  0
   12.9494  -11.1275    0.0000 C   0  0  1  0  0  0  0  0  0  0  0  0
   13.6668  -11.5348    0.0000 C   0  0  0  0  0  0  0  0  0  0  0  0
   14.3783  -11.1172    0.0000 C   0  0  0  0  0  0  0  0  0  0  0  0
   15.0958  -11.5245    0.0000 C   0  0  0  0  0  0  0  0  0  0  0  0
   15.8072  -11.1069    0.0000 C   0  0  0  0  0  0  0  0  0  0  0  0
   18.4639   -7.5372    0.0000 O   0  0  0  0  0  0  0  0  0  0  0  0
   19.3122   -8.6871    0.0000 C   0  0  0  0  0  0  0  0  0  0  0  0
   19.9761   -8.1974    0.0000 C   0  0  0  0  0  0  0  0  0  0  0  0
   19.8839   -7.3776    0.0000 C   0  0  1  0  0  0  0  0  0  0  0  0
   19.1278   -7.0475    0.0000 C   0  0  0  0  0  0  0  0  0  0  0  0
   13.6490   -9.0599    0.0000 O   0  0  0  0  0  0  0  0  0  0  0  0
   12.2379  -11.5452    0.0000 O   0  0  0  0  0  0  0  0  0  0  0  0
   14.3664   -9.4672    0.0000 C   0  0  0  0  0  0  0  0  0  0  0  0
   16.5068   -8.2143    0.0000 C   0  0  0  0  0  0  0  0  0  0  0  0
   17.5090   -7.3250    0.0000 C   0  0  0  0  0  0  0  0  0  0  0  0
   20.5478   -6.8878    0.0000 C   0  0  0  0  0  0  0  0  0  0  0  0
   15.7953   -9.4569    0.0000 H   0  0  0  0  0  0  0  0  0  0  0  0
   16.5187  -10.6892    0.0000 H   0  0  0  0  0  0  0  0  0  0  0  0
   18.2690  -10.1065    0.0000 H   0  0  0  0  0  0  0  0  0  0  0  0
   16.9225   -8.0398    0.0000 H   0  0  0  0  0  0  0  0  0  0  0  0
   15.0898  -10.6995    0.0000 H   0  0  0  0  0  0  0  0  0  0  0  0
   13.2365   -8.3454    0.0000 C   0  0  2  0  0  0  0  0  0  0  0  0
   13.6490   -7.6310    0.0000 O   0  0  0  0  0  0  0  0  0  0  0  0
   13.2365   -6.9165    0.0000 C   0  0  1  0  0  0  0  0  0  0  0  0
   12.4115   -6.9165    0.0000 C   0  0  1  0  0  0  0  0  0  0  0  0
   11.9990   -7.6310    0.0000 C   0  0  1  0  0  0  0  0  0  0  0  0
   12.4115   -8.3454    0.0000 C   0  0  1  0  0  0  0  0  0  0  0  0
   13.6490   -6.2020    0.0000 C   0  0  0  0  0  0  0  0  0  0  0  0
   11.9990   -6.2020    0.0000 O   0  0  0  0  0  0  0  0  0  0  0  0
   11.1740   -7.6310    0.0000 O   0  0  0  0  0  0  0  0  0  0  0  0
   11.9990   -9.0599    0.0000 O   0  0  0  0  0  0  0  0  0  0  0  0
   11.2790   -9.4627    0.0000 C   0  0  2  0  0  0  0  0  0  0  0  0
   10.5702   -9.0405    0.0000 O   0  0  0  0  0  0  0  0  0  0  0  0
    9.8502   -9.4433    0.0000 C   0  0  1  0  0  0  0  0  0  0  0  0
    9.8390  -10.2682    0.0000 C   0  0  1  0  0  0  0  0  0  0  0  0
   10.5478  -10.6904    0.0000 C   0  0  1  0  0  0  0  0  0  0  0  0
   11.2678  -10.2876    0.0000 C   0  0  1  0  0  0  0  0  0  0  0  0
    9.1414   -9.0211    0.0000 C   0  0  0  0  0  0  0  0  0  0  0  0
   10.5366  -11.5153    0.0000 O   0  0  0  0  0  0  0  0  0  0  0  0
    9.1190  -10.6710    0.0000 O   0  0  0  0  0  0  0  0  0  0  0  0
   11.9766  -10.7098    0.0000 O   0  0  0  0  0  0  0  0  0  0  0  0
   11.2842   -5.7901    0.0000 C   0  0  2  0  0  0  0  0  0  0  0  0
   11.2835   -4.9651    0.0000 O   0  0  0  0  0  0  0  0  0  0  0  0
   10.5687   -4.5532    0.0000 C   0  0  0  0  0  0  0  0  0  0  0  0
    9.8546   -4.9662    0.0000 C   0  0  2  0  0  0  0  0  0  0  0  0
    9.8552   -5.7912    0.0000 C   0  0  1  0  0  0  0  0  0  0  0  0
   10.5700   -6.2032    0.0000 C   0  0  1  0  0  0  0  0  0  0  0  0
   10.5707   -7.0282    0.0000 O   0  0  0  0  0  0  0  0  0  0  0  0
    9.1411   -6.2043    0.0000 O   0  0  0  0  0  0  0  0  0  0  0  0
    9.1398   -4.5543    0.0000 O   0  0  0  0  0  0  0  0  0  0  0  0
  1  2  1  0  0  0  0
  2  3  1  0  0  0  0
  3  4  1  0  0  0  0
  4  5  1  0  0  0  0
  6  5  1  6  0  0  0
  6  7  1  0  0  0  0
  7  8  1  0  0  0  0
  8  9  1  0  0  0  0
  9 10  1  0  0  0  0
 10 11  1  0  0  0  0
 11 12  1  0  0  0  0
 12 13  1  0  0  0  0
 13 14  1  0  0  0  0
 14 15  1  0  0  0  0
 15 16  1  0  0  0  0
 16 17  1  0  0  0  0
 17 18  1  0  0  0  0
 18 19  2  0  0  0  0
 19 20  1  0  0  0  0
  1 20  1  0  0  0  0
  1 12  1  0  0  0  0
 13 18  1  0  0  0  0
  2  9  1  0  0  0  0
  4  8  1  0  0  0  0
 22 23  1  0  0  0  0
 23 24  1  0  0  0  0
 24 25  1  0  0  0  0
 21 25  1  0  0  0  0
  6 21  1  0  0  0  0
  6 22  1  0  0  0  0
 14 26  1  1  0  0  0
 16 27  1  1  0  0  0
 13 28  1  1  0  0  0
  9 29  1  1  0  0  0
  7 30  1  6  0  0  0
 24 31  1  1  0  0  0
  1 32  1  1  0  0  0
  2 33  1  6  0  0  0
  4 34  1  6  0  0  0
  8 35  1  6  0  0  0
 12 36  1  6  0  0  0
 37 26  1  1  0  0  0
 37 38  1  0  0  0  0
 38 39  1  0  0  0  0
 39 40  1  0  0  0  0
 40 41  1  0  0  0  0
 41 42  1  0  0  0  0
 42 37  1  0  0  0  0
 39 43  1  1  0  0  0
 40 44  1  1  0  0  0
 41 45  1  1  0  0  0
 42 46  1  6  0  0  0
 47 46  1  1  0  0  0
 47 48  1  0  0  0  0
 48 49  1  0  0  0  0
 49 50  1  0  0  0  0
 50 51  1  0  0  0  0
 51 52  1  0  0  0  0
 52 47  1  0  0  0  0
 49 53  1  1  0  0  0
 51 54  1  1  0  0  0
 50 55  1  1  0  0  0
 52 56  1  6  0  0  0
 57 44  1  1  0  0  0
 57 58  1  0  0  0  0
 58 59  1  0  0  0  0
 59 60  1  0  0  0  0
 60 61  1  0  0  0  0
 61 62  1  0  0  0  0
 62 57  1  0  0  0  0
 62 63  1  6  0  0  0
 61 64  1  1  0  0  0
 60 65  1  6  0  0  0
M  END
>  <cdx:fragmentId>
5

$$$$
