12777.cdx
  Mrv1902 05222410272D          

 32 35  0  0  0  0            999 V2000
    6.8629   -7.6931    0.0000 O   0  0  0  0  0  0  0  0  0  0  0  0
    6.1485   -7.2806    0.0000 C   0  0  0  0  0  0  0  0  0  0  0  0
    5.4340   -7.6931    0.0000 C   0  0  0  0  0  0  0  0  0  0  0  0
    6.1485   -6.4556    0.0000 C   0  0  0  0  0  0  0  0  0  0  0  0
    5.4340   -6.0431    0.0000 C   0  0  0  0  0  0  0  0  0  0  0  0
    4.7195   -6.4556    0.0000 C   0  0  0  0  0  0  0  0  0  0  0  0
   10.4353   -7.2806    0.0000 O   0  0  0  0  0  0  0  0  0  0  0  0
    9.0064   -6.4556    0.0000 O   0  0  0  0  0  0  0  0  0  0  0  0
    6.8629  -10.9931    0.0000 O   0  0  0  0  0  0  0  0  0  0  0  0
    5.4340  -10.9931    0.0000 O   0  0  0  0  0  0  0  0  0  0  0  0
    4.7195   -7.2806    0.0000 O   0  0  0  0  0  0  0  0  0  0  0  0
    4.0051   -6.0431    0.0000 C   0  0  0  0  0  0  0  0  0  0  0  0
    4.0051   -5.2181    0.0000 O   0  0  0  0  0  0  0  0  0  0  0  0
    5.4340   -5.2181    0.0000 O   0  0  0  0  0  0  0  0  0  0  0  0
    6.8629   -6.0431    0.0000 O   0  0  0  0  0  0  0  0  0  0  0  0
    4.0051   -8.5181    0.0000 O   0  0  0  0  0  0  0  0  0  0  0  0
    9.7208   -8.5181    0.0000 C   0  0  0  0  0  0  0  0  0  0  0  0
    9.7208   -7.6931    0.0000 C   0  0  0  0  0  0  0  0  0  0  0  0
    9.0064   -7.2806    0.0000 C   0  0  0  0  0  0  0  0  0  0  0  0
    8.2919   -7.6931    0.0000 C   0  0  0  0  0  0  0  0  0  0  0  0
    9.0064   -8.9306    0.0000 C   0  0  0  0  0  0  0  0  0  0  0  0
    8.2919   -8.5181    0.0000 C   0  0  0  0  0  0  0  0  0  0  0  0
    6.8629  -10.1681    0.0000 C   0  0  0  0  0  0  0  0  0  0  0  0
    7.5774   -9.7556    0.0000 C   0  0  0  0  0  0  0  0  0  0  0  0
    7.5774   -8.9306    0.0000 C   0  0  0  0  0  0  0  0  0  0  0  0
    6.8629   -8.5181    0.0000 O   0  0  0  0  0  0  0  0  0  0  0  0
    5.4340  -10.1681    0.0000 C   0  0  0  0  0  0  0  0  0  0  0  0
    6.1485   -9.7556    0.0000 C   0  0  0  0  0  0  0  0  0  0  0  0
    6.1485   -8.9306    0.0000 C   0  0  0  0  0  0  0  0  0  0  0  0
    5.4340   -8.5181    0.0000 C   0  0  0  0  0  0  0  0  0  0  0  0
    4.7195   -8.9306    0.0000 C   0  0  0  0  0  0  0  0  0  0  0  0
    4.7195   -9.7556    0.0000 C   0  0  0  0  0  0  0  0  0  0  0  0
  1  2  1  0  0  0  0
  2  3  1  0  0  0  0
 18  7  1  0  0  0  0
 19  8  1  0  0  0  0
 23  9  2  0  0  0  0
 27 10  1  0  0  0  0
  2  4  1  0  0  0  0
  4  5  1  0  0  0  0
  5  6  1  0  0  0  0
  6 11  1  0  0  0  0
 11  3  1  0  0  0  0
  6 12  1  0  0  0  0
  3 30  1  0  0  0  0
 12 13  1  0  0  0  0
 31 16  1  0  0  0  0
  5 14  1  0  0  0  0
  4 15  1  0  0  0  0
 17 21  2  0  0  0  0
 18 17  1  0  0  0  0
 19 18  2  0  0  0  0
 20 19  1  0  0  0  0
 22 20  2  0  0  0  0
 22 21  1  0  0  0  0
 25 22  1  0  0  0  0
 23 28  1  0  0  0  0
 24 23  1  0  0  0  0
 25 24  2  0  0  0  0
 26 25  1  0  0  0  0
 29 26  1  0  0  0  0
 27 32  2  0  0  0  0
 28 27  1  0  0  0  0
 29 28  2  0  0  0  0
 30 29  1  0  0  0  0
 31 30  2  0  0  0  0
 32 31  1  0  0  0  0
M  END
>  <cdx:fragmentId>
5

$$$$
