128.cdx
  Mrv1902 05222410192D          

 32 35  0  0  0  0            999 V2000
    6.0866   -7.1959    0.0000 C   0  0  0  0  0  0  0  0  0  0  0  0
    6.0866   -8.0209    0.0000 C   0  0  0  0  0  0  0  0  0  0  0  0
    6.8010   -8.4334    0.0000 C   0  0  0  0  0  0  0  0  0  0  0  0
    7.5155   -8.0209    0.0000 C   0  0  0  0  0  0  0  0  0  0  0  0
    7.5155   -7.1959    0.0000 C   0  0  0  0  0  0  0  0  0  0  0  0
    6.8010   -6.7834    0.0000 C   0  0  0  0  0  0  0  0  0  0  0  0
    8.2300   -8.4334    0.0000 C   0  0  0  0  0  0  0  0  0  0  0  0
    8.9445   -8.0209    0.0000 C   0  0  0  0  0  0  0  0  0  0  0  0
    8.9445   -7.1959    0.0000 C   0  0  0  0  0  0  0  0  0  0  0  0
    8.2300   -6.7834    0.0000 O   0  0  0  0  0  0  0  0  0  0  0  0
    5.3721   -6.7834    0.0000 O   0  0  0  0  0  0  0  0  0  0  0  0
    6.8010   -9.2584    0.0000 O   0  0  0  0  0  0  0  0  0  0  0  0
    9.6589   -6.7834    0.0000 C   0  0  0  0  0  0  0  0  0  0  0  0
   10.3734   -7.1959    0.0000 C   0  0  0  0  0  0  0  0  0  0  0  0
   11.0879   -6.7834    0.0000 C   0  0  0  0  0  0  0  0  0  0  0  0
   11.0879   -5.9584    0.0000 C   0  0  0  0  0  0  0  0  0  0  0  0
   10.3734   -5.5459    0.0000 C   0  0  0  0  0  0  0  0  0  0  0  0
    9.6589   -5.9584    0.0000 C   0  0  0  0  0  0  0  0  0  0  0  0
    8.2300   -9.2584    0.0000 O   0  0  0  0  0  0  0  0  0  0  0  0
    5.3721   -8.4334    0.0000 O   0  0  0  0  0  0  0  0  0  0  0  0
    6.0497   -4.7095    0.0000 C   0  0  2  0  0  0  0  0  0  0  0  0
    5.3359   -4.2957    0.0000 C   0  0  2  0  0  0  0  0  0  0  0  0
    4.6207   -4.7070    0.0000 C   0  0  1  0  0  0  0  0  0  0  0  0
    4.6193   -5.5320    0.0000 C   0  0  2  0  0  0  0  0  0  0  0  0
    5.3330   -5.9457    0.0000 C   0  0  1  0  0  0  0  0  0  0  0  0
    6.0482   -5.5345    0.0000 O   0  0  0  0  0  0  0  0  0  0  0  0
    6.7648   -4.2982    0.0000 C   0  0  0  0  0  0  0  0  0  0  0  0
    3.9070   -4.2932    0.0000 O   0  0  0  0  0  0  0  0  0  0  0  0
    5.3373   -3.4707    0.0000 O   0  0  0  0  0  0  0  0  0  0  0  0
    3.9041   -5.9432    0.0000 O   0  0  0  0  0  0  0  0  0  0  0  0
    6.7663   -3.4732    0.0000 O   0  0  0  0  0  0  0  0  0  0  0  0
    7.4786   -4.7119    0.0000 O   0  0  0  0  0  0  0  0  0  0  0  0
  1  2  2  0  0  0  0
  2  3  1  0  0  0  0
  3  4  2  0  0  0  0
  4  5  1  0  0  0  0
  5  6  2  0  0  0  0
  6  1  1  0  0  0  0
  4  7  1  0  0  0  0
  7  8  1  0  0  0  0
  8  9  2  0  0  0  0
  9 10  1  0  0  0  0
 10  5  1  0  0  0  0
  1 11  1  0  0  0  0
  3 12  1  0  0  0  0
  9 13  1  0  0  0  0
 13 14  2  0  0  0  0
 14 15  1  0  0  0  0
 15 16  2  0  0  0  0
 16 17  1  0  0  0  0
 17 18  2  0  0  0  0
 18 13  1  0  0  0  0
  7 19  2  0  0  0  0
  2 20  1  0  0  0  0
 21 22  1  0  0  0  0
 22 23  1  0  0  0  0
 23 24  1  0  0  0  0
 24 25  1  0  0  0  0
 25 26  1  0  0  0  0
 26 21  1  0  0  0  0
 21 27  1  1  0  0  0
 23 28  1  1  0  0  0
 22 29  1  6  0  0  0
 24 30  1  6  0  0  0
 27 31  1  0  0  0  0
 27 32  2  0  0  0  0
 25 11  1  1  0  0  0
M  END
>  <cdx:fragmentId>
5

$$$$
