12804.cdx
  Mrv1902 05222410192D          

 45 49  0  0  0  0            999 V2000
    2.3339   -9.5287    0.0000 C   0  0  2  0  0  0  0  0  0  0  0  0
    2.3339  -10.3537    0.0000 C   0  0  2  0  0  0  0  0  0  0  0  0
    3.0484  -10.7663    0.0000 C   0  0  1  0  0  0  0  0  0  0  0  0
    3.7628  -10.3537    0.0000 C   0  0  2  0  0  0  0  0  0  0  0  0
    3.7628   -9.5287    0.0000 C   0  0  1  0  0  0  0  0  0  0  0  0
    3.0484   -9.1162    0.0000 O   0  0  0  0  0  0  0  0  0  0  0  0
    4.4773   -9.1162    0.0000 O   0  0  0  0  0  0  0  0  0  0  0  0
    4.4773   -8.2912    0.0000 C   0  0  2  0  0  0  0  0  0  0  0  0
    3.7628   -7.8788    0.0000 C   0  0  1  0  0  0  0  0  0  0  0  0
    3.0484   -8.2912    0.0000 O   0  0  0  0  0  0  0  0  0  0  0  0
    5.1918   -7.8788    0.0000 C   0  0  1  0  0  0  0  0  0  0  0  0
    5.1918   -7.0537    0.0000 O   0  0  0  0  0  0  0  0  0  0  0  0
    4.4773   -6.6413    0.0000 C   0  0  1  0  0  0  0  0  0  0  0  0
    3.7628   -7.0537    0.0000 C   0  0  1  0  0  0  0  0  0  0  0  0
    5.9063   -8.2912    0.0000 O   0  0  0  0  0  0  0  0  0  0  0  0
    6.6207   -7.8788    0.0000 C   0  0  0  0  0  0  0  0  0  0  0  0
    6.6207   -7.0537    0.0000 C   0  0  0  0  0  0  0  0  0  0  0  0
    7.3352   -8.2912    0.0000 C   0  0  0  0  0  0  0  0  0  0  0  0
    8.0497   -7.8788    0.0000 C   0  0  0  0  0  0  0  0  0  0  0  0
    8.0497   -7.0537    0.0000 C   0  0  0  0  0  0  0  0  0  0  0  0
    7.3352   -6.6413    0.0000 C   0  0  0  0  0  0  0  0  0  0  0  0
    8.7641   -8.2912    0.0000 O   0  0  0  0  0  0  0  0  0  0  0  0
    9.4786   -7.8788    0.0000 C   0  0  0  0  0  0  0  0  0  0  0  0
    9.4786   -7.0537    0.0000 C   0  0  0  0  0  0  0  0  0  0  0  0
    8.7641   -6.6413    0.0000 C   0  0  0  0  0  0  0  0  0  0  0  0
   10.1931   -8.2912    0.0000 C   0  0  0  0  0  0  0  0  0  0  0  0
   10.9076   -7.8788    0.0000 C   0  0  0  0  0  0  0  0  0  0  0  0
   10.1931   -9.1162    0.0000 C   0  0  0  0  0  0  0  0  0  0  0  0
   10.9076   -9.5287    0.0000 C   0  0  0  0  0  0  0  0  0  0  0  0
   11.6220   -9.1162    0.0000 C   0  0  0  0  0  0  0  0  0  0  0  0
   11.6220   -8.2912    0.0000 C   0  0  0  0  0  0  0  0  0  0  0  0
    1.6194   -9.1162    0.0000 C   0  0  0  0  0  0  0  0  0  0  0  0
    1.6194   -8.2912    0.0000 O   0  0  0  0  0  0  0  0  0  0  0  0
    0.9050   -9.5287    0.0000 O   0  0  0  0  0  0  0  0  0  0  0  0
    4.4773   -5.8163    0.0000 C   0  0  0  0  0  0  0  0  0  0  0  0
    5.1918   -5.4037    0.0000 O   0  0  0  0  0  0  0  0  0  0  0  0
    3.7628   -5.4037    0.0000 O   0  0  0  0  0  0  0  0  0  0  0  0
    7.3352   -5.8163    0.0000 O   0  0  0  0  0  0  0  0  0  0  0  0
    8.7641   -5.8163    0.0000 O   0  0  0  0  0  0  0  0  0  0  0  0
   12.3365   -9.5287    0.0000 O   0  0  0  0  0  0  0  0  0  0  0  0
   10.9076  -10.3537    0.0000 O   0  0  0  0  0  0  0  0  0  0  0  0
    3.0484  -11.5913    0.0000 O   0  0  0  0  0  0  0  0  0  0  0  0
    1.6194  -10.7663    0.0000 O   0  0  0  0  0  0  0  0  0  0  0  0
    4.4773  -10.7663    0.0000 O   0  0  0  0  0  0  0  0  0  0  0  0
    3.0484   -6.6413    0.0000 O   0  0  0  0  0  0  0  0  0  0  0  0
  1  2  1  0  0  0  0
  2  3  1  0  0  0  0
  3  4  1  0  0  0  0
  4  5  1  0  0  0  0
  5  6  1  0  0  0  0
  6  1  1  0  0  0  0
  5  7  1  1  0  0  0
  8  7  1  6  0  0  0
  8  9  1  0  0  0  0
  9 10  1  1  0  0  0
  8 11  1  0  0  0  0
 11 12  1  0  0  0  0
 12 13  1  0  0  0  0
 13 14  1  0  0  0  0
 14  9  1  0  0  0  0
 11 15  1  1  0  0  0
 15 16  1  0  0  0  0
 16 17  2  0  0  0  0
 16 18  1  0  0  0  0
 18 19  2  0  0  0  0
 19 20  1  0  0  0  0
 20 21  2  0  0  0  0
 21 17  1  0  0  0  0
 19 22  1  0  0  0  0
 22 23  1  0  0  0  0
 23 24  2  0  0  0  0
 24 25  1  0  0  0  0
 25 20  1  0  0  0  0
 23 26  1  0  0  0  0
 26 27  1  0  0  0  0
 26 28  2  0  0  0  0
 28 29  1  0  0  0  0
 29 30  2  0  0  0  0
 30 31  1  0  0  0  0
 31 27  2  0  0  0  0
  1 32  1  1  0  0  0
 32 33  2  0  0  0  0
 32 34  1  0  0  0  0
 13 35  1  1  0  0  0
 35 36  1  0  0  0  0
 35 37  2  0  0  0  0
 21 38  1  0  0  0  0
 25 39  2  0  0  0  0
 30 40  1  0  0  0  0
 29 41  1  0  0  0  0
  3 42  1  1  0  0  0
  2 43  1  6  0  0  0
  4 44  1  6  0  0  0
 14 45  1  6  0  0  0
M  END
>  <cdx:fragmentId>
5

$$$$
