12800.cdx
  Mrv1902 05222410192D          

 12 14  0  0  0  0            999 V2000
    4.2671   -3.5334    0.0000 C   0  0  0  0  0  0  0  0  0  0  0  0
    3.5527   -3.9459    0.0000 C   0  0  0  0  0  0  0  0  0  0  0  0
    2.8382   -3.5334    0.0000 C   0  0  0  0  0  0  0  0  0  0  0  0
    2.8382   -2.7084    0.0000 C   0  0  0  0  0  0  0  0  0  0  0  0
    3.5527   -2.2959    0.0000 C   0  0  0  0  0  0  0  0  0  0  0  0
    4.2570   -1.9074    0.0000 C   0  0  0  0  0  0  0  0  0  0  0  0
    4.9511   -2.3139    0.0000 C   0  0  0  0  0  0  0  0  0  0  0  0
    4.9561   -3.1182    0.0000 C   0  0  0  0  0  0  0  0  0  0  0  0
    3.6961   -2.5804    0.0000 C   0  0  0  0  0  0  0  0  0  0  0  0
    4.2671   -2.7084    0.0000 C   0  0  0  0  0  0  0  0  0  0  0  0
    2.1237   -3.9459    0.0000 C   0  0  0  0  0  0  0  0  0  0  0  0
    4.6796   -4.2478    0.0000 C   0  0  0  0  0  0  0  0  0  0  0  0
  1  2  1  0  0  0  0
  2  3  1  0  0  0  0
  3  4  1  0  0  0  0
  4  5  1  0  0  0  0
  5  6  1  0  0  0  0
  6  7  1  0  0  0  0
  7  8  1  0  0  0  0
  1  8  1  0  0  0  0
  7  9  1  0  0  0  0
  3  9  1  0  0  0  0
  5 10  1  0  0  0  0
  1 10  1  0  0  0  0
  3 11  1  0  0  0  0
  1 12  1  0  0  0  0
M  END
>  <cdx:groupId>
40

>  <cdx:fragmentId>
5

$$$$
