1282.cdx
  Mrv1902 05222410182D          

 12 13  0  0  0  0            999 V2000
    5.9130   -6.9246    0.0000 H   0  0  0  0  0  0  0  0  0  0  0  0
    7.1168   -8.8745    0.0000 H   0  0  0  0  0  0  0  0  0  0  0  0
    5.0761   -8.1834    0.0000 C   0  0  0  0  0  0  0  0  0  0  0  0
    5.4605   -9.1114    0.0000 C   0  0  0  0  0  0  0  0  0  0  0  0
    7.8379   -9.2220    0.0000 C   0  0  0  0  0  0  0  0  0  0  0  0
    6.7489   -6.7225    0.0000 C   0  0  0  0  0  0  0  0  0  0  0  0
    7.1168   -8.0495    0.0000 C   0  0  1  0  0  0  0  0  0  0  0  0
    6.4963   -7.5079    0.0000 C   0  0  2  0  0  0  0  0  0  0  0  0
    5.8730   -8.3970    0.0000 C   0  0  0  0  0  0  0  0  0  0  0  0
    7.9065   -7.5006    0.0000 C   0  0  0  0  0  0  0  0  0  0  0  0
    8.5328   -7.9984    0.0000 C   0  0  0  0  0  0  0  0  0  0  0  0
    7.8379   -8.3970    0.0000 C   0  0  0  0  0  0  0  0  0  0  0  0
  8  1  1  6  0  0  0
  7  2  1  1  0  0  0
  9  3  1  0  0  0  0
  9  4  1  0  0  0  0
 12  5  1  0  0  0  0
  7  6  1  0  0  0  0
  8 10  1  0  0  0  0
  8  9  1  0  0  0  0
  7  9  1  0  0  0  0
  8  6  1  0  0  0  0
 11 10  1  0  0  0  0
 12 11  2  0  0  0  0
  7 12  1  0  0  0  0
M  END
>  <cdx:fragmentId>
841

$$$$
