12844.cdx
  Mrv1902 05222410252D          

 14 14  0  0  0  0            999 V2000
   10.7278   -4.0711    0.0000 C   0  0  0  0  0  0  0  0  0  0  0  0
   10.0133   -3.6586    0.0000 C   0  0  0  0  0  0  0  0  0  0  0  0
    9.2989   -4.0711    0.0000 C   0  0  0  0  0  0  0  0  0  0  0  0
    8.5844   -3.6586    0.0000 C   0  0  0  0  0  0  0  0  0  0  0  0
    7.8699   -4.0711    0.0000 C   0  0  0  0  0  0  0  0  0  0  0  0
    7.1554   -3.6586    0.0000 C   0  0  0  0  0  0  0  0  0  0  0  0
    6.4410   -4.0711    0.0000 C   0  0  0  0  0  0  0  0  0  0  0  0
    3.5831   -4.0711    0.0000 O   0  0  0  0  0  0  0  0  0  0  0  0
    5.0120   -4.0711    0.0000 O   0  0  0  0  0  0  0  0  0  0  0  0
    5.7265   -3.6586    0.0000 C   0  0  0  0  0  0  0  0  0  0  0  0
    5.7265   -2.8336    0.0000 C   0  0  0  0  0  0  0  0  0  0  0  0
    5.0120   -2.4211    0.0000 C   0  0  0  0  0  0  0  0  0  0  0  0
    4.2976   -2.8336    0.0000 C   0  0  0  0  0  0  0  0  0  0  0  0
    4.2976   -3.6586    0.0000 C   0  0  0  0  0  0  0  0  0  0  0  0
 10  7  1  0  0  0  0
  2  1  1  0  0  0  0
  3  2  1  0  0  0  0
  4  3  1  0  0  0  0
  5  4  1  0  0  0  0
  6  5  1  0  0  0  0
  7  6  1  0  0  0  0
 14  8  2  0  0  0  0
 14  9  1  0  0  0  0
 10  9  1  0  0  0  0
 11 10  1  0  0  0  0
 12 11  1  0  0  0  0
 13 12  1  0  0  0  0
 14 13  1  0  0  0  0
M  END
>  <cdx:fragmentId>
5

$$$$
