12859.cdx
  Mrv1902 05222410232D          

 24 25  0  0  0  0            999 V2000
   11.2472  -13.2303    0.0000 C   0  0  0  0  0  0  0  0  0  0  0  0
   10.5327  -12.8178    0.0000 C   0  0  0  0  0  0  0  0  0  0  0  0
   10.5327  -11.9928    0.0000 C   0  0  0  0  0  0  0  0  0  0  0  0
   11.2472  -11.5803    0.0000 C   0  0  0  0  0  0  0  0  0  0  0  0
   11.9617  -12.8178    0.0000 C   0  0  0  0  0  0  0  0  0  0  0  0
   11.9617  -11.9928    0.0000 C   0  0  0  0  0  0  0  0  0  0  0  0
   12.7463  -11.7379    0.0000 O   0  0  0  0  0  0  0  0  0  0  0  0
   13.2312  -12.4053    0.0000 C   0  0  0  0  0  0  0  0  0  0  0  0
   12.7463  -13.0728    0.0000 O   0  0  0  0  0  0  0  0  0  0  0  0
    1.9591  -12.8178    0.0000 C   0  0  0  0  0  0  0  0  0  0  0  0
    1.2446  -11.5803    0.0000 C   0  0  0  0  0  0  0  0  0  0  0  0
    1.9591  -11.9928    0.0000 C   0  0  0  0  0  0  0  0  0  0  0  0
    2.6736  -11.5803    0.0000 C   0  0  0  0  0  0  0  0  0  0  0  0
    3.3880  -11.9928    0.0000 N   0  0  0  0  0  0  0  0  0  0  0  0
    4.1025  -10.7553    0.0000 O   0  0  0  0  0  0  0  0  0  0  0  0
    9.8183  -11.5803    0.0000 C   0  0  0  0  0  0  0  0  0  0  0  0
    9.1038  -11.9928    0.0000 C   0  0  0  0  0  0  0  0  0  0  0  0
    8.3893  -11.5803    0.0000 C   0  0  0  0  0  0  0  0  0  0  0  0
    7.6749  -11.9928    0.0000 C   0  0  0  0  0  0  0  0  0  0  0  0
    6.9604  -11.5803    0.0000 C   0  0  0  0  0  0  0  0  0  0  0  0
    6.2459  -11.9928    0.0000 C   0  0  0  0  0  0  0  0  0  0  0  0
    5.5314  -11.5803    0.0000 C   0  0  0  0  0  0  0  0  0  0  0  0
    4.8170  -11.9928    0.0000 C   0  0  0  0  0  0  0  0  0  0  0  0
    4.1025  -11.5803    0.0000 C   0  0  0  0  0  0  0  0  0  0  0  0
 16  3  1  0  0  0  0
  4  6  2  0  0  0  0
  1  5  2  0  0  0  0
  2  1  1  0  0  0  0
  3  2  2  0  0  0  0
  4  3  1  0  0  0  0
  9  5  1  0  0  0  0
  6  5  1  0  0  0  0
  7  6  1  0  0  0  0
  8  7  1  0  0  0  0
  9  8  1  0  0  0  0
 14 13  1  0  0  0  0
 12 10  1  0  0  0  0
 12 11  1  0  0  0  0
 13 12  1  0  0  0  0
 24 14  1  0  0  0  0
 24 15  2  0  0  0  0
 17 16  2  0  0  0  0
 18 17  1  0  0  0  0
 19 18  1  0  0  0  0
 20 19  1  0  0  0  0
 21 20  2  0  0  0  0
 22 21  1  0  0  0  0
 23 22  2  0  0  0  0
 24 23  1  0  0  0  0
M  END
>  <cdx:groupId>
64960

>  <cdx:fragmentId>
64890

$$$$
