128558.cdx
  Mrv1902 05222410232D          

 27 30  0  0  0  0            999 V2000
    7.0111   -8.2391    0.0000 C   0  0  0  0  0  0  0  0  0  0  0  0
    7.7255   -7.8266    0.0000 N   0  0  0  0  0  0  0  0  0  0  0  0
    7.7255   -7.0016    0.0000 C   0  0  2  0  0  0  0  0  0  0  0  0
    7.0111   -6.5891    0.0000 C   0  0  2  0  0  0  0  0  0  0  0  0
    6.2966   -7.0016    0.0000 C   0  0  0  0  0  0  0  0  0  0  0  0
    5.5821   -6.5891    0.0000 C   0  0  0  0  0  0  0  0  0  0  0  0
    4.8677   -7.0016    0.0000 C   0  0  0  0  0  0  0  0  0  0  0  0
    4.8677   -7.8266    0.0000 C   0  0  0  0  0  0  0  0  0  0  0  0
    5.5821   -8.2391    0.0000 C   0  0  0  0  0  0  0  0  0  0  0  0
    6.2966   -7.8266    0.0000 C   0  0  0  0  0  0  0  0  0  0  0  0
    8.4400   -8.2391    0.0000 C   0  0  0  0  0  0  0  0  0  0  0  0
    9.1545   -7.8266    0.0000 C   0  0  0  0  0  0  0  0  0  0  0  0
    9.1545   -7.0016    0.0000 C   0  0  0  0  0  0  0  0  0  0  0  0
    9.8690   -6.5891    0.0000 C   0  0  0  0  0  0  0  0  0  0  0  0
    9.8690   -5.7641    0.0000 C   0  0  0  0  0  0  0  0  0  0  0  0
    9.1545   -5.3516    0.0000 C   0  0  0  0  0  0  0  0  0  0  0  0
    8.4400   -5.7641    0.0000 C   0  0  0  0  0  0  0  0  0  0  0  0
    8.4400   -6.5891    0.0000 C   0  0  0  0  0  0  0  0  0  0  0  0
    4.1532   -8.2391    0.0000 O   0  0  0  0  0  0  0  0  0  0  0  0
    7.0111   -5.7641    0.0000 C   0  0  0  0  0  0  0  0  0  0  0  0
    5.5821   -9.0641    0.0000 O   0  0  0  0  0  0  0  0  0  0  0  0
    4.8677   -9.4766    0.0000 C   0  0  0  0  0  0  0  0  0  0  0  0
   10.5834   -5.3516    0.0000 O   0  0  0  0  0  0  0  0  0  0  0  0
   11.2979   -5.7641    0.0000 C   0  0  0  0  0  0  0  0  0  0  0  0
    9.1545   -4.5266    0.0000 O   0  0  0  0  0  0  0  0  0  0  0  0
    9.8690   -4.1141    0.0000 C   0  0  0  0  0  0  0  0  0  0  0  0
    7.7255   -6.1766    0.0000 H   0  0  0  0  0  0  0  0  0  0  0  0
  1  2  1  0  0  0  0
  2  3  1  0  0  0  0
  3  4  1  0  0  0  0
  4  5  1  0  0  0  0
  5  6  1  0  0  0  0
  6  7  2  0  0  0  0
  7  8  1  0  0  0  0
  8  9  2  0  0  0  0
  9 10  1  0  0  0  0
  1 10  1  0  0  0  0
  5 10  2  0  0  0  0
 11 12  1  0  0  0  0
 12 13  1  0  0  0  0
 13 14  1  0  0  0  0
 14 15  2  0  0  0  0
 15 16  1  0  0  0  0
 16 17  2  0  0  0  0
 17 18  1  0  0  0  0
 13 18  2  0  0  0  0
 11  2  1  0  0  0  0
 18  3  1  0  0  0  0
  8 19  1  0  0  0  0
  4 20  1  6  0  0  0
 21 22  1  0  0  0  0
  9 21  1  0  0  0  0
 23 24  1  0  0  0  0
 15 23  1  0  0  0  0
 25 26  1  0  0  0  0
 16 25  1  0  0  0  0
  3 27  1  1  0  0  0
M  END
>  <cdx:fragmentId>
6318

$$$$
