1285.cdx
  Mrv1902 05222410202D          

 18 19  0  0  0  0            999 V2000
    5.0358   -6.7650    0.0000 C   0  0  0  0  0  0  0  0  0  0  0  0
    5.0358   -7.5900    0.0000 C   0  0  0  0  0  0  0  0  0  0  0  0
    5.7502   -8.0025    0.0000 C   0  0  1  0  0  0  0  0  0  0  0  0
    6.4647   -7.5900    0.0000 C   0  0  0  0  0  0  0  0  0  0  0  0
    6.4647   -6.7650    0.0000 C   0  0  1  0  0  0  0  0  0  0  0  0
    5.7502   -6.3525    0.0000 C   0  0  2  0  0  0  0  0  0  0  0  0
    7.1792   -8.0025    0.0000 C   0  0  0  0  0  0  0  0  0  0  0  0
    7.8937   -7.5900    0.0000 C   0  0  2  0  0  0  0  0  0  0  0  0
    7.8937   -6.7650    0.0000 C   0  0  0  0  0  0  0  0  0  0  0  0
    7.1792   -6.3525    0.0000 C   0  0  0  0  0  0  0  0  0  0  0  0
    6.4647   -5.9400    0.0000 O   0  0  0  0  0  0  0  0  0  0  0  0
    5.7502   -8.8275    0.0000 C   0  0  0  0  0  0  0  0  0  0  0  0
    7.1792   -7.1775    0.0000 C   0  0  0  0  0  0  0  0  0  0  0  0
    8.6081   -8.0025    0.0000 C   0  0  0  0  0  0  0  0  0  0  0  0
    6.4647   -8.4150    0.0000 O   0  0  0  0  0  0  0  0  0  0  0  0
    8.6081   -6.3525    0.0000 O   0  0  0  0  0  0  0  0  0  0  0  0
    9.3226   -7.5900    0.0000 C   0  0  0  0  0  0  0  0  0  0  0  0
    8.6081   -8.8275    0.0000 C   0  0  0  0  0  0  0  0  0  0  0  0
  1  2  1  0  0  0  0
  2  3  1  0  0  0  0
  3  4  1  0  0  0  0
  5  6  1  0  0  0  0
  6  1  1  0  0  0  0
  4  7  1  0  0  0  0
  7  8  1  0  0  0  0
  8  9  1  0  0  0  0
  9 10  1  0  0  0  0
 10  5  1  0  0  0  0
  6 11  1  1  0  0  0
  3 12  1  1  0  0  0
  5 13  1  1  0  0  0
  5 11  1  6  0  0  0
  8 14  1  6  0  0  0
  4 15  2  0  0  0  0
  9 16  2  0  0  0  0
 14 17  1  0  0  0  0
 14 18  1  0  0  0  0
M  END
>  <cdx:fragmentId>
5

$$$$
