12867.cdx
  Mrv1902 05222410222D          

 16 16  0  0  0  0            999 V2000
    6.9946   -4.3527    0.0000 C   0  0  0  0  0  0  0  0  0  0  0  0
    7.7091   -4.7652    0.0000 C   0  0  0  0  0  0  0  0  0  0  0  0
    7.7091   -5.5902    0.0000 C   0  0  0  0  0  0  0  0  0  0  0  0
    6.9946   -6.0027    0.0000 C   0  0  0  0  0  0  0  0  0  0  0  0
    6.2802   -5.5902    0.0000 C   0  0  0  0  0  0  0  0  0  0  0  0
    6.2802   -4.7652    0.0000 C   0  0  0  0  0  0  0  0  0  0  0  0
    6.9946   -3.5277    0.0000 O   0  0  0  0  0  0  0  0  0  0  0  0
    6.9946   -6.8277    0.0000 O   0  0  0  0  0  0  0  0  0  0  0  0
    5.5657   -4.3527    0.0000 C   0  0  0  0  0  0  0  0  0  0  0  0
    4.8512   -3.9402    0.0000 C   0  0  0  0  0  0  0  0  0  0  0  0
    5.9782   -3.6382    0.0000 C   0  0  0  0  0  0  0  0  0  0  0  0
    5.1532   -5.0671    0.0000 C   0  0  0  0  0  0  0  0  0  0  0  0
    8.4236   -4.3527    0.0000 C   0  0  0  0  0  0  0  0  0  0  0  0
    8.0111   -3.6382    0.0000 C   0  0  0  0  0  0  0  0  0  0  0  0
    9.1380   -3.9402    0.0000 C   0  0  0  0  0  0  0  0  0  0  0  0
    8.8361   -5.0671    0.0000 C   0  0  0  0  0  0  0  0  0  0  0  0
  1  2  1  0  0  0  0
  2  3  2  0  0  0  0
  3  4  1  0  0  0  0
  4  5  1  0  0  0  0
  5  6  2  0  0  0  0
  1  6  1  0  0  0  0
  1  7  2  0  0  0  0
  4  8  2  0  0  0  0
  9 10  1  0  0  0  0
  9 11  1  0  0  0  0
  9 12  1  0  0  0  0
  6  9  1  0  0  0  0
 13 14  1  0  0  0  0
 13 15  1  0  0  0  0
 13 16  1  0  0  0  0
  2 13  1  0  0  0  0
M  END
>  <cdx:fragmentId>
5

$$$$
