12866.cdx
  Mrv1902 05222410222D          

 36 39  0  0  0  0            999 V2000
    1.8246   -5.1637    0.0000 C   0  0  0  0  0  0  0  0  0  0  0  0
    1.4121   -5.8781    0.0000 C   0  0  0  0  0  0  0  0  0  0  0  0
    1.8246   -6.5926    0.0000 C   0  0  0  0  0  0  0  0  0  0  0  0
    2.6496   -6.5926    0.0000 C   0  0  0  0  0  0  0  0  0  0  0  0
    3.0621   -5.8781    0.0000 C   0  0  0  0  0  0  0  0  0  0  0  0
    2.6496   -5.1637    0.0000 C   0  0  0  0  0  0  0  0  0  0  0  0
    1.4121   -4.4492    0.0000 O   0  0  0  0  0  0  0  0  0  0  0  0
    0.5871   -5.8781    0.0000 O   0  0  0  0  0  0  0  0  0  0  0  0
    3.8871   -5.8781    0.0000 C   0  0  1  0  0  0  0  0  0  0  0  0
    4.7121   -5.8781    0.0000 C   0  0  2  0  0  0  0  0  0  0  0  0
    4.2996   -5.1637    0.0000 O   0  0  0  0  0  0  0  0  0  0  0  0
    5.1246   -5.1637    0.0000 C   0  0  0  0  0  0  0  0  0  0  0  0
    5.1246   -6.5926    0.0000 C   0  0  0  0  0  0  0  0  0  0  0  0
    5.1175   -7.4176    0.0000 C   0  0  0  0  0  0  0  0  0  0  0  0
    5.8284   -7.8362    0.0000 C   0  0  0  0  0  0  0  0  0  0  0  0
    6.5464   -7.4299    0.0000 C   0  0  0  0  0  0  0  0  0  0  0  0
    6.5535   -6.6049    0.0000 C   0  0  0  0  0  0  0  0  0  0  0  0
    5.8426   -6.1863    0.0000 C   0  0  0  0  0  0  0  0  0  0  0  0
    7.9753   -6.6049    0.0000 C   0  0  0  0  0  0  0  0  0  0  0  0
    7.2573   -6.1863    0.0000 C   0  0  0  0  0  0  0  0  0  0  0  0
    9.4042   -6.6049    0.0000 N   0  0  0  0  0  0  0  0  0  0  0  0
    8.6897   -6.1924    0.0000 C   0  0  0  0  0  0  0  0  0  0  0  0
   10.8331   -6.6049    0.0000 C   0  0  0  0  0  0  0  0  0  0  0  0
   10.1186   -6.1924    0.0000 C   0  0  0  0  0  0  0  0  0  0  0  0
   12.2620   -6.6049    0.0000 C   0  0  0  0  0  0  0  0  0  0  0  0
   11.5475   -6.1924    0.0000 C   0  0  0  0  0  0  0  0  0  0  0  0
   12.9764   -6.1924    0.0000 C   0  0  0  0  0  0  0  0  0  0  0  0
   12.9764   -5.3675    0.0000 C   0  0  0  0  0  0  0  0  0  0  0  0
   12.2620   -4.9550    0.0000 C   0  0  0  0  0  0  0  0  0  0  0  0
   11.5475   -5.3675    0.0000 C   0  0  0  0  0  0  0  0  0  0  0  0
    5.8284   -8.6612    0.0000 O   0  0  0  0  0  0  0  0  0  0  0  0
    4.4030   -7.8301    0.0000 O   0  0  0  0  0  0  0  0  0  0  0  0
    8.6897   -5.3674    0.0000 O   0  0  0  0  0  0  0  0  0  0  0  0
   13.6909   -4.9550    0.0000 O   0  0  0  0  0  0  0  0  0  0  0  0
    0.5871   -4.4492    0.0000 C   0  0  0  0  0  0  0  0  0  0  0  0
    6.5429   -9.0737    0.0000 C   0  0  0  0  0  0  0  0  0  0  0  0
  1  2  2  0  0  0  0
  2  3  1  0  0  0  0
  3  4  2  0  0  0  0
  4  5  1  0  0  0  0
  5  6  2  0  0  0  0
  6  1  1  0  0  0  0
  1  7  1  0  0  0  0
  2  8  1  0  0  0  0
  9  5  1  6  0  0  0
  9 10  1  0  0  0  0
  9 11  1  0  0  0  0
 11 12  1  0  0  0  0
 12 10  1  0  0  0  0
 10 13  1  6  0  0  0
 13 14  2  0  0  0  0
 14 15  1  0  0  0  0
 15 16  2  0  0  0  0
 16 17  1  0  0  0  0
 17 18  2  0  0  0  0
 18 13  1  0  0  0  0
 19 20  2  0  0  0  0
 20 17  1  0  0  0  0
 21 22  1  0  0  0  0
 22 19  1  0  0  0  0
 23 24  1  0  0  0  0
 24 21  1  0  0  0  0
 25 26  2  0  0  0  0
 26 23  1  0  0  0  0
 25 27  1  0  0  0  0
 27 28  2  0  0  0  0
 28 29  1  0  0  0  0
 29 30  2  0  0  0  0
 30 26  1  0  0  0  0
 15 31  1  0  0  0  0
 14 32  1  0  0  0  0
 22 33  2  0  0  0  0
 28 34  1  0  0  0  0
  7 35  1  0  0  0  0
 31 36  1  0  0  0  0
M  END
>  <cdx:fragmentId>
5

$$$$
