12860.cdx
  Mrv1902 05222410212D          

 15 15  0  0  0  0            999 V2000
    4.9252   -2.6047    0.0000 C   0  0  0  0  0  0  0  0  0  0  0  0
    4.2108   -3.0172    0.0000 C   0  0  0  0  0  0  0  0  0  0  0  0
    4.2108   -3.8422    0.0000 C   0  0  0  0  0  0  0  0  0  0  0  0
    4.9252   -4.2547    0.0000 C   0  0  0  0  0  0  0  0  0  0  0  0
    5.6397   -3.8422    0.0000 C   0  0  0  0  0  0  0  0  0  0  0  0
    5.6397   -3.0172    0.0000 C   0  0  0  0  0  0  0  0  0  0  0  0
    6.3542   -4.2547    0.0000 C   0  0  0  0  0  0  0  0  0  0  0  0
    6.3542   -5.0797    0.0000 C   0  0  0  0  0  0  0  0  0  0  0  0
    7.0687   -3.8422    0.0000 C   0  0  0  0  0  0  0  0  0  0  0  0
    3.4963   -4.2547    0.0000 C   0  0  0  0  0  0  0  0  0  0  0  0
    3.4963   -5.0797    0.0000 C   0  0  0  0  0  0  0  0  0  0  0  0
    2.7818   -3.8422    0.0000 C   0  0  0  0  0  0  0  0  0  0  0  0
    4.9252   -1.7797    0.0000 C   0  0  0  0  0  0  0  0  0  0  0  0
    5.6397   -1.3672    0.0000 C   0  0  0  0  0  0  0  0  0  0  0  0
    4.2108   -1.3672    0.0000 C   0  0  0  0  0  0  0  0  0  0  0  0
  1  2  1  0  0  0  0
  2  3  2  0  0  0  0
  3  4  1  0  0  0  0
  4  5  2  0  0  0  0
  5  6  1  0  0  0  0
  1  6  2  0  0  0  0
  7  8  1  0  0  0  0
  7  9  1  0  0  0  0
  5  7  1  0  0  0  0
 10 11  1  0  0  0  0
 10 12  1  0  0  0  0
  3 10  1  0  0  0  0
 13 14  1  0  0  0  0
 13 15  1  0  0  0  0
  1 13  1  0  0  0  0
M  END
>  <cdx:groupId>
47

>  <cdx:fragmentId>
5

$$$$
