12863.cdx
  Mrv1902 05222410212D          

 72 79  0  0  0  0            999 V2000
   12.2380   -8.9925    0.0000 C   0  0  0  0  0  0  0  0  0  0  0  0
   12.2380   -9.8175    0.0000 C   0  0  1  0  0  0  0  0  0  0  0  0
   12.9525  -10.2300    0.0000 C   0  0  0  0  0  0  0  0  0  0  0  0
   13.6670   -9.8175    0.0000 C   0  0  1  0  0  0  0  0  0  0  0  0
   13.6670   -8.9925    0.0000 C   0  0  2  0  0  0  0  0  0  0  0  0
   12.9525   -8.5800    0.0000 C   0  0  0  0  0  0  0  0  0  0  0  0
   14.3814  -10.2300    0.0000 C   0  0  0  0  0  0  0  0  0  0  0  0
   15.0959   -9.8175    0.0000 C   0  0  0  0  0  0  0  0  0  0  0  0
   15.0959   -8.9925    0.0000 C   0  0  2  0  0  0  0  0  0  0  0  0
   14.3814   -8.5800    0.0000 C   0  0  2  0  0  0  0  0  0  0  0  0
   15.8104   -8.5800    0.0000 C   0  0  1  0  0  0  0  0  0  0  0  0
   15.8104   -7.7550    0.0000 C   0  0  2  0  0  0  0  0  0  0  0  0
   15.0959   -7.3425    0.0000 C   0  0  0  0  0  0  0  0  0  0  0  0
   14.3814   -7.7550    0.0000 C   0  0  0  0  0  0  0  0  0  0  0  0
   16.5950   -8.8349    0.0000 C   0  0  0  0  0  0  0  0  0  0  0  0
   17.0799   -8.1675    0.0000 C   0  0  1  0  0  0  0  0  0  0  0  0
   16.5950   -7.5001    0.0000 C   0  0  2  0  0  0  0  0  0  0  0  0
   17.8645   -7.9126    0.0000 O   0  0  0  0  0  0  0  0  0  0  0  0
   17.8645   -7.0876    0.0000 C   0  0  1  0  0  0  0  0  0  0  0  0
   17.0799   -6.8326    0.0000 C   0  0  1  0  0  0  0  0  0  0  0  0
   16.8250   -6.0480    0.0000 C   0  0  0  0  0  0  0  0  0  0  0  0
   18.5320   -6.6026    0.0000 C   0  0  0  0  0  0  0  0  0  0  0  0
   18.4458   -5.7822    0.0000 C   0  0  0  0  0  0  0  0  0  0  0  0
   19.1132   -5.2972    0.0000 C   0  0  0  0  0  0  0  0  0  0  0  0
   19.0270   -4.4768    0.0000 C   0  0  0  0  0  0  0  0  0  0  0  0
   19.8669   -5.6328    0.0000 C   0  0  0  0  0  0  0  0  0  0  0  0
   19.6944   -3.9918    0.0000 N   0  0  0  0  0  0  0  0  0  0  0  0
   20.4481   -4.3274    0.0000 C   0  0  0  0  0  0  0  0  0  0  0  0
   21.1155   -3.8425    0.0000 O   0  0  0  0  0  0  0  0  0  0  0  0
   20.5343   -5.1479    0.0000 C   0  0  0  0  0  0  0  0  0  0  0  0
   13.6670   -8.1675    0.0000 C   0  0  0  0  0  0  0  0  0  0  0  0
   14.3814   -9.4050    0.0000 H   0  0  0  0  0  0  0  0  0  0  0  0
   15.0959   -8.1675    0.0000 H   0  0  0  0  0  0  0  0  0  0  0  0
   15.8104   -9.4050    0.0000 H   0  0  0  0  0  0  0  0  0  0  0  0
   15.8104   -6.9300    0.0000 C   0  0  0  0  0  0  0  0  0  0  0  0
   13.6670  -10.6425    0.0000 H   0  0  0  0  0  0  0  0  0  0  0  0
   16.1825   -6.7856    0.0000 H   0  0  0  0  0  0  0  0  0  0  0  0
   11.5236  -10.2300    0.0000 O   0  0  0  0  0  0  0  0  0  0  0  0
   10.8091   -9.8175    0.0000 C   0  0  2  0  0  0  0  0  0  0  0  0
   10.8091   -8.9925    0.0000 O   0  0  0  0  0  0  0  0  0  0  0  0
   10.0946   -8.5800    0.0000 C   0  0  1  0  0  0  0  0  0  0  0  0
    9.3801   -8.9925    0.0000 C   0  0  2  0  0  0  0  0  0  0  0  0
    9.3801   -9.8175    0.0000 C   0  0  1  0  0  0  0  0  0  0  0  0
   10.0946  -10.2300    0.0000 C   0  0  1  0  0  0  0  0  0  0  0  0
   10.0946   -7.7550    0.0000 C   0  0  0  0  0  0  0  0  0  0  0  0
    8.6657  -10.2300    0.0000 O   0  0  0  0  0  0  0  0  0  0  0  0
    8.6657   -8.5800    0.0000 O   0  0  0  0  0  0  0  0  0  0  0  0
   10.0946  -11.0550    0.0000 O   0  0  0  0  0  0  0  0  0  0  0  0
    9.3801   -7.3425    0.0000 O   0  0  0  0  0  0  0  0  0  0  0  0
    7.8407   -8.5852    0.0000 C   0  0  2  0  0  0  0  0  0  0  0  0
    7.4237   -7.8733    0.0000 O   0  0  0  0  0  0  0  0  0  0  0  0
    6.5987   -7.8785    0.0000 C   0  0  1  0  0  0  0  0  0  0  0  0
    6.1907   -8.5955    0.0000 C   0  0  2  0  0  0  0  0  0  0  0  0
    6.6077   -9.3074    0.0000 C   0  0  1  0  0  0  0  0  0  0  0  0
    7.4327   -9.3022    0.0000 C   0  0  1  0  0  0  0  0  0  0  0  0
    6.1818   -7.1666    0.0000 C   0  0  0  0  0  0  0  0  0  0  0  0
    6.1997  -10.0245    0.0000 O   0  0  0  0  0  0  0  0  0  0  0  0
    5.3657   -8.6007    0.0000 O   0  0  0  0  0  0  0  0  0  0  0  0
    5.3568   -7.1718    0.0000 O   0  0  0  0  0  0  0  0  0  0  0  0
    7.8497  -10.0141    0.0000 O   0  0  0  0  0  0  0  0  0  0  0  0
    9.6906  -11.7743    0.0000 C   0  0  2  0  0  0  0  0  0  0  0  0
    8.8657  -11.7841    0.0000 O   0  0  0  0  0  0  0  0  0  0  0  0
    8.4617  -12.5035    0.0000 C   0  0  2  0  0  0  0  0  0  0  0  0
    8.8827  -13.2130    0.0000 C   0  0  1  0  0  0  0  0  0  0  0  0
    9.7076  -13.2032    0.0000 C   0  0  2  0  0  0  0  0  0  0  0  0
   10.1116  -12.4838    0.0000 C   0  0  1  0  0  0  0  0  0  0  0  0
    8.4787  -13.9323    0.0000 O   0  0  0  0  0  0  0  0  0  0  0  0
   10.1286  -13.9127    0.0000 O   0  0  0  0  0  0  0  0  0  0  0  0
   10.9366  -12.4740    0.0000 O   0  0  0  0  0  0  0  0  0  0  0  0
    7.6368  -12.5133    0.0000 C   0  0  0  0  0  0  0  0  0  0  0  0
   18.6614   -7.3011    0.0000 O   0  0  0  0  0  0  0  0  0  0  0  0
   19.2448   -6.7177    0.0000 C   0  0  0  0  0  0  0  0  0  0  0  0
  1  2  1  0  0  0  0
  2  3  1  0  0  0  0
  3  4  1  0  0  0  0
  4  5  1  0  0  0  0
  5  6  1  0  0  0  0
  6  1  1  0  0  0  0
  4  7  1  0  0  0  0
  7  8  1  0  0  0  0
  8  9  1  0  0  0  0
  9 10  1  0  0  0  0
 10  5  1  0  0  0  0
  9 11  1  0  0  0  0
 11 12  1  0  0  0  0
 12 13  1  0  0  0  0
 13 14  1  0  0  0  0
 14 10  1  0  0  0  0
 11 15  1  0  0  0  0
 15 16  1  0  0  0  0
 16 17  1  0  0  0  0
 17 12  1  0  0  0  0
 16 18  1  1  0  0  0
 18 19  1  0  0  0  0
 19 20  1  0  0  0  0
 20 17  1  0  0  0  0
 20 21  1  6  0  0  0
 19 22  1  0  0  0  0
 22 23  1  0  0  0  0
 23 24  1  0  0  0  0
 24 25  1  0  0  0  0
 24 26  1  0  0  0  0
 25 27  1  0  0  0  0
 27 28  1  0  0  0  0
 28 29  2  0  0  0  0
 28 30  1  0  0  0  0
  5 31  1  1  0  0  0
 10 32  1  6  0  0  0
  9 33  1  1  0  0  0
 11 34  1  6  0  0  0
 12 35  1  1  0  0  0
  4 36  1  6  0  0  0
 17 37  1  6  0  0  0
  2 38  1  1  0  0  0
 39 38  1  1  0  0  0
 39 40  1  0  0  0  0
 40 41  1  0  0  0  0
 41 42  1  0  0  0  0
 42 43  1  0  0  0  0
 43 44  1  0  0  0  0
 44 39  1  0  0  0  0
 41 45  1  1  0  0  0
 43 46  1  1  0  0  0
 42 47  1  6  0  0  0
 44 48  1  6  0  0  0
 45 49  1  0  0  0  0
 50 47  1  1  0  0  0
 50 51  1  0  0  0  0
 51 52  1  0  0  0  0
 52 53  1  0  0  0  0
 53 54  1  0  0  0  0
 54 55  1  0  0  0  0
 55 50  1  0  0  0  0
 52 56  1  1  0  0  0
 54 57  1  1  0  0  0
 53 58  1  6  0  0  0
 56 59  1  0  0  0  0
 55 60  1  6  0  0  0
 61 48  1  1  0  0  0
 61 62  1  0  0  0  0
 62 63  1  0  0  0  0
 63 64  1  0  0  0  0
 64 65  1  0  0  0  0
 65 66  1  0  0  0  0
 66 61  1  0  0  0  0
 64 67  1  1  0  0  0
 65 68  1  6  0  0  0
 66 69  1  6  0  0  0
 63 70  1  6  0  0  0
 19 71  1  6  0  0  0
 71 72  1  0  0  0  0
M  END
>  <cdx:fragmentId>
221

$$$$
