12865.cdx
  Mrv1902 05222410232D          

 46 50  0  0  0  0            999 V2000
    2.1277   -4.9088    0.0000 C   0  0  0  0  0  0  0  0  0  0  0  0
    2.1277   -5.7338    0.0000 C   0  0  0  0  0  0  0  0  0  0  0  0
    2.8421   -6.1463    0.0000 C   0  0  0  0  0  0  0  0  0  0  0  0
    3.5566   -5.7338    0.0000 C   0  0  0  0  0  0  0  0  0  0  0  0
    3.5566   -4.9088    0.0000 C   0  0  0  0  0  0  0  0  0  0  0  0
    2.8421   -4.4962    0.0000 C   0  0  0  0  0  0  0  0  0  0  0  0
    1.4132   -4.4962    0.0000 O   0  0  0  0  0  0  0  0  0  0  0  0
    1.4132   -6.1463    0.0000 O   0  0  0  0  0  0  0  0  0  0  0  0
    4.9855   -4.9088    0.0000 C   0  0  2  0  0  0  0  0  0  0  0  0
    4.2711   -4.4962    0.0000 C   0  0  2  0  0  0  0  0  0  0  0  0
    6.4145   -4.9088    0.0000 N   0  0  0  0  0  0  0  0  0  0  0  0
    5.7000   -4.4962    0.0000 C   0  0  0  0  0  0  0  0  0  0  0  0
    7.8434   -4.9088    0.0000 C   0  0  0  0  0  0  0  0  0  0  0  0
    7.1290   -4.4962    0.0000 C   0  0  0  0  0  0  0  0  0  0  0  0
    9.2724   -4.9088    0.0000 C   0  0  0  0  0  0  0  0  0  0  0  0
    8.5579   -4.4962    0.0000 C   0  0  0  0  0  0  0  0  0  0  0  0
    9.9868   -4.4962    0.0000 C   0  0  0  0  0  0  0  0  0  0  0  0
    9.9868   -3.6713    0.0000 C   0  0  0  0  0  0  0  0  0  0  0  0
    9.2724   -3.2588    0.0000 C   0  0  0  0  0  0  0  0  0  0  0  0
    8.5579   -3.6713    0.0000 C   0  0  0  0  0  0  0  0  0  0  0  0
    4.4583   -7.0331    0.0000 C   0  0  0  0  0  0  0  0  0  0  0  0
    4.4583   -7.8581    0.0000 C   0  0  0  0  0  0  0  0  0  0  0  0
    5.1727   -8.2706    0.0000 C   0  0  0  0  0  0  0  0  0  0  0  0
    5.8872   -7.8581    0.0000 C   0  0  0  0  0  0  0  0  0  0  0  0
    5.8872   -7.0331    0.0000 C   0  0  0  0  0  0  0  0  0  0  0  0
    5.1727   -6.6206    0.0000 C   0  0  0  0  0  0  0  0  0  0  0  0
    7.3162   -7.0331    0.0000 C   0  0  0  0  0  0  0  0  0  0  0  0
    6.6017   -6.6206    0.0000 C   0  0  0  0  0  0  0  0  0  0  0  0
    8.7451   -7.0331    0.0000 N   0  0  0  0  0  0  0  0  0  0  0  0
    8.0306   -6.6206    0.0000 C   0  0  0  0  0  0  0  0  0  0  0  0
   10.1740   -7.0331    0.0000 C   0  0  0  0  0  0  0  0  0  0  0  0
    9.4596   -6.6206    0.0000 C   0  0  0  0  0  0  0  0  0  0  0  0
   11.6030   -7.0331    0.0000 C   0  0  0  0  0  0  0  0  0  0  0  0
   10.8885   -6.6206    0.0000 C   0  0  0  0  0  0  0  0  0  0  0  0
   12.3175   -6.6206    0.0000 C   0  0  0  0  0  0  0  0  0  0  0  0
   12.3175   -5.7956    0.0000 C   0  0  0  0  0  0  0  0  0  0  0  0
   11.6030   -5.3831    0.0000 C   0  0  0  0  0  0  0  0  0  0  0  0
   10.8885   -5.7956    0.0000 C   0  0  0  0  0  0  0  0  0  0  0  0
    4.2711   -3.6713    0.0000 O   0  0  0  0  0  0  0  0  0  0  0  0
    5.7000   -3.6713    0.0000 O   0  0  0  0  0  0  0  0  0  0  0  0
    8.0306   -5.7956    0.0000 O   0  0  0  0  0  0  0  0  0  0  0  0
   13.0319   -5.3831    0.0000 O   0  0  0  0  0  0  0  0  0  0  0  0
    5.1727   -9.0956    0.0000 O   0  0  0  0  0  0  0  0  0  0  0  0
    3.7438   -8.2706    0.0000 O   0  0  0  0  0  0  0  0  0  0  0  0
    0.6987   -4.9087    0.0000 C   0  0  0  0  0  0  0  0  0  0  0  0
    5.8872   -9.5081    0.0000 C   0  0  0  0  0  0  0  0  0  0  0  0
  1  2  2  0  0  0  0
  2  3  1  0  0  0  0
  3  4  2  0  0  0  0
  4  5  1  0  0  0  0
  5  6  2  0  0  0  0
  6  1  1  0  0  0  0
  1  7  1  0  0  0  0
  2  8  1  0  0  0  0
  9 10  1  0  0  0  0
 10  5  1  1  0  0  0
 11 12  1  0  0  0  0
  9 12  1  6  0  0  0
 13 14  1  0  0  0  0
 14 11  1  0  0  0  0
 15 16  2  0  0  0  0
 16 13  1  0  0  0  0
 15 17  1  0  0  0  0
 17 18  2  0  0  0  0
 18 19  1  0  0  0  0
 19 20  2  0  0  0  0
 20 16  1  0  0  0  0
 21 22  2  0  0  0  0
 22 23  1  0  0  0  0
 23 24  2  0  0  0  0
 24 25  1  0  0  0  0
 25 26  2  0  0  0  0
 26 21  1  0  0  0  0
 27 28  2  0  0  0  0
 28 25  1  0  0  0  0
 29 30  1  0  0  0  0
 30 27  1  0  0  0  0
 31 32  1  0  0  0  0
 32 29  1  0  0  0  0
 33 34  2  0  0  0  0
 34 31  1  0  0  0  0
 33 35  1  0  0  0  0
 35 36  2  0  0  0  0
 36 37  1  0  0  0  0
 37 38  2  0  0  0  0
 38 34  1  0  0  0  0
 10 39  1  0  0  0  0
 12 40  2  0  0  0  0
 30 41  2  0  0  0  0
 36 42  1  0  0  0  0
 23 43  1  0  0  0  0
 22 44  1  0  0  0  0
  9 21  1  0  0  0  0
 18 42  1  0  0  0  0
  7 45  1  0  0  0  0
 43 46  1  0  0  0  0
M  END
>  <cdx:fragmentId>
92

$$$$
