12868.cdx
  Mrv1902 05222410232D          

 65 71  0  0  0  0            999 V2000
    2.2980   -7.7635    0.0000 C   0  0  0  0  0  0  0  0  0  0  0  0
    2.2980   -8.5867    0.0000 N   0  0  0  0  0  0  0  0  0  0  0  0
    3.0108   -8.9983    0.0000 C   0  0  0  0  0  0  0  0  0  0  0  0
    3.7237   -8.5867    0.0000 C   0  0  0  0  0  0  0  0  0  0  0  0
    3.7237   -7.7635    0.0000 O   0  0  0  0  0  0  0  0  0  0  0  0
    4.4366   -8.9983    0.0000 N   0  0  0  0  0  0  0  0  0  0  0  0
    5.1495   -8.5867    0.0000 C   0  0  0  0  0  0  0  0  0  0  0  0
    5.1495   -7.7635    0.0000 C   0  0  0  0  0  0  0  0  0  0  0  0
    5.8624   -8.9983    0.0000 C   0  0  0  0  0  0  0  0  0  0  0  0
    6.5753   -8.5867    0.0000 N   0  0  0  0  0  0  0  0  0  0  0  0
    5.8624   -7.3519    0.0000 C   0  0  0  0  0  0  0  0  0  0  0  0
    7.2882   -8.9983    0.0000 C   0  0  0  0  0  0  0  0  0  0  0  0
    8.0011   -8.5867    0.0000 C   0  0  0  0  0  0  0  0  0  0  0  0
    8.0011   -7.7635    0.0000 O   0  0  0  0  0  0  0  0  0  0  0  0
    8.7140   -8.9983    0.0000 N   0  0  0  0  0  0  0  0  0  0  0  0
    9.4269   -8.5867    0.0000 C   0  0  0  0  0  0  0  0  0  0  0  0
    9.4269   -7.7635    0.0000 C   0  0  0  0  0  0  0  0  0  0  0  0
    8.7140   -7.3519    0.0000 C   0  0  0  0  0  0  0  0  0  0  0  0
   10.1398   -8.9983    0.0000 C   0  0  0  0  0  0  0  0  0  0  0  0
   10.8527   -8.5867    0.0000 N   0  0  0  0  0  0  0  0  0  0  0  0
   10.1398   -7.3519    0.0000 C   0  0  0  0  0  0  0  0  0  0  0  0
   10.1398   -9.8215    0.0000 O   0  0  0  0  0  0  0  0  0  0  0  0
   10.8527  -10.2330    0.0000 N   0  0  0  0  0  0  0  0  0  0  0  0
   11.5656   -9.8215    0.0000 C   0  0  0  0  0  0  0  0  0  0  0  0
   11.5656   -8.9983    0.0000 C   0  0  0  0  0  0  0  0  0  0  0  0
    1.6862   -9.1375    0.0000 C   0  0  0  0  0  0  0  0  0  0  0  0
    2.0210   -9.8895    0.0000 C   0  0  0  0  0  0  0  0  0  0  0  0
    2.8397   -9.8035    0.0000 C   0  0  0  0  0  0  0  0  0  0  0  0
    1.5851   -7.3519    0.0000 O   0  0  0  0  0  0  0  0  0  0  0  0
    2.7095   -7.0506    0.0000 C   0  0  0  0  0  0  0  0  0  0  0  0
    3.5282   -6.9646    0.0000 C   0  0  0  0  0  0  0  0  0  0  0  0
    3.6994   -6.1594    0.0000 C   0  0  0  0  0  0  0  0  0  0  0  0
    2.9865   -5.7478    0.0000 C   0  0  0  0  0  0  0  0  0  0  0  0
    2.3747   -6.2986    0.0000 N   0  0  0  0  0  0  0  0  0  0  0  0
    2.9865   -4.9246    0.0000 O   0  0  0  0  0  0  0  0  0  0  0  0
    5.8624   -9.8215    0.0000 O   0  0  0  0  0  0  0  0  0  0  0  0
    7.2882   -9.8215    0.0000 N   0  0  0  0  0  0  0  0  0  0  0  0
   12.2785  -10.2330    0.0000 O   0  0  0  0  0  0  0  0  0  0  0  0
   10.8527  -11.0562    0.0000 C   0  0  0  0  0  0  0  0  0  0  0  0
   11.5656  -11.4678    0.0000 C   0  0  0  0  0  0  0  0  0  0  0  0
   12.2785  -11.0562    0.0000 O   0  0  0  0  0  0  0  0  0  0  0  0
   10.1398  -11.4678    0.0000 C   0  0  0  0  0  0  0  0  0  0  0  0
    9.4269  -11.0562    0.0000 O   0  0  0  0  0  0  0  0  0  0  0  0
    9.9268  -12.2629    0.0000 N   0  0  0  0  0  0  0  0  0  0  0  0
    9.1036  -12.2629    0.0000 C   0  0  0  0  0  0  0  0  0  0  0  0
    8.8905  -11.4678    0.0000 C   0  0  0  0  0  0  0  0  0  0  0  0
    6.7426  -10.4379    0.0000 C   0  0  0  0  0  0  0  0  0  0  0  0
    7.1603  -11.1472    0.0000 C   0  0  0  0  0  0  0  0  0  0  0  0
    7.9640  -10.9692    0.0000 C   0  0  0  0  0  0  0  0  0  0  0  0
    8.0431  -10.1498    0.0000 C   0  0  0  0  0  0  0  0  0  0  0  0
    5.9195  -10.4379    0.0000 C   0  0  0  0  0  0  0  0  0  0  0  0
    5.5140  -11.1472    0.0000 C   0  0  0  0  0  0  0  0  0  0  0  0
    5.9195  -11.8566    0.0000 C   0  0  0  0  0  0  0  0  0  0  0  0
    6.7426  -11.8566    0.0000 C   0  0  0  0  0  0  0  0  0  0  0  0
    8.6920  -12.9758    0.0000 C   0  0  0  0  0  0  0  0  0  0  0  0
    7.8688  -12.9758    0.0000 O   0  0  0  0  0  0  0  0  0  0  0  0
    9.1036  -13.6887    0.0000 O   0  0  0  0  0  0  0  0  0  0  0  0
    6.8914   -7.3464    0.0000 C   0  0  0  0  0  0  0  0  0  0  0  0
    7.2041   -6.3660    0.0000 N   0  0  0  0  0  0  0  0  0  0  0  0
    6.3684   -5.7657    0.0000 C   0  0  0  0  0  0  0  0  0  0  0  0
    5.5392   -6.3750    0.0000 C   0  0  0  0  0  0  0  0  0  0  0  0
    6.2553   -4.7430    0.0000 C   0  0  0  0  0  0  0  0  0  0  0  0
    5.3130   -4.3295    0.0000 C   0  0  0  0  0  0  0  0  0  0  0  0
    4.4839   -4.9388    0.0000 C   0  0  0  0  0  0  0  0  0  0  0  0
    4.5969   -5.9616    0.0000 C   0  0  0  0  0  0  0  0  0  0  0  0
  1  2  1  0  0  0  0
  2  3  1  0  0  0  0
  3  4  1  0  0  0  0
  4  5  2  0  0  0  0
  4  6  1  0  0  0  0
  6  7  1  0  0  0  0
  7  8  1  0  0  0  0
  7  9  1  0  0  0  0
  9 10  1  0  0  0  0
 11  8  1  0  0  0  0
 10 12  1  0  0  0  0
 12 13  1  0  0  0  0
 13 14  2  0  0  0  0
 13 15  1  0  0  0  0
 15 16  1  0  0  0  0
 16 17  1  0  0  0  0
 17 18  1  0  0  0  0
 16 19  1  0  0  0  0
 19 20  1  0  0  0  0
 21 17  1  0  0  0  0
 19 22  2  0  0  0  0
 23 24  1  0  0  0  0
 24 25  1  0  0  0  0
 25 20  1  0  0  0  0
  2 26  1  0  0  0  0
 26 27  1  0  0  0  0
 27 28  1  0  0  0  0
 28  3  1  0  0  0  0
  1 29  2  0  0  0  0
  1 30  1  0  0  0  0
 30 31  1  0  0  0  0
 31 32  1  0  0  0  0
 32 33  1  0  0  0  0
 33 34  1  0  0  0  0
 34 30  1  0  0  0  0
 33 35  2  0  0  0  0
  9 36  2  0  0  0  0
 12 37  1  0  0  0  0
 24 38  2  0  0  0  0
 23 39  1  0  0  0  0
 39 40  1  0  0  0  0
 40 41  1  0  0  0  0
 39 42  1  0  0  0  0
 42 43  2  0  0  0  0
 42 44  1  0  0  0  0
 44 45  1  0  0  0  0
 45 46  1  0  0  0  0
 37 47  1  0  0  0  0
 47 48  2  0  0  0  0
 48 49  1  0  0  0  0
 49 50  2  0  0  0  0
 50 37  1  0  0  0  0
 46 49  1  0  0  0  0
 47 51  1  0  0  0  0
 51 52  2  0  0  0  0
 52 53  1  0  0  0  0
 53 54  2  0  0  0  0
 54 48  1  0  0  0  0
 45 55  1  0  0  0  0
 55 56  2  0  0  0  0
 55 57  1  0  0  0  0
 11 58  2  0  0  0  0
 58 59  1  0  0  0  0
 59 60  1  0  0  0  0
 60 61  2  0  0  0  0
 61 11  1  0  0  0  0
 60 62  1  0  0  0  0
 62 63  2  0  0  0  0
 63 64  1  0  0  0  0
 64 65  2  0  0  0  0
 65 61  1  0  0  0  0
M  END
>  <cdx:fragmentId>
5

$$$$
