12864.cdx
  Mrv1902 05222410222D          

 46 49  0  0  0  0            999 V2000
    3.6606   -8.6551    0.0000 C   0  0  0  0  0  0  0  0  0  0  0  0
    3.6606   -9.4798    0.0000 C   0  0  0  0  0  0  0  0  0  0  0  0
    4.3748   -9.8922    0.0000 C   0  0  0  0  0  0  0  0  0  0  0  0
    5.0890   -9.4798    0.0000 C   0  0  0  0  0  0  0  0  0  0  0  0
    5.0890   -8.6551    0.0000 C   0  0  0  0  0  0  0  0  0  0  0  0
    4.3748   -8.2427    0.0000 C   0  0  0  0  0  0  0  0  0  0  0  0
    2.9463   -8.2427    0.0000 O   0  0  0  0  0  0  0  0  0  0  0  0
    2.9463   -9.8922    0.0000 O   0  0  0  0  0  0  0  0  0  0  0  0
    6.5175   -9.4798    0.0000 O   0  0  0  0  0  0  0  0  0  0  0  0
    6.5175   -8.6551    0.0000 C   0  0  0  0  0  0  0  0  0  0  0  0
    5.8033   -8.2427    0.0000 C   0  0  0  0  0  0  0  0  0  0  0  0
    7.9460   -8.6551    0.0000 N   0  0  0  0  0  0  0  0  0  0  0  0
    7.2318   -8.2427    0.0000 C   0  0  0  0  0  0  0  0  0  0  0  0
    9.3745   -8.6551    0.0000 C   0  0  0  0  0  0  0  0  0  0  0  0
    8.6603   -8.2427    0.0000 C   0  0  0  0  0  0  0  0  0  0  0  0
   10.8030   -8.6551    0.0000 C   0  0  0  0  0  0  0  0  0  0  0  0
   10.0888   -8.2427    0.0000 C   0  0  0  0  0  0  0  0  0  0  0  0
   11.5173   -8.2427    0.0000 C   0  0  0  0  0  0  0  0  0  0  0  0
   11.5173   -7.4180    0.0000 C   0  0  0  0  0  0  0  0  0  0  0  0
   10.8030   -7.0056    0.0000 C   0  0  0  0  0  0  0  0  0  0  0  0
   10.0888   -7.4180    0.0000 C   0  0  0  0  0  0  0  0  0  0  0  0
   12.9457   -8.2427    0.0000 C   0  0  0  0  0  0  0  0  0  0  0  0
   12.9457   -7.4180    0.0000 C   0  0  0  0  0  0  0  0  0  0  0  0
   12.2315   -7.0056    0.0000 O   0  0  0  0  0  0  0  0  0  0  0  0
   13.6600   -8.6551    0.0000 C   0  0  0  0  0  0  0  0  0  0  0  0
   14.3742   -8.2427    0.0000 C   0  0  0  0  0  0  0  0  0  0  0  0
   14.3742   -7.4180    0.0000 C   0  0  0  0  0  0  0  0  0  0  0  0
   13.6600   -7.0056    0.0000 C   0  0  0  0  0  0  0  0  0  0  0  0
    7.2318   -7.4180    0.0000 O   0  0  0  0  0  0  0  0  0  0  0  0
   15.1111   -8.6993    0.0000 C   0  0  0  0  0  0  0  0  0  0  0  0
   15.8254   -8.2869    0.0000 C   0  0  0  0  0  0  0  0  0  0  0  0
   16.5396   -8.6993    0.0000 N   0  0  0  0  0  0  0  0  0  0  0  0
   17.2539   -8.2869    0.0000 C   0  0  0  0  0  0  0  0  0  0  0  0
   17.2539   -7.4622    0.0000 O   0  0  0  0  0  0  0  0  0  0  0  0
   17.9681   -8.6993    0.0000 C   0  0  0  0  0  0  0  0  0  0  0  0
   18.6824   -8.2869    0.0000 C   0  0  0  0  0  0  0  0  0  0  0  0
   20.8253  -11.1736    0.0000 C   0  0  0  0  0  0  0  0  0  0  0  0
   21.5394   -9.9364    0.0000 O   0  0  0  0  0  0  0  0  0  0  0  0
   20.1109  -10.7611    0.0000 O   0  0  0  0  0  0  0  0  0  0  0  0
   20.1109   -9.9364    0.0000 C   0  0  0  0  0  0  0  0  0  0  0  0
   20.8251   -9.5240    0.0000 C   0  0  0  0  0  0  0  0  0  0  0  0
   20.8251   -8.6993    0.0000 C   0  0  0  0  0  0  0  0  0  0  0  0
   20.1109   -8.2869    0.0000 C   0  0  0  0  0  0  0  0  0  0  0  0
    2.2318   -8.6552    0.0000 C   0  0  0  0  0  0  0  0  0  0  0  0
   19.3966   -9.5240    0.0000 C   0  0  0  0  0  0  0  0  0  0  0  0
   19.3966   -8.6993    0.0000 C   0  0  0  0  0  0  0  0  0  0  0  0
  1  2  2  0  0  0  0
  2  3  1  0  0  0  0
  3  4  2  0  0  0  0
  4  5  1  0  0  0  0
  5  6  2  0  0  0  0
  6  1  1  0  0  0  0
  1  7  1  0  0  0  0
  2  8  1  0  0  0  0
  9 10  1  0  0  0  0
 10 11  2  0  0  0  0
 11  5  1  0  0  0  0
 12 13  1  0  0  0  0
 13 10  1  0  0  0  0
 14 15  1  0  0  0  0
 15 12  1  0  0  0  0
 16 17  1  0  0  0  0
 17 14  1  0  0  0  0
 16 18  2  0  0  0  0
 18 19  1  0  0  0  0
 19 20  2  0  0  0  0
 20 21  1  0  0  0  0
 21 17  2  0  0  0  0
 22 23  2  0  0  0  0
 23 24  1  0  0  0  0
 24 19  1  0  0  0  0
 22 25  1  0  0  0  0
 25 26  2  0  0  0  0
 26 27  1  0  0  0  0
 27 28  2  0  0  0  0
 28 23  1  0  0  0  0
 13 29  2  0  0  0  0
 30 31  1  0  0  0  0
 31 32  1  0  0  0  0
 32 33  1  0  0  0  0
 33 34  2  0  0  0  0
 33 35  1  0  0  0  0
 35 36  2  0  0  0  0
 39 37  1  0  0  0  0
 36 46  1  0  0  0  0
 41 38  1  0  0  0  0
 40 39  1  0  0  0  0
 40 45  1  0  0  0  0
 41 40  2  0  0  0  0
 42 41  1  0  0  0  0
 43 42  2  0  0  0  0
 46 43  1  0  0  0  0
 46 45  2  0  0  0  0
 30 26  1  0  0  0  0
  7 44  1  0  0  0  0
M  END
>  <cdx:fragmentId>
5

$$$$
