12869.cdx
  Mrv1902 05222410232D          

 65 70  0  0  0  0            999 V2000
    2.2430   -7.5631    0.0000 C   0  0  0  0  0  0  0  0  0  0  0  0
    2.2430   -8.3863    0.0000 N   0  0  0  0  0  0  0  0  0  0  0  0
    2.9558   -8.7979    0.0000 C   0  0  0  0  0  0  0  0  0  0  0  0
    3.6687   -8.3863    0.0000 C   0  0  0  0  0  0  0  0  0  0  0  0
    3.6687   -7.5631    0.0000 O   0  0  0  0  0  0  0  0  0  0  0  0
    4.3816   -8.7979    0.0000 N   0  0  0  0  0  0  0  0  0  0  0  0
    5.0945   -8.3863    0.0000 C   0  0  0  0  0  0  0  0  0  0  0  0
    5.0945   -7.5631    0.0000 C   0  0  0  0  0  0  0  0  0  0  0  0
    5.8074   -8.7979    0.0000 C   0  0  0  0  0  0  0  0  0  0  0  0
    6.5203   -8.3863    0.0000 N   0  0  0  0  0  0  0  0  0  0  0  0
    6.5203   -7.5631    0.0000 C   0  0  0  0  0  0  0  0  0  0  0  0
    5.8074   -7.1515    0.0000 C   0  0  0  0  0  0  0  0  0  0  0  0
    7.2332   -8.7979    0.0000 C   0  0  0  0  0  0  0  0  0  0  0  0
    7.9461   -8.3863    0.0000 C   0  0  0  0  0  0  0  0  0  0  0  0
    7.9461   -7.5631    0.0000 O   0  0  0  0  0  0  0  0  0  0  0  0
    7.2332   -7.1515    0.0000 C   0  0  0  0  0  0  0  0  0  0  0  0
    8.6590   -8.7979    0.0000 N   0  0  0  0  0  0  0  0  0  0  0  0
    9.3719   -8.3863    0.0000 C   0  0  0  0  0  0  0  0  0  0  0  0
    9.3719   -7.5631    0.0000 C   0  0  0  0  0  0  0  0  0  0  0  0
    8.6590   -7.1515    0.0000 C   0  0  0  0  0  0  0  0  0  0  0  0
   10.0848   -8.7979    0.0000 C   0  0  0  0  0  0  0  0  0  0  0  0
   10.7977   -8.3863    0.0000 N   0  0  0  0  0  0  0  0  0  0  0  0
   10.0848   -7.1515    0.0000 C   0  0  0  0  0  0  0  0  0  0  0  0
   10.0848   -9.6211    0.0000 O   0  0  0  0  0  0  0  0  0  0  0  0
   10.7977  -10.0326    0.0000 N   0  0  0  0  0  0  0  0  0  0  0  0
   11.5106   -9.6211    0.0000 C   0  0  0  0  0  0  0  0  0  0  0  0
   11.5106   -8.7979    0.0000 C   0  0  0  0  0  0  0  0  0  0  0  0
    7.2332   -6.3283    0.0000 C   0  0  0  0  0  0  0  0  0  0  0  0
    6.5203   -5.9167    0.0000 C   0  0  0  0  0  0  0  0  0  0  0  0
    5.8074   -6.3283    0.0000 C   0  0  0  0  0  0  0  0  0  0  0  0
    1.6312   -8.9371    0.0000 C   0  0  0  0  0  0  0  0  0  0  0  0
    1.9660   -9.6891    0.0000 C   0  0  0  0  0  0  0  0  0  0  0  0
    2.7847   -9.6031    0.0000 C   0  0  0  0  0  0  0  0  0  0  0  0
    1.5301   -7.1515    0.0000 O   0  0  0  0  0  0  0  0  0  0  0  0
    2.6545   -6.8502    0.0000 C   0  0  0  0  0  0  0  0  0  0  0  0
    3.4732   -6.7642    0.0000 C   0  0  0  0  0  0  0  0  0  0  0  0
    3.6444   -5.9590    0.0000 C   0  0  0  0  0  0  0  0  0  0  0  0
    2.9315   -5.5474    0.0000 C   0  0  0  0  0  0  0  0  0  0  0  0
    2.3197   -6.0982    0.0000 N   0  0  0  0  0  0  0  0  0  0  0  0
    2.9315   -4.7242    0.0000 O   0  0  0  0  0  0  0  0  0  0  0  0
    7.9461   -5.9167    0.0000 O   0  0  0  0  0  0  0  0  0  0  0  0
    5.8074   -9.6211    0.0000 O   0  0  0  0  0  0  0  0  0  0  0  0
    7.2332   -9.6211    0.0000 N   0  0  0  0  0  0  0  0  0  0  0  0
   12.2235  -10.0326    0.0000 O   0  0  0  0  0  0  0  0  0  0  0  0
   10.7977  -10.8558    0.0000 C   0  0  0  0  0  0  0  0  0  0  0  0
   11.5106  -11.2674    0.0000 C   0  0  0  0  0  0  0  0  0  0  0  0
   10.0848  -11.2674    0.0000 C   0  0  0  0  0  0  0  0  0  0  0  0
    9.3719  -10.8558    0.0000 O   0  0  0  0  0  0  0  0  0  0  0  0
    9.8718  -12.0625    0.0000 N   0  0  0  0  0  0  0  0  0  0  0  0
    9.0486  -12.0625    0.0000 C   0  0  0  0  0  0  0  0  0  0  0  0
    8.8355  -11.2674    0.0000 C   0  0  0  0  0  0  0  0  0  0  0  0
    6.6876  -10.2375    0.0000 C   0  0  0  0  0  0  0  0  0  0  0  0
    7.1053  -10.9468    0.0000 C   0  0  0  0  0  0  0  0  0  0  0  0
    7.9090  -10.7688    0.0000 C   0  0  0  0  0  0  0  0  0  0  0  0
    7.9881   -9.9494    0.0000 C   0  0  0  0  0  0  0  0  0  0  0  0
    5.8645  -10.2375    0.0000 C   0  0  0  0  0  0  0  0  0  0  0  0
    5.4590  -10.9468    0.0000 C   0  0  0  0  0  0  0  0  0  0  0  0
    5.8645  -11.6562    0.0000 C   0  0  0  0  0  0  0  0  0  0  0  0
    6.6876  -11.6562    0.0000 C   0  0  0  0  0  0  0  0  0  0  0  0
    8.6370  -12.7754    0.0000 C   0  0  0  0  0  0  0  0  0  0  0  0
    7.8138  -12.7754    0.0000 O   0  0  0  0  0  0  0  0  0  0  0  0
    9.0486  -13.4883    0.0000 O   0  0  0  0  0  0  0  0  0  0  0  0
   11.5106  -11.8591    0.0000 C   0  0  0  0  0  0  0  0  0  0  0  0
   12.2251  -10.8549    0.0000 C   0  0  0  0  0  0  0  0  0  0  0  0
   12.9395  -11.2674    0.0000 C   0  0  0  0  0  0  0  0  0  0  0  0
  1  2  1  0  0  0  0
  2  3  1  0  0  0  0
  3  4  1  0  0  0  0
  4  5  2  0  0  0  0
  4  6  1  0  0  0  0
  6  7  1  0  0  0  0
  7  8  1  0  0  0  0
  7  9  1  0  0  0  0
  9 10  1  0  0  0  0
 11 12  2  0  0  0  0
 12  8  1  0  0  0  0
 10 13  1  0  0  0  0
 13 14  1  0  0  0  0
 14 15  2  0  0  0  0
 16 11  1  0  0  0  0
 14 17  1  0  0  0  0
 17 18  1  0  0  0  0
 18 19  1  0  0  0  0
 19 20  1  0  0  0  0
 18 21  1  0  0  0  0
 21 22  1  0  0  0  0
 23 19  1  0  0  0  0
 21 24  2  0  0  0  0
 25 26  1  0  0  0  0
 26 27  1  0  0  0  0
 27 22  1  0  0  0  0
 16 28  2  0  0  0  0
 28 29  1  0  0  0  0
 29 30  2  0  0  0  0
 30 12  1  0  0  0  0
  2 31  1  0  0  0  0
 31 32  1  0  0  0  0
 32 33  1  0  0  0  0
 33  3  1  0  0  0  0
  1 34  2  0  0  0  0
  1 35  1  0  0  0  0
 35 36  1  0  0  0  0
 36 37  1  0  0  0  0
 37 38  1  0  0  0  0
 38 39  1  0  0  0  0
 39 35  1  0  0  0  0
 38 40  2  0  0  0  0
 28 41  1  0  0  0  0
  9 42  2  0  0  0  0
 13 43  1  0  0  0  0
 26 44  2  0  0  0  0
 25 45  1  0  0  0  0
 45 46  1  0  0  0  0
 45 47  1  0  0  0  0
 47 48  2  0  0  0  0
 47 49  1  0  0  0  0
 49 50  1  0  0  0  0
 50 51  1  0  0  0  0
 43 52  1  0  0  0  0
 52 53  2  0  0  0  0
 53 54  1  0  0  0  0
 54 55  2  0  0  0  0
 55 43  1  0  0  0  0
 51 54  1  0  0  0  0
 52 56  1  0  0  0  0
 56 57  2  0  0  0  0
 57 58  1  0  0  0  0
 58 59  2  0  0  0  0
 59 53  1  0  0  0  0
 50 60  1  0  0  0  0
 60 61  2  0  0  0  0
 60 62  1  0  0  0  0
 46 63  1  0  0  0  0
 46 64  1  0  0  0  0
 64 65  1  0  0  0  0
M  END
>  <cdx:fragmentId>
5

$$$$
