12879.cdx
  Mrv1902 05222410252D          

 78 86  0  0  0  0            999 V2000
   14.4105   -7.0950    0.0000 C   0  0  0  0  0  0  0  0  0  0  0  0
   14.4105   -7.9200    0.0000 C   0  0  1  0  0  0  0  0  0  0  0  0
   15.1250   -8.3325    0.0000 C   0  0  1  0  0  0  0  0  0  0  0  0
   15.8394   -7.9200    0.0000 C   0  0  1  0  0  0  0  0  0  0  0  0
   15.8394   -7.0950    0.0000 C   0  0  2  0  0  0  0  0  0  0  0  0
   15.1250   -6.6825    0.0000 C   0  0  0  0  0  0  0  0  0  0  0  0
   16.5539   -8.3325    0.0000 C   0  0  0  0  0  0  0  0  0  0  0  0
   17.2683   -7.9200    0.0000 C   0  0  0  0  0  0  0  0  0  0  0  0
   17.2683   -7.0950    0.0000 C   0  0  2  0  0  0  0  0  0  0  0  0
   16.5539   -6.6825    0.0000 C   0  0  2  0  0  0  0  0  0  0  0  0
   17.9828   -6.6825    0.0000 C   0  0  1  0  0  0  0  0  0  0  0  0
   17.9828   -5.8575    0.0000 C   0  0  0  0  0  0  0  0  0  0  0  0
   17.2683   -5.4450    0.0000 C   0  0  0  0  0  0  0  0  0  0  0  0
   16.5539   -5.8575    0.0000 C   0  0  0  0  0  0  0  0  0  0  0  0
   18.6972   -7.0950    0.0000 C   0  0  0  0  0  0  0  0  0  0  0  0
   19.4117   -6.6825    0.0000 C   0  0  0  0  0  0  0  0  0  0  0  0
   19.4117   -5.8575    0.0000 C   0  0  2  0  0  0  0  0  0  0  0  0
   18.6972   -5.4450    0.0000 C   0  0  1  0  0  0  0  0  0  0  0  0
   20.1264   -5.4450    0.0000 C   0  0  0  0  0  0  0  0  0  0  0  0
   20.1264   -4.6200    0.0000 C   0  0  0  0  0  0  0  0  0  0  0  0
   19.4117   -4.2075    0.0000 C   0  0  0  0  0  0  0  0  0  0  0  0
   18.6972   -4.6200    0.0000 C   0  0  0  0  0  0  0  0  0  0  0  0
   18.9992   -3.4930    0.0000 C   0  0  0  0  0  0  0  0  0  0  0  0
   19.8242   -3.4930    0.0000 C   0  0  0  0  0  0  0  0  0  0  0  0
   18.6972   -6.2700    0.0000 H   0  0  0  0  0  0  0  0  0  0  0  0
   17.9828   -7.5075    0.0000 C   0  0  0  0  0  0  0  0  0  0  0  0
   17.2683   -6.2700    0.0000 C   0  0  0  0  0  0  0  0  0  0  0  0
   16.5539   -7.5075    0.0000 H   0  0  0  0  0  0  0  0  0  0  0  0
   15.8394   -6.2700    0.0000 C   0  0  0  0  0  0  0  0  0  0  0  0
   15.8394   -8.7450    0.0000 H   0  0  0  0  0  0  0  0  0  0  0  0
   14.7125   -9.0469    0.0000 C   0  0  0  0  0  0  0  0  0  0  0  0
   15.5375   -9.0469    0.0000 C   0  0  0  0  0  0  0  0  0  0  0  0
   13.6961   -8.3325    0.0000 O   0  0  0  0  0  0  0  0  0  0  0  0
   20.1264   -6.2700    0.0000 C   0  0  0  0  0  0  0  0  0  0  0  0
   15.1250   -9.7614    0.0000 O   0  0  0  0  0  0  0  0  0  0  0  0
   20.8409   -5.8575    0.0000 O   0  0  0  0  0  0  0  0  0  0  0  0
   20.1264   -7.0950    0.0000 O   0  0  0  0  0  0  0  0  0  0  0  0
   12.9816   -7.9200    0.0000 C   0  0  2  0  0  0  0  0  0  0  0  0
   12.9816   -7.0950    0.0000 O   0  0  0  0  0  0  0  0  0  0  0  0
   12.2672   -6.6825    0.0000 C   0  0  0  0  0  0  0  0  0  0  0  0
   11.5527   -7.0950    0.0000 C   0  0  1  0  0  0  0  0  0  0  0  0
   11.5527   -7.9200    0.0000 C   0  0  1  0  0  0  0  0  0  0  0  0
   12.2672   -8.3325    0.0000 C   0  0  1  0  0  0  0  0  0  0  0  0
   12.2672   -9.1575    0.0000 O   0  0  0  0  0  0  0  0  0  0  0  0
   10.8383   -8.3325    0.0000 O   0  0  0  0  0  0  0  0  0  0  0  0
   10.8383   -6.6825    0.0000 O   0  0  0  0  0  0  0  0  0  0  0  0
   11.5527   -9.5700    0.0000 C   0  0  2  0  0  0  0  0  0  0  0  0
   10.8383   -9.1575    0.0000 O   0  0  0  0  0  0  0  0  0  0  0  0
   10.1238   -9.5700    0.0000 C   0  0  2  0  0  0  0  0  0  0  0  0
   10.1238  -10.3950    0.0000 C   0  0  1  0  0  0  0  0  0  0  0  0
   10.8383  -10.8075    0.0000 C   0  0  2  0  0  0  0  0  0  0  0  0
   11.5527  -10.3950    0.0000 C   0  0  1  0  0  0  0  0  0  0  0  0
    9.4093  -10.8075    0.0000 O   0  0  0  0  0  0  0  0  0  0  0  0
   10.8383  -11.6325    0.0000 O   0  0  0  0  0  0  0  0  0  0  0  0
   12.2672  -10.8075    0.0000 O   0  0  0  0  0  0  0  0  0  0  0  0
    9.4093   -9.1575    0.0000 C   0  0  0  0  0  0  0  0  0  0  0  0
   10.1238  -12.0450    0.0000 C   0  0  2  0  0  0  0  0  0  0  0  0
    9.4093  -11.6325    0.0000 O   0  0  0  0  0  0  0  0  0  0  0  0
    8.6948  -12.0450    0.0000 C   0  0  1  0  0  0  0  0  0  0  0  0
    8.6948  -12.8700    0.0000 C   0  0  2  0  0  0  0  0  0  0  0  0
    9.4093  -13.2825    0.0000 C   0  0  1  0  0  0  0  0  0  0  0  0
   10.1238  -12.8700    0.0000 C   0  0  1  0  0  0  0  0  0  0  0  0
    7.9804  -11.6325    0.0000 C   0  0  0  0  0  0  0  0  0  0  0  0
    9.4093  -14.1075    0.0000 O   0  0  0  0  0  0  0  0  0  0  0  0
   10.8383  -13.2825    0.0000 O   0  0  0  0  0  0  0  0  0  0  0  0
    7.9804  -13.2825    0.0000 O   0  0  0  0  0  0  0  0  0  0  0  0
    7.2659  -12.0450    0.0000 O   0  0  0  0  0  0  0  0  0  0  0  0
    7.5849  -14.0066    0.0000 C   0  0  2  0  0  0  0  0  0  0  0  0
    6.7602  -14.0261    0.0000 O   0  0  0  0  0  0  0  0  0  0  0  0
    6.3647  -14.7502    0.0000 C   0  0  1  0  0  0  0  0  0  0  0  0
    6.7941  -15.4547    0.0000 C   0  0  2  0  0  0  0  0  0  0  0  0
    7.6188  -15.4351    0.0000 C   0  0  1  0  0  0  0  0  0  0  0  0
    8.0143  -14.7110    0.0000 C   0  0  1  0  0  0  0  0  0  0  0  0
    5.5400  -14.7698    0.0000 C   0  0  0  0  0  0  0  0  0  0  0  0
    8.0482  -16.1396    0.0000 O   0  0  0  0  0  0  0  0  0  0  0  0
    6.3986  -16.1787    0.0000 O   0  0  0  0  0  0  0  0  0  0  0  0
    5.1275  -15.4842    0.0000 O   0  0  0  0  0  0  0  0  0  0  0  0
    8.8390  -14.6915    0.0000 O   0  0  0  0  0  0  0  0  0  0  0  0
  1  2  1  0  0  0  0
  2  3  1  0  0  0  0
  3  4  1  0  0  0  0
  4  5  1  0  0  0  0
  5  6  1  0  0  0  0
  6  1  1  0  0  0  0
  4  7  1  0  0  0  0
  7  8  1  0  0  0  0
  8  9  1  0  0  0  0
  9 10  1  0  0  0  0
 10  5  1  0  0  0  0
  9 11  1  0  0  0  0
 11 12  1  0  0  0  0
 12 13  2  0  0  0  0
 13 14  1  0  0  0  0
 14 10  1  0  0  0  0
 11 15  1  0  0  0  0
 15 16  1  0  0  0  0
 16 17  1  0  0  0  0
 17 18  1  0  0  0  0
 18 12  1  0  0  0  0
 17 19  1  0  0  0  0
 19 20  1  0  0  0  0
 20 21  1  0  0  0  0
 21 22  1  0  0  0  0
 22 18  1  0  0  0  0
 21 23  1  0  0  0  0
 21 24  1  0  0  0  0
 18 25  1  1  0  0  0
 11 26  1  6  0  0  0
  9 27  1  1  0  0  0
 10 28  1  6  0  0  0
  5 29  1  1  0  0  0
  4 30  1  6  0  0  0
  3 31  1  1  0  0  0
  3 32  1  6  0  0  0
  2 33  1  1  0  0  0
 17 34  1  1  0  0  0
 32 35  1  0  0  0  0
 34 36  1  0  0  0  0
 34 37  2  0  0  0  0
 38 33  1  1  0  0  0
 38 39  1  0  0  0  0
 39 40  1  0  0  0  0
 40 41  1  0  0  0  0
 41 42  1  0  0  0  0
 42 43  1  0  0  0  0
 43 38  1  0  0  0  0
 43 44  1  6  0  0  0
 42 45  1  1  0  0  0
 41 46  1  1  0  0  0
 47 44  1  1  0  0  0
 47 48  1  0  0  0  0
 48 49  1  0  0  0  0
 49 50  1  0  0  0  0
 50 51  1  0  0  0  0
 51 52  1  0  0  0  0
 52 47  1  0  0  0  0
 50 53  1  1  0  0  0
 51 54  1  6  0  0  0
 52 55  1  6  0  0  0
 49 56  1  6  0  0  0
 57 54  1  1  0  0  0
 57 58  1  0  0  0  0
 58 59  1  0  0  0  0
 59 60  1  0  0  0  0
 60 61  1  0  0  0  0
 61 62  1  0  0  0  0
 62 57  1  0  0  0  0
 59 63  1  1  0  0  0
 61 64  1  1  0  0  0
 62 65  1  6  0  0  0
 60 66  1  6  0  0  0
 63 67  1  0  0  0  0
 68 66  1  1  0  0  0
 68 69  1  0  0  0  0
 69 70  1  0  0  0  0
 70 71  1  0  0  0  0
 71 72  1  0  0  0  0
 72 73  1  0  0  0  0
 73 68  1  0  0  0  0
 70 74  1  1  0  0  0
 72 75  1  1  0  0  0
 71 76  1  6  0  0  0
 74 77  1  0  0  0  0
 73 78  1  6  0  0  0
M  END
>  <cdx:fragmentId>
5

$$$$
