12870.cdx
  Mrv1902 05222410222D          

 39 42  0  0  0  0            999 V2000
    4.3043   -7.0744    0.0000 O   0  0  0  0  0  0  0  0  0  0  0  0
    5.0195   -7.4855    0.0000 C   0  0  2  0  0  0  0  0  0  0  0  0
    5.0211   -8.3105    0.0000 C   0  0  1  0  0  0  0  0  0  0  0  0
    4.3074   -8.7244    0.0000 C   0  0  2  0  0  0  0  0  0  0  0  0
    3.5922   -8.3132    0.0000 C   0  0  1  0  0  0  0  0  0  0  0  0
    3.5906   -7.4882    0.0000 C   0  0  0  0  0  0  0  0  0  0  0  0
    5.7364   -8.7216    0.0000 O   0  0  0  0  0  0  0  0  0  0  0  0
    4.3090   -9.5494    0.0000 O   0  0  0  0  0  0  0  0  0  0  0  0
    2.8785   -8.7271    0.0000 O   0  0  0  0  0  0  0  0  0  0  0  0
    5.7332   -7.0716    0.0000 O   0  0  0  0  0  0  0  0  0  0  0  0
    6.4485   -7.4828    0.0000 C   0  0  0  0  0  0  0  0  0  0  0  0
    7.8774   -7.4801    0.0000 C   0  0  2  0  0  0  0  0  0  0  0  0
    7.1621   -7.0689    0.0000 C   0  0  2  0  0  0  0  0  0  0  0  0
    7.1606   -6.2439    0.0000 C   0  0  1  0  0  0  0  0  0  0  0  0
    7.8743   -5.8301    0.0000 C   0  0  0  0  0  0  0  0  0  0  0  0
    8.5895   -6.2412    0.0000 C   0  0  0  0  0  0  0  0  0  0  0  0
    9.3032   -5.8273    0.0000 C   0  0  0  0  0  0  0  0  0  0  0  0
   10.0184   -6.2385    0.0000 C   0  0  0  0  0  0  0  0  0  0  0  0
   10.0200   -7.0635    0.0000 C   0  0  0  0  0  0  0  0  0  0  0  0
    9.3063   -7.4773    0.0000 C   0  0  0  0  0  0  0  0  0  0  0  0
    8.5911   -7.0662    0.0000 C   0  0  0  0  0  0  0  0  0  0  0  0
    9.3079   -8.3023    0.0000 O   0  0  0  0  0  0  0  0  0  0  0  0
   10.0232   -8.7135    0.0000 C   0  0  0  0  0  0  0  0  0  0  0  0
   10.7321   -5.8246    0.0000 O   0  0  0  0  0  0  0  0  0  0  0  0
   11.4474   -6.2357    0.0000 C   0  0  0  0  0  0  0  0  0  0  0  0
    6.4453   -5.8328    0.0000 C   0  0  0  0  0  0  0  0  0  0  0  0
    5.7316   -6.2466    0.0000 O   0  0  0  0  0  0  0  0  0  0  0  0
    7.8790   -8.3050    0.0000 C   0  0  0  0  0  0  0  0  0  0  0  0
    8.5942   -8.7162    0.0000 C   0  0  0  0  0  0  0  0  0  0  0  0
    8.5958   -9.5412    0.0000 C   0  0  0  0  0  0  0  0  0  0  0  0
    7.8821   -9.9550    0.0000 C   0  0  0  0  0  0  0  0  0  0  0  0
    7.1669   -9.5439    0.0000 C   0  0  0  0  0  0  0  0  0  0  0  0
    7.1653   -8.7189    0.0000 C   0  0  0  0  0  0  0  0  0  0  0  0
    6.4532   -9.9578    0.0000 O   0  0  0  0  0  0  0  0  0  0  0  0
    5.7379   -9.5466    0.0000 C   0  0  0  0  0  0  0  0  0  0  0  0
    9.3111   -9.9523    0.0000 O   0  0  0  0  0  0  0  0  0  0  0  0
   10.0248   -9.5385    0.0000 C   0  0  0  0  0  0  0  0  0  0  0  0
    7.8837  -10.7800    0.0000 O   0  0  0  0  0  0  0  0  0  0  0  0
   10.7353   -7.4746    0.0000 O   0  0  0  0  0  0  0  0  0  0  0  0
  1  2  1  0  0  0  0
  2  3  1  0  0  0  0
  3  4  1  0  0  0  0
  4  5  1  0  0  0  0
  5  6  1  0  0  0  0
  1  6  1  0  0  0  0
  3  7  1  6  0  0  0
  4  8  1  1  0  0  0
  5  9  1  6  0  0  0
 10 11  1  0  0  0  0
 12 13  1  0  0  0  0
 13 14  1  0  0  0  0
 14 15  1  0  0  0  0
 15 16  1  0  0  0  0
 16 17  1  0  0  0  0
 17 18  2  0  0  0  0
 18 19  1  0  0  0  0
 19 20  2  0  0  0  0
 20 21  1  0  0  0  0
 12 21  1  0  0  0  0
 16 21  2  0  0  0  0
 22 23  1  0  0  0  0
 20 22  1  0  0  0  0
 24 25  1  0  0  0  0
 18 24  1  0  0  0  0
 26 27  1  0  0  0  0
 14 26  1  6  0  0  0
 28 29  1  0  0  0  0
 29 30  2  0  0  0  0
 30 31  1  0  0  0  0
 31 32  2  0  0  0  0
 32 33  1  0  0  0  0
 28 33  2  0  0  0  0
 34 35  1  0  0  0  0
 32 34  1  0  0  0  0
 36 37  1  0  0  0  0
 30 36  1  0  0  0  0
 31 38  1  0  0  0  0
 12 28  1  6  0  0  0
 19 39  1  0  0  0  0
 13 11  1  1  0  0  0
  2 10  1  1  0  0  0
M  END
>  <cdx:fragmentId>
199

$$$$
