1288.cdx
  Mrv1902 05222410262D          

 10 11  0  0  0  0            999 V2000
    6.0889   -6.8269    0.0000 C   0  0  0  0  0  0  0  0  0  0  0  0
    6.0843   -7.6519    0.0000 C   0  0  0  0  0  0  0  0  0  0  0  0
    6.7965   -8.0684    0.0000 C   0  0  1  0  0  0  0  0  0  0  0  0
    7.5132   -7.6598    0.0000 C   0  0  1  0  0  0  0  0  0  0  0  0
    7.5178   -6.8349    0.0000 C   0  0  2  0  0  0  0  0  0  0  0  0
    6.8056   -6.4184    0.0000 C   0  0  2  0  0  0  0  0  0  0  0  0
    5.3676   -8.0604    0.0000 C   0  0  0  0  0  0  0  0  0  0  0  0
    6.8102   -5.5934    0.0000 O   0  0  0  0  0  0  0  0  0  0  0  0
    6.7919   -8.8934    0.0000 O   0  0  0  0  0  0  0  0  0  0  0  0
    8.2300   -7.2513    0.0000 O   0  0  0  0  0  0  0  0  0  0  0  0
  1  2  2  0  0  0  0
  2  3  1  0  0  0  0
  3  4  1  0  0  0  0
  4  5  1  0  0  0  0
  5  6  1  0  0  0  0
  6  1  1  0  0  0  0
  2  7  1  0  0  0  0
  6  8  1  1  0  0  0
  3  9  1  1  0  0  0
  5 10  1  6  0  0  0
  4 10  1  1  0  0  0
M  END
>  <cdx:fragmentId>
5

$$$$
