128994.cdx
  Mrv1902 05222410242D          

 22 25  0  0  0  0            999 V2000
    9.3178   -7.4398    0.0000 O   0  0  0  0  0  0  0  0  0  0  0  0
    9.8027   -6.7723    0.0000 C   0  0  0  0  0  0  0  0  0  0  0  0
    9.3178   -6.1049    0.0000 C   0  0  0  0  0  0  0  0  0  0  0  0
    8.5331   -6.3598    0.0000 C   0  0  0  0  0  0  0  0  0  0  0  0
    7.8187   -5.9473    0.0000 C   0  0  0  0  0  0  0  0  0  0  0  0
    7.1042   -6.3598    0.0000 C   0  0  0  0  0  0  0  0  0  0  0  0
    7.1042   -7.1848    0.0000 C   0  0  0  0  0  0  0  0  0  0  0  0
    7.8187   -7.5973    0.0000 C   0  0  0  0  0  0  0  0  0  0  0  0
    8.5331   -7.1848    0.0000 C   0  0  0  0  0  0  0  0  0  0  0  0
    7.8187   -8.4223    0.0000 C   0  0  0  0  0  0  0  0  0  0  0  0
    7.1042   -8.8348    0.0000 C   0  0  0  0  0  0  0  0  0  0  0  0
    6.3897   -8.4223    0.0000 C   0  0  0  0  0  0  0  0  0  0  0  0
    5.6752   -8.8348    0.0000 C   0  0  0  0  0  0  0  0  0  0  0  0
    4.9608   -8.4223    0.0000 C   0  0  0  0  0  0  0  0  0  0  0  0
    4.9608   -7.5973    0.0000 C   0  0  0  0  0  0  0  0  0  0  0  0
    5.6752   -7.1848    0.0000 C   0  0  0  0  0  0  0  0  0  0  0  0
    6.3897   -7.5973    0.0000 C   0  0  0  0  0  0  0  0  0  0  0  0
    6.3897   -5.9473    0.0000 O   0  0  0  0  0  0  0  0  0  0  0  0
    7.8187   -5.1223    0.0000 O   0  0  0  0  0  0  0  0  0  0  0  0
    6.0877   -9.5493    0.0000 C   0  0  0  0  0  0  0  0  0  0  0  0
    5.2627   -9.5493    0.0000 C   0  0  0  0  0  0  0  0  0  0  0  0
    9.5727   -5.3203    0.0000 C   0  0  0  0  0  0  0  0  0  0  0  0
  1  2  1  0  0  0  0
  2  3  2  0  0  0  0
  3  4  1  0  0  0  0
  4  5  1  0  0  0  0
  5  6  1  0  0  0  0
  6  7  1  0  0  0  0
  7  8  1  0  0  0  0
  8  9  1  0  0  0  0
  4  9  2  0  0  0  0
  1  9  1  0  0  0  0
 10 11  1  0  0  0  0
 11 12  2  0  0  0  0
 12 13  1  0  0  0  0
 13 14  1  0  0  0  0
 14 15  1  0  0  0  0
 15 16  2  0  0  0  0
 16 17  1  0  0  0  0
 12 17  1  0  0  0  0
 17  7  2  0  0  0  0
 10  8  2  0  0  0  0
  6 18  2  0  0  0  0
  5 19  2  0  0  0  0
 13 20  1  0  0  0  0
 13 21  1  0  0  0  0
  3 22  1  0  0  0  0
M  END
>  <cdx:fragmentId>
6560

$$$$
