1290.cdx
  Mrv1902 05222410202D          

 20 22  0  0  0  0            999 V2000
    4.3975   -5.3291    0.0000 C   0  0  0  0  0  0  0  0  0  0  0  0
    4.6428   -6.1168    0.0000 C   0  0  0  0  0  0  0  0  0  0  0  0
    5.4476   -6.2982    0.0000 C   0  0  0  0  0  0  0  0  0  0  0  0
    6.0071   -5.6920    0.0000 C   0  0  0  0  0  0  0  0  0  0  0  0
    5.7618   -4.9043    0.0000 C   0  0  0  0  0  0  0  0  0  0  0  0
    4.9570   -4.7229    0.0000 C   0  0  0  0  0  0  0  0  0  0  0  0
    6.8320   -5.7021    0.0000 C   0  0  0  0  0  0  0  0  0  0  0  0
    7.0966   -4.9207    0.0000 C   0  0  0  0  0  0  0  0  0  0  0  0
    6.4351   -4.4276    0.0000 N   0  0  0  0  0  0  0  0  0  0  0  0
    7.3765   -6.3220    0.0000 C   0  0  0  0  0  0  0  0  0  0  0  0
    8.1855   -6.1604    0.0000 C   0  0  2  0  0  0  0  0  0  0  0  0
    8.4501   -5.3789    0.0000 N   0  0  0  0  0  0  0  0  0  0  0  0
    7.9056   -4.7591    0.0000 C   0  0  2  0  0  0  0  0  0  0  0  0
    8.7300   -6.7802    0.0000 C   0  0  0  0  0  0  0  0  0  0  0  0
    7.9056   -3.9341    0.0000 C   0  0  0  0  0  0  0  0  0  0  0  0
    9.5390   -6.6186    0.0000 O   0  0  0  0  0  0  0  0  0  0  0  0
    8.4654   -7.5616    0.0000 O   0  0  0  0  0  0  0  0  0  0  0  0
    8.6201   -4.3466    0.0000 C   0  0  0  0  0  0  0  0  0  0  0  0
    9.3345   -4.7591    0.0000 O   0  0  0  0  0  0  0  0  0  0  0  0
    8.6201   -3.5216    0.0000 O   0  0  0  0  0  0  0  0  0  0  0  0
  1  2  2  0  0  0  0
  2  3  1  0  0  0  0
  3  4  2  0  0  0  0
  4  5  1  0  0  0  0
  5  6  2  0  0  0  0
  6  1  1  0  0  0  0
  4  7  1  0  0  0  0
  7  8  2  0  0  0  0
  8  9  1  0  0  0  0
  9  5  1  0  0  0  0
  7 10  1  0  0  0  0
 10 11  1  0  0  0  0
 11 12  1  0  0  0  0
 12 13  1  0  0  0  0
 13  8  1  0  0  0  0
 11 14  1  6  0  0  0
 13 15  1  1  0  0  0
 14 16  2  0  0  0  0
 14 17  1  0  0  0  0
 13 18  1  6  0  0  0
 18 19  1  0  0  0  0
 18 20  2  0  0  0  0
M  END
>  <cdx:fragmentId>
83

$$$$
