12917.cdx
  Mrv1902 05222410222D          

  8  8  0  0  0  0            999 V2000
    6.5056   -6.3671    0.0000 C   0  0  0  0  0  0  0  0  0  0  0  0
    6.3243   -7.1720    0.0000 C   0  0  0  0  0  0  0  0  0  0  0  0
    7.0337   -7.5931    0.0000 N   0  0  0  0  0  0  0  0  0  0  0  0
    7.6534   -7.0485    0.0000 C   0  0  0  0  0  0  0  0  0  0  0  0
    7.3270   -6.2908    0.0000 C   0  0  0  0  0  0  0  0  0  0  0  0
    8.4503   -7.2620    0.0000 O   0  0  0  0  0  0  0  0  0  0  0  0
    5.6098   -7.5845    0.0000 N   0  0  0  0  0  0  0  0  0  0  0  0
    4.8129   -7.3709    0.0000 O   0  0  0  0  0  0  0  0  0  0  0  0
  1  2  1  0  0  0  0
  2  3  1  0  0  0  0
  3  4  1  0  0  0  0
  4  5  1  0  0  0  0
  5  1  2  0  0  0  0
  4  6  2  0  0  0  0
  2  7  2  0  0  0  0
  7  8  1  0  0  0  0
M  END
>  <cdx:fragmentId>
5

$$$$
