12910.cdx
  Mrv1902 05222410222D          

 43 46  0  0  0  0            999 V2000
    9.3500   -7.6513    0.0000 O   0  0  0  0  0  0  0  0  0  0  0  0
   10.0667   -8.0599    0.0000 C   0  0  0  0  0  0  0  0  0  0  0  0
   10.7789   -7.6435    0.0000 C   0  0  0  0  0  0  0  0  0  0  0  0
   11.4956   -8.0520    0.0000 C   0  0  0  0  0  0  0  0  0  0  0  0
   12.2078   -7.6356    0.0000 C   0  0  0  0  0  0  0  0  0  0  0  0
   12.9246   -8.0442    0.0000 C   0  0  0  0  0  0  0  0  0  0  0  0
   12.9291   -8.8692    0.0000 C   0  0  0  0  0  0  0  0  0  0  0  0
   12.2169   -9.2856    0.0000 C   0  0  0  0  0  0  0  0  0  0  0  0
   11.5002   -8.8770    0.0000 C   0  0  0  0  0  0  0  0  0  0  0  0
   13.6458   -9.2777    0.0000 O   0  0  0  0  0  0  0  0  0  0  0  0
   13.6367   -7.6277    0.0000 O   0  0  0  0  0  0  0  0  0  0  0  0
    6.5012   -9.3170    0.0000 O   0  0  0  0  0  0  0  0  0  0  0  0
    5.7777   -8.0796    0.0000 O   0  0  0  0  0  0  0  0  0  0  0  0
    6.4921   -7.6671    0.0000 C   0  0  0  0  0  0  0  0  0  0  0  0
    9.3636  -10.1263    0.0000 C   0  0  2  0  0  0  0  0  0  0  0  0
    9.3591   -9.3013    0.0000 O   0  0  0  0  0  0  0  0  0  0  0  0
    7.2089   -8.0756    0.0000 C   0  0  2  0  0  0  0  0  0  0  0  0
    7.2134   -8.9006    0.0000 C   0  0  2  0  0  0  0  0  0  0  0  0
    7.9301   -9.3092    0.0000 C   0  0  2  0  0  0  0  0  0  0  0  0
    8.6423   -8.8928    0.0000 C   0  0  2  0  0  0  0  0  0  0  0  0
    8.6378   -8.0678    0.0000 C   0  0  1  0  0  0  0  0  0  0  0  0
    7.9211   -7.6592    0.0000 O   0  0  0  0  0  0  0  0  0  0  0  0
    7.9347  -10.1342    0.0000 O   0  0  0  0  0  0  0  0  0  0  0  0
    5.0632   -7.6671    0.0000 C   0  0  0  0  0  0  0  0  0  0  0  0
    4.3487   -8.0796    0.0000 C   0  0  0  0  0  0  0  0  0  0  0  0
    5.0632   -6.8421    0.0000 O   0  0  0  0  0  0  0  0  0  0  0  0
    3.6343   -7.6671    0.0000 C   0  0  0  0  0  0  0  0  0  0  0  0
    2.9198   -8.0796    0.0000 C   0  0  0  0  0  0  0  0  0  0  0  0
    2.2053   -7.6671    0.0000 C   0  0  0  0  0  0  0  0  0  0  0  0
    1.4908   -8.0796    0.0000 C   0  0  0  0  0  0  0  0  0  0  0  0
    1.4908   -8.9046    0.0000 C   0  0  0  0  0  0  0  0  0  0  0  0
    2.2053   -9.3171    0.0000 C   0  0  0  0  0  0  0  0  0  0  0  0
    2.9198   -8.9046    0.0000 C   0  0  0  0  0  0  0  0  0  0  0  0
    0.7764   -9.3171    0.0000 O   0  0  0  0  0  0  0  0  0  0  0  0
    0.7764   -7.6671    0.0000 O   0  0  0  0  0  0  0  0  0  0  0  0
    8.6914  -10.6046    0.0000 O   0  0  0  0  0  0  0  0  0  0  0  0
    8.9386  -11.3917    0.0000 C   0  0  0  0  0  0  0  0  0  0  0  0
    9.7635  -11.3917    0.0000 C   0  0  2  0  0  0  0  0  0  0  0  0
   10.0262  -10.6046    0.0000 C   0  0  1  0  0  0  0  0  0  0  0  0
   10.8115  -10.3516    0.0000 O   0  0  0  0  0  0  0  0  0  0  0  0
   10.4780  -11.8042    0.0000 O   0  0  0  0  0  0  0  0  0  0  0  0
    9.9771  -12.1886    0.0000 C   0  0  0  0  0  0  0  0  0  0  0  0
   10.6915  -12.6011    0.0000 O   0  0  0  0  0  0  0  0  0  0  0  0
 19 23  1  6  0  0  0
 21  1  1  1  0  0  0
 18 12  1  6  0  0  0
 17 14  1  1  0  0  0
 14 13  1  0  0  0  0
 20 16  1  6  0  0  0
 15 16  1  1  0  0  0
 22 17  1  0  0  0  0
 18 17  1  0  0  0  0
 19 18  1  0  0  0  0
 20 19  1  0  0  0  0
 21 20  1  0  0  0  0
 22 21  1  0  0  0  0
  2  3  1  0  0  0  0
  1  2  1  0  0  0  0
  4  5  1  0  0  0  0
  5  6  2  0  0  0  0
  6  7  1  0  0  0  0
  7  8  2  0  0  0  0
  8  9  1  0  0  0  0
  4  9  2  0  0  0  0
  7 10  1  0  0  0  0
  6 11  1  0  0  0  0
  3  4  1  0  0  0  0
 13 24  1  0  0  0  0
 24 25  1  0  0  0  0
 24 26  2  0  0  0  0
 25 27  2  0  0  0  0
 27 28  1  0  0  0  0
 28 29  2  0  0  0  0
 29 30  1  0  0  0  0
 30 31  2  0  0  0  0
 31 32  1  0  0  0  0
 32 33  2  0  0  0  0
 33 28  1  0  0  0  0
 31 34  1  0  0  0  0
 30 35  1  0  0  0  0
 15 36  1  0  0  0  0
 36 37  1  0  0  0  0
 37 38  1  0  0  0  0
 38 39  1  0  0  0  0
 39 15  1  0  0  0  0
 39 40  1  6  0  0  0
 38 41  1  6  0  0  0
 38 42  1  1  0  0  0
 42 43  1  0  0  0  0
M  END
>  <cdx:fragmentId>
135900

$$$$
