1292.cdx
  Mrv1902 05222410192D          

 11 11  0  0  0  0            999 V2000
    6.0778   -2.8198    0.0000 C   0  0  0  0  0  0  0  0  0  0  0  0
    5.3633   -3.2323    0.0000 C   0  0  0  0  0  0  0  0  0  0  0  0
    6.0778   -1.9948    0.0000 O   0  0  0  0  0  0  0  0  0  0  0  0
    6.7923   -3.2323    0.0000 O   0  0  0  0  0  0  0  0  0  0  0  0
    4.6488   -2.8198    0.0000 C   0  0  0  0  0  0  0  0  0  0  0  0
    3.9344   -3.2323    0.0000 C   0  0  0  0  0  0  0  0  0  0  0  0
    3.2199   -2.8198    0.0000 C   0  0  0  0  0  0  0  0  0  0  0  0
    3.2199   -1.9948    0.0000 C   0  0  0  0  0  0  0  0  0  0  0  0
    3.9344   -1.5823    0.0000 C   0  0  0  0  0  0  0  0  0  0  0  0
    4.6488   -1.9948    0.0000 C   0  0  0  0  0  0  0  0  0  0  0  0
    5.3633   -4.0573    0.0000 O   0  0  0  0  0  0  0  0  0  0  0  0
  1  2  1  0  0  0  0
  1  3  2  0  0  0  0
  1  4  1  0  0  0  0
  5  6  1  0  0  0  0
  6  7  2  0  0  0  0
  7  8  1  0  0  0  0
  8  9  2  0  0  0  0
  9 10  1  0  0  0  0
  5 10  2  0  0  0  0
  2  5  1  0  0  0  0
  2 11  1  0  0  0  0
M  END
>  <cdx:groupId>
35

>  <cdx:fragmentId>
13

$$$$
