1295.cdx
  Mrv1902 05222410182D          

 24 26  0  0  0  0            999 V2000
    6.5827   -8.6178    0.0000 O   0  0  0  0  0  0  0  0  0  0  0  0
    9.4236   -9.0641    0.0000 C   0  0  0  0  0  0  0  0  0  0  0  0
    8.6267   -8.8506    0.0000 C   0  0  0  0  0  0  0  0  0  0  0  0
    7.8298   -9.0641    0.0000 C   0  0  0  0  0  0  0  0  0  0  0  0
    9.0111   -8.3496    0.0000 C   0  0  0  0  0  0  0  0  0  0  0  0
    7.4173   -8.3496    0.0000 C   0  0  1  0  0  0  0  0  0  0  0  0
    8.2142   -8.1361    0.0000 C   0  0  0  0  0  0  0  0  0  0  0  0
    8.6267   -8.0256    0.0000 O   0  0  0  0  0  0  0  0  0  0  0  0
    8.2142   -7.3111    0.0000 C   0  0  0  0  0  0  0  0  0  0  0  0
    7.2038   -7.5528    0.0000 H   0  0  0  0  0  0  0  0  0  0  0  0
    8.8402   -9.6475    0.0000 C   0  0  0  0  0  0  0  0  0  0  0  0
    8.7975   -6.7278    0.0000 C   0  0  0  0  0  0  0  0  0  0  0  0
    7.4997   -6.8986    0.0000 C   0  0  0  0  0  0  0  0  0  0  0  0
    5.1531   -6.9613    0.0000 C   0  0  2  0  0  0  0  0  0  0  0  0
    4.4377   -7.3722    0.0000 C   0  0  2  0  0  0  0  0  0  0  0  0
    4.4359   -8.1972    0.0000 C   0  0  1  0  0  0  0  0  0  0  0  0
    5.1495   -8.6113    0.0000 C   0  0  2  0  0  0  0  0  0  0  0  0
    5.8649   -8.2003    0.0000 C   0  0  1  0  0  0  0  0  0  0  0  0
    5.8667   -7.3753    0.0000 O   0  0  0  0  0  0  0  0  0  0  0  0
    5.1549   -6.1363    0.0000 C   0  0  0  0  0  0  0  0  0  0  0  0
    3.7206   -8.6082    0.0000 O   0  0  0  0  0  0  0  0  0  0  0  0
    3.7241   -6.9582    0.0000 O   0  0  0  0  0  0  0  0  0  0  0  0
    5.1477   -9.4363    0.0000 O   0  0  0  0  0  0  0  0  0  0  0  0
    4.4413   -5.7222    0.0000 O   0  0  0  0  0  0  0  0  0  0  0  0
  2  3  1  0  0  0  0
  3  4  1  0  0  0  0
  2  5  1  0  0  0  0
  4  6  1  0  0  0  0
  5  7  1  0  0  0  0
  7  6  1  0  0  0  0
  3  8  1  0  0  0  0
  7  9  1  0  0  0  0
  9  8  1  0  0  0  0
  6  1  1  6  0  0  0
  6 10  1  1  0  0  0
  3 11  1  0  0  0  0
  9 12  1  0  0  0  0
  9 13  1  0  0  0  0
 14 15  1  0  0  0  0
 15 16  1  0  0  0  0
 16 17  1  0  0  0  0
 17 18  1  0  0  0  0
 18 19  1  0  0  0  0
 19 14  1  0  0  0  0
 14 20  1  1  0  0  0
 16 21  1  1  0  0  0
 15 22  1  6  0  0  0
 17 23  1  6  0  0  0
 20 24  1  0  0  0  0
 18  1  1  1  0  0  0
M  END
>  <cdx:fragmentId>
514

$$$$
