129670.cdx
  Mrv1902 05222410212D          

 21 23  0  0  0  0            999 V2000
    4.6950  -10.7659    0.0000 O   0  0  0  0  0  0  0  0  0  0  0  0
    4.6950   -7.4659    0.0000 O   0  0  0  0  0  0  0  0  0  0  0  0
    8.9818   -7.4659    0.0000 C   0  0  0  0  0  0  0  0  0  0  0  0
    9.6963   -7.0534    0.0000 C   0  0  0  0  0  0  0  0  0  0  0  0
   10.4108   -7.4659    0.0000 C   0  0  0  0  0  0  0  0  0  0  0  0
   10.4108   -8.2909    0.0000 C   0  0  0  0  0  0  0  0  0  0  0  0
    9.6963   -8.7034    0.0000 C   0  0  0  0  0  0  0  0  0  0  0  0
    8.9818   -8.2909    0.0000 C   0  0  0  0  0  0  0  0  0  0  0  0
    8.2674   -8.7034    0.0000 C   0  0  0  0  0  0  0  0  0  0  0  0
    7.5529   -8.2909    0.0000 C   0  0  0  0  0  0  0  0  0  0  0  0
    6.1239  -10.7659    0.0000 O   0  0  0  0  0  0  0  0  0  0  0  0
    6.1239   -8.2909    0.0000 O   0  0  0  0  0  0  0  0  0  0  0  0
    5.4095   -8.7034    0.0000 C   0  0  0  0  0  0  0  0  0  0  0  0
    4.6950   -8.2909    0.0000 C   0  0  0  0  0  0  0  0  0  0  0  0
    3.9805   -8.7034    0.0000 C   0  0  0  0  0  0  0  0  0  0  0  0
    3.9805   -9.5284    0.0000 C   0  0  0  0  0  0  0  0  0  0  0  0
    4.6950   -9.9409    0.0000 C   0  0  0  0  0  0  0  0  0  0  0  0
    5.4095   -9.5284    0.0000 C   0  0  0  0  0  0  0  0  0  0  0  0
    6.1239   -9.9409    0.0000 C   0  0  0  0  0  0  0  0  0  0  0  0
    6.8384   -9.5284    0.0000 C   0  0  0  0  0  0  0  0  0  0  0  0
    6.8384   -8.7034    0.0000 C   0  0  0  0  0  0  0  0  0  0  0  0
 17  1  1  0  0  0  0
 14  2  1  0  0  0  0
 21 10  1  0  0  0  0
  9  8  1  0  0  0  0
  8  3  2  0  0  0  0
  4  3  1  0  0  0  0
  5  4  2  0  0  0  0
  6  5  1  0  0  0  0
  7  6  2  0  0  0  0
  8  7  1  0  0  0  0
 10  9  1  0  0  0  0
 19 11  2  0  0  0  0
 21 12  1  0  0  0  0
 13 12  1  0  0  0  0
 18 13  2  0  0  0  0
 14 13  1  0  0  0  0
 15 14  2  0  0  0  0
 16 15  1  0  0  0  0
 17 16  2  0  0  0  0
 18 17  1  0  0  0  0
 19 18  1  0  0  0  0
 20 19  1  0  0  0  0
 21 20  2  0  0  0  0
M  END
>  <cdx:fragmentId>
5

$$$$
