16129626.cdx
  Mrv1902 05222410272D          

138151  0  0  0  0            999 V2000
    9.4645  -10.5664    0.0000 C   0  0  0  0  0  0  0  0  0  0  0  0
    8.6664  -10.7753    0.0000 C   0  0  0  0  0  0  0  0  0  0  0  0
    8.4483  -11.5710    0.0000 C   0  0  0  0  0  0  0  0  0  0  0  0
    7.6502  -11.7799    0.0000 C   0  0  0  0  0  0  0  0  0  0  0  0
    7.0702  -11.1932    0.0000 C   0  0  0  0  0  0  0  0  0  0  0  0
    7.2883  -10.3976    0.0000 C   0  0  0  0  0  0  0  0  0  0  0  0
    8.0864  -10.1886    0.0000 C   0  0  0  0  0  0  0  0  0  0  0  0
   10.0478  -11.1497    0.0000 O   0  0  0  0  0  0  0  0  0  0  0  0
    9.6826   -9.7707    0.0000 O   0  0  0  0  0  0  0  0  0  0  0  0
    9.0283  -12.1577    0.0000 O   0  0  0  0  0  0  0  0  0  0  0  0
    8.3741  -14.5446    0.0000 C   0  0  0  0  0  0  0  0  0  0  0  0
    8.3693  -15.3696    0.0000 C   0  0  0  0  0  0  0  0  0  0  0  0
    9.1650  -15.5877    0.0000 C   0  0  0  0  0  0  0  0  0  0  0  0
    9.3739  -16.3858    0.0000 C   0  0  0  0  0  0  0  0  0  0  0  0
    8.7873  -16.9658    0.0000 C   0  0  0  0  0  0  0  0  0  0  0  0
    7.9916  -16.7477    0.0000 C   0  0  0  0  0  0  0  0  0  0  0  0
    7.7826  -15.9496    0.0000 C   0  0  0  0  0  0  0  0  0  0  0  0
    6.9577  -15.9449    0.0000 C   0  0  0  0  0  0  0  0  0  0  0  0
    6.3776  -15.3582    0.0000 O   0  0  0  0  0  0  0  0  0  0  0  0
    5.5916  -15.6087    0.0000 C   0  0  1  0  0  0  0  0  0  0  0  0
    5.2517  -16.3604    0.0000 C   0  0  1  0  0  0  0  0  0  0  0  0
    4.4307  -16.4419    0.0000 C   0  0  2  0  0  0  0  0  0  0  0  0
    3.9496  -15.7717    0.0000 C   0  0  1  0  0  0  0  0  0  0  0  0
    4.2895  -15.0200    0.0000 O   0  0  0  0  0  0  0  0  0  0  0  0
    5.1105  -14.9385    0.0000 C   0  0  2  0  0  0  0  0  0  0  0  0
    5.5992  -14.2738    0.0000 C   0  0  0  0  0  0  0  0  0  0  0  0
    6.3824  -14.5332    0.0000 O   0  0  0  0  0  0  0  0  0  0  0  0
    6.9691  -13.9532    0.0000 C   0  0  0  0  0  0  0  0  0  0  0  0
    7.7940  -13.9579    0.0000 C   0  0  0  0  0  0  0  0  0  0  0  0
    8.0121  -13.1623    0.0000 C   0  0  0  0  0  0  0  0  0  0  0  0
    8.8102  -12.9533    0.0000 C   0  0  0  0  0  0  0  0  0  0  0  0
    9.3902  -13.5400    0.0000 C   0  0  0  0  0  0  0  0  0  0  0  0
    9.1722  -14.3357    0.0000 C   0  0  0  0  0  0  0  0  0  0  0  0
    3.1287  -15.8533    0.0000 O   0  0  0  0  0  0  0  0  0  0  0  0
    2.6476  -15.1831    0.0000 C   0  0  0  0  0  0  0  0  0  0  0  0
    2.9875  -14.4313    0.0000 C   0  0  0  0  0  0  0  0  0  0  0  0
    2.5064  -13.7611    0.0000 C   0  0  0  0  0  0  0  0  0  0  0  0
    2.8462  -13.0094    0.0000 C   0  0  0  0  0  0  0  0  0  0  0  0
    3.6672  -12.9278    0.0000 C   0  0  0  0  0  0  0  0  0  0  0  0
    4.1483  -13.5980    0.0000 C   0  0  0  0  0  0  0  0  0  0  0  0
    3.8084  -14.3498    0.0000 C   0  0  0  0  0  0  0  0  0  0  0  0
    1.8266  -15.2646    0.0000 O   0  0  0  0  0  0  0  0  0  0  0  0
    4.9692  -13.5165    0.0000 O   0  0  0  0  0  0  0  0  0  0  0  0
    4.0071  -12.1761    0.0000 O   0  0  0  0  0  0  0  0  0  0  0  0
    2.3651  -12.3392    0.0000 O   0  0  0  0  0  0  0  0  0  0  0  0
    4.0909  -17.1937    0.0000 O   0  0  0  0  0  0  0  0  0  0  0  0
    3.2699  -17.2752    0.0000 C   0  0  0  0  0  0  0  0  0  0  0  0
    2.9300  -18.0270    0.0000 C   0  0  0  0  0  0  0  0  0  0  0  0
    3.4111  -18.6972    0.0000 C   0  0  0  0  0  0  0  0  0  0  0  0
    3.0713  -19.4489    0.0000 C   0  0  0  0  0  0  0  0  0  0  0  0
    2.2503  -19.5304    0.0000 C   0  0  0  0  0  0  0  0  0  0  0  0
    1.7692  -18.8602    0.0000 C   0  0  0  0  0  0  0  0  0  0  0  0
    2.1091  -18.1085    0.0000 C   0  0  0  0  0  0  0  0  0  0  0  0
    2.7888  -16.6050    0.0000 O   0  0  0  0  0  0  0  0  0  0  0  0
    0.9483  -18.9418    0.0000 O   0  0  0  0  0  0  0  0  0  0  0  0
    1.9104  -20.2822    0.0000 O   0  0  0  0  0  0  0  0  0  0  0  0
    3.5524  -20.1191    0.0000 O   0  0  0  0  0  0  0  0  0  0  0  0
    5.7328  -17.0306    0.0000 O   0  0  0  0  0  0  0  0  0  0  0  0
    5.3929  -17.7823    0.0000 C   0  0  0  0  0  0  0  0  0  0  0  0
    5.8740  -18.4526    0.0000 C   0  0  0  0  0  0  0  0  0  0  0  0
    6.6950  -18.3710    0.0000 C   0  0  0  0  0  0  0  0  0  0  0  0
    7.1761  -19.0412    0.0000 C   0  0  0  0  0  0  0  0  0  0  0  0
    6.8362  -19.7930    0.0000 C   0  0  0  0  0  0  0  0  0  0  0  0
    6.0153  -19.8745    0.0000 C   0  0  0  0  0  0  0  0  0  0  0  0
    5.5342  -19.2043    0.0000 C   0  0  0  0  0  0  0  0  0  0  0  0
    4.5720  -17.8639    0.0000 O   0  0  0  0  0  0  0  0  0  0  0  0
    5.6754  -20.6262    0.0000 O   0  0  0  0  0  0  0  0  0  0  0  0
    7.3173  -20.4632    0.0000 O   0  0  0  0  0  0  0  0  0  0  0  0
    7.9970  -18.9597    0.0000 O   0  0  0  0  0  0  0  0  0  0  0  0
    6.6577  -13.1892    0.0000 O   0  0  0  0  0  0  0  0  0  0  0  0
    6.6376  -16.7053    0.0000 O   0  0  0  0  0  0  0  0  0  0  0  0
    9.9178  -14.6886    0.0000 O   0  0  0  0  0  0  0  0  0  0  0  0
   10.1883  -13.3311    0.0000 O   0  0  0  0  0  0  0  0  0  0  0  0
    8.9962  -17.7639    0.0000 O   0  0  0  0  0  0  0  0  0  0  0  0
   10.1696  -16.6039    0.0000 O   0  0  0  0  0  0  0  0  0  0  0  0
    9.9147  -15.2433    0.0000 O   0  0  0  0  0  0  0  0  0  0  0  0
    6.7082   -9.8109    0.0000 O   0  0  0  0  0  0  0  0  0  0  0  0
    6.2721  -11.4022    0.0000 O   0  0  0  0  0  0  0  0  0  0  0  0
    7.4321  -12.5756    0.0000 O   0  0  0  0  0  0  0  0  0  0  0  0
   15.0540   -9.1588    0.0000 C   0  0  0  0  0  0  0  0  0  0  0  0
   14.7605   -8.3877    0.0000 C   0  0  0  0  0  0  0  0  0  0  0  0
   15.4293   -7.9047    0.0000 C   0  0  0  0  0  0  0  0  0  0  0  0
   15.3454   -7.0840    0.0000 C   0  0  0  0  0  0  0  0  0  0  0  0
   14.5927   -6.7463    0.0000 C   0  0  0  0  0  0  0  0  0  0  0  0
   13.9239   -7.2293    0.0000 C   0  0  0  0  0  0  0  0  0  0  0  0
   14.0078   -8.0500    0.0000 C   0  0  0  0  0  0  0  0  0  0  0  0
   13.2367   -8.3434    0.0000 C   0  0  0  0  0  0  0  0  0  0  0  0
   12.8990   -9.0962    0.0000 O   0  0  0  0  0  0  0  0  0  0  0  0
   12.0750   -9.1370    0.0000 C   0  0  1  0  0  0  0  0  0  0  0  0
   11.4934   -8.5519    0.0000 C   0  0  1  0  0  0  0  0  0  0  0  0
   10.6959   -8.7632    0.0000 C   0  0  2  0  0  0  0  0  0  0  0  0
   10.4801   -9.5595    0.0000 C   0  0  1  0  0  0  0  0  0  0  0  0
   11.0617  -10.1445    0.0000 O   0  0  0  0  0  0  0  0  0  0  0  0
   11.8592   -9.9332    0.0000 C   0  0  2  0  0  0  0  0  0  0  0  0
   12.5499  -10.3846    0.0000 C   0  0  0  0  0  0  0  0  0  0  0  0
   13.1925   -9.8672    0.0000 O   0  0  0  0  0  0  0  0  0  0  0  0
   13.9452  -10.2049    0.0000 C   0  0  0  0  0  0  0  0  0  0  0  0
   14.7162   -9.9115    0.0000 C   0  0  0  0  0  0  0  0  0  0  0  0
   15.1993  -10.5803    0.0000 C   0  0  0  0  0  0  0  0  0  0  0  0
   16.0200  -10.4964    0.0000 C   0  0  0  0  0  0  0  0  0  0  0  0
   16.3577   -9.7437    0.0000 C   0  0  0  0  0  0  0  0  0  0  0  0
   15.8747   -9.0749    0.0000 C   0  0  0  0  0  0  0  0  0  0  0  0
   10.1142   -8.1782    0.0000 O   0  0  0  0  0  0  0  0  0  0  0  0
    9.3167   -8.3894    0.0000 C   0  0  0  0  0  0  0  0  0  0  0  0
    8.7333   -7.8060    0.0000 C   0  0  0  0  0  0  0  0  0  0  0  0
    7.9364   -8.0196    0.0000 C   0  0  0  0  0  0  0  0  0  0  0  0
    7.3531   -7.4362    0.0000 C   0  0  0  0  0  0  0  0  0  0  0  0
    7.5666   -6.6393    0.0000 C   0  0  0  0  0  0  0  0  0  0  0  0
    8.3635   -6.4258    0.0000 C   0  0  0  0  0  0  0  0  0  0  0  0
    8.9468   -7.0092    0.0000 C   0  0  0  0  0  0  0  0  0  0  0  0
    9.1031   -9.1863    0.0000 O   0  0  0  0  0  0  0  0  0  0  0  0
    8.5770   -5.6289    0.0000 O   0  0  0  0  0  0  0  0  0  0  0  0
    6.9832   -6.0559    0.0000 O   0  0  0  0  0  0  0  0  0  0  0  0
    6.5562   -7.6497    0.0000 O   0  0  0  0  0  0  0  0  0  0  0  0
   11.7092   -7.7557    0.0000 O   0  0  0  0  0  0  0  0  0  0  0  0
   11.1275   -7.1706    0.0000 C   0  0  0  0  0  0  0  0  0  0  0  0
   11.3410   -6.3737    0.0000 C   0  0  0  0  0  0  0  0  0  0  0  0
   10.7576   -5.7904    0.0000 C   0  0  0  0  0  0  0  0  0  0  0  0
   10.9712   -4.9935    0.0000 C   0  0  0  0  0  0  0  0  0  0  0  0
   11.7680   -4.7800    0.0000 C   0  0  0  0  0  0  0  0  0  0  0  0
   12.3514   -5.3633    0.0000 C   0  0  0  0  0  0  0  0  0  0  0  0
   12.1379   -6.1602    0.0000 C   0  0  0  0  0  0  0  0  0  0  0  0
   10.3306   -7.3842    0.0000 O   0  0  0  0  0  0  0  0  0  0  0  0
   13.1483   -5.1498    0.0000 O   0  0  0  0  0  0  0  0  0  0  0  0
   11.9816   -3.9831    0.0000 O   0  0  0  0  0  0  0  0  0  0  0  0
   10.3878   -4.4101    0.0000 O   0  0  0  0  0  0  0  0  0  0  0  0
   13.9452  -11.0299    0.0000 O   0  0  0  0  0  0  0  0  0  0  0  0
   12.6706   -7.7434    0.0000 O   0  0  0  0  0  0  0  0  0  0  0  0
   16.4495   -8.4831    0.0000 O   0  0  0  0  0  0  0  0  0  0  0  0
   17.1784   -9.6598    0.0000 O   0  0  0  0  0  0  0  0  0  0  0  0
   16.5030  -11.1652    0.0000 O   0  0  0  0  0  0  0  0  0  0  0  0
   14.5088   -5.9255    0.0000 O   0  0  0  0  0  0  0  0  0  0  0  0
   16.0143   -6.6010    0.0000 O   0  0  0  0  0  0  0  0  0  0  0  0
   16.2522   -7.9646    0.0000 O   0  0  0  0  0  0  0  0  0  0  0  0
    6.1401  -16.2249    0.0000 H   0  0  0  0  0  0  0  0  0  0  0  0
    4.7062  -14.2193    0.0000 H   0  0  0  0  0  0  0  0  0  0  0  0
   12.3729   -8.3676    0.0000 H   0  0  0  0  0  0  0  0  0  0  0  0
   11.7278  -10.7477    0.0000 H   0  0  0  0  0  0  0  0  0  0  0  0
  1  2  1  0  0  0  0
  2  3  1  0  0  0  0
  3  4  2  0  0  0  0
  4  5  1  0  0  0  0
  5  6  2  0  0  0  0
  6  7  1  0  0  0  0
  2  7  2  0  0  0  0
  1  8  2  0  0  0  0
  1  9  1  0  0  0  0
 11 12  1  0  0  0  0
 12 13  2  0  0  0  0
 13 14  1  0  0  0  0
 14 15  2  0  0  0  0
 15 16  1  0  0  0  0
 16 17  2  0  0  0  0
 17 18  1  0  0  0  0
 18 19  1  0  0  0  0
 19 20  1  0  0  0  0
 20 21  1  0  0  0  0
 21 22  1  0  0  0  0
 22 23  1  0  0  0  0
 23 24  1  0  0  0  0
 24 25  1  0  0  0  0
 25 26  1  0  0  0  0
 26 27  1  0  0  0  0
 27 28  1  0  0  0  0
 28 29  1  0  0  0  0
 29 30  2  0  0  0  0
 30 31  1  0  0  0  0
 31 32  2  0  0  0  0
 32 33  1  0  0  0  0
 11 33  2  0  0  0  0
 11 29  1  0  0  0  0
 12 17  1  0  0  0  0
 20 25  1  0  0  0  0
 35 36  1  0  0  0  0
 36 37  1  0  0  0  0
 37 38  2  0  0  0  0
 38 39  1  0  0  0  0
 39 40  2  0  0  0  0
 40 41  1  0  0  0  0
 36 41  2  0  0  0  0
 35 42  2  0  0  0  0
 40 43  1  0  0  0  0
 39 44  1  0  0  0  0
 38 45  1  0  0  0  0
 34 35  1  0  0  0  0
 23 34  1  6  0  0  0
 47 48  1  0  0  0  0
 48 49  1  0  0  0  0
 49 50  2  0  0  0  0
 50 51  1  0  0  0  0
 51 52  2  0  0  0  0
 52 53  1  0  0  0  0
 48 53  2  0  0  0  0
 47 54  2  0  0  0  0
 52 55  1  0  0  0  0
 51 56  1  0  0  0  0
 50 57  1  0  0  0  0
 46 47  1  0  0  0  0
 22 46  1  1  0  0  0
 59 60  1  0  0  0  0
 60 61  1  0  0  0  0
 61 62  2  0  0  0  0
 62 63  1  0  0  0  0
 63 64  2  0  0  0  0
 64 65  1  0  0  0  0
 60 65  2  0  0  0  0
 59 66  2  0  0  0  0
 64 67  1  0  0  0  0
 63 68  1  0  0  0  0
 62 69  1  0  0  0  0
 58 59  1  0  0  0  0
 21 58  1  6  0  0  0
 28 70  2  0  0  0  0
 18 71  2  0  0  0  0
 33 72  1  0  0  0  0
 32 73  1  0  0  0  0
 15 74  1  0  0  0  0
 14 75  1  0  0  0  0
 13 76  1  0  0  0  0
 10 31  1  0  0  0  0
  3 10  1  0  0  0  0
  6 77  1  0  0  0  0
  5 78  1  0  0  0  0
  4 79  1  0  0  0  0
 80 81  1  0  0  0  0
 81 82  2  0  0  0  0
 82 83  1  0  0  0  0
 83 84  2  0  0  0  0
 84 85  1  0  0  0  0
 85 86  2  0  0  0  0
 86 87  1  0  0  0  0
 87 88  1  0  0  0  0
 88 89  1  0  0  0  0
 89 90  1  0  0  0  0
 90 91  1  0  0  0  0
 91 92  1  0  0  0  0
 92 93  1  0  0  0  0
 93 94  1  0  0  0  0
 94 95  1  0  0  0  0
 95 96  1  0  0  0  0
 96 97  1  0  0  0  0
 97 98  1  0  0  0  0
 98 99  2  0  0  0  0
 99100  1  0  0  0  0
100101  2  0  0  0  0
101102  1  0  0  0  0
 80102  2  0  0  0  0
 80 98  1  0  0  0  0
 81 86  1  0  0  0  0
 89 94  1  0  0  0  0
104105  1  0  0  0  0
105106  1  0  0  0  0
106107  2  0  0  0  0
107108  1  0  0  0  0
108109  2  0  0  0  0
109110  1  0  0  0  0
105110  2  0  0  0  0
104111  2  0  0  0  0
109112  1  0  0  0  0
108113  1  0  0  0  0
107114  1  0  0  0  0
103104  1  0  0  0  0
 91103  1  6  0  0  0
116117  1  0  0  0  0
117118  1  0  0  0  0
118119  2  0  0  0  0
119120  1  0  0  0  0
120121  2  0  0  0  0
121122  1  0  0  0  0
117122  2  0  0  0  0
116123  2  0  0  0  0
121124  1  0  0  0  0
120125  1  0  0  0  0
119126  1  0  0  0  0
115116  1  0  0  0  0
 90115  1  1  0  0  0
 97127  2  0  0  0  0
 87128  2  0  0  0  0
102129  1  0  0  0  0
101130  1  0  0  0  0
100131  1  0  0  0  0
 84132  1  0  0  0  0
 83133  1  0  0  0  0
 82134  1  0  0  0  0
 92  9  1  1  0  0  0
 20135  1  6  0  0  0
 25136  1  1  0  0  0
 89137  1  1  0  0  0
 94138  1  6  0  0  0
M  END
>  <cdx:fragmentId>
15265

$$$$
