129648.cdx
  Mrv1902 05222410222D          

 21 24  0  0  0  0            999 V2000
   15.9023  -13.8776    0.0000 C   0  0  0  0  0  0  0  0  0  0  0  0
   15.3503  -13.2645    0.0000 C   0  0  2  0  0  0  0  0  0  0  0  0
   15.6052  -12.4799    0.0000 C   0  0  2  0  0  0  0  0  0  0  0  0
   16.4122  -12.3084    0.0000 C   0  0  0  0  0  0  0  0  0  0  0  0
   16.6672  -11.5238    0.0000 C   0  0  0  0  0  0  0  0  0  0  0  0
   17.4741  -11.3522    0.0000 C   0  0  0  0  0  0  0  0  0  0  0  0
   18.0262  -11.9653    0.0000 C   0  0  0  0  0  0  0  0  0  0  0  0
   17.7712  -12.7500    0.0000 C   0  0  0  0  0  0  0  0  0  0  0  0
   16.9642  -12.9215    0.0000 C   0  0  0  0  0  0  0  0  0  0  0  0
   16.7093  -13.7061    0.0000 O   0  0  0  0  0  0  0  0  0  0  0  0
   14.9378  -11.9950    0.0000 O   0  0  0  0  0  0  0  0  0  0  0  0
   14.5253  -13.2645    0.0000 C   0  0  0  0  0  0  0  0  0  0  0  0
   13.9733  -13.8776    0.0000 C   0  0  0  0  0  0  0  0  0  0  0  0
   13.1663  -13.7061    0.0000 C   0  0  0  0  0  0  0  0  0  0  0  0
   12.9114  -12.9215    0.0000 C   0  0  0  0  0  0  0  0  0  0  0  0
   13.4634  -12.3084    0.0000 C   0  0  0  0  0  0  0  0  0  0  0  0
   14.2704  -12.4799    0.0000 C   0  0  0  0  0  0  0  0  0  0  0  0
   18.8331  -11.7938    0.0000 O   0  0  0  0  0  0  0  0  0  0  0  0
   15.0147  -14.0182    0.0000 O   0  0  0  0  0  0  0  0  0  0  0  0
   12.1044  -12.7500    0.0000 O   0  0  0  0  0  0  0  0  0  0  0  0
   15.7768  -11.6729    0.0000 H   0  0  0  0  0  0  0  0  0  0  0  0
  1  2  1  0  0  0  0
  2  3  1  0  0  0  0
  3  4  1  0  0  0  0
  4  5  1  0  0  0  0
  5  6  2  0  0  0  0
  6  7  1  0  0  0  0
  7  8  2  0  0  0  0
  8  9  1  0  0  0  0
  4  9  2  0  0  0  0
  9 10  1  0  0  0  0
  1 10  1  0  0  0  0
 12 13  1  0  0  0  0
 13 14  2  0  0  0  0
 14 15  1  0  0  0  0
 15 16  2  0  0  0  0
 16 17  1  0  0  0  0
 12 17  2  0  0  0  0
 11 17  1  0  0  0  0
 12  2  1  0  0  0  0
 11  3  1  0  0  0  0
  7 18  1  0  0  0  0
  2 19  1  6  0  0  0
 15 20  1  0  0  0  0
  3 21  1  6  0  0  0
M  END
>  <cdx:groupId>
6770

>  <cdx:fragmentId>
6707

$$$$
