12988.cdx
  Mrv1902 05222410182D          

  6  5  0  0  0  0            999 V2000
    4.4015   -2.9150    0.0000 C   0  0  0  0  0  0  0  0  0  0  0  0
    5.1160   -3.3275    0.0000 C   0  0  0  0  0  0  0  0  0  0  0  0
    5.8305   -2.9150    0.0000 C   0  0  0  0  0  0  0  0  0  0  0  0
    5.8305   -2.0900    0.0000 C   0  0  0  0  0  0  0  0  0  0  0  0
    3.6870   -3.3275    0.0000 O   0  0  0  0  0  0  0  0  0  0  0  0
    6.5449   -3.3275    0.0000 C   0  0  0  0  0  0  0  0  0  0  0  0
  1  2  1  0  0  0  0
  2  3  1  0  0  0  0
  3  4  2  0  0  0  0
  1  5  1  0  0  0  0
  3  6  1  0  0  0  0
M  END
>  <cdx:groupId>
19

>  <cdx:fragmentId>
5

$$$$
