101129992.cdx
  Mrv1902 05222410192D          

 19 20  0  0  0  0            999 V2000
    7.6289  -15.4697    0.0000 N   0  0  0  0  0  0  0  0  0  0  0  0
    6.9145  -15.0572    0.0000 C   0  0  0  0  0  0  0  0  0  0  0  0
    6.9145  -14.2322    0.0000 C   0  0  1  0  0  0  0  0  0  0  0  0
    7.6289  -13.8197    0.0000 N   0  0  0  0  0  0  0  0  0  0  0  0
    8.3434  -14.2322    0.0000 C   0  0  0  0  0  0  0  0  0  0  0  0
    8.3434  -15.0572    0.0000 C   0  0  2  0  0  0  0  0  0  0  0  0
    6.2000  -15.4697    0.0000 O   0  0  0  0  0  0  0  0  0  0  0  0
    9.0579  -13.8197    0.0000 O   0  0  0  0  0  0  0  0  0  0  0  0
    9.0579  -16.2947    0.0000 C   0  0  0  0  0  0  0  0  0  0  0  0
    9.0579  -15.4697    0.0000 C   0  0  1  0  0  0  0  0  0  0  0  0
    9.7723  -15.0572    0.0000 C   0  0  0  0  0  0  0  0  0  0  0  0
   10.4868  -15.4697    0.0000 C   0  0  0  0  0  0  0  0  0  0  0  0
    6.2000  -13.8197    0.0000 C   0  0  0  0  0  0  0  0  0  0  0  0
    5.4855  -14.2322    0.0000 C   0  0  0  0  0  0  0  0  0  0  0  0
    5.4855  -15.0572    0.0000 C   0  0  0  0  0  0  0  0  0  0  0  0
    4.7710  -15.4697    0.0000 C   0  0  0  0  0  0  0  0  0  0  0  0
    4.0566  -15.0572    0.0000 C   0  0  0  0  0  0  0  0  0  0  0  0
    4.0566  -14.2322    0.0000 C   0  0  0  0  0  0  0  0  0  0  0  0
    4.7710  -13.8197    0.0000 C   0  0  0  0  0  0  0  0  0  0  0  0
  1  2  1  0  0  0  0
  2  3  1  0  0  0  0
  3  4  1  0  0  0  0
  4  5  1  0  0  0  0
  5  6  1  0  0  0  0
  6  1  1  6  0  0  0
  2  7  2  0  0  0  0
  5  8  2  0  0  0  0
 10  9  1  6  0  0  0
 10 11  1  0  0  0  0
 11 12  1  0  0  0  0
  6 10  1  0  0  0  0
 13 14  1  0  0  0  0
 14 15  1  0  0  0  0
 15 16  2  0  0  0  0
 16 17  1  0  0  0  0
 17 18  2  0  0  0  0
 18 19  1  0  0  0  0
 14 19  2  0  0  0  0
  3 13  1  6  0  0  0
M  END
>  <cdx:groupId>
232942

>  <cdx:fragmentId>
232887

$$$$
