12992.cdx
  Mrv1902 05222410272D          

  8  7  0  0  0  0            999 V2000
    3.3792   -3.9394    0.0000 C   0  0  0  0  0  0  0  0  0  0  0  0
    3.3792   -3.1144    0.0000 C   0  0  0  0  0  0  0  0  0  0  0  0
    4.0936   -2.7019    0.0000 C   0  0  0  0  0  0  0  0  0  0  0  0
    4.8081   -3.1144    0.0000 C   0  0  0  0  0  0  0  0  0  0  0  0
    5.5226   -2.7019    0.0000 C   0  0  0  0  0  0  0  0  0  0  0  0
    5.5226   -1.8769    0.0000 C   0  0  0  0  0  0  0  0  0  0  0  0
    6.2371   -3.1144    0.0000 C   0  0  0  0  0  0  0  0  0  0  0  0
    2.6647   -2.7019    0.0000 C   0  0  0  0  0  0  0  0  0  0  0  0
  1  2  1  0  0  0  0
  2  3  2  0  0  0  0
  3  4  1  0  0  0  0
  4  5  2  0  0  0  0
  5  6  1  0  0  0  0
  5  7  1  0  0  0  0
  2  8  1  0  0  0  0
M  END
>  <cdx:groupId>
25

>  <cdx:fragmentId>
5

$$$$
