130061.cdx
  Mrv1902 05222410232D          

 40 42  0  0  0  0            999 V2000
    8.8029  -11.3305    0.0000 C   0  0  0  0  0  0  0  0  0  0  0  0
    9.2068  -12.0499    0.0000 C   0  0  0  0  0  0  0  0  0  0  0  0
   10.0317  -12.0598    0.0000 C   0  0  0  0  0  0  0  0  0  0  0  0
   10.4528  -11.3503    0.0000 C   0  0  0  0  0  0  0  0  0  0  0  0
   10.0488  -10.6309    0.0000 C   0  0  0  0  0  0  0  0  0  0  0  0
    9.2239  -10.6211    0.0000 C   0  0  0  0  0  0  0  0  0  0  0  0
   11.2777  -11.3602    0.0000 O   0  0  0  0  0  0  0  0  0  0  0  0
   10.4356  -12.7791    0.0000 O   0  0  0  0  0  0  0  0  0  0  0  0
    6.0138   -9.6470    0.0000 C   0  0  0  0  0  0  0  0  0  0  0  0
    5.3043   -9.2260    0.0000 C   0  0  0  0  0  0  0  0  0  0  0  0
    5.3142   -8.4011    0.0000 C   0  0  0  0  0  0  0  0  0  0  0  0
    6.0336   -7.9971    0.0000 O   0  0  0  0  0  0  0  0  0  0  0  0
    4.6047   -7.9800    0.0000 O   0  0  0  0  0  0  0  0  0  0  0  0
    5.3439   -5.9262    0.0000 O   0  5  0  0  0  0  0  0  0  0  0  0
    6.0435   -7.1722    0.0000 O   0  0  0  0  0  0  0  0  0  0  0  0
    5.3340   -6.7512    0.0000 C   0  0  0  0  0  0  0  0  0  0  0  0
    5.3636   -4.2763    0.0000 O   0  0  0  0  0  0  0  0  0  0  0  0
    3.9447   -3.4343    0.0000 O   0  0  0  0  0  0  0  0  0  0  0  0
    3.2056   -5.4881    0.0000 C   0  0  0  0  0  0  0  0  0  0  0  0
    3.2154   -4.6631    0.0000 C   0  0  0  0  0  0  0  0  0  0  0  0
    3.9348   -4.2592    0.0000 C   0  0  0  0  0  0  0  0  0  0  0  0
    4.6443   -4.6803    0.0000 C   0  0  0  0  0  0  0  0  0  0  0  0
    4.6344   -5.5052    0.0000 C   0  0  0  0  0  0  0  0  0  0  0  0
    3.9150   -5.9091    0.0000 C   0  0  0  0  0  0  0  0  0  0  0  0
    3.9052   -6.7341    0.0000 C   0  0  0  0  0  0  0  0  0  0  0  0
    4.6146   -7.1551    0.0000 C   0  0  1  0  0  0  0  0  0  0  0  0
    5.9743  -12.9468    0.0000 O   0  0  0  0  0  0  0  0  0  0  0  0
    8.5743   -9.7041    0.0000 O   0  5  0  0  0  0  0  0  0  0  0  0
    8.4685  -10.5223    0.0000 Mg  0  2  0  0  0  0  0  0  0  0  0  0
    7.2207   -9.2463    0.0000 O   0  0  0  0  0  0  0  0  0  0  0  0
    7.7654   -9.8660    0.0000 C   0  0  0  0  0  0  0  0  0  0  0  0
    6.7035  -11.7179    0.0000 C   0  0  0  0  0  0  0  0  0  0  0  0
    5.9842  -12.1218    0.0000 C   0  0  0  0  0  0  0  0  0  0  0  0
    5.2747  -11.7008    0.0000 C   0  0  0  0  0  0  0  0  0  0  0  0
    5.2846  -10.8759    0.0000 C   0  0  0  0  0  0  0  0  0  0  0  0
    6.0039  -10.4720    0.0000 C   0  0  0  0  0  0  0  0  0  0  0  0
    6.7134  -10.8930    0.0000 C   0  0  0  0  0  0  0  0  0  0  0  0
    7.5010  -10.6475    0.0000 C   0  0  1  0  0  0  0  0  0  0  0  0
    7.9779  -11.3207    0.0000 C   0  0  2  0  0  0  0  0  0  0  0  0
    7.4851  -11.9822    0.0000 O   0  0  0  0  0  0  0  0  0  0  0  0
 39  1  1  1  0  0  0
 26 16  1  0  0  0  0
 16 14  1  0  0  0  0
 16 15  2  0  0  0  0
 25 24  1  0  0  0  0
 22 17  1  0  0  0  0
 21 18  1  0  0  0  0
 24 19  2  0  0  0  0
 20 19  1  0  0  0  0
 21 20  2  0  0  0  0
 22 21  1  0  0  0  0
 23 22  2  0  0  0  0
 24 23  1  0  0  0  0
 26 13  1  6  0  0  0
 26 25  1  0  0  0  0
 33 27  1  0  0  0  0
 38 31  1  6  0  0  0
 31 28  1  0  0  0  0
 31 30  2  0  0  0  0
 40 32  1  0  0  0  0
 37 32  2  0  0  0  0
 33 32  1  0  0  0  0
 34 33  2  0  0  0  0
 35 34  1  0  0  0  0
 36 35  2  0  0  0  0
 37 36  1  0  0  0  0
 38 37  1  0  0  0  0
 39 38  1  0  0  0  0
 40 39  1  0  0  0  0
  1  2  1  0  0  0  0
  2  3  2  0  0  0  0
  3  4  1  0  0  0  0
  4  5  2  0  0  0  0
  5  6  1  0  0  0  0
  1  6  2  0  0  0  0
  4  7  1  0  0  0  0
  3  8  1  0  0  0  0
  9 10  2  0  0  0  0
 10 11  1  0  0  0  0
 11 12  2  0  0  0  0
 11 13  1  0  0  0  0
 36  9  1  0  0  0  0
M  CHG  3  14  -1  28  -1  29   2
M  STY  1   1 SUP
M  SAL   1  2  28  29
M  SBL   1  1  18
M  SMT   1 O-Mg\S++
M  SAP   1  1  28  31  1
M  END
>  <cdx:fragmentId>
5

$$$$
