130138.cdx
  Mrv1902 05222410252D          

 23 27  0  0  0  0            999 V2000
    8.0580   -8.7235    0.0000 C   0  0  0  0  0  0  0  0  0  0  0  0
    7.3435   -9.1360    0.0000 C   0  0  0  0  0  0  0  0  0  0  0  0
    6.6290   -8.7235    0.0000 C   0  0  0  0  0  0  0  0  0  0  0  0
    5.9146   -9.1360    0.0000 C   0  0  0  0  0  0  0  0  0  0  0  0
    5.1299   -8.8810    0.0000 O   0  0  0  0  0  0  0  0  0  0  0  0
    4.6450   -9.5485    0.0000 C   0  0  0  0  0  0  0  0  0  0  0  0
    5.1299  -10.2159    0.0000 O   0  0  0  0  0  0  0  0  0  0  0  0
    5.9146   -9.9610    0.0000 C   0  0  0  0  0  0  0  0  0  0  0  0
    6.6290  -10.3735    0.0000 C   0  0  0  0  0  0  0  0  0  0  0  0
    7.3435   -9.9610    0.0000 C   0  0  0  0  0  0  0  0  0  0  0  0
    8.0580  -10.3735    0.0000 C   0  0  0  0  0  0  0  0  0  0  0  0
    8.7724   -9.9610    0.0000 N   0  0  0  0  0  0  0  0  0  0  0  0
    9.5894  -10.0825    0.0000 C   0  0  0  0  0  0  0  0  0  0  0  0
   10.0019   -9.3680    0.0000 C   0  0  0  0  0  0  0  0  0  0  0  0
    9.4869   -8.7235    0.0000 C   0  0  0  0  0  0  0  0  0  0  0  0
    9.4869   -7.8985    0.0000 C   0  0  0  0  0  0  0  0  0  0  0  0
    8.7724   -7.4860    0.0000 C   0  0  0  0  0  0  0  0  0  0  0  0
    8.0580   -7.8985    0.0000 C   0  0  0  0  0  0  0  0  0  0  0  0
    8.7724   -9.1360    0.0000 C   0  0  0  0  0  0  0  0  0  0  0  0
    8.0580  -11.1985    0.0000 O   0  0  0  0  0  0  0  0  0  0  0  0
   10.0019  -10.7969    0.0000 C   0  0  0  0  0  0  0  0  0  0  0  0
    8.7724   -6.6610    0.0000 O   0  0  0  0  0  0  0  0  0  0  0  0
    9.4869   -6.2485    0.0000 C   0  0  0  0  0  0  0  0  0  0  0  0
  1  2  1  0  0  0  0
  2  3  2  0  0  0  0
  3  4  1  0  0  0  0
  4  5  1  0  0  0  0
  5  6  1  0  0  0  0
  6  7  1  0  0  0  0
  7  8  1  0  0  0  0
  8  9  1  0  0  0  0
  9 10  2  0  0  0  0
 10 11  1  0  0  0  0
 11 12  1  0  0  0  0
 12 13  1  0  0  0  0
 13 14  2  0  0  0  0
 14 15  1  0  0  0  0
 15 16  2  0  0  0  0
 16 17  1  0  0  0  0
 17 18  2  0  0  0  0
  1 18  1  0  0  0  0
  1 19  2  0  0  0  0
 19 12  1  0  0  0  0
  2 10  1  0  0  0  0
  4  8  2  0  0  0  0
 15 19  1  0  0  0  0
 11 20  2  0  0  0  0
 13 21  1  0  0  0  0
 22 23  1  0  0  0  0
 17 22  1  0  0  0  0
M  END
>  <cdx:fragmentId>
152910

$$$$
