13043.cdx
  Mrv1902 05222410262D          

 12 13  0  0  0  0            999 V2000
    3.6193   -4.0425    0.0000 C   0  0  0  0  0  0  0  0  0  0  0  0
    3.6193   -4.8675    0.0000 C   0  0  0  0  0  0  0  0  0  0  0  0
    2.9048   -5.2800    0.0000 C   0  0  0  0  0  0  0  0  0  0  0  0
    2.1903   -4.8675    0.0000 C   0  0  0  0  0  0  0  0  0  0  0  0
    2.1903   -4.0425    0.0000 C   0  0  0  0  0  0  0  0  0  0  0  0
    2.9048   -3.6300    0.0000 C   0  0  0  0  0  0  0  0  0  0  0  0
    4.3337   -3.6300    0.0000 C   0  0  0  0  0  0  0  0  0  0  0  0
    4.3337   -2.8050    0.0000 C   0  0  0  0  0  0  0  0  0  0  0  0
    5.0482   -2.3925    0.0000 C   0  0  0  0  0  0  0  0  0  0  0  0
    5.7627   -2.8050    0.0000 C   0  0  0  0  0  0  0  0  0  0  0  0
    5.7627   -3.6300    0.0000 C   0  0  0  0  0  0  0  0  0  0  0  0
    5.0482   -4.0425    0.0000 C   0  0  0  0  0  0  0  0  0  0  0  0
  1  2  2  0  0  0  0
  2  3  1  0  0  0  0
  3  4  1  0  0  0  0
  4  5  1  0  0  0  0
  5  6  1  0  0  0  0
  1  6  1  0  0  0  0
  7  8  1  0  0  0  0
  8  9  2  0  0  0  0
  9 10  1  0  0  0  0
 10 11  2  0  0  0  0
 11 12  1  0  0  0  0
  7 12  2  0  0  0  0
  1  7  1  0  0  0  0
M  END
>  <cdx:groupId>
39

>  <cdx:fragmentId>
17

$$$$
