130539.cdx
  Mrv1902 05222410232D          

 45 49  0  0  0  0            999 V2000
   18.3266  -12.3955    0.0000 O   0  0  0  0  0  0  0  0  0  0  0  0
   19.0411  -12.8080    0.0000 C   0  0  1  0  0  0  0  0  0  0  0  0
   19.7556  -12.3955    0.0000 C   0  0  2  0  0  0  0  0  0  0  0  0
   19.7556  -11.5705    0.0000 C   0  0  1  0  0  0  0  0  0  0  0  0
   19.0411  -11.1580    0.0000 C   0  0  2  0  0  0  0  0  0  0  0  0
   18.3266  -11.5705    0.0000 C   0  0  2  0  0  0  0  0  0  0  0  0
   20.4701  -12.8080    0.0000 O   0  0  0  0  0  0  0  0  0  0  0  0
   20.4701  -11.1580    0.0000 O   0  0  0  0  0  0  0  0  0  0  0  0
   19.0411  -10.3330    0.0000 O   0  0  0  0  0  0  0  0  0  0  0  0
   17.6122  -11.1580    0.0000 O   0  0  0  0  0  0  0  0  0  0  0  0
   16.8977  -12.3955    0.0000 C   0  0  0  0  0  0  0  0  0  0  0  0
   16.8977  -11.5705    0.0000 C   0  0  0  0  0  0  0  0  0  0  0  0
   16.1832  -11.1580    0.0000 C   0  0  0  0  0  0  0  0  0  0  0  0
   15.4688  -11.5705    0.0000 C   0  0  0  0  0  0  0  0  0  0  0  0
   15.4688  -12.3955    0.0000 C   0  0  0  0  0  0  0  0  0  0  0  0
   14.7543  -12.8080    0.0000 C   0  0  0  0  0  0  0  0  0  0  0  0
   14.0398  -12.3955    0.0000 C   0  0  0  0  0  0  0  0  0  0  0  0
   13.3253  -12.8080    0.0000 C   0  0  0  0  0  0  0  0  0  0  0  0
   13.3253  -13.6330    0.0000 C   0  0  0  0  0  0  0  0  0  0  0  0
   14.0398  -14.0455    0.0000 C   0  0  0  0  0  0  0  0  0  0  0  0
   14.7543  -13.6330    0.0000 C   0  0  0  0  0  0  0  0  0  0  0  0
   15.4688  -14.0455    0.0000 C   0  0  0  0  0  0  0  0  0  0  0  0
   16.1832  -13.6330    0.0000 C   0  0  0  0  0  0  0  0  0  0  0  0
   16.1832  -12.8080    0.0000 C   0  0  0  0  0  0  0  0  0  0  0  0
   13.3253  -14.4580    0.0000 C   0  0  0  0  0  0  0  0  0  0  0  0
   14.7543  -11.9830    0.0000 C   0  0  0  0  0  0  0  0  0  0  0  0
   17.7227  -12.3955    0.0000 C   0  0  0  0  0  0  0  0  0  0  0  0
   17.3102  -13.1100    0.0000 C   0  0  0  0  0  0  0  0  0  0  0  0
   12.6109  -14.0455    0.0000 C   0  0  0  0  0  0  0  0  0  0  0  0
   12.6109  -14.8705    0.0000 C   0  0  0  0  0  0  0  0  0  0  0  0
   11.8964  -13.6330    0.0000 O   0  0  0  0  0  0  0  0  0  0  0  0
   12.6109  -12.3955    0.0000 O   0  0  0  0  0  0  0  0  0  0  0  0
   11.8964  -12.8080    0.0000 C   0  0  2  0  0  0  0  0  0  0  0  0
   11.1819  -12.3955    0.0000 C   0  0  1  0  0  0  0  0  0  0  0  0
   11.1819  -11.5705    0.0000 C   0  0  2  0  0  0  0  0  0  0  0  0
   11.8964  -11.1580    0.0000 C   0  0  1  0  0  0  0  0  0  0  0  0
   12.6109  -11.5705    0.0000 C   0  0  1  0  0  0  0  0  0  0  0  0
   13.3253  -11.1580    0.0000 C   0  0  0  0  0  0  0  0  0  0  0  0
   14.0398  -11.5705    0.0000 O   0  0  0  0  0  0  0  0  0  0  0  0
   11.8964  -10.3330    0.0000 O   0  0  0  0  0  0  0  0  0  0  0  0
   10.4675  -11.1580    0.0000 O   0  0  0  0  0  0  0  0  0  0  0  0
   10.4675  -12.8080    0.0000 O   0  0  0  0  0  0  0  0  0  0  0  0
   13.3253  -15.2830    0.0000 O   0  0  0  0  0  0  0  0  0  0  0  0
   19.0411  -13.6330    0.0000 C   0  0  0  0  0  0  0  0  0  0  0  0
   19.7556  -14.0455    0.0000 O   0  0  0  0  0  0  0  0  0  0  0  0
  1  2  1  0  0  0  0
  2  3  1  0  0  0  0
  3  4  1  0  0  0  0
  4  5  1  0  0  0  0
  5  6  1  0  0  0  0
  1  6  1  0  0  0  0
  3  7  1  6  0  0  0
  4  8  1  1  0  0  0
  5  9  1  6  0  0  0
 11 12  1  0  0  0  0
 12 13  1  0  0  0  0
 13 14  1  0  0  0  0
 14 15  1  0  0  0  0
 15 16  1  0  0  0  0
 16 17  1  0  0  0  0
 17 18  1  0  0  0  0
 18 19  1  0  0  0  0
 19 20  1  0  0  0  0
 20 21  2  0  0  0  0
 16 21  1  0  0  0  0
 21 22  1  0  0  0  0
 22 23  1  0  0  0  0
 23 24  1  0  0  0  0
 11 24  1  0  0  0  0
 15 24  1  0  0  0  0
 19 25  1  0  0  0  0
 15 26  1  0  0  0  0
 11 27  1  0  0  0  0
 11 28  1  0  0  0  0
 29 30  1  0  0  0  0
 32 33  1  0  0  0  0
 33 34  1  0  0  0  0
 34 35  1  0  0  0  0
 35 36  1  0  0  0  0
 36 37  1  0  0  0  0
 32 37  1  0  0  0  0
 38 39  1  0  0  0  0
 37 38  1  1  0  0  0
 36 40  1  6  0  0  0
 35 41  1  1  0  0  0
 34 42  1  6  0  0  0
 33 31  1  1  0  0  0
 29 31  1  0  0  0  0
 30 43  1  0  0  0  0
 19 29  1  0  0  0  0
 10 12  1  0  0  0  0
  6 10  1  1  0  0  0
 44 45  1  0  0  0  0
  2 44  1  1  0  0  0
M  END
>  <cdx:groupId>
6989

>  <cdx:fragmentId>
6873

$$$$
