13057.cdx
  Mrv1902 05222410262D          

 31 34  0  0  0  0            999 V2000
    3.7931   -4.9708    0.0000 O   0  0  0  0  0  0  0  0  0  0  0  0
    4.5075   -5.3833    0.0000 C   0  0  0  0  0  0  0  0  0  0  0  0
    4.5075   -6.2083    0.0000 C   0  0  0  0  0  0  0  0  0  0  0  0
    3.7931   -6.6208    0.0000 O   0  0  0  0  0  0  0  0  0  0  0  0
    5.2220   -4.9708    0.0000 C   0  0  0  0  0  0  0  0  0  0  0  0
    5.9365   -5.3833    0.0000 C   0  0  0  0  0  0  0  0  0  0  0  0
    5.9365   -6.2083    0.0000 C   0  0  0  0  0  0  0  0  0  0  0  0
    5.2220   -6.6208    0.0000 C   0  0  0  0  0  0  0  0  0  0  0  0
    6.6509   -4.9708    0.0000 O   0  0  0  0  0  0  0  0  0  0  0  0
    7.3654   -5.3833    0.0000 C   0  0  0  0  0  0  0  0  0  0  0  0
    7.3654   -6.2083    0.0000 C   0  0  0  0  0  0  0  0  0  0  0  0
    6.6509   -6.6208    0.0000 C   0  0  0  0  0  0  0  0  0  0  0  0
    8.0799   -4.9708    0.0000 C   0  0  0  0  0  0  0  0  0  0  0  0
    8.7944   -5.3833    0.0000 C   0  0  0  0  0  0  0  0  0  0  0  0
    8.7944   -6.2083    0.0000 C   0  0  0  0  0  0  0  0  0  0  0  0
    8.0799   -6.6208    0.0000 C   0  0  0  0  0  0  0  0  0  0  0  0
    9.5088   -4.9708    0.0000 O   0  0  0  0  0  0  0  0  0  0  0  0
   10.2233   -5.3833    0.0000 O   0  0  0  0  0  0  0  0  0  0  0  0
   10.2233   -6.2083    0.0000 C   0  0  1  0  0  0  0  0  0  0  0  0
    9.5088   -6.6208    0.0000 C   0  0  1  0  0  0  0  0  0  0  0  0
   10.9378   -6.6208    0.0000 C   0  0  2  0  0  0  0  0  0  0  0  0
   10.9378   -7.4458    0.0000 C   0  0  1  0  0  0  0  0  0  0  0  0
   10.2233   -7.8583    0.0000 C   0  0  2  0  0  0  0  0  0  0  0  0
    9.5088   -7.4458    0.0000 O   0  0  0  0  0  0  0  0  0  0  0  0
    6.6509   -7.4458    0.0000 O   0  0  0  0  0  0  0  0  0  0  0  0
    8.0799   -7.4458    0.0000 O   0  0  0  0  0  0  0  0  0  0  0  0
   10.2233   -8.6833    0.0000 C   0  0  0  0  0  0  0  0  0  0  0  0
   10.9378   -9.0958    0.0000 O   0  0  0  0  0  0  0  0  0  0  0  0
    8.7944   -7.0333    0.0000 H   0  0  0  0  0  0  0  0  0  0  0  0
   11.6522   -7.8583    0.0000 O   0  0  0  0  0  0  0  0  0  0  0  0
   11.6522   -6.2083    0.0000 O   0  0  0  0  0  0  0  0  0  0  0  0
  1  2  1  0  0  0  0
  2  3  2  0  0  0  0
  3  4  1  0  0  0  0
  2  5  1  0  0  0  0
  5  6  2  0  0  0  0
  6  7  1  0  0  0  0
  7  8  2  0  0  0  0
  8  3  1  0  0  0  0
  6  9  1  0  0  0  0
  9 10  1  0  0  0  0
 10 11  2  0  0  0  0
 11 12  1  0  0  0  0
 12  7  1  0  0  0  0
 10 13  1  0  0  0  0
 13 14  2  0  0  0  0
 14 15  1  0  0  0  0
 15 16  2  0  0  0  0
 16 11  1  0  0  0  0
 14 17  1  0  0  0  0
 19 18  1  6  0  0  0
 19 20  1  0  0  0  0
 20 15  1  0  0  0  0
 19 21  1  0  0  0  0
 21 22  1  0  0  0  0
 22 23  1  0  0  0  0
 23 24  1  0  0  0  0
 24 20  1  0  0  0  0
 12 25  2  0  0  0  0
 16 26  1  0  0  0  0
 23 27  1  1  0  0  0
 27 28  1  0  0  0  0
 20 29  1  6  0  0  0
 22 30  1  6  0  0  0
 21 31  1  1  0  0  0
M  END
>  <cdx:fragmentId>
5

$$$$
