13058.cdx
  Mrv1902 05222410192D          

 14 16  0  0  0  0            999 V2000
    9.1727   -5.6581    0.0000 C   0  0  0  0  0  0  0  0  0  0  0  0
    9.1727   -4.8331    0.0000 C   0  0  0  0  0  0  0  0  0  0  0  0
    8.4582   -4.4206    0.0000 C   0  0  0  0  0  0  0  0  0  0  0  0
    7.7437   -4.8331    0.0000 C   0  0  0  0  0  0  0  0  0  0  0  0
    7.7437   -5.6581    0.0000 C   0  0  0  0  0  0  0  0  0  0  0  0
    7.0293   -6.0706    0.0000 C   0  0  0  0  0  0  0  0  0  0  0  0
    6.3148   -5.6581    0.0000 C   0  0  0  0  0  0  0  0  0  0  0  0
    5.6003   -6.0706    0.0000 C   0  0  0  0  0  0  0  0  0  0  0  0
    5.6003   -6.8956    0.0000 C   0  0  0  0  0  0  0  0  0  0  0  0
    6.3148   -7.3081    0.0000 C   0  0  0  0  0  0  0  0  0  0  0  0
    7.0293   -6.8956    0.0000 C   0  0  0  0  0  0  0  0  0  0  0  0
    7.7437   -7.3081    0.0000 C   0  0  0  0  0  0  0  0  0  0  0  0
    8.4582   -6.8956    0.0000 C   0  0  0  0  0  0  0  0  0  0  0  0
    8.4582   -6.0706    0.0000 C   0  0  0  0  0  0  0  0  0  0  0  0
  1  2  1  0  0  0  0
  2  3  2  0  0  0  0
  3  4  1  0  0  0  0
  4  5  2  0  0  0  0
  5  6  1  0  0  0  0
  6  7  1  0  0  0  0
  7  8  2  0  0  0  0
  8  9  1  0  0  0  0
  9 10  2  0  0  0  0
 10 11  1  0  0  0  0
  6 11  2  0  0  0  0
 11 12  1  0  0  0  0
 12 13  1  0  0  0  0
 13 14  1  0  0  0  0
  1 14  2  0  0  0  0
  5 14  1  0  0  0  0
M  END
>  <cdx:fragmentId>
5

$$$$
