130555.cdx
  Mrv1902 05222410192D          

 43 48  0  0  0  0            999 V2000
    7.8755  -11.0168    0.0000 C   0  0  2  0  0  0  0  0  0  0  0  0
    7.8755  -11.8418    0.0000 C   0  0  2  0  0  0  0  0  0  0  0  0
    7.1610  -12.2543    0.0000 C   0  0  0  0  0  0  0  0  0  0  0  0
    6.4465  -11.8418    0.0000 C   0  0  0  0  0  0  0  0  0  0  0  0
    5.7321  -12.2543    0.0000 C   0  0  0  0  0  0  0  0  0  0  0  0
    5.0176  -11.8418    0.0000 C   0  0  0  0  0  0  0  0  0  0  0  0
    5.0176  -11.0168    0.0000 C   0  0  0  0  0  0  0  0  0  0  0  0
    5.7321  -10.6043    0.0000 C   0  0  0  0  0  0  0  0  0  0  0  0
    6.4465  -11.0168    0.0000 C   0  0  0  0  0  0  0  0  0  0  0  0
    7.1610  -10.6043    0.0000 O   0  0  0  0  0  0  0  0  0  0  0  0
    8.5900  -12.2543    0.0000 O   0  0  0  0  0  0  0  0  0  0  0  0
    5.7321  -13.0793    0.0000 O   0  0  0  0  0  0  0  0  0  0  0  0
    4.3031  -10.6043    0.0000 O   0  0  0  0  0  0  0  0  0  0  0  0
    6.4465   -8.0468    0.0000 C   0  0  2  0  0  0  0  0  0  0  0  0
    6.4465   -8.8718    0.0000 C   0  0  1  0  0  0  0  0  0  0  0  0
    5.7321   -9.2843    0.0000 C   0  0  2  0  0  0  0  0  0  0  0  0
    5.0176   -8.8718    0.0000 C   0  0  0  0  0  0  0  0  0  0  0  0
    4.3031   -9.2843    0.0000 C   0  0  0  0  0  0  0  0  0  0  0  0
    3.5887   -8.8718    0.0000 C   0  0  0  0  0  0  0  0  0  0  0  0
    3.5887   -8.0468    0.0000 C   0  0  0  0  0  0  0  0  0  0  0  0
    4.3031   -7.6343    0.0000 C   0  0  0  0  0  0  0  0  0  0  0  0
    5.0176   -8.0468    0.0000 C   0  0  0  0  0  0  0  0  0  0  0  0
    5.7321   -7.6343    0.0000 O   0  0  0  0  0  0  0  0  0  0  0  0
    2.8742   -7.6343    0.0000 O   0  0  0  0  0  0  0  0  0  0  0  0
    4.3031  -10.1093    0.0000 O   0  0  0  0  0  0  0  0  0  0  0  0
    7.1610   -9.2843    0.0000 O   0  0  0  0  0  0  0  0  0  0  0  0
    7.1610   -7.6343    0.0000 C   0  0  0  0  0  0  0  0  0  0  0  0
    7.8755   -8.0468    0.0000 C   0  0  0  0  0  0  0  0  0  0  0  0
    8.5900   -7.6343    0.0000 C   0  0  0  0  0  0  0  0  0  0  0  0
    8.5900   -6.8093    0.0000 C   0  0  0  0  0  0  0  0  0  0  0  0
    7.8755   -6.3968    0.0000 C   0  0  0  0  0  0  0  0  0  0  0  0
    7.1610   -6.8093    0.0000 C   0  0  0  0  0  0  0  0  0  0  0  0
    9.3044   -6.3968    0.0000 O   0  0  0  0  0  0  0  0  0  0  0  0
    9.3044   -8.0468    0.0000 O   0  0  0  0  0  0  0  0  0  0  0  0
    8.5900  -10.6043    0.0000 C   0  0  0  0  0  0  0  0  0  0  0  0
    9.3044  -11.0168    0.0000 C   0  0  0  0  0  0  0  0  0  0  0  0
   10.0189  -10.6043    0.0000 C   0  0  0  0  0  0  0  0  0  0  0  0
   10.0189   -9.7793    0.0000 C   0  0  0  0  0  0  0  0  0  0  0  0
    9.3044   -9.3668    0.0000 C   0  0  0  0  0  0  0  0  0  0  0  0
    8.5900   -9.7793    0.0000 C   0  0  0  0  0  0  0  0  0  0  0  0
   10.7334   -9.3668    0.0000 O   0  0  0  0  0  0  0  0  0  0  0  0
   10.7334  -11.0168    0.0000 O   0  0  0  0  0  0  0  0  0  0  0  0
    6.4465   -9.6968    0.0000 H   0  0  0  0  0  0  0  0  0  0  0  0
  1  2  1  0  0  0  0
  2  3  1  0  0  0  0
  3  4  1  0  0  0  0
  4  5  1  0  0  0  0
  5  6  2  0  0  0  0
  6  7  1  0  0  0  0
  7  8  2  0  0  0  0
  8  9  1  0  0  0  0
  4  9  2  0  0  0  0
  9 10  1  0  0  0  0
  1 10  1  0  0  0  0
  2 11  1  1  0  0  0
  5 12  1  0  0  0  0
  7 13  1  0  0  0  0
 14 15  1  0  0  0  0
 15 16  1  0  0  0  0
 16 17  1  0  0  0  0
 17 18  1  0  0  0  0
 18 19  2  0  0  0  0
 19 20  1  0  0  0  0
 20 21  2  0  0  0  0
 21 22  1  0  0  0  0
 17 22  2  0  0  0  0
 22 23  1  0  0  0  0
 14 23  1  0  0  0  0
 20 24  1  0  0  0  0
 18 25  1  0  0  0  0
 15 26  1  6  0  0  0
 27 28  1  0  0  0  0
 28 29  2  0  0  0  0
 29 30  1  0  0  0  0
 30 31  2  0  0  0  0
 31 32  1  0  0  0  0
 27 32  2  0  0  0  0
 30 33  1  0  0  0  0
 29 34  1  0  0  0  0
 14 27  1  6  0  0  0
  8 16  1  0  0  0  0
 35 36  1  0  0  0  0
 36 37  2  0  0  0  0
 37 38  1  0  0  0  0
 38 39  2  0  0  0  0
 39 40  1  0  0  0  0
 35 40  2  0  0  0  0
 38 41  1  0  0  0  0
 37 42  1  0  0  0  0
  1 35  1  6  0  0  0
 16 43  1  6  0  0  0
M  END
>  <cdx:fragmentId>
3821

$$$$
