1305.cdx
  Mrv1902 05222410272D          

 15 16  0  0  0  0            999 V2000
    6.9999   -6.2228    0.0000 C   0  0  1  0  0  0  0  0  0  0  0  0
    7.7967   -6.0087    0.0000 C   0  0  1  0  0  0  0  0  0  0  0  0
    8.5934   -6.2228    0.0000 C   0  0  0  0  0  0  0  0  0  0  0  0
    9.0071   -5.5091    0.0000 C   0  0  0  0  0  0  0  0  0  0  0  0
    6.9323   -5.5916    0.0000 C   0  0  0  0  0  0  0  0  0  0  0  0
    8.2103   -5.2950    0.0000 C   0  0  1  0  0  0  0  0  0  0  0  0
    7.7981   -4.5813    0.0000 C   0  0  0  0  0  0  0  0  0  0  0  0
    7.2148   -3.9980    0.0000 C   0  0  0  0  0  0  0  0  0  0  0  0
    8.0116   -3.7844    0.0000 C   0  0  0  0  0  0  0  0  0  0  0  0
    6.5336   -6.9034    0.0000 O   0  0  0  0  0  0  0  0  0  0  0  0
    5.7086   -6.9034    0.0000 C   0  0  0  0  0  0  0  0  0  0  0  0
    5.2961   -7.6179    0.0000 C   0  0  0  0  0  0  0  0  0  0  0  0
    5.2961   -6.1889    0.0000 O   0  0  0  0  0  0  0  0  0  0  0  0
    7.5831   -6.8056    0.0000 C   0  0  0  0  0  0  0  0  0  0  0  0
    8.6228   -4.5806    0.0000 H   0  0  0  0  0  0  0  0  0  0  0  0
  1  2  1  0  0  0  0
  2  3  1  0  0  0  0
  3  4  1  0  0  0  0
  1  5  1  0  0  0  0
  5  6  1  0  0  0  0
  4  6  1  0  0  0  0
  6  7  1  0  0  0  0
  2  7  1  0  0  0  0
  7  8  1  0  0  0  0
  7  9  1  0  0  0  0
  1 10  1  6  0  0  0
 10 11  1  0  0  0  0
 11 12  1  0  0  0  0
 11 13  2  0  0  0  0
  2 14  1  1  0  0  0
  6 15  1  6  0  0  0
M  END
>  <cdx:fragmentId>
819

$$$$
