13060.cdx
  Mrv1902 05222410192D          

 34 35  0  0  0  0            999 V2000
    7.5726  -11.6924    0.0000 O   0  0  0  0  0  0  0  0  0  0  0  0
    6.1427  -10.8690    0.0000 O   0  0  0  0  0  0  0  0  0  0  0  0
    6.1399   -8.3940    0.0000 O   0  0  0  0  0  0  0  0  0  0  0  0
    5.4177   -7.9952    0.0000 C   0  0  2  0  0  0  0  0  0  0  0  0
    4.7112   -8.4213    0.0000 C   0  0  2  0  0  0  0  0  0  0  0  0
    4.7270   -9.2461    0.0000 O   0  0  0  0  0  0  0  0  0  0  0  0
   10.4117   -8.3638    0.0000 O   0  0  0  0  0  0  0  0  0  0  0  0
   11.1025   -7.1129    0.0000 O   0  0  0  0  0  0  0  0  0  0  0  0
    9.6895   -7.9649    0.0000 C   0  0  2  0  0  0  0  0  0  0  0  0
    8.9830   -8.3909    0.0000 C   0  0  0  0  0  0  0  0  0  0  0  0
    9.0006  -10.8658    0.0000 O   0  0  0  0  0  0  0  0  0  0  0  0
    8.9987   -9.2158    0.0000 O   0  0  0  0  0  0  0  0  0  0  0  0
    5.4019   -7.1704    0.0000 O   0  0  0  0  0  0  0  0  0  0  0  0
   10.3804   -6.7141    0.0000 C   0  0  1  0  0  0  0  0  0  0  0  0
    9.6739   -7.1401    0.0000 C   0  0  2  0  0  0  0  0  0  0  0  0
   11.0712   -5.4632    0.0000 C   0  0  0  0  0  0  0  0  0  0  0  0
   10.3647   -5.8892    0.0000 C   0  0  2  0  0  0  0  0  0  0  0  0
   11.0555   -4.6384    0.0000 O   0  0  0  0  0  0  0  0  0  0  0  0
    8.9517   -6.7412    0.0000 O   0  0  0  0  0  0  0  0  0  0  0  0
    4.6797   -6.7716    0.0000 C   0  0  1  0  0  0  0  0  0  0  0  0
    3.9732   -7.1977    0.0000 C   0  0  1  0  0  0  0  0  0  0  0  0
    3.9890   -8.0225    0.0000 C   0  0  2  0  0  0  0  0  0  0  0  0
    4.6639   -5.9467    0.0000 C   0  0  0  0  0  0  0  0  0  0  0  0
    3.9417   -5.5480    0.0000 O   0  0  0  0  0  0  0  0  0  0  0  0
    9.6425   -5.4904    0.0000 O   0  0  0  0  0  0  0  0  0  0  0  0
    3.2825   -8.4486    0.0000 O   0  0  0  0  0  0  0  0  0  0  0  0
    3.2510   -6.7989    0.0000 O   0  0  0  0  0  0  0  0  0  0  0  0
    6.1408   -9.2190    0.0000 C   0  0  0  0  0  0  0  0  0  0  0  0
    8.2847   -9.6291    0.0000 C   0  0  1  0  0  0  0  0  0  0  0  0
    7.5698   -9.2174    0.0000 O   0  0  0  0  0  0  0  0  0  0  0  0
    6.8557   -9.6307    0.0000 C   0  0  1  0  0  0  0  0  0  0  0  0
    6.8567  -10.4557    0.0000 C   0  0  1  0  0  0  0  0  0  0  0  0
    7.5716  -10.8674    0.0000 C   0  0  1  0  0  0  0  0  0  0  0  0
    8.2856  -10.4541    0.0000 C   0  0  1  0  0  0  0  0  0  0  0  0
 33  1  1  1  0  0  0
 32  2  1  1  0  0  0
 34 11  1  6  0  0  0
  9  7  1  6  0  0  0
  4  3  1  6  0  0  0
  4  5  1  0  0  0  0
  5  6  1  6  0  0  0
  9 10  1  0  0  0  0
 10 12  1  0  0  0  0
 14  8  1  1  0  0  0
 14 15  1  0  0  0  0
 15  9  1  0  0  0  0
 29 12  1  6  0  0  0
 16 17  1  0  0  0  0
 17 14  1  0  0  0  0
 16 18  2  0  0  0  0
 15 19  1  1  0  0  0
  4 13  1  0  0  0  0
 13 20  1  0  0  0  0
 20 21  1  0  0  0  0
 21 22  1  0  0  0  0
 22  5  1  0  0  0  0
 20 23  1  1  0  0  0
 23 24  1  0  0  0  0
 22 26  1  1  0  0  0
 28  3  1  0  0  0  0
 31 28  1  1  0  0  0
 17 25  1  1  0  0  0
 21 27  1  1  0  0  0
 29 34  1  0  0  0  0
 30 29  1  0  0  0  0
 31 30  1  0  0  0  0
 32 31  1  0  0  0  0
 33 32  1  0  0  0  0
 34 33  1  0  0  0  0
M  END
>  <cdx:fragmentId>
5

$$$$
