13087.cdx
  Mrv1902 05222410272D          

 26 28  0  0  0  0            999 V2000
    9.6115   -8.3325    0.0000 O   0  0  0  0  0  0  0  0  0  0  0  0
    9.0593   -8.9454    0.0000 C   0  0  0  0  0  0  0  0  0  0  0  0
    8.3057   -8.6097    0.0000 C   0  0  1  0  0  0  0  0  0  0  0  0
    8.3922   -7.7892    0.0000 C   0  0  2  0  0  0  0  0  0  0  0  0
    9.1992   -7.6179    0.0000 C   0  0  0  0  0  0  0  0  0  0  0  0
    9.2307   -9.7524    0.0000 O   0  0  0  0  0  0  0  0  0  0  0  0
    7.5912   -9.0220    0.0000 C   0  0  0  0  0  0  0  0  0  0  0  0
    6.8768   -8.6094    0.0000 C   0  0  0  0  0  0  0  0  0  0  0  0
    6.8770   -7.7844    0.0000 C   0  0  0  0  0  0  0  0  0  0  0  0
    6.1626   -7.3717    0.0000 C   0  0  0  0  0  0  0  0  0  0  0  0
    5.4480   -7.7840    0.0000 C   0  0  0  0  0  0  0  0  0  0  0  0
    5.4479   -8.6090    0.0000 C   0  0  0  0  0  0  0  0  0  0  0  0
    6.1622   -9.0217    0.0000 C   0  0  0  0  0  0  0  0  0  0  0  0
    4.7337   -7.3714    0.0000 O   0  0  0  0  0  0  0  0  0  0  0  0
    6.1628   -6.5467    0.0000 O   0  0  0  0  0  0  0  0  0  0  0  0
    5.4483   -6.1342    0.0000 C   0  0  0  0  0  0  0  0  0  0  0  0
    7.7792   -7.2371    0.0000 C   0  0  0  0  0  0  0  0  0  0  0  0
    7.9509   -6.4301    0.0000 C   0  0  0  0  0  0  0  0  0  0  0  0
    7.3379   -5.8780    0.0000 C   0  0  0  0  0  0  0  0  0  0  0  0
    7.5096   -5.0710    0.0000 C   0  0  0  0  0  0  0  0  0  0  0  0
    8.2943   -4.8163    0.0000 C   0  0  0  0  0  0  0  0  0  0  0  0
    8.9073   -5.3684    0.0000 C   0  0  0  0  0  0  0  0  0  0  0  0
    8.7356   -6.1754    0.0000 C   0  0  0  0  0  0  0  0  0  0  0  0
    6.8967   -4.5189    0.0000 O   0  0  0  0  0  0  0  0  0  0  0  0
    6.1120   -4.7736    0.0000 C   0  0  0  0  0  0  0  0  0  0  0  0
    8.4660   -4.0093    0.0000 O   0  0  0  0  0  0  0  0  0  0  0  0
  1  2  1  0  0  0  0
  2  3  1  0  0  0  0
  3  4  1  0  0  0  0
  4  5  1  0  0  0  0
  1  5  1  0  0  0  0
  2  6  2  0  0  0  0
  8  9  1  0  0  0  0
  9 10  2  0  0  0  0
 10 11  1  0  0  0  0
 11 12  2  0  0  0  0
 12 13  1  0  0  0  0
  8 13  2  0  0  0  0
 11 14  1  0  0  0  0
 15 16  1  0  0  0  0
 10 15  1  0  0  0  0
  7  8  1  0  0  0  0
  3  7  1  6  0  0  0
 18 19  1  0  0  0  0
 19 20  2  0  0  0  0
 20 21  1  0  0  0  0
 21 22  2  0  0  0  0
 22 23  1  0  0  0  0
 18 23  2  0  0  0  0
 24 25  1  0  0  0  0
 20 24  1  0  0  0  0
 21 26  1  0  0  0  0
 17 18  1  0  0  0  0
  4 17  1  1  0  0  0
M  END
>  <cdx:groupId>
21491

>  <cdx:fragmentId>
21408

$$$$
