130899.cdx
  Mrv1902 05222410222D          

 84 95  0  0  0  0            999 V2000
    9.2620   -9.4046    0.0000 O   0  0  0  0  0  0  0  0  0  0  0  0
    9.2884   -7.7548    0.0000 O   0  0  0  0  0  0  0  0  0  0  0  0
    7.1387   -8.1329    0.0000 C   0  0  0  0  0  0  0  0  0  0  0  0
    7.8596   -7.7319    0.0000 C   0  0  0  0  0  0  0  0  0  0  0  0
    8.5674   -8.1558    0.0000 C   0  0  0  0  0  0  0  0  0  0  0  0
    8.5542   -8.9807    0.0000 C   0  0  0  0  0  0  0  0  0  0  0  0
    7.8332   -9.3817    0.0000 C   0  0  0  0  0  0  0  0  0  0  0  0
    7.1255   -8.9578    0.0000 C   0  0  0  0  0  0  0  0  0  0  0  0
   10.6432  -12.3971    0.0000 O   0  0  0  0  0  0  0  0  0  0  0  0
   10.6696  -10.7473    0.0000 O   0  0  0  0  0  0  0  0  0  0  0  0
    8.5199  -11.1254    0.0000 C   0  0  0  0  0  0  0  0  0  0  0  0
    9.2409  -10.7244    0.0000 C   0  0  0  0  0  0  0  0  0  0  0  0
    9.9486  -11.1483    0.0000 C   0  0  0  0  0  0  0  0  0  0  0  0
    9.9354  -11.9732    0.0000 C   0  0  0  0  0  0  0  0  0  0  0  0
    9.2144  -12.3742    0.0000 C   0  0  0  0  0  0  0  0  0  0  0  0
    8.5067  -11.9503    0.0000 C   0  0  0  0  0  0  0  0  0  0  0  0
   12.0244  -15.3896    0.0000 O   0  0  0  0  0  0  0  0  0  0  0  0
   12.0508  -13.7398    0.0000 O   0  0  0  0  0  0  0  0  0  0  0  0
    9.9011  -14.1179    0.0000 C   0  0  0  0  0  0  0  0  0  0  0  0
   10.6221  -13.7169    0.0000 C   0  0  0  0  0  0  0  0  0  0  0  0
   11.3299  -14.1408    0.0000 C   0  0  0  0  0  0  0  0  0  0  0  0
   11.3166  -14.9657    0.0000 C   0  0  0  0  0  0  0  0  0  0  0  0
   10.5957  -15.3667    0.0000 C   0  0  0  0  0  0  0  0  0  0  0  0
    9.8879  -14.9428    0.0000 C   0  0  0  0  0  0  0  0  0  0  0  0
    9.8615  -16.5926    0.0000 O   0  0  0  0  0  0  0  0  0  0  0  0
    6.9908  -17.3717    0.0000 O   0  0  0  0  0  0  0  0  0  0  0  0
    5.6016  -14.8742    0.0000 O   0  0  0  0  0  0  0  0  0  0  0  0
    8.4591  -14.9199    0.0000 O   0  0  0  0  0  0  0  0  0  0  0  0
    7.7381  -15.3209    0.0000 C   0  0  0  0  0  0  0  0  0  0  0  0
    7.0304  -14.8971    0.0000 C   0  0  0  0  0  0  0  0  0  0  0  0
    6.3094  -15.2981    0.0000 C   0  0  0  0  0  0  0  0  0  0  0  0
    6.2962  -16.1230    0.0000 C   0  0  0  0  0  0  0  0  0  0  0  0
    7.0040  -16.5468    0.0000 C   0  0  0  0  0  0  0  0  0  0  0  0
    7.7249  -16.1458    0.0000 C   0  0  0  0  0  0  0  0  0  0  0  0
    8.4327  -16.5697    0.0000 C   0  0  0  0  0  0  0  0  0  0  0  0
    9.1537  -16.1687    0.0000 C   0  0  2  0  0  0  0  0  0  0  0  0
    9.1669  -15.3438    0.0000 C   0  0  1  0  0  0  0  0  0  0  0  0
    8.4803  -13.6001    0.0000 O   0  0  0  0  0  0  0  0  0  0  0  0
    5.6095  -14.3792    0.0000 O   0  0  0  0  0  0  0  0  0  0  0  0
    4.2204  -11.8817    0.0000 O   0  0  0  0  0  0  0  0  0  0  0  0
    7.0779  -11.9274    0.0000 O   0  0  0  0  0  0  0  0  0  0  0  0
    6.3569  -12.3284    0.0000 C   0  0  0  0  0  0  0  0  0  0  0  0
    5.6492  -11.9046    0.0000 C   0  0  0  0  0  0  0  0  0  0  0  0
    4.9282  -12.3056    0.0000 C   0  0  0  0  0  0  0  0  0  0  0  0
    4.9150  -13.1305    0.0000 C   0  0  0  0  0  0  0  0  0  0  0  0
    5.6227  -13.5544    0.0000 C   0  0  0  0  0  0  0  0  0  0  0  0
    6.3437  -13.1533    0.0000 C   0  0  0  0  0  0  0  0  0  0  0  0
    7.0515  -13.5772    0.0000 C   0  0  1  0  0  0  0  0  0  0  0  0
    7.7725  -13.1762    0.0000 C   0  0  2  0  0  0  0  0  0  0  0  0
    7.7857  -12.3513    0.0000 C   0  0  1  0  0  0  0  0  0  0  0  0
    7.8808   -6.4121    0.0000 O   0  0  0  0  0  0  0  0  0  0  0  0
    7.9072   -4.7623    0.0000 O   0  0  0  0  0  0  0  0  0  0  0  0
    5.7574   -5.1404    0.0000 C   0  0  0  0  0  0  0  0  0  0  0  0
    6.4784   -4.7394    0.0000 C   0  0  0  0  0  0  0  0  0  0  0  0
    7.1862   -5.1633    0.0000 C   0  0  0  0  0  0  0  0  0  0  0  0
    7.1730   -5.9882    0.0000 C   0  0  0  0  0  0  0  0  0  0  0  0
    6.4520   -6.3892    0.0000 C   0  0  0  0  0  0  0  0  0  0  0  0
    5.7442   -5.9653    0.0000 C   0  0  0  0  0  0  0  0  0  0  0  0
    5.7178   -7.6151    0.0000 O   0  0  0  0  0  0  0  0  0  0  0  0
    2.8471   -8.3943    0.0000 O   0  0  0  0  0  0  0  0  0  0  0  0
    1.4580   -5.8967    0.0000 O   0  0  0  0  0  0  0  0  0  0  0  0
    4.3155   -5.9425    0.0000 O   0  0  0  0  0  0  0  0  0  0  0  0
    3.5945   -6.3435    0.0000 C   0  0  0  0  0  0  0  0  0  0  0  0
    2.8867   -5.9196    0.0000 C   0  0  0  0  0  0  0  0  0  0  0  0
    2.1657   -6.3206    0.0000 C   0  0  0  0  0  0  0  0  0  0  0  0
    2.1525   -7.1455    0.0000 C   0  0  0  0  0  0  0  0  0  0  0  0
    2.8603   -7.5694    0.0000 C   0  0  0  0  0  0  0  0  0  0  0  0
    3.5813   -7.1684    0.0000 C   0  0  0  0  0  0  0  0  0  0  0  0
    4.2891   -7.5922    0.0000 C   0  0  1  0  0  0  0  0  0  0  0  0
    5.0100   -7.1912    0.0000 C   0  0  2  0  0  0  0  0  0  0  0  0
    5.0233   -6.3663    0.0000 C   0  0  1  0  0  0  0  0  0  0  0  0
    2.8392   -8.8892    0.0000 O   0  0  0  0  0  0  0  0  0  0  0  0
    4.2283  -11.3868    0.0000 O   0  0  0  0  0  0  0  0  0  0  0  0
    7.0990  -10.6076    0.0000 O   0  0  0  0  0  0  0  0  0  0  0  0
    5.6967   -8.9349    0.0000 O   0  0  0  0  0  0  0  0  0  0  0  0
    4.9757   -9.3360    0.0000 C   0  0  0  0  0  0  0  0  0  0  0  0
    4.2679   -8.9121    0.0000 C   0  0  0  0  0  0  0  0  0  0  0  0
    3.5470   -9.3131    0.0000 C   0  0  0  0  0  0  0  0  0  0  0  0
    3.5337  -10.1380    0.0000 C   0  0  0  0  0  0  0  0  0  0  0  0
    4.2415  -10.5619    0.0000 C   0  0  0  0  0  0  0  0  0  0  0  0
    4.9625  -10.1609    0.0000 C   0  0  0  0  0  0  0  0  0  0  0  0
    5.6703  -10.5847    0.0000 C   0  0  1  0  0  0  0  0  0  0  0  0
    6.3913  -10.1837    0.0000 C   0  0  2  0  0  0  0  0  0  0  0  0
    6.4045   -9.3588    0.0000 C   0  0  1  0  0  0  0  0  0  0  0  0
 84  8  1  6  0  0  0
  6  1  1  0  0  0  0
  5  2  1  0  0  0  0
  8  3  2  0  0  0  0
  4  3  1  0  0  0  0
  5  4  2  0  0  0  0
  6  5  1  0  0  0  0
  7  6  2  0  0  0  0
  8  7  1  0  0  0  0
 82 43  1  1  0  0  0
 50 16  1  6  0  0  0
 14  9  1  0  0  0  0
 13 10  1  0  0  0  0
 16 11  2  0  0  0  0
 12 11  1  0  0  0  0
 13 12  2  0  0  0  0
 14 13  1  0  0  0  0
 15 14  2  0  0  0  0
 16 15  1  0  0  0  0
 48 30  1  1  0  0  0
 37 24  1  6  0  0  0
 22 17  1  0  0  0  0
 21 18  1  0  0  0  0
 24 19  2  0  0  0  0
 20 19  1  0  0  0  0
 21 20  2  0  0  0  0
 22 21  1  0  0  0  0
 23 22  2  0  0  0  0
 24 23  1  0  0  0  0
 36 25  1  6  0  0  0
 33 26  1  0  0  0  0
 31 27  1  0  0  0  0
 37 28  1  0  0  0  0
 29 28  1  0  0  0  0
 34 29  2  0  0  0  0
 30 29  1  0  0  0  0
 31 30  2  0  0  0  0
 32 31  1  0  0  0  0
 33 32  2  0  0  0  0
 34 33  1  0  0  0  0
 35 34  1  0  0  0  0
 36 35  1  0  0  0  0
 37 36  1  0  0  0  0
 49 38  1  6  0  0  0
 46 39  1  0  0  0  0
 44 40  1  0  0  0  0
 50 41  1  0  0  0  0
 42 41  1  0  0  0  0
 47 42  2  0  0  0  0
 43 42  1  0  0  0  0
 44 43  2  0  0  0  0
 45 44  1  0  0  0  0
 46 45  2  0  0  0  0
 47 46  1  0  0  0  0
 48 47  1  0  0  0  0
 49 48  1  0  0  0  0
 50 49  1  0  0  0  0
 69 77  1  1  0  0  0
 71 58  1  6  0  0  0
 56 51  1  0  0  0  0
 55 52  1  0  0  0  0
 58 53  2  0  0  0  0
 54 53  1  0  0  0  0
 55 54  2  0  0  0  0
 56 55  1  0  0  0  0
 57 56  2  0  0  0  0
 58 57  1  0  0  0  0
 70 59  1  6  0  0  0
 67 60  1  0  0  0  0
 65 61  1  0  0  0  0
 71 62  1  0  0  0  0
 63 62  1  0  0  0  0
 68 63  2  0  0  0  0
 64 63  1  0  0  0  0
 65 64  2  0  0  0  0
 66 65  1  0  0  0  0
 67 66  2  0  0  0  0
 68 67  1  0  0  0  0
 69 68  1  0  0  0  0
 70 69  1  0  0  0  0
 71 70  1  0  0  0  0
 78 72  1  0  0  0  0
 80 73  1  0  0  0  0
 83 74  1  6  0  0  0
 84 75  1  0  0  0  0
 76 75  1  0  0  0  0
 81 76  2  0  0  0  0
 77 76  1  0  0  0  0
 78 77  2  0  0  0  0
 79 78  1  0  0  0  0
 80 79  2  0  0  0  0
 81 80  1  0  0  0  0
 82 81  1  0  0  0  0
 83 82  1  0  0  0  0
 84 83  1  0  0  0  0
M  END
>  <cdx:groupId>
120562

>  <cdx:fragmentId>
120396

$$$$
