14130915.cdx
  Mrv1902 05222410202D          

 27 29  0  0  0  0            999 V2000
    4.6385  -14.8087    0.0000 C   0  0  0  0  0  0  0  0  0  0  0  0
    5.0510  -15.5232    0.0000 C   0  0  0  0  0  0  0  0  0  0  0  0
    5.8760  -15.5232    0.0000 C   0  0  0  0  0  0  0  0  0  0  0  0
    6.2885  -14.8087    0.0000 C   0  0  0  0  0  0  0  0  0  0  0  0
    5.8760  -14.0943    0.0000 C   0  0  0  0  0  0  0  0  0  0  0  0
    5.0510  -14.0943    0.0000 C   0  0  0  0  0  0  0  0  0  0  0  0
    3.8135  -14.8087    0.0000 O   0  0  0  0  0  0  0  0  0  0  0  0
    4.6385  -16.2377    0.0000 C   0  0  0  0  0  0  0  0  0  0  0  0
    3.8135  -16.2377    0.0000 C   0  0  0  0  0  0  0  0  0  0  0  0
    3.4010  -16.9522    0.0000 C   0  0  0  0  0  0  0  0  0  0  0  0
    6.2885  -13.3798    0.0000 O   0  0  0  0  0  0  0  0  0  0  0  0
    5.8760  -12.6653    0.0000 C   0  0  0  0  0  0  0  0  0  0  0  0
    7.0030  -15.2212    0.0000 O   0  0  0  0  0  0  0  0  0  0  0  0
    7.0030  -16.0463    0.0000 C   0  0  0  0  0  0  0  0  0  0  0  0
    7.7174  -14.8087    0.0000 C   0  0  0  0  0  0  0  0  0  0  0  0
    7.0030  -14.3963    0.0000 C   0  0  0  0  0  0  0  0  0  0  0  0
    7.0030  -13.5713    0.0000 C   0  0  0  0  0  0  0  0  0  0  0  0
    7.7174  -15.6337    0.0000 O   0  0  0  0  0  0  0  0  0  0  0  0
   10.6455  -13.3163    0.0000 O   0  0  0  0  0  0  0  0  0  0  0  0
   11.1304  -13.9838    0.0000 C   0  0  0  0  0  0  0  0  0  0  0  0
   10.6455  -14.6512    0.0000 O   0  0  0  0  0  0  0  0  0  0  0  0
    9.8609  -14.3963    0.0000 C   0  0  0  0  0  0  0  0  0  0  0  0
    9.8609  -13.5713    0.0000 C   0  0  0  0  0  0  0  0  0  0  0  0
    9.1464  -14.8087    0.0000 C   0  0  0  0  0  0  0  0  0  0  0  0
    8.4319  -14.3963    0.0000 C   0  0  0  0  0  0  0  0  0  0  0  0
    8.4319  -13.5713    0.0000 C   0  0  0  0  0  0  0  0  0  0  0  0
    9.1464  -13.1588    0.0000 C   0  0  0  0  0  0  0  0  0  0  0  0
  1  2  1  0  0  0  0
  2  3  2  0  0  0  0
  3  4  1  0  0  0  0
  4  5  1  0  0  0  0
  5  6  2  0  0  0  0
  1  6  1  0  0  0  0
  1  7  2  0  0  0  0
  8  9  1  0  0  0  0
  9 10  2  0  0  0  0
  2  8  1  0  0  0  0
 11 12  1  0  0  0  0
  5 11  1  0  0  0  0
 13 14  1  0  0  0  0
  4 13  1  0  0  0  0
 15 16  1  0  0  0  0
 16 17  1  0  0  0  0
 15 18  2  0  0  0  0
 19 20  1  0  0  0  0
 20 21  1  0  0  0  0
 21 22  1  0  0  0  0
 22 23  1  0  0  0  0
 19 23  1  0  0  0  0
 24 25  1  0  0  0  0
 25 26  2  0  0  0  0
 26 27  1  0  0  0  0
 27 23  2  0  0  0  0
 24 22  2  0  0  0  0
 15 25  1  0  0  0  0
  4 16  1  0  0  0  0
M  END
>  <cdx:groupId>
101821

>  <cdx:fragmentId>
101741

$$$$
