13096.cdx
  Mrv1902 05222410262D          

 46 50  0  0  0  0            999 V2000
    4.3689   -5.9400    0.0000 C   0  0  0  0  0  0  0  0  0  0  0  0
    4.3689   -6.7650    0.0000 C   0  0  0  0  0  0  0  0  0  0  0  0
    5.0834   -7.1775    0.0000 C   0  0  0  0  0  0  0  0  0  0  0  0
    5.7978   -6.7650    0.0000 C   0  0  0  0  0  0  0  0  0  0  0  0
    5.7978   -5.9400    0.0000 C   0  0  0  0  0  0  0  0  0  0  0  0
    5.0834   -5.5275    0.0000 C   0  0  0  0  0  0  0  0  0  0  0  0
    6.5123   -7.1775    0.0000 C   0  0  0  0  0  0  0  0  0  0  0  0
    7.2268   -6.7650    0.0000 C   0  0  0  0  0  0  0  0  0  0  0  0
    7.2268   -5.9400    0.0000 C   0  0  0  0  0  0  0  0  0  0  0  0
    6.5123   -5.5275    0.0000 O   0  0  0  0  0  0  0  0  0  0  0  0
    8.6557   -5.9400    0.0000 C   0  0  0  0  0  0  0  0  0  0  0  0
    7.9413   -5.5275    0.0000 C   0  0  0  0  0  0  0  0  0  0  0  0
    9.3702   -5.5275    0.0000 C   0  0  0  0  0  0  0  0  0  0  0  0
    9.3702   -4.7025    0.0000 C   0  0  0  0  0  0  0  0  0  0  0  0
    8.6557   -4.2900    0.0000 C   0  0  0  0  0  0  0  0  0  0  0  0
    7.9413   -4.7025    0.0000 C   0  0  0  0  0  0  0  0  0  0  0  0
    3.6544   -5.5275    0.0000 O   0  0  0  0  0  0  0  0  0  0  0  0
    5.0834   -8.0025    0.0000 O   0  0  0  0  0  0  0  0  0  0  0  0
    6.5123   -8.0025    0.0000 O   0  0  0  0  0  0  0  0  0  0  0  0
    8.6557   -3.4650    0.0000 O   0  0  0  0  0  0  0  0  0  0  0  0
   10.0847   -4.2900    0.0000 O   0  0  0  0  0  0  0  0  0  0  0  0
   10.0847   -5.9400    0.0000 O   0  0  0  0  0  0  0  0  0  0  0  0
    4.3798  -10.9183    0.0000 C   0  0  2  0  0  0  0  0  0  0  0  0
    4.3665  -11.7432    0.0000 C   0  0  2  0  0  0  0  0  0  0  0  0
    5.0743  -12.1671    0.0000 C   0  0  1  0  0  0  0  0  0  0  0  0
    5.7953  -11.7662    0.0000 C   0  0  2  0  0  0  0  0  0  0  0  0
    5.8086  -10.9413    0.0000 C   0  0  1  0  0  0  0  0  0  0  0  0
    5.1009  -10.5174    0.0000 O   0  0  0  0  0  0  0  0  0  0  0  0
    3.6721  -10.4943    0.0000 C   0  0  0  0  0  0  0  0  0  0  0  0
    6.5296  -10.5404    0.0000 O   0  0  0  0  0  0  0  0  0  0  0  0
    5.0610  -12.9920    0.0000 O   0  0  0  0  0  0  0  0  0  0  0  0
    3.6455  -12.1441    0.0000 O   0  0  0  0  0  0  0  0  0  0  0  0
    6.5030  -12.1902    0.0000 O   0  0  0  0  0  0  0  0  0  0  0  0
    2.9511  -10.8953    0.0000 O   0  0  0  0  0  0  0  0  0  0  0  0
    7.2625   -9.3122    0.0000 C   0  0  2  0  0  0  0  0  0  0  0  0
    7.9702   -9.7362    0.0000 C   0  0  2  0  0  0  0  0  0  0  0  0
    8.6912   -9.3352    0.0000 C   0  0  1  0  0  0  0  0  0  0  0  0
    8.7045   -8.5103    0.0000 C   0  0  2  0  0  0  0  0  0  0  0  0
    7.9968   -8.0864    0.0000 C   0  0  1  0  0  0  0  0  0  0  0  0
    7.2758   -8.4873    0.0000 O   0  0  0  0  0  0  0  0  0  0  0  0
    6.5414   -9.7131    0.0000 C   0  0  0  0  0  0  0  0  0  0  0  0
    8.0101   -7.2615    0.0000 O   0  0  0  0  0  0  0  0  0  0  0  0
    9.3989   -9.7592    0.0000 O   0  0  0  0  0  0  0  0  0  0  0  0
    7.9569  -10.5610    0.0000 O   0  0  0  0  0  0  0  0  0  0  0  0
    9.4256   -8.1094    0.0000 O   0  0  0  0  0  0  0  0  0  0  0  0
   10.7991   -4.7025    0.0000 C   0  0  0  0  0  0  0  0  0  0  0  0
  1  2  2  0  0  0  0
  2  3  1  0  0  0  0
  3  4  2  0  0  0  0
  4  5  1  0  0  0  0
  5  6  2  0  0  0  0
  6  1  1  0  0  0  0
  4  7  1  0  0  0  0
  7  8  1  0  0  0  0
  8  9  2  0  0  0  0
  9 10  1  0  0  0  0
 10  5  1  0  0  0  0
 11 12  2  0  0  0  0
 12  9  1  0  0  0  0
 11 13  1  0  0  0  0
 13 14  2  0  0  0  0
 14 15  1  0  0  0  0
 15 16  2  0  0  0  0
 16 12  1  0  0  0  0
  1 17  1  0  0  0  0
  3 18  1  0  0  0  0
  7 19  2  0  0  0  0
 15 20  1  0  0  0  0
 14 21  1  0  0  0  0
 13 22  1  0  0  0  0
 23 24  1  0  0  0  0
 24 25  1  0  0  0  0
 25 26  1  0  0  0  0
 26 27  1  0  0  0  0
 27 28  1  0  0  0  0
 28 23  1  0  0  0  0
 23 29  1  1  0  0  0
 27 30  1  1  0  0  0
 25 31  1  1  0  0  0
 24 32  1  6  0  0  0
 26 33  1  6  0  0  0
 29 34  1  0  0  0  0
 35 36  1  0  0  0  0
 36 37  1  0  0  0  0
 37 38  1  0  0  0  0
 38 39  1  0  0  0  0
 39 40  1  0  0  0  0
 40 35  1  0  0  0  0
 35 41  1  1  0  0  0
 39 42  1  1  0  0  0
 37 43  1  1  0  0  0
 36 44  1  6  0  0  0
 38 45  1  6  0  0  0
 41 30  1  0  0  0  0
  8 42  1  0  0  0  0
 21 46  1  0  0  0  0
M  END
>  <cdx:fragmentId>
80

$$$$
