131002.cdx
  Mrv1902 05222410212D          

 21 24  0  0  0  0            999 V2000
    7.1275   -8.5340    0.0000 C   0  0  0  0  0  0  0  0  0  0  0  0
    7.1306   -9.3590    0.0000 C   0  0  0  0  0  0  0  0  0  0  0  0
    6.4177   -9.7742    0.0000 C   0  0  0  0  0  0  0  0  0  0  0  0
    6.4208  -10.5992    0.0000 C   0  0  0  0  0  0  0  0  0  0  0  0
    7.1368  -11.0090    0.0000 C   0  0  0  0  0  0  0  0  0  0  0  0
    7.8497  -10.5938    0.0000 C   0  0  0  0  0  0  0  0  0  0  0  0
    7.8466   -9.7688    0.0000 C   0  0  0  0  0  0  0  0  0  0  0  0
    8.5595   -9.3537    0.0000 C   0  0  0  0  0  0  0  0  0  0  0  0
    8.5564   -8.5287    0.0000 C   0  0  0  0  0  0  0  0  0  0  0  0
    9.0677   -7.8800    0.0000 N   0  0  0  0  0  0  0  0  0  0  0  0
    8.6525   -7.1671    0.0000 C   0  0  0  0  0  0  0  0  0  0  0  0
    7.8373   -7.2939    0.0000 C   0  0  0  0  0  0  0  0  0  0  0  0
    7.1213   -6.8840    0.0000 C   0  0  0  0  0  0  0  0  0  0  0  0
    6.4084   -7.2992    0.0000 C   0  0  0  0  0  0  0  0  0  0  0  0
    6.4115   -8.1242    0.0000 C   0  0  0  0  0  0  0  0  0  0  0  0
    7.8404   -8.1189    0.0000 C   0  0  0  0  0  0  0  0  0  0  0  0
    9.0623   -6.4511    0.0000 O   0  0  0  0  0  0  0  0  0  0  0  0
    9.8927   -7.8769    0.0000 C   0  0  0  0  0  0  0  0  0  0  0  0
    5.6986   -8.5394    0.0000 O   0  0  0  0  0  0  0  0  0  0  0  0
    4.9786   -8.1366    0.0000 C   0  0  0  0  0  0  0  0  0  0  0  0
    5.6924   -6.8894    0.0000 O   0  0  0  0  0  0  0  0  0  0  0  0
  1  2  1  0  0  0  0
  2  3  2  0  0  0  0
  3  4  1  0  0  0  0
  4  5  2  0  0  0  0
  5  6  1  0  0  0  0
  6  7  2  0  0  0  0
  7  8  1  0  0  0  0
  8  9  2  0  0  0  0
  9 10  1  0  0  0  0
 10 11  1  0  0  0  0
 11 12  1  0  0  0  0
 12 13  2  0  0  0  0
 13 14  1  0  0  0  0
 14 15  2  0  0  0  0
  1 15  1  0  0  0  0
  1 16  2  0  0  0  0
 16  9  1  0  0  0  0
  2  7  1  0  0  0  0
 12 16  1  0  0  0  0
 11 17  2  0  0  0  0
 10 18  1  0  0  0  0
 19 20  1  0  0  0  0
 15 19  1  0  0  0  0
 14 21  1  0  0  0  0
M  END
>  <cdx:groupId>
7291

>  <cdx:fragmentId>
7228

$$$$
