131039.cdx
  Mrv1902 05222410222D          

 17 19  0  0  0  0            999 V2000
   10.7708   -4.6120    0.0000 C   0  0  0  0  0  0  0  0  0  0  0  0
   10.5573   -5.4089    0.0000 C   0  0  2  0  0  0  0  0  0  0  0  0
   11.2492   -5.8582    0.0000 C   0  0  0  0  0  0  0  0  0  0  0  0
   11.8904   -5.3390    0.0000 C   0  0  1  0  0  0  0  0  0  0  0  0
   11.5947   -4.5688    0.0000 C   0  0  0  0  0  0  0  0  0  0  0  0
   11.3783   -6.6730    0.0000 C   0  0  0  0  0  0  0  0  0  0  0  0
   12.1485   -6.9687    0.0000 C   0  0  0  0  0  0  0  0  0  0  0  0
   12.7896   -6.4495    0.0000 C   0  0  0  0  0  0  0  0  0  0  0  0
   12.6606   -5.6347    0.0000 C   0  0  0  0  0  0  0  0  0  0  0  0
   10.1080   -6.1008    0.0000 C   0  0  0  0  0  0  0  0  0  0  0  0
   10.7999   -6.5501    0.0000 C   0  0  0  0  0  0  0  0  0  0  0  0
    9.3935   -5.6883    0.0000 C   0  0  0  0  0  0  0  0  0  0  0  0
    9.6955   -6.8152    0.0000 C   0  0  0  0  0  0  0  0  0  0  0  0
    9.7604   -5.1953    0.0000 H   0  0  0  0  0  0  0  0  0  0  0  0
   10.6638   -7.0855    0.0000 C   0  0  0  0  0  0  0  0  0  0  0  0
   11.1647   -7.4699    0.0000 O   0  0  0  0  0  0  0  0  0  0  0  0
   12.4737   -4.7556    0.0000 C   0  0  0  0  0  0  0  0  0  0  0  0
  1  2  1  0  0  0  0
  2  3  1  0  0  0  0
  3  4  1  0  0  0  0
  4  5  1  0  0  0  0
  5  1  1  0  0  0  0
  3  6  1  0  0  0  0
  6  7  1  0  0  0  0
  7  8  1  0  0  0  0
  8  9  1  0  0  0  0
  9  4  1  0  0  0  0
  2 10  1  0  0  0  0
 10 11  1  0  0  0  0
 11  3  1  0  0  0  0
 10 12  1  0  0  0  0
 10 13  1  0  0  0  0
  2 14  1  1  0  0  0
  6 15  1  0  0  0  0
  6 16  1  0  0  0  0
  4 17  1  6  0  0  0
M  END
>  <cdx:fragmentId>
7300

$$$$
