13115.cdx
  Mrv1902 05222410192D          

 31 33  0  0  0  0            999 V2000
    6.0258  -10.8556    0.0000 C   0  0  0  0  0  0  0  0  0  0  0  0
    6.0258  -11.6806    0.0000 C   0  0  0  0  0  0  0  0  0  0  0  0
    6.7402  -12.0931    0.0000 C   0  0  0  0  0  0  0  0  0  0  0  0
    7.4547  -11.6806    0.0000 C   0  0  0  0  0  0  0  0  0  0  0  0
    7.4547  -10.8556    0.0000 C   0  0  0  0  0  0  0  0  0  0  0  0
    6.7402  -10.4431    0.0000 C   0  0  0  0  0  0  0  0  0  0  0  0
    8.1692  -12.0931    0.0000 C   0  0  0  0  0  0  0  0  0  0  0  0
    8.8837  -11.6806    0.0000 C   0  0  0  0  0  0  0  0  0  0  0  0
    8.8837  -10.8556    0.0000 C   0  0  0  0  0  0  0  0  0  0  0  0
    8.1692  -10.4431    0.0000 O   0  0  0  0  0  0  0  0  0  0  0  0
    9.5981  -10.4431    0.0000 O   0  0  0  0  0  0  0  0  0  0  0  0
    5.3113  -10.4431    0.0000 O   0  0  0  0  0  0  0  0  0  0  0  0
    4.5968  -10.8556    0.0000 C   0  0  0  0  0  0  0  0  0  0  0  0
    6.0054   -5.8927    0.0000 C   0  0  2  0  0  0  0  0  0  0  0  0
    6.0258   -9.2056    0.0000 C   0  0  0  0  0  0  0  0  0  0  0  0
    6.0258   -8.3806    0.0000 C   0  0  0  0  0  0  0  0  0  0  0  0
    5.3113   -9.6181    0.0000 O   0  0  0  0  0  0  0  0  0  0  0  0
    5.2906   -5.4809    0.0000 C   0  0  2  0  0  0  0  0  0  0  0  0
    6.8508   -8.3806    0.0000 C   0  0  0  0  0  0  0  0  0  0  0  0
    6.4383   -7.6662    0.0000 C   0  0  0  0  0  0  0  0  0  0  0  0
    4.5765   -5.8941    0.0000 C   0  0  1  0  0  0  0  0  0  0  0  0
    4.5773   -6.7191    0.0000 C   0  0  2  0  0  0  0  0  0  0  0  0
    5.2922   -7.1309    0.0000 C   0  0  1  0  0  0  0  0  0  0  0  0
    6.0063   -6.7177    0.0000 O   0  0  0  0  0  0  0  0  0  0  0  0
    6.7195   -5.4795    0.0000 C   0  0  0  0  0  0  0  0  0  0  0  0
    3.8616   -5.4824    0.0000 O   0  0  0  0  0  0  0  0  0  0  0  0
    3.8633   -7.1324    0.0000 O   0  0  0  0  0  0  0  0  0  0  0  0
    5.2897   -4.6559    0.0000 O   0  0  0  0  0  0  0  0  0  0  0  0
    6.7187   -4.6545    0.0000 O   0  0  0  0  0  0  0  0  0  0  0  0
    5.3113   -7.9681    0.0000 O   0  0  0  0  0  0  0  0  0  0  0  0
    6.7402   -9.6181    0.0000 C   0  0  0  0  0  0  0  0  0  0  0  0
  1  2  1  0  0  0  0
  2  3  2  0  0  0  0
  3  4  1  0  0  0  0
  4  5  2  0  0  0  0
  5  6  1  0  0  0  0
  6  1  2  0  0  0  0
  4  7  1  0  0  0  0
  7  8  2  0  0  0  0
  8  9  1  0  0  0  0
  9 10  1  0  0  0  0
 10  5  1  0  0  0  0
  9 11  2  0  0  0  0
  1 12  1  0  0  0  0
 12 13  1  0  0  0  0
 15 16  1  0  0  0  0
 15 17  1  0  0  0  0
 16 30  1  0  0  0  0
 16 19  1  0  0  0  0
 16 20  1  0  0  0  0
 14 18  1  0  0  0  0
 18 21  1  0  0  0  0
 21 22  1  0  0  0  0
 22 23  1  0  0  0  0
 23 24  1  0  0  0  0
 24 14  1  0  0  0  0
  6 31  1  0  0  0  0
 14 25  1  1  0  0  0
 21 26  1  1  0  0  0
 22 27  1  6  0  0  0
 18 28  1  6  0  0  0
 25 29  1  0  0  0  0
 31 15  1  0  0  0  0
 23 30  1  1  0  0  0
M  END
>  <cdx:fragmentId>
5

$$$$
