131125.cdx
  Mrv1902 05222410272D          

212235  0  0  0  0            999 V2000
   25.2761   -7.9585    0.0000 C   0  0  0  0  0  0  0  0  0  0  0  0
   25.9855   -8.3796    0.0000 C   0  0  0  0  0  0  0  0  0  0  0  0
   26.7049   -7.9759    0.0000 C   0  0  0  0  0  0  0  0  0  0  0  0
   27.4143   -8.3970    0.0000 C   0  0  0  0  0  0  0  0  0  0  0  0
   27.4043   -9.2219    0.0000 C   0  0  0  0  0  0  0  0  0  0  0  0
   26.6848   -9.6257    0.0000 C   0  0  0  0  0  0  0  0  0  0  0  0
   25.9754   -9.2046    0.0000 C   0  0  0  0  0  0  0  0  0  0  0  0
   25.2861   -7.1335    0.0000 O   0  0  0  0  0  0  0  0  0  0  0  0
   24.5566   -8.3623    0.0000 O   0  0  0  0  0  0  0  0  0  0  0  0
   26.6748  -10.4507    0.0000 O   0  0  0  0  0  0  0  0  0  0  0  0
   28.1137   -9.6431    0.0000 O   0  0  0  0  0  0  0  0  0  0  0  0
   28.1337   -7.9932    0.0000 O   0  0  0  0  0  0  0  0  0  0  0  0
   22.4284   -7.0988    0.0000 C   0  0  1  0  0  0  0  0  0  0  0  0
   22.4184   -7.9237    0.0000 C   0  0  2  0  0  0  0  0  0  0  0  0
   21.7986   -8.4683    0.0000 O   0  0  0  0  0  0  0  0  0  0  0  0
   22.1250   -9.2260    0.0000 C   0  0  0  0  0  0  0  0  0  0  0  0
   21.6724   -9.9158    0.0000 C   0  0  0  0  0  0  0  0  0  0  0  0
   20.8650   -9.7465    0.0000 C   0  0  0  0  0  0  0  0  0  0  0  0
   20.3147  -10.3611    0.0000 C   0  0  0  0  0  0  0  0  0  0  0  0
   20.5718  -11.1451    0.0000 C   0  0  0  0  0  0  0  0  0  0  0  0
   21.3793  -11.3143    0.0000 C   0  0  0  0  0  0  0  0  0  0  0  0
   21.9296  -10.6997    0.0000 C   0  0  0  0  0  0  0  0  0  0  0  0
   22.7028  -10.9874    0.0000 C   0  0  0  0  0  0  0  0  0  0  0  0
   22.7174  -11.8123    0.0000 C   0  0  0  0  0  0  0  0  0  0  0  0
   23.4391  -12.2120    0.0000 C   0  0  0  0  0  0  0  0  0  0  0  0
   24.1462  -11.7869    0.0000 C   0  0  0  0  0  0  0  0  0  0  0  0
   24.1315  -10.9620    0.0000 C   0  0  0  0  0  0  0  0  0  0  0  0
   23.4098  -10.5623    0.0000 C   0  0  0  0  0  0  0  0  0  0  0  0
   23.5183   -9.7444    0.0000 C   0  0  0  0  0  0  0  0  0  0  0  0
   22.9465   -9.1497    0.0000 O   0  0  0  0  0  0  0  0  0  0  0  0
   23.1278   -8.3449    0.0000 C   0  0  1  0  0  0  0  0  0  0  0  0
   23.8472   -7.9411    0.0000 C   0  0  2  0  0  0  0  0  0  0  0  0
   23.8573   -7.1162    0.0000 O   0  0  0  0  0  0  0  0  0  0  0  0
   23.1479   -6.6950    0.0000 C   0  0  2  0  0  0  0  0  0  0  0  0
   22.9862   -5.8860    0.0000 C   0  0  0  0  0  0  0  0  0  0  0  0
   22.1668   -5.7898    0.0000 O   0  0  0  0  0  0  0  0  0  0  0  0
   21.8805   -5.0161    0.0000 C   0  0  0  0  0  0  0  0  0  0  0  0
   21.1310   -4.6714    0.0000 C   0  0  0  0  0  0  0  0  0  0  0  0
   21.2699   -3.8582    0.0000 C   0  0  0  0  0  0  0  0  0  0  0  0
   20.6351   -3.3312    0.0000 C   0  0  0  0  0  0  0  0  0  0  0  0
   19.8614   -3.6175    0.0000 C   0  0  0  0  0  0  0  0  0  0  0  0
   19.7224   -4.4307    0.0000 C   0  0  0  0  0  0  0  0  0  0  0  0
   20.3572   -4.9577    0.0000 C   0  0  0  0  0  0  0  0  0  0  0  0
   20.0125   -5.7072    0.0000 C   0  0  0  0  0  0  0  0  0  0  0  0
   19.1993   -5.5682    0.0000 C   0  0  0  0  0  0  0  0  0  0  0  0
   18.6724   -6.2030    0.0000 C   0  0  0  0  0  0  0  0  0  0  0  0
   18.9586   -6.9768    0.0000 C   0  0  0  0  0  0  0  0  0  0  0  0
   19.7719   -7.1157    0.0000 C   0  0  0  0  0  0  0  0  0  0  0  0
   20.2988   -6.4809    0.0000 C   0  0  0  0  0  0  0  0  0  0  0  0
   21.0483   -6.8256    0.0000 C   0  0  0  0  0  0  0  0  0  0  0  0
   21.8221   -6.5394    0.0000 O   0  0  0  0  0  0  0  0  0  0  0  0
   21.0167   -7.6500    0.0000 O   0  0  0  0  0  0  0  0  0  0  0  0
   22.4858   -4.4555    0.0000 O   0  0  0  0  0  0  0  0  0  0  0  0
   24.3022   -9.4873    0.0000 O   0  0  0  0  0  0  0  0  0  0  0  0
   21.3031   -9.1543    0.0000 O   0  0  0  0  0  0  0  0  0  0  0  0
   18.4317   -7.6116    0.0000 O   0  0  0  0  0  0  0  0  0  0  0  0
   17.8592   -6.0641    0.0000 O   0  0  0  0  0  0  0  0  0  0  0  0
   18.6657   -4.9391    0.0000 O   0  0  0  0  0  0  0  0  0  0  0  0
   18.8975   -4.4351    0.0000 O   0  0  0  0  0  0  0  0  0  0  0  0
   19.2266   -3.0905    0.0000 O   0  0  0  0  0  0  0  0  0  0  0  0
   20.7741   -2.5180    0.0000 O   0  0  0  0  0  0  0  0  0  0  0  0
   24.8957  -12.1316    0.0000 O   0  0  0  0  0  0  0  0  0  0  0  0
   23.5154  -13.0335    0.0000 O   0  0  0  0  0  0  0  0  0  0  0  0
   22.0442  -12.2890    0.0000 O   0  0  0  0  0  0  0  0  0  0  0  0
   21.6364  -12.0982    0.0000 O   0  0  0  0  0  0  0  0  0  0  0  0
   20.0215  -11.7597    0.0000 O   0  0  0  0  0  0  0  0  0  0  0  0
   19.5072  -10.1919    0.0000 O   0  0  0  0  0  0  0  0  0  0  0  0
   20.0581   -7.8895    0.0000 O   0  0  0  0  0  0  0  0  0  0  0  0
   19.3250   -8.7401    0.0000 C   0  0  0  0  0  0  0  0  0  0  0  0
   19.6113   -9.5139    0.0000 C   0  0  0  0  0  0  0  0  0  0  0  0
   19.0843  -10.1486    0.0000 C   0  0  0  0  0  0  0  0  0  0  0  0
   18.2711  -10.0097    0.0000 C   0  0  0  0  0  0  0  0  0  0  0  0
   17.9849   -9.2359    0.0000 C   0  0  0  0  0  0  0  0  0  0  0  0
   18.5118   -8.6012    0.0000 C   0  0  0  0  0  0  0  0  0  0  0  0
   19.3706  -10.9224    0.0000 O   0  0  0  0  0  0  0  0  0  0  0  0
   20.4245   -9.6528    0.0000 O   0  0  0  0  0  0  0  0  0  0  0  0
   17.1716   -9.0970    0.0000 C   0  0  0  0  0  0  0  0  0  0  0  0
   16.8854   -8.3233    0.0000 O   0  0  0  0  0  0  0  0  0  0  0  0
   21.6256   -7.2886    0.0000 H   0  0  0  0  0  0  0  0  0  0  0  0
   21.6204   -7.7144    0.0000 H   0  0  0  0  0  0  0  0  0  0  0  0
   23.7893   -8.8379    0.0000 H   0  0  0  0  0  0  0  0  0  0  0  0
   23.8211   -6.2182    0.0000 H   0  0  0  0  0  0  0  0  0  0  0  0
   14.8989   -8.2861    0.0000 H   0  0  0  0  0  0  0  0  0  0  0  0
   16.2381  -10.5378    0.0000 H   0  0  0  0  0  0  0  0  0  0  0  0
   13.8751  -10.8819    0.0000 H   0  0  0  0  0  0  0  0  0  0  0  0
   13.5837  -10.3443    0.0000 H   0  0  0  0  0  0  0  0  0  0  0  0
   11.1657  -12.9325    0.0000 O   0  0  0  0  0  0  0  0  0  0  0  0
   11.9663  -14.3753    0.0000 O   0  0  0  0  0  0  0  0  0  0  0  0
   13.6161  -14.4033    0.0000 O   0  0  0  0  0  0  0  0  0  0  0  0
   14.0497  -14.5112    0.0000 O   0  0  0  0  0  0  0  0  0  0  0  0
   15.6340  -14.9686    0.0000 O   0  0  0  0  0  0  0  0  0  0  0  0
   16.8223  -13.8254    0.0000 O   0  0  0  0  0  0  0  0  0  0  0  0
   10.3692   -6.7182    0.0000 O   0  0  0  0  0  0  0  0  0  0  0  0
    9.3475   -8.0138    0.0000 O   0  0  0  0  0  0  0  0  0  0  0  0
    9.7679   -9.3327    0.0000 O   0  0  0  0  0  0  0  0  0  0  0  0
    9.8330   -9.8836    0.0000 O   0  0  0  0  0  0  0  0  0  0  0  0
    9.7317  -11.2641    0.0000 O   0  0  0  0  0  0  0  0  0  0  0  0
   11.0273  -12.2858    0.0000 O   0  0  0  0  0  0  0  0  0  0  0  0
   12.8713  -11.0280    0.0000 O   0  0  0  0  0  0  0  0  0  0  0  0
   14.1986  -11.6654    0.0000 O   0  0  0  0  0  0  0  0  0  0  0  0
   12.8171   -7.4724    0.0000 O   0  0  0  0  0  0  0  0  0  0  0  0
   13.3718  -10.8895    0.0000 O   0  0  0  0  0  0  0  0  0  0  0  0
   13.3608   -9.6027    0.0000 O   0  0  0  0  0  0  0  0  0  0  0  0
   12.8499  -10.2505    0.0000 C   0  0  0  0  0  0  0  0  0  0  0  0
   12.0306  -10.3473    0.0000 C   0  0  0  0  0  0  0  0  0  0  0  0
   11.9121  -11.1638    0.0000 C   0  0  0  0  0  0  0  0  0  0  0  0
   11.1458  -11.4694    0.0000 C   0  0  0  0  0  0  0  0  0  0  0  0
   10.4980  -10.9585    0.0000 C   0  0  0  0  0  0  0  0  0  0  0  0
   10.6165  -10.1421    0.0000 C   0  0  0  0  0  0  0  0  0  0  0  0
   11.3828   -9.8365    0.0000 C   0  0  0  0  0  0  0  0  0  0  0  0
   11.2860   -9.0172    0.0000 C   0  0  0  0  0  0  0  0  0  0  0  0
   10.4695   -8.8987    0.0000 C   0  0  0  0  0  0  0  0  0  0  0  0
   10.1640   -8.1323    0.0000 C   0  0  0  0  0  0  0  0  0  0  0  0
   10.6748   -7.4845    0.0000 C   0  0  0  0  0  0  0  0  0  0  0  0
   11.4913   -7.6030    0.0000 C   0  0  0  0  0  0  0  0  0  0  0  0
   11.7968   -8.3694    0.0000 C   0  0  0  0  0  0  0  0  0  0  0  0
   12.6161   -8.2725    0.0000 C   0  0  0  0  0  0  0  0  0  0  0  0
   13.2639   -8.7834    0.0000 O   0  0  0  0  0  0  0  0  0  0  0  0
   14.0132   -8.4381    0.0000 C   0  0  0  0  0  0  0  0  0  0  0  0
   14.5731   -9.0440    0.0000 C   0  0  1  0  0  0  0  0  0  0  0  0
   15.3981   -9.0334    0.0000 O   0  0  0  0  0  0  0  0  0  0  0  0
   15.8198   -9.7424    0.0000 C   0  0  2  0  0  0  0  0  0  0  0  0
   15.4165  -10.4622    0.0000 C   0  0  2  0  0  0  0  0  0  0  0  0
   15.6816  -11.2434    0.0000 O   0  0  0  0  0  0  0  0  0  0  0  0
   15.0205  -11.7370    0.0000 C   0  0  0  0  0  0  0  0  0  0  0  0
   15.0681  -12.5606    0.0000 C   0  0  0  0  0  0  0  0  0  0  0  0
   15.8522  -12.8171    0.0000 C   0  0  0  0  0  0  0  0  0  0  0  0
   16.0221  -13.6244    0.0000 C   0  0  0  0  0  0  0  0  0  0  0  0
   15.4079  -14.1752    0.0000 C   0  0  0  0  0  0  0  0  0  0  0  0
   14.6238  -13.9187    0.0000 C   0  0  0  0  0  0  0  0  0  0  0  0
   14.4539  -13.1114    0.0000 C   0  0  0  0  0  0  0  0  0  0  0  0
   13.6403  -12.9746    0.0000 C   0  0  0  0  0  0  0  0  0  0  0  0
   13.2158  -13.6819    0.0000 C   0  0  0  0  0  0  0  0  0  0  0  0
   12.3909  -13.6679    0.0000 C   0  0  0  0  0  0  0  0  0  0  0  0
   11.9906  -12.9465    0.0000 C   0  0  0  0  0  0  0  0  0  0  0  0
   12.4152  -12.2392    0.0000 C   0  0  0  0  0  0  0  0  0  0  0  0
   13.2400  -12.2532    0.0000 C   0  0  0  0  0  0  0  0  0  0  0  0
   13.5545  -11.4904    0.0000 C   0  0  0  0  0  0  0  0  0  0  0  0
   14.3468  -11.2607    0.0000 O   0  0  0  0  0  0  0  0  0  0  0  0
   14.5916  -10.4729    0.0000 C   0  0  1  0  0  0  0  0  0  0  0  0
   14.1699   -9.7638    0.0000 C   0  0  2  0  0  0  0  0  0  0  0  0
   16.6447   -9.7318    0.0000 O   0  0  0  0  0  0  0  0  0  0  0  0
   10.3108  -12.6948    0.0000 C   0  0  0  0  0  0  0  0  0  0  0  0
    9.5984  -12.2789    0.0000 C   0  0  0  0  0  0  0  0  0  0  0  0
    8.8819  -12.6879    0.0000 C   0  0  0  0  0  0  0  0  0  0  0  0
    8.8779  -13.5129    0.0000 C   0  0  0  0  0  0  0  0  0  0  0  0
    9.5904  -13.9289    0.0000 C   0  0  0  0  0  0  0  0  0  0  0  0
   10.3068  -13.5198    0.0000 C   0  0  0  0  0  0  0  0  0  0  0  0
    9.5864  -14.7539    0.0000 O   0  0  0  0  0  0  0  0  0  0  0  0
   11.0193  -13.9358    0.0000 O   0  0  0  0  0  0  0  0  0  0  0  0
    8.1694  -12.2720    0.0000 C   0  0  0  0  0  0  0  0  0  0  0  0
    7.4530  -12.6810    0.0000 O   0  0  0  0  0  0  0  0  0  0  0  0
    8.1734  -11.4470    0.0000 O   0  0  0  0  0  0  0  0  0  0  0  0
    6.7681  -10.5373    0.0000 H   0  0  0  0  0  0  0  0  0  0  0  0
    6.6811  -13.1557    0.0000 H   0  0  0  0  0  0  0  0  0  0  0  0
    4.5058  -12.1709    0.0000 H   0  0  0  0  0  0  0  0  0  0  0  0
    4.5504  -11.5610    0.0000 H   0  0  0  0  0  0  0  0  0  0  0  0
    1.1182  -12.4360    0.0000 O   0  0  0  0  0  0  0  0  0  0  0  0
    1.0141  -14.0827    0.0000 O   0  0  0  0  0  0  0  0  0  0  0  0
    2.3882  -14.9963    0.0000 O   0  0  0  0  0  0  0  0  0  0  0  0
    2.6951  -15.3210    0.0000 O   0  0  0  0  0  0  0  0  0  0  0  0
    3.7824  -16.5608    0.0000 O   0  0  0  0  0  0  0  0  0  0  0  0
    5.3997  -16.2391    0.0000 O   0  0  0  0  0  0  0  0  0  0  0  0
    3.7997   -6.7737    0.0000 O   0  0  0  0  0  0  0  0  0  0  0  0
    2.2405   -7.3136    0.0000 O   0  0  0  0  0  0  0  0  0  0  0  0
    1.8831   -8.6509    0.0000 O   0  0  0  0  0  0  0  0  0  0  0  0
    1.6407   -9.1499    0.0000 O   0  0  0  0  0  0  0  0  0  0  0  0
    0.8107  -10.2576    0.0000 O   0  0  0  0  0  0  0  0  0  0  0  0
    1.3505  -11.8168    0.0000 O   0  0  0  0  0  0  0  0  0  0  0  0
    3.5817  -11.7524    0.0000 O   0  0  0  0  0  0  0  0  0  0  0  0
    4.3555  -13.0051    0.0000 O   0  0  0  0  0  0  0  0  0  0  0  0
    5.4540   -8.7292    0.0000 O   0  0  0  0  0  0  0  0  0  0  0  0
    4.0779  -11.9057    0.0000 O   0  0  0  0  0  0  0  0  0  0  0  0
    4.7627  -10.8163    0.0000 O   0  0  0  0  0  0  0  0  0  0  0  0
    3.9831  -11.0862    0.0000 C   0  0  0  0  0  0  0  0  0  0  0  0
    3.2410  -10.7258    0.0000 C   0  0  0  0  0  0  0  0  0  0  0  0
    2.7008  -11.3493    0.0000 C   0  0  0  0  0  0  0  0  0  0  0  0
    1.8907  -11.1933    0.0000 C   0  0  0  0  0  0  0  0  0  0  0  0
    1.6208  -10.4137    0.0000 C   0  0  0  0  0  0  0  0  0  0  0  0
    2.1610   -9.7901    0.0000 C   0  0  0  0  0  0  0  0  0  0  0  0
    2.9711   -9.9462    0.0000 C   0  0  0  0  0  0  0  0  0  0  0  0
    3.3315   -9.2041    0.0000 C   0  0  0  0  0  0  0  0  0  0  0  0
    2.7080   -8.6639    0.0000 C   0  0  0  0  0  0  0  0  0  0  0  0
    2.8640   -7.8538    0.0000 C   0  0  0  0  0  0  0  0  0  0  0  0
    3.6436   -7.5838    0.0000 C   0  0  0  0  0  0  0  0  0  0  0  0
    4.2672   -8.1240    0.0000 C   0  0  0  0  0  0  0  0  0  0  0  0
    4.1111   -8.9342    0.0000 C   0  0  0  0  0  0  0  0  0  0  0  0
    4.8532   -9.2946    0.0000 C   0  0  0  0  0  0  0  0  0  0  0  0
    5.1231  -10.0742    0.0000 O   0  0  0  0  0  0  0  0  0  0  0  0
    5.9403  -10.1876    0.0000 C   0  0  0  0  0  0  0  0  0  0  0  0
    6.0849  -10.9998    0.0000 C   0  0  1  0  0  0  0  0  0  0  0  0
    6.7853  -11.4358    0.0000 O   0  0  0  0  0  0  0  0  0  0  0  0
    6.7579  -12.2604    0.0000 C   0  0  2  0  0  0  0  0  0  0  0  0
    6.0301  -12.6489    0.0000 C   0  0  2  0  0  0  0  0  0  0  0  0
    5.8319  -13.4497    0.0000 O   0  0  0  0  0  0  0  0  0  0  0  0
    5.0090  -13.5087    0.0000 C   0  0  0  0  0  0  0  0  0  0  0  0
    4.6049  -14.2279    0.0000 C   0  0  0  0  0  0  0  0  0  0  0  0
    5.1267  -14.8669    0.0000 C   0  0  0  0  0  0  0  0  0  0  0  0
    4.8343  -15.6383    0.0000 C   0  0  0  0  0  0  0  0  0  0  0  0
    4.0200  -15.7708    0.0000 C   0  0  0  0  0  0  0  0  0  0  0  0
    3.4981  -15.1318    0.0000 C   0  0  0  0  0  0  0  0  0  0  0  0
    3.7906  -14.3604    0.0000 C   0  0  0  0  0  0  0  0  0  0  0  0
    3.1793  -13.8063    0.0000 C   0  0  0  0  0  0  0  0  0  0  0  0
    2.4402  -14.1729    0.0000 C   0  0  0  0  0  0  0  0  0  0  0  0
    1.7532  -13.7162    0.0000 C   0  0  0  0  0  0  0  0  0  0  0  0
    1.8053  -12.8928    0.0000 C   0  0  0  0  0  0  0  0  0  0  0  0
    2.5443  -12.5262    0.0000 C   0  0  0  0  0  0  0  0  0  0  0  0
    3.2314  -12.9830    0.0000 C   0  0  0  0  0  0  0  0  0  0  0  0
    3.9075  -12.5103    0.0000 C   0  0  0  0  0  0  0  0  0  0  0  0
    4.6987  -12.7443    0.0000 O   0  0  0  0  0  0  0  0  0  0  0  0
    5.3298  -12.2129    0.0000 C   0  0  1  0  0  0  0  0  0  0  0  0
    5.3572  -11.3884    0.0000 C   0  0  2  0  0  0  0  0  0  0  0  0
120 83  1  6  0  0  0
123 84  1  1  0  0  0
140 85  1  6  0  0  0
141 86  1  1  0  0  0
122142  1  1  0  0  0
135 87  1  0  0  0  0
134 88  1  0  0  0  0
133 89  1  0  0  0  0
130 90  1  0  0  0  0
129 91  1  0  0  0  0
128 92  1  0  0  0  0
114 93  1  0  0  0  0
113 94  1  0  0  0  0
112 95  1  0  0  0  0
109 96  1  0  0  0  0
108 97  1  0  0  0  0
107 98  1  0  0  0  0
138 99  2  0  0  0  0
125100  2  0  0  0  0
117101  2  0  0  0  0
104102  2  0  0  0  0
137132  1  0  0  0  0
131126  1  0  0  0  0
140123  1  0  0  0  0
116111  1  0  0  0  0
110105  1  0  0  0  0
141120  1  0  0  0  0
141103  1  0  0  0  0
104103  1  0  0  0  0
105104  1  0  0  0  0
106105  2  0  0  0  0
107106  1  0  0  0  0
108107  2  0  0  0  0
109108  1  0  0  0  0
110109  2  0  0  0  0
111110  1  0  0  0  0
112111  2  0  0  0  0
113112  1  0  0  0  0
114113  2  0  0  0  0
115114  1  0  0  0  0
116115  2  0  0  0  0
117116  1  0  0  0  0
118117  1  0  0  0  0
119118  1  0  0  0  0
120119  1  0  0  0  0
121120  1  0  0  0  0
122121  1  0  0  0  0
123122  1  0  0  0  0
124123  1  0  0  0  0
125124  1  0  0  0  0
126125  1  0  0  0  0
127126  2  0  0  0  0
128127  1  0  0  0  0
129128  2  0  0  0  0
130129  1  0  0  0  0
131130  2  0  0  0  0
132131  1  0  0  0  0
133132  2  0  0  0  0
134133  1  0  0  0  0
135134  2  0  0  0  0
  1  2  1  0  0  0  0
  2  3  1  0  0  0  0
  3  4  2  0  0  0  0
  4  5  1  0  0  0  0
  5  6  2  0  0  0  0
  6  7  1  0  0  0  0
  2  7  2  0  0  0  0
  1  8  2  0  0  0  0
  1  9  1  0  0  0  0
  6 10  1  0  0  0  0
  5 11  1  0  0  0  0
  4 12  1  0  0  0  0
 13 14  1  0  0  0  0
 14 15  1  0  0  0  0
 15 16  1  0  0  0  0
 16 17  1  0  0  0  0
 17 18  2  0  0  0  0
 18 19  1  0  0  0  0
 19 20  2  0  0  0  0
 20 21  1  0  0  0  0
 21 22  2  0  0  0  0
 22 23  1  0  0  0  0
 23 24  2  0  0  0  0
 24 25  1  0  0  0  0
 25 26  2  0  0  0  0
 26 27  1  0  0  0  0
 27 28  2  0  0  0  0
 28 29  1  0  0  0  0
 29 30  1  0  0  0  0
 30 31  1  0  0  0  0
 31 32  1  0  0  0  0
 32 33  1  0  0  0  0
 33 34  1  0  0  0  0
 34 35  1  0  0  0  0
 35 36  1  0  0  0  0
 36 37  1  0  0  0  0
 37 38  1  0  0  0  0
 38 39  2  0  0  0  0
 39 40  1  0  0  0  0
 40 41  2  0  0  0  0
 41 42  1  0  0  0  0
 42 43  2  0  0  0  0
 43 44  1  0  0  0  0
 44 45  1  0  0  0  0
 45 46  2  0  0  0  0
 46 47  1  0  0  0  0
 47 48  2  0  0  0  0
 48 49  1  0  0  0  0
 49 50  1  0  0  0  0
 50 51  1  0  0  0  0
 13 51  1  0  0  0  0
 13 34  1  0  0  0  0
 44 49  2  0  0  0  0
 38 43  1  0  0  0  0
 14 31  1  0  0  0  0
 23 28  1  0  0  0  0
 17 22  1  0  0  0  0
 50 52  2  0  0  0  0
 37 53  2  0  0  0  0
 29 54  2  0  0  0  0
 16 55  2  0  0  0  0
 47 56  1  0  0  0  0
 46 57  1  0  0  0  0
 45 58  1  0  0  0  0
 42 59  1  0  0  0  0
 41 60  1  0  0  0  0
 40 61  1  0  0  0  0
 26 62  1  0  0  0  0
 25 63  1  0  0  0  0
 24 64  1  0  0  0  0
 21 65  1  0  0  0  0
 20 66  1  0  0  0  0
 19 67  1  0  0  0  0
 69 70  1  0  0  0  0
 70 71  2  0  0  0  0
 71 72  1  0  0  0  0
 72 73  2  0  0  0  0
 73 74  1  0  0  0  0
 69 74  2  0  0  0  0
 68 69  1  0  0  0  0
 71 75  1  0  0  0  0
 70 76  1  0  0  0  0
 77 78  2  0  0  0  0
136135  1  0  0  0  0
137136  2  0  0  0  0
138137  1  0  0  0  0
139138  1  0  0  0  0
140139  1  0  0  0  0
141140  1  0  0  0  0
 77142  1  0  0  0  0
 73 77  1  0  0  0  0
 48 68  1  0  0  0  0
 32  9  1  6  0  0  0
 13 79  1  1  0  0  0
 14 80  1  6  0  0  0
 31 81  1  1  0  0  0
 34 82  1  6  0  0  0
 98143  1  0  0  0  0
143144  2  0  0  0  0
144145  1  0  0  0  0
145146  2  0  0  0  0
146147  1  0  0  0  0
147148  2  0  0  0  0
148143  1  0  0  0  0
147149  1  0  0  0  0
148150  1  0  0  0  0
145151  1  0  0  0  0
151152  1  0  0  0  0
151153  2  0  0  0  0
191154  1  6  0  0  0
194155  1  1  0  0  0
211156  1  6  0  0  0
212157  1  1  0  0  0
206158  1  0  0  0  0
205159  1  0  0  0  0
204160  1  0  0  0  0
201161  1  0  0  0  0
200162  1  0  0  0  0
199163  1  0  0  0  0
185164  1  0  0  0  0
184165  1  0  0  0  0
183166  1  0  0  0  0
180167  1  0  0  0  0
179168  1  0  0  0  0
178169  1  0  0  0  0
209170  2  0  0  0  0
196171  2  0  0  0  0
188172  2  0  0  0  0
175173  2  0  0  0  0
208203  1  0  0  0  0
202197  1  0  0  0  0
211194  1  0  0  0  0
187182  1  0  0  0  0
181176  1  0  0  0  0
212191  1  0  0  0  0
212174  1  0  0  0  0
175174  1  0  0  0  0
176175  1  0  0  0  0
177176  2  0  0  0  0
178177  1  0  0  0  0
179178  2  0  0  0  0
180179  1  0  0  0  0
181180  2  0  0  0  0
182181  1  0  0  0  0
183182  2  0  0  0  0
184183  1  0  0  0  0
185184  2  0  0  0  0
186185  1  0  0  0  0
187186  2  0  0  0  0
188187  1  0  0  0  0
189188  1  0  0  0  0
190189  1  0  0  0  0
191190  1  0  0  0  0
192191  1  0  0  0  0
193192  1  0  0  0  0
194193  1  0  0  0  0
195194  1  0  0  0  0
196195  1  0  0  0  0
197196  1  0  0  0  0
198197  2  0  0  0  0
199198  1  0  0  0  0
200199  2  0  0  0  0
201200  1  0  0  0  0
202201  2  0  0  0  0
203202  1  0  0  0  0
204203  2  0  0  0  0
205204  1  0  0  0  0
206205  2  0  0  0  0
207206  1  0  0  0  0
208207  2  0  0  0  0
209208  1  0  0  0  0
210209  1  0  0  0  0
211210  1  0  0  0  0
212211  1  0  0  0  0
193152  1  1  0  0  0
M  END
>  <cdx:fragmentId>
344

$$$$
