101131177.cdx
  Mrv1902 05222410212D          

 42 49  0  0  0  0            999 V2000
    8.2192  -11.0976    0.0000 C   0  0  2  0  0  0  0  0  0  0  0  0
    9.0038  -10.8426    0.0000 C   0  0  1  0  0  0  0  0  0  0  0  0
    9.4888  -11.5101    0.0000 O   0  0  0  0  0  0  0  0  0  0  0  0
    9.0038  -12.1775    0.0000 C   0  0  0  0  0  0  0  0  0  0  0  0
    8.2192  -11.9226    0.0000 C   0  0  1  0  0  0  0  0  0  0  0  0
    7.6358  -12.5059    0.0000 C   0  0  0  0  0  0  0  0  0  0  0  0
    6.8108  -12.5059    0.0000 C   0  0  0  0  0  0  0  0  0  0  0  0
    6.2275  -11.9226    0.0000 C   0  0  2  0  0  0  0  0  0  0  0  0
    5.5130  -12.3351    0.0000 C   0  0  1  0  0  0  0  0  0  0  0  0
    5.5130  -13.1601    0.0000 C   0  0  0  0  0  0  0  0  0  0  0  0
    4.7985  -13.5726    0.0000 C   0  0  0  0  0  0  0  0  0  0  0  0
    4.0841  -13.1601    0.0000 C   0  0  0  0  0  0  0  0  0  0  0  0
    4.0841  -12.3351    0.0000 C   0  0  0  0  0  0  0  0  0  0  0  0
    4.7985  -11.9226    0.0000 C   0  0  0  0  0  0  0  0  0  0  0  0
    4.7985  -11.0976    0.0000 C   0  0  0  0  0  0  0  0  0  0  0  0
    5.5130  -10.6851    0.0000 C   0  0  0  0  0  0  0  0  0  0  0  0
    6.2275  -11.0976    0.0000 C   0  0  1  0  0  0  0  0  0  0  0  0
    6.8108  -10.5142    0.0000 C   0  0  2  0  0  0  0  0  0  0  0  0
    6.3417   -9.3604    0.0000 O   0  0  0  0  0  0  0  0  0  0  0  0
    6.9179   -8.7698    0.0000 C   0  0  0  0  0  0  0  0  0  0  0  0
    7.7389   -8.8521    0.0000 C   0  0  2  0  0  0  0  0  0  0  0  0
    8.7280   -8.4342    0.0000 C   0  0  0  0  0  0  0  0  0  0  0  0
    9.5827   -9.0821    0.0000 O   0  0  0  0  0  0  0  0  0  0  0  0
    9.4454  -10.1458    0.0000 C   0  0  2  0  0  0  0  0  0  0  0  0
    9.0057   -9.4478    0.0000 C   0  0  0  0  0  0  0  0  0  0  0  0
    8.1864   -9.5453    0.0000 C   0  0  1  0  0  0  0  0  0  0  0  0
    7.9236  -10.3274    0.0000 C   0  0  2  0  0  0  0  0  0  0  0  0
    7.6358  -10.5142    0.0000 O   0  0  0  0  0  0  0  0  0  0  0  0
    7.1482  -10.6095    0.0000 C   0  0  0  0  0  0  0  0  0  0  0  0
    9.2588  -12.9621    0.0000 O   0  0  0  0  0  0  0  0  0  0  0  0
    6.2275  -13.5726    0.0000 O   0  0  0  0  0  0  0  0  0  0  0  0
    8.8304   -7.6156    0.0000 O   0  0  0  0  0  0  0  0  0  0  0  0
    7.1482  -11.4345    0.0000 O   0  0  0  0  0  0  0  0  0  0  0  0
    8.4958   -9.0094    0.0000 C   0  0  0  0  0  0  0  0  0  0  0  0
    5.5130  -11.5101    0.0000 C   0  0  0  0  0  0  0  0  0  0  0  0
    9.8288  -10.8426    0.0000 C   0  0  0  0  0  0  0  0  0  0  0  0
    8.4118  -12.7248    0.0000 O   0  0  0  0  0  0  0  0  0  0  0  0
    6.2275  -12.7476    0.0000 H   0  0  0  0  0  0  0  0  0  0  0  0
    6.1198  -10.2796    0.0000 H   0  0  0  0  0  0  0  0  0  0  0  0
    7.6156   -8.0364    0.0000 H   0  0  0  0  0  0  0  0  0  0  0  0
   10.2214  -10.4260    0.0000 H   0  0  0  0  0  0  0  0  0  0  0  0
    7.3330   -9.7513    0.0000 H   0  0  0  0  0  0  0  0  0  0  0  0
  1  2  1  0  0  0  0
  2  3  1  0  0  0  0
  3  4  1  0  0  0  0
  4  5  1  0  0  0  0
  5  6  1  0  0  0  0
  6  7  1  0  0  0  0
  7  8  1  0  0  0  0
  8  9  1  0  0  0  0
  9 10  1  0  0  0  0
 10 11  1  0  0  0  0
 11 12  1  0  0  0  0
 12 13  2  0  0  0  0
 13 14  1  0  0  0  0
 14 15  2  0  0  0  0
 15 16  1  0  0  0  0
 16 17  1  0  0  0  0
 17 18  1  0  0  0  0
 18 19  1  0  0  0  0
 19 20  1  0  0  0  0
 20 21  1  0  0  0  0
 21 22  1  0  0  0  0
 22 23  1  0  0  0  0
 23 24  1  0  0  0  0
 24 25  1  6  0  0  0
 25 26  1  0  0  0  0
 26 27  1  0  0  0  0
  1 27  1  0  0  0  0
  1 28  1  1  0  0  0
 18 28  1  6  0  0  0
 27 29  1  0  0  0  0
 29 18  1  0  0  0  0
 21 26  1  0  0  0  0
  2 24  1  0  0  0  0
  8 17  1  0  0  0  0
  9 14  1  0  0  0  0
  1  5  1  0  0  0  0
  4 30  2  0  0  0  0
 10 31  2  0  0  0  0
 22 32  2  0  0  0  0
 29 33  2  0  0  0  0
 26 34  1  6  0  0  0
  9 35  1  6  0  0  0
  2 36  1  1  0  0  0
  5 37  1  6  0  0  0
  8 38  1  1  0  0  0
 17 39  1  6  0  0  0
 21 40  1  1  0  0  0
 24 41  1  0  0  0  0
 27 42  1  6  0  0  0
M  END
>  <cdx:groupId>
310

>  <cdx:fragmentId>
180

$$$$
