13110.cdx
  Mrv1902 05222410192D          

 20 21  0  0  0  0            999 V2000
    5.8051   -9.3595    0.0000 C   0  0  0  0  0  0  0  0  0  0  0  0
    6.5218   -8.9508    0.0000 C   0  0  0  0  0  0  0  0  0  0  0  0
    6.5261   -8.1258    0.0000 C   0  0  0  0  0  0  0  0  0  0  0  0
    5.8138   -7.7095    0.0000 C   0  0  0  0  0  0  0  0  0  0  0  0
    5.0972   -8.1182    0.0000 C   0  0  0  0  0  0  0  0  0  0  0  0
    5.0929   -8.9432    0.0000 C   0  0  0  0  0  0  0  0  0  0  0  0
    5.8008  -10.1845    0.0000 C   0  0  0  0  0  0  0  0  0  0  0  0
    5.8182   -6.8845    0.0000 C   0  0  0  0  0  0  0  0  0  0  0  0
    5.1037   -6.4720    0.0000 C   0  0  0  0  0  0  0  0  0  0  0  0
    6.5348   -6.4758    0.0000 C   0  0  0  0  0  0  0  0  0  0  0  0
    7.2428   -7.7170    0.0000 C   0  0  0  0  0  0  0  0  0  0  0  0
    7.9550   -8.1333    0.0000 C   0  0  0  0  0  0  0  0  0  0  0  0
    8.6717   -7.7246    0.0000 C   0  0  0  0  0  0  0  0  0  0  0  0
    8.6760   -6.8996    0.0000 C   0  0  0  0  0  0  0  0  0  0  0  0
    7.9637   -6.4833    0.0000 C   0  0  0  0  0  0  0  0  0  0  0  0
    7.2471   -6.8920    0.0000 C   0  0  0  0  0  0  0  0  0  0  0  0
    7.9507   -8.9583    0.0000 O   0  0  0  0  0  0  0  0  0  0  0  0
    7.9681   -5.6583    0.0000 C   0  0  0  0  0  0  0  0  0  0  0  0
    8.6847   -5.2496    0.0000 C   0  0  0  0  0  0  0  0  0  0  0  0
    8.6891   -4.4246    0.0000 C   0  0  0  0  0  0  0  0  0  0  0  0
  1  2  1  0  0  0  0
  2  3  1  0  0  0  0
  3  4  1  0  0  0  0
  4  5  1  0  0  0  0
  5  6  1  0  0  0  0
  6  1  1  0  0  0  0
  1  7  1  0  0  0  0
  4  8  1  0  0  0  0
  8  9  1  0  0  0  0
  8 10  1  0  0  0  0
  3 11  1  0  0  0  0
 11 12  2  0  0  0  0
 12 13  1  0  0  0  0
 13 14  2  0  0  0  0
 14 15  1  0  0  0  0
 15 16  2  0  0  0  0
 16 11  1  0  0  0  0
 12 17  1  0  0  0  0
 15 18  1  0  0  0  0
 18 19  1  0  0  0  0
 19 20  2  0  0  0  0
M  END
>  <cdx:fragmentId>
5

$$$$
