131123.cdx
  Mrv1902 05222410262D          

142157  0  0  0  0            999 V2000
   20.8999   -8.9536    0.0000 C   0  0  0  0  0  0  0  0  0  0  0  0
   21.6091   -9.3750    0.0000 C   0  0  0  0  0  0  0  0  0  0  0  0
   22.3287   -8.9714    0.0000 C   0  0  0  0  0  0  0  0  0  0  0  0
   23.0380   -9.3928    0.0000 C   0  0  0  0  0  0  0  0  0  0  0  0
   23.0277  -10.2177    0.0000 C   0  0  0  0  0  0  0  0  0  0  0  0
   22.3082  -10.6213    0.0000 C   0  0  0  0  0  0  0  0  0  0  0  0
   21.5989  -10.1999    0.0000 C   0  0  0  0  0  0  0  0  0  0  0  0
   20.9101   -8.1287    0.0000 O   0  0  0  0  0  0  0  0  0  0  0  0
   20.1803   -9.3572    0.0000 O   0  0  0  0  0  0  0  0  0  0  0  0
   22.2979  -11.4462    0.0000 O   0  0  0  0  0  0  0  0  0  0  0  0
   23.7370  -10.6391    0.0000 O   0  0  0  0  0  0  0  0  0  0  0  0
   23.7575   -8.9892    0.0000 O   0  0  0  0  0  0  0  0  0  0  0  0
   18.0525   -8.0931    0.0000 C   0  0  1  0  0  0  0  0  0  0  0  0
   18.0422   -8.9180    0.0000 C   0  0  2  0  0  0  0  0  0  0  0  0
   17.4223   -9.4624    0.0000 O   0  0  0  0  0  0  0  0  0  0  0  0
   17.7484  -10.2202    0.0000 C   0  0  0  0  0  0  0  0  0  0  0  0
   17.2957  -10.9098    0.0000 C   0  0  0  0  0  0  0  0  0  0  0  0
   16.4883  -10.7403    0.0000 C   0  0  0  0  0  0  0  0  0  0  0  0
   15.9378  -11.3548    0.0000 C   0  0  0  0  0  0  0  0  0  0  0  0
   16.1947  -12.1388    0.0000 C   0  0  0  0  0  0  0  0  0  0  0  0
   17.0021  -12.3083    0.0000 C   0  0  0  0  0  0  0  0  0  0  0  0
   17.5526  -11.6938    0.0000 C   0  0  0  0  0  0  0  0  0  0  0  0
   18.3257  -11.9818    0.0000 C   0  0  0  0  0  0  0  0  0  0  0  0
   18.3401  -12.8066    0.0000 C   0  0  0  0  0  0  0  0  0  0  0  0
   19.0617  -13.2066    0.0000 C   0  0  0  0  0  0  0  0  0  0  0  0
   19.7688  -12.7817    0.0000 C   0  0  0  0  0  0  0  0  0  0  0  0
   19.7544  -11.9568    0.0000 C   0  0  0  0  0  0  0  0  0  0  0  0
   19.0328  -11.5569    0.0000 C   0  0  0  0  0  0  0  0  0  0  0  0
   19.1415  -10.7390    0.0000 C   0  0  0  0  0  0  0  0  0  0  0  0
   18.5699  -10.1442    0.0000 O   0  0  0  0  0  0  0  0  0  0  0  0
   18.7515   -9.3394    0.0000 C   0  0  1  0  0  0  0  0  0  0  0  0
   19.4710   -8.9358    0.0000 C   0  0  2  0  0  0  0  0  0  0  0  0
   19.4813   -8.1109    0.0000 O   0  0  0  0  0  0  0  0  0  0  0  0
   18.7720   -7.6895    0.0000 C   0  0  2  0  0  0  0  0  0  0  0  0
   18.6106   -6.8805    0.0000 C   0  0  0  0  0  0  0  0  0  0  0  0
   17.7912   -6.7840    0.0000 O   0  0  0  0  0  0  0  0  0  0  0  0
   17.5052   -6.0102    0.0000 C   0  0  0  0  0  0  0  0  0  0  0  0
   16.7558   -5.6653    0.0000 C   0  0  0  0  0  0  0  0  0  0  0  0
   16.8949   -4.8521    0.0000 C   0  0  0  0  0  0  0  0  0  0  0  0
   16.2603   -4.3250    0.0000 C   0  0  0  0  0  0  0  0  0  0  0  0
   15.4865   -4.6110    0.0000 C   0  0  0  0  0  0  0  0  0  0  0  0
   15.3473   -5.4242    0.0000 C   0  0  0  0  0  0  0  0  0  0  0  0
   15.9819   -5.9513    0.0000 C   0  0  0  0  0  0  0  0  0  0  0  0
   15.6370   -6.7008    0.0000 C   0  0  0  0  0  0  0  0  0  0  0  0
   14.8238   -6.5616    0.0000 C   0  0  0  0  0  0  0  0  0  0  0  0
   14.2967   -7.1962    0.0000 C   0  0  0  0  0  0  0  0  0  0  0  0
   14.5827   -7.9700    0.0000 C   0  0  0  0  0  0  0  0  0  0  0  0
   15.3959   -8.1092    0.0000 C   0  0  0  0  0  0  0  0  0  0  0  0
   15.9230   -7.4746    0.0000 C   0  0  0  0  0  0  0  0  0  0  0  0
   16.6725   -7.8195    0.0000 C   0  0  0  0  0  0  0  0  0  0  0  0
   17.4463   -7.5335    0.0000 O   0  0  0  0  0  0  0  0  0  0  0  0
   16.6406   -8.6439    0.0000 O   0  0  0  0  0  0  0  0  0  0  0  0
   18.1107   -5.4498    0.0000 O   0  0  0  0  0  0  0  0  0  0  0  0
   19.9255  -10.4821    0.0000 O   0  0  0  0  0  0  0  0  0  0  0  0
   16.9266  -10.1483    0.0000 O   0  0  0  0  0  0  0  0  0  0  0  0
   14.0556   -8.6047    0.0000 O   0  0  0  0  0  0  0  0  0  0  0  0
   13.4835   -7.0570    0.0000 O   0  0  0  0  0  0  0  0  0  0  0  0
   14.2904   -5.9322    0.0000 O   0  0  0  0  0  0  0  0  0  0  0  0
   14.5223   -5.4283    0.0000 O   0  0  0  0  0  0  0  0  0  0  0  0
   14.8519   -4.0839    0.0000 O   0  0  0  0  0  0  0  0  0  0  0  0
   16.3995   -3.5118    0.0000 O   0  0  0  0  0  0  0  0  0  0  0  0
   20.5183  -13.1266    0.0000 O   0  0  0  0  0  0  0  0  0  0  0  0
   19.1377  -14.0281    0.0000 O   0  0  0  0  0  0  0  0  0  0  0  0
   17.6667  -13.2832    0.0000 O   0  0  0  0  0  0  0  0  0  0  0  0
   17.2590  -13.0923    0.0000 O   0  0  0  0  0  0  0  0  0  0  0  0
   15.6442  -12.7533    0.0000 O   0  0  0  0  0  0  0  0  0  0  0  0
   15.1304  -11.1853    0.0000 O   0  0  0  0  0  0  0  0  0  0  0  0
   15.6820   -8.8830    0.0000 O   0  0  0  0  0  0  0  0  0  0  0  0
   14.9210   -9.7060    0.0000 C   0  0  0  0  0  0  0  0  0  0  0  0
   15.2071  -10.4798    0.0000 C   0  0  0  0  0  0  0  0  0  0  0  0
   14.6799  -11.1144    0.0000 C   0  0  0  0  0  0  0  0  0  0  0  0
   13.8668  -10.9752    0.0000 C   0  0  0  0  0  0  0  0  0  0  0  0
   13.5807  -10.2014    0.0000 C   0  0  0  0  0  0  0  0  0  0  0  0
   14.1079   -9.5668    0.0000 C   0  0  0  0  0  0  0  0  0  0  0  0
   14.9660  -11.8882    0.0000 O   0  0  0  0  0  0  0  0  0  0  0  0
   16.0202  -10.6190    0.0000 O   0  0  0  0  0  0  0  0  0  0  0  0
   12.7676  -10.0622    0.0000 C   0  0  0  0  0  0  0  0  0  0  0  0
   12.4815   -9.2884    0.0000 O   0  0  0  0  0  0  0  0  0  0  0  0
   17.2496   -8.2827    0.0000 H   0  0  0  0  0  0  0  0  0  0  0  0
   17.2443   -8.7085    0.0000 H   0  0  0  0  0  0  0  0  0  0  0  0
   19.4128   -9.8326    0.0000 H   0  0  0  0  0  0  0  0  0  0  0  0
   19.4455   -7.2130    0.0000 H   0  0  0  0  0  0  0  0  0  0  0  0
   10.4951   -9.2506    0.0000 H   0  0  0  0  0  0  0  0  0  0  0  0
   11.8335  -11.5027    0.0000 H   0  0  0  0  0  0  0  0  0  0  0  0
    9.4705  -11.8461    0.0000 H   0  0  0  0  0  0  0  0  0  0  0  0
    9.1793  -11.3084    0.0000 H   0  0  0  0  0  0  0  0  0  0  0  0
    6.7605  -13.8959    0.0000 O   0  0  0  0  0  0  0  0  0  0  0  0
    7.5606  -15.3389    0.0000 O   0  0  0  0  0  0  0  0  0  0  0  0
    9.2104  -15.3674    0.0000 O   0  0  0  0  0  0  0  0  0  0  0  0
    9.6440  -15.4755    0.0000 O   0  0  0  0  0  0  0  0  0  0  0  0
   11.2282  -15.9334    0.0000 O   0  0  0  0  0  0  0  0  0  0  0  0
   12.4168  -14.7904    0.0000 O   0  0  0  0  0  0  0  0  0  0  0  0
    5.9659   -7.6814    0.0000 O   0  0  0  0  0  0  0  0  0  0  0  0
    4.9438   -8.9767    0.0000 O   0  0  0  0  0  0  0  0  0  0  0  0
    5.3638  -10.2957    0.0000 O   0  0  0  0  0  0  0  0  0  0  0  0
    5.4287  -10.8466    0.0000 O   0  0  0  0  0  0  0  0  0  0  0  0
    5.3269  -12.2271    0.0000 O   0  0  0  0  0  0  0  0  0  0  0  0
    6.6222  -13.2492    0.0000 O   0  0  0  0  0  0  0  0  0  0  0  0
    8.4666  -11.9919    0.0000 O   0  0  0  0  0  0  0  0  0  0  0  0
    9.7937  -12.6297    0.0000 O   0  0  0  0  0  0  0  0  0  0  0  0
    8.4135   -8.4363    0.0000 O   0  0  0  0  0  0  0  0  0  0  0  0
    8.9672  -11.8535    0.0000 O   0  0  0  0  0  0  0  0  0  0  0  0
    8.9565  -10.5668    0.0000 O   0  0  0  0  0  0  0  0  0  0  0  0
    8.4455  -11.2144    0.0000 C   0  0  0  0  0  0  0  0  0  0  0  0
    7.6262  -11.3110    0.0000 C   0  0  0  0  0  0  0  0  0  0  0  0
    7.5074  -12.1274    0.0000 C   0  0  0  0  0  0  0  0  0  0  0  0
    6.7410  -12.4328    0.0000 C   0  0  0  0  0  0  0  0  0  0  0  0
    6.0934  -11.9217    0.0000 C   0  0  0  0  0  0  0  0  0  0  0  0
    6.2121  -11.1053    0.0000 C   0  0  0  0  0  0  0  0  0  0  0  0
    6.9785  -10.7999    0.0000 C   0  0  0  0  0  0  0  0  0  0  0  0
    6.8819   -9.9806    0.0000 C   0  0  0  0  0  0  0  0  0  0  0  0
    6.0655   -9.8619    0.0000 C   0  0  0  0  0  0  0  0  0  0  0  0
    5.7602   -9.0954    0.0000 C   0  0  0  0  0  0  0  0  0  0  0  0
    6.2712   -8.4478    0.0000 C   0  0  0  0  0  0  0  0  0  0  0  0
    7.0876   -8.5666    0.0000 C   0  0  0  0  0  0  0  0  0  0  0  0
    7.3930   -9.3330    0.0000 C   0  0  0  0  0  0  0  0  0  0  0  0
    8.2123   -9.2364    0.0000 C   0  0  0  0  0  0  0  0  0  0  0  0
    8.8600   -9.7474    0.0000 O   0  0  0  0  0  0  0  0  0  0  0  0
    9.6093   -9.4024    0.0000 C   0  0  0  0  0  0  0  0  0  0  0  0
   10.1691  -10.0085    0.0000 C   0  0  1  0  0  0  0  0  0  0  0  0
   10.9940   -9.9980    0.0000 O   0  0  0  0  0  0  0  0  0  0  0  0
   11.4155  -10.7072    0.0000 C   0  0  2  0  0  0  0  0  0  0  0  0
   11.0120  -11.4269    0.0000 C   0  0  2  0  0  0  0  0  0  0  0  0
   11.2769  -12.2082    0.0000 O   0  0  0  0  0  0  0  0  0  0  0  0
   10.6156  -12.7015    0.0000 C   0  0  0  0  0  0  0  0  0  0  0  0
   10.6630  -13.5252    0.0000 C   0  0  0  0  0  0  0  0  0  0  0  0
   11.4471  -13.7819    0.0000 C   0  0  0  0  0  0  0  0  0  0  0  0
   11.6167  -14.5893    0.0000 C   0  0  0  0  0  0  0  0  0  0  0  0
   11.0023  -15.1399    0.0000 C   0  0  0  0  0  0  0  0  0  0  0  0
   10.2183  -14.8831    0.0000 C   0  0  0  0  0  0  0  0  0  0  0  0
   10.0486  -14.0758    0.0000 C   0  0  0  0  0  0  0  0  0  0  0  0
    9.2351  -13.9387    0.0000 C   0  0  0  0  0  0  0  0  0  0  0  0
    8.8103  -14.6459    0.0000 C   0  0  0  0  0  0  0  0  0  0  0  0
    7.9854  -14.6317    0.0000 C   0  0  0  0  0  0  0  0  0  0  0  0
    7.5854  -13.9102    0.0000 C   0  0  0  0  0  0  0  0  0  0  0  0
    8.0101  -13.2029    0.0000 C   0  0  0  0  0  0  0  0  0  0  0  0
    8.8350  -13.2172    0.0000 C   0  0  0  0  0  0  0  0  0  0  0  0
    9.1497  -12.4546    0.0000 C   0  0  0  0  0  0  0  0  0  0  0  0
    9.9421  -12.2251    0.0000 O   0  0  0  0  0  0  0  0  0  0  0  0
   10.1871  -11.4373    0.0000 C   0  0  1  0  0  0  0  0  0  0  0  0
    9.7656  -10.7281    0.0000 C   0  0  2  0  0  0  0  0  0  0  0  0
   12.2404  -10.6968    0.0000 O   0  0  0  0  0  0  0  0  0  0  0  0
120 83  1  6  0  0  0
123 84  1  1  0  0  0
140 85  1  6  0  0  0
141 86  1  1  0  0  0
122142  1  1  0  0  0
135 87  1  0  0  0  0
134 88  1  0  0  0  0
133 89  1  0  0  0  0
130 90  1  0  0  0  0
129 91  1  0  0  0  0
128 92  1  0  0  0  0
114 93  1  0  0  0  0
113 94  1  0  0  0  0
112 95  1  0  0  0  0
109 96  1  0  0  0  0
108 97  1  0  0  0  0
107 98  1  0  0  0  0
138 99  2  0  0  0  0
125100  2  0  0  0  0
117101  2  0  0  0  0
104102  2  0  0  0  0
137132  1  0  0  0  0
131126  1  0  0  0  0
140123  1  0  0  0  0
116111  1  0  0  0  0
110105  1  0  0  0  0
141120  1  0  0  0  0
141103  1  0  0  0  0
104103  1  0  0  0  0
105104  1  0  0  0  0
106105  2  0  0  0  0
107106  1  0  0  0  0
108107  2  0  0  0  0
109108  1  0  0  0  0
110109  2  0  0  0  0
111110  1  0  0  0  0
112111  2  0  0  0  0
113112  1  0  0  0  0
114113  2  0  0  0  0
115114  1  0  0  0  0
116115  2  0  0  0  0
117116  1  0  0  0  0
118117  1  0  0  0  0
119118  1  0  0  0  0
120119  1  0  0  0  0
121120  1  0  0  0  0
122121  1  0  0  0  0
123122  1  0  0  0  0
124123  1  0  0  0  0
125124  1  0  0  0  0
126125  1  0  0  0  0
127126  2  0  0  0  0
128127  1  0  0  0  0
129128  2  0  0  0  0
130129  1  0  0  0  0
131130  2  0  0  0  0
132131  1  0  0  0  0
133132  2  0  0  0  0
134133  1  0  0  0  0
135134  2  0  0  0  0
  1  2  1  0  0  0  0
  2  3  1  0  0  0  0
  3  4  2  0  0  0  0
  4  5  1  0  0  0  0
  5  6  2  0  0  0  0
  6  7  1  0  0  0  0
  2  7  2  0  0  0  0
  1  8  2  0  0  0  0
  1  9  1  0  0  0  0
  6 10  1  0  0  0  0
  5 11  1  0  0  0  0
  4 12  1  0  0  0  0
 13 14  1  0  0  0  0
 14 15  1  0  0  0  0
 15 16  1  0  0  0  0
 16 17  1  0  0  0  0
 17 18  2  0  0  0  0
 18 19  1  0  0  0  0
 19 20  2  0  0  0  0
 20 21  1  0  0  0  0
 21 22  2  0  0  0  0
 22 23  1  0  0  0  0
 23 24  2  0  0  0  0
 24 25  1  0  0  0  0
 25 26  2  0  0  0  0
 26 27  1  0  0  0  0
 27 28  2  0  0  0  0
 28 29  1  0  0  0  0
 29 30  1  0  0  0  0
 30 31  1  0  0  0  0
 31 32  1  0  0  0  0
 32 33  1  0  0  0  0
 33 34  1  0  0  0  0
 34 35  1  0  0  0  0
 35 36  1  0  0  0  0
 36 37  1  0  0  0  0
 37 38  1  0  0  0  0
 38 39  2  0  0  0  0
 39 40  1  0  0  0  0
 40 41  2  0  0  0  0
 41 42  1  0  0  0  0
 42 43  2  0  0  0  0
 43 44  1  0  0  0  0
 44 45  1  0  0  0  0
 45 46  2  0  0  0  0
 46 47  1  0  0  0  0
 47 48  2  0  0  0  0
 48 49  1  0  0  0  0
 49 50  1  0  0  0  0
 50 51  1  0  0  0  0
 13 51  1  0  0  0  0
 13 34  1  0  0  0  0
 44 49  2  0  0  0  0
 38 43  1  0  0  0  0
 14 31  1  0  0  0  0
 23 28  1  0  0  0  0
 17 22  1  0  0  0  0
 50 52  2  0  0  0  0
 37 53  2  0  0  0  0
 29 54  2  0  0  0  0
 16 55  2  0  0  0  0
 47 56  1  0  0  0  0
 46 57  1  0  0  0  0
 45 58  1  0  0  0  0
 42 59  1  0  0  0  0
 41 60  1  0  0  0  0
 40 61  1  0  0  0  0
 26 62  1  0  0  0  0
 25 63  1  0  0  0  0
 24 64  1  0  0  0  0
 21 65  1  0  0  0  0
 20 66  1  0  0  0  0
 19 67  1  0  0  0  0
 69 70  1  0  0  0  0
 70 71  2  0  0  0  0
 71 72  1  0  0  0  0
 72 73  2  0  0  0  0
 73 74  1  0  0  0  0
 69 74  2  0  0  0  0
 68 69  1  0  0  0  0
 71 75  1  0  0  0  0
 70 76  1  0  0  0  0
 77 78  2  0  0  0  0
136135  1  0  0  0  0
137136  2  0  0  0  0
138137  1  0  0  0  0
139138  1  0  0  0  0
140139  1  0  0  0  0
141140  1  0  0  0  0
 77142  1  0  0  0  0
 73 77  1  0  0  0  0
 48 68  1  0  0  0  0
 32  9  1  6  0  0  0
 13 79  1  1  0  0  0
 14 80  1  6  0  0  0
 31 81  1  1  0  0  0
 34 82  1  6  0  0  0
M  END
>  <cdx:fragmentId>
344

$$$$
