13112.cdx
  Mrv1902 05222410202D          

 20 20  0  0  0  0            999 V2000
    3.0558   -7.0537    0.0000 C   0  0  0  0  0  0  0  0  0  0  0  0
    3.0558   -7.8788    0.0000 C   0  0  0  0  0  0  0  0  0  0  0  0
    3.7702   -8.2912    0.0000 C   0  0  0  0  0  0  0  0  0  0  0  0
    4.4847   -7.8788    0.0000 C   0  0  0  0  0  0  0  0  0  0  0  0
    4.4847   -7.0537    0.0000 C   0  0  0  0  0  0  0  0  0  0  0  0
    3.7702   -6.6413    0.0000 C   0  0  0  0  0  0  0  0  0  0  0  0
    3.7702   -5.8163    0.0000 C   0  0  0  0  0  0  0  0  0  0  0  0
    3.7702   -9.1162    0.0000 C   0  0  0  0  0  0  0  0  0  0  0  0
    3.0558   -9.5287    0.0000 C   0  0  0  0  0  0  0  0  0  0  0  0
    4.4847   -9.5287    0.0000 C   0  0  0  0  0  0  0  0  0  0  0  0
    5.1992   -8.2912    0.0000 O   0  0  0  0  0  0  0  0  0  0  0  0
    5.9137   -7.8788    0.0000 C   0  0  0  0  0  0  0  0  0  0  0  0
    5.9137   -7.0537    0.0000 O   0  0  0  0  0  0  0  0  0  0  0  0
    6.6281   -8.2912    0.0000 C   0  0  0  0  0  0  0  0  0  0  0  0
    7.3426   -7.8788    0.0000 C   0  0  0  0  0  0  0  0  0  0  0  0
    8.0571   -8.2912    0.0000 C   0  0  0  0  0  0  0  0  0  0  0  0
    8.7715   -7.8788    0.0000 C   0  0  0  0  0  0  0  0  0  0  0  0
    9.4860   -8.2912    0.0000 C   0  0  0  0  0  0  0  0  0  0  0  0
   10.2005   -7.8788    0.0000 C   0  0  0  0  0  0  0  0  0  0  0  0
   10.9150   -8.2912    0.0000 C   0  0  0  0  0  0  0  0  0  0  0  0
  1  2  1  0  0  0  0
  2  3  1  0  0  0  0
  3  4  1  0  0  0  0
  4  5  1  0  0  0  0
  5  6  1  0  0  0  0
  6  1  1  0  0  0  0
  6  7  1  0  0  0  0
  3  8  1  0  0  0  0
  8  9  1  0  0  0  0
  8 10  1  0  0  0  0
  4 11  1  0  0  0  0
 11 12  1  0  0  0  0
 12 13  2  0  0  0  0
 12 14  1  0  0  0  0
 14 15  1  0  0  0  0
 15 16  1  0  0  0  0
 16 17  1  0  0  0  0
 17 18  1  0  0  0  0
 18 19  1  0  0  0  0
 19 20  1  0  0  0  0
M  END
>  <cdx:fragmentId>
5

$$$$
