13125.cdx
  Mrv1902 05222410272D          

 26 26  0  0  0  0            999 V2000
    2.2102   -7.5075    0.0000 C   0  0  0  0  0  0  0  0  0  0  0  0
    2.2102   -8.3325    0.0000 C   0  0  0  0  0  0  0  0  0  0  0  0
    2.9246   -8.7450    0.0000 C   0  0  0  0  0  0  0  0  0  0  0  0
    3.6391   -8.3325    0.0000 C   0  0  0  0  0  0  0  0  0  0  0  0
    3.6391   -7.5075    0.0000 C   0  0  0  0  0  0  0  0  0  0  0  0
    2.9246   -7.0950    0.0000 C   0  0  0  0  0  0  0  0  0  0  0  0
    1.4957   -8.7450    0.0000 O   0  0  0  0  0  0  0  0  0  0  0  0
    4.3536   -7.0950    0.0000 C   0  0  0  0  0  0  0  0  0  0  0  0
    5.0680   -7.5075    0.0000 C   0  0  0  0  0  0  0  0  0  0  0  0
    5.7825   -7.0950    0.0000 C   0  0  0  0  0  0  0  0  0  0  0  0
    6.4970   -7.5075    0.0000 C   0  0  0  0  0  0  0  0  0  0  0  0
    7.2115   -7.0950    0.0000 C   0  0  2  0  0  0  0  0  0  0  0  0
    7.9259   -7.5075    0.0000 C   0  0  0  0  0  0  0  0  0  0  0  0
    8.6404   -7.0950    0.0000 C   0  0  0  0  0  0  0  0  0  0  0  0
    5.7825   -6.2700    0.0000 O   0  0  0  0  0  0  0  0  0  0  0  0
    7.2115   -6.2700    0.0000 O   0  0  0  0  0  0  0  0  0  0  0  0
    9.3549   -7.5075    0.0000 C   0  0  0  0  0  0  0  0  0  0  0  0
   10.0693   -7.0950    0.0000 C   0  0  0  0  0  0  0  0  0  0  0  0
   10.7838   -7.5075    0.0000 C   0  0  0  0  0  0  0  0  0  0  0  0
   11.4983   -7.0950    0.0000 C   0  0  0  0  0  0  0  0  0  0  0  0
   12.2127   -7.5075    0.0000 C   0  0  0  0  0  0  0  0  0  0  0  0
   12.9272   -7.0950    0.0000 C   0  0  0  0  0  0  0  0  0  0  0  0
   13.6417   -7.5075    0.0000 C   0  0  0  0  0  0  0  0  0  0  0  0
    1.4957   -7.0950    0.0000 O   0  0  0  0  0  0  0  0  0  0  0  0
    0.7812   -7.5075    0.0000 C   0  0  0  0  0  0  0  0  0  0  0  0
    7.9259   -5.8575    0.0000 C   0  0  0  0  0  0  0  0  0  0  0  0
  1  2  2  0  0  0  0
  2  3  1  0  0  0  0
  3  4  2  0  0  0  0
  4  5  1  0  0  0  0
  5  6  2  0  0  0  0
  6  1  1  0  0  0  0
  2  7  1  0  0  0  0
  5  8  1  0  0  0  0
  8  9  1  0  0  0  0
  9 10  1  0  0  0  0
 10 11  1  0  0  0  0
 11 12  1  0  0  0  0
 12 13  1  0  0  0  0
 13 14  1  0  0  0  0
 10 15  2  0  0  0  0
 12 16  1  1  0  0  0
 14 17  1  0  0  0  0
 17 18  1  0  0  0  0
 18 19  1  0  0  0  0
 19 20  1  0  0  0  0
 20 21  1  0  0  0  0
 21 22  1  0  0  0  0
 22 23  1  0  0  0  0
  1 24  1  0  0  0  0
 24 25  1  0  0  0  0
 16 26  1  0  0  0  0
M  END
>  <cdx:fragmentId>
5

$$$$
