13120.cdx
  Mrv1902 05222410272D          

 25 28  0  0  0  0            999 V2000
    3.8808   -7.3631    0.0000 C   0  0  0  0  0  0  0  0  0  0  0  0
    3.8808   -8.1881    0.0000 C   0  0  0  0  0  0  0  0  0  0  0  0
    4.5952   -8.6006    0.0000 C   0  0  1  0  0  0  0  0  0  0  0  0
    5.3097   -8.1881    0.0000 C   0  0  0  0  0  0  0  0  0  0  0  0
    5.3097   -7.3631    0.0000 C   0  0  0  0  0  0  0  0  0  0  0  0
    4.5952   -6.9506    0.0000 C   0  0  0  0  0  0  0  0  0  0  0  0
    6.0242   -8.6006    0.0000 C   0  0  0  0  0  0  0  0  0  0  0  0
    6.7387   -8.1881    0.0000 C   0  0  0  0  0  0  0  0  0  0  0  0
    6.7387   -7.3631    0.0000 C   0  0  0  0  0  0  0  0  0  0  0  0
    6.0242   -6.9506    0.0000 C   0  0  0  0  0  0  0  0  0  0  0  0
    7.4531   -6.9506    0.0000 C   0  0  0  0  0  0  0  0  0  0  0  0
    7.4531   -6.1256    0.0000 C   0  0  0  0  0  0  0  0  0  0  0  0
    6.7387   -5.7131    0.0000 C   0  0  0  0  0  0  0  0  0  0  0  0
    6.0242   -6.1256    0.0000 C   0  0  0  0  0  0  0  0  0  0  0  0
    6.7387   -4.8881    0.0000 O   0  0  0  0  0  0  0  0  0  0  0  0
    5.3097   -5.7131    0.0000 O   0  0  0  0  0  0  0  0  0  0  0  0
    4.1827   -9.3151    0.0000 C   0  0  0  0  0  0  0  0  0  0  0  0
    5.0077   -9.3151    0.0000 C   0  0  0  0  0  0  0  0  0  0  0  0
    8.2378   -7.2056    0.0000 O   0  0  0  0  0  0  0  0  0  0  0  0
    8.7227   -6.5381    0.0000 C   0  0  0  0  0  0  0  0  0  0  0  0
    8.2378   -5.8707    0.0000 C   0  0  0  0  0  0  0  0  0  0  0  0
    8.4927   -5.0861    0.0000 C   0  0  0  0  0  0  0  0  0  0  0  0
    4.5952  -10.0296    0.0000 O   0  0  0  0  0  0  0  0  0  0  0  0
    3.3577   -9.3151    0.0000 O   0  0  0  0  0  0  0  0  0  0  0  0
    2.9452  -10.0296    0.0000 C   0  0  0  0  0  0  0  0  0  0  0  0
  1  2  1  0  0  0  0
  2  3  1  0  0  0  0
  3  4  1  0  0  0  0
  4  5  2  0  0  0  0
  5  6  1  0  0  0  0
  6  1  1  0  0  0  0
  4  7  1  0  0  0  0
  7  8  2  0  0  0  0
  8  9  1  0  0  0  0
  9 10  2  0  0  0  0
 10  5  1  0  0  0  0
  9 11  1  0  0  0  0
 11 12  2  0  0  0  0
 12 13  1  0  0  0  0
 13 14  1  0  0  0  0
 14 10  1  0  0  0  0
 13 15  2  0  0  0  0
 14 16  2  0  0  0  0
  3 17  1  1  0  0  0
  3 18  1  6  0  0  0
 11 19  1  0  0  0  0
 19 20  1  0  0  0  0
 20 21  2  0  0  0  0
 21 12  1  0  0  0  0
 21 22  1  0  0  0  0
 17 23  2  0  0  0  0
 17 24  1  0  0  0  0
 24 25  1  0  0  0  0
M  END
>  <cdx:fragmentId>
5

$$$$
