13136.cdx
  Mrv1902 05222410262D          

 45 49  0  0  0  0            999 V2000
    6.7683   -5.0944    0.0000 C   0  0  0  0  0  0  0  0  0  0  0  0
    6.7683   -5.9194    0.0000 C   0  0  0  0  0  0  0  0  0  0  0  0
    7.4827   -6.3319    0.0000 C   0  0  0  0  0  0  0  0  0  0  0  0
    8.1972   -5.9194    0.0000 C   0  0  0  0  0  0  0  0  0  0  0  0
    8.1972   -5.0944    0.0000 C   0  0  0  0  0  0  0  0  0  0  0  0
    7.4827   -4.6819    0.0000 C   0  0  0  0  0  0  0  0  0  0  0  0
    6.0538   -4.6819    0.0000 O   0  0  0  0  0  0  0  0  0  0  0  0
    7.4827   -7.1569    0.0000 O   0  0  0  0  0  0  0  0  0  0  0  0
    8.9117   -6.3319    0.0000 C   0  0  0  0  0  0  0  0  0  0  0  0
    8.6590   -7.1172    0.0000 C   0  0  0  0  0  0  0  0  0  0  0  0
    9.3278   -7.6003    0.0000 C   0  0  0  0  0  0  0  0  0  0  0  0
    9.9938   -7.1135    0.0000 O   0  0  0  0  0  0  0  0  0  0  0  0
    9.7367   -6.3295    0.0000 C   0  0  3  0  0  0  0  0  0  0  0  0
   10.4512   -5.9170    0.0000 C   0  0  0  0  0  0  0  0  0  0  0  0
   11.2762   -5.9170    0.0000 C   0  0  0  0  0  0  0  0  0  0  0  0
   11.6887   -6.6315    0.0000 C   0  0  0  0  0  0  0  0  0  0  0  0
   12.5137   -6.6315    0.0000 C   0  0  0  0  0  0  0  0  0  0  0  0
   12.9262   -5.9170    0.0000 C   0  0  0  0  0  0  0  0  0  0  0  0
   12.5137   -5.2026    0.0000 C   0  0  0  0  0  0  0  0  0  0  0  0
   11.6887   -5.2026    0.0000 C   0  0  0  0  0  0  0  0  0  0  0  0
   13.7512   -5.9170    0.0000 O   0  0  0  0  0  0  0  0  0  0  0  0
   12.9262   -7.3460    0.0000 O   0  0  0  0  0  0  0  0  0  0  0  0
    9.3278   -8.4253    0.0000 O   0  0  0  0  0  0  0  0  0  0  0  0
    5.3452   -7.5694    0.0000 C   0  0  2  0  0  0  0  0  0  0  0  0
    5.3452   -8.3944    0.0000 C   0  0  2  0  0  0  0  0  0  0  0  0
    6.0596   -8.8069    0.0000 C   0  0  1  0  0  0  0  0  0  0  0  0
    6.7741   -8.3944    0.0000 C   0  0  2  0  0  0  0  0  0  0  0  0
    6.7741   -7.5694    0.0000 C   0  0  1  0  0  0  0  0  0  0  0  0
    6.0596   -7.1569    0.0000 O   0  0  0  0  0  0  0  0  0  0  0  0
    4.6307   -7.1569    0.0000 C   0  0  0  0  0  0  0  0  0  0  0  0
    6.0596   -9.6319    0.0000 O   0  0  0  0  0  0  0  0  0  0  0  0
    7.4886   -8.8069    0.0000 O   0  0  0  0  0  0  0  0  0  0  0  0
    4.6307   -8.8069    0.0000 O   0  0  0  0  0  0  0  0  0  0  0  0
    3.9162   -7.5694    0.0000 O   0  0  0  0  0  0  0  0  0  0  0  0
    1.8493   -6.8677    0.0000 C   0  0  1  0  0  0  0  0  0  0  0  0
    1.4361   -7.5818    0.0000 C   0  0  1  0  0  0  0  0  0  0  0  0
    1.8479   -8.2966    0.0000 C   0  0  2  0  0  0  0  0  0  0  0  0
    2.6729   -8.2974    0.0000 C   0  0  2  0  0  0  0  0  0  0  0  0
    3.0861   -7.5833    0.0000 C   0  0  0  0  0  0  0  0  0  0  0  0
    2.6743   -6.8685    0.0000 O   0  0  0  0  0  0  0  0  0  0  0  0
    3.0848   -9.0123    0.0000 O   0  0  0  0  0  0  0  0  0  0  0  0
    1.4348   -9.0107    0.0000 O   0  0  0  0  0  0  0  0  0  0  0  0
    1.4374   -6.1528    0.0000 C   0  0  0  0  0  0  0  0  0  0  0  0
    0.6111   -7.5810    0.0000 O   0  0  0  0  0  0  0  0  0  0  0  0
   12.5137   -8.0605    0.0000 C   0  0  0  0  0  0  0  0  0  0  0  0
  1  2  2  0  0  0  0
  2  3  1  0  0  0  0
  3  4  2  0  0  0  0
  4  5  1  0  0  0  0
  5  6  2  0  0  0  0
  6  1  1  0  0  0  0
  1  7  1  0  0  0  0
  3  8  1  0  0  0  0
  4  9  1  0  0  0  0
  9 10  2  0  0  0  0
 10 11  1  0  0  0  0
 11 12  1  0  0  0  0
 12 13  1  0  0  0  0
 13  9  1  0  0  0  0
 13 14  1  4  0  0  0
 14 15  1  0  0  0  0
 15 16  2  0  0  0  0
 16 17  1  0  0  0  0
 17 18  2  0  0  0  0
 18 19  1  0  0  0  0
 19 20  2  0  0  0  0
 20 15  1  0  0  0  0
 18 21  1  0  0  0  0
 17 22  1  0  0  0  0
 11 23  2  0  0  0  0
 24 25  1  0  0  0  0
 25 26  1  0  0  0  0
 26 27  1  0  0  0  0
 27 28  1  0  0  0  0
 28 29  1  0  0  0  0
 29 24  1  0  0  0  0
 24 30  1  1  0  0  0
 26 31  1  1  0  0  0
 27 32  1  6  0  0  0
 25 33  1  6  0  0  0
 30 34  1  0  0  0  0
 35 36  1  0  0  0  0
 36 37  1  0  0  0  0
 37 38  1  0  0  0  0
 38 39  1  0  0  0  0
 39 40  1  0  0  0  0
 40 35  1  0  0  0  0
 38 41  1  6  0  0  0
 37 42  1  6  0  0  0
 35 43  1  6  0  0  0
 36 44  1  1  0  0  0
 39 34  1  0  0  0  0
 28  8  1  1  0  0  0
 22 45  1  0  0  0  0
M  END
>  <cdx:fragmentId>
5

$$$$
