1313.cdx
  Mrv1902 05222410282D          

 11 11  0  0  0  0            999 V2000
    6.1908   -7.5075    0.0000 C   0  0  0  0  0  0  0  0  0  0  0  0
    6.1908   -8.3325    0.0000 C   0  0  2  0  0  0  0  0  0  0  0  0
    6.9052   -8.7450    0.0000 N   0  0  0  0  0  0  0  0  0  0  0  0
    7.6197   -8.3325    0.0000 C   0  0  2  0  0  0  0  0  0  0  0  0
    7.6197   -7.5075    0.0000 C   0  0  0  0  0  0  0  0  0  0  0  0
    6.9052   -7.0950    0.0000 S   0  0  2  0  0  0  0  0  0  0  0  0
    6.9052   -6.2700    0.0000 O   0  0  0  0  0  0  0  0  0  0  0  0
    8.3342   -8.7450    0.0000 C   0  0  0  0  0  0  0  0  0  0  0  0
    5.4763   -8.7450    0.0000 C   0  0  0  0  0  0  0  0  0  0  0  0
    4.7618   -8.3325    0.0000 O   0  0  0  0  0  0  0  0  0  0  0  0
    5.4763   -9.5700    0.0000 O   0  0  0  0  0  0  0  0  0  0  0  0
  1  2  1  0  0  0  0
  2  3  1  0  0  0  0
  3  4  1  0  0  0  0
  4  5  1  0  0  0  0
  6  5  1  1  0  0  0
  6  1  1  0  0  0  0
  6  7  2  0  0  0  0
  4  8  1  6  0  0  0
  2  9  1  6  0  0  0
  9 10  1  0  0  0  0
  9 11  2  0  0  0  0
M  END
>  <cdx:fragmentId>
5

$$$$
