92131314.cdx
  Mrv1902 05222410182D          

 52 57  0  0  0  0            999 V2000
   10.1261  -13.4948    0.0000 C   0  0  0  0  0  0  0  0  0  0  0  0
   10.8406  -13.0823    0.0000 C   0  0  1  0  0  0  0  0  0  0  0  0
   11.5551  -13.4948    0.0000 C   0  0  0  0  0  0  0  0  0  0  0  0
   11.5551  -14.3198    0.0000 C   0  0  0  0  0  0  0  0  0  0  0  0
   10.8406  -14.7323    0.0000 C   0  0  2  0  0  0  0  0  0  0  0  0
   10.8406  -15.5573    0.0000 C   0  0  0  0  0  0  0  0  0  0  0  0
   10.1261  -15.9698    0.0000 C   0  0  0  0  0  0  0  0  0  0  0  0
    9.4117  -15.5573    0.0000 C   0  0  1  0  0  0  0  0  0  0  0  0
    8.6972  -15.9698    0.0000 C   0  0  2  0  0  0  0  0  0  0  0  0
    8.6972  -16.7948    0.0000 C   0  0  0  0  0  0  0  0  0  0  0  0
    7.9827  -17.2073    0.0000 C   0  0  0  0  0  0  0  0  0  0  0  0
    7.2682  -16.7948    0.0000 C   0  0  1  0  0  0  0  0  0  0  0  0
    6.5538  -17.2073    0.0000 C   0  0  2  0  0  0  0  0  0  0  0  0
    5.8393  -16.7948    0.0000 C   0  0  2  0  0  0  0  0  0  0  0  0
    5.8393  -15.9698    0.0000 C   0  0  2  0  0  0  0  0  0  0  0  0
    6.5538  -15.5573    0.0000 C   0  0  0  0  0  0  0  0  0  0  0  0
    7.2682  -15.9698    0.0000 C   0  0  2  0  0  0  0  0  0  0  0  0
    7.9827  -15.5573    0.0000 C   0  0  1  0  0  0  0  0  0  0  0  0
    7.9827  -14.7323    0.0000 C   0  0  0  0  0  0  0  0  0  0  0  0
    8.6972  -14.3198    0.0000 C   0  0  0  0  0  0  0  0  0  0  0  0
    9.4117  -14.7323    0.0000 C   0  0  0  0  0  0  0  0  0  0  0  0
   10.1261  -14.3198    0.0000 C   0  0  2  0  0  0  0  0  0  0  0  0
   11.5551  -15.1448    0.0000 C   0  0  0  0  0  0  0  0  0  0  0  0
   11.5551  -15.9698    0.0000 O   0  0  0  0  0  0  0  0  0  0  0  0
   12.2695  -14.7323    0.0000 O   0  0  0  0  0  0  0  0  0  0  0  0
    5.1248  -17.2073    0.0000 O   0  0  0  0  0  0  0  0  0  0  0  0
    4.4104  -15.9698    0.0000 O   0  0  0  0  0  0  0  0  0  0  0  0
    4.4104  -16.7948    0.0000 C   0  0  1  0  0  0  0  0  0  0  0  0
    3.6959  -17.2073    0.0000 C   0  0  1  0  0  0  0  0  0  0  0  0
    2.9814  -16.7948    0.0000 C   0  0  2  0  0  0  0  0  0  0  0  0
    2.9814  -15.9698    0.0000 C   0  0  1  0  0  0  0  0  0  0  0  0
    3.6959  -15.5573    0.0000 C   0  0  1  0  0  0  0  0  0  0  0  0
    3.6959  -14.7323    0.0000 C   0  0  0  0  0  0  0  0  0  0  0  0
    2.9814  -14.3198    0.0000 O   0  0  0  0  0  0  0  0  0  0  0  0
    2.2670  -15.5573    0.0000 O   0  0  0  0  0  0  0  0  0  0  0  0
    2.2670  -17.2073    0.0000 O   0  0  0  0  0  0  0  0  0  0  0  0
    3.6959  -18.0323    0.0000 O   0  0  0  0  0  0  0  0  0  0  0  0
    6.1413  -17.9217    0.0000 C   0  0  0  0  0  0  0  0  0  0  0  0
   11.5551  -12.6698    0.0000 C   0  0  0  0  0  0  0  0  0  0  0  0
   10.8406  -12.2573    0.0000 C   0  0  0  0  0  0  0  0  0  0  0  0
   10.1261  -11.8448    0.0000 O   0  0  0  0  0  0  0  0  0  0  0  0
   11.5551  -11.8448    0.0000 O   0  0  0  0  0  0  0  0  0  0  0  0
   11.5551  -11.0198    0.0000 C   0  0  0  0  0  0  0  0  0  0  0  0
    6.9663  -17.9217    0.0000 C   0  0  0  0  0  0  0  0  0  0  0  0
    6.5538  -18.6362    0.0000 O   0  0  0  0  0  0  0  0  0  0  0  0
    5.1248  -15.5573    0.0000 O   0  0  0  0  0  0  0  0  0  0  0  0
    7.2682  -17.6198    0.0000 H   0  0  0  0  0  0  0  0  0  0  0  0
   10.1261  -15.1448    0.0000 H   0  0  0  0  0  0  0  0  0  0  0  0
    7.2682  -15.1448    0.0000 C   0  0  0  0  0  0  0  0  0  0  0  0
    9.2806  -16.5531    0.0000 C   0  0  0  0  0  0  0  0  0  0  0  0
    7.5702  -14.8428    0.0000 H   0  0  0  0  0  0  0  0  0  0  0  0
    9.6252  -16.3542    0.0000 C   0  0  0  0  0  0  0  0  0  0  0  0
  1  2  1  0  0  0  0
  2  3  1  0  0  0  0
  3  4  1  0  0  0  0
  4  5  1  0  0  0  0
  5  6  1  0  0  0  0
  6  7  1  0  0  0  0
  7  8  1  0  0  0  0
  8  9  1  0  0  0  0
  9 10  1  0  0  0  0
 10 11  1  0  0  0  0
 11 12  1  0  0  0  0
 12 13  1  0  0  0  0
 13 14  1  0  0  0  0
 14 15  1  0  0  0  0
 15 16  1  0  0  0  0
 16 17  1  0  0  0  0
 12 17  1  0  0  0  0
 17 18  1  0  0  0  0
  9 18  1  0  0  0  0
 18 19  1  0  0  0  0
 19 20  1  0  0  0  0
 20 21  2  0  0  0  0
  8 21  1  0  0  0  0
 21 22  1  0  0  0  0
  5 22  1  0  0  0  0
  1 22  1  0  0  0  0
 23 24  2  0  0  0  0
 23 25  1  0  0  0  0
  5 23  1  1  0  0  0
 27 28  1  0  0  0  0
 28 29  1  0  0  0  0
 29 30  1  0  0  0  0
 30 31  1  0  0  0  0
 31 32  1  0  0  0  0
 27 32  1  0  0  0  0
 33 34  1  0  0  0  0
 32 33  1  1  0  0  0
 31 35  1  6  0  0  0
 30 36  1  1  0  0  0
 29 37  1  6  0  0  0
 28 26  1  6  0  0  0
 14 26  1  1  0  0  0
 13 38  1  1  0  0  0
  2 39  1  6  0  0  0
 40 41  2  0  0  0  0
 42 43  1  0  0  0  0
 40 42  1  0  0  0  0
  2 40  1  0  0  0  0
 44 45  1  0  0  0  0
 13 44  1  6  0  0  0
 15 46  1  1  0  0  0
 12 47  1  6  0  0  0
 22 48  1  1  0  0  0
 17 49  1  1  0  0  0
  9 50  1  1  0  0  0
 18 51  1  6  0  0  0
  8 52  1  6  0  0  0
M  END
>  <cdx:groupId>
219878

>  <cdx:fragmentId>
219723

$$$$
