131458.cdx
  Mrv1902 05222410182D          

 48 53  0  0  0  0            999 V2000
    6.0607  -10.7805    0.0000 C   0  0  0  0  0  0  0  0  0  0  0  0
    5.3462  -11.1930    0.0000 C   0  0  0  0  0  0  0  0  0  0  0  0
    5.3462  -12.0180    0.0000 C   0  0  1  0  0  0  0  0  0  0  0  0
    6.0607  -12.4305    0.0000 C   0  0  0  0  0  0  0  0  0  0  0  0
    6.7752  -12.0180    0.0000 C   0  0  0  0  0  0  0  0  0  0  0  0
    7.4896  -12.4305    0.0000 C   0  0  0  0  0  0  0  0  0  0  0  0
    8.2041  -12.0180    0.0000 C   0  0  0  0  0  0  0  0  0  0  0  0
    8.2041  -11.1930    0.0000 C   0  0  1  0  0  0  0  0  0  0  0  0
    8.9186  -10.7805    0.0000 C   0  0  2  0  0  0  0  0  0  0  0  0
    9.7032  -11.0354    0.0000 C   0  0  0  0  0  0  0  0  0  0  0  0
   10.1881  -10.3680    0.0000 C   0  0  1  0  0  0  0  0  0  0  0  0
    9.7032   -9.7005    0.0000 C   0  0  1  0  0  0  0  0  0  0  0  0
    8.9186   -9.9555    0.0000 C   0  0  1  0  0  0  0  0  0  0  0  0
    8.2041   -9.5430    0.0000 C   0  0  0  0  0  0  0  0  0  0  0  0
    7.4896   -9.9555    0.0000 C   0  0  0  0  0  0  0  0  0  0  0  0
    7.4896  -10.7805    0.0000 C   0  0  2  0  0  0  0  0  0  0  0  0
    6.7752  -11.1930    0.0000 C   0  0  1  0  0  0  0  0  0  0  0  0
    8.9186   -9.1305    0.0000 C   0  0  0  0  0  0  0  0  0  0  0  0
    6.7752  -10.3680    0.0000 C   0  0  0  0  0  0  0  0  0  0  0  0
   11.0131  -10.3680    0.0000 O   0  0  0  0  0  0  0  0  0  0  0  0
    8.2041  -10.3680    0.0000 H   0  0  0  0  0  0  0  0  0  0  0  0
    8.9186  -11.6055    0.0000 H   0  0  0  0  0  0  0  0  0  0  0  0
    4.6317  -12.4305    0.0000 O   0  0  0  0  0  0  0  0  0  0  0  0
    2.4890   -9.5425    0.0000 O   0  0  0  0  0  0  0  0  0  0  0  0
    3.2034   -9.9552    0.0000 C   0  0  0  0  0  0  0  0  0  0  0  0
    1.7742  -10.7798    0.0000 O   0  0  0  0  0  0  0  0  0  0  0  0
    1.7739  -12.4298    0.0000 O   0  0  0  0  0  0  0  0  0  0  0  0
    3.2026  -13.2552    0.0000 O   0  0  0  0  0  0  0  0  0  0  0  0
    3.2032  -10.7802    0.0000 C   0  0  2  0  0  0  0  0  0  0  0  0
    2.4886  -11.1925    0.0000 C   0  0  2  0  0  0  0  0  0  0  0  0
    2.4884  -12.0175    0.0000 C   0  0  1  0  0  0  0  0  0  0  0  0
    3.2028  -12.4302    0.0000 C   0  0  2  0  0  0  0  0  0  0  0  0
    3.9174  -12.0178    0.0000 C   0  0  1  0  0  0  0  0  0  0  0  0
   13.0935   -7.9888    0.0000 O   0  0  0  0  0  0  0  0  0  0  0  0
   10.4680   -7.3467    0.0000 C   0  0  0  0  0  0  0  0  0  0  0  0
   13.1759   -8.6149    0.0000 C   0  0  0  0  0  0  0  0  0  0  0  0
   11.8270   -7.7882    0.0000 C   0  0  0  0  0  0  0  0  0  0  0  0
   12.3791   -8.4013    0.0000 C   0  0  1  0  0  0  0  0  0  0  0  0
   12.1241   -9.1860    0.0000 C   0  0  0  0  0  0  0  0  0  0  0  0
   11.3171   -9.3575    0.0000 C   0  0  0  0  0  0  0  0  0  0  0  0
   10.7651   -8.7444    0.0000 C   0  0  1  0  0  0  0  0  0  0  0  0
   11.0200   -7.9598    0.0000 N   0  0  0  0  0  0  0  0  0  0  0  0
    9.4061   -8.3028    0.0000 C   0  0  0  0  0  0  0  0  0  0  0  0
    9.9581   -8.9159    0.0000 C   0  0  1  0  0  0  0  0  0  0  0  0
    3.9176  -11.1928    0.0000 O   0  0  0  0  0  0  0  0  0  0  0  0
    7.4896  -11.6055    0.0000 H   0  0  0  0  0  0  0  0  0  0  0  0
   10.5001   -9.4870    0.0000 H   0  0  0  0  0  0  0  0  0  0  0  0
   11.5620   -8.5309    0.0000 H   0  0  0  0  0  0  0  0  0  0  0  0
 33 23  1  1  0  0  0
 29 25  1  1  0  0  0
 25 24  1  0  0  0  0
 30 26  1  6  0  0  0
 31 27  1  1  0  0  0
 32 28  1  6  0  0  0
 45 29  1  0  0  0  0
 30 29  1  0  0  0  0
 31 30  1  0  0  0  0
 32 31  1  0  0  0  0
 33 32  1  0  0  0  0
 45 33  1  0  0  0  0
 44 41  1  0  0  0  0
 38 34  1  6  0  0  0
 42 35  1  0  0  0  0
 38 36  1  1  0  0  0
 42 37  1  0  0  0  0
 38 37  1  0  0  0  0
 39 38  1  0  0  0  0
 40 39  1  0  0  0  0
 41 40  1  0  0  0  0
 42 41  1  0  0  0  0
 44 43  1  6  0  0  0
  1  2  1  0  0  0  0
  2  3  1  0  0  0  0
  3  4  1  0  0  0  0
  4  5  1  0  0  0  0
  5  6  2  0  0  0  0
  6  7  1  0  0  0  0
  7  8  1  0  0  0  0
  8  9  1  0  0  0  0
  9 10  1  0  0  0  0
 10 11  1  0  0  0  0
 12 11  1  0  0  0  0
 12 13  1  0  0  0  0
  9 13  1  0  0  0  0
 13 14  1  0  0  0  0
 14 15  1  0  0  0  0
 15 16  1  0  0  0  0
  8 16  1  0  0  0  0
 16 17  1  0  0  0  0
  5 17  1  0  0  0  0
  1 17  1  0  0  0  0
 13 18  1  1  0  0  0
 17 19  1  1  0  0  0
 12 44  1  0  0  0  0
 11 20  1  1  0  0  0
  3 23  1  1  0  0  0
  8 21  1  1  0  0  0
  9 22  1  6  0  0  0
 16 46  1  6  0  0  0
 12 47  1  6  0  0  0
 41 48  1  1  0  0  0
M  END
>  <cdx:groupId>
7490

>  <cdx:fragmentId>
7377

$$$$
