13143.cdx
  Mrv1902 05222410242D          

  6  5  0  0  0  0            999 V2000
    7.0200   -4.4971    0.0000 C   0  0  0  0  0  0  0  0  0  0  0  0
    6.3055   -4.0846    0.0000 C   0  0  0  0  0  0  0  0  0  0  0  0
    5.5910   -4.4971    0.0000 C   0  0  0  0  0  0  0  0  0  0  0  0
    4.8765   -4.0846    0.0000 C   0  0  0  0  0  0  0  0  0  0  0  0
    6.3055   -3.2596    0.0000 O   0  0  0  0  0  0  0  0  0  0  0  0
    5.5910   -5.3221    0.0000 C   0  0  0  0  0  0  0  0  0  0  0  0
  1  2  1  0  0  0  0
  2  3  1  0  0  0  0
  3  4  2  0  0  0  0
  2  5  2  0  0  0  0
  3  6  1  0  0  0  0
M  END
>  <cdx:groupId>
19

>  <cdx:fragmentId>
5

$$$$
