13150.cdx
  Mrv1902 05222410252D          

 26 26  0  0  0  0            999 V2000
    2.1345   -6.3181    0.0000 C   0  0  0  0  0  0  0  0  0  0  0  0
    2.1345   -7.1431    0.0000 C   0  0  0  0  0  0  0  0  0  0  0  0
    2.8490   -7.5556    0.0000 C   0  0  0  0  0  0  0  0  0  0  0  0
    3.5635   -7.1431    0.0000 C   0  0  0  0  0  0  0  0  0  0  0  0
    3.5635   -6.3181    0.0000 C   0  0  0  0  0  0  0  0  0  0  0  0
    2.8490   -5.9056    0.0000 C   0  0  0  0  0  0  0  0  0  0  0  0
    1.4201   -5.9056    0.0000 O   0  0  0  0  0  0  0  0  0  0  0  0
    1.4201   -7.5556    0.0000 O   0  0  0  0  0  0  0  0  0  0  0  0
    4.2779   -5.9056    0.0000 C   0  0  0  0  0  0  0  0  0  0  0  0
    4.9924   -6.3181    0.0000 C   0  0  0  0  0  0  0  0  0  0  0  0
    5.7069   -5.9056    0.0000 C   0  0  0  0  0  0  0  0  0  0  0  0
    6.4214   -6.3181    0.0000 C   0  0  0  0  0  0  0  0  0  0  0  0
    7.1358   -5.9056    0.0000 C   0  0  2  0  0  0  0  0  0  0  0  0
    5.7069   -5.0806    0.0000 O   0  0  0  0  0  0  0  0  0  0  0  0
    7.8503   -6.3181    0.0000 C   0  0  0  0  0  0  0  0  0  0  0  0
    8.5648   -5.9056    0.0000 C   0  0  0  0  0  0  0  0  0  0  0  0
    7.1358   -5.0806    0.0000 O   0  0  0  0  0  0  0  0  0  0  0  0
    0.7056   -6.3181    0.0000 C   0  0  0  0  0  0  0  0  0  0  0  0
    0.7056   -7.1431    0.0000 C   0  0  0  0  0  0  0  0  0  0  0  0
    9.2792   -6.3181    0.0000 C   0  0  0  0  0  0  0  0  0  0  0  0
    9.9937   -5.9056    0.0000 C   0  0  0  0  0  0  0  0  0  0  0  0
   10.7082   -6.3181    0.0000 C   0  0  0  0  0  0  0  0  0  0  0  0
   11.4227   -5.9056    0.0000 C   0  0  0  0  0  0  0  0  0  0  0  0
   12.1371   -6.3181    0.0000 C   0  0  0  0  0  0  0  0  0  0  0  0
   12.8516   -5.9056    0.0000 C   0  0  0  0  0  0  0  0  0  0  0  0
   13.5661   -6.3181    0.0000 C   0  0  0  0  0  0  0  0  0  0  0  0
  1  2  2  0  0  0  0
  2  3  1  0  0  0  0
  3  4  2  0  0  0  0
  4  5  1  0  0  0  0
  5  6  2  0  0  0  0
  6  1  1  0  0  0  0
  1  7  1  0  0  0  0
  2  8  1  0  0  0  0
  5  9  1  0  0  0  0
  9 10  1  0  0  0  0
 10 11  1  0  0  0  0
 11 12  1  0  0  0  0
 12 13  1  0  0  0  0
 11 14  2  0  0  0  0
 13 15  1  0  0  0  0
 15 16  1  0  0  0  0
 13 17  1  1  0  0  0
  7 18  1  0  0  0  0
  8 19  1  0  0  0  0
 16 20  1  0  0  0  0
 20 21  1  0  0  0  0
 21 22  1  0  0  0  0
 22 23  1  0  0  0  0
 23 24  1  0  0  0  0
 24 25  1  0  0  0  0
 25 26  1  0  0  0  0
M  END
>  <cdx:fragmentId>
5

$$$$
