13160.cdx
  Mrv1902 05222410202D          

 38 40  0  0  0  0            999 V2000
    8.9356   -6.7914    0.0000 C   0  0  0  0  0  0  0  0  0  0  0  0
    8.9356   -7.6164    0.0000 C   0  0  2  0  0  0  0  0  0  0  0  0
    9.6500   -8.0289    0.0000 C   0  0  1  0  0  0  0  0  0  0  0  0
   10.3645   -7.6164    0.0000 C   0  0  1  0  0  0  0  0  0  0  0  0
   10.3645   -6.7914    0.0000 C   0  0  0  0  0  0  0  0  0  0  0  0
    9.6500   -6.3789    0.0000 C   0  0  2  0  0  0  0  0  0  0  0  0
    8.2211   -8.0289    0.0000 O   0  0  0  0  0  0  0  0  0  0  0  0
    9.6500   -8.8539    0.0000 O   0  0  0  0  0  0  0  0  0  0  0  0
    8.9356   -9.2664    0.0000 C   0  0  0  0  0  0  0  0  0  0  0  0
    8.9356  -10.0914    0.0000 C   0  0  0  0  0  0  0  0  0  0  0  0
    8.2211   -8.8539    0.0000 O   0  0  0  0  0  0  0  0  0  0  0  0
    8.2211  -10.5039    0.0000 C   0  0  0  0  0  0  0  0  0  0  0  0
    8.2211  -11.3289    0.0000 C   0  0  0  0  0  0  0  0  0  0  0  0
    7.5066  -11.7414    0.0000 C   0  0  0  0  0  0  0  0  0  0  0  0
    7.5066  -12.5664    0.0000 C   0  0  0  0  0  0  0  0  0  0  0  0
    8.2211  -12.9789    0.0000 C   0  0  0  0  0  0  0  0  0  0  0  0
    8.9356  -12.5664    0.0000 C   0  0  0  0  0  0  0  0  0  0  0  0
    8.9356  -11.7414    0.0000 C   0  0  0  0  0  0  0  0  0  0  0  0
    8.2211  -13.8039    0.0000 O   0  0  0  0  0  0  0  0  0  0  0  0
    6.7921  -12.9789    0.0000 O   0  0  0  0  0  0  0  0  0  0  0  0
    7.5066   -7.6164    0.0000 C   0  0  0  0  0  0  0  0  0  0  0  0
    6.7921   -8.0289    0.0000 C   0  0  0  0  0  0  0  0  0  0  0  0
    7.5066   -6.7914    0.0000 O   0  0  0  0  0  0  0  0  0  0  0  0
    6.0777   -7.6164    0.0000 C   0  0  0  0  0  0  0  0  0  0  0  0
    5.3632   -8.0289    0.0000 C   0  0  0  0  0  0  0  0  0  0  0  0
    4.6487   -7.6164    0.0000 C   0  0  0  0  0  0  0  0  0  0  0  0
    3.9343   -8.0289    0.0000 C   0  0  0  0  0  0  0  0  0  0  0  0
    3.9343   -8.8539    0.0000 C   0  0  0  0  0  0  0  0  0  0  0  0
    4.6487   -9.2664    0.0000 C   0  0  0  0  0  0  0  0  0  0  0  0
    5.3632   -8.8539    0.0000 C   0  0  0  0  0  0  0  0  0  0  0  0
    3.2198   -7.6164    0.0000 O   0  0  0  0  0  0  0  0  0  0  0  0
    3.2198   -9.2664    0.0000 O   0  0  0  0  0  0  0  0  0  0  0  0
    9.2375   -5.6644    0.0000 O   0  0  0  0  0  0  0  0  0  0  0  0
   10.0625   -5.6644    0.0000 C   0  0  0  0  0  0  0  0  0  0  0  0
    9.6500   -4.9500    0.0000 O   0  0  0  0  0  0  0  0  0  0  0  0
   10.8875   -5.6644    0.0000 O   0  0  0  0  0  0  0  0  0  0  0  0
   11.0790   -8.0289    0.0000 O   0  0  0  0  0  0  0  0  0  0  0  0
   11.3000   -4.9500    0.0000 C   0  0  0  0  0  0  0  0  0  0  0  0
  1  2  1  0  0  0  0
  2  3  1  0  0  0  0
  3  4  1  0  0  0  0
  4  5  1  0  0  0  0
  5  6  1  0  0  0  0
  6  1  1  0  0  0  0
  2  7  1  6  0  0  0
  3  8  1  1  0  0  0
  8  9  1  0  0  0  0
  9 10  1  0  0  0  0
  9 11  2  0  0  0  0
 10 12  2  0  0  0  0
 12 13  1  0  0  0  0
 13 14  2  0  0  0  0
 14 15  1  0  0  0  0
 15 16  2  0  0  0  0
 16 17  1  0  0  0  0
 17 18  2  0  0  0  0
 18 13  1  0  0  0  0
 16 19  1  0  0  0  0
 15 20  1  0  0  0  0
  7 21  1  0  0  0  0
 21 22  1  0  0  0  0
 21 23  2  0  0  0  0
 22 24  2  0  0  0  0
 24 25  1  0  0  0  0
 25 26  2  0  0  0  0
 26 27  1  0  0  0  0
 27 28  2  0  0  0  0
 28 29  1  0  0  0  0
 29 30  2  0  0  0  0
 30 25  1  0  0  0  0
 27 31  1  0  0  0  0
 28 32  1  0  0  0  0
  6 33  1  1  0  0  0
  6 34  1  0  0  0  0
 34 35  2  0  0  0  0
 34 36  1  0  0  0  0
  4 37  1  1  0  0  0
 36 38  1  0  0  0  0
M  END
>  <cdx:fragmentId>
137

$$$$
