13161.cdx
  Mrv1902 05222410212D          

 38 40  0  0  0  0            999 V2000
    8.6606   -6.7364    0.0000 C   0  0  0  0  0  0  0  0  0  0  0  0
    8.6606   -7.5614    0.0000 C   0  0  2  0  0  0  0  0  0  0  0  0
    9.3750   -7.9739    0.0000 C   0  0  2  0  0  0  0  0  0  0  0  0
   10.0895   -7.5614    0.0000 C   0  0  1  0  0  0  0  0  0  0  0  0
   10.0895   -6.7364    0.0000 C   0  0  0  0  0  0  0  0  0  0  0  0
    9.3750   -6.3239    0.0000 C   0  0  1  0  0  0  0  0  0  0  0  0
    7.9461   -7.9739    0.0000 O   0  0  0  0  0  0  0  0  0  0  0  0
    9.3750   -8.7989    0.0000 O   0  0  0  0  0  0  0  0  0  0  0  0
    8.6606   -9.2114    0.0000 C   0  0  0  0  0  0  0  0  0  0  0  0
    8.6606  -10.0364    0.0000 C   0  0  0  0  0  0  0  0  0  0  0  0
    7.9461   -8.7989    0.0000 O   0  0  0  0  0  0  0  0  0  0  0  0
    7.9461  -10.4489    0.0000 C   0  0  0  0  0  0  0  0  0  0  0  0
    7.9461  -11.2739    0.0000 C   0  0  0  0  0  0  0  0  0  0  0  0
    7.2316  -11.6864    0.0000 C   0  0  0  0  0  0  0  0  0  0  0  0
    7.2316  -12.5114    0.0000 C   0  0  0  0  0  0  0  0  0  0  0  0
    7.9461  -12.9239    0.0000 C   0  0  0  0  0  0  0  0  0  0  0  0
    8.6606  -12.5114    0.0000 C   0  0  0  0  0  0  0  0  0  0  0  0
    8.6606  -11.6864    0.0000 C   0  0  0  0  0  0  0  0  0  0  0  0
    7.9461  -13.7489    0.0000 O   0  0  0  0  0  0  0  0  0  0  0  0
    6.5171  -12.9239    0.0000 O   0  0  0  0  0  0  0  0  0  0  0  0
    7.2316   -7.5614    0.0000 C   0  0  0  0  0  0  0  0  0  0  0  0
    6.5171   -7.9739    0.0000 C   0  0  0  0  0  0  0  0  0  0  0  0
    7.2316   -6.7364    0.0000 O   0  0  0  0  0  0  0  0  0  0  0  0
    5.8027   -7.5614    0.0000 C   0  0  0  0  0  0  0  0  0  0  0  0
    5.0882   -7.9739    0.0000 C   0  0  0  0  0  0  0  0  0  0  0  0
    4.3737   -7.5614    0.0000 C   0  0  0  0  0  0  0  0  0  0  0  0
    3.6593   -7.9739    0.0000 C   0  0  0  0  0  0  0  0  0  0  0  0
    3.6593   -8.7989    0.0000 C   0  0  0  0  0  0  0  0  0  0  0  0
    4.3737   -9.2114    0.0000 C   0  0  0  0  0  0  0  0  0  0  0  0
    5.0882   -8.7989    0.0000 C   0  0  0  0  0  0  0  0  0  0  0  0
    2.9448   -7.5614    0.0000 O   0  0  0  0  0  0  0  0  0  0  0  0
    2.9448   -9.2114    0.0000 O   0  0  0  0  0  0  0  0  0  0  0  0
    8.9625   -5.6094    0.0000 O   0  0  0  0  0  0  0  0  0  0  0  0
    9.7875   -5.6094    0.0000 C   0  0  0  0  0  0  0  0  0  0  0  0
    9.3750   -4.8950    0.0000 O   0  0  0  0  0  0  0  0  0  0  0  0
   10.6125   -5.6094    0.0000 O   0  0  0  0  0  0  0  0  0  0  0  0
   10.8040   -7.9739    0.0000 O   0  0  0  0  0  0  0  0  0  0  0  0
   11.0250   -4.8950    0.0000 C   0  0  0  0  0  0  0  0  0  0  0  0
  1  2  1  0  0  0  0
  2  3  1  0  0  0  0
  3  4  1  0  0  0  0
  4  5  1  0  0  0  0
  5  6  1  0  0  0  0
  6  1  1  0  0  0  0
  2  7  1  6  0  0  0
  3  8  1  6  0  0  0
  8  9  1  0  0  0  0
  9 10  1  0  0  0  0
  9 11  2  0  0  0  0
 10 12  2  0  0  0  0
 12 13  1  0  0  0  0
 13 14  2  0  0  0  0
 14 15  1  0  0  0  0
 15 16  2  0  0  0  0
 16 17  1  0  0  0  0
 17 18  2  0  0  0  0
 18 13  1  0  0  0  0
 16 19  1  0  0  0  0
 15 20  1  0  0  0  0
  7 21  1  0  0  0  0
 21 22  1  0  0  0  0
 21 23  2  0  0  0  0
 22 24  2  0  0  0  0
 24 25  1  0  0  0  0
 25 26  2  0  0  0  0
 26 27  1  0  0  0  0
 27 28  2  0  0  0  0
 28 29  1  0  0  0  0
 29 30  2  0  0  0  0
 30 25  1  0  0  0  0
 27 31  1  0  0  0  0
 28 32  1  0  0  0  0
  6 33  1  6  0  0  0
  6 34  1  0  0  0  0
 34 35  2  0  0  0  0
 34 36  1  0  0  0  0
  4 37  1  1  0  0  0
 36 38  1  0  0  0  0
M  END
>  <cdx:fragmentId>
139

$$$$
