13171.cdx
  Mrv1902 05222410222D          

 20 20  0  0  0  0            999 V2000
    3.3858   -6.3731    0.0000 C   0  0  0  0  0  0  0  0  0  0  0  0
    3.3858   -7.1981    0.0000 C   0  0  0  0  0  0  0  0  0  0  0  0
    4.1002   -7.6106    0.0000 C   0  0  0  0  0  0  0  0  0  0  0  0
    4.8147   -7.1981    0.0000 C   0  0  0  0  0  0  0  0  0  0  0  0
    4.8147   -6.3731    0.0000 C   0  0  0  0  0  0  0  0  0  0  0  0
    4.1002   -5.9606    0.0000 C   0  0  0  0  0  0  0  0  0  0  0  0
    2.6713   -5.9606    0.0000 O   0  0  0  0  0  0  0  0  0  0  0  0
    2.6713   -7.6106    0.0000 O   0  0  0  0  0  0  0  0  0  0  0  0
    5.5292   -5.9606    0.0000 C   0  0  0  0  0  0  0  0  0  0  0  0
    6.2437   -6.3731    0.0000 C   0  0  0  0  0  0  0  0  0  0  0  0
    6.9581   -5.9606    0.0000 C   0  0  0  0  0  0  0  0  0  0  0  0
    7.6726   -6.3731    0.0000 C   0  0  0  0  0  0  0  0  0  0  0  0
    8.3871   -5.9606    0.0000 C   0  0  2  0  0  0  0  0  0  0  0  0
    6.9581   -5.1356    0.0000 O   0  0  0  0  0  0  0  0  0  0  0  0
    9.1015   -6.3731    0.0000 C   0  0  0  0  0  0  0  0  0  0  0  0
    9.8160   -5.9606    0.0000 C   0  0  0  0  0  0  0  0  0  0  0  0
    8.3871   -5.1356    0.0000 O   0  0  0  0  0  0  0  0  0  0  0  0
   10.5305   -6.3731    0.0000 C   0  0  0  0  0  0  0  0  0  0  0  0
    1.9568   -6.3731    0.0000 C   0  0  0  0  0  0  0  0  0  0  0  0
    1.9568   -7.1981    0.0000 C   0  0  0  0  0  0  0  0  0  0  0  0
  1  2  2  0  0  0  0
  2  3  1  0  0  0  0
  3  4  2  0  0  0  0
  4  5  1  0  0  0  0
  5  6  2  0  0  0  0
  6  1  1  0  0  0  0
  1  7  1  0  0  0  0
  2  8  1  0  0  0  0
  5  9  1  0  0  0  0
  9 10  1  0  0  0  0
 10 11  1  0  0  0  0
 11 12  1  0  0  0  0
 12 13  1  0  0  0  0
 11 14  2  0  0  0  0
 13 15  1  0  0  0  0
 15 16  1  0  0  0  0
 13 17  1  1  0  0  0
 16 18  1  0  0  0  0
  7 19  1  0  0  0  0
  8 20  1  0  0  0  0
M  END
>  <cdx:fragmentId>
5

$$$$
