131826.cdx
  Mrv1902 05222410222D          

 24 25  0  0  0  0            999 V2000
    8.2040   -8.2445    0.0000 O   0  0  0  0  0  0  0  0  0  0  0  0
    7.4910   -7.8296    0.0000 C   0  0  0  0  0  0  0  0  0  0  0  0
    6.7751   -8.2397    0.0000 C   0  0  0  0  0  0  0  0  0  0  0  0
    6.0620   -7.8248    0.0000 C   0  0  0  0  0  0  0  0  0  0  0  0
    7.4937   -7.0046    0.0000 O   0  0  0  0  0  0  0  0  0  0  0  0
    5.3462   -8.2349    0.0000 C   0  0  0  0  0  0  0  0  0  0  0  0
    4.6331   -7.8199    0.0000 C   0  0  0  0  0  0  0  0  0  0  0  0
    3.9172   -8.2300    0.0000 C   0  0  0  0  0  0  0  0  0  0  0  0
    3.9144   -9.0550    0.0000 C   0  0  0  0  0  0  0  0  0  0  0  0
    4.6275   -9.4699    0.0000 C   0  0  0  0  0  0  0  0  0  0  0  0
    5.3434   -9.0599    0.0000 C   0  0  0  0  0  0  0  0  0  0  0  0
    3.1986   -9.4651    0.0000 O   0  0  0  0  0  0  0  0  0  0  0  0
    3.2042   -7.8151    0.0000 O   0  0  0  0  0  0  0  0  0  0  0  0
    9.6302   -9.0744    0.0000 O   0  0  0  0  0  0  0  0  0  0  0  0
   11.0619   -8.2542    0.0000 O   0  0  0  0  0  0  0  0  0  0  0  0
   10.3572   -5.3643    0.0000 O   0  0  0  0  0  0  0  0  0  0  0  0
    8.9283   -5.3595    0.0000 O   0  0  0  0  0  0  0  0  0  0  0  0
    9.6413   -5.7744    0.0000 C   0  0  0  0  0  0  0  0  0  0  0  0
   10.3516   -7.0143    0.0000 C   0  0  0  0  0  0  0  0  0  0  0  0
   10.3488   -7.8393    0.0000 C   0  0  2  0  0  0  0  0  0  0  0  0
    9.6330   -8.2494    0.0000 C   0  0  1  0  0  0  0  0  0  0  0  0
    8.9199   -7.8345    0.0000 C   0  0  1  0  0  0  0  0  0  0  0  0
    8.9227   -7.0095    0.0000 C   0  0  0  0  0  0  0  0  0  0  0  0
    9.6385   -6.5994    0.0000 C   0  0  0  0  0  0  0  0  0  0  0  0
 22  1  1  6  0  0  0
 21 14  1  6  0  0  0
 20 15  1  1  0  0  0
 24 18  1  0  0  0  0
 18 16  1  0  0  0  0
 18 17  2  0  0  0  0
 24 19  1  0  0  0  0
 20 19  1  0  0  0  0
 21 20  1  0  0  0  0
 22 21  1  0  0  0  0
 23 22  1  0  0  0  0
 24 23  2  0  0  0  0
  2  3  1  0  0  0  0
  3  4  2  0  0  0  0
  2  5  2  0  0  0  0
  6  7  1  0  0  0  0
  7  8  2  0  0  0  0
  8  9  1  0  0  0  0
  9 10  2  0  0  0  0
 10 11  1  0  0  0  0
  6 11  2  0  0  0  0
  9 12  1  0  0  0  0
  8 13  1  0  0  0  0
  4  6  1  0  0  0  0
  1  2  1  0  0  0  0
M  END
>  <cdx:fragmentId>
1721

$$$$
