13184.cdx
  Mrv1902 05222410242D          

 25 25  0  0  0  0            999 V2000
    3.4683   -7.1775    0.0000 C   0  0  0  0  0  0  0  0  0  0  0  0
    3.4683   -8.0025    0.0000 C   0  0  0  0  0  0  0  0  0  0  0  0
    4.1827   -8.4150    0.0000 C   0  0  0  0  0  0  0  0  0  0  0  0
    4.8972   -8.0025    0.0000 C   0  0  0  0  0  0  0  0  0  0  0  0
    4.8972   -7.1775    0.0000 C   0  0  0  0  0  0  0  0  0  0  0  0
    4.1827   -6.7650    0.0000 C   0  0  0  0  0  0  0  0  0  0  0  0
    2.7538   -8.4150    0.0000 O   0  0  0  0  0  0  0  0  0  0  0  0
    5.6397   -6.7444    0.0000 C   0  0  0  0  0  0  0  0  0  0  0  0
    6.3542   -7.1569    0.0000 C   0  0  0  0  0  0  0  0  0  0  0  0
    7.0687   -6.7444    0.0000 C   0  0  0  0  0  0  0  0  0  0  0  0
    7.7831   -7.1569    0.0000 C   0  0  0  0  0  0  0  0  0  0  0  0
    8.4976   -6.7444    0.0000 C   0  0  0  0  0  0  0  0  0  0  0  0
    9.2121   -7.1569    0.0000 C   0  0  0  0  0  0  0  0  0  0  0  0
    9.9265   -6.7444    0.0000 C   0  0  0  0  0  0  0  0  0  0  0  0
   10.6410   -7.1569    0.0000 C   0  0  0  0  0  0  0  0  0  0  0  0
    2.7538   -6.7650    0.0000 O   0  0  0  0  0  0  0  0  0  0  0  0
    2.0393   -7.1775    0.0000 C   0  0  0  0  0  0  0  0  0  0  0  0
    8.4976   -5.9194    0.0000 O   0  0  0  0  0  0  0  0  0  0  0  0
    9.2121   -5.5069    0.0000 C   0  0  0  0  0  0  0  0  0  0  0  0
    9.9279   -5.9171    0.0000 C   0  0  0  0  0  0  0  0  0  0  0  0
    9.2107   -4.6813    0.0000 O   0  0  0  0  0  0  0  0  0  0  0  0
    7.0687   -5.9194    0.0000 O   0  0  0  0  0  0  0  0  0  0  0  0
    2.0393   -8.0025    0.0000 C   0  0  0  0  0  0  0  0  0  0  0  0
   11.3555   -6.7444    0.0000 C   0  0  0  0  0  0  0  0  0  0  0  0
   12.0700   -7.1569    0.0000 C   0  0  0  0  0  0  0  0  0  0  0  0
  1  2  2  0  0  0  0
  2  3  1  0  0  0  0
  3  4  2  0  0  0  0
  4  5  1  0  0  0  0
  5  6  2  0  0  0  0
  6  1  1  0  0  0  0
  2  7  1  0  0  0  0
  8  9  1  0  0  0  0
  9 10  1  0  0  0  0
 10 11  1  0  0  0  0
 11 12  1  0  0  0  0
 12 13  1  0  0  0  0
 13 14  1  0  0  0  0
  8  5  1  0  0  0  0
 10 22  1  0  0  0  0
 12 18  1  0  0  0  0
 14 15  1  0  0  0  0
  1 16  1  0  0  0  0
 16 17  1  0  0  0  0
 18 19  1  0  0  0  0
 19 20  1  0  0  0  0
 19 21  2  0  0  0  0
  7 23  1  0  0  0  0
 15 24  1  0  0  0  0
 24 25  1  0  0  0  0
M  END
>  <cdx:fragmentId>
5

$$$$
