131919.cdx
  Mrv1902 05222410192D          

 65 68  0  0  0  0            999 V2000
   10.6503   -9.6629    0.0000 O   0  0  0  0  0  0  0  0  0  0  0  0
   12.4009  -11.1674    0.0000 H   0  0  0  0  0  0  0  0  0  0  0  0
   12.3251  -11.8323    0.0000 H   0  0  0  0  0  0  0  0  0  0  0  0
    9.9180  -13.9537    0.0000 O   0  0  0  0  0  0  0  0  0  0  0  0
   10.5267  -14.4606    0.0000 O   0  0  0  0  0  0  0  0  0  0  0  0
   12.0290  -14.1178    0.0000 C   0  0  0  0  0  0  0  0  0  0  0  0
    7.9707  -12.7294    0.0000 C   0  0  0  0  0  0  0  0  0  0  0  0
   11.9076   -9.3377    0.0000 C   0  0  0  0  0  0  0  0  0  0  0  0
   12.5333   -9.8754    0.0000 C   0  0  0  0  0  0  0  0  0  0  0  0
    8.7773  -11.5125    0.0000 C   0  0  0  0  0  0  0  0  0  0  0  0
   10.5267  -10.9983    0.0000 O   0  0  0  0  0  0  0  0  0  0  0  0
   10.7103  -11.8026    0.0000 C   0  0  0  0  0  0  0  0  0  0  0  0
    9.6023  -11.5125    0.0000 C   0  0  2  0  0  0  0  0  0  0  0  0
    9.9741  -10.6621    0.0000 C   0  0  0  0  0  0  0  0  0  0  0  0
   10.8789  -10.4556    0.0000 C   0  0  2  0  0  0  0  0  0  0  0  0
   11.7548  -10.1484    0.0000 C   0  0  0  0  0  0  0  0  0  0  0  0
   11.5829  -11.0605    0.0000 C   0  0  1  0  0  0  0  0  0  0  0  0
   11.5146  -11.9861    0.0000 C   0  0  2  0  0  0  0  0  0  0  0  0
   11.8725  -12.7294    0.0000 C   0  0  0  0  0  0  0  0  0  0  0  0
   11.5146  -13.4727    0.0000 C   0  0  0  0  0  0  0  0  0  0  0  0
   10.7103  -13.6563    0.0000 C   0  0  2  0  0  0  0  0  0  0  0  0
   10.0653  -13.1419    0.0000 C   0  0  1  0  0  0  0  0  0  0  0  0
    9.2806  -13.3969    0.0000 C   0  0  2  0  0  0  0  0  0  0  0  0
    8.7957  -12.7294    0.0000 C   0  0  0  0  0  0  0  0  0  0  0  0
    9.2806  -12.0620    0.0000 C   0  0  0  0  0  0  0  0  0  0  0  0
   10.0653  -12.3169    0.0000 C   0  0  0  0  0  0  0  0  0  0  0  0
    9.0257  -14.1815    0.0000 O   0  0  0  0  0  0  0  0  0  0  0  0
    7.9638  -15.1377    0.0000 O   0  0  0  0  0  0  0  0  0  0  0  0
    7.6667  -13.7399    0.0000 C   0  0  0  0  0  0  0  0  0  0  0  0
    8.2187  -14.3530    0.0000 C   0  0  0  0  0  0  0  0  0  0  0  0
   12.8448  -13.9948    0.0000 O   0  0  0  0  0  0  0  0  0  0  0  0
    9.8495   -9.4646    0.0000 C   0  0  0  0  0  0  0  0  0  0  0  0
    9.2773  -10.0590    0.0000 O   0  0  0  0  0  0  0  0  0  0  0  0
    9.6208   -8.6719    0.0000 C   0  0  0  0  0  0  0  0  0  0  0  0
    8.8200   -8.4736    0.0000 C   0  0  0  0  0  0  0  0  0  0  0  0
    8.5913   -7.6809    0.0000 C   0  0  0  0  0  0  0  0  0  0  0  0
    7.7905   -7.4826    0.0000 C   0  0  0  0  0  0  0  0  0  0  0  0
    7.5618   -6.6899    0.0000 C   0  0  0  0  0  0  0  0  0  0  0  0
    6.7610   -6.4916    0.0000 C   0  0  0  0  0  0  0  0  0  0  0  0
    6.5324   -5.6990    0.0000 C   0  0  0  0  0  0  0  0  0  0  0  0
    5.7315   -5.5007    0.0000 C   0  0  0  0  0  0  0  0  0  0  0  0
    5.5029   -4.7080    0.0000 C   0  0  0  0  0  0  0  0  0  0  0  0
    4.7021   -4.5097    0.0000 C   0  0  0  0  0  0  0  0  0  0  0  0
    4.4734   -3.7170    0.0000 C   0  0  0  0  0  0  0  0  0  0  0  0
   13.3591  -14.6398    0.0000 C   0  0  0  0  0  0  0  0  0  0  0  0
   14.1749  -14.5168    0.0000 C   0  0  0  0  0  0  0  0  0  0  0  0
   13.0577  -15.4078    0.0000 O   0  0  0  0  0  0  0  0  0  0  0  0
   14.6893  -15.1619    0.0000 C   0  0  0  0  0  0  0  0  0  0  0  0
   15.5051  -15.0389    0.0000 C   0  0  0  0  0  0  0  0  0  0  0  0
   16.0195  -15.6839    0.0000 C   0  0  0  0  0  0  0  0  0  0  0  0
   16.8353  -15.5609    0.0000 C   0  0  0  0  0  0  0  0  0  0  0  0
   17.3496  -16.2060    0.0000 C   0  0  0  0  0  0  0  0  0  0  0  0
   18.1654  -16.0830    0.0000 C   0  0  0  0  0  0  0  0  0  0  0  0
   18.6798  -16.7280    0.0000 C   0  0  0  0  0  0  0  0  0  0  0  0
   19.4956  -16.6051    0.0000 C   0  0  0  0  0  0  0  0  0  0  0  0
   20.0100  -17.2501    0.0000 C   0  0  0  0  0  0  0  0  0  0  0  0
   20.8257  -17.1271    0.0000 C   0  0  0  0  0  0  0  0  0  0  0  0
   21.3401  -17.7721    0.0000 C   0  0  0  0  0  0  0  0  0  0  0  0
   22.1559  -17.6492    0.0000 C   0  0  0  0  0  0  0  0  0  0  0  0
   22.6703  -18.2942    0.0000 C   0  0  0  0  0  0  0  0  0  0  0  0
   23.4861  -18.1712    0.0000 C   0  0  0  0  0  0  0  0  0  0  0  0
    7.9216  -12.9553    0.0000 C   0  0  0  0  0  0  0  0  0  0  0  0
    6.8597  -13.9115    0.0000 C   0  0  0  0  0  0  0  0  0  0  0  0
    6.3077  -13.2984    0.0000 C   0  0  0  0  0  0  0  0  0  0  0  0
    6.6048  -14.6961    0.0000 C   0  0  0  0  0  0  0  0  0  0  0  0
 15  1  1  6  0  0  0
 17  2  1  6  0  0  0
 18  3  1  1  0  0  0
 23 27  1  1  0  0  0
 22  4  1  1  0  0  0
 21  5  1  1  0  0  0
 20  6  1  0  0  0  0
 24  7  1  0  0  0  0
 16  8  1  0  0  0  0
 16  9  1  0  0  0  0
 13 10  1  6  0  0  0
 12 11  2  0  0  0  0
 26 22  1  0  0  0  0
 17 15  1  0  0  0  0
 18 12  1  0  0  0  0
 26 12  1  0  0  0  0
 26 13  1  0  0  0  0
 14 13  1  0  0  0  0
 15 14  1  0  0  0  0
 16 15  1  0  0  0  0
 17 16  1  0  0  0  0
 18 17  1  0  0  0  0
 19 18  1  0  0  0  0
 20 19  2  0  0  0  0
 21 20  1  0  0  0  0
 22 21  1  0  0  0  0
 23 22  1  0  0  0  0
 24 23  1  0  0  0  0
 25 24  2  0  0  0  0
 26 25  1  0  0  0  0
 30 27  1  0  0  0  0
 30 28  2  0  0  0  0
 30 29  1  0  0  0  0
  6 31  1  0  0  0  0
  1 32  1  0  0  0  0
 32 33  2  0  0  0  0
 32 34  1  0  0  0  0
 34 35  1  0  0  0  0
 35 36  1  0  0  0  0
 36 37  1  0  0  0  0
 37 38  1  0  0  0  0
 38 39  1  0  0  0  0
 39 40  1  0  0  0  0
 40 41  1  0  0  0  0
 41 42  1  0  0  0  0
 42 43  1  0  0  0  0
 43 44  1  0  0  0  0
 31 45  1  0  0  0  0
 45 46  1  0  0  0  0
 45 47  2  0  0  0  0
 46 48  1  0  0  0  0
 48 49  1  0  0  0  0
 49 50  1  0  0  0  0
 50 51  1  0  0  0  0
 51 52  1  0  0  0  0
 52 53  1  0  0  0  0
 53 54  1  0  0  0  0
 54 55  1  0  0  0  0
 55 56  1  0  0  0  0
 56 57  1  0  0  0  0
 57 58  1  0  0  0  0
 58 59  1  0  0  0  0
 59 60  1  0  0  0  0
 60 61  1  0  0  0  0
 29 62  1  0  0  0  0
 29 63  1  0  0  0  0
 63 64  1  0  0  0  0
 63 65  1  0  0  0  0
M  END
>  <cdx:groupId>
947

>  <cdx:fragmentId>
854

$$$$
