13192.cdx
  Mrv1902 05222410262D          

 22 22  0  0  0  0            999 V2000
    3.3858   -8.2912    0.0000 C   0  0  0  0  0  0  0  0  0  0  0  0
    3.3858   -9.1162    0.0000 C   0  0  0  0  0  0  0  0  0  0  0  0
    4.1002   -9.5287    0.0000 C   0  0  0  0  0  0  0  0  0  0  0  0
    4.8147   -9.1162    0.0000 C   0  0  0  0  0  0  0  0  0  0  0  0
    4.8147   -8.2912    0.0000 C   0  0  0  0  0  0  0  0  0  0  0  0
    4.1002   -7.8788    0.0000 C   0  0  0  0  0  0  0  0  0  0  0  0
    2.6713   -9.5287    0.0000 O   0  0  0  0  0  0  0  0  0  0  0  0
    5.5292   -7.8788    0.0000 C   0  0  0  0  0  0  0  0  0  0  0  0
    6.2437   -8.2912    0.0000 C   0  0  0  0  0  0  0  0  0  0  0  0
    6.9581   -7.8788    0.0000 C   0  0  0  0  0  0  0  0  0  0  0  0
    7.6726   -8.2912    0.0000 C   0  0  0  0  0  0  0  0  0  0  0  0
    8.3871   -7.8788    0.0000 C   0  0  0  0  0  0  0  0  0  0  0  0
    9.1015   -8.2912    0.0000 C   0  0  0  0  0  0  0  0  0  0  0  0
    9.8160   -7.8788    0.0000 C   0  0  0  0  0  0  0  0  0  0  0  0
    6.9581   -7.0537    0.0000 O   0  0  0  0  0  0  0  0  0  0  0  0
    8.3871   -7.0537    0.0000 O   0  0  0  0  0  0  0  0  0  0  0  0
   10.5305   -8.2912    0.0000 C   0  0  0  0  0  0  0  0  0  0  0  0
   11.2450   -7.8787    0.0000 C   0  0  0  0  0  0  0  0  0  0  0  0
   11.9594   -8.2912    0.0000 C   0  0  0  0  0  0  0  0  0  0  0  0
    2.6713   -7.8788    0.0000 O   0  0  0  0  0  0  0  0  0  0  0  0
    1.9568   -8.2912    0.0000 C   0  0  0  0  0  0  0  0  0  0  0  0
    1.9568   -9.1162    0.0000 C   0  0  0  0  0  0  0  0  0  0  0  0
  1  2  2  0  0  0  0
  2  3  1  0  0  0  0
  3  4  2  0  0  0  0
  4  5  1  0  0  0  0
  5  6  2  0  0  0  0
  6  1  1  0  0  0  0
  2  7  1  0  0  0  0
  5  8  1  0  0  0  0
  8  9  1  0  0  0  0
  9 10  1  0  0  0  0
 10 11  1  0  0  0  0
 11 12  1  0  0  0  0
 12 13  1  0  0  0  0
 13 14  1  0  0  0  0
 10 15  1  0  0  0  0
 12 16  2  0  0  0  0
 14 17  1  0  0  0  0
 17 18  1  0  0  0  0
 18 19  1  0  0  0  0
  1 20  1  0  0  0  0
 20 21  1  0  0  0  0
  7 22  1  0  0  0  0
M  END
>  <cdx:fragmentId>
5

$$$$
