132.cdx
  Mrv1902 05222410262D          

 22 24  0  0  0  0            999 V2000
    4.7642   -5.3281    0.0000 C   0  0  0  0  0  0  0  0  0  0  0  0
    4.7642   -6.1531    0.0000 C   0  0  0  0  0  0  0  0  0  0  0  0
    5.4787   -6.5656    0.0000 C   0  0  0  0  0  0  0  0  0  0  0  0
    6.1932   -6.1531    0.0000 C   0  0  0  0  0  0  0  0  0  0  0  0
    6.1932   -5.3281    0.0000 C   0  0  0  0  0  0  0  0  0  0  0  0
    5.4787   -4.9156    0.0000 C   0  0  0  0  0  0  0  0  0  0  0  0
    6.9076   -6.5656    0.0000 C   0  0  0  0  0  0  0  0  0  0  0  0
    7.6221   -6.1531    0.0000 C   0  0  0  0  0  0  0  0  0  0  0  0
    7.6221   -5.3281    0.0000 C   0  0  0  0  0  0  0  0  0  0  0  0
    6.9076   -4.9156    0.0000 O   0  0  0  0  0  0  0  0  0  0  0  0
    4.0497   -4.9156    0.0000 O   0  0  0  0  0  0  0  0  0  0  0  0
    8.3366   -4.9156    0.0000 C   0  0  0  0  0  0  0  0  0  0  0  0
    9.0510   -5.3281    0.0000 C   0  0  0  0  0  0  0  0  0  0  0  0
    9.7655   -4.9156    0.0000 C   0  0  0  0  0  0  0  0  0  0  0  0
    9.7655   -4.0906    0.0000 C   0  0  0  0  0  0  0  0  0  0  0  0
    9.0510   -3.6781    0.0000 C   0  0  0  0  0  0  0  0  0  0  0  0
    8.3366   -4.0906    0.0000 C   0  0  0  0  0  0  0  0  0  0  0  0
    6.9076   -7.3906    0.0000 O   0  0  0  0  0  0  0  0  0  0  0  0
    8.3366   -6.5656    0.0000 O   0  0  0  0  0  0  0  0  0  0  0  0
   10.4800   -3.6781    0.0000 O   0  0  0  0  0  0  0  0  0  0  0  0
    9.0510   -2.8531    0.0000 O   0  0  0  0  0  0  0  0  0  0  0  0
    5.4787   -7.3906    0.0000 O   0  0  0  0  0  0  0  0  0  0  0  0
  1  2  2  0  0  0  0
  2  3  1  0  0  0  0
  3  4  2  0  0  0  0
  4  5  1  0  0  0  0
  5  6  2  0  0  0  0
  6  1  1  0  0  0  0
  4  7  1  0  0  0  0
  7  8  1  0  0  0  0
  8  9  2  0  0  0  0
  9 10  1  0  0  0  0
 10  5  1  0  0  0  0
  1 11  1  0  0  0  0
  9 12  1  0  0  0  0
 12 13  2  0  0  0  0
 13 14  1  0  0  0  0
 14 15  2  0  0  0  0
 15 16  1  0  0  0  0
 16 17  2  0  0  0  0
 17 12  1  0  0  0  0
  7 18  2  0  0  0  0
  8 19  1  0  0  0  0
 15 20  1  0  0  0  0
 16 21  1  0  0  0  0
  3 22  1  0  0  0  0
M  END
>  <cdx:fragmentId>
5

$$$$
