13200.cdx
  Mrv1902 05222410212D          

 26 26  0  0  0  0            999 V2000
    3.3858   -6.3731    0.0000 C   0  0  0  0  0  0  0  0  0  0  0  0
    3.3858   -7.1981    0.0000 C   0  0  0  0  0  0  0  0  0  0  0  0
    4.1002   -7.6106    0.0000 C   0  0  0  0  0  0  0  0  0  0  0  0
    4.8147   -7.1981    0.0000 C   0  0  0  0  0  0  0  0  0  0  0  0
    4.8147   -6.3731    0.0000 C   0  0  0  0  0  0  0  0  0  0  0  0
    4.1002   -5.9606    0.0000 C   0  0  0  0  0  0  0  0  0  0  0  0
    2.6713   -5.9606    0.0000 O   0  0  0  0  0  0  0  0  0  0  0  0
    1.9568   -5.5481    0.0000 C   0  0  0  0  0  0  0  0  0  0  0  0
    2.6713   -7.6106    0.0000 O   0  0  0  0  0  0  0  0  0  0  0  0
    5.5292   -5.9606    0.0000 C   0  0  0  0  0  0  0  0  0  0  0  0
    6.2437   -6.3731    0.0000 C   0  0  0  0  0  0  0  0  0  0  0  0
    6.9581   -5.9606    0.0000 C   0  0  0  0  0  0  0  0  0  0  0  0
    7.6726   -6.3731    0.0000 C   0  0  0  0  0  0  0  0  0  0  0  0
    8.3871   -5.9606    0.0000 C   0  0  0  0  0  0  0  0  0  0  0  0
    6.9581   -5.1356    0.0000 O   0  0  0  0  0  0  0  0  0  0  0  0
    9.1015   -6.3731    0.0000 C   0  0  0  0  0  0  0  0  0  0  0  0
    9.8160   -5.9606    0.0000 C   0  0  0  0  0  0  0  0  0  0  0  0
    8.3871   -5.1356    0.0000 O   0  0  0  0  0  0  0  0  0  0  0  0
    1.9568   -8.0231    0.0000 C   0  0  0  0  0  0  0  0  0  0  0  0
    9.1015   -6.3731    0.0000 C   0  0  0  0  0  0  0  0  0  0  0  0
    9.1015   -6.3731    0.0000 C   0  0  0  0  0  0  0  0  0  0  0  0
    9.1015   -6.3731    0.0000 C   0  0  0  0  0  0  0  0  0  0  0  0
    9.1015   -6.3731    0.0000 C   0  0  0  0  0  0  0  0  0  0  0  0
    9.1015   -6.3731    0.0000 C   0  0  0  0  0  0  0  0  0  0  0  0
    9.1015   -6.3731    0.0000 C   0  0  0  0  0  0  0  0  0  0  0  0
    9.1015   -6.3731    0.0000 C   0  0  0  0  0  0  0  0  0  0  0  0
  1  2  2  0  0  0  0
  2  3  1  0  0  0  0
  3  4  2  0  0  0  0
  4  5  1  0  0  0  0
  5  6  2  0  0  0  0
  6  1  1  0  0  0  0
  1  7  1  0  0  0  0
  2  9  1  0  0  0  0
  5 10  1  0  0  0  0
 10 11  1  0  0  0  0
 11 12  1  0  0  0  0
 12 13  1  0  0  0  0
 13 14  1  0  0  0  0
 12 15  2  0  0  0  0
 14 18  1  0  0  0  0
  7  8  1  0  0  0  0
  9 19  1  0  0  0  0
 26 16  1  0  0  0  0
 16 25  1  0  0  0  0
 25 24  1  0  0  0  0
 24 23  1  0  0  0  0
 23 22  1  0  0  0  0
 22 21  1  0  0  0  0
 21 20  1  0  0  0  0
 14 26  1  0  0  0  0
 17 20  1  0  0  0  0
M  STY  3   1 SUP   2 SUP   3 MUL
M  SBT  1   3   1
M  SAL   1  2   7   8
M  SBL   1  1   7
M  SMT   1 OCH3
M  SAP   1  1   7   1  1
M  SAL   2  2   9  19
M  SBL   2  1   8
M  SMT   2 OCH3
M  SAP   2  1   9   2  1
M  SCN  1   3 HT 
M  SAL   3  8  16  26  25  24  23  22  21  20
M  SPA   3  1  16
M  SDI   3  4    8.7443   -6.5794    8.7443   -5.7544
M  SDI   3  4    9.4588   -5.7544    9.4588   -6.5794
M  SBL   3  2  25  26
M  SMT   3 8
M  END
>  <cdx:fragmentId>
5

$$$$
