13230.cdx
  Mrv1902 05222410252D          

 12 13  0  0  0  0            999 V2000
    4.4749   -3.0112    0.0000 C   0  0  0  0  0  0  0  0  0  0  0  0
    5.1894   -3.4237    0.0000 C   0  0  0  0  0  0  0  0  0  0  0  0
    5.1894   -4.2487    0.0000 C   0  0  0  0  0  0  0  0  0  0  0  0
    4.4749   -4.6612    0.0000 C   0  0  0  0  0  0  0  0  0  0  0  0
    3.7605   -4.2488    0.0000 C   0  0  0  0  0  0  0  0  0  0  0  0
    3.0460   -4.6612    0.0000 C   0  0  0  0  0  0  0  0  0  0  0  0
    2.3315   -4.2488    0.0000 C   0  0  0  0  0  0  0  0  0  0  0  0
    2.3315   -3.4238    0.0000 C   0  0  0  0  0  0  0  0  0  0  0  0
    3.0460   -3.0112    0.0000 C   0  0  0  0  0  0  0  0  0  0  0  0
    3.7605   -3.4238    0.0000 C   0  0  0  0  0  0  0  0  0  0  0  0
    5.9039   -3.0112    0.0000 C   0  0  0  0  0  0  0  0  0  0  0  0
    6.6184   -3.4238    0.0000 C   0  0  0  0  0  0  0  0  0  0  0  0
  1  2  1  0  0  0  0
  2  3  2  0  0  0  0
  3  4  1  0  0  0  0
  4  5  2  0  0  0  0
  5  6  1  0  0  0  0
  6  7  2  0  0  0  0
  7  8  1  0  0  0  0
  8  9  2  0  0  0  0
  9 10  1  0  0  0  0
  1 10  2  0  0  0  0
  5 10  1  0  0  0  0
 11 12  2  0  0  0  0
  2 11  1  0  0  0  0
M  END
>  <cdx:groupId>
39

>  <cdx:fragmentId>
5

$$$$
