16132354.cdx
  Mrv1902 05222410202D          

 81 88  0  0  0  0            999 V2000
   12.6252  -18.1110    0.0000 C   0  0  0  0  0  0  0  0  0  0  0  0
   11.8045  -18.1949    0.0000 C   0  0  0  0  0  0  0  0  0  0  0  0
   11.3215  -17.5261    0.0000 C   0  0  0  0  0  0  0  0  0  0  0  0
   10.5007  -17.6100    0.0000 C   0  0  0  0  0  0  0  0  0  0  0  0
   10.1630  -18.3627    0.0000 C   0  0  0  0  0  0  0  0  0  0  0  0
   10.6460  -19.0315    0.0000 C   0  0  0  0  0  0  0  0  0  0  0  0
   11.4668  -18.9476    0.0000 C   0  0  0  0  0  0  0  0  0  0  0  0
   12.9629  -17.3583    0.0000 O   0  0  0  0  0  0  0  0  0  0  0  0
   13.1082  -18.7798    0.0000 O   0  0  0  0  0  0  0  0  0  0  0  0
   11.6592  -16.7734    0.0000 O   0  0  0  0  0  0  0  0  0  0  0  0
   10.2102  -14.7669    0.0000 C   0  0  0  0  0  0  0  0  0  0  0  0
    9.9167  -13.9959    0.0000 C   0  0  0  0  0  0  0  0  0  0  0  0
   10.5855  -13.5128    0.0000 C   0  0  0  0  0  0  0  0  0  0  0  0
   10.5016  -12.6921    0.0000 C   0  0  0  0  0  0  0  0  0  0  0  0
    9.7489  -12.3544    0.0000 C   0  0  0  0  0  0  0  0  0  0  0  0
    9.0801  -12.8374    0.0000 C   0  0  0  0  0  0  0  0  0  0  0  0
    9.1640  -13.6581    0.0000 C   0  0  0  0  0  0  0  0  0  0  0  0
    8.3929  -13.9516    0.0000 C   0  0  0  0  0  0  0  0  0  0  0  0
    8.0552  -14.7043    0.0000 O   0  0  0  0  0  0  0  0  0  0  0  0
    7.2312  -14.7451    0.0000 C   0  0  1  0  0  0  0  0  0  0  0  0
    6.6496  -14.1601    0.0000 C   0  0  1  0  0  0  0  0  0  0  0  0
    5.8521  -14.3713    0.0000 C   0  0  2  0  0  0  0  0  0  0  0  0
    5.6363  -15.1676    0.0000 C   0  0  1  0  0  0  0  0  0  0  0  0
    6.2179  -15.7526    0.0000 O   0  0  0  0  0  0  0  0  0  0  0  0
    7.0154  -15.5414    0.0000 C   0  0  2  0  0  0  0  0  0  0  0  0
    7.7061  -15.9927    0.0000 C   0  0  0  0  0  0  0  0  0  0  0  0
    8.3487  -15.4753    0.0000 O   0  0  0  0  0  0  0  0  0  0  0  0
    9.1014  -15.8131    0.0000 C   0  0  0  0  0  0  0  0  0  0  0  0
    9.8724  -15.5196    0.0000 C   0  0  0  0  0  0  0  0  0  0  0  0
   10.3555  -16.1884    0.0000 C   0  0  0  0  0  0  0  0  0  0  0  0
   11.1762  -16.1046    0.0000 C   0  0  0  0  0  0  0  0  0  0  0  0
   11.5139  -15.3518    0.0000 C   0  0  0  0  0  0  0  0  0  0  0  0
   11.0309  -14.6830    0.0000 C   0  0  0  0  0  0  0  0  0  0  0  0
    4.8388  -15.3789    0.0000 O   0  0  0  0  0  0  0  0  0  0  0  0
    4.6207  -16.1745    0.0000 C   0  0  0  0  0  0  0  0  0  0  0  0
    3.8226  -16.3835    0.0000 C   0  0  0  0  0  0  0  0  0  0  0  0
    3.6045  -17.1791    0.0000 C   0  0  0  0  0  0  0  0  0  0  0  0
    2.8064  -17.3881    0.0000 C   0  0  0  0  0  0  0  0  0  0  0  0
    2.2264  -16.8014    0.0000 C   0  0  0  0  0  0  0  0  0  0  0  0
    2.4445  -16.0057    0.0000 C   0  0  0  0  0  0  0  0  0  0  0  0
    3.2426  -15.7968    0.0000 C   0  0  0  0  0  0  0  0  0  0  0  0
    5.2040  -16.7579    0.0000 O   0  0  0  0  0  0  0  0  0  0  0  0
    1.8644  -15.4190    0.0000 O   0  0  0  0  0  0  0  0  0  0  0  0
    1.4283  -17.0104    0.0000 O   0  0  0  0  0  0  0  0  0  0  0  0
    2.5883  -18.1837    0.0000 O   0  0  0  0  0  0  0  0  0  0  0  0
    5.2704  -13.7863    0.0000 O   0  0  0  0  0  0  0  0  0  0  0  0
    4.4729  -13.9975    0.0000 C   0  0  0  0  0  0  0  0  0  0  0  0
    3.8895  -13.4142    0.0000 C   0  0  0  0  0  0  0  0  0  0  0  0
    3.0926  -13.6277    0.0000 C   0  0  0  0  0  0  0  0  0  0  0  0
    2.5093  -13.0443    0.0000 C   0  0  0  0  0  0  0  0  0  0  0  0
    2.7228  -12.2475    0.0000 C   0  0  0  0  0  0  0  0  0  0  0  0
    3.5197  -12.0339    0.0000 C   0  0  0  0  0  0  0  0  0  0  0  0
    4.1030  -12.6173    0.0000 C   0  0  0  0  0  0  0  0  0  0  0  0
    4.2593  -14.7944    0.0000 O   0  0  0  0  0  0  0  0  0  0  0  0
    3.7332  -11.2370    0.0000 O   0  0  0  0  0  0  0  0  0  0  0  0
    2.1394  -11.6641    0.0000 O   0  0  0  0  0  0  0  0  0  0  0  0
    1.7124  -13.2579    0.0000 O   0  0  0  0  0  0  0  0  0  0  0  0
    6.8654  -13.3638    0.0000 O   0  0  0  0  0  0  0  0  0  0  0  0
    6.2837  -12.7788    0.0000 C   0  0  0  0  0  0  0  0  0  0  0  0
    6.4972  -11.9819    0.0000 C   0  0  0  0  0  0  0  0  0  0  0  0
    5.9138  -11.3985    0.0000 C   0  0  0  0  0  0  0  0  0  0  0  0
    6.1274  -10.6016    0.0000 C   0  0  0  0  0  0  0  0  0  0  0  0
    6.9242  -10.3881    0.0000 C   0  0  0  0  0  0  0  0  0  0  0  0
    7.5076  -10.9715    0.0000 C   0  0  0  0  0  0  0  0  0  0  0  0
    7.2941  -11.7684    0.0000 C   0  0  0  0  0  0  0  0  0  0  0  0
    5.4868  -12.9923    0.0000 O   0  0  0  0  0  0  0  0  0  0  0  0
    8.3045  -10.7580    0.0000 O   0  0  0  0  0  0  0  0  0  0  0  0
    7.1378   -9.5912    0.0000 O   0  0  0  0  0  0  0  0  0  0  0  0
    5.5440  -10.0183    0.0000 O   0  0  0  0  0  0  0  0  0  0  0  0
    9.1014  -16.6381    0.0000 O   0  0  0  0  0  0  0  0  0  0  0  0
    7.8268  -13.3515    0.0000 O   0  0  0  0  0  0  0  0  0  0  0  0
   11.6057  -14.0912    0.0000 O   0  0  0  0  0  0  0  0  0  0  0  0
   12.3346  -15.2680    0.0000 O   0  0  0  0  0  0  0  0  0  0  0  0
    9.6650  -11.5337    0.0000 O   0  0  0  0  0  0  0  0  0  0  0  0
   11.1705  -12.2091    0.0000 O   0  0  0  0  0  0  0  0  0  0  0  0
   11.4084  -13.5728    0.0000 O   0  0  0  0  0  0  0  0  0  0  0  0
   10.3083  -19.7842    0.0000 O   0  0  0  0  0  0  0  0  0  0  0  0
    9.3423  -18.4466    0.0000 O   0  0  0  0  0  0  0  0  0  0  0  0
   10.0177  -16.9412    0.0000 O   0  0  0  0  0  0  0  0  0  0  0  0
    7.5291  -13.9758    0.0000 H   0  0  0  0  0  0  0  0  0  0  0  0
    6.8841  -16.3559    0.0000 H   0  0  0  0  0  0  0  0  0  0  0  0
  1  2  1  0  0  0  0
  2  3  1  0  0  0  0
  3  4  2  0  0  0  0
  4  5  1  0  0  0  0
  5  6  2  0  0  0  0
  6  7  1  0  0  0  0
  2  7  2  0  0  0  0
  1  8  2  0  0  0  0
  1  9  1  0  0  0  0
 11 12  1  0  0  0  0
 12 13  2  0  0  0  0
 13 14  1  0  0  0  0
 14 15  2  0  0  0  0
 15 16  1  0  0  0  0
 16 17  2  0  0  0  0
 17 18  1  0  0  0  0
 18 19  1  0  0  0  0
 19 20  1  0  0  0  0
 20 21  1  0  0  0  0
 21 22  1  0  0  0  0
 22 23  1  0  0  0  0
 23 24  1  0  0  0  0
 24 25  1  0  0  0  0
 25 26  1  0  0  0  0
 26 27  1  0  0  0  0
 27 28  1  0  0  0  0
 28 29  1  0  0  0  0
 29 30  2  0  0  0  0
 30 31  1  0  0  0  0
 31 32  2  0  0  0  0
 32 33  1  0  0  0  0
 11 33  2  0  0  0  0
 11 29  1  0  0  0  0
 20 25  1  0  0  0  0
 12 17  1  0  0  0  0
 35 36  1  0  0  0  0
 36 37  1  0  0  0  0
 37 38  2  0  0  0  0
 38 39  1  0  0  0  0
 39 40  2  0  0  0  0
 40 41  1  0  0  0  0
 36 41  2  0  0  0  0
 35 42  2  0  0  0  0
 40 43  1  0  0  0  0
 39 44  1  0  0  0  0
 38 45  1  0  0  0  0
 34 35  1  0  0  0  0
 23 34  1  1  0  0  0
 47 48  1  0  0  0  0
 48 49  1  0  0  0  0
 49 50  2  0  0  0  0
 50 51  1  0  0  0  0
 51 52  2  0  0  0  0
 52 53  1  0  0  0  0
 48 53  2  0  0  0  0
 47 54  2  0  0  0  0
 52 55  1  0  0  0  0
 51 56  1  0  0  0  0
 50 57  1  0  0  0  0
 46 47  1  0  0  0  0
 22 46  1  6  0  0  0
 59 60  1  0  0  0  0
 60 61  1  0  0  0  0
 61 62  2  0  0  0  0
 62 63  1  0  0  0  0
 63 64  2  0  0  0  0
 64 65  1  0  0  0  0
 60 65  2  0  0  0  0
 59 66  2  0  0  0  0
 64 67  1  0  0  0  0
 63 68  1  0  0  0  0
 62 69  1  0  0  0  0
 58 59  1  0  0  0  0
 21 58  1  1  0  0  0
 28 70  2  0  0  0  0
 18 71  2  0  0  0  0
 33 72  1  0  0  0  0
 32 73  1  0  0  0  0
 15 74  1  0  0  0  0
 14 75  1  0  0  0  0
 13 76  1  0  0  0  0
 10 31  1  0  0  0  0
  3 10  1  0  0  0  0
  6 77  1  0  0  0  0
  5 78  1  0  0  0  0
  4 79  1  0  0  0  0
 20 80  1  1  0  0  0
 25 81  1  6  0  0  0
M  END
>  <cdx:groupId>
120838

>  <cdx:fragmentId>
120611

$$$$
