13243.cdx
  Mrv1902 05222410272D          

 19 18  0  0  0  0            999 V2000
    1.1302   -7.0744    0.0000 C   0  0  0  0  0  0  0  0  0  0  0  0
    1.8447   -6.6619    0.0000 O   0  0  0  0  0  0  0  0  0  0  0  0
    2.5592   -7.0744    0.0000 C   0  0  0  0  0  0  0  0  0  0  0  0
    3.2737   -6.6619    0.0000 C   0  0  0  0  0  0  0  0  0  0  0  0
    3.9881   -7.0744    0.0000 C   0  0  0  0  0  0  0  0  0  0  0  0
    4.7026   -6.6619    0.0000 C   0  0  0  0  0  0  0  0  0  0  0  0
    5.4171   -7.0744    0.0000 C   0  0  0  0  0  0  0  0  0  0  0  0
    6.1315   -6.6619    0.0000 C   0  0  0  0  0  0  0  0  0  0  0  0
    6.8460   -7.0744    0.0000 C   0  0  0  0  0  0  0  0  0  0  0  0
    7.5605   -6.6619    0.0000 C   0  0  0  0  0  0  0  0  0  0  0  0
    8.2750   -7.0744    0.0000 C   0  0  0  0  0  0  0  0  0  0  0  0
    8.9894   -6.6619    0.0000 C   0  0  0  0  0  0  0  0  0  0  0  0
    9.7039   -7.0744    0.0000 C   0  0  0  0  0  0  0  0  0  0  0  0
   10.4184   -6.6619    0.0000 C   0  0  0  0  0  0  0  0  0  0  0  0
   11.1328   -7.0744    0.0000 C   0  0  0  0  0  0  0  0  0  0  0  0
   11.8473   -6.6619    0.0000 C   0  0  0  0  0  0  0  0  0  0  0  0
   12.5618   -7.0744    0.0000 C   0  0  0  0  0  0  0  0  0  0  0  0
   13.2763   -6.6619    0.0000 C   0  0  0  0  0  0  0  0  0  0  0  0
    2.5592   -7.8994    0.0000 O   0  0  0  0  0  0  0  0  0  0  0  0
  1  2  1  0  0  0  0
  2  3  1  0  0  0  0
  3  4  1  0  0  0  0
  4  5  1  0  0  0  0
  5  6  1  0  0  0  0
  6  7  1  0  0  0  0
  7  8  1  0  0  0  0
  8  9  1  0  0  0  0
  9 10  1  0  0  0  0
 10 11  1  0  0  0  0
 11 12  1  0  0  0  0
 12 13  1  0  0  0  0
 13 14  1  0  0  0  0
 14 15  1  0  0  0  0
 15 16  1  0  0  0  0
 16 17  1  0  0  0  0
 17 18  1  0  0  0  0
  3 19  2  0  0  0  0
M  END
>  <cdx:fragmentId>
3

$$$$
