132407.cdx
  Mrv1902 05222410282D          

174191  0  0  0  0            999 V2000
   17.4605  -12.0877    0.0000 O   0  0  0  0  0  0  0  0  0  0  0  0
   18.1692  -11.6654    0.0000 C   0  0  0  0  0  0  0  0  0  0  0  0
   18.1578  -10.8404    0.0000 C   0  0  0  0  0  0  0  0  0  0  0  0
   17.4377  -10.4379    0.0000 C   0  0  0  0  0  0  0  0  0  0  0  0
   17.4263   -9.6129    0.0000 C   0  0  0  0  0  0  0  0  0  0  0  0
   18.1350   -9.1906    0.0000 C   0  0  0  0  0  0  0  0  0  0  0  0
   18.8551   -9.5932    0.0000 C   0  0  0  0  0  0  0  0  0  0  0  0
   18.8665  -10.4181    0.0000 C   0  0  0  0  0  0  0  0  0  0  0  0
   18.8894  -12.0680    0.0000 O   0  0  0  0  0  0  0  0  0  0  0  0
   19.5638   -9.1709    0.0000 O   0  0  0  0  0  0  0  0  0  0  0  0
   18.1236   -8.3657    0.0000 O   0  0  0  0  0  0  0  0  0  0  0  0
    3.7461  -15.7523    0.0000 C   0  0  0  0  0  0  0  0  0  0  0  0
    4.2347  -16.4170    0.0000 C   0  0  0  0  0  0  0  0  0  0  0  0
    3.7191  -17.0611    0.0000 C   0  0  0  0  0  0  0  0  0  0  0  0
    4.0191  -17.8296    0.0000 C   0  0  0  0  0  0  0  0  0  0  0  0
    4.8346  -17.9541    0.0000 C   0  0  0  0  0  0  0  0  0  0  0  0
    5.3502  -17.3101    0.0000 C   0  0  0  0  0  0  0  0  0  0  0  0
    5.0503  -16.5415    0.0000 C   0  0  0  0  0  0  0  0  0  0  0  0
    5.7150  -16.0529    0.0000 C   0  0  0  0  0  0  0  0  0  0  0  0
    5.8395  -15.2373    0.0000 O   0  0  0  0  0  0  0  0  0  0  0  0
    6.6227  -14.9780    0.0000 C   0  0  1  0  0  0  0  0  0  0  0  0
    7.3394  -15.3865    0.0000 C   0  0  1  0  0  0  0  0  0  0  0  0
    8.0516  -14.9700    0.0000 C   0  0  2  0  0  0  0  0  0  0  0  0
    8.0470  -14.1450    0.0000 C   0  0  0  0  0  0  0  0  0  0  0  0
    7.3302  -13.7365    0.0000 O   0  0  0  0  0  0  0  0  0  0  0  0
    6.6180  -14.1530    0.0000 C   0  0  2  0  0  0  0  0  0  0  0  0
    5.8320  -13.9025    0.0000 C   0  0  0  0  0  0  0  0  0  0  0  0
    5.3508  -14.5726    0.0000 O   0  0  0  0  0  0  0  0  0  0  0  0
    4.5353  -14.4481    0.0000 C   0  0  0  0  0  0  0  0  0  0  0  0
    3.8706  -14.9367    0.0000 C   0  0  0  0  0  0  0  0  0  0  0  0
    3.2265  -14.4212    0.0000 C   0  0  0  0  0  0  0  0  0  0  0  0
    2.4580  -14.7211    0.0000 C   0  0  0  0  0  0  0  0  0  0  0  0
    2.3335  -15.5367    0.0000 C   0  0  0  0  0  0  0  0  0  0  0  0
    2.9775  -16.0523    0.0000 C   0  0  0  0  0  0  0  0  0  0  0  0
    7.3440  -16.2115    0.0000 O   0  0  0  0  0  0  0  0  0  0  0  0
    8.0608  -16.6200    0.0000 C   0  0  0  0  0  0  0  0  0  0  0  0
    8.0678  -17.4449    0.0000 C   0  0  0  0  0  0  0  0  0  0  0  0
    8.7857  -17.8514    0.0000 C   0  0  0  0  0  0  0  0  0  0  0  0
    8.7927  -18.6764    0.0000 C   0  0  0  0  0  0  0  0  0  0  0  0
    8.0817  -19.0949    0.0000 C   0  0  0  0  0  0  0  0  0  0  0  0
    7.3638  -18.6884    0.0000 C   0  0  0  0  0  0  0  0  0  0  0  0
    7.3568  -17.8635    0.0000 C   0  0  0  0  0  0  0  0  0  0  0  0
    8.7718  -16.2014    0.0000 O   0  0  0  0  0  0  0  0  0  0  0  0
    6.6529  -19.1070    0.0000 O   0  0  0  0  0  0  0  0  0  0  0  0
    8.0887  -19.9198    0.0000 O   0  0  0  0  0  0  0  0  0  0  0  0
    9.5106  -19.0828    0.0000 O   0  0  0  0  0  0  0  0  0  0  0  0
    4.3150  -13.6530    0.0000 O   0  0  0  0  0  0  0  0  0  0  0  0
    6.4208  -16.4800    0.0000 O   0  0  0  0  0  0  0  0  0  0  0  0
    2.5816  -16.7760    0.0000 O   0  0  0  0  0  0  0  0  0  0  0  0
    1.5649  -15.8366    0.0000 O   0  0  0  0  0  0  0  0  0  0  0  0
    1.8139  -14.2055    0.0000 O   0  0  0  0  0  0  0  0  0  0  0  0
    8.7591  -13.7285    0.0000 O   0  0  0  0  0  0  0  0  0  0  0  0
    5.1346  -18.7226    0.0000 O   0  0  0  0  0  0  0  0  0  0  0  0
    3.5035  -18.4736    0.0000 O   0  0  0  0  0  0  0  0  0  0  0  0
    2.9222  -17.2746    0.0000 O   0  0  0  0  0  0  0  0  0  0  0  0
    6.6404  -15.8028    0.0000 H   0  0  0  0  0  0  0  0  0  0  0  0
    6.6003  -13.3282    0.0000 H   0  0  0  0  0  0  0  0  0  0  0  0
   14.4363  -11.8419    0.0000 H   0  0  0  0  0  0  0  0  0  0  0  0
   15.9464  -13.7897    0.0000 H   0  0  0  0  0  0  0  0  0  0  0  0
   16.7062   -9.2104    0.0000 O   0  0  0  0  0  0  0  0  0  0  0  0
   13.9569  -17.1320    0.0000 O   0  0  0  0  0  0  0  0  0  0  0  0
   15.1915  -17.7578    0.0000 O   0  0  0  0  0  0  0  0  0  0  0  0
   16.6338  -16.9564    0.0000 O   0  0  0  0  0  0  0  0  0  0  0  0
   16.4433  -10.7886    0.0000 O   0  0  0  0  0  0  0  0  0  0  0  0
   12.0445  -16.8590    0.0000 O   0  0  0  0  0  0  0  0  0  0  0  0
   13.4235  -16.9796    0.0000 O   0  0  0  0  0  0  0  0  0  0  0  0
   16.2783  -14.3956    0.0000 O   0  0  0  0  0  0  0  0  0  0  0  0
   12.8974  -13.4300    0.0000 O   0  0  0  0  0  0  0  0  0  0  0  0
   18.0616  -16.3322    0.0000 O   0  0  0  0  0  0  0  0  0  0  0  0
   19.6953  -16.1008    0.0000 O   0  0  0  0  0  0  0  0  0  0  0  0
   20.3118  -14.5703    0.0000 O   0  0  0  0  0  0  0  0  0  0  0  0
   17.9691  -12.7373    0.0000 O   0  0  0  0  0  0  0  0  0  0  0  0
   18.9864  -14.0364    0.0000 C   0  0  0  0  0  0  0  0  0  0  0  0
   19.4950  -14.6860    0.0000 C   0  0  0  0  0  0  0  0  0  0  0  0
   19.1867  -15.4513    0.0000 C   0  0  0  0  0  0  0  0  0  0  0  0
   18.3699  -15.5669    0.0000 C   0  0  0  0  0  0  0  0  0  0  0  0
   17.8613  -14.9174    0.0000 C   0  0  0  0  0  0  0  0  0  0  0  0
   18.1695  -14.1521    0.0000 C   0  0  0  0  0  0  0  0  0  0  0  0
   17.6609  -13.5025    0.0000 C   0  0  0  0  0  0  0  0  0  0  0  0
   16.8441  -13.6182    0.0000 O   0  0  0  0  0  0  0  0  0  0  0  0
   13.2936  -16.1649    0.0000 C   0  0  0  0  0  0  0  0  0  0  0  0
   12.4687  -16.1514    0.0000 C   0  0  0  0  0  0  0  0  0  0  0  0
   12.0679  -15.4303    0.0000 C   0  0  0  0  0  0  0  0  0  0  0  0
   12.4921  -14.7226    0.0000 C   0  0  0  0  0  0  0  0  0  0  0  0
   13.3170  -14.7362    0.0000 C   0  0  0  0  0  0  0  0  0  0  0  0
   13.5436  -13.9429    0.0000 C   0  0  0  0  0  0  0  0  0  0  0  0
   14.2647  -13.5422    0.0000 O   0  0  0  0  0  0  0  0  0  0  0  0
   14.2350  -12.7177    0.0000 C   0  0  0  0  0  0  0  0  0  0  0  0
   15.0100  -12.4347    0.0000 C   0  0  1  0  0  0  0  0  0  0  0  0
   15.3182  -11.6695    0.0000 O   0  0  0  0  0  0  0  0  0  0  0  0
   16.1351  -11.5538    0.0000 C   0  0  0  0  0  0  0  0  0  0  0  0
   16.6437  -12.2034    0.0000 C   0  0  1  0  0  0  0  0  0  0  0  0
   16.3354  -12.9686    0.0000 C   0  0  2  0  0  0  0  0  0  0  0  0
   15.5186  -13.0843    0.0000 C   0  0  2  0  0  0  0  0  0  0  0  0
   15.0580  -13.7687    0.0000 O   0  0  0  0  0  0  0  0  0  0  0  0
   15.4587  -14.4899    0.0000 C   0  0  0  0  0  0  0  0  0  0  0  0
   15.2321  -15.2832    0.0000 C   0  0  0  0  0  0  0  0  0  0  0  0
   15.9397  -15.7073    0.0000 C   0  0  0  0  0  0  0  0  0  0  0  0
   15.9262  -16.5322    0.0000 C   0  0  0  0  0  0  0  0  0  0  0  0
   15.2051  -16.9329    0.0000 C   0  0  0  0  0  0  0  0  0  0  0  0
   14.4975  -16.5088    0.0000 C   0  0  0  0  0  0  0  0  0  0  0  0
   14.5110  -15.6839    0.0000 C   0  0  0  0  0  0  0  0  0  0  0  0
   13.7177  -15.4573    0.0000 C   0  0  0  0  0  0  0  0  0  0  0  0
   11.2431  -15.4167    0.0000 O   0  0  0  0  0  0  0  0  0  0  0  0
   12.0914  -14.0015    0.0000 O   0  0  0  0  0  0  0  0  0  0  0  0
   11.2899  -12.5592    0.0000 O   0  0  0  0  0  0  0  0  0  0  0  0
    9.6402  -12.5322    0.0000 O   0  0  0  0  0  0  0  0  0  0  0  0
    8.7683  -15.3785    0.0000 O   0  0  0  0  0  0  0  0  0  0  0  0
    9.9940  -16.1108    0.0000 O   0  0  0  0  0  0  0  0  0  0  0  0
    9.6167  -13.9609    0.0000 C   0  0  0  0  0  0  0  0  0  0  0  0
   10.0409  -13.2533    0.0000 C   0  0  0  0  0  0  0  0  0  0  0  0
   10.8658  -13.2668    0.0000 C   0  0  0  0  0  0  0  0  0  0  0  0
   11.2665  -13.9880    0.0000 C   0  0  0  0  0  0  0  0  0  0  0  0
   10.8423  -14.6956    0.0000 C   0  0  0  0  0  0  0  0  0  0  0  0
   10.0174  -14.6821    0.0000 C   0  0  0  0  0  0  0  0  0  0  0  0
    9.5933  -15.3897    0.0000 C   0  0  0  0  0  0  0  0  0  0  0  0
   19.5867  -10.8207    0.0000 O   0  0  0  0  0  0  0  0  0  0  0  0
   21.7192   -9.5910    0.0000 C   0  0  0  0  0  0  0  0  0  0  0  0
   22.5152   -9.3742    0.0000 C   0  0  0  0  0  0  0  0  0  0  0  0
   22.9306  -10.0869    0.0000 C   0  0  0  0  0  0  0  0  0  0  0  0
   23.7556  -10.0835    0.0000 C   0  0  0  0  0  0  0  0  0  0  0  0
   24.1651   -9.3673    0.0000 C   0  0  0  0  0  0  0  0  0  0  0  0
   23.7497   -8.6545    0.0000 C   0  0  0  0  0  0  0  0  0  0  0  0
   22.9247   -8.6580    0.0000 C   0  0  0  0  0  0  0  0  0  0  0  0
   22.7078   -7.8620    0.0000 C   0  0  0  0  0  0  0  0  0  0  0  0
   21.9916   -7.4525    0.0000 O   0  0  0  0  0  0  0  0  0  0  0  0
   22.0314   -6.6284    0.0000 C   0  0  1  0  0  0  0  0  0  0  0  0
   22.6703   -6.1066    0.0000 C   0  0  1  0  0  0  0  0  0  0  0  0
   22.5379   -5.2923    0.0000 C   0  0  2  0  0  0  0  0  0  0  0  0
   21.7664   -4.9999    0.0000 C   0  0  0  0  0  0  0  0  0  0  0  0
   21.1275   -5.5217    0.0000 O   0  0  0  0  0  0  0  0  0  0  0  0
   21.2599   -6.3360    0.0000 C   0  0  2  0  0  0  0  0  0  0  0  0
   20.7434   -6.9793    0.0000 C   0  0  0  0  0  0  0  0  0  0  0  0
   21.1956   -7.6693    0.0000 O   0  0  0  0  0  0  0  0  0  0  0  0
   20.7861   -8.3855    0.0000 C   0  0  0  0  0  0  0  0  0  0  0  0
   21.0030   -9.1815    0.0000 C   0  0  0  0  0  0  0  0  0  0  0  0
   20.2902   -9.5970    0.0000 C   0  0  0  0  0  0  0  0  0  0  0  0
   20.2937  -10.4220    0.0000 C   0  0  0  0  0  0  0  0  0  0  0  0
   21.0099  -10.8315    0.0000 C   0  0  0  0  0  0  0  0  0  0  0  0
   21.7226  -10.4160    0.0000 C   0  0  0  0  0  0  0  0  0  0  0  0
   23.4418   -6.3990    0.0000 O   0  0  0  0  0  0  0  0  0  0  0  0
   24.0807   -5.8771    0.0000 C   0  0  0  0  0  0  0  0  0  0  0  0
   24.8530   -6.1674    0.0000 C   0  0  0  0  0  0  0  0  0  0  0  0
   25.4905   -5.6437    0.0000 C   0  0  0  0  0  0  0  0  0  0  0  0
   26.2627   -5.9339    0.0000 C   0  0  0  0  0  0  0  0  0  0  0  0
   26.3975   -6.7478    0.0000 C   0  0  0  0  0  0  0  0  0  0  0  0
   25.7601   -7.2715    0.0000 C   0  0  0  0  0  0  0  0  0  0  0  0
   24.9878   -6.9813    0.0000 C   0  0  0  0  0  0  0  0  0  0  0  0
   23.9459   -5.0632    0.0000 O   0  0  0  0  0  0  0  0  0  0  0  0
   25.8948   -8.0854    0.0000 O   0  0  0  0  0  0  0  0  0  0  0  0
   27.1698   -7.0380    0.0000 O   0  0  0  0  0  0  0  0  0  0  0  0
   26.9002   -5.4102    0.0000 O   0  0  0  0  0  0  0  0  0  0  0  0
   19.9651   -8.3051    0.0000 O   0  0  0  0  0  0  0  0  0  0  0  0
   23.3602   -7.3570    0.0000 O   0  0  0  0  0  0  0  0  0  0  0  0
   22.2556  -11.0458    0.0000 O   0  0  0  0  0  0  0  0  0  0  0  0
   21.0133  -11.6565    0.0000 O   0  0  0  0  0  0  0  0  0  0  0  0
   21.6340   -4.1856    0.0000 O   0  0  0  0  0  0  0  0  0  0  0  0
   24.9901   -9.3638    0.0000 O   0  0  0  0  0  0  0  0  0  0  0  0
   24.1711  -10.7962    0.0000 O   0  0  0  0  0  0  0  0  0  0  0  0
   22.7908  -10.9000    0.0000 O   0  0  0  0  0  0  0  0  0  0  0  0
   22.7680   -6.9999    0.0000 H   0  0  0  0  0  0  0  0  0  0  0  0
   20.4595   -6.1360    0.0000 H   0  0  0  0  0  0  0  0  0  0  0  0
   23.1768   -4.7704    0.0000 O   0  0  0  0  0  0  0  0  0  0  0  0
   23.5772   -4.0491    0.0000 C   0  0  0  0  0  0  0  0  0  0  0  0
   24.4020   -4.0348    0.0000 O   0  0  0  0  0  0  0  0  0  0  0  0
   23.1525   -3.3417    0.0000 C   0  0  0  0  0  0  0  0  0  0  0  0
   23.5529   -2.6204    0.0000 C   0  0  0  0  0  0  0  0  0  0  0  0
   23.1284   -1.9130    0.0000 C   0  0  0  0  0  0  0  0  0  0  0  0
   22.3034   -1.9270    0.0000 C   0  0  0  0  0  0  0  0  0  0  0  0
   21.9031   -2.6484    0.0000 C   0  0  0  0  0  0  0  0  0  0  0  0
   22.3276   -3.3558    0.0000 C   0  0  0  0  0  0  0  0  0  0  0  0
   21.0782   -2.6624    0.0000 O   0  0  0  0  0  0  0  0  0  0  0  0
   21.8789   -1.2196    0.0000 O   0  0  0  0  0  0  0  0  0  0  0  0
   23.5287   -1.1917    0.0000 O   0  0  0  0  0  0  0  0  0  0  0  0
 89 58  1  6  0  0  0
 94 59  1  1  0  0  0
114104  1  0  0  0  0
104 83  1  0  0  0  0
 92  1  1  6  0  0  0
  2  3  1  0  0  0  0
  3  4  1  0  0  0  0
101 61  1  0  0  0  0
100 62  1  0  0  0  0
 99 63  1  0  0  0  0
 91 64  1  0  0  0  0
 82 65  1  0  0  0  0
 81 66  1  0  0  0  0
 96 67  2  0  0  0  0
 86 68  2  0  0  0  0
 93 80  1  1  0  0  0
 80 79  1  0  0  0  0
 76 69  1  0  0  0  0
 75 70  1  0  0  0  0
 74 71  1  0  0  0  0
 79 72  2  0  0  0  0
 78 73  2  0  0  0  0
 74 73  1  0  0  0  0
 75 74  2  0  0  0  0
 76 75  1  0  0  0  0
 77 76  2  0  0  0  0
 78 77  1  0  0  0  0
 79 78  1  0  0  0  0
102 97  1  0  0  0  0
 94 89  1  0  0  0  0
103 85  1  0  0  0  0
103 81  2  0  0  0  0
 82 81  1  0  0  0  0
 83 82  2  0  0  0  0
 84 83  1  0  0  0  0
 85 84  2  0  0  0  0
 86 85  1  0  0  0  0
 87 86  1  0  0  0  0
 88 87  1  0  0  0  0
 89 88  1  0  0  0  0
 90 89  1  0  0  0  0
 91 90  1  0  0  0  0
 92 91  1  0  0  0  0
 93 92  1  0  0  0  0
 94 93  1  0  0  0  0
 95 94  1  0  0  0  0
 96 95  1  0  0  0  0
 97 96  1  0  0  0  0
 98 97  2  0  0  0  0
 99 98  1  0  0  0  0
100 99  2  0  0  0  0
101100  1  0  0  0  0
102101  2  0  0  0  0
103102  1  0  0  0  0
113105  1  0  0  0  0
112106  1  0  0  0  0
111107  1  0  0  0  0
116108  1  0  0  0  0
116109  2  0  0  0  0
115110  2  0  0  0  0
111110  1  0  0  0  0
112111  2  0  0  0  0
113112  1  0  0  0  0
114113  2  0  0  0  0
115114  1  0  0  0  0
116115  1  0  0  0  0
  4  5  2  0  0  0  0
  5  6  1  0  0  0  0
  6  7  2  0  0  0  0
  7  8  1  0  0  0  0
  3  8  2  0  0  0  0
  2  9  2  0  0  0  0
  7 10  1  0  0  0  0
  6 11  1  0  0  0  0
  1  2  1  0  0  0  0
  5 60  1  0  0  0  0
 12 13  1  0  0  0  0
 13 14  2  0  0  0  0
 14 15  1  0  0  0  0
 15 16  2  0  0  0  0
 16 17  1  0  0  0  0
 17 18  2  0  0  0  0
 18 19  1  0  0  0  0
 19 20  1  0  0  0  0
 20 21  1  0  0  0  0
 21 22  1  0  0  0  0
 22 23  1  0  0  0  0
 23 24  1  0  0  0  0
 24 25  1  0  0  0  0
 25 26  1  0  0  0  0
 26 27  1  0  0  0  0
 27 28  1  0  0  0  0
 28 29  1  0  0  0  0
 29 30  1  0  0  0  0
 30 31  2  0  0  0  0
 31 32  1  0  0  0  0
 32 33  2  0  0  0  0
 33 34  1  0  0  0  0
 12 34  2  0  0  0  0
 12 30  1  0  0  0  0
 21 26  1  0  0  0  0
 13 18  1  0  0  0  0
 36 37  1  0  0  0  0
 37 38  1  0  0  0  0
 38 39  2  0  0  0  0
 39 40  1  0  0  0  0
 40 41  2  0  0  0  0
 41 42  1  0  0  0  0
 37 42  2  0  0  0  0
 36 43  2  0  0  0  0
 41 44  1  0  0  0  0
 40 45  1  0  0  0  0
 39 46  1  0  0  0  0
 35 36  1  0  0  0  0
 22 35  1  1  0  0  0
 29 47  2  0  0  0  0
 19 48  2  0  0  0  0
 34 49  1  0  0  0  0
 33 50  1  0  0  0  0
 32 51  1  0  0  0  0
 24 52  1  0  0  0  0
 16 53  1  0  0  0  0
 15 54  1  0  0  0  0
 14 55  1  0  0  0  0
 23108  1  6  0  0  0
 21 56  1  1  0  0  0
 26 57  1  6  0  0  0
  8117  1  0  0  0  0
118119  1  0  0  0  0
119120  2  0  0  0  0
120121  1  0  0  0  0
121122  2  0  0  0  0
122123  1  0  0  0  0
123124  2  0  0  0  0
124125  1  0  0  0  0
125126  1  0  0  0  0
126127  1  0  0  0  0
127128  1  0  0  0  0
128129  1  0  0  0  0
129130  1  0  0  0  0
130131  1  0  0  0  0
131132  1  0  0  0  0
132133  1  0  0  0  0
133134  1  0  0  0  0
134135  1  0  0  0  0
135136  1  0  0  0  0
136137  2  0  0  0  0
137138  1  0  0  0  0
138139  2  0  0  0  0
139140  1  0  0  0  0
118140  2  0  0  0  0
118136  1  0  0  0  0
127132  1  0  0  0  0
119124  1  0  0  0  0
142143  1  0  0  0  0
143144  1  0  0  0  0
144145  2  0  0  0  0
145146  1  0  0  0  0
146147  2  0  0  0  0
147148  1  0  0  0  0
143148  2  0  0  0  0
142149  2  0  0  0  0
147150  1  0  0  0  0
146151  1  0  0  0  0
145152  1  0  0  0  0
141142  1  0  0  0  0
128141  1  1  0  0  0
135153  2  0  0  0  0
125154  2  0  0  0  0
140155  1  0  0  0  0
139156  1  0  0  0  0
130157  1  0  0  0  0
122158  1  0  0  0  0
121159  1  0  0  0  0
120160  1  0  0  0  0
129163  1  6  0  0  0
127161  1  1  0  0  0
132162  1  6  0  0  0
117138  1  0  0  0  0
163164  1  0  0  0  0
164165  2  0  0  0  0
164166  1  0  0  0  0
166167  2  0  0  0  0
167168  1  0  0  0  0
168169  2  0  0  0  0
169170  1  0  0  0  0
170171  2  0  0  0  0
171166  1  0  0  0  0
170172  1  0  0  0  0
169173  1  0  0  0  0
168174  1  0  0  0  0
M  END
>  <cdx:fragmentId>
121007

$$$$
