13251.cdx
  Mrv1902 05222410282D          

 51 54  0  0  0  0            999 V2000
    5.3727  -10.0306    0.0000 C   0  0  0  0  0  0  0  0  0  0  0  0
    5.3727  -10.8556    0.0000 C   0  0  0  0  0  0  0  0  0  0  0  0
    6.0871  -11.2681    0.0000 C   0  0  0  0  0  0  0  0  0  0  0  0
    6.8016  -10.8556    0.0000 C   0  0  0  0  0  0  0  0  0  0  0  0
    6.8016  -10.0306    0.0000 C   0  0  0  0  0  0  0  0  0  0  0  0
    6.0871   -9.6181    0.0000 C   0  0  0  0  0  0  0  0  0  0  0  0
    4.6582   -9.6181    0.0000 C   0  0  1  0  0  0  0  0  0  0  0  0
    3.9437  -10.0306    0.0000 C   0  0  2  0  0  0  0  0  0  0  0  0
    3.9437  -10.8556    0.0000 O   0  0  0  0  0  0  0  0  0  0  0  0
    4.6582  -11.2681    0.0000 C   0  0  0  0  0  0  0  0  0  0  0  0
    4.6582   -8.7931    0.0000 C   0  0  2  0  0  0  0  0  0  0  0  0
    3.2292   -7.1431    0.0000 O   0  0  0  0  0  0  0  0  0  0  0  0
    4.6582   -7.1431    0.0000 O   0  0  0  0  0  0  0  0  0  0  0  0
    6.0871   -8.7931    0.0000 O   0  0  0  0  0  0  0  0  0  0  0  0
    7.5161   -9.6181    0.0000 O   0  0  0  0  0  0  0  0  0  0  0  0
    7.5161  -11.2681    0.0000 O   0  0  0  0  0  0  0  0  0  0  0  0
    4.6582  -12.0931    0.0000 O   0  0  0  0  0  0  0  0  0  0  0  0
    3.9437   -7.5556    0.0000 C   0  0  0  0  0  0  0  0  0  0  0  0
    3.9437   -8.3806    0.0000 C   0  0  0  0  0  0  0  0  0  0  0  0
    5.2627   -7.3631    0.0000 O   0  0  0  0  0  0  0  0  0  0  0  0
    4.6582  -10.4431    0.0000 H   0  0  0  0  0  0  0  0  0  0  0  0
    5.9845   -6.1256    0.0000 C   0  0  2  0  0  0  0  0  0  0  0  0
    5.9845   -6.9506    0.0000 C   0  0  2  0  0  0  0  0  0  0  0  0
    6.6990   -7.3631    0.0000 C   0  0  1  0  0  0  0  0  0  0  0  0
    7.4135   -6.9506    0.0000 C   0  0  2  0  0  0  0  0  0  0  0  0
    7.4135   -6.1256    0.0000 C   0  0  1  0  0  0  0  0  0  0  0  0
    6.6990   -5.7131    0.0000 O   0  0  0  0  0  0  0  0  0  0  0  0
    8.1279   -5.7131    0.0000 O   0  0  0  0  0  0  0  0  0  0  0  0
    6.6990   -8.1881    0.0000 O   0  0  0  0  0  0  0  0  0  0  0  0
    5.2701   -5.7131    0.0000 C   0  0  0  0  0  0  0  0  0  0  0  0
    8.1279   -7.3631    0.0000 O   0  0  0  0  0  0  0  0  0  0  0  0
    4.5556   -6.1256    0.0000 O   0  0  0  0  0  0  0  0  0  0  0  0
    8.8424   -6.1256    0.0000 C   0  0  0  0  0  0  0  0  0  0  0  0
    9.5569   -5.7131    0.0000 C   0  0  0  0  0  0  0  0  0  0  0  0
    8.8424   -6.9506    0.0000 O   0  0  0  0  0  0  0  0  0  0  0  0
   10.2714   -6.1256    0.0000 C   0  0  0  0  0  0  0  0  0  0  0  0
   10.9858   -5.7131    0.0000 C   0  0  0  0  0  0  0  0  0  0  0  0
   10.9858   -4.8881    0.0000 C   0  0  0  0  0  0  0  0  0  0  0  0
   10.2714   -4.4756    0.0000 C   0  0  0  0  0  0  0  0  0  0  0  0
    9.5569   -4.8881    0.0000 C   0  0  0  0  0  0  0  0  0  0  0  0
   10.2714   -3.6506    0.0000 O   0  0  0  0  0  0  0  0  0  0  0  0
   11.7003   -4.4756    0.0000 O   0  0  0  0  0  0  0  0  0  0  0  0
   11.7003   -6.1256    0.0000 O   0  0  0  0  0  0  0  0  0  0  0  0
    3.2292  -10.4431    0.0000 H   0  0  0  0  0  0  0  0  0  0  0  0
    5.2590   -8.1881    0.0000 C   0  0  0  0  0  0  0  0  0  0  0  0
    6.0840   -8.1881    0.0000 O   0  0  0  0  0  0  0  0  0  0  0  0
    3.9437   -9.2056    0.0000 H   0  0  0  0  0  0  0  0  0  0  0  0
    3.2292   -9.6181    0.0000 C   0  0  0  0  0  0  0  0  0  0  0  0
    2.5148  -10.0306    0.0000 O   0  0  0  0  0  0  0  0  0  0  0  0
    3.2292   -8.7931    0.0000 O   0  0  0  0  0  0  0  0  0  0  0  0
    1.8003   -9.6181    0.0000 C   0  0  0  0  0  0  0  0  0  0  0  0
  1  2  2  0  0  0  0
  2  3  1  0  0  0  0
  3  4  2  0  0  0  0
  4  5  1  0  0  0  0
  5  6  2  0  0  0  0
  6  1  1  0  0  0  0
  1  7  1  0  0  0  0
  7  8  1  0  0  0  0
  8  9  1  0  0  0  0
  9 10  1  0  0  0  0
 10  2  1  0  0  0  0
 18 12  1  0  0  0  0
 18 13  2  0  0  0  0
  7 11  1  0  0  0  0
 11 19  1  0  0  0  0
 19 18  1  0  0  0  0
  6 14  1  0  0  0  0
  5 15  1  0  0  0  0
  4 16  1  0  0  0  0
 10 17  2  0  0  0  0
  7 21  1  6  0  0  0
 22 23  1  0  0  0  0
 23 24  1  0  0  0  0
 24 25  1  0  0  0  0
 25 26  1  0  0  0  0
 26 27  1  0  0  0  0
 27 22  1  0  0  0  0
 26 28  1  1  0  0  0
 24 29  1  1  0  0  0
 22 30  1  1  0  0  0
 25 31  1  6  0  0  0
 30 32  1  0  0  0  0
 23 20  1  6  0  0  0
 28 33  1  0  0  0  0
 33 34  1  0  0  0  0
 33 35  2  0  0  0  0
 34 36  2  0  0  0  0
 36 37  1  0  0  0  0
 37 38  2  0  0  0  0
 38 39  1  0  0  0  0
 39 40  2  0  0  0  0
 40 34  1  0  0  0  0
 39 41  1  0  0  0  0
 38 42  1  0  0  0  0
 37 43  1  0  0  0  0
  8 44  1  1  0  0  0
 20 45  1  0  0  0  0
 45 46  2  0  0  0  0
 11 45  1  0  0  0  0
 11 47  1  1  0  0  0
  8 48  1  6  0  0  0
 48 49  1  0  0  0  0
 48 50  2  0  0  0  0
 49 51  1  0  0  0  0
M  END
>  <cdx:fragmentId>
149

$$$$
