132568.cdx
  Mrv1902 05222410192D          

 32 34  0  0  0  0            999 V2000
    7.3372   -9.4012    0.0000 C   0  0  2  0  0  0  0  0  0  0  0  0
    8.0511   -9.8146    0.0000 C   0  0  2  0  0  0  0  0  0  0  0  0
    8.7661   -9.4030    0.0000 C   0  0  1  0  0  0  0  0  0  0  0  0
    8.7671   -8.5780    0.0000 C   0  0  2  0  0  0  0  0  0  0  0  0
    8.0532   -8.1646    0.0000 C   0  0  1  0  0  0  0  0  0  0  0  0
    7.3382   -8.5762    0.0000 O   0  0  0  0  0  0  0  0  0  0  0  0
    9.4821   -8.1663    0.0000 O   0  0  0  0  0  0  0  0  0  0  0  0
    8.0542   -7.3396    0.0000 O   0  0  0  0  0  0  0  0  0  0  0  0
    7.3403   -6.9262    0.0000 C   0  0  0  0  0  0  0  0  0  0  0  0
    6.6253   -7.3378    0.0000 C   0  0  0  0  0  0  0  0  0  0  0  0
    7.3413   -6.1012    0.0000 C   0  0  0  0  0  0  0  0  0  0  0  0
    6.6273   -5.6878    0.0000 C   0  0  0  0  0  0  0  0  0  0  0  0
    5.9123   -6.0994    0.0000 C   0  0  0  0  0  0  0  0  0  0  0  0
    5.9113   -6.9244    0.0000 C   0  0  0  0  0  0  0  0  0  0  0  0
    6.6222   -9.8128    0.0000 C   0  0  0  0  0  0  0  0  0  0  0  0
    6.6212  -10.6378    0.0000 O   0  0  0  0  0  0  0  0  0  0  0  0
    8.0501  -10.6396    0.0000 O   0  0  0  0  0  0  0  0  0  0  0  0
    5.9062  -11.0494    0.0000 C   0  0  2  0  0  0  0  0  0  0  0  0
    5.1963   -7.3360    0.0000 O   0  0  0  0  0  0  0  0  0  0  0  0
    4.4824   -6.9226    0.0000 C   0  0  0  0  0  0  0  0  0  0  0  0
    5.1984   -5.6860    0.0000 Cl  0  0  0  0  0  0  0  0  0  0  0  0
    6.6284   -4.8628    0.0000 C   0  0  0  0  0  0  0  0  0  0  0  0
    8.0563   -5.6896    0.0000 Cl  0  0  0  0  0  0  0  0  0  0  0  0
    9.4801   -9.8163    0.0000 O   0  0  0  0  0  0  0  0  0  0  0  0
    5.1927  -10.6351    0.0000 O   0  0  0  0  0  0  0  0  0  0  0  0
    4.4772  -11.0494    0.0000 C   0  0  0  0  0  0  0  0  0  0  0  0
    4.4772  -11.8744    0.0000 C   0  0  2  0  0  0  0  0  0  0  0  0
    5.1927  -12.2887    0.0000 C   0  0  1  0  0  0  0  0  0  0  0  0
    5.9062  -11.8744    0.0000 C   0  0  1  0  0  0  0  0  0  0  0  0
    5.1932  -13.1137    0.0000 O   0  0  0  0  0  0  0  0  0  0  0  0
    3.7625  -12.2864    0.0000 O   0  0  0  0  0  0  0  0  0  0  0  0
    6.6212  -12.2860    0.0000 O   0  0  0  0  0  0  0  0  0  0  0  0
  1  2  1  0  0  0  0
  2  3  1  0  0  0  0
  3  4  1  0  0  0  0
  4  5  1  0  0  0  0
  5  6  1  0  0  0  0
  6  1  1  0  0  0  0
  4  7  1  6  0  0  0
  5  8  1  1  0  0  0
  8  9  1  0  0  0  0
  9 10  1  0  0  0  0
  9 11  2  0  0  0  0
 11 12  1  0  0  0  0
 12 13  2  0  0  0  0
 13 14  1  0  0  0  0
 14 10  2  0  0  0  0
  1 15  1  1  0  0  0
 15 16  1  0  0  0  0
  2 17  1  6  0  0  0
 18 16  1  1  0  0  0
 14 19  1  0  0  0  0
 19 20  1  0  0  0  0
 13 21  1  0  0  0  0
 12 22  1  0  0  0  0
 11 23  1  0  0  0  0
  3 24  1  1  0  0  0
 18 25  1  0  0  0  0
 25 26  1  0  0  0  0
 26 27  1  0  0  0  0
 27 28  1  0  0  0  0
 28 29  1  0  0  0  0
 29 18  1  0  0  0  0
 28 30  1  1  0  0  0
 27 31  1  6  0  0  0
 29 32  1  6  0  0  0
M  END
>  <cdx:fragmentId>
5

$$$$
