13252.cdx
  Mrv1902 05222410272D          

 72 77  0  0  0  0            999 V2000
    5.4730  -12.5400    0.0000 C   0  0  2  0  0  0  0  0  0  0  0  0
    5.4730  -13.3650    0.0000 O   0  0  0  0  0  0  0  0  0  0  0  0
    6.1875  -13.7775    0.0000 C   0  0  0  0  0  0  0  0  0  0  0  0
    6.9020  -13.3650    0.0000 C   0  0  0  0  0  0  0  0  0  0  0  0
    6.9020  -12.5400    0.0000 C   0  0  0  0  0  0  0  0  0  0  0  0
    6.1875  -12.1275    0.0000 C   0  0  2  0  0  0  0  0  0  0  0  0
    7.6164  -13.7775    0.0000 C   0  0  0  0  0  0  0  0  0  0  0  0
    8.3309  -13.3650    0.0000 C   0  0  0  0  0  0  0  0  0  0  0  0
    8.3309  -12.5400    0.0000 C   0  0  0  0  0  0  0  0  0  0  0  0
    7.6164  -12.1275    0.0000 C   0  0  0  0  0  0  0  0  0  0  0  0
    9.0454  -13.7775    0.0000 O   0  0  0  0  0  0  0  0  0  0  0  0
    4.7586  -12.1275    0.0000 C   0  0  0  0  0  0  0  0  0  0  0  0
    6.1875  -11.3025    0.0000 C   0  0  2  0  0  0  0  0  0  0  0  0
    4.2690  -11.6595    0.0000 O   0  0  0  0  0  0  0  0  0  0  0  0
    4.2046  -10.2321    0.0000 O   0  0  0  0  0  0  0  0  0  0  0  0
    4.6489  -10.9272    0.0000 C   0  0  0  0  0  0  0  0  0  0  0  0
    5.4730  -10.8900    0.0000 C   0  0  0  0  0  0  0  0  0  0  0  0
    6.6000  -10.5880    0.0000 C   0  0  0  0  0  0  0  0  0  0  0  0
    6.1875   -9.8736    0.0000 O   0  0  0  0  0  0  0  0  0  0  0  0
    7.4250  -10.5880    0.0000 O   0  0  0  0  0  0  0  0  0  0  0  0
    6.8750   -9.4066    0.0000 C   0  0  1  0  0  0  0  0  0  0  0  0
    7.5939   -9.8114    0.0000 C   0  0  1  0  0  0  0  0  0  0  0  0
    8.3039   -9.3912    0.0000 C   0  0  2  0  0  0  0  0  0  0  0  0
    8.2950   -8.5662    0.0000 C   0  0  1  0  0  0  0  0  0  0  0  0
    7.5761   -8.1615    0.0000 O   0  0  0  0  0  0  0  0  0  0  0  0
    6.8661   -8.5816    0.0000 C   0  0  2  0  0  0  0  0  0  0  0  0
    9.0050   -8.1461    0.0000 O   0  0  0  0  0  0  0  0  0  0  0  0
    6.1472   -8.1769    0.0000 C   0  0  0  0  0  0  0  0  0  0  0  0
    7.5939   -8.9864    0.0000 O   0  0  0  0  0  0  0  0  0  0  0  0
    9.7238   -8.5509    0.0000 C   0  0  0  0  0  0  0  0  0  0  0  0
   10.4338   -8.1307    0.0000 C   0  0  0  0  0  0  0  0  0  0  0  0
    9.7327   -9.3758    0.0000 O   0  0  0  0  0  0  0  0  0  0  0  0
   11.1570   -8.5277    0.0000 C   0  0  0  0  0  0  0  0  0  0  0  0
   11.8624   -8.0999    0.0000 C   0  0  0  0  0  0  0  0  0  0  0  0
   11.8624   -7.2751    0.0000 C   0  0  0  0  0  0  0  0  0  0  0  0
   11.1570   -6.8781    0.0000 C   0  0  0  0  0  0  0  0  0  0  0  0
   10.4338   -7.3059    0.0000 C   0  0  0  0  0  0  0  0  0  0  0  0
   11.1481   -6.0531    0.0000 O   0  0  0  0  0  0  0  0  0  0  0  0
   12.5746   -6.8587    0.0000 O   0  0  0  0  0  0  0  0  0  0  0  0
   12.5813   -8.5047    0.0000 O   0  0  0  0  0  0  0  0  0  0  0  0
    8.3050   -7.4800    0.0000 C   0  0  0  0  0  0  0  0  0  0  0  0
    9.1300   -7.4800    0.0000 O   0  0  0  0  0  0  0  0  0  0  0  0
    7.8634   -6.7832    0.0000 C   0  0  0  0  0  0  0  0  0  0  0  0
    8.2460   -6.0523    0.0000 C   0  0  0  0  0  0  0  0  0  0  0  0
    7.8044   -5.3554    0.0000 C   0  0  0  0  0  0  0  0  0  0  0  0
    6.9801   -5.3895    0.0000 C   0  0  0  0  0  0  0  0  0  0  0  0
    6.5975   -6.1203    0.0000 C   0  0  0  0  0  0  0  0  0  0  0  0
    7.0391   -6.8172    0.0000 C   0  0  0  0  0  0  0  0  0  0  0  0
    5.7732   -6.1544    0.0000 O   0  0  0  0  0  0  0  0  0  0  0  0
    6.5385   -4.6926    0.0000 O   0  0  0  0  0  0  0  0  0  0  0  0
    8.1871   -4.6245    0.0000 O   0  0  0  0  0  0  0  0  0  0  0  0
    5.4373   -8.5970    0.0000 O   0  0  0  0  0  0  0  0  0  0  0  0
    4.7184   -8.1922    0.0000 C   0  0  0  0  0  0  0  0  0  0  0  0
    4.0084   -8.6124    0.0000 C   0  0  0  0  0  0  0  0  0  0  0  0
    4.7095   -7.3673    0.0000 O   0  0  0  0  0  0  0  0  0  0  0  0
    3.2852   -8.2154    0.0000 C   0  0  0  0  0  0  0  0  0  0  0  0
    2.5798   -8.6432    0.0000 C   0  0  0  0  0  0  0  0  0  0  0  0
    2.5798   -9.4680    0.0000 C   0  0  0  0  0  0  0  0  0  0  0  0
    3.2852   -9.8650    0.0000 C   0  0  0  0  0  0  0  0  0  0  0  0
    4.0084   -9.4372    0.0000 C   0  0  0  0  0  0  0  0  0  0  0  0
    1.8609   -8.2384    0.0000 O   0  0  0  0  0  0  0  0  0  0  0  0
    3.2941  -10.6900    0.0000 O   0  0  0  0  0  0  0  0  0  0  0  0
    1.8676   -9.8844    0.0000 O   0  0  0  0  0  0  0  0  0  0  0  0
    9.0228   -9.7960    0.0000 O   0  0  0  0  0  0  0  0  0  0  0  0
    9.0454  -12.1275    0.0000 O   0  0  0  0  0  0  0  0  0  0  0  0
    7.6164  -11.3025    0.0000 O   0  0  0  0  0  0  0  0  0  0  0  0
    6.1875  -14.6025    0.0000 O   0  0  0  0  0  0  0  0  0  0  0  0
    4.0441  -12.5400    0.0000 C   0  0  0  0  0  0  0  0  0  0  0  0
    3.3296  -12.1275    0.0000 O   0  0  0  0  0  0  0  0  0  0  0  0
    4.0441  -13.3650    0.0000 O   0  0  0  0  0  0  0  0  0  0  0  0
    5.4730  -11.7150    0.0000 H   0  0  0  0  0  0  0  0  0  0  0  0
    2.6151  -12.5400    0.0000 C   0  0  0  0  0  0  0  0  0  0  0  0
  1  2  1  0  0  0  0
  2  3  1  0  0  0  0
  3  4  1  0  0  0  0
  4  5  2  0  0  0  0
  5  6  1  0  0  0  0
  6  1  1  0  0  0  0
  4  7  1  0  0  0  0
  7  8  2  0  0  0  0
  8  9  1  0  0  0  0
  9 10  2  0  0  0  0
 10  5  1  0  0  0  0
  8 11  1  0  0  0  0
  1 12  1  1  0  0  0
  6 13  1  0  0  0  0
 16 14  1  0  0  0  0
 13 17  1  6  0  0  0
 16 15  2  0  0  0  0
 17 16  1  0  0  0  0
 13 18  1  0  0  0  0
 18 19  1  0  0  0  0
 18 20  2  0  0  0  0
 21 22  1  0  0  0  0
 22 23  1  0  0  0  0
 23 24  1  0  0  0  0
 24 25  1  0  0  0  0
 25 26  1  0  0  0  0
 26 21  1  0  0  0  0
 24 27  1  1  0  0  0
 26 28  1  1  0  0  0
 22 29  1  1  0  0  0
 27 30  1  0  0  0  0
 30 31  1  0  0  0  0
 30 32  2  0  0  0  0
 31 33  2  0  0  0  0
 33 34  1  0  0  0  0
 34 35  2  0  0  0  0
 35 36  1  0  0  0  0
 36 37  2  0  0  0  0
 37 31  1  0  0  0  0
 36 38  1  0  0  0  0
 35 39  1  0  0  0  0
 34 40  1  0  0  0  0
 29 41  1  0  0  0  0
 41 42  2  0  0  0  0
 41 43  1  0  0  0  0
 43 44  2  0  0  0  0
 44 45  1  0  0  0  0
 45 46  2  0  0  0  0
 46 47  1  0  0  0  0
 47 48  2  0  0  0  0
 48 43  1  0  0  0  0
 47 49  1  0  0  0  0
 46 50  1  0  0  0  0
 45 51  1  0  0  0  0
 28 52  1  0  0  0  0
 52 53  1  0  0  0  0
 53 54  1  0  0  0  0
 53 55  2  0  0  0  0
 54 56  2  0  0  0  0
 56 57  1  0  0  0  0
 57 58  2  0  0  0  0
 58 59  1  0  0  0  0
 59 60  2  0  0  0  0
 60 54  1  0  0  0  0
 57 61  1  0  0  0  0
 59 62  1  0  0  0  0
 58 63  1  0  0  0  0
 23 64  1  6  0  0  0
  9 65  1  0  0  0  0
 10 66  1  0  0  0  0
  3 67  2  0  0  0  0
 12 68  1  0  0  0  0
 68 69  1  0  0  0  0
 68 70  2  0  0  0  0
 21 19  1  6  0  0  0
  6 71  1  6  0  0  0
 69 72  1  0  0  0  0
M  END
>  <cdx:fragmentId>
46

$$$$
