132637.cdx
  Mrv1902 05222410182D          

 36 40  0  0  0  0            999 V2000
    5.3588  -12.1929    0.0000 C   0  0  0  0  0  0  0  0  0  0  0  0
    5.3588  -11.3679    0.0000 C   0  0  0  0  0  0  0  0  0  0  0  0
    6.0733  -10.9554    0.0000 C   0  0  1  0  0  0  0  0  0  0  0  0
    6.7877  -11.3679    0.0000 C   0  0  0  0  0  0  0  0  0  0  0  0
    7.5022  -10.9554    0.0000 C   0  0  0  0  0  0  0  0  0  0  0  0
    8.2167  -11.3679    0.0000 C   0  0  0  0  0  0  0  0  0  0  0  0
    8.2167  -12.1929    0.0000 C   0  0  0  0  0  0  0  0  0  0  0  0
    7.5022  -12.6054    0.0000 C   0  0  0  0  0  0  0  0  0  0  0  0
    6.7877  -12.1929    0.0000 C   0  0  0  0  0  0  0  0  0  0  0  0
    6.0733  -12.6054    0.0000 O   0  0  0  0  0  0  0  0  0  0  0  0
    8.9311  -10.9554    0.0000 C   0  0  0  0  0  0  0  0  0  0  0  0
    8.9311  -10.1304    0.0000 C   0  0  2  0  0  0  0  0  0  0  0  0
    8.2167   -9.7179    0.0000 C   0  0  2  0  0  0  0  0  0  0  0  0
    7.5022  -10.1304    0.0000 O   0  0  0  0  0  0  0  0  0  0  0  0
    4.6443  -12.6054    0.0000 O   0  0  0  0  0  0  0  0  0  0  0  0
    5.9076  -10.1807    0.0000 C   0  0  0  0  0  0  0  0  0  0  0  0
    5.1324   -9.8986    0.0000 C   0  0  0  0  0  0  0  0  0  0  0  0
    4.9891   -9.0861    0.0000 C   0  0  0  0  0  0  0  0  0  0  0  0
    5.6211   -8.5558    0.0000 C   0  0  0  0  0  0  0  0  0  0  0  0
    6.3964   -8.8380    0.0000 C   0  0  0  0  0  0  0  0  0  0  0  0
    6.5396   -9.6504    0.0000 C   0  0  0  0  0  0  0  0  0  0  0  0
    7.0283   -8.3077    0.0000 O   0  0  0  0  0  0  0  0  0  0  0  0
    6.8851   -7.4952    0.0000 C   0  0  0  0  0  0  0  0  0  0  0  0
    4.2139   -8.8039    0.0000 O   0  0  0  0  0  0  0  0  0  0  0  0
    3.5819   -9.3342    0.0000 C   0  0  0  0  0  0  0  0  0  0  0  0
    5.4778   -7.7433    0.0000 O   0  0  0  0  0  0  0  0  0  0  0  0
    8.9311  -12.6054    0.0000 O   0  0  0  0  0  0  0  0  0  0  0  0
    9.6456   -9.7179    0.0000 O   0  0  0  0  0  0  0  0  0  0  0  0
    8.2167   -8.8929    0.0000 C   0  0  0  0  0  0  0  0  0  0  0  0
    8.9311   -8.4804    0.0000 C   0  0  0  0  0  0  0  0  0  0  0  0
    8.9311   -7.6554    0.0000 C   0  0  0  0  0  0  0  0  0  0  0  0
    8.2167   -7.2429    0.0000 C   0  0  0  0  0  0  0  0  0  0  0  0
    7.5022   -7.6554    0.0000 C   0  0  0  0  0  0  0  0  0  0  0  0
    7.5022   -8.4804    0.0000 C   0  0  0  0  0  0  0  0  0  0  0  0
    8.2167   -6.4179    0.0000 O   0  0  0  0  0  0  0  0  0  0  0  0
    9.6456   -7.2429    0.0000 O   0  0  0  0  0  0  0  0  0  0  0  0
  1  2  1  0  0  0  0
  2  3  1  0  0  0  0
  3  4  1  0  0  0  0
  4  5  1  0  0  0  0
  5  6  2  0  0  0  0
  6  7  1  0  0  0  0
  7  8  2  0  0  0  0
  8  9  1  0  0  0  0
  4  9  2  0  0  0  0
  9 10  1  0  0  0  0
  1 10  1  0  0  0  0
 11 12  1  0  0  0  0
 12 13  1  0  0  0  0
 13 14  1  0  0  0  0
 14  5  1  0  0  0  0
 11  6  1  0  0  0  0
  1 15  2  0  0  0  0
 16 17  1  0  0  0  0
 17 18  2  0  0  0  0
 18 19  1  0  0  0  0
 19 20  2  0  0  0  0
 20 21  1  0  0  0  0
 16 21  2  0  0  0  0
 22 23  1  0  0  0  0
 20 22  1  0  0  0  0
 24 25  1  0  0  0  0
 18 24  1  0  0  0  0
 19 26  1  0  0  0  0
  7 27  1  0  0  0  0
 12 28  1  6  0  0  0
 29 30  1  0  0  0  0
 30 31  2  0  0  0  0
 31 32  1  0  0  0  0
 32 33  2  0  0  0  0
 33 34  1  0  0  0  0
 29 34  2  0  0  0  0
 32 35  1  0  0  0  0
 31 36  1  0  0  0  0
 13 29  1  6  0  0  0
  3 16  1  6  0  0  0
M  END
>  <cdx:fragmentId>
20193

$$$$
