13308.cdx
  Mrv1902 05222410262D          

 24 27  0  0  0  0            999 V2000
    4.0042   -4.8587    0.0000 C   0  0  0  0  0  0  0  0  0  0  0  0
    3.2897   -5.2712    0.0000 C   0  0  0  0  0  0  0  0  0  0  0  0
    3.2897   -6.0962    0.0000 C   0  0  0  0  0  0  0  0  0  0  0  0
    4.0042   -6.5087    0.0000 C   0  0  0  0  0  0  0  0  0  0  0  0
    4.7187   -6.0962    0.0000 C   0  0  0  0  0  0  0  0  0  0  0  0
    5.4331   -6.5087    0.0000 C   0  0  0  0  0  0  0  0  0  0  0  0
    6.1476   -6.0962    0.0000 C   0  0  0  0  0  0  0  0  0  0  0  0
    6.1476   -5.2712    0.0000 C   0  0  1  0  0  0  0  0  0  0  0  0
    6.8621   -4.8587    0.0000 C   0  0  2  0  0  0  0  0  0  0  0  0
    7.6467   -5.1136    0.0000 C   0  0  0  0  0  0  0  0  0  0  0  0
    8.1316   -4.4462    0.0000 C   0  0  0  0  0  0  0  0  0  0  0  0
    7.6467   -3.7788    0.0000 C   0  0  1  0  0  0  0  0  0  0  0  0
    6.8621   -4.0337    0.0000 C   0  0  1  0  0  0  0  0  0  0  0  0
    6.1476   -3.6212    0.0000 C   0  0  0  0  0  0  0  0  0  0  0  0
    5.4331   -4.0337    0.0000 C   0  0  0  0  0  0  0  0  0  0  0  0
    5.4331   -4.8587    0.0000 C   0  0  2  0  0  0  0  0  0  0  0  0
    4.7187   -5.2712    0.0000 C   0  0  1  0  0  0  0  0  0  0  0  0
    2.5753   -6.5087    0.0000 O   0  0  0  0  0  0  0  0  0  0  0  0
    6.8621   -3.2087    0.0000 C   0  0  0  0  0  0  0  0  0  0  0  0
    4.7187   -4.4462    0.0000 C   0  0  0  0  0  0  0  0  0  0  0  0
    7.9016   -2.9941    0.0000 O   0  0  0  0  0  0  0  0  0  0  0  0
    6.1476   -4.4462    0.0000 H   0  0  0  0  0  0  0  0  0  0  0  0
    5.4331   -5.6837    0.0000 H   0  0  0  0  0  0  0  0  0  0  0  0
    6.8621   -5.6837    0.0000 H   0  0  0  0  0  0  0  0  0  0  0  0
  1  2  2  0  0  0  0
  2  3  1  0  0  0  0
  3  4  1  0  0  0  0
  4  5  2  0  0  0  0
  5  6  1  0  0  0  0
  6  7  1  0  0  0  0
  7  8  1  0  0  0  0
  8  9  1  0  0  0  0
  9 10  1  0  0  0  0
 10 11  1  0  0  0  0
 11 12  1  0  0  0  0
 12 13  1  0  0  0  0
  9 13  1  0  0  0  0
 13 14  1  0  0  0  0
 14 15  1  0  0  0  0
 15 16  1  0  0  0  0
  8 16  1  0  0  0  0
 16 17  1  0  0  0  0
  5 17  1  0  0  0  0
  1 17  1  0  0  0  0
  3 18  2  0  0  0  0
 13 19  1  1  0  0  0
 17 20  1  1  0  0  0
 12 21  1  1  0  0  0
  8 22  1  1  0  0  0
 16 23  1  6  0  0  0
  9 24  1  6  0  0  0
M  END
>  <cdx:groupId>
77

>  <cdx:fragmentId>
5

$$$$
