133145.cdx
  Mrv1902 05222410232D          

 23 24  0  0  0  0            999 V2000
   14.0355  -12.3955    0.0000 C   0  0  0  0  0  0  0  0  0  0  0  0
   14.7500  -12.8080    0.0000 C   0  0  0  0  0  0  0  0  0  0  0  0
   15.4645  -12.3955    0.0000 C   0  0  0  0  0  0  0  0  0  0  0  0
   16.1789  -12.8080    0.0000 C   0  0  0  0  0  0  0  0  0  0  0  0
   16.8934  -12.3955    0.0000 C   0  0  0  0  0  0  0  0  0  0  0  0
   17.6079  -12.8080    0.0000 C   0  0  0  0  0  0  0  0  0  0  0  0
   18.3223  -12.3955    0.0000 C   0  0  0  0  0  0  0  0  0  0  0  0
   15.4645  -11.5705    0.0000 O   0  0  0  0  0  0  0  0  0  0  0  0
   19.0368  -12.8080    0.0000 C   0  0  0  0  0  0  0  0  0  0  0  0
   19.7513  -12.3955    0.0000 C   0  0  0  0  0  0  0  0  0  0  0  0
   20.4658  -12.8080    0.0000 C   0  0  0  0  0  0  0  0  0  0  0  0
   20.4658  -13.6330    0.0000 C   0  0  0  0  0  0  0  0  0  0  0  0
   19.7513  -14.0455    0.0000 C   0  0  0  0  0  0  0  0  0  0  0  0
   19.0368  -13.6330    0.0000 C   0  0  0  0  0  0  0  0  0  0  0  0
   13.3210  -12.8080    0.0000 C   0  0  0  0  0  0  0  0  0  0  0  0
   12.6066  -12.3955    0.0000 C   0  0  0  0  0  0  0  0  0  0  0  0
   11.8921  -12.8080    0.0000 C   0  0  0  0  0  0  0  0  0  0  0  0
   11.8921  -13.6330    0.0000 C   0  0  0  0  0  0  0  0  0  0  0  0
   12.6066  -14.0455    0.0000 C   0  0  0  0  0  0  0  0  0  0  0  0
   13.3210  -13.6330    0.0000 C   0  0  0  0  0  0  0  0  0  0  0  0
   11.1776  -12.3955    0.0000 O   0  0  0  0  0  0  0  0  0  0  0  0
   10.4632  -12.8080    0.0000 C   0  0  0  0  0  0  0  0  0  0  0  0
   11.1776  -14.0455    0.0000 O   0  0  0  0  0  0  0  0  0  0  0  0
  1  2  1  0  0  0  0
  2  3  1  0  0  0  0
  3  4  1  0  0  0  0
  4  5  1  0  0  0  0
  5  6  1  0  0  0  0
  6  7  1  0  0  0  0
  3  8  2  0  0  0  0
  9 10  1  0  0  0  0
 10 11  2  0  0  0  0
 11 12  1  0  0  0  0
 12 13  2  0  0  0  0
 13 14  1  0  0  0  0
  9 14  2  0  0  0  0
  7  9  1  0  0  0  0
 15 16  1  0  0  0  0
 16 17  2  0  0  0  0
 17 18  1  0  0  0  0
 18 19  2  0  0  0  0
 19 20  1  0  0  0  0
 15 20  2  0  0  0  0
 21 22  1  0  0  0  0
 17 21  1  0  0  0  0
 18 23  1  0  0  0  0
  1 15  1  0  0  0  0
M  END
>  <cdx:groupId>
7998

>  <cdx:fragmentId>
7931

$$$$
