13327.cdx
  Mrv1902 05222410272D          

 29 32  0  0  0  0            999 V2000
    6.0895   -7.6790    0.0000 C   0  0  0  0  0  0  0  0  0  0  0  0
    6.0596   -6.3525    0.0000 C   0  0  0  0  0  0  0  0  0  0  0  0
    6.7815   -6.0638    0.0000 O   0  0  0  0  0  0  0  0  0  0  0  0
    7.5018   -6.5587    0.0000 C   0  0  0  0  0  0  0  0  0  0  0  0
    7.5018   -7.3838    0.0000 C   0  0  0  0  0  0  0  0  0  0  0  0
    8.2163   -7.7963    0.0000 C   0  0  0  0  0  0  0  0  0  0  0  0
    8.9307   -7.3838    0.0000 C   0  0  0  0  0  0  0  0  0  0  0  0
    8.9307   -6.5587    0.0000 C   0  0  0  0  0  0  0  0  0  0  0  0
    8.2163   -6.1463    0.0000 C   0  0  0  0  0  0  0  0  0  0  0  0
    6.8227   -7.8994    0.0000 O   0  0  0  0  0  0  0  0  0  0  0  0
    8.2163   -5.3213    0.0000 C   0  0  0  0  0  0  0  0  0  0  0  0
    9.6452   -6.1463    0.0000 O   0  0  0  0  0  0  0  0  0  0  0  0
    8.3878   -8.6032    0.0000 C   0  0  0  0  0  0  0  0  0  0  0  0
    9.2083   -8.6895    0.0000 O   0  0  0  0  0  0  0  0  0  0  0  0
    9.5438   -7.9358    0.0000 C   0  0  0  0  0  0  0  0  0  0  0  0
    7.8044   -9.1866    0.0000 O   0  0  0  0  0  0  0  0  0  0  0  0
   10.3407   -7.7223    0.0000 O   0  0  0  0  0  0  0  0  0  0  0  0
    5.4969   -5.7279    0.0000 O   0  0  0  0  0  0  0  0  0  0  0  0
    4.8612   -9.8098    0.0000 C   0  0  0  0  0  0  0  0  0  0  0  0
    8.2169   -9.9011    0.0000 C   0  0  0  0  0  0  0  0  0  0  0  0
    4.4487   -7.6664    0.0000 C   0  0  0  0  0  0  0  0  0  0  0  0
    4.8612   -8.3809    0.0000 C   0  0  0  0  0  0  0  0  0  0  0  0
    5.6862   -8.3809    0.0000 C   0  0  0  0  0  0  0  0  0  0  0  0
    5.6862   -6.9520    0.0000 C   0  0  0  0  0  0  0  0  0  0  0  0
    4.8612   -6.9520    0.0000 C   0  0  0  0  0  0  0  0  0  0  0  0
    6.0987   -9.0954    0.0000 C   0  0  0  0  0  0  0  0  0  0  0  0
    5.6862   -9.8098    0.0000 O   0  0  0  0  0  0  0  0  0  0  0  0
    4.4487   -9.0954    0.0000 O   0  0  0  0  0  0  0  0  0  0  0  0
    4.2779   -6.3686    0.0000 C   0  0  0  0  0  0  0  0  0  0  0  0
  2  3  1  0  0  0  0
  3  4  1  0  0  0  0
  4  5  2  0  0  0  0
  5  6  1  0  0  0  0
  6  7  2  0  0  0  0
  7  8  1  0  0  0  0
  8  9  2  0  0  0  0
  9  4  1  0  0  0  0
  1 10  1  0  0  0  0
  5 10  1  0  0  0  0
  9 11  1  0  0  0  0
  8 12  1  0  0  0  0
  6 13  1  0  0  0  0
 13 14  1  0  0  0  0
 14 15  1  0  0  0  0
 15  7  1  0  0  0  0
 13 16  1  0  0  0  0
 15 17  2  0  0  0  0
  2 18  2  0  0  0  0
 16 20  1  0  0  0  0
 21 22  2  0  0  0  0
 22 23  1  0  0  0  0
 24 25  2  0  0  0  0
 25 21  1  0  0  0  0
 23 26  1  0  0  0  0
 26 27  2  0  0  0  0
 22 28  1  0  0  0  0
 28 19  1  0  0  0  0
 25 29  1  0  0  0  0
 24  2  1  0  0  0  0
  1 23  2  0  0  0  0
  1 24  1  0  0  0  0
M  END
>  <cdx:fragmentId>
5

$$$$
