133323.cdx
  Mrv1902 05222410272D          

 25 28  0  0  0  0            999 V2000
    9.5646   -8.2894    0.0000 N   0  0  0  0  0  0  0  0  0  0  0  0
   10.2790   -7.8767    0.0000 C   0  0  0  0  0  0  0  0  0  0  0  0
   10.2792   -7.0517    0.0000 C   0  0  0  0  0  0  0  0  0  0  0  0
    9.5652   -6.6385    0.0000 C   0  0  0  0  0  0  0  0  0  0  0  0
    8.8507   -7.0510    0.0000 C   0  0  0  0  0  0  0  0  0  0  0  0
    8.1362   -6.6385    0.0000 C   0  0  0  0  0  0  0  0  0  0  0  0
    7.4218   -7.0510    0.0000 C   0  0  0  0  0  0  0  0  0  0  0  0
    7.4218   -7.8760    0.0000 C   0  0  0  0  0  0  0  0  0  0  0  0
    8.1362   -8.2885    0.0000 C   0  0  0  0  0  0  0  0  0  0  0  0
    8.8507   -7.8760    0.0000 C   0  0  2  0  0  0  0  0  0  0  0  0
    8.1362   -5.8135    0.0000 C   0  0  0  0  0  0  0  0  0  0  0  0
    8.8507   -5.4010    0.0000 C   0  0  0  0  0  0  0  0  0  0  0  0
    9.5652   -5.8135    0.0000 C   0  0  0  0  0  0  0  0  0  0  0  0
    6.7073   -8.2885    0.0000 C   0  0  0  0  0  0  0  0  0  0  0  0
    5.9928   -7.8760    0.0000 C   0  0  0  0  0  0  0  0  0  0  0  0
    5.9928   -7.0510    0.0000 C   0  0  0  0  0  0  0  0  0  0  0  0
    6.7073   -6.6385    0.0000 C   0  0  0  0  0  0  0  0  0  0  0  0
    7.4218   -5.4010    0.0000 O   0  0  0  0  0  0  0  0  0  0  0  0
    5.2784   -8.2885    0.0000 O   0  0  0  0  0  0  0  0  0  0  0  0
    9.5646   -9.1144    0.0000 C   0  0  0  0  0  0  0  0  0  0  0  0
    5.2784   -6.6385    0.0000 O   0  0  0  0  0  0  0  0  0  0  0  0
    4.5639   -7.0510    0.0000 C   0  0  0  0  0  0  0  0  0  0  0  0
    8.8507   -4.5760    0.0000 O   0  0  0  0  0  0  0  0  0  0  0  0
    9.5652   -4.1635    0.0000 C   0  0  0  0  0  0  0  0  0  0  0  0
    8.8507   -8.7010    0.0000 H   0  0  0  0  0  0  0  0  0  0  0  0
  1  2  1  0  0  0  0
  2  3  1  0  0  0  0
  3  4  1  0  0  0  0
  4  5  1  0  0  0  0
  5  6  2  0  0  0  0
  6  7  1  0  0  0  0
  7  8  1  0  0  0  0
  8  9  1  0  0  0  0
  9 10  1  0  0  0  0
  1 10  1  0  0  0  0
  5 10  1  0  0  0  0
 11 12  2  0  0  0  0
 12 13  1  0  0  0  0
 13  4  2  0  0  0  0
 11  6  1  0  0  0  0
 14 15  1  0  0  0  0
 15 16  2  0  0  0  0
 16 17  1  0  0  0  0
 17  7  2  0  0  0  0
 14  8  2  0  0  0  0
 11 18  1  0  0  0  0
 15 19  1  0  0  0  0
  1 20  1  0  0  0  0
 21 22  1  0  0  0  0
 16 21  1  0  0  0  0
 23 24  1  0  0  0  0
 12 23  1  0  0  0  0
 10 25  1  6  0  0  0
M  END
>  <cdx:groupId>
80

>  <cdx:fragmentId>
5

$$$$
