13337.cdx
  Mrv1902 05222410262D          

 36 38  0  0  0  0            999 V2000
    8.2350   -5.9261    0.0000 C   0  0  0  0  0  0  0  0  0  0  0  0
    7.4102   -5.9099    0.0000 C   0  0  0  0  0  0  0  0  0  0  0  0
    6.8154   -6.4816    0.0000 C   0  0  0  0  0  0  0  0  0  0  0  0
    6.7992   -7.3065    0.0000 C   0  0  0  0  0  0  0  0  0  0  0  0
    7.3710   -7.9012    0.0000 C   0  0  0  0  0  0  0  0  0  0  0  0
    8.1958   -7.9174    0.0000 C   0  0  0  0  0  0  0  0  0  0  0  0
    8.7906   -7.3456    0.0000 C   0  0  2  0  0  0  0  0  0  0  0  0
    8.8068   -6.5208    0.0000 C   0  0  1  0  0  0  0  0  0  0  0  0
    9.6037   -6.7343    0.0000 O   0  0  0  0  0  0  0  0  0  0  0  0
    9.5464   -7.6763    0.0000 C   0  0  0  0  0  0  0  0  0  0  0  0
    7.2124   -5.1089    0.0000 C   0  0  0  0  0  0  0  0  0  0  0  0
    6.4198   -4.8798    0.0000 C   0  0  0  0  0  0  0  0  0  0  0  0
    5.8251   -5.4515    0.0000 C   0  0  0  0  0  0  0  0  0  0  0  0
    6.0229   -6.2525    0.0000 C   0  0  0  0  0  0  0  0  0  0  0  0
    5.9983   -7.5043    0.0000 C   0  0  0  0  0  0  0  0  0  0  0  0
    5.7691   -8.2968    0.0000 C   0  0  0  0  0  0  0  0  0  0  0  0
    6.3409   -8.8915    0.0000 C   0  0  0  0  0  0  0  0  0  0  0  0
    7.1418   -8.6937    0.0000 C   0  0  0  0  0  0  0  0  0  0  0  0
    6.2220   -4.0788    0.0000 O   0  0  0  0  0  0  0  0  0  0  0  0
    6.8132   -3.5034    0.0000 C   0  0  0  0  0  0  0  0  0  0  0  0
    5.0326   -5.2224    0.0000 O   0  0  0  0  0  0  0  0  0  0  0  0
    4.8348   -4.4214    0.0000 C   0  0  0  0  0  0  0  0  0  0  0  0
    5.3029   -6.6553    0.0000 O   0  0  0  0  0  0  0  0  0  0  0  0
    4.5941   -6.2332    0.0000 C   0  0  0  0  0  0  0  0  0  0  0  0
    5.2894   -7.0822    0.0000 O   0  0  0  0  0  0  0  0  0  0  0  0
    4.9682   -8.4946    0.0000 O   0  0  0  0  0  0  0  0  0  0  0  0
    4.7390   -9.2872    0.0000 C   0  0  0  0  0  0  0  0  0  0  0  0
    6.1117   -9.6841    0.0000 O   0  0  0  0  0  0  0  0  0  0  0  0
    6.6872  -10.2753    0.0000 C   0  0  0  0  0  0  0  0  0  0  0  0
    9.5212   -6.1083    0.0000 C   0  0  0  0  0  0  0  0  0  0  0  0
   10.1870   -6.1510    0.0000 C   0  0  0  0  0  0  0  0  0  0  0  0
   10.9839   -6.3645    0.0000 C   0  0  0  0  0  0  0  0  0  0  0  0
    9.9735   -5.3541    0.0000 O   0  0  0  0  0  0  0  0  0  0  0  0
   11.5673   -5.7811    0.0000 C   0  0  0  0  0  0  0  0  0  0  0  0
   11.1974   -7.1614    0.0000 C   0  0  0  0  0  0  0  0  0  0  0  0
   11.3538   -4.9842    0.0000 C   0  0  0  0  0  0  0  0  0  0  0  0
  1  2  1  0  0  0  0
  2  3  2  0  0  0  0
  3  4  1  0  0  0  0
  4  5  2  0  0  0  0
  5  6  1  0  0  0  0
  6  7  1  0  0  0  0
  7  8  1  0  0  0  0
  8  1  1  0  0  0  0
  8  9  1  6  0  0  0
  7 10  1  6  0  0  0
  2 11  1  0  0  0  0
 11 12  2  0  0  0  0
 12 13  1  0  0  0  0
 13 14  2  0  0  0  0
 14  3  1  0  0  0  0
  4 15  1  0  0  0  0
 15 16  2  0  0  0  0
 16 17  1  0  0  0  0
 17 18  2  0  0  0  0
 18  5  1  0  0  0  0
 12 19  1  0  0  0  0
 19 20  1  0  0  0  0
 13 21  1  0  0  0  0
 21 22  1  0  0  0  0
 14 23  1  0  0  0  0
 23 24  1  0  0  0  0
 15 25  1  0  0  0  0
 16 26  1  0  0  0  0
 26 27  1  0  0  0  0
 17 28  1  0  0  0  0
 28 29  1  0  0  0  0
  8 30  1  1  0  0  0
  9 31  1  0  0  0  0
 31 32  1  0  0  0  0
 31 33  2  0  0  0  0
 32 34  2  0  0  0  0
 32 35  1  0  0  0  0
 34 36  1  0  0  0  0
M  END
>  <cdx:fragmentId>
760

$$$$
