133315.cdx
  Mrv1902 05222410202D          

 20 22  0  0  0  0            999 V2000
    7.4207   -5.1887    0.0000 C   0  0  0  0  0  0  0  0  0  0  0  0
    8.1352   -5.6012    0.0000 C   0  0  0  0  0  0  0  0  0  0  0  0
    8.8497   -5.1887    0.0000 C   0  0  0  0  0  0  0  0  0  0  0  0
    9.5642   -5.6012    0.0000 C   0  0  0  0  0  0  0  0  0  0  0  0
    9.5642   -6.4262    0.0000 C   0  0  0  0  0  0  0  0  0  0  0  0
    8.8497   -6.8387    0.0000 C   0  0  0  0  0  0  0  0  0  0  0  0
    8.1352   -6.4262    0.0000 C   0  0  0  0  0  0  0  0  0  0  0  0
    7.4207   -6.8387    0.0000 O   0  0  0  0  0  0  0  0  0  0  0  0
    6.7063   -6.4262    0.0000 C   0  0  0  0  0  0  0  0  0  0  0  0
    5.9918   -6.8387    0.0000 C   0  0  0  0  0  0  0  0  0  0  0  0
    5.2773   -6.4262    0.0000 C   0  0  0  0  0  0  0  0  0  0  0  0
    5.2773   -5.6012    0.0000 C   0  0  0  0  0  0  0  0  0  0  0  0
    5.9918   -5.1887    0.0000 C   0  0  0  0  0  0  0  0  0  0  0  0
    6.7063   -5.6012    0.0000 C   0  0  0  0  0  0  0  0  0  0  0  0
    7.4207   -4.3637    0.0000 O   0  0  0  0  0  0  0  0  0  0  0  0
   10.2786   -5.1887    0.0000 O   0  0  0  0  0  0  0  0  0  0  0  0
   10.9931   -5.6012    0.0000 C   0  0  0  0  0  0  0  0  0  0  0  0
    4.5629   -5.1887    0.0000 O   0  0  0  0  0  0  0  0  0  0  0  0
   10.2786   -6.8387    0.0000 O   0  0  0  0  0  0  0  0  0  0  0  0
    8.8497   -4.3637    0.0000 O   0  0  0  0  0  0  0  0  0  0  0  0
  1  2  1  0  0  0  0
  2  3  1  0  0  0  0
  3  4  2  0  0  0  0
  4  5  1  0  0  0  0
  5  6  2  0  0  0  0
  6  7  1  0  0  0  0
  2  7  2  0  0  0  0
  7  8  1  0  0  0  0
  8  9  1  0  0  0  0
  9 10  1  0  0  0  0
 10 11  2  0  0  0  0
 11 12  1  0  0  0  0
 12 13  2  0  0  0  0
 13 14  1  0  0  0  0
  9 14  2  0  0  0  0
  1 14  1  0  0  0  0
  1 15  2  0  0  0  0
 16 17  1  0  0  0  0
  4 16  1  0  0  0  0
 12 18  1  0  0  0  0
  5 19  1  0  0  0  0
  3 20  1  0  0  0  0
M  END
>  <cdx:fragmentId>
87435

$$$$
