133535.cdx
  Mrv1902 05222410272D          

 40 43  0  0  0  0            999 V2000
    6.1859   -8.9375    0.0000 C   0  0  2  0  0  0  0  0  0  0  0  0
    5.4714   -8.5250    0.0000 C   0  0  2  0  0  0  0  0  0  0  0  0
    6.9004   -8.5250    0.0000 C   0  0  1  0  0  0  0  0  0  0  0  0
    6.9004   -7.7000    0.0000 C   0  0  2  0  0  0  0  0  0  0  0  0
    6.1859   -7.2875    0.0000 C   0  0  0  0  0  0  0  0  0  0  0  0
    5.4714   -7.7000    0.0000 C   0  0  0  0  0  0  0  0  0  0  0  0
    7.6850   -8.7799    0.0000 C   0  0  0  0  0  0  0  0  0  0  0  0
    8.1699   -8.1125    0.0000 C   0  0  0  0  0  0  0  0  0  0  0  0
    7.6850   -7.4451    0.0000 C   0  0  2  0  0  0  0  0  0  0  0  0
    6.1859   -8.1125    0.0000 H   0  0  0  0  0  0  0  0  0  0  0  0
    6.9004   -9.3500    0.0000 H   0  0  0  0  0  0  0  0  0  0  0  0
    6.9004   -6.8750    0.0000 C   0  0  0  0  0  0  0  0  0  0  0  0
    7.9399   -6.6604    0.0000 C   0  0  2  0  0  0  0  0  0  0  0  0
    8.4696   -7.1901    0.0000 H   0  0  0  0  0  0  0  0  0  0  0  0
    7.3879   -6.0473    0.0000 C   0  0  0  0  0  0  0  0  0  0  0  0
    8.7469   -6.4889    0.0000 C   0  0  1  0  0  0  0  0  0  0  0  0
    9.2989   -7.1020    0.0000 O   0  0  0  0  0  0  0  0  0  0  0  0
    9.0019   -5.7043    0.0000 C   0  0  2  0  0  0  0  0  0  0  0  0
    8.4498   -5.0912    0.0000 O   0  0  0  0  0  0  0  0  0  0  0  0
    9.8088   -5.5328    0.0000 C   0  0  1  0  0  0  0  0  0  0  0  0
   10.3609   -6.1459    0.0000 C   0  0  0  0  0  0  0  0  0  0  0  0
   10.0638   -4.7481    0.0000 C   0  0  0  0  0  0  0  0  0  0  0  0
    9.5117   -4.1350    0.0000 C   0  0  0  0  0  0  0  0  0  0  0  0
   10.8707   -4.5766    0.0000 C   0  0  0  0  0  0  0  0  0  0  0  0
    4.7035   -8.8264    0.0000 C   0  0  2  0  0  0  0  0  0  0  0  0
    4.4603   -9.6148    0.0000 C   0  0  1  0  0  0  0  0  0  0  0  0
    4.9250  -10.2964    0.0000 C   0  0  0  0  0  0  0  0  0  0  0  0
    5.7477  -10.3581    0.0000 O   0  0  0  0  0  0  0  0  0  0  0  0
    6.3089   -9.7533    0.0000 C   0  0  0  0  0  0  0  0  0  0  0  0
    4.1423   -8.2216    0.0000 C   0  0  0  0  0  0  0  0  0  0  0  0
    3.3380   -8.4052    0.0000 C   0  0  2  0  0  0  0  0  0  0  0  0
    3.0948   -9.1936    0.0000 C   0  0  2  0  0  0  0  0  0  0  0  0
    3.6560   -9.7983    0.0000 C   0  0  0  0  0  0  0  0  0  0  0  0
    2.7769   -7.8005    0.0000 O   0  0  0  0  0  0  0  0  0  0  0  0
    2.2905   -9.3771    0.0000 O   0  0  0  0  0  0  0  0  0  0  0  0
    4.2468  -10.4116    0.0000 H   0  0  0  0  0  0  0  0  0  0  0  0
    4.9466   -8.0381    0.0000 C   0  0  0  0  0  0  0  0  0  0  0  0
    4.5125  -11.0109    0.0000 O   0  0  0  0  0  0  0  0  0  0  0  0
    5.4714   -9.3500    0.0000 H   0  0  0  0  0  0  0  0  0  0  0  0
   11.1859   -6.1459    0.0000 C   0  0  0  0  0  0  0  0  0  0  0  0
  1  2  1  0  0  0  0
  1  3  1  0  0  0  0
  3  4  1  0  0  0  0
  4  5  1  0  0  0  0
  5  6  1  0  0  0  0
  6  2  1  0  0  0  0
  3  7  1  0  0  0  0
  7  8  1  0  0  0  0
  8  9  1  0  0  0  0
  9  4  1  0  0  0  0
  1 10  1  1  0  0  0
  3 11  1  6  0  0  0
  4 12  1  1  0  0  0
  9 13  1  0  0  0  0
  9 14  1  6  0  0  0
 13 15  1  6  0  0  0
 13 16  1  0  0  0  0
 16 17  1  6  0  0  0
 16 18  1  0  0  0  0
 18 19  1  6  0  0  0
 18 20  1  0  0  0  0
 20 21  1  6  0  0  0
 20 22  1  0  0  0  0
 22 23  1  0  0  0  0
 22 24  1  0  0  0  0
  2 25  1  0  0  0  0
 25 26  1  0  0  0  0
 26 27  1  0  0  0  0
 27 28  1  0  0  0  0
 28 29  1  0  0  0  0
 29  1  1  0  0  0  0
 25 30  1  0  0  0  0
 30 31  1  0  0  0  0
 31 32  1  0  0  0  0
 32 33  1  0  0  0  0
 33 26  1  0  0  0  0
 31 34  1  6  0  0  0
 32 35  1  6  0  0  0
 26 36  1  6  0  0  0
 25 37  1  1  0  0  0
 27 38  2  0  0  0  0
  2 39  1  6  0  0  0
 21 40  1  0  0  0  0
M  END
>  <cdx:fragmentId>
18471

$$$$
