133537.cdx
  Mrv1902 05222410262D          

 37 40  0  0  0  0            999 V2000
    3.3280   -8.9375    0.0000 C   0  0  1  0  0  0  0  0  0  0  0  0
    3.3280   -9.7625    0.0000 C   0  0  2  0  0  0  0  0  0  0  0  0
    4.0425  -10.1750    0.0000 C   0  0  0  0  0  0  0  0  0  0  0  0
    4.7570   -9.7625    0.0000 C   0  0  1  0  0  0  0  0  0  0  0  0
    4.7570   -8.9375    0.0000 C   0  0  2  0  0  0  0  0  0  0  0  0
    4.0425   -8.5250    0.0000 C   0  0  0  0  0  0  0  0  0  0  0  0
    5.4714  -10.1750    0.0000 C   0  0  0  0  0  0  0  0  0  0  0  0
    6.1859   -9.7625    0.0000 C   0  0  0  0  0  0  0  0  0  0  0  0
    6.1859   -8.9375    0.0000 C   0  0  2  0  0  0  0  0  0  0  0  0
    5.4714   -8.5250    0.0000 C   0  0  2  0  0  0  0  0  0  0  0  0
    6.9004   -8.5250    0.0000 C   0  0  1  0  0  0  0  0  0  0  0  0
    6.9004   -7.7000    0.0000 C   0  0  2  0  0  0  0  0  0  0  0  0
    6.1859   -7.2875    0.0000 C   0  0  0  0  0  0  0  0  0  0  0  0
    5.4714   -7.7000    0.0000 C   0  0  0  0  0  0  0  0  0  0  0  0
    7.6850   -8.7799    0.0000 C   0  0  0  0  0  0  0  0  0  0  0  0
    8.1699   -8.1125    0.0000 C   0  0  0  0  0  0  0  0  0  0  0  0
    7.6850   -7.4451    0.0000 C   0  0  2  0  0  0  0  0  0  0  0  0
    2.6136   -8.5250    0.0000 O   0  0  0  0  0  0  0  0  0  0  0  0
    2.6136  -10.1750    0.0000 O   0  0  0  0  0  0  0  0  0  0  0  0
    4.7570  -10.5875    0.0000 H   0  0  0  0  0  0  0  0  0  0  0  0
    4.7570   -8.1125    0.0000 C   0  0  0  0  0  0  0  0  0  0  0  0
    5.4714   -9.3500    0.0000 H   0  0  0  0  0  0  0  0  0  0  0  0
    6.1859   -8.1125    0.0000 H   0  0  0  0  0  0  0  0  0  0  0  0
    6.9004   -9.3500    0.0000 H   0  0  0  0  0  0  0  0  0  0  0  0
    6.9004   -6.8750    0.0000 C   0  0  0  0  0  0  0  0  0  0  0  0
    7.9399   -6.6604    0.0000 C   0  0  2  0  0  0  0  0  0  0  0  0
    8.4696   -7.1901    0.0000 H   0  0  0  0  0  0  0  0  0  0  0  0
    7.3879   -6.0473    0.0000 C   0  0  0  0  0  0  0  0  0  0  0  0
    8.7469   -6.4889    0.0000 C   0  0  1  0  0  0  0  0  0  0  0  0
    9.2989   -7.1020    0.0000 O   0  0  0  0  0  0  0  0  0  0  0  0
    9.0019   -5.7043    0.0000 C   0  0  2  0  0  0  0  0  0  0  0  0
    8.4498   -5.0912    0.0000 O   0  0  0  0  0  0  0  0  0  0  0  0
    9.8088   -5.5328    0.0000 C   0  0  0  0  0  0  0  0  0  0  0  0
   10.0638   -4.7481    0.0000 C   0  0  0  0  0  0  0  0  0  0  0  0
    9.5117   -4.1350    0.0000 C   0  0  0  0  0  0  0  0  0  0  0  0
   10.8707   -4.5766    0.0000 C   0  0  0  0  0  0  0  0  0  0  0  0
    5.4714  -11.0000    0.0000 O   0  0  0  0  0  0  0  0  0  0  0  0
  1  2  1  0  0  0  0
  2  3  1  0  0  0  0
  3  4  1  0  0  0  0
  4  5  1  0  0  0  0
  5  6  1  0  0  0  0
  6  1  1  0  0  0  0
  4  7  1  0  0  0  0
  7  8  1  0  0  0  0
  8  9  1  0  0  0  0
  9 10  1  0  0  0  0
 10  5  1  0  0  0  0
  9 11  1  0  0  0  0
 11 12  1  0  0  0  0
 12 13  1  0  0  0  0
 13 14  1  0  0  0  0
 14 10  1  0  0  0  0
 11 15  1  0  0  0  0
 15 16  1  0  0  0  0
 16 17  1  0  0  0  0
 17 12  1  0  0  0  0
  1 18  1  6  0  0  0
  2 19  1  6  0  0  0
  4 20  1  6  0  0  0
  5 21  1  1  0  0  0
 10 22  1  6  0  0  0
  9 23  1  1  0  0  0
 11 24  1  6  0  0  0
 12 25  1  1  0  0  0
 17 26  1  0  0  0  0
 17 27  1  6  0  0  0
 26 28  1  6  0  0  0
 26 29  1  0  0  0  0
 29 30  1  6  0  0  0
 29 31  1  0  0  0  0
 31 32  1  6  0  0  0
 31 33  1  0  0  0  0
 33 34  1  0  0  0  0
 34 35  1  0  0  0  0
 34 36  1  0  0  0  0
  7 37  2  0  0  0  0
M  END
>  <cdx:fragmentId>
18471

$$$$
