monocaffeoyl-p-hydroxycinnamoyl tartaric acid.cdx
  Mrv1902 05222410242D          

 33 34  0  0  0  0            999 V2000
    4.4995  -12.1069    0.0000 C   0  0  0  0  0  0  0  0  0  0  0  0
    4.4995  -12.9319    0.0000 C   0  0  0  0  0  0  0  0  0  0  0  0
    5.2140  -13.3444    0.0000 C   0  0  0  0  0  0  0  0  0  0  0  0
    5.9285  -12.9319    0.0000 C   0  0  0  0  0  0  0  0  0  0  0  0
    5.9285  -12.1069    0.0000 C   0  0  0  0  0  0  0  0  0  0  0  0
    5.2140  -11.6944    0.0000 C   0  0  0  0  0  0  0  0  0  0  0  0
    5.2140  -14.1694    0.0000 O   0  0  0  0  0  0  0  0  0  0  0  0
    3.7851  -13.3444    0.0000 O   0  0  0  0  0  0  0  0  0  0  0  0
    5.2140  -10.8694    0.0000 C   0  0  0  0  0  0  0  0  0  0  0  0
    5.9285  -10.4569    0.0000 C   0  0  0  0  0  0  0  0  0  0  0  0
    5.9285   -9.6319    0.0000 C   0  0  0  0  0  0  0  0  0  0  0  0
    5.2140   -9.2194    0.0000 O   0  0  0  0  0  0  0  0  0  0  0  0
    6.6429   -9.2194    0.0000 O   0  0  0  0  0  0  0  0  0  0  0  0
    6.6429   -8.3944    0.0000 C   0  0  0  0  0  0  0  0  0  0  0  0
    5.9285   -7.9819    0.0000 C   0  0  0  0  0  0  0  0  0  0  0  0
    5.2140   -8.3944    0.0000 O   0  0  0  0  0  0  0  0  0  0  0  0
    5.9285   -7.1569    0.0000 O   0  0  0  0  0  0  0  0  0  0  0  0
    7.3574   -7.9819    0.0000 C   0  0  0  0  0  0  0  0  0  0  0  0
    8.0719   -8.3944    0.0000 C   0  0  0  0  0  0  0  0  0  0  0  0
    8.7864   -7.9819    0.0000 O   0  0  0  0  0  0  0  0  0  0  0  0
    8.0719   -9.2194    0.0000 O   0  0  0  0  0  0  0  0  0  0  0  0
    7.3574   -7.1569    0.0000 O   0  0  0  0  0  0  0  0  0  0  0  0
    8.0719   -6.7444    0.0000 C   0  0  0  0  0  0  0  0  0  0  0  0
    8.7864   -7.1569    0.0000 O   0  0  0  0  0  0  0  0  0  0  0  0
    8.0719   -5.9194    0.0000 C   0  0  0  0  0  0  0  0  0  0  0  0
    8.7864   -5.5069    0.0000 C   0  0  0  0  0  0  0  0  0  0  0  0
    8.7864   -4.6819    0.0000 C   0  0  0  0  0  0  0  0  0  0  0  0
    9.5008   -4.2694    0.0000 C   0  0  0  0  0  0  0  0  0  0  0  0
    9.5008   -3.4444    0.0000 C   0  0  0  0  0  0  0  0  0  0  0  0
    8.7864   -3.0319    0.0000 C   0  0  0  0  0  0  0  0  0  0  0  0
    8.0719   -3.4444    0.0000 C   0  0  0  0  0  0  0  0  0  0  0  0
    8.0719   -4.2694    0.0000 C   0  0  0  0  0  0  0  0  0  0  0  0
    8.7864   -2.2069    0.0000 O   0  0  0  0  0  0  0  0  0  0  0  0
  1  2  2  0  0  0  0
  2  3  1  0  0  0  0
  3  4  2  0  0  0  0
  4  5  1  0  0  0  0
  5  6  2  0  0  0  0
  6  1  1  0  0  0  0
  3  7  1  0  0  0  0
  2  8  1  0  0  0  0
  6  9  1  0  0  0  0
  9 10  2  0  0  0  0
 10 11  1  0  0  0  0
 11 12  2  0  0  0  0
 11 13  1  0  0  0  0
 13 14  1  0  0  0  0
 14 15  1  0  0  0  0
 15 16  1  0  0  0  0
 15 17  2  0  0  0  0
 14 18  1  0  0  0  0
 18 19  1  0  0  0  0
 19 20  1  0  0  0  0
 19 21  2  0  0  0  0
 18 22  1  0  0  0  0
 22 23  1  0  0  0  0
 23 24  2  0  0  0  0
 23 25  1  0  0  0  0
 25 26  2  0  0  0  0
 26 27  1  0  0  0  0
 27 28  2  0  0  0  0
 28 29  1  0  0  0  0
 29 30  2  0  0  0  0
 30 31  1  0  0  0  0
 31 32  2  0  0  0  0
 32 27  1  0  0  0  0
 30 33  1  0  0  0  0
M  END
>  <cdx:fragmentId>
5

$$$$
