133604.cdx
  Mrv1902 05222410222D          

 27 29  0  0  0  0            999 V2000
    5.1817   -9.1625    0.0000 O   0  0  0  0  0  0  0  0  0  0  0  0
    3.7528   -6.6875    0.0000 O   0  0  0  0  0  0  0  0  0  0  0  0
    3.0383   -7.9250    0.0000 C   0  0  0  0  0  0  0  0  0  0  0  0
    3.7528   -8.3375    0.0000 O   0  0  0  0  0  0  0  0  0  0  0  0
   10.8975   -8.3375    0.0000 C   0  0  0  0  0  0  0  0  0  0  0  0
   10.1830   -7.9250    0.0000 O   0  0  0  0  0  0  0  0  0  0  0  0
   10.8975   -9.1625    0.0000 C   0  0  0  0  0  0  0  0  0  0  0  0
   10.1830   -9.5750    0.0000 O   0  0  0  0  0  0  0  0  0  0  0  0
    9.4686  -10.8125    0.0000 C   0  0  0  0  0  0  0  0  0  0  0  0
    8.7541  -10.4000    0.0000 O   0  0  0  0  0  0  0  0  0  0  0  0
    8.0396   -9.1625    0.0000 C   0  0  0  0  0  0  0  0  0  0  0  0
    8.7541   -9.5750    0.0000 C   0  0  0  0  0  0  0  0  0  0  0  0
    9.4686   -9.1625    0.0000 C   0  0  0  0  0  0  0  0  0  0  0  0
    9.4686   -8.3375    0.0000 C   0  0  0  0  0  0  0  0  0  0  0  0
    8.7541   -7.9250    0.0000 C   0  0  0  0  0  0  0  0  0  0  0  0
    8.0396   -8.3375    0.0000 C   0  0  0  0  0  0  0  0  0  0  0  0
    6.6107   -9.1625    0.0000 O   0  0  0  0  0  0  0  0  0  0  0  0
    6.6107   -6.6875    0.0000 O   0  0  0  0  0  0  0  0  0  0  0  0
    5.8962   -7.1000    0.0000 C   0  0  0  0  0  0  0  0  0  0  0  0
    5.1817   -6.6875    0.0000 C   0  0  0  0  0  0  0  0  0  0  0  0
    4.4673   -7.1000    0.0000 C   0  0  0  0  0  0  0  0  0  0  0  0
    4.4673   -7.9250    0.0000 C   0  0  0  0  0  0  0  0  0  0  0  0
    5.1817   -8.3375    0.0000 C   0  0  0  0  0  0  0  0  0  0  0  0
    5.8962   -7.9250    0.0000 C   0  0  0  0  0  0  0  0  0  0  0  0
    6.6107   -8.3375    0.0000 C   0  0  0  0  0  0  0  0  0  0  0  0
    7.3252   -7.9250    0.0000 C   0  0  0  0  0  0  0  0  0  0  0  0
    7.3252   -7.1000    0.0000 C   0  0  0  0  0  0  0  0  0  0  0  0
 23  1  1  0  0  0  0
 21  2  1  0  0  0  0
 22  4  1  0  0  0  0
  4  3  1  0  0  0  0
 26 16  1  0  0  0  0
 14  6  1  0  0  0  0
  6  5  1  0  0  0  0
 13  8  1  0  0  0  0
  8  7  1  0  0  0  0
 12 10  1  0  0  0  0
 10  9  1  0  0  0  0
 16 11  2  0  0  0  0
 12 11  1  0  0  0  0
 13 12  2  0  0  0  0
 14 13  1  0  0  0  0
 15 14  2  0  0  0  0
 16 15  1  0  0  0  0
 25 17  2  0  0  0  0
 27 18  1  0  0  0  0
 19 18  1  0  0  0  0
 24 19  2  0  0  0  0
 20 19  1  0  0  0  0
 21 20  2  0  0  0  0
 22 21  1  0  0  0  0
 23 22  2  0  0  0  0
 24 23  1  0  0  0  0
 25 24  1  0  0  0  0
 26 25  1  0  0  0  0
 27 26  2  0  0  0  0
M  END
>  <cdx:fragmentId>
153011

$$$$
