13367.cdx
  Mrv1902 05222410222D          

  4  3  0  0  0  0            999 V2000
    6.6616   -3.8291    0.0000 C   0  0  0  0  0  0  0  0  0  0  0  0
    7.3759   -3.4164    0.0000 C   0  0  0  0  0  0  0  0  0  0  0  0
    8.0905   -3.8287    0.0000 C   0  0  0  0  0  0  0  0  0  0  0  0
    5.9470   -3.4168    0.0000 S   0  0  0  0  0  0  0  0  0  0  0  0
  1  2  1  0  0  0  0
  2  3  2  0  0  0  0
  1  4  1  0  0  0  0
M  END
>  <cdx:groupId>
13

>  <cdx:fragmentId>
5

$$$$
