13379.cdx
  Mrv1902 05222410242D          

 10  9  0  0  0  0            999 V2000
    7.1512   -2.9208    0.0000 C   0  0  0  0  0  0  0  0  0  0  0  0
    7.1512   -3.7458    0.0000 C   0  0  0  0  0  0  0  0  0  0  0  0
    6.4367   -4.1583    0.0000 C   0  0  0  0  0  0  0  0  0  0  0  0
    5.7222   -3.7458    0.0000 C   0  0  0  0  0  0  0  0  0  0  0  0
    5.0077   -4.1583    0.0000 C   0  0  0  0  0  0  0  0  0  0  0  0
    4.2933   -3.7458    0.0000 C   0  0  0  0  0  0  0  0  0  0  0  0
    3.5788   -4.1583    0.0000 C   0  0  0  0  0  0  0  0  0  0  0  0
    2.8643   -3.7458    0.0000 C   0  0  0  0  0  0  0  0  0  0  0  0
    2.1499   -4.1583    0.0000 C   0  0  0  0  0  0  0  0  0  0  0  0
    7.8656   -4.1583    0.0000 C   0  0  0  0  0  0  0  0  0  0  0  0
  1  2  1  0  0  0  0
  2  3  1  0  0  0  0
  3  4  1  0  0  0  0
  4  5  1  0  0  0  0
  5  6  1  0  0  0  0
  6  7  1  0  0  0  0
  7  8  1  0  0  0  0
  8  9  1  0  0  0  0
  2 10  1  0  0  0  0
M  END
>  <cdx:groupId>
31

>  <cdx:fragmentId>
5

$$$$
