133824.cdx
  Mrv1902 05222410212D          

 48 52  0  0  0  0            999 V2000
    7.0745  -10.3625    0.0000 O   0  0  0  0  0  0  0  0  0  0  0  0
   12.8393   -7.1488    0.0000 C   0  0  0  0  0  0  0  0  0  0  0  0
   12.1311   -6.7256    0.0000 O   0  0  0  0  0  0  0  0  0  0  0  0
    9.9817   -7.1059    0.0000 C   0  0  0  0  0  0  0  0  0  0  0  0
   10.7023   -6.7041    0.0000 C   0  0  0  0  0  0  0  0  0  0  0  0
   11.4105   -7.1274    0.0000 C   0  0  0  0  0  0  0  0  0  0  0  0
   11.3981   -7.9523    0.0000 C   0  0  0  0  0  0  0  0  0  0  0  0
   10.6775   -8.3540    0.0000 C   0  0  0  0  0  0  0  0  0  0  0  0
    9.9693   -7.9308    0.0000 C   0  0  0  0  0  0  0  0  0  0  0  0
    5.7202   -5.3915    0.0000 C   0  0  0  0  0  0  0  0  0  0  0  0
    7.1490   -5.4130    0.0000 C   0  0  0  0  0  0  0  0  0  0  0  0
    6.4284   -5.8147    0.0000 C   0  0  0  0  0  0  0  0  0  0  0  0
    6.4160   -6.6397    0.0000 C   0  0  0  0  0  0  0  0  0  0  0  0
    7.1241   -7.0629    0.0000 C   0  0  0  0  0  0  0  0  0  0  0  0
    5.6581   -9.5161    0.0000 O   0  0  0  0  0  0  0  0  0  0  0  0
    4.2169  -10.3195    0.0000 O   0  0  0  0  0  0  0  0  0  0  0  0
    2.8006   -9.4731    0.0000 O   0  0  0  0  0  0  0  0  0  0  0  0
    2.1048   -8.2250    0.0000 O   0  0  0  0  0  0  0  0  0  0  0  0
    2.8254   -7.8233    0.0000 C   0  0  0  0  0  0  0  0  0  0  0  0
    3.5336   -8.2465    0.0000 C   0  0  2  0  0  0  0  0  0  0  0  0
    3.5212   -9.0714    0.0000 C   0  0  2  0  0  0  0  0  0  0  0  0
    4.2294   -9.4946    0.0000 C   0  0  1  0  0  0  0  0  0  0  0  0
    4.9499   -9.0929    0.0000 C   0  0  2  0  0  0  0  0  0  0  0  0
    4.9624   -8.2680    0.0000 C   0  0  1  0  0  0  0  0  0  0  0  0
    4.2542   -7.8448    0.0000 O   0  0  0  0  0  0  0  0  0  0  0  0
    5.6830   -7.8663    0.0000 O   0  0  0  0  0  0  0  0  0  0  0  0
   11.3608  -10.4270    0.0000 O   0  0  0  0  0  0  0  0  0  0  0  0
   11.3360  -12.0768    0.0000 O   0  0  0  0  0  0  0  0  0  0  0  0
    9.8948  -12.8802    0.0000 O   0  0  0  0  0  0  0  0  0  0  0  0
    8.4785  -12.0338    0.0000 C   0  0  0  0  0  0  0  0  0  0  0  0
    9.1991  -11.6321    0.0000 C   0  0  1  0  0  0  0  0  0  0  0  0
    9.9072  -12.0553    0.0000 C   0  0  1  0  0  0  0  0  0  0  0  0
   10.6278  -11.6536    0.0000 C   0  0  2  0  0  0  0  0  0  0  0  0
   10.6402  -10.8287    0.0000 C   0  0  2  0  0  0  0  0  0  0  0  0
    9.9321  -10.4055    0.0000 C   0  0  1  0  0  0  0  0  0  0  0  0
    9.2115  -10.8072    0.0000 O   0  0  0  0  0  0  0  0  0  0  0  0
    9.9445   -9.5806    0.0000 O   0  0  0  0  0  0  0  0  0  0  0  0
    8.5033  -10.3840    0.0000 O   0  0  0  0  0  0  0  0  0  0  0  0
    8.5405   -7.9093    0.0000 O   0  0  0  0  0  0  0  0  0  0  0  0
    7.8199   -8.3110    0.0000 C   0  0  0  0  0  0  0  0  0  0  0  0
    7.1117   -7.8878    0.0000 C   0  0  0  0  0  0  0  0  0  0  0  0
    6.3911   -8.2895    0.0000 C   0  0  0  0  0  0  0  0  0  0  0  0
    6.3787   -9.1144    0.0000 C   0  0  0  0  0  0  0  0  0  0  0  0
    7.0869   -9.5376    0.0000 C   0  0  0  0  0  0  0  0  0  0  0  0
    7.8075   -9.1359    0.0000 C   0  0  0  0  0  0  0  0  0  0  0  0
    8.5157   -9.5591    0.0000 C   0  0  0  0  0  0  0  0  0  0  0  0
    9.2363   -9.1574    0.0000 C   0  0  0  0  0  0  0  0  0  0  0  0
    9.2487   -8.3325    0.0000 C   0  0  0  0  0  0  0  0  0  0  0  0
 44  1  1  0  0  0  0
 48  9  1  0  0  0  0
  6  3  1  0  0  0  0
  3  2  1  0  0  0  0
  9  4  2  0  0  0  0
  5  4  1  0  0  0  0
  6  5  2  0  0  0  0
  7  6  1  0  0  0  0
  8  7  2  0  0  0  0
  9  8  1  0  0  0  0
 41 14  1  0  0  0  0
 12 10  1  0  0  0  0
 12 11  1  0  0  0  0
 13 12  2  0  0  0  0
 14 13  1  0  0  0  0
 42 26  1  0  0  0  0
 24 26  1  1  0  0  0
 23 15  1  6  0  0  0
 22 16  1  1  0  0  0
 21 17  1  6  0  0  0
 20 19  1  1  0  0  0
 19 18  1  0  0  0  0
 25 20  1  0  0  0  0
 21 20  1  0  0  0  0
 22 21  1  0  0  0  0
 23 22  1  0  0  0  0
 24 23  1  0  0  0  0
 25 24  1  0  0  0  0
 47 37  1  0  0  0  0
 35 37  1  1  0  0  0
 34 27  1  6  0  0  0
 33 28  1  6  0  0  0
 32 29  1  1  0  0  0
 31 30  1  6  0  0  0
 36 31  1  0  0  0  0
 32 31  1  0  0  0  0
 33 32  1  0  0  0  0
 34 33  1  0  0  0  0
 35 34  1  0  0  0  0
 36 35  1  0  0  0  0
 46 38  2  0  0  0  0
 48 39  1  0  0  0  0
 40 39  1  0  0  0  0
 45 40  2  0  0  0  0
 41 40  1  0  0  0  0
 42 41  2  0  0  0  0
 43 42  1  0  0  0  0
 44 43  2  0  0  0  0
 45 44  1  0  0  0  0
 46 45  1  0  0  0  0
 47 46  1  0  0  0  0
 48 47  2  0  0  0  0
M  END
>  <cdx:fragmentId>
35031

$$$$
