13388.cdx
  Mrv1902 05222410212D          

  7  7  0  0  0  0            999 V2000
    7.4399   -4.0708    0.0000 C   0  0  0  0  0  0  0  0  0  0  0  0
    6.6862   -4.4064    0.0000 C   0  0  0  0  0  0  0  0  0  0  0  0
    6.1342   -3.7933    0.0000 C   0  0  0  0  0  0  0  0  0  0  0  0
    6.5467   -3.0788    0.0000 C   0  0  0  0  0  0  0  0  0  0  0  0
    7.3537   -3.2503    0.0000 S   0  0  0  0  0  0  0  0  0  0  0  0
    8.1544   -4.4833    0.0000 C   0  0  0  0  0  0  0  0  0  0  0  0
    8.8688   -4.0708    0.0000 C   0  0  0  0  0  0  0  0  0  0  0  0
  1  2  2  0  0  0  0
  2  3  1  0  0  0  0
  3  4  2  0  0  0  0
  4  5  1  0  0  0  0
  1  5  1  0  0  0  0
  6  7  1  0  0  0  0
  1  6  1  0  0  0  0
M  END
>  <cdx:groupId>
23

>  <cdx:fragmentId>
5

$$$$
