16133920.cdx
  Mrv1902 05222410202D          

272302  0  0  0  0            999 V2000
    5.4728   -8.7774    0.0000 C   0  0  0  0  0  0  0  0  0  0  0  0
    5.4728   -7.9524    0.0000 C   0  0  0  0  0  0  0  0  0  0  0  0
    4.7583   -7.5399    0.0000 C   0  0  0  0  0  0  0  0  0  0  0  0
    4.7583   -6.7149    0.0000 C   0  0  0  0  0  0  0  0  0  0  0  0
    5.4728   -6.3024    0.0000 C   0  0  0  0  0  0  0  0  0  0  0  0
    6.1872   -6.7149    0.0000 C   0  0  0  0  0  0  0  0  0  0  0  0
    6.1872   -7.5399    0.0000 C   0  0  0  0  0  0  0  0  0  0  0  0
    4.7583   -9.1899    0.0000 O   0  0  0  0  0  0  0  0  0  0  0  0
    6.1872   -9.1899    0.0000 O   0  0  0  0  0  0  0  0  0  0  0  0
    6.9017   -6.3024    0.0000 O   0  0  0  0  0  0  0  0  0  0  0  0
    5.4728   -5.4774    0.0000 O   0  0  0  0  0  0  0  0  0  0  0  0
    4.0438   -6.3024    0.0000 O   0  0  0  0  0  0  0  0  0  0  0  0
    6.1872  -10.0149    0.0000 C   0  0  0  0  0  0  0  0  0  0  0  0
   16.3911  -13.5920    0.0000 C   0  0  1  0  0  0  0  0  0  0  0  0
   16.2010  -14.1414    0.0000 C   0  0  0  0  0  0  0  0  0  0  0  0
   15.8767  -13.8050    0.0000 C   0  0  0  0  0  0  0  0  0  0  0  0
   16.2983  -13.0167    0.0000 C   0  0  0  0  0  0  0  0  0  0  0  0
   15.2977  -13.4065    0.0000 C   0  0  0  0  0  0  0  0  0  0  0  0
   14.6058  -12.9572    0.0000 O   0  0  0  0  0  0  0  0  0  0  0  0
   14.6490  -12.1333    0.0000 C   0  0  0  0  0  0  0  0  0  0  0  0
   15.3840  -11.7587    0.0000 C   0  0  0  0  0  0  0  0  0  0  0  0
   15.0150  -10.8167    0.0000 O   0  0  0  0  0  0  0  0  0  0  0  0
   14.4401  -10.8148    0.0000 C   0  0  0  0  0  0  0  0  0  0  0  0
   14.0656  -10.0798    0.0000 C   0  0  0  0  0  0  0  0  0  0  0  0
   14.6176   -9.4667    0.0000 C   0  0  0  0  0  0  0  0  0  0  0  0
   14.3627   -8.6820    0.0000 C   0  0  0  0  0  0  0  0  0  0  0  0
   13.5557   -8.5105    0.0000 C   0  0  0  0  0  0  0  0  0  0  0  0
   13.0037   -9.1236    0.0000 C   0  0  0  0  0  0  0  0  0  0  0  0
   13.2586   -9.9082    0.0000 C   0  0  0  0  0  0  0  0  0  0  0  0
   12.6175  -10.4274    0.0000 C   0  0  0  0  0  0  0  0  0  0  0  0
   11.9030  -10.0149    0.0000 C   0  0  0  0  0  0  0  0  0  0  0  0
   11.1885  -10.4274    0.0000 C   0  0  0  0  0  0  0  0  0  0  0  0
   10.4741  -10.0149    0.0000 O   0  0  0  0  0  0  0  0  0  0  0  0
   10.4741   -9.1899    0.0000 C   0  0  0  0  0  0  0  0  0  0  0  0
   11.1885   -8.7774    0.0000 C   0  0  0  0  0  0  0  0  0  0  0  0
   11.1885   -7.9524    0.0000 C   0  0  0  0  0  0  0  0  0  0  0  0
   10.4741   -7.5399    0.0000 C   0  0  0  0  0  0  0  0  0  0  0  0
    9.7596   -7.9524    0.0000 C   0  0  0  0  0  0  0  0  0  0  0  0
    9.7596   -8.7774    0.0000 C   0  0  0  0  0  0  0  0  0  0  0  0
    9.0451   -9.1899    0.0000 C   0  0  0  0  0  0  0  0  0  0  0  0
    9.0451  -10.0149    0.0000 O   0  0  0  0  0  0  0  0  0  0  0  0
    8.3307  -10.4274    0.0000 C   0  0  0  0  0  0  0  0  0  0  0  0
    7.6162  -10.0149    0.0000 O   0  0  0  0  0  0  0  0  0  0  0  0
    6.9017  -10.4274    0.0000 C   0  0  0  0  0  0  0  0  0  0  0  0
    6.9017  -11.2524    0.0000 C   0  0  0  0  0  0  0  0  0  0  0  0
    7.6162  -11.6649    0.0000 C   0  0  0  0  0  0  0  0  0  0  0  0
    8.3307  -11.2524    0.0000 C   0  0  0  0  0  0  0  0  0  0  0  0
    9.0451  -11.6649    0.0000 O   0  0  0  0  0  0  0  0  0  0  0  0
    9.0451  -12.4899    0.0000 C   0  0  0  0  0  0  0  0  0  0  0  0
    9.7596  -12.9024    0.0000 C   0  0  0  0  0  0  0  0  0  0  0  0
    9.7596  -13.7274    0.0000 C   0  0  0  0  0  0  0  0  0  0  0  0
   10.4741  -14.1399    0.0000 C   0  0  0  0  0  0  0  0  0  0  0  0
   11.1885  -13.7274    0.0000 C   0  0  0  0  0  0  0  0  0  0  0  0
   11.1885  -12.9024    0.0000 C   0  0  0  0  0  0  0  0  0  0  0  0
   10.4741  -12.4899    0.0000 C   0  0  0  0  0  0  0  0  0  0  0  0
   10.4741  -11.6649    0.0000 O   0  0  0  0  0  0  0  0  0  0  0  0
   11.1885  -11.2524    0.0000 C   0  0  0  0  0  0  0  0  0  0  0  0
   11.9030  -11.6649    0.0000 C   0  0  0  0  0  0  0  0  0  0  0  0
   12.6175  -11.2524    0.0000 C   0  0  0  0  0  0  0  0  0  0  0  0
   13.2687  -11.7635    0.0000 C   0  0  0  0  0  0  0  0  0  0  0  0
   13.0552  -12.5603    0.0000 O   0  0  0  0  0  0  0  0  0  0  0  0
   13.6386  -13.1437    0.0000 C   0  0  0  0  0  0  0  0  0  0  0  0
   14.4354  -12.9302    0.0000 C   0  0  0  0  0  0  0  0  0  0  0  0
   14.3752  -12.4196    0.0000 O   0  0  0  0  0  0  0  0  0  0  0  0
   14.2791  -11.5696    0.0000 C   0  0  0  0  0  0  0  0  0  0  0  0
   15.3040  -10.9376    0.0000 C   0  0  0  0  0  0  0  0  0  0  0  0
   15.8960  -10.3631    0.0000 O   0  0  0  0  0  0  0  0  0  0  0  0
   16.7143  -10.4677    0.0000 C   0  0  0  0  0  0  0  0  0  0  0  0
   17.1427  -11.1727    0.0000 C   0  0  0  0  0  0  0  0  0  0  0  0
   17.9556  -11.0315    0.0000 C   0  0  0  0  0  0  0  0  0  0  0  0
   18.4843  -11.6648    0.0000 C   0  0  0  0  0  0  0  0  0  0  0  0
   18.2002  -12.4393    0.0000 C   0  0  0  0  0  0  0  0  0  0  0  0
   17.3874  -12.5806    0.0000 C   0  0  0  0  0  0  0  0  0  0  0  0
   16.8586  -11.9473    0.0000 C   0  0  0  0  0  0  0  0  0  0  0  0
   16.0760  -12.2081    0.0000 C   0  0  1  0  0  0  0  0  0  0  0  0
   15.7300  -12.9067    0.0000 C   0  0  0  0  0  0  0  0  0  0  0  0
   17.1888  -13.3813    0.0000 O   0  0  0  0  0  0  0  0  0  0  0  0
   13.3503  -11.0334    0.0000 O   0  0  0  0  0  0  0  0  0  0  0  0
   12.4215  -11.5696    0.0000 C   0  0  0  0  0  0  0  0  0  0  0  0
   12.4215  -13.1371    0.0000 C   0  0  0  0  0  0  0  0  0  0  0  0
   13.2340  -13.2804    0.0000 C   0  0  0  0  0  0  0  0  0  0  0  0
   13.5162  -14.0556    0.0000 C   0  0  0  0  0  0  0  0  0  0  0  0
   12.9859  -14.6876    0.0000 C   0  0  0  0  0  0  0  0  0  0  0  0
   12.1734  -14.5444    0.0000 C   0  0  0  0  0  0  0  0  0  0  0  0
   11.8912  -13.7691    0.0000 C   0  0  0  0  0  0  0  0  0  0  0  0
   11.7070  -11.1571    0.0000 O   0  0  0  0  0  0  0  0  0  0  0  0
   11.6431  -15.1764    0.0000 O   0  0  0  0  0  0  0  0  0  0  0  0
   13.2680  -15.4629    0.0000 O   0  0  0  0  0  0  0  0  0  0  0  0
   14.3286  -14.1989    0.0000 O   0  0  0  0  0  0  0  0  0  0  0  0
    7.6162  -12.4899    0.0000 O   0  0  0  0  0  0  0  0  0  0  0  0
    6.9017  -12.9024    0.0000 C   0  0  0  0  0  0  0  0  0  0  0  0
    6.9017  -13.7274    0.0000 C   0  0  0  0  0  0  0  0  0  0  0  0
    7.6162  -14.1399    0.0000 C   0  0  0  0  0  0  0  0  0  0  0  0
    7.6162  -14.9649    0.0000 C   0  0  0  0  0  0  0  0  0  0  0  0
    6.9017  -15.3774    0.0000 C   0  0  0  0  0  0  0  0  0  0  0  0
    6.1872  -14.9649    0.0000 C   0  0  0  0  0  0  0  0  0  0  0  0
    6.1872  -14.1399    0.0000 C   0  0  0  0  0  0  0  0  0  0  0  0
    6.1872  -12.4899    0.0000 O   0  0  0  0  0  0  0  0  0  0  0  0
    5.4728  -15.3774    0.0000 O   0  0  0  0  0  0  0  0  0  0  0  0
    6.9017  -16.2024    0.0000 O   0  0  0  0  0  0  0  0  0  0  0  0
    8.3307  -15.3774    0.0000 O   0  0  0  0  0  0  0  0  0  0  0  0
    6.1872  -11.6649    0.0000 O   0  0  0  0  0  0  0  0  0  0  0  0
    5.4728  -11.2524    0.0000 C   0  0  0  0  0  0  0  0  0  0  0  0
    4.7583  -11.6649    0.0000 C   0  0  0  0  0  0  0  0  0  0  0  0
    4.7583  -12.4899    0.0000 C   0  0  0  0  0  0  0  0  0  0  0  0
    4.0438  -12.9024    0.0000 C   0  0  0  0  0  0  0  0  0  0  0  0
    3.3294  -12.4899    0.0000 C   0  0  0  0  0  0  0  0  0  0  0  0
    3.3294  -11.6649    0.0000 C   0  0  0  0  0  0  0  0  0  0  0  0
    4.0438  -11.2524    0.0000 C   0  0  0  0  0  0  0  0  0  0  0  0
    5.4728  -10.4274    0.0000 O   0  0  0  0  0  0  0  0  0  0  0  0
    2.6149  -11.2524    0.0000 O   0  0  0  0  0  0  0  0  0  0  0  0
    2.6149  -12.9024    0.0000 O   0  0  0  0  0  0  0  0  0  0  0  0
    4.0438  -13.7274    0.0000 O   0  0  0  0  0  0  0  0  0  0  0  0
   17.1268   -9.7532    0.0000 O   0  0  0  0  0  0  0  0  0  0  0  0
   12.5433  -12.1563    0.0000 O   0  0  0  0  0  0  0  0  0  0  0  0
    8.3307  -12.9024    0.0000 O   0  0  0  0  0  0  0  0  0  0  0  0
    8.3307   -8.7774    0.0000 O   0  0  0  0  0  0  0  0  0  0  0  0
   14.9251  -10.1474    0.0000 O   0  0  0  0  0  0  0  0  0  0  0  0
   14.8852  -14.1210    0.0000 O   0  0  0  0  0  0  0  0  0  0  0  0
   16.5068  -14.9076    0.0000 O   0  0  0  0  0  0  0  0  0  0  0  0
   15.1466  -12.3233    0.0000 O   0  0  0  0  0  0  0  0  0  0  0  0
   15.5165  -13.7036    0.0000 O   0  0  0  0  0  0  0  0  0  0  0  0
   18.7289  -13.0727    0.0000 O   0  0  0  0  0  0  0  0  0  0  0  0
   19.2971  -11.5236    0.0000 O   0  0  0  0  0  0  0  0  0  0  0  0
   11.9030  -12.4899    0.0000 O   0  0  0  0  0  0  0  0  0  0  0  0
   11.8205  -14.2577    0.0000 O   0  0  0  0  0  0  0  0  0  0  0  0
   10.4741  -14.9649    0.0000 O   0  0  0  0  0  0  0  0  0  0  0  0
   10.4741   -6.7149    0.0000 O   0  0  0  0  0  0  0  0  0  0  0  0
   11.9030   -7.5399    0.0000 O   0  0  0  0  0  0  0  0  0  0  0  0
   11.9638   -8.4953    0.0000 O   0  0  0  0  0  0  0  0  0  0  0  0
   12.0463   -9.2025    0.0000 O   0  0  0  0  0  0  0  0  0  0  0  0
   12.3906   -8.5716    0.0000 O   0  0  0  0  0  0  0  0  0  0  0  0
   13.3008   -7.7259    0.0000 O   0  0  0  0  0  0  0  0  0  0  0  0
   14.9147   -8.0690    0.0000 O   0  0  0  0  0  0  0  0  0  0  0  0
   16.9522  -14.1968    0.0000 O   0  0  0  0  0  0  0  0  0  0  0  0
   15.7234  -11.4622    0.0000 H   0  0  0  0  0  0  0  0  0  0  0  0
   22.2941  -11.8629    0.0000 C   0  0  0  0  0  0  0  0  0  0  0  0
   22.2941  -12.6879    0.0000 C   0  0  0  0  0  0  0  0  0  0  0  0
   23.0085  -13.1004    0.0000 C   0  0  0  0  0  0  0  0  0  0  0  0
   23.0085  -13.9254    0.0000 C   0  0  0  0  0  0  0  0  0  0  0  0
   22.2941  -14.3379    0.0000 C   0  0  0  0  0  0  0  0  0  0  0  0
   21.5796  -13.9254    0.0000 C   0  0  0  0  0  0  0  0  0  0  0  0
   21.5796  -13.1004    0.0000 C   0  0  0  0  0  0  0  0  0  0  0  0
   21.5796  -11.4504    0.0000 O   0  0  0  0  0  0  0  0  0  0  0  0
   23.0085  -11.4504    0.0000 O   0  0  0  0  0  0  0  0  0  0  0  0
   20.8651  -14.3379    0.0000 O   0  0  0  0  0  0  0  0  0  0  0  0
   22.2941  -15.1629    0.0000 O   0  0  0  0  0  0  0  0  0  0  0  0
   23.7230  -14.3379    0.0000 O   0  0  0  0  0  0  0  0  0  0  0  0
   23.0085  -10.6254    0.0000 C   0  0  0  0  0  0  0  0  0  0  0  0
   33.9232   -6.6578    0.0000 C   0  0  1  0  0  0  0  0  0  0  0  0
   33.3731   -6.0429    0.0000 C   0  0  0  0  0  0  0  0  0  0  0  0
   32.5656   -6.2118    0.0000 C   0  0  0  0  0  0  0  0  0  0  0  0
   32.3081   -6.9956    0.0000 C   0  0  0  0  0  0  0  0  0  0  0  0
   32.8582   -7.6105    0.0000 C   0  0  0  0  0  0  0  0  0  0  0  0
   32.1243   -7.2336    0.0000 C   0  0  0  0  0  0  0  0  0  0  0  0
   31.4309   -7.6807    0.0000 O   0  0  0  0  0  0  0  0  0  0  0  0
   31.4715   -8.5047    0.0000 C   0  0  0  0  0  0  0  0  0  0  0  0
   32.2053   -8.8816    0.0000 C   0  0  0  0  0  0  0  0  0  0  0  0
   32.0763   -9.6965    0.0000 O   0  0  0  0  0  0  0  0  0  0  0  0
   31.2614   -9.8255    0.0000 C   0  0  0  0  0  0  0  0  0  0  0  0
   30.8869  -10.5606    0.0000 C   0  0  0  0  0  0  0  0  0  0  0  0
   31.4389  -11.1737    0.0000 C   0  0  0  0  0  0  0  0  0  0  0  0
   31.1840  -11.9583    0.0000 C   0  0  0  0  0  0  0  0  0  0  0  0
   30.3770  -12.1298    0.0000 C   0  0  0  0  0  0  0  0  0  0  0  0
   29.8250  -11.5167    0.0000 C   0  0  0  0  0  0  0  0  0  0  0  0
   30.0799  -10.7321    0.0000 C   0  0  0  0  0  0  0  0  0  0  0  0
   29.4388  -10.2129    0.0000 C   0  0  0  0  0  0  0  0  0  0  0  0
   28.7243  -10.6254    0.0000 C   0  0  0  0  0  0  0  0  0  0  0  0
   28.0098  -10.2129    0.0000 C   0  0  0  0  0  0  0  0  0  0  0  0
   27.2954  -10.6254    0.0000 O   0  0  0  0  0  0  0  0  0  0  0  0
   27.2954  -11.4504    0.0000 C   0  0  0  0  0  0  0  0  0  0  0  0
   28.0098  -11.8629    0.0000 C   0  0  0  0  0  0  0  0  0  0  0  0
   28.0098  -12.6879    0.0000 C   0  0  0  0  0  0  0  0  0  0  0  0
   27.2954  -13.1004    0.0000 C   0  0  0  0  0  0  0  0  0  0  0  0
   26.5809  -12.6879    0.0000 C   0  0  0  0  0  0  0  0  0  0  0  0
   26.5809  -11.8629    0.0000 C   0  0  0  0  0  0  0  0  0  0  0  0
   25.8664  -11.4504    0.0000 C   0  0  0  0  0  0  0  0  0  0  0  0
   25.8664  -10.6254    0.0000 O   0  0  0  0  0  0  0  0  0  0  0  0
   25.1520  -10.2129    0.0000 C   0  0  0  0  0  0  0  0  0  0  0  0
   24.4375  -10.6254    0.0000 O   0  0  0  0  0  0  0  0  0  0  0  0
   23.7230  -10.2129    0.0000 C   0  0  0  0  0  0  0  0  0  0  0  0
   23.7230   -9.3879    0.0000 C   0  0  0  0  0  0  0  0  0  0  0  0
   24.4375   -8.9754    0.0000 C   0  0  0  0  0  0  0  0  0  0  0  0
   25.1520   -9.3879    0.0000 C   0  0  0  0  0  0  0  0  0  0  0  0
   25.8664   -8.9754    0.0000 O   0  0  0  0  0  0  0  0  0  0  0  0
   25.8664   -8.1504    0.0000 C   0  0  0  0  0  0  0  0  0  0  0  0
   26.5809   -7.7379    0.0000 C   0  0  0  0  0  0  0  0  0  0  0  0
   26.5809   -6.9129    0.0000 C   0  0  0  0  0  0  0  0  0  0  0  0
   27.2954   -6.5004    0.0000 C   0  0  0  0  0  0  0  0  0  0  0  0
   28.0098   -6.9129    0.0000 C   0  0  0  0  0  0  0  0  0  0  0  0
   28.0098   -7.7379    0.0000 C   0  0  0  0  0  0  0  0  0  0  0  0
   27.2954   -8.1504    0.0000 C   0  0  0  0  0  0  0  0  0  0  0  0
   27.2954   -8.9754    0.0000 O   0  0  0  0  0  0  0  0  0  0  0  0
   28.0098   -9.3879    0.0000 C   0  0  0  0  0  0  0  0  0  0  0  0
   28.7243   -8.9754    0.0000 C   0  0  0  0  0  0  0  0  0  0  0  0
   29.4388   -9.3879    0.0000 C   0  0  0  0  0  0  0  0  0  0  0  0
   30.0799   -8.8687    0.0000 C   0  0  0  0  0  0  0  0  0  0  0  0
   29.8664   -8.0718    0.0000 O   0  0  0  0  0  0  0  0  0  0  0  0
   30.4498   -7.4885    0.0000 C   0  0  0  0  0  0  0  0  0  0  0  0
   31.2467   -7.7020    0.0000 C   0  0  0  0  0  0  0  0  0  0  0  0
   31.0269   -8.5655    0.0000 O   0  0  0  0  0  0  0  0  0  0  0  0
   31.4246   -9.3628    0.0000 C   0  0  0  0  0  0  0  0  0  0  0  0
   32.2459   -9.7056    0.0000 C   0  0  0  0  0  0  0  0  0  0  0  0
   32.9729  -10.0719    0.0000 O   0  0  0  0  0  0  0  0  0  0  0  0
   33.6662   -9.6248    0.0000 C   0  0  0  0  0  0  0  0  0  0  0  0
   33.6257   -8.8008    0.0000 C   0  0  0  0  0  0  0  0  0  0  0  0
   33.9588   -9.5556    0.0000 C   0  0  0  0  0  0  0  0  0  0  0  0
   34.7790   -9.6444    0.0000 C   0  0  0  0  0  0  0  0  0  0  0  0
   35.2661   -8.9786    0.0000 C   0  0  0  0  0  0  0  0  0  0  0  0
   34.9330   -8.2238    0.0000 C   0  0  0  0  0  0  0  0  0  0  0  0
   34.1128   -8.1349    0.0000 C   0  0  0  0  0  0  0  0  0  0  0  0
   33.6657   -7.4416    0.0000 C   0  0  1  0  0  0  0  0  0  0  0  0
   34.7050   -7.2604    0.0000 O   0  0  0  0  0  0  0  0  0  0  0  0
   30.8611   -9.9655    0.0000 O   0  0  0  0  0  0  0  0  0  0  0  0
   31.3317  -10.6517    0.0000 C   0  0  0  0  0  0  0  0  0  0  0  0
   31.8982  -10.9683    0.0000 C   0  0  0  0  0  0  0  0  0  0  0  0
   32.5740  -10.4951    0.0000 C   0  0  0  0  0  0  0  0  0  0  0  0
   33.3217  -10.8437    0.0000 C   0  0  0  0  0  0  0  0  0  0  0  0
   33.3936  -11.6656    0.0000 C   0  0  0  0  0  0  0  0  0  0  0  0
   32.7178  -12.1388    0.0000 C   0  0  0  0  0  0  0  0  0  0  0  0
   31.9701  -11.7901    0.0000 C   0  0  0  0  0  0  0  0  0  0  0  0
   30.7483  -11.2350    0.0000 O   0  0  0  0  0  0  0  0  0  0  0  0
   32.7897  -12.9606    0.0000 O   0  0  0  0  0  0  0  0  0  0  0  0
   34.1413  -12.0142    0.0000 O   0  0  0  0  0  0  0  0  0  0  0  0
   33.9975  -10.3705    0.0000 O   0  0  0  0  0  0  0  0  0  0  0  0
   24.4375   -8.1504    0.0000 O   0  0  0  0  0  0  0  0  0  0  0  0
   23.7230   -7.7379    0.0000 C   0  0  0  0  0  0  0  0  0  0  0  0
   23.7230   -6.9129    0.0000 C   0  0  0  0  0  0  0  0  0  0  0  0
   23.0085   -6.5004    0.0000 C   0  0  0  0  0  0  0  0  0  0  0  0
   23.0085   -5.6754    0.0000 C   0  0  0  0  0  0  0  0  0  0  0  0
   23.7230   -5.2629    0.0000 C   0  0  0  0  0  0  0  0  0  0  0  0
   24.4375   -5.6754    0.0000 C   0  0  0  0  0  0  0  0  0  0  0  0
   24.4375   -6.5004    0.0000 C   0  0  0  0  0  0  0  0  0  0  0  0
   23.0085   -8.1504    0.0000 O   0  0  0  0  0  0  0  0  0  0  0  0
   25.1520   -5.2629    0.0000 O   0  0  0  0  0  0  0  0  0  0  0  0
   23.7230   -4.4379    0.0000 O   0  0  0  0  0  0  0  0  0  0  0  0
   22.2941   -5.2629    0.0000 O   0  0  0  0  0  0  0  0  0  0  0  0
   23.0085   -8.9754    0.0000 O   0  0  0  0  0  0  0  0  0  0  0  0
   22.2941   -9.3879    0.0000 C   0  0  0  0  0  0  0  0  0  0  0  0
   21.5796   -8.9754    0.0000 C   0  0  0  0  0  0  0  0  0  0  0  0
   20.8651   -9.3879    0.0000 C   0  0  0  0  0  0  0  0  0  0  0  0
   20.1507   -8.9754    0.0000 C   0  0  0  0  0  0  0  0  0  0  0  0
   20.1507   -8.1504    0.0000 C   0  0  0  0  0  0  0  0  0  0  0  0
   20.8651   -7.7379    0.0000 C   0  0  0  0  0  0  0  0  0  0  0  0
   21.5796   -8.1504    0.0000 C   0  0  0  0  0  0  0  0  0  0  0  0
   22.2941  -10.2129    0.0000 O   0  0  0  0  0  0  0  0  0  0  0  0
   20.8651   -6.9129    0.0000 O   0  0  0  0  0  0  0  0  0  0  0  0
   19.4362   -7.7379    0.0000 O   0  0  0  0  0  0  0  0  0  0  0  0
   19.4362   -9.3879    0.0000 O   0  0  0  0  0  0  0  0  0  0  0  0
   34.3807  -10.0373    0.0000 O   0  0  0  0  0  0  0  0  0  0  0  0
   29.2953   -8.6138    0.0000 O   0  0  0  0  0  0  0  0  0  0  0  0
   25.1520   -7.7379    0.0000 O   0  0  0  0  0  0  0  0  0  0  0  0
   25.1520  -11.8629    0.0000 O   0  0  0  0  0  0  0  0  0  0  0  0
   31.7464  -10.4929    0.0000 O   0  0  0  0  0  0  0  0  0  0  0  0
   31.5940   -6.6016    0.0000 O   0  0  0  0  0  0  0  0  0  0  0  0
   32.0155   -5.5970    0.0000 O   0  0  0  0  0  0  0  0  0  0  0  0
   36.0863   -9.0674    0.0000 O   0  0  0  0  0  0  0  0  0  0  0  0
   35.1122  -10.3992    0.0000 O   0  0  0  0  0  0  0  0  0  0  0  0
   28.7243   -8.1504    0.0000 O   0  0  0  0  0  0  0  0  0  0  0  0
   28.7243   -6.5004    0.0000 O   0  0  0  0  0  0  0  0  0  0  0  0
   27.2954   -5.6754    0.0000 O   0  0  0  0  0  0  0  0  0  0  0  0
   27.2954  -13.9254    0.0000 O   0  0  0  0  0  0  0  0  0  0  0  0
   28.7243  -13.1004    0.0000 O   0  0  0  0  0  0  0  0  0  0  0  0
   28.7851  -12.1451    0.0000 O   0  0  0  0  0  0  0  0  0  0  0  0
   28.8676  -11.4379    0.0000 O   0  0  0  0  0  0  0  0  0  0  0  0
   29.2119  -12.0688    0.0000 O   0  0  0  0  0  0  0  0  0  0  0  0
   30.1221  -12.9145    0.0000 O   0  0  0  0  0  0  0  0  0  0  0  0
   31.7360  -12.5714    0.0000 O   0  0  0  0  0  0  0  0  0  0  0  0
   33.9880   -5.4929    0.0000 O   0  0  0  0  0  0  0  0  0  0  0  0
   33.2042   -5.2354    0.0000 O   0  0  0  0  0  0  0  0  0  0  0  0
   34.4848   -6.0535    0.0000 O   0  0  0  0  0  0  0  0  0  0  0  0
   34.2844   -7.4416    0.0000 H   0  0  0  0  0  0  0  0  0  0  0  0
  1  2  1  0  0  0  0
  2  3  1  0  0  0  0
  3  4  2  0  0  0  0
  4  5  1  0  0  0  0
  5  6  2  0  0  0  0
  6  7  1  0  0  0  0
  2  7  2  0  0  0  0
  1  8  2  0  0  0  0
  1  9  1  0  0  0  0
  6 10  1  0  0  0  0
  5 11  1  0  0  0  0
  4 12  1  0  0  0  0
 14 15  1  0  0  0  0
 15 16  1  0  0  0  0
 16 17  2  0  0  0  0
 17 18  1  0  0  0  0
 18 19  1  0  0  0  0
 19 20  1  0  0  0  0
 20 21  1  0  0  0  0
 21 22  1  0  0  0  0
 22 23  1  0  0  0  0
 23 24  1  0  0  0  0
 24 25  2  0  0  0  0
 25 26  1  0  0  0  0
 26 27  2  0  0  0  0
 27 28  1  0  0  0  0
 28 29  2  0  0  0  0
 29 30  1  0  0  0  0
 30 31  2  0  0  0  0
 31 32  1  0  0  0  0
 32 33  1  0  0  0  0
 33 34  1  0  0  0  0
 34 35  2  0  0  0  0
 35 36  1  0  0  0  0
 36 37  2  0  0  0  0
 37 38  1  0  0  0  0
 38 39  2  0  0  0  0
 39 40  1  0  0  0  0
 40 41  1  0  0  0  0
 41 42  1  0  0  0  0
 42 43  1  0  0  0  0
 43 44  1  0  0  0  0
 44 45  1  0  0  0  0
 45 46  1  0  0  0  0
 46 47  1  0  0  0  0
 47 48  1  0  0  0  0
 48 49  1  0  0  0  0
 49 50  1  0  0  0  0
 50 51  2  0  0  0  0
 51 52  1  0  0  0  0
 52 53  2  0  0  0  0
 53 54  1  0  0  0  0
 54 55  2  0  0  0  0
 55 56  1  0  0  0  0
 56 57  1  0  0  0  0
 57 58  1  0  0  0  0
 58 59  2  0  0  0  0
 59 60  1  0  0  0  0
 60 61  1  0  0  0  0
 61 62  1  0  0  0  0
 62 63  1  0  0  0  0
 63 64  1  0  0  0  0
 64 65  1  0  0  0  0
 65 66  1  0  0  0  0
 66 67  1  0  0  0  0
 67 68  1  0  0  0  0
 68 69  1  0  0  0  0
 69 70  2  0  0  0  0
 70 71  1  0  0  0  0
 71 72  2  0  0  0  0
 72 73  1  0  0  0  0
 73 74  2  0  0  0  0
 74 75  1  0  0  0  0
 75 76  1  6  0  0  0
 14 76  1  0  0  0  0
 14 77  1  0  0  0  0
 77 73  1  0  0  0  0
 17 75  1  0  0  0  0
 69 74  1  0  0  0  0
 21 66  1  0  0  0  0
 20 63  1  0  0  0  0
 30 59  1  0  0  0  0
 32 57  2  0  0  0  0
 50 55  1  0  0  0  0
 42 47  1  0  0  0  0
 34 39  1  0  0  0  0
 24 29  1  0  0  0  0
 79 80  1  0  0  0  0
 80 81  1  0  0  0  0
 81 82  2  0  0  0  0
 82 83  1  0  0  0  0
 83 84  2  0  0  0  0
 84 85  1  0  0  0  0
 80 85  2  0  0  0  0
 79 86  2  0  0  0  0
 84 87  1  0  0  0  0
 83 88  1  0  0  0  0
 82 89  1  0  0  0  0
 78 79  1  0  0  0  0
 65 78  1  0  0  0  0
 91 92  1  0  0  0  0
 92 93  1  0  0  0  0
 93 94  2  0  0  0  0
 94 95  1  0  0  0  0
 95 96  2  0  0  0  0
 96 97  1  0  0  0  0
 92 97  2  0  0  0  0
 91 98  2  0  0  0  0
 96 99  1  0  0  0  0
 95100  1  0  0  0  0
 94101  1  0  0  0  0
 90 91  1  0  0  0  0
 46 90  1  0  0  0  0
103104  1  0  0  0  0
104105  1  0  0  0  0
105106  2  0  0  0  0
106107  1  0  0  0  0
107108  2  0  0  0  0
108109  1  0  0  0  0
104109  2  0  0  0  0
103110  2  0  0  0  0
108111  1  0  0  0  0
107112  1  0  0  0  0
106113  1  0  0  0  0
102103  1  0  0  0  0
 45102  1  0  0  0  0
 68114  2  0  0  0  0
 60115  2  0  0  0  0
 49116  2  0  0  0  0
 40117  2  0  0  0  0
 23118  2  0  0  0  0
 18119  2  0  0  0  0
 15120  2  0  0  0  0
 76121  1  0  0  0  0
 76122  1  0  0  0  0
 72123  1  0  0  0  0
 71124  1  0  0  0  0
 54125  1  0  0  0  0
 53126  1  0  0  0  0
 52127  1  0  0  0  0
 37128  1  0  0  0  0
 36129  1  0  0  0  0
 35130  1  0  0  0  0
 31131  1  0  0  0  0
 28132  1  0  0  0  0
 27133  1  0  0  0  0
 26134  1  0  0  0  0
 14135  1  6  0  0  0
 13 44  1  0  0  0  0
  9 13  1  0  0  0  0
 75136  1  0  0  0  0
137138  1  0  0  0  0
138139  1  0  0  0  0
139140  2  0  0  0  0
140141  1  0  0  0  0
141142  2  0  0  0  0
142143  1  0  0  0  0
138143  2  0  0  0  0
137144  2  0  0  0  0
137145  1  0  0  0  0
142146  1  0  0  0  0
141147  1  0  0  0  0
140148  1  0  0  0  0
150151  1  0  0  0  0
151152  1  0  0  0  0
152153  1  0  0  0  0
153154  2  0  0  0  0
154155  1  0  0  0  0
155156  1  0  0  0  0
156157  1  0  0  0  0
157158  1  0  0  0  0
158159  1  0  0  0  0
159160  1  0  0  0  0
160161  1  0  0  0  0
161162  2  0  0  0  0
162163  1  0  0  0  0
163164  2  0  0  0  0
164165  1  0  0  0  0
165166  2  0  0  0  0
166167  1  0  0  0  0
167168  2  0  0  0  0
168169  1  0  0  0  0
169170  1  0  0  0  0
170171  1  0  0  0  0
171172  2  0  0  0  0
172173  1  0  0  0  0
173174  2  0  0  0  0
174175  1  0  0  0  0
175176  2  0  0  0  0
176177  1  0  0  0  0
177178  1  0  0  0  0
178179  1  0  0  0  0
179180  1  0  0  0  0
180181  1  0  0  0  0
181182  1  0  0  0  0
182183  1  0  0  0  0
183184  1  0  0  0  0
184185  1  0  0  0  0
185186  1  0  0  0  0
186187  1  0  0  0  0
187188  2  0  0  0  0
188189  1  0  0  0  0
189190  2  0  0  0  0
190191  1  0  0  0  0
191192  2  0  0  0  0
192193  1  0  0  0  0
193194  1  0  0  0  0
194195  1  0  0  0  0
195196  2  0  0  0  0
196197  1  0  0  0  0
197198  1  0  0  0  0
198199  1  0  0  0  0
199200  1  0  0  0  0
200201  1  0  0  0  0
201202  1  0  0  0  0
202203  1  0  0  0  0
203204  1  0  0  0  0
204205  1  0  0  0  0
205206  1  0  0  0  0
206207  2  0  0  0  0
207208  1  0  0  0  0
208209  2  0  0  0  0
209210  1  0  0  0  0
210211  2  0  0  0  0
211212  1  0  0  0  0
150212  1  0  0  0  0
150213  1  0  0  0  0
213210  1  0  0  0  0
154212  1  0  0  0  0
206211  1  0  0  0  0
158203  1  0  0  0  0
157200  1  0  0  0  0
167196  1  0  0  0  0
169194  2  0  0  0  0
187192  1  0  0  0  0
179184  1  0  0  0  0
171176  1  0  0  0  0
161166  1  0  0  0  0
215216  1  0  0  0  0
216217  1  0  0  0  0
217218  2  0  0  0  0
218219  1  0  0  0  0
219220  2  0  0  0  0
220221  1  0  0  0  0
216221  2  0  0  0  0
215222  2  0  0  0  0
220223  1  0  0  0  0
219224  1  0  0  0  0
218225  1  0  0  0  0
214215  1  0  0  0  0
202214  1  0  0  0  0
227228  1  0  0  0  0
228229  1  0  0  0  0
229230  2  0  0  0  0
230231  1  0  0  0  0
231232  2  0  0  0  0
232233  1  0  0  0  0
228233  2  0  0  0  0
227234  2  0  0  0  0
232235  1  0  0  0  0
231236  1  0  0  0  0
230237  1  0  0  0  0
226227  1  0  0  0  0
183226  1  0  0  0  0
239240  1  0  0  0  0
240241  1  0  0  0  0
241242  2  0  0  0  0
242243  1  0  0  0  0
243244  2  0  0  0  0
244245  1  0  0  0  0
240245  2  0  0  0  0
239246  2  0  0  0  0
244247  1  0  0  0  0
243248  1  0  0  0  0
242249  1  0  0  0  0
238239  1  0  0  0  0
182238  1  0  0  0  0
205250  2  0  0  0  0
197251  2  0  0  0  0
186252  2  0  0  0  0
177253  2  0  0  0  0
160254  2  0  0  0  0
155255  2  0  0  0  0
152256  2  0  0  0  0
209257  1  0  0  0  0
208258  1  0  0  0  0
191259  1  0  0  0  0
190260  1  0  0  0  0
189261  1  0  0  0  0
174262  1  0  0  0  0
173263  1  0  0  0  0
172264  1  0  0  0  0
168265  1  0  0  0  0
165266  1  0  0  0  0
164267  1  0  0  0  0
163268  1  0  0  0  0
151269  1  0  0  0  0
151270  1  0  0  0  0
150271  1  1  0  0  0
149181  1  0  0  0  0
145149  1  0  0  0  0
212272  1  1  0  0  0
M  END
>  <cdx:fragmentId>
52591

$$$$
