13403.cdx
  Mrv1902 05222410222D          

 10 10  0  0  0  0            999 V2000
    3.6060   -2.9700    0.0000 C   0  0  0  0  0  0  0  0  0  0  0  0
    4.3205   -2.5575    0.0000 C   0  0  0  0  0  0  0  0  0  0  0  0
    5.0350   -2.9700    0.0000 C   0  0  0  0  0  0  0  0  0  0  0  0
    5.0350   -3.7950    0.0000 C   0  0  0  0  0  0  0  0  0  0  0  0
    4.3205   -4.2075    0.0000 C   0  0  0  0  0  0  0  0  0  0  0  0
    3.6060   -3.7950    0.0000 C   0  0  0  0  0  0  0  0  0  0  0  0
    5.7495   -2.5575    0.0000 C   0  0  0  0  0  0  0  0  0  0  0  0
    2.8916   -2.5575    0.0000 C   0  0  0  0  0  0  0  0  0  0  0  0
    5.7495   -4.2075    0.0000 C   0  0  0  0  0  0  0  0  0  0  0  0
    6.4639   -3.7950    0.0000 C   0  0  0  0  0  0  0  0  0  0  0  0
  1  2  1  0  0  0  0
  2  3  2  0  0  0  0
  3  4  1  0  0  0  0
  4  5  2  0  0  0  0
  5  6  1  0  0  0  0
  1  6  2  0  0  0  0
  3  7  1  0  0  0  0
  1  8  1  0  0  0  0
  9 10  1  0  0  0  0
  4  9  1  0  0  0  0
M  END
>  <cdx:groupId>
32

>  <cdx:fragmentId>
5

$$$$
