13401.cdx
  Mrv1902 05222410222D          

 10 10  0  0  0  0            999 V2000
    5.0061   -3.6171    0.0000 C   0  0  0  0  0  0  0  0  0  0  0  0
    5.0061   -4.4421    0.0000 C   0  0  0  0  0  0  0  0  0  0  0  0
    4.2916   -4.8546    0.0000 C   0  0  0  0  0  0  0  0  0  0  0  0
    3.5771   -4.4421    0.0000 C   0  0  0  0  0  0  0  0  0  0  0  0
    3.5771   -3.6171    0.0000 C   0  0  0  0  0  0  0  0  0  0  0  0
    4.2916   -3.2046    0.0000 N   0  0  0  0  0  0  0  0  0  0  0  0
    5.7205   -3.2046    0.0000 C   0  0  0  0  0  0  0  0  0  0  0  0
    5.7205   -2.3796    0.0000 O   0  0  0  0  0  0  0  0  0  0  0  0
    6.4350   -3.6171    0.0000 O   0  0  0  0  0  0  0  0  0  0  0  0
    5.7205   -4.8546    0.0000 O   0  0  0  0  0  0  0  0  0  0  0  0
  1  2  1  0  0  0  0
  2  3  2  0  0  0  0
  3  4  1  0  0  0  0
  4  5  2  0  0  0  0
  5  6  1  0  0  0  0
  1  6  2  0  0  0  0
  7  8  2  0  0  0  0
  7  9  1  0  0  0  0
  1  7  1  0  0  0  0
  2 10  1  0  0  0  0
M  END
>  <cdx:groupId>
32

>  <cdx:fragmentId>
5

$$$$
