13414.cdx
  Mrv1902 05222410232D          

 12 13  0  0  0  0            999 V2000
    7.9360   -3.5869    0.0000 N   0  0  0  0  0  0  0  0  0  0  0  0
    8.6504   -3.9994    0.0000 C   0  0  0  0  0  0  0  0  0  0  0  0
    8.6504   -4.8244    0.0000 C   0  0  0  0  0  0  0  0  0  0  0  0
    7.9360   -5.2369    0.0000 C   0  0  0  0  0  0  0  0  0  0  0  0
    7.2215   -4.8244    0.0000 C   0  0  0  0  0  0  0  0  0  0  0  0
    6.5070   -5.2369    0.0000 C   0  0  0  0  0  0  0  0  0  0  0  0
    5.7926   -4.8244    0.0000 C   0  0  0  0  0  0  0  0  0  0  0  0
    5.7926   -3.9994    0.0000 C   0  0  0  0  0  0  0  0  0  0  0  0
    6.5070   -3.5869    0.0000 C   0  0  0  0  0  0  0  0  0  0  0  0
    7.2215   -3.9994    0.0000 C   0  0  0  0  0  0  0  0  0  0  0  0
    5.0781   -5.2369    0.0000 C   0  0  0  0  0  0  0  0  0  0  0  0
    9.3649   -3.5869    0.0000 C   0  0  0  0  0  0  0  0  0  0  0  0
  1  2  2  0  0  0  0
  2  3  1  0  0  0  0
  3  4  2  0  0  0  0
  4  5  1  0  0  0  0
  5  6  2  0  0  0  0
  6  7  1  0  0  0  0
  7  8  2  0  0  0  0
  8  9  1  0  0  0  0
  9 10  2  0  0  0  0
  1 10  1  0  0  0  0
  5 10  1  0  0  0  0
  7 11  1  0  0  0  0
  2 12  1  0  0  0  0
M  END
>  <cdx:fragmentId>
5

$$$$
