13422.cdx
  Mrv1902 05222410252D          

 31 30  0  0  0  0            999 V2000
    4.2900   -7.8925    0.0000 C   0  0  0  0  0  0  0  0  0  0  0  0
    5.0045   -7.4800    0.0000 C   0  0  0  0  0  0  0  0  0  0  0  0
    5.7189   -7.8925    0.0000 C   0  0  0  0  0  0  0  0  0  0  0  0
    6.4334   -7.4800    0.0000 C   0  0  0  0  0  0  0  0  0  0  0  0
    7.1479   -7.8925    0.0000 C   0  0  0  0  0  0  0  0  0  0  0  0
    7.8624   -7.4800    0.0000 C   0  0  0  0  0  0  0  0  0  0  0  0
    8.5768   -7.8925    0.0000 C   0  0  0  0  0  0  0  0  0  0  0  0
    9.2913   -7.4800    0.0000 C   0  0  0  0  0  0  0  0  0  0  0  0
   10.0058   -7.8925    0.0000 C   0  0  0  0  0  0  0  0  0  0  0  0
   10.7202   -7.4800    0.0000 C   0  0  0  0  0  0  0  0  0  0  0  0
   11.4347   -7.8925    0.0000 C   0  0  0  0  0  0  0  0  0  0  0  0
   12.1492   -7.4800    0.0000 C   0  0  0  0  0  0  0  0  0  0  0  0
   12.8637   -7.8925    0.0000 C   0  0  0  0  0  0  0  0  0  0  0  0
   13.5781   -7.4800    0.0000 C   0  0  0  0  0  0  0  0  0  0  0  0
   14.2926   -7.8925    0.0000 C   0  0  0  0  0  0  0  0  0  0  0  0
   15.0071   -7.4800    0.0000 C   0  0  0  0  0  0  0  0  0  0  0  0
   15.7215   -7.8925    0.0000 C   0  0  0  0  0  0  0  0  0  0  0  0
   16.4360   -7.4800    0.0000 C   0  0  0  0  0  0  0  0  0  0  0  0
   17.1505   -7.8925    0.0000 C   0  0  0  0  0  0  0  0  0  0  0  0
   17.8649   -7.4800    0.0000 C   0  0  0  0  0  0  0  0  0  0  0  0
   18.5794   -7.8925    0.0000 C   0  0  0  0  0  0  0  0  0  0  0  0
   19.2939   -7.4800    0.0000 C   0  0  0  0  0  0  0  0  0  0  0  0
   20.0084   -7.8925    0.0000 C   0  0  0  0  0  0  0  0  0  0  0  0
   20.7228   -7.4800    0.0000 C   0  0  0  0  0  0  0  0  0  0  0  0
   21.4373   -7.8925    0.0000 C   0  0  0  0  0  0  0  0  0  0  0  0
   22.1518   -7.4800    0.0000 C   0  0  0  0  0  0  0  0  0  0  0  0
   22.8662   -7.8925    0.0000 C   0  0  0  0  0  0  0  0  0  0  0  0
   23.5807   -7.4800    0.0000 C   0  0  0  0  0  0  0  0  0  0  0  0
   24.2952   -7.8925    0.0000 C   0  0  0  0  0  0  0  0  0  0  0  0
    3.5755   -7.4800    0.0000 O   0  0  0  0  0  0  0  0  0  0  0  0
    4.2900   -8.7175    0.0000 O   0  0  0  0  0  0  0  0  0  0  0  0
  1  2  1  0  0  0  0
  2  3  1  0  0  0  0
  3  4  1  0  0  0  0
  4  5  1  0  0  0  0
  5  6  1  0  0  0  0
  6  7  1  0  0  0  0
  7  8  1  0  0  0  0
  8  9  1  0  0  0  0
  9 10  1  0  0  0  0
 10 11  1  0  0  0  0
 11 12  1  0  0  0  0
 12 13  1  0  0  0  0
 13 14  1  0  0  0  0
 14 15  1  0  0  0  0
 15 16  1  0  0  0  0
 16 17  1  0  0  0  0
 17 18  1  0  0  0  0
 18 19  1  0  0  0  0
 19 20  1  0  0  0  0
 20 21  1  0  0  0  0
 21 22  1  0  0  0  0
 22 23  1  0  0  0  0
 23 24  1  0  0  0  0
 24 25  1  0  0  0  0
 25 26  1  0  0  0  0
 26 27  1  0  0  0  0
 27 28  1  0  0  0  0
 28 29  1  0  0  0  0
  1 30  1  0  0  0  0
  1 31  2  0  0  0  0
M  END
>  <cdx:fragmentId>
217

$$$$
