13435.cdx
  Mrv1902 05222410262D          

 42 47  0  0  0  0            999 V2000
    8.2230   -6.4350    0.0000 C   0  0  2  0  0  0  0  0  0  0  0  0
    8.2230   -7.2600    0.0000 C   0  0  0  0  0  0  0  0  0  0  0  0
    8.9375   -7.6725    0.0000 C   0  0  1  0  0  0  0  0  0  0  0  0
    9.6520   -7.2600    0.0000 C   0  0  1  0  0  0  0  0  0  0  0  0
    9.6520   -6.4350    0.0000 C   0  0  0  0  0  0  0  0  0  0  0  0
    8.9375   -6.0225    0.0000 C   0  0  1  0  0  0  0  0  0  0  0  0
    8.9375   -5.1975    0.0000 C   0  0  0  0  0  0  0  0  0  0  0  0
   10.2850   -6.0500    0.0000 O   0  0  0  0  0  0  0  0  0  0  0  0
    8.9375   -6.8475    0.0000 C   0  0  2  0  0  0  0  0  0  0  0  0
    7.5086   -6.0225    0.0000 O   0  0  0  0  0  0  0  0  0  0  0  0
   10.2850   -7.6450    0.0000 O   0  0  0  0  0  0  0  0  0  0  0  0
    9.6520   -8.0850    0.0000 O   0  0  0  0  0  0  0  0  0  0  0  0
    8.3325   -7.6175    0.0000 C   0  0  0  0  0  0  0  0  0  0  0  0
    8.3325   -8.4425    0.0000 O   0  0  0  0  0  0  0  0  0  0  0  0
   10.2850   -6.8475    0.0000 C   0  0  1  0  0  0  0  0  0  0  0  0
    7.6140   -8.8480    0.0000 C   0  0  0  0  0  0  0  0  0  0  0  0
    6.9036   -8.4285    0.0000 O   0  0  0  0  0  0  0  0  0  0  0  0
    7.6059   -9.6729    0.0000 C   0  0  0  0  0  0  0  0  0  0  0  0
    8.3163  -10.0924    0.0000 C   0  0  0  0  0  0  0  0  0  0  0  0
    8.3082  -10.9174    0.0000 C   0  0  0  0  0  0  0  0  0  0  0  0
    7.5898  -11.3229    0.0000 C   0  0  0  0  0  0  0  0  0  0  0  0
    6.8794  -10.9034    0.0000 C   0  0  0  0  0  0  0  0  0  0  0  0
    6.8875  -10.0784    0.0000 C   0  0  0  0  0  0  0  0  0  0  0  0
    6.7941   -6.4350    0.0000 C   0  0  2  0  0  0  0  0  0  0  0  0
    6.0796   -6.0225    0.0000 O   0  0  0  0  0  0  0  0  0  0  0  0
    5.3651   -6.4350    0.0000 C   0  0  1  0  0  0  0  0  0  0  0  0
    5.3651   -7.2600    0.0000 C   0  0  2  0  0  0  0  0  0  0  0  0
    6.0796   -7.6725    0.0000 C   0  0  1  0  0  0  0  0  0  0  0  0
    6.7941   -7.2600    0.0000 C   0  0  1  0  0  0  0  0  0  0  0  0
    4.6507   -6.0225    0.0000 C   0  0  0  0  0  0  0  0  0  0  0  0
    6.0796   -8.4975    0.0000 O   0  0  0  0  0  0  0  0  0  0  0  0
    7.5086   -7.6725    0.0000 O   0  0  0  0  0  0  0  0  0  0  0  0
    4.6507   -7.6725    0.0000 O   0  0  0  0  0  0  0  0  0  0  0  0
    3.9362   -6.4350    0.0000 O   0  0  0  0  0  0  0  0  0  0  0  0
    8.9375   -8.4975    0.0000 H   0  0  0  0  0  0  0  0  0  0  0  0
   11.1925   -6.8200    0.0000 H   0  0  0  0  0  0  0  0  0  0  0  0
    7.5817  -12.1478    0.0000 O   0  0  0  0  0  0  0  0  0  0  0  0
    6.1609  -11.3089    0.0000 O   0  0  0  0  0  0  0  0  0  0  0  0
    5.4505  -10.8894    0.0000 C   0  0  0  0  0  0  0  0  0  0  0  0
   10.3664   -8.4975    0.0000 S   0  0  0  0  0  0  0  0  0  0  0  0
   10.3664   -9.3225    0.0000 O   0  0  0  0  0  0  0  0  0  0  0  0
   11.0809   -8.0850    0.0000 O   0  0  0  0  0  0  0  0  0  0  0  0
  1  2  1  0  0  0  0
  2  3  1  0  0  0  0
  3  4  1  0  0  0  0
  4  5  1  0  0  0  0
  5  6  1  0  0  0  0
  6  1  1  0  0  0  0
  6  7  1  6  0  0  0
  6  8  1  0  0  0  0
  3  9  1  0  0  0  0
  1 10  1  1  0  0  0
  4 11  1  0  0  0  0
  4 12  1  6  0  0  0
  9  1  1  0  0  0  0
  9 13  1  1  0  0  0
 13 14  1  0  0  0  0
 11 15  1  0  0  0  0
  8 15  1  0  0  0  0
  9 15  1  0  0  0  0
 14 16  1  0  0  0  0
 16 17  2  0  0  0  0
 16 18  1  0  0  0  0
 18 19  2  0  0  0  0
 19 20  1  0  0  0  0
 20 21  2  0  0  0  0
 21 22  1  0  0  0  0
 22 23  2  0  0  0  0
 23 18  1  0  0  0  0
 24 10  1  1  0  0  0
 24 25  1  0  0  0  0
 25 26  1  0  0  0  0
 26 27  1  0  0  0  0
 27 28  1  0  0  0  0
 28 29  1  0  0  0  0
 29 24  1  0  0  0  0
 26 30  1  1  0  0  0
 28 31  1  1  0  0  0
 29 32  1  6  0  0  0
 27 33  1  6  0  0  0
 30 34  1  0  0  0  0
  3 35  1  1  0  0  0
 15 36  1  1  0  0  0
 21 37  1  0  0  0  0
 22 38  1  0  0  0  0
 38 39  1  0  0  0  0
 12 40  1  0  0  0  0
 40 41  2  0  0  0  0
 40 42  1  0  0  0  0
M  END
>  <cdx:fragmentId>
197

$$$$
