13464.cdx
  Mrv1902 05222410182D          

 23 25  0  0  0  0            999 V2000
    3.3239   -8.0231    0.0000 C   0  0  0  0  0  0  0  0  0  0  0  0
    3.3239   -8.8481    0.0000 C   0  0  0  0  0  0  0  0  0  0  0  0
    4.0384   -9.2606    0.0000 C   0  0  0  0  0  0  0  0  0  0  0  0
    4.7528   -8.8481    0.0000 C   0  0  0  0  0  0  0  0  0  0  0  0
    4.7528   -8.0231    0.0000 C   0  0  0  0  0  0  0  0  0  0  0  0
    4.0384   -7.6106    0.0000 C   0  0  0  0  0  0  0  0  0  0  0  0
    5.4673   -9.2606    0.0000 C   0  0  0  0  0  0  0  0  0  0  0  0
    6.1818   -8.8481    0.0000 C   0  0  0  0  0  0  0  0  0  0  0  0
    6.1818   -8.0231    0.0000 C   0  0  0  0  0  0  0  0  0  0  0  0
    5.4673   -7.6106    0.0000 O   0  0  0  0  0  0  0  0  0  0  0  0
    6.8963   -7.6106    0.0000 C   0  0  0  0  0  0  0  0  0  0  0  0
    6.8963   -6.7856    0.0000 C   0  0  0  0  0  0  0  0  0  0  0  0
    7.6107   -8.0231    0.0000 C   0  0  0  0  0  0  0  0  0  0  0  0
    8.3252   -7.6106    0.0000 C   0  0  0  0  0  0  0  0  0  0  0  0
    8.3252   -6.7856    0.0000 C   0  0  0  0  0  0  0  0  0  0  0  0
    7.6107   -6.3731    0.0000 C   0  0  0  0  0  0  0  0  0  0  0  0
    4.0384   -6.7856    0.0000 C   0  0  0  0  0  0  0  0  0  0  0  0
    2.6094   -7.6106    0.0000 O   0  0  0  0  0  0  0  0  0  0  0  0
    2.6094   -9.2606    0.0000 C   0  0  0  0  0  0  0  0  0  0  0  0
    4.0384  -10.0856    0.0000 O   0  0  0  0  0  0  0  0  0  0  0  0
    5.4673  -10.0856    0.0000 O   0  0  0  0  0  0  0  0  0  0  0  0
    6.1818   -6.3731    0.0000 O   0  0  0  0  0  0  0  0  0  0  0  0
    9.0397   -8.0231    0.0000 O   0  0  0  0  0  0  0  0  0  0  0  0
  1  2  2  0  0  0  0
  2  3  1  0  0  0  0
  3  4  2  0  0  0  0
  4  5  1  0  0  0  0
  5  6  2  0  0  0  0
  6  1  1  0  0  0  0
  4  7  1  0  0  0  0
  7  8  1  0  0  0  0
  8  9  1  0  0  0  0
  9 10  1  0  0  0  0
 10  5  1  0  0  0  0
  9 11  1  0  0  0  0
 11 12  1  0  0  0  0
 11 13  2  0  0  0  0
 13 14  1  0  0  0  0
 14 15  2  0  0  0  0
 15 16  1  0  0  0  0
 16 12  2  0  0  0  0
  6 17  1  0  0  0  0
  1 18  1  0  0  0  0
  2 19  1  0  0  0  0
  3 20  1  0  0  0  0
  7 21  2  0  0  0  0
 12 22  1  0  0  0  0
 14 23  1  0  0  0  0
M  END
>  <cdx:fragmentId>
5

$$$$
