13471.cdx
  Mrv1902 05222410192D          

 34 37  0  0  0  0            999 V2000
    3.4889   -6.7031    0.0000 C   0  0  0  0  0  0  0  0  0  0  0  0
    3.4889   -7.5281    0.0000 C   0  0  0  0  0  0  0  0  0  0  0  0
    4.2034   -7.9406    0.0000 C   0  0  0  0  0  0  0  0  0  0  0  0
    4.9178   -7.5281    0.0000 C   0  0  0  0  0  0  0  0  0  0  0  0
    4.9178   -6.7031    0.0000 C   0  0  0  0  0  0  0  0  0  0  0  0
    4.2034   -6.2906    0.0000 C   0  0  0  0  0  0  0  0  0  0  0  0
    5.6323   -7.9406    0.0000 C   0  0  0  0  0  0  0  0  0  0  0  0
    6.3468   -7.5281    0.0000 C   0  0  0  0  0  0  0  0  0  0  0  0
    6.3468   -6.7031    0.0000 C   0  0  0  0  0  0  0  0  0  0  0  0
    5.6323   -6.2906    0.0000 O   0  0  0  0  0  0  0  0  0  0  0  0
    7.0613   -6.2906    0.0000 C   0  0  0  0  0  0  0  0  0  0  0  0
    7.0613   -5.4656    0.0000 C   0  0  0  0  0  0  0  0  0  0  0  0
    7.7757   -6.7031    0.0000 C   0  0  0  0  0  0  0  0  0  0  0  0
    8.4902   -6.2906    0.0000 C   0  0  0  0  0  0  0  0  0  0  0  0
    8.4902   -5.4656    0.0000 C   0  0  0  0  0  0  0  0  0  0  0  0
    7.7757   -5.0531    0.0000 C   0  0  0  0  0  0  0  0  0  0  0  0
    2.7744   -6.2906    0.0000 O   0  0  0  0  0  0  0  0  0  0  0  0
    4.2034   -8.7656    0.0000 O   0  0  0  0  0  0  0  0  0  0  0  0
    5.6323   -8.7656    0.0000 O   0  0  0  0  0  0  0  0  0  0  0  0
    7.0613   -7.9406    0.0000 O   0  0  0  0  0  0  0  0  0  0  0  0
    9.2047   -5.0531    0.0000 O   0  0  0  0  0  0  0  0  0  0  0  0
    7.7757   -4.2281    0.0000 O   0  0  0  0  0  0  0  0  0  0  0  0
    9.2047   -6.7031    0.0000 O   0  0  0  0  0  0  0  0  0  0  0  0
    6.3626  -10.0010    0.0000 C   0  0  2  0  0  0  0  0  0  0  0  0
    7.0779  -10.4121    0.0000 C   0  0  2  0  0  0  0  0  0  0  0  0
    7.7916   -9.9982    0.0000 C   0  0  1  0  0  0  0  0  0  0  0  0
    7.7899   -9.1732    0.0000 C   0  0  2  0  0  0  0  0  0  0  0  0
    7.0746   -8.7621    0.0000 C   0  0  1  0  0  0  0  0  0  0  0  0
    6.3610   -9.1760    0.0000 O   0  0  0  0  0  0  0  0  0  0  0  0
    5.6490  -10.4150    0.0000 C   0  0  0  0  0  0  0  0  0  0  0  0
    8.5069  -10.4093    0.0000 O   0  0  0  0  0  0  0  0  0  0  0  0
    8.5036   -8.7593    0.0000 O   0  0  0  0  0  0  0  0  0  0  0  0
    7.0796  -11.2371    0.0000 O   0  0  0  0  0  0  0  0  0  0  0  0
    5.6506  -11.2400    0.0000 O   0  0  0  0  0  0  0  0  0  0  0  0
  1  2  2  0  0  0  0
  2  3  1  0  0  0  0
  3  4  2  0  0  0  0
  4  5  1  0  0  0  0
  5  6  2  0  0  0  0
  6  1  1  0  0  0  0
  4  7  1  0  0  0  0
  7  8  1  0  0  0  0
  8  9  2  0  0  0  0
  9 10  1  0  0  0  0
 10  5  1  0  0  0  0
  9 11  1  0  0  0  0
 11 12  1  0  0  0  0
 11 13  2  0  0  0  0
 13 14  1  0  0  0  0
 14 15  2  0  0  0  0
 15 16  1  0  0  0  0
 16 12  2  0  0  0  0
  1 17  1  0  0  0  0
  3 18  1  0  0  0  0
  7 19  2  0  0  0  0
  8 20  1  0  0  0  0
 15 21  1  0  0  0  0
 16 22  1  0  0  0  0
 14 23  1  0  0  0  0
 24 25  1  0  0  0  0
 25 26  1  0  0  0  0
 26 27  1  0  0  0  0
 27 28  1  0  0  0  0
 28 29  1  0  0  0  0
 29 24  1  0  0  0  0
 24 30  1  1  0  0  0
 26 31  1  1  0  0  0
 27 32  1  6  0  0  0
 25 33  1  6  0  0  0
 30 34  1  0  0  0  0
 28 20  1  1  0  0  0
M  END
>  <cdx:fragmentId>
5

$$$$
