13480.cdx
  Mrv1902 05222410272D          

 35 38  0  0  0  0            999 V2000
    4.1540   -7.8827    0.0000 C   0  0  0  0  0  0  0  0  0  0  0  0
    4.8626   -8.3053    0.0000 C   0  0  0  0  0  0  0  0  0  0  0  0
    5.5828   -7.9030    0.0000 C   0  0  0  0  0  0  0  0  0  0  0  0
    5.5945   -7.0781    0.0000 C   0  0  0  0  0  0  0  0  0  0  0  0
    4.8860   -6.6555    0.0000 C   0  0  0  0  0  0  0  0  0  0  0  0
    4.1658   -7.0578    0.0000 C   0  0  0  0  0  0  0  0  0  0  0  0
    6.2914   -8.3256    0.0000 C   0  0  0  0  0  0  0  0  0  0  0  0
    7.0116   -7.9233    0.0000 C   0  0  0  0  0  0  0  0  0  0  0  0
    7.0233   -7.0984    0.0000 C   0  0  0  0  0  0  0  0  0  0  0  0
    6.3148   -6.6758    0.0000 O   0  0  0  0  0  0  0  0  0  0  0  0
    3.4572   -6.6352    0.0000 O   0  0  0  0  0  0  0  0  0  0  0  0
    4.8509   -9.1302    0.0000 O   0  0  0  0  0  0  0  0  0  0  0  0
    6.2797   -9.1505    0.0000 O   0  0  0  0  0  0  0  0  0  0  0  0
    7.7436   -6.6961    0.0000 C   0  0  0  0  0  0  0  0  0  0  0  0
    7.7202   -8.3459    0.0000 O   0  0  0  0  0  0  0  0  0  0  0  0
    8.4521   -7.1187    0.0000 C   0  0  0  0  0  0  0  0  0  0  0  0
    9.1724   -6.7163    0.0000 C   0  0  0  0  0  0  0  0  0  0  0  0
    9.1841   -5.8914    0.0000 C   0  0  0  0  0  0  0  0  0  0  0  0
    8.4756   -5.4688    0.0000 C   0  0  0  0  0  0  0  0  0  0  0  0
    7.7553   -5.8711    0.0000 C   0  0  0  0  0  0  0  0  0  0  0  0
    8.4873   -4.6439    0.0000 O   0  0  0  0  0  0  0  0  0  0  0  0
    9.9044   -5.4891    0.0000 O   0  0  0  0  0  0  0  0  0  0  0  0
    9.8809   -7.1390    0.0000 O   0  0  0  0  0  0  0  0  0  0  0  0
    7.7085   -9.1708    0.0000 C   0  0  2  0  0  0  0  0  0  0  0  0
    6.9882   -9.5731    0.0000 O   0  0  0  0  0  0  0  0  0  0  0  0
    6.9765  -10.3980    0.0000 C   0  0  1  0  0  0  0  0  0  0  0  0
    7.6850  -10.8206    0.0000 C   0  0  2  0  0  0  0  0  0  0  0  0
    8.4053  -10.4183    0.0000 C   0  0  1  0  0  0  0  0  0  0  0  0
    8.4170   -9.5934    0.0000 C   0  0  1  0  0  0  0  0  0  0  0  0
    6.2562  -10.8003    0.0000 C   0  0  0  0  0  0  0  0  0  0  0  0
    9.1138  -10.8409    0.0000 O   0  0  0  0  0  0  0  0  0  0  0  0
    7.6733  -11.6456    0.0000 O   0  0  0  0  0  0  0  0  0  0  0  0
    9.1373   -9.1911    0.0000 O   0  0  0  0  0  0  0  0  0  0  0  0
    5.5477  -10.3777    0.0000 O   0  0  0  0  0  0  0  0  0  0  0  0
    6.2445  -11.6253    0.0000 O   0  0  0  0  0  0  0  0  0  0  0  0
  1  2  1  0  0  0  0
  2  3  2  0  0  0  0
  3  4  1  0  0  0  0
  4  5  2  0  0  0  0
  5  6  1  0  0  0  0
  6  1  2  0  0  0  0
  3  7  1  0  0  0  0
  7  8  1  0  0  0  0
  8  9  2  0  0  0  0
  9 10  1  0  0  0  0
 10  4  1  0  0  0  0
  6 11  1  0  0  0  0
  2 12  1  0  0  0  0
  7 13  2  0  0  0  0
  9 14  1  0  0  0  0
  8 15  1  0  0  0  0
 14 16  2  0  0  0  0
 16 17  1  0  0  0  0
 17 18  2  0  0  0  0
 18 19  1  0  0  0  0
 19 20  2  0  0  0  0
 20 14  1  0  0  0  0
 19 21  1  0  0  0  0
 18 22  1  0  0  0  0
 17 23  1  0  0  0  0
 24 15  1  1  0  0  0
 24 25  1  0  0  0  0
 25 26  1  0  0  0  0
 26 27  1  0  0  0  0
 27 28  1  0  0  0  0
 28 29  1  0  0  0  0
 29 24  1  0  0  0  0
 26 30  1  1  0  0  0
 28 31  1  1  0  0  0
 27 32  1  6  0  0  0
 29 33  1  6  0  0  0
 30 34  2  0  0  0  0
 30 35  1  0  0  0  0
M  END
>  <cdx:fragmentId>
5

$$$$
