13489.cdx
  Mrv1902 05222410202D          

 31 34  0  0  0  0            999 V2000
    4.1489  -10.0031    0.0000 C   0  0  0  0  0  0  0  0  0  0  0  0
    4.1489  -10.8281    0.0000 C   0  0  0  0  0  0  0  0  0  0  0  0
    4.8634  -11.2406    0.0000 C   0  0  0  0  0  0  0  0  0  0  0  0
    5.5778  -10.8281    0.0000 C   0  0  0  0  0  0  0  0  0  0  0  0
    5.5778  -10.0031    0.0000 C   0  0  0  0  0  0  0  0  0  0  0  0
    4.8634   -9.5906    0.0000 C   0  0  0  0  0  0  0  0  0  0  0  0
    6.2923  -11.2406    0.0000 C   0  0  0  0  0  0  0  0  0  0  0  0
    7.0068  -10.8281    0.0000 C   0  0  0  0  0  0  0  0  0  0  0  0
    7.0068  -10.0031    0.0000 C   0  0  0  0  0  0  0  0  0  0  0  0
    6.2923   -9.5906    0.0000 O   0  0  0  0  0  0  0  0  0  0  0  0
    7.7213   -9.5906    0.0000 C   0  0  0  0  0  0  0  0  0  0  0  0
    7.7213   -8.7656    0.0000 C   0  0  0  0  0  0  0  0  0  0  0  0
    8.4357  -10.0031    0.0000 C   0  0  0  0  0  0  0  0  0  0  0  0
    9.1502   -9.5906    0.0000 C   0  0  0  0  0  0  0  0  0  0  0  0
    9.1502   -8.7656    0.0000 C   0  0  0  0  0  0  0  0  0  0  0  0
    8.4357   -8.3531    0.0000 C   0  0  0  0  0  0  0  0  0  0  0  0
    3.4344   -9.5906    0.0000 O   0  0  0  0  0  0  0  0  0  0  0  0
    4.8634  -12.0656    0.0000 O   0  0  0  0  0  0  0  0  0  0  0  0
    6.2923  -12.0656    0.0000 O   0  0  0  0  0  0  0  0  0  0  0  0
    7.7213  -11.2406    0.0000 O   0  0  0  0  0  0  0  0  0  0  0  0
    9.8647   -8.3531    0.0000 O   0  0  0  0  0  0  0  0  0  0  0  0
    7.7267   -6.1711    0.0000 O   0  0  0  0  0  0  0  0  0  0  0  0
    8.4428   -6.5807    0.0000 C   0  0  0  0  0  0  0  0  0  0  0  0
    9.1556   -6.1652    0.0000 C   0  0  1  0  0  0  0  0  0  0  0  0
    9.1522   -5.3402    0.0000 C   0  0  2  0  0  0  0  0  0  0  0  0
    8.4361   -4.9307    0.0000 C   0  0  1  0  0  0  0  0  0  0  0  0
    7.7233   -5.3461    0.0000 C   0  0  0  0  0  0  0  0  0  0  0  0
    8.4462   -7.4057    0.0000 O   0  0  0  0  0  0  0  0  0  0  0  0
    9.8718   -6.5748    0.0000 O   0  0  0  0  0  0  0  0  0  0  0  0
    8.4327   -4.1057    0.0000 O   0  0  0  0  0  0  0  0  0  0  0  0
    9.8650   -4.9248    0.0000 O   0  0  0  0  0  0  0  0  0  0  0  0
  1  2  2  0  0  0  0
  2  3  1  0  0  0  0
  3  4  2  0  0  0  0
  4  5  1  0  0  0  0
  5  6  2  0  0  0  0
  6  1  1  0  0  0  0
  4  7  1  0  0  0  0
  7  8  1  0  0  0  0
  8  9  2  0  0  0  0
  9 10  1  0  0  0  0
 10  5  1  0  0  0  0
  9 11  1  0  0  0  0
 11 12  1  0  0  0  0
 11 13  2  0  0  0  0
 13 14  1  0  0  0  0
 14 15  2  0  0  0  0
 15 16  1  0  0  0  0
 16 12  2  0  0  0  0
  1 17  1  0  0  0  0
  3 18  1  0  0  0  0
  7 19  2  0  0  0  0
  8 20  1  0  0  0  0
 15 21  1  0  0  0  0
 22 23  1  0  0  0  0
 23 24  1  0  0  0  0
 24 25  1  0  0  0  0
 25 26  1  0  0  0  0
 26 27  1  0  0  0  0
 27 22  1  0  0  0  0
 23 28  1  0  0  0  0
 24 29  1  1  0  0  0
 26 30  1  1  0  0  0
 25 31  1  6  0  0  0
 16 28  1  0  0  0  0
M  END
>  <cdx:fragmentId>
5

$$$$
