13501.cdx
  Mrv1902 05222410192D          

 17 19  0  0  0  0            999 V2000
    6.3764   -7.8994    0.0000 C   0  0  0  0  0  0  0  0  0  0  0  0
    6.3764   -8.7244    0.0000 C   0  0  0  0  0  0  0  0  0  0  0  0
    7.0909   -9.1369    0.0000 C   0  0  0  0  0  0  0  0  0  0  0  0
    7.8053   -8.7244    0.0000 C   0  0  0  0  0  0  0  0  0  0  0  0
    7.8053   -7.8994    0.0000 C   0  0  0  0  0  0  0  0  0  0  0  0
    7.0909   -7.4869    0.0000 C   0  0  0  0  0  0  0  0  0  0  0  0
    8.5198   -7.4869    0.0000 C   0  0  0  0  0  0  0  0  0  0  0  0
    8.5198   -6.6619    0.0000 C   0  0  0  0  0  0  0  0  0  0  0  0
    7.8053   -6.2494    0.0000 C   0  0  1  0  0  0  0  0  0  0  0  0
    7.0909   -6.6619    0.0000 C   0  0  0  0  0  0  0  0  0  0  0  0
    5.5918   -7.6444    0.0000 C   0  0  0  0  0  0  0  0  0  0  0  0
    5.1069   -8.3119    0.0000 C   0  0  0  0  0  0  0  0  0  0  0  0
    5.5918   -8.9793    0.0000 O   0  0  0  0  0  0  0  0  0  0  0  0
    8.5198   -9.1369    0.0000 C   0  0  0  0  0  0  0  0  0  0  0  0
    5.3783   -6.8475    0.0000 C   0  0  0  0  0  0  0  0  0  0  0  0
    9.2343   -7.8994    0.0000 O   0  0  0  0  0  0  0  0  0  0  0  0
    7.8053   -5.4244    0.0000 C   0  0  0  0  0  0  0  0  0  0  0  0
  1  2  2  0  0  0  0
  2  3  1  0  0  0  0
  3  4  2  0  0  0  0
  4  5  1  0  0  0  0
  5  6  2  0  0  0  0
  6  1  1  0  0  0  0
  5  7  1  0  0  0  0
  7  8  1  0  0  0  0
  8  9  1  0  0  0  0
  9 10  1  0  0  0  0
 10  6  1  0  0  0  0
  1 11  1  0  0  0  0
 11 12  2  0  0  0  0
 12 13  1  0  0  0  0
 13  2  1  0  0  0  0
  4 14  1  0  0  0  0
 11 15  1  0  0  0  0
  7 16  2  0  0  0  0
  9 17  1  1  0  0  0
M  END
>  <cdx:fragmentId>
5

$$$$
