135191.cdx
  Mrv1902 05222410262D          

 10  9  0  0  0  0            999 V2000
    5.6550   -8.2585    0.0000 C   0  0  0  0  0  0  0  0  0  0  0  0
    6.3695   -8.6710    0.0000 C   0  0  0  0  0  0  0  0  0  0  0  0
    7.0840   -8.2585    0.0000 C   0  0  0  0  0  0  0  0  0  0  0  0
    7.7984   -8.6710    0.0000 C   0  0  0  0  0  0  0  0  0  0  0  0
    8.5129   -8.2585    0.0000 C   0  0  0  0  0  0  0  0  0  0  0  0
    4.9406   -8.6710    0.0000 O   0  0  0  0  0  0  0  0  0  0  0  0
    9.2274   -8.6710    0.0000 O   0  0  0  0  0  0  0  0  0  0  0  0
    7.7984   -9.4960    0.0000 O   0  0  0  0  0  0  0  0  0  0  0  0
    7.0840   -7.4335    0.0000 O   0  0  0  0  0  0  0  0  0  0  0  0
    6.3695   -9.4960    0.0000 O   0  0  0  0  0  0  0  0  0  0  0  0
  1  2  1  0  0  0  0
  2  3  1  0  0  0  0
  3  4  1  0  0  0  0
  4  5  1  0  0  0  0
  1  6  2  0  0  0  0
  5  7  1  0  0  0  0
  4  8  1  0  0  0  0
  3  9  1  0  0  0  0
  2 10  1  0  0  0  0
M  END
>  <cdx:fragmentId>
5

$$$$
