135242.cdx
  Mrv1902 05222410252D          

 13 12  0  0  0  0            999 V2000
    9.4632   -5.9601    0.0000 C   0  0  0  0  0  0  0  0  0  0  0  0
    8.7487   -6.3726    0.0000 C   0  0  2  0  0  0  0  0  0  0  0  0
    8.0342   -5.9601    0.0000 C   0  0  0  0  0  0  0  0  0  0  0  0
    7.3198   -6.3726    0.0000 C   0  0  0  0  0  0  0  0  0  0  0  0
    6.6053   -5.9601    0.0000 C   0  0  0  0  0  0  0  0  0  0  0  0
    9.4632   -5.1351    0.0000 O   0  0  0  0  0  0  0  0  0  0  0  0
   10.1777   -6.3726    0.0000 O   0  0  0  0  0  0  0  0  0  0  0  0
    5.8908   -6.3726    0.0000 N   0  0  0  0  0  0  0  0  0  0  0  0
    5.1764   -5.9601    0.0000 C   0  0  0  0  0  0  0  0  0  0  0  0
    5.1764   -5.1351    0.0000 N   0  0  0  0  0  0  0  0  0  0  0  0
    4.4619   -6.3726    0.0000 N   0  0  0  0  0  0  0  0  0  0  0  0
    3.7474   -5.9601    0.0000 C   0  0  0  0  0  0  0  0  0  0  0  0
    8.7487   -7.1976    0.0000 N   0  0  0  0  0  0  0  0  0  0  0  0
  1  2  1  0  0  0  0
  2  3  1  0  0  0  0
  3  4  1  0  0  0  0
  4  5  1  0  0  0  0
  1  6  2  0  0  0  0
  1  7  1  0  0  0  0
  9 10  1  0  0  0  0
  9 11  2  0  0  0  0
 11 12  1  0  0  0  0
  8  9  1  0  0  0  0
  5  8  1  0  0  0  0
  2 13  1  1  0  0  0
M  END
>  <cdx:groupId>
80685

>  <cdx:fragmentId>
80647

$$$$
