1352.cdx
  Mrv1902 05222410222D          

 52 57  0  0  0  0            999 V2000
    5.9518   -7.5614    0.0000 C   0  0  0  0  0  0  0  0  0  0  0  0
    5.9518   -8.3864    0.0000 C   0  0  0  0  0  0  0  0  0  0  0  0
    6.6663   -8.7989    0.0000 C   0  0  0  0  0  0  0  0  0  0  0  0
    7.3807   -8.3864    0.0000 C   0  0  0  0  0  0  0  0  0  0  0  0
    7.3807   -7.5614    0.0000 C   0  0  0  0  0  0  0  0  0  0  0  0
    6.6663   -7.1489    0.0000 C   0  0  0  0  0  0  0  0  0  0  0  0
    8.0952   -8.7989    0.0000 C   0  0  0  0  0  0  0  0  0  0  0  0
    8.8097   -8.3864    0.0000 C   0  0  0  0  0  0  0  0  0  0  0  0
    8.8097   -7.5614    0.0000 C   0  0  0  0  0  0  0  0  0  0  0  0
    8.0952   -7.1489    0.0000 O   0  0  0  0  0  0  0  0  0  0  0  0
    9.5242   -8.7989    0.0000 O   0  0  0  0  0  0  0  0  0  0  0  0
   10.2386   -7.5614    0.0000 C   0  0  0  0  0  0  0  0  0  0  0  0
    9.5242   -7.1489    0.0000 C   0  0  0  0  0  0  0  0  0  0  0  0
   10.9531   -7.1489    0.0000 C   0  0  0  0  0  0  0  0  0  0  0  0
   10.9531   -6.3239    0.0000 C   0  0  0  0  0  0  0  0  0  0  0  0
   10.2386   -5.9114    0.0000 C   0  0  0  0  0  0  0  0  0  0  0  0
    9.5242   -6.3239    0.0000 C   0  0  0  0  0  0  0  0  0  0  0  0
    6.6663   -9.6239    0.0000 O   0  0  0  0  0  0  0  0  0  0  0  0
    8.0952   -9.6239    0.0000 O   0  0  0  0  0  0  0  0  0  0  0  0
    8.8097  -10.0364    0.0000 O   0  0  0  0  0  0  0  0  0  0  0  0
    9.5242   -9.6239    0.0000 C   0  0  2  0  0  0  0  0  0  0  0  0
    8.8097  -10.8614    0.0000 C   0  0  1  0  0  0  0  0  0  0  0  0
    9.5242  -11.2739    0.0000 C   0  0  2  0  0  0  0  0  0  0  0  0
   10.2386  -10.8614    0.0000 C   0  0  1  0  0  0  0  0  0  0  0  0
   10.2386  -10.0364    0.0000 C   0  0  1  0  0  0  0  0  0  0  0  0
   10.9531  -11.2739    0.0000 O   0  0  0  0  0  0  0  0  0  0  0  0
   10.9531   -9.6239    0.0000 O   0  0  0  0  0  0  0  0  0  0  0  0
   10.2386   -5.0864    0.0000 O   0  0  0  0  0  0  0  0  0  0  0  0
   11.6676   -5.9114    0.0000 O   0  0  0  0  0  0  0  0  0  0  0  0
    5.2373   -7.1489    0.0000 O   0  0  0  0  0  0  0  0  0  0  0  0
    8.0952  -11.2739    0.0000 C   0  0  0  0  0  0  0  0  0  0  0  0
    7.3807  -10.8614    0.0000 O   0  0  0  0  0  0  0  0  0  0  0  0
    9.5242  -12.0989    0.0000 O   0  0  0  0  0  0  0  0  0  0  0  0
    5.9471  -10.8537    0.0000 O   0  0  0  0  0  0  0  0  0  0  0  0
    6.6611  -11.2670    0.0000 C   0  0  2  0  0  0  0  0  0  0  0  0
    5.2321  -11.2653    0.0000 C   0  0  2  0  0  0  0  0  0  0  0  0
    5.2311  -12.0903    0.0000 C   0  0  1  0  0  0  0  0  0  0  0  0
    5.9451  -12.5037    0.0000 C   0  0  2  0  0  0  0  0  0  0  0  0
    6.6601  -12.0920    0.0000 C   0  0  1  0  0  0  0  0  0  0  0  0
    7.3740  -12.5054    0.0000 O   0  0  0  0  0  0  0  0  0  0  0  0
    5.9441  -13.3287    0.0000 O   0  0  0  0  0  0  0  0  0  0  0  0
    4.5181  -10.8519    0.0000 C   0  0  0  0  0  0  0  0  0  0  0  0
    4.5162  -12.5019    0.0000 O   0  0  0  0  0  0  0  0  0  0  0  0
    4.5229   -7.5614    0.0000 C   0  0  0  0  0  0  0  0  0  0  0  0
    3.8084   -7.1489    0.0000 O   0  0  0  0  0  0  0  0  0  0  0  0
    3.0939   -7.5614    0.0000 C   0  0  0  0  0  0  0  0  0  0  0  0
    3.0939   -8.3864    0.0000 C   0  0  0  0  0  0  0  0  0  0  0  0
    3.8084   -8.7989    0.0000 C   0  0  0  0  0  0  0  0  0  0  0  0
    4.5229   -8.3864    0.0000 C   0  0  0  0  0  0  0  0  0  0  0  0
    5.2373   -8.7989    0.0000 O   0  0  0  0  0  0  0  0  0  0  0  0
    3.8084   -9.6239    0.0000 O   0  0  0  0  0  0  0  0  0  0  0  0
    2.3794   -8.7989    0.0000 O   0  0  0  0  0  0  0  0  0  0  0  0
  1  2  1  0  0  0  0
  2  3  2  0  0  0  0
  3  4  1  0  0  0  0
  4  5  2  0  0  0  0
  5  6  1  0  0  0  0
  6  1  2  0  0  0  0
  4  7  1  0  0  0  0
  7  8  1  0  0  0  0
  8  9  2  0  0  0  0
  9 10  1  0  0  0  0
 10  5  1  0  0  0  0
  8 11  1  0  0  0  0
 12 13  2  0  0  0  0
 13  9  1  0  0  0  0
 12 14  1  0  0  0  0
 14 15  2  0  0  0  0
 15 16  1  0  0  0  0
 16 17  2  0  0  0  0
 17 13  1  0  0  0  0
 18  3  1  0  0  0  0
  7 19  2  0  0  0  0
 20 21  1  0  0  0  0
 21 11  1  1  0  0  0
 20 22  1  0  0  0  0
 22 23  1  0  0  0  0
 23 24  1  0  0  0  0
 24 25  1  0  0  0  0
 25 21  1  0  0  0  0
 24 26  1  1  0  0  0
 25 27  1  6  0  0  0
 16 28  1  0  0  0  0
 15 29  1  0  0  0  0
  1 30  1  0  0  0  0
 22 31  1  1  0  0  0
 31 32  1  0  0  0  0
 23 33  1  6  0  0  0
 34 35  1  0  0  0  0
 34 36  1  0  0  0  0
 36 37  1  0  0  0  0
 37 38  1  0  0  0  0
 38 39  1  0  0  0  0
 39 35  1  0  0  0  0
 39 40  1  6  0  0  0
 38 41  1  6  0  0  0
 36 42  1  6  0  0  0
 37 43  1  1  0  0  0
 35 32  1  1  0  0  0
 30 44  1  0  0  0  0
 44 45  1  0  0  0  0
 45 46  1  0  0  0  0
 46 47  1  0  0  0  0
 47 48  1  0  0  0  0
 48 49  1  0  0  0  0
 49 44  1  0  0  0  0
 49 50  1  0  0  0  0
 48 51  1  0  0  0  0
 47 52  1  0  0  0  0
M  END
>  <cdx:fragmentId>
5

$$$$
