135215.cdx
  Mrv1902 05222410202D          

 17 18  0  0  0  0            999 V2000
   15.7779  -12.9722    0.0000 C   0  0  0  0  0  0  0  0  0  0  0  0
   15.1105  -13.4571    0.0000 C   0  0  0  0  0  0  0  0  0  0  0  0
   15.3654  -14.2417    0.0000 C   0  0  0  0  0  0  0  0  0  0  0  0
   16.1904  -14.2417    0.0000 C   0  0  0  0  0  0  0  0  0  0  0  0
   16.4454  -13.4571    0.0000 C   0  0  0  0  0  0  0  0  0  0  0  0
   16.6169  -12.6502    0.0000 C   0  0  0  0  0  0  0  0  0  0  0  0
   17.4015  -12.3952    0.0000 C   0  0  0  0  0  0  0  0  0  0  0  0
   18.0146  -12.9472    0.0000 C   0  0  0  0  0  0  0  0  0  0  0  0
   17.8431  -13.7542    0.0000 C   0  0  0  0  0  0  0  0  0  0  0  0
   17.0584  -14.0092    0.0000 C   0  0  0  0  0  0  0  0  0  0  0  0
   16.0038  -12.0981    0.0000 C   0  0  0  0  0  0  0  0  0  0  0  0
   15.2192  -12.3531    0.0000 O   0  0  0  0  0  0  0  0  0  0  0  0
   16.8869  -14.8161    0.0000 C   0  0  0  0  0  0  0  0  0  0  0  0
   14.3259  -13.2022    0.0000 C   0  0  0  0  0  0  0  0  0  0  0  0
   14.1543  -12.3952    0.0000 C   0  0  0  0  0  0  0  0  0  0  0  0
   13.7128  -13.7542    0.0000 C   0  0  0  0  0  0  0  0  0  0  0  0
   13.5412  -12.9472    0.0000 O   0  0  0  0  0  0  0  0  0  0  0  0
  1  2  1  0  0  0  0
  2  3  1  0  0  0  0
  3  4  1  0  0  0  0
  4  5  1  0  0  0  0
  5  6  1  0  0  0  0
  6  7  2  0  0  0  0
  7  8  1  0  0  0  0
  8  9  1  0  0  0  0
  9 10  1  0  0  0  0
  1  5  1  0  0  0  0
  5 10  1  0  0  0  0
 11 12  2  0  0  0  0
  6 11  1  0  0  0  0
 10 13  1  0  0  0  0
 14 15  1  0  0  0  0
 14 16  1  0  0  0  0
 14 17  1  0  0  0  0
  2 14  1  0  0  0  0
M  END
>  <cdx:fragmentId>
207

$$$$
