135317.cdx
  Mrv1902 05222410222D          

 14 14  0  0  0  0            999 V2000
    7.2035   -8.0855    0.0000 C   0  0  0  0  0  0  0  0  0  0  0  0
    7.9174   -8.4990    0.0000 C   0  0  0  0  0  0  0  0  0  0  0  0
    8.6325   -8.0876    0.0000 C   0  0  0  0  0  0  0  0  0  0  0  0
    8.6337   -7.2626    0.0000 C   0  0  0  0  0  0  0  0  0  0  0  0
    7.9198   -6.8490    0.0000 C   0  0  0  0  0  0  0  0  0  0  0  0
    7.2047   -7.2605    0.0000 C   0  0  0  0  0  0  0  0  0  0  0  0
    7.9210   -6.0240    0.0000 C   0  0  0  0  0  0  0  0  0  0  0  0
    8.6361   -5.6126    0.0000 C   0  0  0  0  0  0  0  0  0  0  0  0
    7.2072   -5.6105    0.0000 C   0  0  0  0  0  0  0  0  0  0  0  0
    7.9162   -9.3240    0.0000 C   0  0  0  0  0  0  0  0  0  0  0  0
    7.2011   -9.7355    0.0000 O   0  0  0  0  0  0  0  0  0  0  0  0
    7.1998  -10.5605    0.0000 C   0  0  0  0  0  0  0  0  0  0  0  0
    6.4848  -10.9719    0.0000 O   0  0  0  0  0  0  0  0  0  0  0  0
    7.9137  -10.9740    0.0000 C   0  0  0  0  0  0  0  0  0  0  0  0
  1  2  1  0  0  0  0
  2  3  2  0  0  0  0
  3  4  1  0  0  0  0
  4  5  1  0  0  0  0
  5  6  1  0  0  0  0
  6  1  1  0  0  0  0
  5  7  1  0  0  0  0
  7  8  2  0  0  0  0
  7  9  1  0  0  0  0
  2 10  1  0  0  0  0
 10 11  1  0  0  0  0
 11 12  1  0  0  0  0
 12 13  2  0  0  0  0
 12 14  1  0  0  0  0
M  END
>  <cdx:fragmentId>
101987

$$$$
