135325.cdx
  Mrv1902 05222410242D          

 32 35  0  0  0  0            999 V2000
    6.0020   -5.2643    0.0000 O   0  0  0  0  0  0  0  0  0  0  0  0
    5.9980   -4.4393    0.0000 C   0  0  1  0  0  0  0  0  0  0  0  0
    5.2815   -4.0303    0.0000 C   0  0  2  0  0  0  0  0  0  0  0  0
    4.5691   -4.4463    0.0000 C   0  0  1  0  0  0  0  0  0  0  0  0
    4.5731   -5.2713    0.0000 C   0  0  2  0  0  0  0  0  0  0  0  0
    5.2896   -5.6803    0.0000 C   0  0  2  0  0  0  0  0  0  0  0  0
    6.7104   -4.0233    0.0000 C   0  0  0  0  0  0  0  0  0  0  0  0
    7.4269   -4.4323    0.0000 O   0  0  0  0  0  0  0  0  0  0  0  0
    6.7064   -3.1983    0.0000 O   0  0  0  0  0  0  0  0  0  0  0  0
    3.8606   -5.6872    0.0000 O   0  0  0  0  0  0  0  0  0  0  0  0
    3.8526   -4.0373    0.0000 O   0  0  0  0  0  0  0  0  0  0  0  0
    5.2775   -3.2053    0.0000 O   0  0  0  0  0  0  0  0  0  0  0  0
    5.2936   -6.5053    0.0000 O   0  0  0  0  0  0  0  0  0  0  0  0
    6.7346   -8.9733    0.0000 O   0  0  0  0  0  0  0  0  0  0  0  0
    5.3016   -8.1552    0.0000 O   0  0  0  0  0  0  0  0  0  0  0  0
    8.1635   -8.9663    0.0000 O   0  0  0  0  0  0  0  0  0  0  0  0
    9.5763   -5.6594    0.0000 C   0  0  0  0  0  0  0  0  0  0  0  0
   10.2888   -5.2434    0.0000 C   0  0  0  0  0  0  0  0  0  0  0  0
   11.0053   -5.6524    0.0000 C   0  0  0  0  0  0  0  0  0  0  0  0
   11.0093   -6.4774    0.0000 C   0  0  0  0  0  0  0  0  0  0  0  0
   10.2968   -6.8934    0.0000 C   0  0  0  0  0  0  0  0  0  0  0  0
    9.5804   -6.4844    0.0000 C   0  0  0  0  0  0  0  0  0  0  0  0
    8.1514   -6.4913    0.0000 O   0  0  0  0  0  0  0  0  0  0  0  0
    7.4390   -6.9073    0.0000 C   0  0  0  0  0  0  0  0  0  0  0  0
    6.7225   -6.4983    0.0000 C   0  0  0  0  0  0  0  0  0  0  0  0
    6.0101   -6.9143    0.0000 C   0  0  0  0  0  0  0  0  0  0  0  0
    6.0141   -7.7393    0.0000 C   0  0  0  0  0  0  0  0  0  0  0  0
    6.7305   -8.1483    0.0000 C   0  0  0  0  0  0  0  0  0  0  0  0
    7.4430   -7.7323    0.0000 C   0  0  0  0  0  0  0  0  0  0  0  0
    8.1595   -8.1413    0.0000 C   0  0  0  0  0  0  0  0  0  0  0  0
    8.8719   -7.7253    0.0000 C   0  0  0  0  0  0  0  0  0  0  0  0
    8.8679   -6.9003    0.0000 C   0  0  1  0  0  0  0  0  0  0  0  0
 13 26  1  0  0  0  0
 28 14  1  0  0  0  0
 27 15  1  0  0  0  0
 30 16  2  0  0  0  0
 32 22  1  6  0  0  0
 22 17  2  0  0  0  0
 18 17  1  0  0  0  0
 19 18  2  0  0  0  0
 20 19  1  0  0  0  0
 21 20  2  0  0  0  0
 22 21  1  0  0  0  0
 32 23  1  0  0  0  0
 24 23  1  0  0  0  0
 29 24  2  0  0  0  0
 25 24  1  0  0  0  0
 26 25  2  0  0  0  0
 27 26  1  0  0  0  0
 28 27  2  0  0  0  0
 29 28  1  0  0  0  0
 30 29  1  0  0  0  0
 31 30  1  0  0  0  0
 32 31  1  0  0  0  0
  1  2  1  0  0  0  0
  2  3  1  0  0  0  0
  3  4  1  0  0  0  0
  4  5  1  0  0  0  0
  5  6  1  0  0  0  0
  1  6  1  0  0  0  0
  7  8  2  0  0  0  0
  7  9  1  0  0  0  0
  2  7  1  1  0  0  0
  5 10  1  6  0  0  0
  4 11  1  1  0  0  0
  3 12  1  6  0  0  0
  6 13  1  1  0  0  0
M  END
>  <cdx:fragmentId>
101993

$$$$
