135316.cdx
  Mrv1902 05222410232D          

 21 20  0  0  0  0            999 V2000
    9.9536   -8.5831    0.0000 C   0  0  0  0  0  0  0  0  0  0  0  0
    9.2427   -9.0018    0.0000 C   0  0  0  0  0  0  0  0  0  0  0  0
    1.3940   -9.4651    0.0000 O   0  0  0  0  0  0  0  0  0  0  0  0
    2.1085   -9.0526    0.0000 C   0  0  0  0  0  0  0  0  0  0  0  0
    2.8195   -8.6342    0.0000 C   0  0  0  0  0  0  0  0  0  0  0  0
    3.5374   -9.0409    0.0000 N   0  0  0  0  0  0  0  0  0  0  0  0
    4.2484   -8.6226    0.0000 C   0  0  0  0  0  0  0  0  0  0  0  0
    4.9663   -9.0292    0.0000 C   0  0  0  0  0  0  0  0  0  0  0  0
    5.6773   -8.6109    0.0000 C   0  0  0  0  0  0  0  0  0  0  0  0
    6.3951   -9.0175    0.0000 C   0  0  0  0  0  0  0  0  0  0  0  0
    7.1062   -8.5992    0.0000 C   0  0  0  0  0  0  0  0  0  0  0  0
    7.8240   -9.0058    0.0000 C   0  0  0  0  0  0  0  0  0  0  0  0
    8.5351   -8.5875    0.0000 C   0  0  0  0  0  0  0  0  0  0  0  0
    4.2417   -7.7976    0.0000 O   0  0  0  0  0  0  0  0  0  0  0  0
    2.5210   -9.7670    0.0000 C   0  0  0  0  0  0  0  0  0  0  0  0
    1.6960   -8.3381    0.0000 C   0  0  0  0  0  0  0  0  0  0  0  0
   10.6716   -8.9893    0.0000 C   0  0  0  0  0  0  0  0  0  0  0  0
   11.3825   -8.5706    0.0000 C   0  0  0  0  0  0  0  0  0  0  0  0
   12.1005   -8.9768    0.0000 C   0  0  0  0  0  0  0  0  0  0  0  0
   12.8114   -8.5581    0.0000 C   0  0  0  0  0  0  0  0  0  0  0  0
   13.5294   -8.9643    0.0000 C   0  0  0  0  0  0  0  0  0  0  0  0
  1  2  2  0  0  0  0
  3  4  1  0  0  0  0
  4  5  1  0  0  0  0
  5  6  1  0  0  0  0
  6  7  1  0  0  0  0
  7  8  1  0  0  0  0
  8  9  2  0  0  0  0
  9 10  1  0  0  0  0
 10 11  2  0  0  0  0
 11 12  1  0  0  0  0
 12 13  1  0  0  0  0
  2 13  1  0  0  0  0
  7 14  2  0  0  0  0
  4 15  1  0  0  0  0
  4 16  1  0  0  0  0
  1 17  1  0  0  0  0
 17 18  2  0  0  0  0
 18 19  1  0  0  0  0
 19 20  2  0  0  0  0
 20 21  1  0  0  0  0
M  END
>  <cdx:fragmentId>
22

$$$$
