135348.cdx
  Mrv1902 05222410202D          

 29 30  0  0  0  0            999 V2000
    4.8747  -10.8642    0.0000 O   0  0  0  0  0  0  0  0  0  0  0  0
    5.5916  -11.2725    0.0000 C   0  0  2  0  0  0  0  0  0  0  0  0
    5.5964  -12.0975    0.0000 C   0  0  1  0  0  0  0  0  0  0  0  0
    4.8844  -12.5141    0.0000 C   0  0  2  0  0  0  0  0  0  0  0  0
    4.1675  -12.1058    0.0000 C   0  0  1  0  0  0  0  0  0  0  0  0
    4.1627  -11.2808    0.0000 C   0  0  1  0  0  0  0  0  0  0  0  0
    3.4458  -10.8725    0.0000 C   0  0  0  0  0  0  0  0  0  0  0  0
    2.7338  -11.2892    0.0000 O   0  0  0  0  0  0  0  0  0  0  0  0
    3.4554  -12.5225    0.0000 O   0  0  0  0  0  0  0  0  0  0  0  0
    4.8892  -13.3391    0.0000 O   0  0  0  0  0  0  0  0  0  0  0  0
    6.3133  -12.5058    0.0000 O   0  0  0  0  0  0  0  0  0  0  0  0
    7.7277  -10.0225    0.0000 O   0  0  0  0  0  0  0  0  0  0  0  0
    6.3036  -10.8558    0.0000 O   0  0  0  0  0  0  0  0  0  0  0  0
    6.2988  -10.0308    0.0000 C   0  0  0  0  0  0  0  0  0  0  0  0
    7.0109   -9.6142    0.0000 C   0  0  1  0  0  0  0  0  0  0  0  0
    7.0060   -8.7892    0.0000 C   0  0  0  0  0  0  0  0  0  0  0  0
    9.8350   -3.8226    0.0000 O   0  0  0  0  0  0  0  0  0  0  0  0
   11.2687   -4.6392    0.0000 O   0  0  0  0  0  0  0  0  0  0  0  0
    9.8494   -6.2975    0.0000 C   0  0  0  0  0  0  0  0  0  0  0  0
   10.5615   -5.8809    0.0000 C   0  0  0  0  0  0  0  0  0  0  0  0
   10.5567   -5.0559    0.0000 C   0  0  0  0  0  0  0  0  0  0  0  0
    9.8398   -4.6476    0.0000 C   0  0  0  0  0  0  0  0  0  0  0  0
    9.1277   -5.0642    0.0000 C   0  0  0  0  0  0  0  0  0  0  0  0
    9.1326   -5.8892    0.0000 C   0  0  0  0  0  0  0  0  0  0  0  0
    7.7181   -8.3725    0.0000 O   0  0  0  0  0  0  0  0  0  0  0  0
    6.9964   -7.1392    0.0000 O   0  0  0  0  0  0  0  0  0  0  0  0
    8.4205   -6.3059    0.0000 C   0  0  0  0  0  0  0  0  0  0  0  0
    8.4253   -7.1309    0.0000 C   0  0  0  0  0  0  0  0  0  0  0  0
    7.7133   -7.5475    0.0000 C   0  0  0  0  0  0  0  0  0  0  0  0
 25 16  1  0  0  0  0
 15 12  1  1  0  0  0
 14 13  1  0  0  0  0
 15 14  1  0  0  0  0
 16 15  1  0  0  0  0
 27 24  1  0  0  0  0
 22 17  1  0  0  0  0
 21 18  1  0  0  0  0
 24 19  2  0  0  0  0
 20 19  1  0  0  0  0
 21 20  2  0  0  0  0
 22 21  1  0  0  0  0
 23 22  2  0  0  0  0
 24 23  1  0  0  0  0
 29 25  1  0  0  0  0
 29 26  2  0  0  0  0
 28 27  2  0  0  0  0
 29 28  1  0  0  0  0
  1  2  1  0  0  0  0
  2  3  1  0  0  0  0
  3  4  1  0  0  0  0
  4  5  1  0  0  0  0
  5  6  1  0  0  0  0
  1  6  1  0  0  0  0
  7  8  1  0  0  0  0
  6  7  1  1  0  0  0
  5  9  1  6  0  0  0
  4 10  1  1  0  0  0
  3 11  1  6  0  0  0
  2 13  1  1  0  0  0
M  END
>  <cdx:fragmentId>
102108

$$$$
