13558.cdx
  Mrv1902 05222410212D          

 31 34  0  0  0  0            999 V2000
    3.1039   -4.8881    0.0000 C   0  0  0  0  0  0  0  0  0  0  0  0
    3.1039   -5.7131    0.0000 C   0  0  0  0  0  0  0  0  0  0  0  0
    3.8184   -6.1256    0.0000 C   0  0  0  0  0  0  0  0  0  0  0  0
    4.5328   -5.7131    0.0000 C   0  0  0  0  0  0  0  0  0  0  0  0
    4.5328   -4.8881    0.0000 C   0  0  0  0  0  0  0  0  0  0  0  0
    3.8184   -4.4756    0.0000 C   0  0  0  0  0  0  0  0  0  0  0  0
    5.2473   -6.1256    0.0000 C   0  0  0  0  0  0  0  0  0  0  0  0
    5.9618   -5.7131    0.0000 C   0  0  0  0  0  0  0  0  0  0  0  0
    5.9618   -4.8881    0.0000 C   0  0  0  0  0  0  0  0  0  0  0  0
    5.2473   -4.4756    0.0000 O   0  0  0  0  0  0  0  0  0  0  0  0
    6.6763   -4.4756    0.0000 C   0  0  0  0  0  0  0  0  0  0  0  0
    6.6763   -3.6506    0.0000 C   0  0  0  0  0  0  0  0  0  0  0  0
    7.3907   -4.8881    0.0000 C   0  0  0  0  0  0  0  0  0  0  0  0
    8.1052   -4.4756    0.0000 C   0  0  0  0  0  0  0  0  0  0  0  0
    8.1052   -3.6506    0.0000 C   0  0  0  0  0  0  0  0  0  0  0  0
    7.3907   -3.2381    0.0000 C   0  0  0  0  0  0  0  0  0  0  0  0
    8.8197   -3.2381    0.0000 O   0  0  0  0  0  0  0  0  0  0  0  0
    5.2473   -6.9506    0.0000 O   0  0  0  0  0  0  0  0  0  0  0  0
    2.3894   -4.4756    0.0000 O   0  0  0  0  0  0  0  0  0  0  0  0
    3.8184   -6.9506    0.0000 O   0  0  0  0  0  0  0  0  0  0  0  0
   10.2696   -4.9037    0.0000 C   0  0  2  0  0  0  0  0  0  0  0  0
   10.9820   -4.4876    0.0000 C   0  0  2  0  0  0  0  0  0  0  0  0
   10.9778   -3.6626    0.0000 C   0  0  1  0  0  0  0  0  0  0  0  0
   10.2613   -3.2537    0.0000 C   0  0  2  0  0  0  0  0  0  0  0  0
    9.5489   -3.6698    0.0000 C   0  0  1  0  0  0  0  0  0  0  0  0
    9.5530   -4.4948    0.0000 O   0  0  0  0  0  0  0  0  0  0  0  0
   10.2737   -5.7287    0.0000 C   0  0  0  0  0  0  0  0  0  0  0  0
   11.6902   -3.2465    0.0000 O   0  0  0  0  0  0  0  0  0  0  0  0
   10.2572   -2.4287    0.0000 O   0  0  0  0  0  0  0  0  0  0  0  0
   11.6985   -4.8965    0.0000 O   0  0  0  0  0  0  0  0  0  0  0  0
   10.9902   -6.1376    0.0000 O   0  0  0  0  0  0  0  0  0  0  0  0
  1  2  2  0  0  0  0
  2  3  1  0  0  0  0
  3  4  2  0  0  0  0
  4  5  1  0  0  0  0
  5  6  2  0  0  0  0
  6  1  1  0  0  0  0
  4  7  1  0  0  0  0
  7  8  1  0  0  0  0
  8  9  1  0  0  0  0
  9 10  1  0  0  0  0
 10  5  1  0  0  0  0
  9 11  1  0  0  0  0
 11 12  1  0  0  0  0
 11 13  2  0  0  0  0
 13 14  1  0  0  0  0
 14 15  2  0  0  0  0
 15 16  1  0  0  0  0
 16 12  2  0  0  0  0
 15 17  1  0  0  0  0
  7 18  2  0  0  0  0
  1 19  1  0  0  0  0
  3 20  1  0  0  0  0
 21 22  1  0  0  0  0
 22 23  1  0  0  0  0
 23 24  1  0  0  0  0
 24 25  1  0  0  0  0
 25 26  1  0  0  0  0
 26 21  1  0  0  0  0
 21 27  1  1  0  0  0
 23 28  1  1  0  0  0
 24 29  1  6  0  0  0
 22 30  1  6  0  0  0
 27 31  1  0  0  0  0
 25 17  1  1  0  0  0
M  END
>  <cdx:fragmentId>
5

$$$$
