13555.cdx
  Mrv1902 05222410252D          

 20 21  0  0  0  0            999 V2000
    4.4170   -7.7344    0.0000 C   0  0  0  0  0  0  0  0  0  0  0  0
    4.4170   -8.5594    0.0000 C   0  0  2  0  0  0  0  0  0  0  0  0
    5.1315   -8.9719    0.0000 C   0  0  2  0  0  0  0  0  0  0  0  0
    5.8460   -8.5594    0.0000 C   0  0  0  0  0  0  0  0  0  0  0  0
    5.8460   -7.7344    0.0000 C   0  0  1  0  0  0  0  0  0  0  0  0
    5.1315   -7.3219    0.0000 C   0  0  0  0  0  0  0  0  0  0  0  0
    7.2749   -8.5594    0.0000 C   0  0  0  0  0  0  0  0  0  0  0  0
    7.2749   -7.7344    0.0000 C   0  0  0  0  0  0  0  0  0  0  0  0
    6.5604   -7.3219    0.0000 C   0  0  0  0  0  0  0  0  0  0  0  0
    7.9894   -7.3219    0.0000 C   0  0  0  0  0  0  0  0  0  0  0  0
    7.9894   -6.4969    0.0000 O   0  0  0  0  0  0  0  0  0  0  0  0
    8.7039   -7.7344    0.0000 O   0  0  0  0  0  0  0  0  0  0  0  0
    3.6324   -7.4794    0.0000 C   0  0  0  0  0  0  0  0  0  0  0  0
    3.1475   -8.1469    0.0000 C   0  0  0  0  0  0  0  0  0  0  0  0
    3.6324   -8.8143    0.0000 C   0  0  0  0  0  0  0  0  0  0  0  0
    3.4189   -6.6825    0.0000 C   0  0  0  0  0  0  0  0  0  0  0  0
    5.1315   -9.7969    0.0000 C   0  0  0  0  0  0  0  0  0  0  0  0
    4.4170   -9.3844    0.0000 H   0  0  0  0  0  0  0  0  0  0  0  0
    5.8460   -9.3844    0.0000 H   0  0  0  0  0  0  0  0  0  0  0  0
    5.8460   -6.9094    0.0000 H   0  0  0  0  0  0  0  0  0  0  0  0
  1  2  1  0  0  0  0
  2  3  1  0  0  0  0
  3  4  1  0  0  0  0
  4  5  1  0  0  0  0
  5  6  1  0  0  0  0
  6  1  1  0  0  0  0
  7  8  1  0  0  0  0
  8  9  2  0  0  0  0
  9  5  1  0  0  0  0
 10  8  1  0  0  0  0
  1 13  2  0  0  0  0
 13 14  1  0  0  0  0
 14 15  1  0  0  0  0
 15  2  1  0  0  0  0
 13 16  1  0  0  0  0
  3 17  1  0  0  0  0
  2 18  1  1  0  0  0
  3 19  1  1  0  0  0
  5 20  1  6  0  0  0
 10 11  2  0  0  0  0
 10 12  1  0  0  0  0
M  STY  1   1 SUP
M  SAL   1  3  10  11  12
M  SBL   1  1  10
M  SMT   1 COOH
M  SAP   1  1  10   8  1
M  END
>  <cdx:fragmentId>
5

$$$$
