13556.cdx
  Mrv1902 05222410252D          

 18 19  0  0  0  0            999 V2000
    4.8295   -6.9094    0.0000 C   0  0  0  0  0  0  0  0  0  0  0  0
    4.8295   -7.7344    0.0000 C   0  0  0  0  0  0  0  0  0  0  0  0
    5.5440   -8.1469    0.0000 C   0  0  0  0  0  0  0  0  0  0  0  0
    6.2585   -7.7344    0.0000 C   0  0  0  0  0  0  0  0  0  0  0  0
    6.2585   -6.9094    0.0000 C   0  0  0  0  0  0  0  0  0  0  0  0
    5.5440   -6.4969    0.0000 C   0  0  0  0  0  0  0  0  0  0  0  0
    6.9729   -8.1469    0.0000 C   0  0  0  0  0  0  0  0  0  0  0  0
    7.6874   -7.7344    0.0000 C   0  0  0  0  0  0  0  0  0  0  0  0
    7.6874   -6.9094    0.0000 C   0  0  0  0  0  0  0  0  0  0  0  0
    6.9729   -6.4969    0.0000 C   0  0  0  0  0  0  0  0  0  0  0  0
    5.5440   -8.9719    0.0000 C   0  0  0  0  0  0  0  0  0  0  0  0
    6.2585   -8.5594    0.0000 C   0  0  0  0  0  0  0  0  0  0  0  0
    8.4019   -8.1469    0.0000 O   0  0  0  0  0  0  0  0  0  0  0  0
    6.9729   -5.6719    0.0000 O   0  0  0  0  0  0  0  0  0  0  0  0
    6.9729   -8.9719    0.0000 C   0  0  0  0  0  0  0  0  0  0  0  0
    6.9729   -9.7969    0.0000 O   0  0  0  0  0  0  0  0  0  0  0  0
    7.6874   -9.3844    0.0000 C   0  0  0  0  0  0  0  0  0  0  0  0
    6.2585   -9.3844    0.0000 C   0  0  0  0  0  0  0  0  0  0  0  0
  1  2  1  0  0  0  0
  2  3  1  0  0  0  0
  3  4  1  0  0  0  0
  4  5  1  0  0  0  0
  5  6  2  0  0  0  0
  6  1  1  0  0  0  0
  4  7  1  0  0  0  0
  7  8  1  0  0  0  0
  8  9  1  0  0  0  0
  9 10  1  0  0  0  0
 10  5  1  0  0  0  0
  3 11  1  0  0  0  0
  4 12  1  0  0  0  0
  8 13  1  0  0  0  0
 10 14  2  0  0  0  0
  7 15  1  0  0  0  0
 15 16  1  0  0  0  0
 15 17  1  0  0  0  0
 15 18  1  0  0  0  0
M  END
>  <cdx:fragmentId>
5

$$$$
