13554.cdx
  Mrv1902 05222410252D          

 15 16  0  0  0  0            999 V2000
    5.3039   -7.1775    0.0000 C   0  0  0  0  0  0  0  0  0  0  0  0
    5.3039   -8.0025    0.0000 C   0  0  0  0  0  0  0  0  0  0  0  0
    6.0184   -8.4150    0.0000 C   0  0  0  0  0  0  0  0  0  0  0  0
    6.7328   -8.0025    0.0000 C   0  0  0  0  0  0  0  0  0  0  0  0
    6.7328   -7.1775    0.0000 C   0  0  0  0  0  0  0  0  0  0  0  0
    6.0184   -6.7650    0.0000 C   0  0  0  0  0  0  0  0  0  0  0  0
    4.6908   -8.5545    0.0000 C   0  0  0  0  0  0  0  0  0  0  0  0
    5.0264   -9.3082    0.0000 C   0  0  0  0  0  0  0  0  0  0  0  0
    5.8468   -9.2220    0.0000 C   0  0  0  0  0  0  0  0  0  0  0  0
    4.5894   -6.7650    0.0000 C   0  0  0  0  0  0  0  0  0  0  0  0
    7.5578   -7.1775    0.0000 C   0  0  0  0  0  0  0  0  0  0  0  0
    8.1412   -7.7609    0.0000 C   0  0  0  0  0  0  0  0  0  0  0  0
    8.9662   -7.7609    0.0000 C   0  0  0  0  0  0  0  0  0  0  0  0
    8.1412   -8.5859    0.0000 C   0  0  0  0  0  0  0  0  0  0  0  0
    6.4302   -9.8053    0.0000 C   0  0  0  0  0  0  0  0  0  0  0  0
  1  2  1  0  0  0  0
  2  3  1  0  0  0  0
  3  4  1  0  0  0  0
  4  5  1  0  0  0  0
  5  6  1  0  0  0  0
  6  1  1  0  0  0  0
  2  7  1  0  0  0  0
  7  8  1  0  0  0  0
  8  9  1  0  0  0  0
  9  3  1  0  0  0  0
  1 10  1  0  0  0  0
  5 11  1  0  0  0  0
 11 12  2  0  0  0  0
 12 13  1  0  0  0  0
 12 14  1  0  0  0  0
  9 15  1  0  0  0  0
M  END
>  <cdx:fragmentId>
5

$$$$
