13559.cdx
  Mrv1902 05222410212D          

 31 34  0  0  0  0            999 V2000
    2.4164   -6.3731    0.0000 C   0  0  0  0  0  0  0  0  0  0  0  0
    2.4164   -7.1981    0.0000 C   0  0  0  0  0  0  0  0  0  0  0  0
    3.1309   -7.6106    0.0000 C   0  0  0  0  0  0  0  0  0  0  0  0
    3.8453   -7.1981    0.0000 C   0  0  0  0  0  0  0  0  0  0  0  0
    3.8453   -6.3731    0.0000 C   0  0  0  0  0  0  0  0  0  0  0  0
    3.1309   -5.9606    0.0000 C   0  0  0  0  0  0  0  0  0  0  0  0
    4.5598   -7.6106    0.0000 C   0  0  0  0  0  0  0  0  0  0  0  0
    5.2743   -7.1981    0.0000 C   0  0  0  0  0  0  0  0  0  0  0  0
    5.2743   -6.3731    0.0000 C   0  0  0  0  0  0  0  0  0  0  0  0
    4.5598   -5.9606    0.0000 O   0  0  0  0  0  0  0  0  0  0  0  0
    5.9888   -5.9606    0.0000 C   0  0  0  0  0  0  0  0  0  0  0  0
    5.9888   -5.1356    0.0000 C   0  0  0  0  0  0  0  0  0  0  0  0
    6.7032   -6.3731    0.0000 C   0  0  0  0  0  0  0  0  0  0  0  0
    7.4177   -5.9606    0.0000 C   0  0  0  0  0  0  0  0  0  0  0  0
    7.4177   -5.1356    0.0000 C   0  0  0  0  0  0  0  0  0  0  0  0
    6.7032   -4.7231    0.0000 C   0  0  0  0  0  0  0  0  0  0  0  0
    8.1322   -4.7231    0.0000 O   0  0  0  0  0  0  0  0  0  0  0  0
    4.5598   -8.4356    0.0000 O   0  0  0  0  0  0  0  0  0  0  0  0
    1.7019   -5.9606    0.0000 O   0  0  0  0  0  0  0  0  0  0  0  0
    3.1309   -8.4356    0.0000 O   0  0  0  0  0  0  0  0  0  0  0  0
    2.3832  -10.5197    0.0000 C   0  0  2  0  0  0  0  0  0  0  0  0
    3.0938  -10.9389    0.0000 C   0  0  2  0  0  0  0  0  0  0  0  0
    3.8121  -10.5331    0.0000 C   0  0  1  0  0  0  0  0  0  0  0  0
    3.8198   -9.7081    0.0000 C   0  0  2  0  0  0  0  0  0  0  0  0
    3.1092   -9.2890    0.0000 C   0  0  1  0  0  0  0  0  0  0  0  0
    2.3909   -9.6948    0.0000 O   0  0  0  0  0  0  0  0  0  0  0  0
    1.6650  -10.9256    0.0000 C   0  0  0  0  0  0  0  0  0  0  0  0
    4.5227  -10.9522    0.0000 O   0  0  0  0  0  0  0  0  0  0  0  0
    4.5381   -9.3023    0.0000 O   0  0  0  0  0  0  0  0  0  0  0  0
    3.0861  -11.7639    0.0000 O   0  0  0  0  0  0  0  0  0  0  0  0
    1.6573  -11.7505    0.0000 O   0  0  0  0  0  0  0  0  0  0  0  0
  1  2  2  0  0  0  0
  2  3  1  0  0  0  0
  3  4  2  0  0  0  0
  4  5  1  0  0  0  0
  5  6  2  0  0  0  0
  6  1  1  0  0  0  0
  4  7  1  0  0  0  0
  7  8  1  0  0  0  0
  8  9  1  0  0  0  0
  9 10  1  0  0  0  0
 10  5  1  0  0  0  0
  9 11  1  0  0  0  0
 11 12  1  0  0  0  0
 11 13  2  0  0  0  0
 13 14  1  0  0  0  0
 14 15  2  0  0  0  0
 15 16  1  0  0  0  0
 16 12  2  0  0  0  0
 15 17  1  0  0  0  0
  7 18  2  0  0  0  0
  1 19  1  0  0  0  0
  3 20  1  0  0  0  0
 21 22  1  0  0  0  0
 22 23  1  0  0  0  0
 23 24  1  0  0  0  0
 24 25  1  0  0  0  0
 25 26  1  0  0  0  0
 26 21  1  0  0  0  0
 21 27  1  1  0  0  0
 23 28  1  1  0  0  0
 24 29  1  6  0  0  0
 22 30  1  6  0  0  0
 27 31  1  0  0  0  0
 25 20  1  1  0  0  0
M  END
>  <cdx:fragmentId>
5

$$$$
