13560.cdx
  Mrv1902 05222410232D          

 32 35  0  0  0  0            999 V2000
    7.9516  -10.3661    0.0000 O   0  0  0  0  0  0  0  0  0  0  0  0
    6.5226   -7.8911    0.0000 O   0  0  0  0  0  0  0  0  0  0  0  0
   12.9529   -6.6536    0.0000 O   0  0  0  0  0  0  0  0  0  0  0  0
   10.8095   -7.0661    0.0000 C   0  0  0  0  0  0  0  0  0  0  0  0
   11.5239   -6.6536    0.0000 C   0  0  0  0  0  0  0  0  0  0  0  0
   12.2384   -7.0661    0.0000 C   0  0  0  0  0  0  0  0  0  0  0  0
   12.2384   -7.8911    0.0000 C   0  0  0  0  0  0  0  0  0  0  0  0
   11.5239   -8.3036    0.0000 C   0  0  0  0  0  0  0  0  0  0  0  0
   10.8095   -7.8911    0.0000 C   0  0  0  0  0  0  0  0  0  0  0  0
    9.3805  -10.3661    0.0000 O   0  0  0  0  0  0  0  0  0  0  0  0
    9.3805   -7.8911    0.0000 O   0  0  0  0  0  0  0  0  0  0  0  0
    8.6660   -8.3036    0.0000 C   0  0  0  0  0  0  0  0  0  0  0  0
    7.9516   -7.8911    0.0000 C   0  0  0  0  0  0  0  0  0  0  0  0
    7.2371   -8.3036    0.0000 C   0  0  0  0  0  0  0  0  0  0  0  0
    7.2371   -9.1286    0.0000 C   0  0  0  0  0  0  0  0  0  0  0  0
    7.9516   -9.5411    0.0000 C   0  0  0  0  0  0  0  0  0  0  0  0
    8.6660   -9.1286    0.0000 C   0  0  0  0  0  0  0  0  0  0  0  0
    9.3805   -9.5411    0.0000 C   0  0  0  0  0  0  0  0  0  0  0  0
   10.0950   -9.1286    0.0000 C   0  0  0  0  0  0  0  0  0  0  0  0
   10.0950   -8.3036    0.0000 C   0  0  1  0  0  0  0  0  0  0  0  0
    5.8082   -8.3036    0.0000 C   0  0  2  0  0  0  0  0  0  0  0  0
    5.0937   -7.8911    0.0000 O   0  0  0  0  0  0  0  0  0  0  0  0
    4.3792   -8.3036    0.0000 C   0  0  1  0  0  0  0  0  0  0  0  0
    4.3792   -9.1286    0.0000 C   0  0  2  0  0  0  0  0  0  0  0  0
    5.0937   -9.5411    0.0000 C   0  0  1  0  0  0  0  0  0  0  0  0
    5.8082   -9.1286    0.0000 C   0  0  1  0  0  0  0  0  0  0  0  0
    3.6647   -7.8911    0.0000 C   0  0  0  0  0  0  0  0  0  0  0  0
    5.0937  -10.3661    0.0000 O   0  0  0  0  0  0  0  0  0  0  0  0
    3.6647   -9.5411    0.0000 O   0  0  0  0  0  0  0  0  0  0  0  0
    6.5226   -9.5411    0.0000 O   0  0  0  0  0  0  0  0  0  0  0  0
    2.9503   -8.3036    0.0000 O   0  0  0  0  0  0  0  0  0  0  0  0
    3.6647   -7.0661    0.0000 O   0  0  0  0  0  0  0  0  0  0  0  0
 16  1  1  0  0  0  0
 14  2  1  0  0  0  0
 20  9  1  6  0  0  0
  6  3  1  0  0  0  0
  9  4  2  0  0  0  0
  5  4  1  0  0  0  0
  6  5  2  0  0  0  0
  7  6  1  0  0  0  0
  8  7  2  0  0  0  0
  9  8  1  0  0  0  0
 18 10  2  0  0  0  0
 20 11  1  0  0  0  0
 12 11  1  0  0  0  0
 17 12  2  0  0  0  0
 13 12  1  0  0  0  0
 14 13  2  0  0  0  0
 15 14  1  0  0  0  0
 16 15  2  0  0  0  0
 17 16  1  0  0  0  0
 18 17  1  0  0  0  0
 19 18  1  0  0  0  0
 20 19  1  0  0  0  0
 21  2  1  1  0  0  0
 21 22  1  0  0  0  0
 22 23  1  0  0  0  0
 23 24  1  0  0  0  0
 24 25  1  0  0  0  0
 25 26  1  0  0  0  0
 26 21  1  0  0  0  0
 23 27  1  1  0  0  0
 25 28  1  1  0  0  0
 24 29  1  6  0  0  0
 26 30  1  6  0  0  0
 27 31  1  0  0  0  0
 27 32  2  0  0  0  0
M  END
>  <cdx:fragmentId>
5

$$$$
