13561.cdx
  Mrv1902 05222410232D          

 12 11  0  0  0  0            999 V2000
    1.4601   -3.6022    0.0000 C   0  0  0  0  0  0  0  0  0  0  0  0
    2.1746   -3.1897    0.0000 C   0  0  0  0  0  0  0  0  0  0  0  0
    2.8891   -3.6022    0.0000 C   0  0  0  0  0  0  0  0  0  0  0  0
    3.6036   -3.1897    0.0000 C   0  0  0  0  0  0  0  0  0  0  0  0
    4.3180   -3.6022    0.0000 C   0  0  0  0  0  0  0  0  0  0  0  0
    5.0325   -3.1897    0.0000 C   0  0  0  0  0  0  0  0  0  0  0  0
    5.7470   -3.6022    0.0000 C   0  0  0  0  0  0  0  0  0  0  0  0
    6.4614   -3.1897    0.0000 C   0  0  0  0  0  0  0  0  0  0  0  0
    7.1759   -3.6022    0.0000 C   0  0  0  0  0  0  0  0  0  0  0  0
    7.8904   -3.1897    0.0000 C   0  0  0  0  0  0  0  0  0  0  0  0
    8.6049   -3.6022    0.0000 C   0  0  0  0  0  0  0  0  0  0  0  0
    5.0325   -2.3647    0.0000 O   0  0  0  0  0  0  0  0  0  0  0  0
  1  2  1  0  0  0  0
  2  3  1  0  0  0  0
  3  4  1  0  0  0  0
  4  5  1  0  0  0  0
  5  6  1  0  0  0  0
  6  7  1  0  0  0  0
  7  8  1  0  0  0  0
  8  9  1  0  0  0  0
  9 10  1  0  0  0  0
 10 11  1  0  0  0  0
  6 12  2  0  0  0  0
M  END
>  <cdx:groupId>
37

>  <cdx:fragmentId>
5

$$$$
