13571.cdx
  Mrv1902 05222410212D          

 52 57  0  0  0  0            999 V2000
    7.1243  -10.4063    0.0000 C   0  0  0  0  0  0  0  0  0  0  0  0
    7.1243  -11.2313    0.0000 C   0  0  0  0  0  0  0  0  0  0  0  0
    7.8387  -11.6438    0.0000 C   0  0  0  0  0  0  0  0  0  0  0  0
    8.5532  -11.2313    0.0000 C   0  0  0  0  0  0  0  0  0  0  0  0
    8.5532  -10.4063    0.0000 C   0  0  0  0  0  0  0  0  0  0  0  0
    7.8387   -9.9937    0.0000 C   0  0  0  0  0  0  0  0  0  0  0  0
    9.2677  -11.6438    0.0000 C   0  0  0  0  0  0  0  0  0  0  0  0
    9.9821  -11.2313    0.0000 C   0  0  0  0  0  0  0  0  0  0  0  0
    9.9821  -10.4063    0.0000 C   0  0  0  0  0  0  0  0  0  0  0  0
    9.2677   -9.9937    0.0000 O   0  0  0  0  0  0  0  0  0  0  0  0
   10.6966   -9.9937    0.0000 C   0  0  0  0  0  0  0  0  0  0  0  0
   10.6966   -9.1687    0.0000 C   0  0  0  0  0  0  0  0  0  0  0  0
   11.4111  -10.4063    0.0000 C   0  0  0  0  0  0  0  0  0  0  0  0
   12.1256   -9.9937    0.0000 C   0  0  0  0  0  0  0  0  0  0  0  0
   12.1256   -9.1687    0.0000 C   0  0  0  0  0  0  0  0  0  0  0  0
   11.4111   -8.7562    0.0000 C   0  0  0  0  0  0  0  0  0  0  0  0
   12.8400   -8.7562    0.0000 O   0  0  0  0  0  0  0  0  0  0  0  0
    9.2677  -12.4688    0.0000 O   0  0  0  0  0  0  0  0  0  0  0  0
    7.8387  -12.4688    0.0000 O   0  0  0  0  0  0  0  0  0  0  0  0
    6.4098   -9.9937    0.0000 O   0  0  0  0  0  0  0  0  0  0  0  0
    7.1052   -7.9063    0.0000 C   0  0  2  0  0  0  0  0  0  0  0  0
    6.3883   -7.4980    0.0000 C   0  0  2  0  0  0  0  0  0  0  0  0
    5.6762   -7.9146    0.0000 C   0  0  1  0  0  0  0  0  0  0  0  0
    5.6810   -8.7396    0.0000 C   0  0  2  0  0  0  0  0  0  0  0  0
    6.3979   -9.1479    0.0000 C   0  0  1  0  0  0  0  0  0  0  0  0
    7.1100   -8.7313    0.0000 O   0  0  0  0  0  0  0  0  0  0  0  0
    7.8172   -7.4896    0.0000 C   0  0  0  0  0  0  0  0  0  0  0  0
    7.8124   -6.6646    0.0000 O   0  0  0  0  0  0  0  0  0  0  0  0
    6.3835   -6.6730    0.0000 O   0  0  0  0  0  0  0  0  0  0  0  0
    8.5245   -6.2480    0.0000 C   0  0  1  0  0  0  0  0  0  0  0  0
    8.5197   -5.4230    0.0000 C   0  0  2  0  0  0  0  0  0  0  0  0
    7.8028   -5.0147    0.0000 O   0  0  0  0  0  0  0  0  0  0  0  0
    9.2413   -6.6563    0.0000 O   0  0  0  0  0  0  0  0  0  0  0  0
    9.9534   -6.2397    0.0000 C   0  0  2  0  0  0  0  0  0  0  0  0
    9.9486   -5.4147    0.0000 C   0  0  1  0  0  0  0  0  0  0  0  0
    9.2317   -5.0063    0.0000 C   0  0  1  0  0  0  0  0  0  0  0  0
    4.9594   -7.5063    0.0000 O   0  0  0  0  0  0  0  0  0  0  0  0
    4.2473   -7.9229    0.0000 O   0  0  0  0  0  0  0  0  0  0  0  0
    4.2521   -8.7479    0.0000 C   0  0  1  0  0  0  0  0  0  0  0  0
    4.9690   -9.1563    0.0000 O   0  0  0  0  0  0  0  0  0  0  0  0
    3.5305   -7.5146    0.0000 C   0  0  1  0  0  0  0  0  0  0  0  0
    2.8184   -7.9313    0.0000 C   0  0  2  0  0  0  0  0  0  0  0  0
    2.8232   -8.7563    0.0000 C   0  0  1  0  0  0  0  0  0  0  0  0
    3.5401   -9.1646    0.0000 C   0  0  1  0  0  0  0  0  0  0  0  0
   10.6606   -4.9980    0.0000 O   0  0  0  0  0  0  0  0  0  0  0  0
    3.5256   -6.6896    0.0000 C   0  0  0  0  0  0  0  0  0  0  0  0
    2.1112   -9.1729    0.0000 O   0  0  0  0  0  0  0  0  0  0  0  0
    2.1015   -7.5229    0.0000 O   0  0  0  0  0  0  0  0  0  0  0  0
    3.5449   -9.9896    0.0000 O   0  0  0  0  0  0  0  0  0  0  0  0
   10.6702   -6.6480    0.0000 C   0  0  0  0  0  0  0  0  0  0  0  0
    9.2269   -4.1814    0.0000 O   0  0  0  0  0  0  0  0  0  0  0  0
    4.2377   -6.2730    0.0000 O   0  0  0  0  0  0  0  0  0  0  0  0
  1  2  2  0  0  0  0
  2  3  1  0  0  0  0
  3  4  2  0  0  0  0
  4  5  1  0  0  0  0
  5  6  2  0  0  0  0
  6  1  1  0  0  0  0
  4  7  1  0  0  0  0
  7  8  1  0  0  0  0
  8  9  2  0  0  0  0
  9 10  1  0  0  0  0
 10  5  1  0  0  0  0
  9 11  1  0  0  0  0
 11 12  1  0  0  0  0
 11 13  2  0  0  0  0
 13 14  1  0  0  0  0
 14 15  2  0  0  0  0
 15 16  1  0  0  0  0
 16 12  2  0  0  0  0
 15 17  1  0  0  0  0
  7 18  2  0  0  0  0
  3 19  1  0  0  0  0
  1 20  1  0  0  0  0
 21 22  1  0  0  0  0
 22 23  1  0  0  0  0
 23 24  1  0  0  0  0
 24 25  1  0  0  0  0
 25 26  1  0  0  0  0
 26 21  1  0  0  0  0
 21 27  1  1  0  0  0
 27 28  1  0  0  0  0
 22 29  1  6  0  0  0
 30 28  1  1  0  0  0
 30 31  1  0  0  0  0
 31 32  1  6  0  0  0
 30 33  1  0  0  0  0
 33 34  1  0  0  0  0
 34 35  1  0  0  0  0
 35 36  1  0  0  0  0
 36 31  1  0  0  0  0
 23 37  1  1  0  0  0
 38 39  1  0  0  0  0
 39 40  1  1  0  0  0
 24 40  1  6  0  0  0
 38 41  1  0  0  0  0
 41 42  1  0  0  0  0
 42 43  1  0  0  0  0
 43 44  1  0  0  0  0
 44 39  1  0  0  0  0
 35 45  1  1  0  0  0
 41 46  1  1  0  0  0
 43 47  1  1  0  0  0
 42 48  1  6  0  0  0
 44 49  1  6  0  0  0
 34 50  1  6  0  0  0
 36 51  1  6  0  0  0
 46 52  1  0  0  0  0
 25 20  1  1  0  0  0
M  END
>  <cdx:fragmentId>
369

$$$$
