13570.cdx
  Mrv1902 05222410212D          

 42 46  0  0  0  0            999 V2000
    7.3757  -11.4317    0.0000 O   0  0  0  0  0  0  0  0  0  0  0  0
    5.9468   -8.9567    0.0000 O   0  0  0  0  0  0  0  0  0  0  0  0
   12.3770   -7.7192    0.0000 O   0  0  0  0  0  0  0  0  0  0  0  0
   10.2336   -8.1317    0.0000 C   0  0  0  0  0  0  0  0  0  0  0  0
   10.9481   -7.7192    0.0000 C   0  0  0  0  0  0  0  0  0  0  0  0
   11.6625   -8.1317    0.0000 C   0  0  0  0  0  0  0  0  0  0  0  0
   11.6625   -8.9567    0.0000 C   0  0  0  0  0  0  0  0  0  0  0  0
   10.9481   -9.3692    0.0000 C   0  0  0  0  0  0  0  0  0  0  0  0
   10.2336   -8.9567    0.0000 C   0  0  0  0  0  0  0  0  0  0  0  0
    8.8047  -11.4317    0.0000 O   0  0  0  0  0  0  0  0  0  0  0  0
    8.8047   -8.9567    0.0000 O   0  0  0  0  0  0  0  0  0  0  0  0
    8.0902   -9.3692    0.0000 C   0  0  0  0  0  0  0  0  0  0  0  0
    7.3757   -8.9567    0.0000 C   0  0  0  0  0  0  0  0  0  0  0  0
    6.6613   -9.3692    0.0000 C   0  0  0  0  0  0  0  0  0  0  0  0
    6.6613  -10.1942    0.0000 C   0  0  0  0  0  0  0  0  0  0  0  0
    7.3757  -10.6067    0.0000 C   0  0  0  0  0  0  0  0  0  0  0  0
    8.0902  -10.1942    0.0000 C   0  0  0  0  0  0  0  0  0  0  0  0
    8.8047  -10.6067    0.0000 C   0  0  0  0  0  0  0  0  0  0  0  0
    9.5191  -10.1942    0.0000 C   0  0  0  0  0  0  0  0  0  0  0  0
    9.5191   -9.3692    0.0000 C   0  0  1  0  0  0  0  0  0  0  0  0
    6.6686   -7.7337    0.0000 O   0  0  0  0  0  0  0  0  0  0  0  0
    5.9535   -8.1452    0.0000 C   0  0  2  0  0  0  0  0  0  0  0  0
    5.2396   -7.7318    0.0000 C   0  0  1  0  0  0  0  0  0  0  0  0
    5.2408   -6.9068    0.0000 C   0  0  2  0  0  0  0  0  0  0  0  0
    5.9558   -6.4952    0.0000 C   0  0  1  0  0  0  0  0  0  0  0  0
    6.6697   -6.9087    0.0000 C   0  0  1  0  0  0  0  0  0  0  0  0
    4.5268   -6.4933    0.0000 O   0  0  0  0  0  0  0  0  0  0  0  0
    5.9569   -5.6702    0.0000 O   0  0  0  0  0  0  0  0  0  0  0  0
    7.3847   -6.4972    0.0000 C   0  0  0  0  0  0  0  0  0  0  0  0
    7.3859   -5.6722    0.0000 O   0  0  0  0  0  0  0  0  0  0  0  0
    3.0945   -8.9663    0.0000 O   0  0  0  0  0  0  0  0  0  0  0  0
    1.6667   -8.1394    0.0000 O   0  0  0  0  0  0  0  0  0  0  0  0
    1.6690   -6.4894    0.0000 O   0  0  0  0  0  0  0  0  0  0  0  0
    2.3851   -5.2528    0.0000 O   0  0  0  0  0  0  0  0  0  0  0  0
    3.0990   -5.6663    0.0000 C   0  0  0  0  0  0  0  0  0  0  0  0
    3.0979   -6.4913    0.0000 C   0  0  2  0  0  0  0  0  0  0  0  0
    2.3829   -6.9028    0.0000 C   0  0  2  0  0  0  0  0  0  0  0  0
    2.3817   -7.7278    0.0000 C   0  0  1  0  0  0  0  0  0  0  0  0
    3.0956   -8.1413    0.0000 C   0  0  2  0  0  0  0  0  0  0  0  0
    3.8107   -7.7298    0.0000 C   0  0  1  0  0  0  0  0  0  0  0  0
    3.8118   -6.9048    0.0000 O   0  0  0  0  0  0  0  0  0  0  0  0
    4.5246   -8.1433    0.0000 O   0  0  0  0  0  0  0  0  0  0  0  0
 16  1  1  0  0  0  0
 14  2  1  0  0  0  0
 20  9  1  6  0  0  0
  6  3  1  0  0  0  0
  9  4  2  0  0  0  0
  5  4  1  0  0  0  0
  6  5  2  0  0  0  0
  7  6  1  0  0  0  0
  8  7  2  0  0  0  0
  9  8  1  0  0  0  0
 18 10  2  0  0  0  0
 20 11  1  0  0  0  0
 12 11  1  0  0  0  0
 17 12  2  0  0  0  0
 13 12  1  0  0  0  0
 14 13  2  0  0  0  0
 15 14  1  0  0  0  0
 16 15  2  0  0  0  0
 17 16  1  0  0  0  0
 18 17  1  0  0  0  0
 19 18  1  0  0  0  0
 20 19  1  0  0  0  0
 40 42  1  1  0  0  0
 39 31  1  6  0  0  0
 38 32  1  1  0  0  0
 37 33  1  6  0  0  0
 36 35  1  1  0  0  0
 35 34  1  0  0  0  0
 41 36  1  0  0  0  0
 37 36  1  0  0  0  0
 38 37  1  0  0  0  0
 39 38  1  0  0  0  0
 40 39  1  0  0  0  0
 41 40  1  0  0  0  0
 21 22  1  0  0  0  0
 22 23  1  0  0  0  0
 23 24  1  0  0  0  0
 24 25  1  0  0  0  0
 25 26  1  0  0  0  0
 21 26  1  0  0  0  0
 24 27  1  1  0  0  0
 25 28  1  6  0  0  0
 23 42  1  6  0  0  0
 29 30  1  0  0  0  0
 26 29  1  1  0  0  0
 22  2  1  1  0  0  0
M  END
>  <cdx:fragmentId>
88

$$$$
