13572.cdx
  Mrv1902 05222410212D          

  9  8  0  0  0  0            999 V2000
    6.7387   -4.0354    0.0000 C   0  0  0  0  0  0  0  0  0  0  0  0
    6.0242   -3.6229    0.0000 C   0  0  0  0  0  0  0  0  0  0  0  0
    5.3097   -4.0354    0.0000 C   0  0  0  0  0  0  0  0  0  0  0  0
    4.5952   -3.6229    0.0000 C   0  0  0  0  0  0  0  0  0  0  0  0
    3.8808   -4.0354    0.0000 C   0  0  0  0  0  0  0  0  0  0  0  0
    3.1663   -3.6229    0.0000 C   0  0  0  0  0  0  0  0  0  0  0  0
    3.1663   -2.7979    0.0000 C   0  0  0  0  0  0  0  0  0  0  0  0
    6.0242   -2.7979    0.0000 O   0  0  0  0  0  0  0  0  0  0  0  0
    2.4518   -4.0354    0.0000 C   0  0  0  0  0  0  0  0  0  0  0  0
  1  2  1  0  0  0  0
  2  3  1  0  0  0  0
  3  4  1  0  0  0  0
  4  5  1  0  0  0  0
  5  6  1  0  0  0  0
  6  7  1  0  0  0  0
  2  8  2  0  0  0  0
  6  9  1  0  0  0  0
M  END
>  <cdx:groupId>
28

>  <cdx:fragmentId>
5

$$$$
