13584.cdx
  Mrv1902 05222410242D          

 25 24  0  0  0  0            999 V2000
    1.5420   -8.1339    0.0000 C   0  0  0  0  0  0  0  0  0  0  0  0
    2.2564   -7.7214    0.0000 O   0  0  0  0  0  0  0  0  0  0  0  0
    2.9709   -8.9589    0.0000 O   0  0  0  0  0  0  0  0  0  0  0  0
   17.9748   -7.7214    0.0000 C   0  0  0  0  0  0  0  0  0  0  0  0
   17.2603   -8.1339    0.0000 C   0  0  0  0  0  0  0  0  0  0  0  0
   16.5458   -7.7214    0.0000 C   0  0  0  0  0  0  0  0  0  0  0  0
   15.8314   -8.1339    0.0000 C   0  0  0  0  0  0  0  0  0  0  0  0
   15.1169   -7.7214    0.0000 C   0  0  0  0  0  0  0  0  0  0  0  0
   14.4024   -8.1339    0.0000 C   0  0  0  0  0  0  0  0  0  0  0  0
   13.6880   -7.7214    0.0000 C   0  0  0  0  0  0  0  0  0  0  0  0
   12.9735   -8.1339    0.0000 C   0  0  0  0  0  0  0  0  0  0  0  0
   12.2590   -7.7214    0.0000 C   0  0  0  0  0  0  0  0  0  0  0  0
   11.5446   -8.1339    0.0000 C   0  0  0  0  0  0  0  0  0  0  0  0
   10.8301   -7.7214    0.0000 C   0  0  0  0  0  0  0  0  0  0  0  0
   10.1156   -8.1339    0.0000 C   0  0  0  0  0  0  0  0  0  0  0  0
    9.4011   -7.7214    0.0000 C   0  0  0  0  0  0  0  0  0  0  0  0
    8.6867   -8.1339    0.0000 C   0  0  0  0  0  0  0  0  0  0  0  0
    7.9722   -7.7214    0.0000 C   0  0  0  0  0  0  0  0  0  0  0  0
    7.2577   -8.1339    0.0000 C   0  0  0  0  0  0  0  0  0  0  0  0
    6.5433   -7.7214    0.0000 C   0  0  0  0  0  0  0  0  0  0  0  0
    5.8288   -8.1339    0.0000 C   0  0  0  0  0  0  0  0  0  0  0  0
    5.1143   -7.7214    0.0000 C   0  0  0  0  0  0  0  0  0  0  0  0
    4.3998   -8.1339    0.0000 C   0  0  0  0  0  0  0  0  0  0  0  0
    3.6854   -7.7214    0.0000 C   0  0  0  0  0  0  0  0  0  0  0  0
    2.9709   -8.1339    0.0000 C   0  0  0  0  0  0  0  0  0  0  0  0
  2  1  1  0  0  0  0
 25  2  1  0  0  0  0
 25  3  2  0  0  0  0
  5  4  1  0  0  0  0
  6  5  1  0  0  0  0
  7  6  1  0  0  0  0
  8  7  1  0  0  0  0
  9  8  1  0  0  0  0
 10  9  1  0  0  0  0
 11 10  1  0  0  0  0
 12 11  1  0  0  0  0
 13 12  1  0  0  0  0
 14 13  1  0  0  0  0
 15 14  1  0  0  0  0
 16 15  1  0  0  0  0
 17 16  1  0  0  0  0
 18 17  1  0  0  0  0
 19 18  1  0  0  0  0
 20 19  1  0  0  0  0
 21 20  1  0  0  0  0
 22 21  1  0  0  0  0
 23 22  1  0  0  0  0
 24 23  1  0  0  0  0
 25 24  1  0  0  0  0
M  END
>  <cdx:fragmentId>
5

$$$$
