13588.cdx
  Mrv1902 05222410222D          

  6  6  0  0  0  0            999 V2000
    3.8142   -4.3686    0.0000 C   0  0  0  0  0  0  0  0  0  0  0  0
    3.5593   -5.1533    0.0000 C   0  0  0  0  0  0  0  0  0  0  0  0
    2.7343   -5.1533    0.0000 C   0  0  0  0  0  0  0  0  0  0  0  0
    2.4793   -4.3686    0.0000 C   0  0  0  0  0  0  0  0  0  0  0  0
    3.1468   -3.8837    0.0000 C   0  0  0  0  0  0  0  0  0  0  0  0
    4.5988   -4.1137    0.0000 O   0  0  0  0  0  0  0  0  0  0  0  0
  1  2  1  0  0  0  0
  2  3  2  0  0  0  0
  3  4  1  0  0  0  0
  4  5  1  0  0  0  0
  1  5  1  0  0  0  0
  1  6  2  0  0  0  0
M  END
>  <cdx:groupId>
20

>  <cdx:fragmentId>
5

$$$$
