13581.cdx
  Mrv1902 05222410252D          

 14 15  0  0  0  0            999 V2000
    4.8089   -7.4869    0.0000 C   0  0  0  0  0  0  0  0  0  0  0  0
    4.8089   -8.3119    0.0000 C   0  0  0  0  0  0  0  0  0  0  0  0
    5.5234   -8.7244    0.0000 C   0  0  0  0  0  0  0  0  0  0  0  0
    6.2378   -8.3119    0.0000 C   0  0  0  0  0  0  0  0  0  0  0  0
    6.2378   -7.4869    0.0000 C   0  0  0  0  0  0  0  0  0  0  0  0
    5.5234   -7.0744    0.0000 C   0  0  0  0  0  0  0  0  0  0  0  0
    7.0225   -8.5668    0.0000 C   0  0  0  0  0  0  0  0  0  0  0  0
    7.5074   -7.8994    0.0000 O   0  0  0  0  0  0  0  0  0  0  0  0
    7.0225   -7.2319    0.0000 C   0  0  0  0  0  0  0  0  0  0  0  0
    7.2360   -9.3637    0.0000 O   0  0  0  0  0  0  0  0  0  0  0  0
    7.2360   -6.4350    0.0000 C   0  0  0  0  0  0  0  0  0  0  0  0
    8.0329   -6.2215    0.0000 C   0  0  0  0  0  0  0  0  0  0  0  0
    8.2464   -5.4246    0.0000 C   0  0  0  0  0  0  0  0  0  0  0  0
    9.0433   -5.2111    0.0000 C   0  0  0  0  0  0  0  0  0  0  0  0
  1  2  2  0  0  0  0
  2  3  1  0  0  0  0
  3  4  2  0  0  0  0
  4  5  1  0  0  0  0
  5  6  2  0  0  0  0
  6  1  1  0  0  0  0
  4  7  1  0  0  0  0
  7  8  1  0  0  0  0
  8  9  1  0  0  0  0
  9  5  1  0  0  0  0
  7 10  2  0  0  0  0
  9 11  2  0  0  0  0
 11 12  1  0  0  0  0
 12 13  1  0  0  0  0
 13 14  1  0  0  0  0
M  END
>  <cdx:fragmentId>
5

$$$$
