135872.cdx
  Mrv1902 05222410242D          

 20 22  0  0  0  0            999 V2000
    8.6798   -7.7847    0.0000 C   0  0  0  0  0  0  0  0  0  0  0  0
    8.6798   -6.9597    0.0000 C   0  0  0  0  0  0  0  0  0  0  0  0
    7.9653   -6.5472    0.0000 C   0  0  0  0  0  0  0  0  0  0  0  0
    7.2508   -6.9597    0.0000 C   0  0  0  0  0  0  0  0  0  0  0  0
    7.2508   -7.7847    0.0000 C   0  0  0  0  0  0  0  0  0  0  0  0
    6.5363   -8.1972    0.0000 C   0  0  0  0  0  0  0  0  0  0  0  0
    5.8219   -7.7847    0.0000 C   0  0  0  0  0  0  0  0  0  0  0  0
    5.1074   -8.1972    0.0000 C   0  0  0  0  0  0  0  0  0  0  0  0
    5.1074   -9.0222    0.0000 C   0  0  0  0  0  0  0  0  0  0  0  0
    5.8219   -9.4347    0.0000 C   0  0  0  0  0  0  0  0  0  0  0  0
    6.5363   -9.0222    0.0000 C   0  0  0  0  0  0  0  0  0  0  0  0
    7.2508   -9.4347    0.0000 C   0  0  0  0  0  0  0  0  0  0  0  0
    7.9653   -9.0222    0.0000 C   0  0  0  0  0  0  0  0  0  0  0  0
    7.9653   -8.1972    0.0000 C   0  0  0  0  0  0  0  0  0  0  0  0
    7.9653   -5.7222    0.0000 O   0  0  0  0  0  0  0  0  0  0  0  0
    6.5363   -6.5472    0.0000 O   0  0  0  0  0  0  0  0  0  0  0  0
    5.8219  -10.2597    0.0000 C   0  0  0  0  0  0  0  0  0  0  0  0
    9.3942   -6.5472    0.0000 C   0  0  0  0  0  0  0  0  0  0  0  0
    9.3942   -5.7222    0.0000 C   0  0  0  0  0  0  0  0  0  0  0  0
   10.1087   -6.9597    0.0000 C   0  0  0  0  0  0  0  0  0  0  0  0
  1  2  2  0  0  0  0
  2  3  1  0  0  0  0
  3  4  1  0  0  0  0
  4  5  1  0  0  0  0
  5  6  1  0  0  0  0
  6  7  1  0  0  0  0
  7  8  2  0  0  0  0
  8  9  1  0  0  0  0
  9 10  2  0  0  0  0
 10 11  1  0  0  0  0
  6 11  2  0  0  0  0
 11 12  1  0  0  0  0
 12 13  2  0  0  0  0
 13 14  1  0  0  0  0
  1 14  1  0  0  0  0
  5 14  2  0  0  0  0
  3 15  2  0  0  0  0
  4 16  2  0  0  0  0
 10 17  1  0  0  0  0
 18 19  1  0  0  0  0
 18 20  1  0  0  0  0
  2 18  1  0  0  0  0
M  END
>  <cdx:fragmentId>
250

$$$$
