13586.cdx
  Mrv1902 05222410232D          

  8  7  0  0  0  0            999 V2000
    4.3752   -8.6625    0.0000 C   0  0  0  0  0  0  0  0  0  0  0  0
    5.0897   -9.0750    0.0000 C   0  0  0  0  0  0  0  0  0  0  0  0
    5.8042   -8.6625    0.0000 S   0  0  0  0  0  0  0  0  0  0  0  0
    6.5187   -9.0750    0.0000 S   0  0  0  0  0  0  0  0  0  0  0  0
    7.2331   -8.6625    0.0000 C   0  0  0  0  0  0  0  0  0  0  0  0
    7.9476   -9.0750    0.0000 C   0  0  0  0  0  0  0  0  0  0  0  0
    8.6621   -8.6625    0.0000 C   0  0  0  0  0  0  0  0  0  0  0  0
    9.3765   -9.0750    0.0000 C   0  0  0  0  0  0  0  0  0  0  0  0
  2  1  1  0  0  0  0
  3  2  1  0  0  0  0
  4  3  1  0  0  0  0
  5  4  1  0  0  0  0
  6  5  1  0  0  0  0
  7  6  1  0  0  0  0
  8  7  1  0  0  0  0
M  END
>  <cdx:fragmentId>
3

$$$$
