13587.cdx
  Mrv1902 05222410232D          

 16 16  0  0  0  0            999 V2000
    6.6239   -8.7037    0.0000 C   0  0  2  0  0  0  0  0  0  0  0  0
    6.6239   -9.5287    0.0000 C   0  0  2  0  0  0  0  0  0  0  0  0
    7.3384   -9.9413    0.0000 C   0  0  1  0  0  0  0  0  0  0  0  0
    8.0528   -9.5287    0.0000 C   0  0  2  0  0  0  0  0  0  0  0  0
    8.0528   -8.7037    0.0000 C   0  0  1  0  0  0  0  0  0  0  0  0
    7.3384   -8.2912    0.0000 O   0  0  0  0  0  0  0  0  0  0  0  0
    5.9094   -8.2912    0.0000 C   0  0  0  0  0  0  0  0  0  0  0  0
    8.7673   -8.2912    0.0000 O   0  0  0  0  0  0  0  0  0  0  0  0
    7.3384  -10.7663    0.0000 O   0  0  0  0  0  0  0  0  0  0  0  0
    8.7673   -9.9413    0.0000 O   0  0  0  0  0  0  0  0  0  0  0  0
    5.9094   -9.9413    0.0000 O   0  0  0  0  0  0  0  0  0  0  0  0
    5.1950   -8.7037    0.0000 O   0  0  0  0  0  0  0  0  0  0  0  0
    8.7673   -7.4663    0.0000 C   0  0  0  0  0  0  0  0  0  0  0  0
    9.4818   -7.0537    0.0000 C   0  0  0  0  0  0  0  0  0  0  0  0
    9.4818   -6.2287    0.0000 C   0  0  0  0  0  0  0  0  0  0  0  0
   10.1963   -5.8163    0.0000 C   0  0  0  0  0  0  0  0  0  0  0  0
  1  2  1  0  0  0  0
  2  3  1  0  0  0  0
  3  4  1  0  0  0  0
  4  5  1  0  0  0  0
  5  6  1  0  0  0  0
  6  1  1  0  0  0  0
  1  7  1  1  0  0  0
  5  8  1  1  0  0  0
  3  9  1  1  0  0  0
  4 10  1  6  0  0  0
  2 11  1  6  0  0  0
  7 12  1  0  0  0  0
  8 13  1  0  0  0  0
 13 14  1  0  0  0  0
 14 15  1  0  0  0  0
 15 16  1  0  0  0  0
M  END
>  <cdx:fragmentId>
5

$$$$
