13595.cdx
  Mrv1902 05222410252D          

 16 16  0  0  0  0            999 V2000
    7.5470   -8.3640    0.0000 O   0  0  0  0  0  0  0  0  0  0  0  0
    8.3351   -8.6083    0.0000 C   0  0  0  0  0  0  0  0  0  0  0  0
    8.9406   -8.0479    0.0000 C   0  0  0  0  0  0  0  0  0  0  0  0
    9.7286   -8.2922    0.0000 C   0  0  0  0  0  0  0  0  0  0  0  0
   10.3341   -7.7318    0.0000 C   0  0  0  0  0  0  0  0  0  0  0  0
    4.2088   -9.2200    0.0000 O   0  0  0  0  0  0  0  0  0  0  0  0
    4.8222   -8.6683    0.0000 C   0  0  0  0  0  0  0  0  0  0  0  0
    5.3759  -10.3756    0.0000 O   0  0  0  0  0  0  0  0  0  0  0  0
    7.1707  -10.3765    0.0000 O   0  0  0  0  0  0  0  0  0  0  0  0
    5.6066   -8.9237    0.0000 C   0  0  2  0  0  0  0  0  0  0  0  0
    5.8612   -9.7084    0.0000 C   0  0  2  0  0  0  0  0  0  0  0  0
    6.6862   -9.7089    0.0000 C   0  0  1  0  0  0  0  0  0  0  0  0
    6.9415   -8.9244    0.0000 C   0  0  2  0  0  0  0  0  0  0  0  0
    6.2743   -8.4391    0.0000 O   0  0  0  0  0  0  0  0  0  0  0  0
    7.6364   -9.3692    0.0000 C   0  0  0  0  0  0  0  0  0  0  0  0
    8.4332   -9.1556    0.0000 O   0  0  0  0  0  0  0  0  0  0  0  0
 13  1  1  6  0  0  0
 10  7  1  1  0  0  0
  7  6  1  0  0  0  0
 11  8  1  6  0  0  0
 12  9  1  1  0  0  0
 14 10  1  0  0  0  0
 11 10  1  0  0  0  0
 12 11  1  0  0  0  0
 13 12  1  0  0  0  0
 14 13  1  0  0  0  0
  2  3  1  0  0  0  0
  3  4  1  0  0  0  0
  4  5  1  0  0  0  0
  1  2  1  0  0  0  0
 13 15  1  0  0  0  0
 15 16  1  0  0  0  0
M  END
>  <cdx:fragmentId>
5

$$$$
