13592.cdx
  Mrv1902 05222410232D          

 16 16  0  0  0  0            999 V2000
    6.0464   -8.4150    0.0000 C   0  0  1  0  0  0  0  0  0  0  0  0
    6.0464   -9.2400    0.0000 C   0  0  1  0  0  0  0  0  0  0  0  0
    6.7609   -9.6525    0.0000 C   0  0  1  0  0  0  0  0  0  0  0  0
    7.4753   -9.2400    0.0000 C   0  0  0  0  0  0  0  0  0  0  0  0
    7.4753   -8.4150    0.0000 O   0  0  0  0  0  0  0  0  0  0  0  0
    6.7609   -8.0025    0.0000 C   0  0  0  0  0  0  0  0  0  0  0  0
    6.3484   -7.2880    0.0000 C   0  0  0  0  0  0  0  0  0  0  0  0
    7.1734   -7.2880    0.0000 O   0  0  0  0  0  0  0  0  0  0  0  0
    6.7609   -6.5736    0.0000 O   0  0  0  0  0  0  0  0  0  0  0  0
    7.9984   -7.2880    0.0000 C   0  0  0  0  0  0  0  0  0  0  0  0
    8.4109   -6.5736    0.0000 C   0  0  0  0  0  0  0  0  0  0  0  0
    9.2359   -6.5736    0.0000 C   0  0  0  0  0  0  0  0  0  0  0  0
    9.6484   -5.8591    0.0000 C   0  0  0  0  0  0  0  0  0  0  0  0
    5.3319   -8.0025    0.0000 O   0  0  0  0  0  0  0  0  0  0  0  0
    5.3319   -9.6525    0.0000 O   0  0  0  0  0  0  0  0  0  0  0  0
    6.7609  -10.4775    0.0000 O   0  0  0  0  0  0  0  0  0  0  0  0
  1  2  1  0  0  0  0
  2  3  1  0  0  0  0
  3  4  1  0  0  0  0
  4  5  1  0  0  0  0
  5  6  1  0  0  0  0
  6  1  1  0  0  0  0
  6  7  1  0  0  0  0
  6  8  1  0  0  0  0
  7  9  1  0  0  0  0
  8 10  1  0  0  0  0
 10 11  1  0  0  0  0
 11 12  1  0  0  0  0
 12 13  1  0  0  0  0
  1 14  1  6  0  0  0
  2 15  1  1  0  0  0
  3 16  1  1  0  0  0
M  END
>  <cdx:fragmentId>
5

$$$$
