13608.cdx
  Mrv1902 05222410252D          

  8  9  0  0  0  0            999 V2000
    5.1453   -3.0628    0.0000 C   0  0  0  0  0  0  0  0  0  0  0  0
    4.4302   -3.4753    0.0000 C   0  0  0  0  0  0  0  0  0  0  0  0
    3.7152   -3.0628    0.0000 C   0  0  0  0  0  0  0  0  0  0  0  0
    3.7152   -2.2378    0.0000 C   0  0  0  0  0  0  0  0  0  0  0  0
    4.3427   -2.2327    0.0000 C   0  0  0  0  0  0  0  0  0  0  0  0
    4.8927   -2.5353    0.0000 C   0  0  0  0  0  0  0  0  0  0  0  0
    4.4302   -1.8253    0.0000 C   0  0  0  0  0  0  0  0  0  0  0  0
    5.1453   -2.2378    0.0000 C   0  0  0  0  0  0  0  0  0  0  0  0
  1  2  1  0  0  0  0
  2  3  2  0  0  0  0
  3  4  1  0  0  0  0
  4  5  1  0  0  0  0
  5  6  1  0  0  0  0
  1  6  1  0  0  0  0
  4  7  1  0  0  0  0
  7  8  1  0  0  0  0
  1  8  1  0  0  0  0
M  END
>  <cdx:fragmentId>
3

$$$$
