13616.cdx
  Mrv1902 05222410232D          

 10 10  0  0  0  0            999 V2000
    7.5222   -4.9709    0.0000 C   0  0  0  0  0  0  0  0  0  0  0  0
    7.1097   -5.6854    0.0000 C   0  0  0  0  0  0  0  0  0  0  0  0
    6.2847   -5.6854    0.0000 C   0  0  0  0  0  0  0  0  0  0  0  0
    5.8722   -4.9709    0.0000 C   0  0  0  0  0  0  0  0  0  0  0  0
    6.2847   -4.2564    0.0000 C   0  0  0  0  0  0  0  0  0  0  0  0
    7.1097   -4.2564    0.0000 C   0  0  0  0  0  0  0  0  0  0  0  0
    8.2366   -5.3834    0.0000 O   0  0  0  0  0  0  0  0  0  0  0  0
    8.2366   -6.2084    0.0000 C   0  0  0  0  0  0  0  0  0  0  0  0
    8.2366   -4.5584    0.0000 O   0  0  0  0  0  0  0  0  0  0  0  0
    8.2366   -3.7334    0.0000 C   0  0  0  0  0  0  0  0  0  0  0  0
  1  2  1  0  0  0  0
  2  3  1  0  0  0  0
  3  4  1  0  0  0  0
  4  5  1  0  0  0  0
  5  6  1  0  0  0  0
  1  6  1  0  0  0  0
  7  8  1  0  0  0  0
  1  7  1  0  0  0  0
  9 10  1  0  0  0  0
  1  9  1  0  0  0  0
M  END
>  <cdx:fragmentId>
5

$$$$
