13621.cdx
  Mrv1902 05222410242D          

 10 10  0  0  0  0            999 V2000
    2.8942   -2.4877    0.0000 C   0  0  0  0  0  0  0  0  0  0  0  0
    3.6087   -2.9002    0.0000 C   0  0  0  0  0  0  0  0  0  0  0  0
    3.6087   -3.7252    0.0000 C   0  0  0  0  0  0  0  0  0  0  0  0
    2.8942   -4.1377    0.0000 C   0  0  0  0  0  0  0  0  0  0  0  0
    2.1797   -3.7252    0.0000 C   0  0  0  0  0  0  0  0  0  0  0  0
    2.1797   -2.9002    0.0000 C   0  0  0  0  0  0  0  0  0  0  0  0
    4.3232   -2.4877    0.0000 C   0  0  0  0  0  0  0  0  0  0  0  0
    2.8942   -1.6627    0.0000 C   0  0  0  0  0  0  0  0  0  0  0  0
    4.3232   -4.1377    0.0000 C   0  0  0  0  0  0  0  0  0  0  0  0
    5.0376   -3.7252    0.0000 C   0  0  0  0  0  0  0  0  0  0  0  0
  1  2  1  0  0  0  0
  2  3  2  0  0  0  0
  3  4  1  0  0  0  0
  4  5  2  0  0  0  0
  5  6  1  0  0  0  0
  1  6  2  0  0  0  0
  2  7  1  0  0  0  0
  1  8  1  0  0  0  0
  9 10  1  0  0  0  0
  3  9  1  0  0  0  0
M  END
>  <cdx:groupId>
32

>  <cdx:fragmentId>
5

$$$$
