13627.cdx
  Mrv1902 05222410232D          

 10 10  0  0  0  0            999 V2000
    3.9286   -4.0346    0.0000 C   0  0  0  0  0  0  0  0  0  0  0  0
    3.2142   -4.4471    0.0000 C   0  0  0  0  0  0  0  0  0  0  0  0
    3.2142   -5.2721    0.0000 C   0  0  0  0  0  0  0  0  0  0  0  0
    3.9286   -5.6846    0.0000 C   0  0  0  0  0  0  0  0  0  0  0  0
    4.6431   -5.2721    0.0000 C   0  0  0  0  0  0  0  0  0  0  0  0
    4.6431   -4.4471    0.0000 C   0  0  0  0  0  0  0  0  0  0  0  0
    2.4997   -5.6846    0.0000 C   0  0  0  0  0  0  0  0  0  0  0  0
    3.9286   -3.2096    0.0000 C   0  0  0  0  0  0  0  0  0  0  0  0
    5.3576   -5.6846    0.0000 C   0  0  0  0  0  0  0  0  0  0  0  0
    6.0721   -5.2721    0.0000 C   0  0  0  0  0  0  0  0  0  0  0  0
  1  2  1  0  0  0  0
  2  3  2  0  0  0  0
  3  4  1  0  0  0  0
  4  5  2  0  0  0  0
  5  6  1  0  0  0  0
  1  6  2  0  0  0  0
  3  7  1  0  0  0  0
  1  8  1  0  0  0  0
  9 10  1  0  0  0  0
  5  9  1  0  0  0  0
M  END
>  <cdx:groupId>
32

>  <cdx:fragmentId>
5

$$$$
