13629.cdx
  Mrv1902 05222410222D          

 10 10  0  0  0  0            999 V2000
    3.5854   -2.7225    0.0000 C   0  0  0  0  0  0  0  0  0  0  0  0
    3.5854   -3.5475    0.0000 C   0  0  0  0  0  0  0  0  0  0  0  0
    4.2999   -3.9600    0.0000 C   0  0  0  0  0  0  0  0  0  0  0  0
    5.0144   -3.5475    0.0000 C   0  0  0  0  0  0  0  0  0  0  0  0
    5.0144   -2.7225    0.0000 C   0  0  0  0  0  0  0  0  0  0  0  0
    4.2999   -2.3100    0.0000 C   0  0  0  0  0  0  0  0  0  0  0  0
    2.8709   -3.9600    0.0000 C   0  0  0  0  0  0  0  0  0  0  0  0
    2.8709   -2.3100    0.0000 C   0  0  0  0  0  0  0  0  0  0  0  0
    5.7288   -3.9600    0.0000 C   0  0  0  0  0  0  0  0  0  0  0  0
    6.4433   -3.5475    0.0000 C   0  0  0  0  0  0  0  0  0  0  0  0
  1  2  1  0  0  0  0
  2  3  2  0  0  0  0
  3  4  1  0  0  0  0
  4  5  2  0  0  0  0
  5  6  1  0  0  0  0
  1  6  2  0  0  0  0
  2  7  1  0  0  0  0
  1  8  1  0  0  0  0
  9 10  1  0  0  0  0
  4  9  1  0  0  0  0
M  END
>  <cdx:groupId>
32

>  <cdx:fragmentId>
5

$$$$
