136398.cdx
  Mrv1902 05222410252D          

 32 35  0  0  0  0            999 V2000
    7.9801   -8.9852    0.0000 O   0  0  0  0  0  0  0  0  0  0  0  0
    7.2889   -5.2683    0.0000 C   0  0  0  0  0  0  0  0  0  0  0  0
    8.0008   -5.6853    0.0000 O   0  0  0  0  0  0  0  0  0  0  0  0
   10.8586   -5.7033    0.0000 C   0  0  0  0  0  0  0  0  0  0  0  0
   11.5757   -5.2953    0.0000 C   0  0  0  0  0  0  0  0  0  0  0  0
   12.2875   -5.7122    0.0000 C   0  0  0  0  0  0  0  0  0  0  0  0
   12.2823   -6.5372    0.0000 C   0  0  0  0  0  0  0  0  0  0  0  0
   11.5653   -6.9452    0.0000 C   0  0  0  0  0  0  0  0  0  0  0  0
   10.8534   -6.5282    0.0000 C   0  0  0  0  0  0  0  0  0  0  0  0
    6.5563   -8.1513    0.0000 O   0  0  0  0  0  0  0  0  0  0  0  0
    5.1222   -8.9673    0.0000 O   0  0  0  0  0  0  0  0  0  0  0  0
    3.6985   -8.1333    0.0000 O   0  0  0  0  0  0  0  0  0  0  0  0
    2.9918   -6.8914    0.0000 O   0  0  0  0  0  0  0  0  0  0  0  0
    3.7089   -6.4834    0.0000 C   0  0  0  0  0  0  0  0  0  0  0  0
    4.4207   -6.9004    0.0000 C   0  0  2  0  0  0  0  0  0  0  0  0
    4.4156   -7.7253    0.0000 C   0  0  2  0  0  0  0  0  0  0  0  0
    5.1274   -8.1423    0.0000 C   0  0  1  0  0  0  0  0  0  0  0  0
    5.8445   -7.7343    0.0000 C   0  0  2  0  0  0  0  0  0  0  0  0
    5.8496   -6.9093    0.0000 C   0  0  1  0  0  0  0  0  0  0  0  0
    5.1378   -6.4924    0.0000 O   0  0  0  0  0  0  0  0  0  0  0  0
    6.5667   -6.5013    0.0000 O   0  0  0  0  0  0  0  0  0  0  0  0
    9.4090   -8.9942    0.0000 O   0  0  0  0  0  0  0  0  0  0  0  0
    9.4245   -6.5193    0.0000 O   0  0  0  0  0  0  0  0  0  0  0  0
    8.7075   -6.9273    0.0000 C   0  0  0  0  0  0  0  0  0  0  0  0
    7.9956   -6.5103    0.0000 C   0  0  0  0  0  0  0  0  0  0  0  0
    7.2786   -6.9183    0.0000 C   0  0  0  0  0  0  0  0  0  0  0  0
    7.2734   -7.7433    0.0000 C   0  0  0  0  0  0  0  0  0  0  0  0
    7.9852   -8.1603    0.0000 C   0  0  0  0  0  0  0  0  0  0  0  0
    8.7023   -7.7523    0.0000 C   0  0  0  0  0  0  0  0  0  0  0  0
    9.4142   -8.1692    0.0000 C   0  0  0  0  0  0  0  0  0  0  0  0
   10.1312   -7.7612    0.0000 C   0  0  0  0  0  0  0  0  0  0  0  0
   10.1364   -6.9362    0.0000 C   0  0  0  0  0  0  0  0  0  0  0  0
 28  1  1  0  0  0  0
 25  3  1  0  0  0  0
  3  2  1  0  0  0  0
 32  9  1  0  0  0  0
  9  4  2  0  0  0  0
  5  4  1  0  0  0  0
  6  5  2  0  0  0  0
  7  6  1  0  0  0  0
  8  7  2  0  0  0  0
  9  8  1  0  0  0  0
 26 21  1  0  0  0  0
 19 21  1  1  0  0  0
 18 10  1  6  0  0  0
 17 11  1  1  0  0  0
 16 12  1  6  0  0  0
 15 14  1  1  0  0  0
 14 13  1  0  0  0  0
 20 15  1  0  0  0  0
 16 15  1  0  0  0  0
 17 16  1  0  0  0  0
 18 17  1  0  0  0  0
 19 18  1  0  0  0  0
 20 19  1  0  0  0  0
 30 22  2  0  0  0  0
 32 23  1  0  0  0  0
 24 23  1  0  0  0  0
 29 24  2  0  0  0  0
 25 24  1  0  0  0  0
 26 25  2  0  0  0  0
 27 26  1  0  0  0  0
 28 27  2  0  0  0  0
 29 28  1  0  0  0  0
 30 29  1  0  0  0  0
 31 30  1  0  0  0  0
 32 31  2  0  0  0  0
M  END
>  <cdx:fragmentId>
184633

$$$$
