136386.cdx
  Mrv1902 05222410222D          

  9  8  0  0  0  0            999 V2000
    8.0983   -5.2648    0.0000 C   0  0  0  0  0  0  0  0  0  0  0  0
    7.3838   -5.6773    0.0000 C   0  0  0  0  0  0  0  0  0  0  0  0
    7.7963   -6.3918    0.0000 O   0  0  0  0  0  0  0  0  0  0  0  0
    6.6693   -5.2648    0.0000 C   0  0  0  0  0  0  0  0  0  0  0  0
    8.0983   -4.4398    0.0000 O   0  0  0  0  0  0  0  0  0  0  0  0
    8.8128   -5.6773    0.0000 O   0  0  0  0  0  0  0  0  0  0  0  0
    6.6693   -4.4398    0.0000 O   0  0  0  0  0  0  0  0  0  0  0  0
    5.9549   -5.6773    0.0000 O   0  0  0  0  0  0  0  0  0  0  0  0
    6.9713   -6.3918    0.0000 C   0  0  0  0  0  0  0  0  0  0  0  0
  1  2  1  0  0  0  0
  2  3  1  0  0  0  0
  2  4  1  0  0  0  0
  1  5  2  0  0  0  0
  1  6  1  0  0  0  0
  4  7  2  0  0  0  0
  4  8  1  0  0  0  0
  2  9  1  0  0  0  0
M  END
>  <cdx:groupId>
431

>  <cdx:fragmentId>
408

$$$$
