51136360.cdx
  Mrv1902 05222410242D          

 32 35  0  0  0  0            999 V2000
    4.5671   -7.0367    0.0000 O   0  0  0  0  0  0  0  0  0  0  0  0
    3.8526   -6.6242    0.0000 C   0  0  1  0  0  0  0  0  0  0  0  0
    3.8526   -5.7992    0.0000 C   0  0  2  0  0  0  0  0  0  0  0  0
    4.5671   -5.3867    0.0000 C   0  0  1  0  0  0  0  0  0  0  0  0
    5.2816   -5.7992    0.0000 C   0  0  2  0  0  0  0  0  0  0  0  0
    5.2816   -6.6242    0.0000 C   0  0  2  0  0  0  0  0  0  0  0  0
    3.1382   -7.0367    0.0000 C   0  0  0  0  0  0  0  0  0  0  0  0
    3.1382   -7.8617    0.0000 O   0  0  0  0  0  0  0  0  0  0  0  0
    2.4237   -6.6242    0.0000 O   0  0  0  0  0  0  0  0  0  0  0  0
    5.9961   -7.0367    0.0000 O   0  0  0  0  0  0  0  0  0  0  0  0
    9.5684   -6.6242    0.0000 C   0  0  0  0  0  0  0  0  0  0  0  0
    9.5684   -5.7992    0.0000 C   0  0  0  0  0  0  0  0  0  0  0  0
    8.8539   -5.3867    0.0000 C   0  0  0  0  0  0  0  0  0  0  0  0
    8.1395   -5.7992    0.0000 C   0  0  0  0  0  0  0  0  0  0  0  0
    7.4250   -5.3867    0.0000 C   0  0  0  0  0  0  0  0  0  0  0  0
    6.7105   -5.7992    0.0000 C   0  0  0  0  0  0  0  0  0  0  0  0
    6.7105   -6.6242    0.0000 C   0  0  0  0  0  0  0  0  0  0  0  0
    7.4250   -7.0367    0.0000 C   0  0  0  0  0  0  0  0  0  0  0  0
    8.1395   -6.6242    0.0000 C   0  0  0  0  0  0  0  0  0  0  0  0
    8.8539   -7.0367    0.0000 O   0  0  0  0  0  0  0  0  0  0  0  0
    8.8539   -4.5617    0.0000 O   0  0  0  0  0  0  0  0  0  0  0  0
   10.2829   -7.0367    0.0000 C   0  0  0  0  0  0  0  0  0  0  0  0
   10.9974   -6.6242    0.0000 C   0  0  0  0  0  0  0  0  0  0  0  0
   11.7118   -7.0367    0.0000 C   0  0  0  0  0  0  0  0  0  0  0  0
   11.7118   -7.8617    0.0000 C   0  0  0  0  0  0  0  0  0  0  0  0
   10.9974   -8.2742    0.0000 C   0  0  0  0  0  0  0  0  0  0  0  0
   10.2829   -7.8617    0.0000 C   0  0  0  0  0  0  0  0  0  0  0  0
   12.4263   -8.2742    0.0000 O   0  0  0  0  0  0  0  0  0  0  0  0
    7.4250   -4.5617    0.0000 O   0  0  0  0  0  0  0  0  0  0  0  0
    5.9961   -5.3867    0.0000 O   0  0  0  0  0  0  0  0  0  0  0  0
    4.5671   -4.5617    0.0000 O   0  0  0  0  0  0  0  0  0  0  0  0
    3.1382   -5.3867    0.0000 O   0  0  0  0  0  0  0  0  0  0  0  0
  1  2  1  0  0  0  0
  2  3  1  0  0  0  0
  3  4  1  0  0  0  0
  4  5  1  0  0  0  0
  5  6  1  0  0  0  0
  1  6  1  0  0  0  0
  7  8  2  0  0  0  0
  7  9  1  0  0  0  0
  2  7  1  6  0  0  0
 11 12  1  0  0  0  0
 12 13  1  0  0  0  0
 13 14  1  0  0  0  0
 14 15  1  0  0  0  0
 15 16  2  0  0  0  0
 16 17  1  0  0  0  0
 17 18  2  0  0  0  0
 18 19  1  0  0  0  0
 14 19  2  0  0  0  0
 19 20  1  0  0  0  0
 11 20  1  0  0  0  0
 13 21  2  0  0  0  0
 22 23  1  0  0  0  0
 23 24  2  0  0  0  0
 24 25  1  0  0  0  0
 25 26  2  0  0  0  0
 26 27  1  0  0  0  0
 22 27  2  0  0  0  0
 25 28  1  0  0  0  0
 11 22  1  0  0  0  0
 15 29  1  0  0  0  0
 10 17  1  0  0  0  0
  6 10  1  6  0  0  0
  5 30  1  1  0  0  0
  4 31  1  6  0  0  0
  3 32  1  1  0  0  0
M  END
>  <cdx:groupId>
101

>  <cdx:fragmentId>
25

$$$$
