136331.cdx
  Mrv1902 05222410202D          

 20 19  0  0  0  0            999 V2000
   10.8247  -14.2800    0.0000 C   0  0  0  0  0  0  0  0  0  0  0  0
   10.8247  -13.4550    0.0000 C   0  0  0  0  0  0  0  0  0  0  0  0
   11.5392  -13.0425    0.0000 C   0  0  0  0  0  0  0  0  0  0  0  0
   12.2536  -13.4550    0.0000 C   0  0  0  0  0  0  0  0  0  0  0  0
   12.9681  -13.0425    0.0000 C   0  0  0  0  0  0  0  0  0  0  0  0
   13.6826  -13.4550    0.0000 C   0  0  0  0  0  0  0  0  0  0  0  0
   14.3970  -13.0425    0.0000 C   0  0  0  0  0  0  0  0  0  0  0  0
   15.1115  -13.4550    0.0000 C   0  0  0  0  0  0  0  0  0  0  0  0
   15.8260  -13.0425    0.0000 C   0  0  0  0  0  0  0  0  0  0  0  0
   16.5405  -13.4550    0.0000 C   0  0  0  0  0  0  0  0  0  0  0  0
   17.2549  -13.0425    0.0000 C   0  0  0  0  0  0  0  0  0  0  0  0
   17.9694  -13.4550    0.0000 C   0  0  0  0  0  0  0  0  0  0  0  0
   18.6839  -13.0425    0.0000 C   0  0  0  0  0  0  0  0  0  0  0  0
   19.3983  -13.4550    0.0000 C   0  0  0  0  0  0  0  0  0  0  0  0
   20.1128  -13.0425    0.0000 C   0  0  0  0  0  0  0  0  0  0  0  0
   20.1128  -12.2175    0.0000 C   0  0  0  0  0  0  0  0  0  0  0  0
   20.8273  -13.4550    0.0000 C   0  0  0  0  0  0  0  0  0  0  0  0
   17.2549  -12.2175    0.0000 C   0  0  0  0  0  0  0  0  0  0  0  0
   13.6826  -14.2800    0.0000 C   0  0  0  0  0  0  0  0  0  0  0  0
   10.1102  -13.0425    0.0000 C   0  0  0  0  0  0  0  0  0  0  0  0
  1  2  1  0  0  0  0
  2  3  1  0  0  0  0
  3  4  1  0  0  0  0
  4  5  1  0  0  0  0
  5  6  1  0  0  0  0
  6  7  1  0  0  0  0
  7  8  1  0  0  0  0
  8  9  1  0  0  0  0
  9 10  1  0  0  0  0
 10 11  1  0  0  0  0
 11 12  1  0  0  0  0
 12 13  1  0  0  0  0
 13 14  1  0  0  0  0
 14 15  1  0  0  0  0
 15 16  1  0  0  0  0
 15 17  1  0  0  0  0
 11 18  1  0  0  0  0
  6 19  1  0  0  0  0
  2 20  1  0  0  0  0
M  END
>  <cdx:groupId>
399

>  <cdx:fragmentId>
343

$$$$
