13644.cdx
  Mrv1902 05222410262D          

 14 16  0  0  0  0            999 V2000
    3.2414   -6.7856    0.0000 C   0  0  0  0  0  0  0  0  0  0  0  0
    3.2414   -7.6106    0.0000 C   0  0  0  0  0  0  0  0  0  0  0  0
    3.9559   -8.0231    0.0000 C   0  0  0  0  0  0  0  0  0  0  0  0
    4.6703   -7.6106    0.0000 C   0  0  0  0  0  0  0  0  0  0  0  0
    4.6703   -6.7856    0.0000 C   0  0  0  0  0  0  0  0  0  0  0  0
    3.9559   -6.3731    0.0000 C   0  0  0  0  0  0  0  0  0  0  0  0
    5.4550   -7.8656    0.0000 C   0  0  0  0  0  0  0  0  0  0  0  0
    5.9399   -7.1981    0.0000 O   0  0  0  0  0  0  0  0  0  0  0  0
    5.4550   -6.5307    0.0000 C   0  0  0  0  0  0  0  0  0  0  0  0
    5.6685   -8.6625    0.0000 O   0  0  0  0  0  0  0  0  0  0  0  0
    6.1694   -6.1182    0.0000 C   0  0  0  0  0  0  0  0  0  0  0  0
    5.4550   -5.7057    0.0000 C   0  0  0  0  0  0  0  0  0  0  0  0
    6.7528   -5.5348    0.0000 C   0  0  0  0  0  0  0  0  0  0  0  0
    7.5497   -5.7483    0.0000 C   0  0  0  0  0  0  0  0  0  0  0  0
  1  2  1  0  0  0  0
  2  3  2  0  0  0  0
  3  4  1  0  0  0  0
  4  5  2  0  0  0  0
  5  6  1  0  0  0  0
  6  1  1  0  0  0  0
  4  7  1  0  0  0  0
  7  8  1  0  0  0  0
  8  9  1  0  0  0  0
  9  5  1  0  0  0  0
  7 10  2  0  0  0  0
  9 11  1  0  0  0  0
 11 12  1  0  0  0  0
 12  9  1  0  0  0  0
 11 13  1  0  0  0  0
 13 14  1  0  0  0  0
M  END
>  <cdx:fragmentId>
5

$$$$
