13641.cdx
  Mrv1902 05222410282D          

 21 22  0  0  0  0            999 V2000
    9.9301   -5.7193    0.0000 C   0  0  0  0  0  0  0  0  0  0  0  0
    9.2157   -7.7818    0.0000 C   0  0  0  0  0  0  0  0  0  0  0  0
    9.2157   -5.3068    0.0000 O   0  0  0  0  0  0  0  0  0  0  0  0
    9.2157   -6.9568    0.0000 O   0  0  0  0  0  0  0  0  0  0  0  0
    6.3578   -5.3068    0.0000 O   0  0  0  0  0  0  0  0  0  0  0  0
    4.9288   -9.4318    0.0000 O   0  0  0  0  0  0  0  0  0  0  0  0
    4.9288   -6.9568    0.0000 C   0  0  0  0  0  0  0  0  0  0  0  0
    5.6433   -6.5443    0.0000 C   0  0  0  0  0  0  0  0  0  0  0  0
    5.6433   -9.0193    0.0000 C   0  0  0  0  0  0  0  0  0  0  0  0
    6.3578   -9.4318    0.0000 C   0  0  0  0  0  0  0  0  0  0  0  0
    7.0722   -9.0193    0.0000 C   0  0  0  0  0  0  0  0  0  0  0  0
    7.0722   -8.1943    0.0000 C   0  0  0  0  0  0  0  0  0  0  0  0
    7.0722   -5.7193    0.0000 C   0  0  0  0  0  0  0  0  0  0  0  0
    7.0722   -6.5443    0.0000 C   0  0  0  0  0  0  0  0  0  0  0  0
    5.6433   -8.1943    0.0000 C   0  0  0  0  0  0  0  0  0  0  0  0
    6.3578   -7.7818    0.0000 C   0  0  0  0  0  0  0  0  0  0  0  0
    6.3578   -6.9568    0.0000 C   0  0  2  0  0  0  0  0  0  0  0  0
    7.7867   -6.9568    0.0000 C   0  0  0  0  0  0  0  0  0  0  0  0
    8.5012   -6.5443    0.0000 C   0  0  0  0  0  0  0  0  0  0  0  0
    8.5012   -5.7193    0.0000 C   0  0  0  0  0  0  0  0  0  0  0  0
    7.7867   -5.3068    0.0000 C   0  0  0  0  0  0  0  0  0  0  0  0
  3  1  1  0  0  0  0
  4  2  1  0  0  0  0
 20  3  1  0  0  0  0
 19  4  1  0  0  0  0
 13  5  1  0  0  0  0
 13 21  1  0  0  0  0
 14 13  2  0  0  0  0
 18 14  1  0  0  0  0
 19 18  2  0  0  0  0
 20 19  1  0  0  0  0
 21 20  2  0  0  0  0
  9  6  1  0  0  0  0
 14 17  1  0  0  0  0
  8  7  2  0  0  0  0
 17  8  1  6  0  0  0
  9 15  1  0  0  0  0
 10  9  2  0  0  0  0
 11 10  1  0  0  0  0
 12 11  2  0  0  0  0
 16 12  1  0  0  0  0
 16 15  2  0  0  0  0
 17 16  1  0  0  0  0
M  END
>  <cdx:fragmentId>
5

$$$$
