136588.cdx
  Mrv1902 05222410252D          

 11 10  0  0  0  0            999 V2000
   10.8156  -10.1471    0.0000 C   0  0  0  0  0  0  0  0  0  0  0  0
   11.5301   -9.7346    0.0000 C   0  0  0  0  0  0  0  0  0  0  0  0
   12.2446  -10.1471    0.0000 C   0  0  0  0  0  0  0  0  0  0  0  0
   12.9591   -9.7346    0.0000 C   0  0  0  0  0  0  0  0  0  0  0  0
   13.6735  -10.1471    0.0000 C   0  0  0  0  0  0  0  0  0  0  0  0
   14.3880   -9.7346    0.0000 C   0  0  0  0  0  0  0  0  0  0  0  0
   15.1025  -10.1471    0.0000 C   0  0  0  0  0  0  0  0  0  0  0  0
   15.8169   -9.7346    0.0000 C   0  0  0  0  0  0  0  0  0  0  0  0
   16.5314  -10.1471    0.0000 C   0  0  0  0  0  0  0  0  0  0  0  0
   17.2459   -9.7346    0.0000 C   0  0  0  0  0  0  0  0  0  0  0  0
   17.9604  -10.1471    0.0000 C   0  0  0  0  0  0  0  0  0  0  0  0
  1  2  1  0  0  0  0
  2  3  1  0  0  0  0
  3  4  1  0  0  0  0
  4  5  1  0  0  0  0
  5  6  2  0  0  0  0
  6  7  1  0  0  0  0
  7  8  1  0  0  0  0
  8  9  1  0  0  0  0
  9 10  1  0  0  0  0
 10 11  1  0  0  0  0
M  END
>  <cdx:groupId>
83768

>  <cdx:fragmentId>
83739

$$$$
