13653.cdx
  Mrv1902 05222410262D          

 25 28  0  0  0  0            999 V2000
    3.5095   -7.6106    0.0000 C   0  0  0  0  0  0  0  0  0  0  0  0
    3.5095   -8.4356    0.0000 C   0  0  1  0  0  0  0  0  0  0  0  0
    4.2240   -8.8481    0.0000 C   0  0  1  0  0  0  0  0  0  0  0  0
    4.9385   -8.4356    0.0000 C   0  0  1  0  0  0  0  0  0  0  0  0
    4.9385   -7.6106    0.0000 C   0  0  1  0  0  0  0  0  0  0  0  0
    4.2240   -7.1981    0.0000 C   0  0  0  0  0  0  0  0  0  0  0  0
    5.6529   -8.8481    0.0000 C   0  0  0  0  0  0  0  0  0  0  0  0
    6.3674   -8.4356    0.0000 C   0  0  0  0  0  0  0  0  0  0  0  0
    6.3674   -7.6106    0.0000 C   0  0  1  0  0  0  0  0  0  0  0  0
    5.6529   -7.1981    0.0000 C   0  0  1  0  0  0  0  0  0  0  0  0
    7.0819   -7.1981    0.0000 C   0  0  0  0  0  0  0  0  0  0  0  0
    7.0819   -6.3731    0.0000 C   0  0  0  0  0  0  0  0  0  0  0  0
    6.3674   -5.9606    0.0000 C   0  0  2  0  0  0  0  0  0  0  0  0
    5.6529   -6.3731    0.0000 C   0  0  0  0  0  0  0  0  0  0  0  0
    2.7951   -8.8481    0.0000 O   0  0  0  0  0  0  0  0  0  0  0  0
    7.7964   -5.9606    0.0000 C   0  0  0  0  0  0  0  0  0  0  0  0
    3.8115   -9.5626    0.0000 C   0  0  0  0  0  0  0  0  0  0  0  0
    4.6365   -9.5626    0.0000 C   0  0  0  0  0  0  0  0  0  0  0  0
    4.9385   -6.7856    0.0000 C   0  0  0  0  0  0  0  0  0  0  0  0
    6.0802   -6.6000    0.0000 C   0  0  0  0  0  0  0  0  0  0  0  0
    6.5546   -6.9919    0.0000 C   0  0  0  0  0  0  0  0  0  0  0  0
    5.2552   -6.6000    0.0000 O   0  0  0  0  0  0  0  0  0  0  0  0
    7.3796   -6.9919    0.0000 O   0  0  0  0  0  0  0  0  0  0  0  0
    5.6529   -8.0231    0.0000 H   0  0  0  0  0  0  0  0  0  0  0  0
    4.9385   -9.2606    0.0000 H   0  0  0  0  0  0  0  0  0  0  0  0
  1  2  1  0  0  0  0
  2  3  1  0  0  0  0
  3  4  1  0  0  0  0
  4  5  1  0  0  0  0
  5  6  1  0  0  0  0
  6  1  1  0  0  0  0
  4  7  1  0  0  0  0
  7  8  1  0  0  0  0
  8  9  1  0  0  0  0
  9 10  1  0  0  0  0
 10  5  1  0  0  0  0
  9 11  1  0  0  0  0
 11 12  1  0  0  0  0
 12 13  1  0  0  0  0
 13 14  1  0  0  0  0
 14 10  1  0  0  0  0
  2 15  1  1  0  0  0
 12 16  2  0  0  0  0
  3 17  1  1  0  0  0
  3 18  1  6  0  0  0
  5 19  1  6  0  0  0
 13 20  1  6  0  0  0
  9 21  1  6  0  0  0
 20 21  1  0  0  0  0
 20 22  1  0  0  0  0
 21 23  2  0  0  0  0
 10 24  1  1  0  0  0
  4 25  1  6  0  0  0
M  END
>  <cdx:fragmentId>
5

$$$$
