13650.cdx
  Mrv1902 05222410262D          

 12 13  0  0  0  0            999 V2000
    5.5828   -2.7096    0.0000 C   0  0  0  0  0  0  0  0  0  0  0  0
    5.5828   -3.5346    0.0000 C   0  0  0  0  0  0  0  0  0  0  0  0
    4.8683   -3.9471    0.0000 C   0  0  0  0  0  0  0  0  0  0  0  0
    4.1538   -3.5346    0.0000 C   0  0  0  0  0  0  0  0  0  0  0  0
    3.4394   -3.9471    0.0000 C   0  0  0  0  0  0  0  0  0  0  0  0
    2.7249   -3.5346    0.0000 C   0  0  0  0  0  0  0  0  0  0  0  0
    2.7249   -2.7096    0.0000 C   0  0  0  0  0  0  0  0  0  0  0  0
    3.4394   -2.2971    0.0000 C   0  0  0  0  0  0  0  0  0  0  0  0
    4.1538   -2.7096    0.0000 C   0  0  0  0  0  0  0  0  0  0  0  0
    4.8683   -2.2971    0.0000 O   0  0  0  0  0  0  0  0  0  0  0  0
    6.2973   -2.2971    0.0000 O   0  0  0  0  0  0  0  0  0  0  0  0
    6.2973   -3.9471    0.0000 O   0  0  0  0  0  0  0  0  0  0  0  0
  1  2  1  0  0  0  0
  2  3  2  0  0  0  0
  3  4  1  0  0  0  0
  4  5  1  0  0  0  0
  5  6  2  0  0  0  0
  6  7  1  0  0  0  0
  7  8  2  0  0  0  0
  8  9  1  0  0  0  0
  4  9  2  0  0  0  0
  9 10  1  0  0  0  0
  1 10  1  0  0  0  0
  1 11  2  0  0  0  0
  2 12  1  0  0  0  0
M  END
>  <cdx:groupId>
39

>  <cdx:fragmentId>
5

$$$$
