136582.cdx
  Mrv1902 05222410232D          

  7  6  0  0  0  0            999 V2000
   16.2262  -13.8575    0.0000 C   0  0  0  0  0  0  0  0  0  0  0  0
   15.5117  -13.4450    0.0000 C   0  0  0  0  0  0  0  0  0  0  0  0
   14.7972  -13.8575    0.0000 C   0  0  0  0  0  0  0  0  0  0  0  0
   14.0828  -13.4450    0.0000 C   0  0  0  0  0  0  0  0  0  0  0  0
   13.3683  -13.8575    0.0000 C   0  0  0  0  0  0  0  0  0  0  0  0
   16.9406  -13.4450    0.0000 O   0  0  0  0  0  0  0  0  0  0  0  0
   14.0828  -12.6200    0.0000 C   0  0  0  0  0  0  0  0  0  0  0  0
  1  2  1  0  0  0  0
  2  3  1  0  0  0  0
  3  4  2  0  0  0  0
  4  5  1  0  0  0  0
  1  6  1  0  0  0  0
  4  7  1  0  0  0  0
M  END
>  <cdx:groupId>
453

>  <cdx:fragmentId>
436

$$$$
