136569.cdx
  Mrv1902 05222410232D          

  8  7  0  0  0  0            999 V2000
    8.3182   -6.5484    0.0000 C   0  0  0  0  0  0  0  0  0  0  0  0
    8.3182   -7.3734    0.0000 C   0  0  0  0  0  0  0  0  0  0  0  0
    7.6038   -7.7859    0.0000 C   0  0  0  0  0  0  0  0  0  0  0  0
    6.8893   -7.3734    0.0000 C   0  0  0  0  0  0  0  0  0  0  0  0
    6.1748   -7.7859    0.0000 C   0  0  0  0  0  0  0  0  0  0  0  0
    8.0163   -8.5004    0.0000 C   0  0  0  0  0  0  0  0  0  0  0  0
    7.1913   -8.5004    0.0000 C   0  0  0  0  0  0  0  0  0  0  0  0
    9.0327   -7.7859    0.0000 C   0  0  0  0  0  0  0  0  0  0  0  0
  1  2  2  0  0  0  0
  2  3  1  0  0  0  0
  3  4  1  0  0  0  0
  4  5  2  0  0  0  0
  3  6  1  0  0  0  0
  3  7  1  0  0  0  0
  2  8  1  0  0  0  0
M  END
>  <cdx:fragmentId>
436

$$$$
