13664.cdx
  Mrv1902 05222410182D          

 55 60  0  0  0  0            999 V2000
    2.8962   -8.2747    0.0000 O   0  0  0  0  0  0  0  0  0  0  0  0
    1.4673   -5.7997    0.0000 O   0  0  0  0  0  0  0  0  0  0  0  0
    4.3252   -8.2747    0.0000 O   0  0  0  0  0  0  0  0  0  0  0  0
    5.7541   -7.4497    0.0000 O   0  0  0  0  0  0  0  0  0  0  0  0
    7.8975   -4.5622    0.0000 O   0  0  0  0  0  0  0  0  0  0  0  0
    6.4686   -6.2122    0.0000 C   0  0  0  0  0  0  0  0  0  0  0  0
    7.1831   -5.7997    0.0000 C   0  0  0  0  0  0  0  0  0  0  0  0
    7.1831   -4.9747    0.0000 C   0  0  0  0  0  0  0  0  0  0  0  0
    6.4686   -4.5622    0.0000 C   0  0  0  0  0  0  0  0  0  0  0  0
    5.7541   -4.9747    0.0000 C   0  0  0  0  0  0  0  0  0  0  0  0
    5.7541   -5.7997    0.0000 C   0  0  0  0  0  0  0  0  0  0  0  0
    2.8962   -5.7997    0.0000 C   0  0  0  0  0  0  0  0  0  0  0  0
    2.1818   -6.2122    0.0000 C   0  0  0  0  0  0  0  0  0  0  0  0
    2.1818   -7.0372    0.0000 C   0  0  0  0  0  0  0  0  0  0  0  0
    2.8962   -7.4497    0.0000 C   0  0  0  0  0  0  0  0  0  0  0  0
    4.3252   -5.7997    0.0000 O   0  0  0  0  0  0  0  0  0  0  0  0
    3.6107   -6.2122    0.0000 C   0  0  0  0  0  0  0  0  0  0  0  0
    3.6107   -7.0372    0.0000 C   0  0  0  0  0  0  0  0  0  0  0  0
    4.3252   -7.4497    0.0000 C   0  0  0  0  0  0  0  0  0  0  0  0
    5.0396   -7.0372    0.0000 C   0  0  0  0  0  0  0  0  0  0  0  0
    5.0396   -6.2122    0.0000 C   0  0  0  0  0  0  0  0  0  0  0  0
    6.4686   -3.7372    0.0000 O   0  0  0  0  0  0  0  0  0  0  0  0
    5.7541   -8.2747    0.0000 C   0  0  2  0  0  0  0  0  0  0  0  0
    5.0396   -8.6872    0.0000 O   0  0  0  0  0  0  0  0  0  0  0  0
    5.0396   -9.5122    0.0000 C   0  0  1  0  0  0  0  0  0  0  0  0
    5.7541   -9.9247    0.0000 C   0  0  2  0  0  0  0  0  0  0  0  0
    6.4686   -9.5122    0.0000 C   0  0  1  0  0  0  0  0  0  0  0  0
    6.4686   -8.6872    0.0000 C   0  0  1  0  0  0  0  0  0  0  0  0
    4.3252   -9.9247    0.0000 C   0  0  0  0  0  0  0  0  0  0  0  0
    7.1831   -9.9247    0.0000 O   0  0  0  0  0  0  0  0  0  0  0  0
    5.7541  -10.7497    0.0000 O   0  0  0  0  0  0  0  0  0  0  0  0
    7.1831   -8.2747    0.0000 O   0  0  0  0  0  0  0  0  0  0  0  0
    4.3252  -10.7497    0.0000 O   0  0  0  0  0  0  0  0  0  0  0  0
    7.8975   -8.6872    0.0000 C   0  0  2  0  0  0  0  0  0  0  0  0
    7.8975   -9.5122    0.0000 O   0  0  0  0  0  0  0  0  0  0  0  0
    8.6120   -9.9247    0.0000 C   0  0  1  0  0  0  0  0  0  0  0  0
    9.3265   -9.5122    0.0000 C   0  0  1  0  0  0  0  0  0  0  0  0
    9.3265   -8.6872    0.0000 C   0  0  1  0  0  0  0  0  0  0  0  0
    8.6120   -8.2747    0.0000 C   0  0  1  0  0  0  0  0  0  0  0  0
    8.6120  -10.7497    0.0000 C   0  0  0  0  0  0  0  0  0  0  0  0
   10.0409   -9.9247    0.0000 O   0  0  0  0  0  0  0  0  0  0  0  0
   10.0409   -8.2747    0.0000 O   0  0  0  0  0  0  0  0  0  0  0  0
    8.6120   -7.4497    0.0000 O   0  0  0  0  0  0  0  0  0  0  0  0
    9.3265  -11.1622    0.0000 O   0  0  0  0  0  0  0  0  0  0  0  0
    9.3265   -7.0372    0.0000 C   0  0  2  0  0  0  0  0  0  0  0  0
   10.0409   -7.4497    0.0000 O   0  0  0  0  0  0  0  0  0  0  0  0
   10.7554   -7.0372    0.0000 C   0  0  1  0  0  0  0  0  0  0  0  0
   10.7554   -6.2122    0.0000 C   0  0  2  0  0  0  0  0  0  0  0  0
   10.0409   -5.7997    0.0000 C   0  0  1  0  0  0  0  0  0  0  0  0
    9.3265   -6.2122    0.0000 C   0  0  1  0  0  0  0  0  0  0  0  0
   11.4699   -7.4497    0.0000 C   0  0  0  0  0  0  0  0  0  0  0  0
   10.0409   -4.9747    0.0000 O   0  0  0  0  0  0  0  0  0  0  0  0
   11.4699   -5.7997    0.0000 O   0  0  0  0  0  0  0  0  0  0  0  0
    8.6120   -5.7997    0.0000 O   0  0  0  0  0  0  0  0  0  0  0  0
   12.1844   -7.0372    0.0000 O   0  0  0  0  0  0  0  0  0  0  0  0
 15  1  1  0  0  0  0
 13  2  1  0  0  0  0
 19  3  2  0  0  0  0
 20  4  1  0  0  0  0
  8  5  1  0  0  0  0
  6 11  1  0  0  0  0
  7  6  2  0  0  0  0
  8  7  1  0  0  0  0
  9  8  2  0  0  0  0
 10  9  1  0  0  0  0
 11 10  2  0  0  0  0
 21 11  1  0  0  0  0
 12 17  2  0  0  0  0
 13 12  1  0  0  0  0
 14 13  2  0  0  0  0
 15 14  1  0  0  0  0
 18 15  2  0  0  0  0
 16 21  1  0  0  0  0
 17 16  1  0  0  0  0
 18 17  1  0  0  0  0
 19 18  1  0  0  0  0
 20 19  1  0  0  0  0
 21 20  2  0  0  0  0
  9 22  1  0  0  0  0
 23  4  1  1  0  0  0
 23 24  1  0  0  0  0
 24 25  1  0  0  0  0
 25 26  1  0  0  0  0
 26 27  1  0  0  0  0
 27 28  1  0  0  0  0
 28 23  1  0  0  0  0
 25 29  1  1  0  0  0
 27 30  1  1  0  0  0
 26 31  1  6  0  0  0
 28 32  1  6  0  0  0
 29 33  1  0  0  0  0
 34 32  1  1  0  0  0
 34 35  1  0  0  0  0
 35 36  1  0  0  0  0
 36 37  1  0  0  0  0
 37 38  1  0  0  0  0
 38 39  1  0  0  0  0
 39 34  1  0  0  0  0
 36 40  1  1  0  0  0
 37 41  1  1  0  0  0
 38 42  1  1  0  0  0
 39 43  1  6  0  0  0
 40 44  1  0  0  0  0
 45 43  1  1  0  0  0
 45 46  1  0  0  0  0
 46 47  1  0  0  0  0
 47 48  1  0  0  0  0
 48 49  1  0  0  0  0
 49 50  1  0  0  0  0
 50 45  1  0  0  0  0
 47 51  1  1  0  0  0
 49 52  1  1  0  0  0
 48 53  1  6  0  0  0
 50 54  1  6  0  0  0
 51 55  1  0  0  0  0
M  END
>  <cdx:fragmentId>
523

$$$$
