13667.cdx
  Mrv1902 05222410192D          

 87 96  0  0  0  0            999 V2000
   15.8155   -5.0124    0.0000 C   0  0  0  0  0  0  0  0  0  0  0  0
   16.5298   -4.6001    0.0000 C   0  0  0  0  0  0  0  0  0  0  0  0
   17.2440   -5.0124    0.0000 C   0  0  0  0  0  0  0  0  0  0  0  0
   17.2440   -5.8372    0.0000 C   0  0  0  0  0  0  0  0  0  0  0  0
   16.5298   -6.2495    0.0000 C   0  0  2  0  0  0  0  0  0  0  0  0
   16.5298   -7.0743    0.0000 C   0  0  0  0  0  0  0  0  0  0  0  0
   15.8155   -7.4867    0.0000 C   0  0  0  0  0  0  0  0  0  0  0  0
   15.1013   -7.0743    0.0000 C   0  0  1  0  0  0  0  0  0  0  0  0
   14.3870   -7.4867    0.0000 C   0  0  2  0  0  0  0  0  0  0  0  0
   14.3870   -8.3114    0.0000 C   0  0  0  0  0  0  0  0  0  0  0  0
   13.6728   -8.7238    0.0000 C   0  0  0  0  0  0  0  0  0  0  0  0
   12.9585   -8.3114    0.0000 C   0  0  1  0  0  0  0  0  0  0  0  0
   12.2443   -8.7238    0.0000 C   0  0  2  0  0  0  0  0  0  0  0  0
   11.5300   -8.3114    0.0000 C   0  0  2  0  0  0  0  0  0  0  0  0
   11.5300   -7.4867    0.0000 C   0  0  0  0  0  0  0  0  0  0  0  0
   12.2443   -7.0743    0.0000 C   0  0  0  0  0  0  0  0  0  0  0  0
   12.9585   -7.4867    0.0000 C   0  0  2  0  0  0  0  0  0  0  0  0
   13.6728   -7.0743    0.0000 C   0  0  1  0  0  0  0  0  0  0  0  0
   13.6728   -6.2495    0.0000 C   0  0  0  0  0  0  0  0  0  0  0  0
   14.3870   -5.8372    0.0000 C   0  0  0  0  0  0  0  0  0  0  0  0
   15.1013   -6.2495    0.0000 C   0  0  0  0  0  0  0  0  0  0  0  0
   15.8155   -5.8372    0.0000 C   0  0  2  0  0  0  0  0  0  0  0  0
   17.2440   -6.6619    0.0000 C   0  0  0  0  0  0  0  0  0  0  0  0
   17.2440   -7.4867    0.0000 O   0  0  0  0  0  0  0  0  0  0  0  0
   11.8319   -9.4380    0.0000 C   0  0  0  0  0  0  0  0  0  0  0  0
   15.1013   -7.8990    0.0000 C   0  0  0  0  0  0  0  0  0  0  0  0
   16.1174   -3.8858    0.0000 C   0  0  0  0  0  0  0  0  0  0  0  0
   16.9421   -3.8858    0.0000 C   0  0  0  0  0  0  0  0  0  0  0  0
   12.6566   -9.4380    0.0000 C   0  0  0  0  0  0  0  0  0  0  0  0
   12.2443  -10.1523    0.0000 O   0  0  0  0  0  0  0  0  0  0  0  0
   10.8158   -8.7238    0.0000 O   0  0  0  0  0  0  0  0  0  0  0  0
   10.1015   -7.4867    0.0000 O   0  0  0  0  0  0  0  0  0  0  0  0
   10.1015   -8.3114    0.0000 C   0  0  2  0  0  0  0  0  0  0  0  0
    9.3873   -8.7238    0.0000 C   0  0  1  0  0  0  0  0  0  0  0  0
    8.6730   -8.3114    0.0000 C   0  0  2  0  0  0  0  0  0  0  0  0
    8.6730   -7.4867    0.0000 C   0  0  2  0  0  0  0  0  0  0  0  0
    9.3873   -7.0743    0.0000 C   0  0  0  0  0  0  0  0  0  0  0  0
    7.9588   -7.0743    0.0000 O   0  0  0  0  0  0  0  0  0  0  0  0
    7.9588   -8.7238    0.0000 O   0  0  0  0  0  0  0  0  0  0  0  0
    9.3873   -9.5485    0.0000 O   0  0  0  0  0  0  0  0  0  0  0  0
    7.9588   -9.5485    0.0000 O   0  0  0  0  0  0  0  0  0  0  0  0
    8.6730   -9.9609    0.0000 C   0  0  2  0  0  0  0  0  0  0  0  0
    8.6730  -10.7856    0.0000 C   0  0  1  0  0  0  0  0  0  0  0  0
    7.9588  -11.1980    0.0000 C   0  0  1  0  0  0  0  0  0  0  0  0
    7.2446  -10.7856    0.0000 C   0  0  2  0  0  0  0  0  0  0  0  0
    7.2446   -9.9609    0.0000 C   0  0  2  0  0  0  0  0  0  0  0  0
    6.5303   -9.5485    0.0000 C   0  0  0  0  0  0  0  0  0  0  0  0
    6.5303  -11.1980    0.0000 O   0  0  0  0  0  0  0  0  0  0  0  0
    9.3873  -11.1980    0.0000 O   0  0  0  0  0  0  0  0  0  0  0  0
   12.9585   -9.1361    0.0000 H   0  0  0  0  0  0  0  0  0  0  0  0
   15.1010   -5.4247    0.0000 H   0  0  0  0  0  0  0  0  0  0  0  0
   20.1153   -9.1255    0.0000 O   0  0  0  0  0  0  0  0  0  0  0  0
   19.3880  -10.3550    0.0000 O   0  0  0  0  0  0  0  0  0  0  0  0
   20.1066   -9.9502    0.0000 C   0  0  2  0  0  0  0  0  0  0  0  0
   20.8164  -10.3701    0.0000 C   0  0  1  0  0  0  0  0  0  0  0  0
   20.8077  -11.1948    0.0000 C   0  0  2  0  0  0  0  0  0  0  0  0
   20.0892  -11.5996    0.0000 C   0  0  1  0  0  0  0  0  0  0  0  0
   19.3793  -11.1797    0.0000 C   0  0  1  0  0  0  0  0  0  0  0  0
   18.6607  -11.5845    0.0000 C   0  0  0  0  0  0  0  0  0  0  0  0
   18.6520  -12.4092    0.0000 O   0  0  0  0  0  0  0  0  0  0  0  0
   21.5176  -11.6146    0.0000 O   0  0  0  0  0  0  0  0  0  0  0  0
   21.5350   -9.9653    0.0000 O   0  0  0  0  0  0  0  0  0  0  0  0
    7.9588  -13.6722    0.0000 O   0  0  0  0  0  0  0  0  0  0  0  0
    6.5303  -14.4970    0.0000 O   0  0  0  0  0  0  0  0  0  0  0  0
    5.1018  -13.6722    0.0000 O   0  0  0  0  0  0  0  0  0  0  0  0
    5.8161  -12.4351    0.0000 C   0  0  0  0  0  0  0  0  0  0  0  0
    5.8161  -13.2598    0.0000 C   0  0  2  0  0  0  0  0  0  0  0  0
    6.5303  -13.6722    0.0000 C   0  0  1  0  0  0  0  0  0  0  0  0
    7.2446  -13.2598    0.0000 C   0  0  2  0  0  0  0  0  0  0  0  0
    7.2446  -12.4351    0.0000 C   0  0  1  0  0  0  0  0  0  0  0  0
    6.5303  -12.0227    0.0000 O   0  0  0  0  0  0  0  0  0  0  0  0
    7.9588  -12.0227    0.0000 O   0  0  0  0  0  0  0  0  0  0  0  0
   20.0805  -12.4243    0.0000 O   0  0  0  0  0  0  0  0  0  0  0  0
   19.3990   -8.7167    0.0000 C   0  0  0  0  0  0  0  0  0  0  0  0
   19.3826   -5.4177    0.0000 O   0  0  0  0  0  0  0  0  0  0  0  0
   20.8152   -6.2354    0.0000 O   0  0  0  0  0  0  0  0  0  0  0  0
   20.8234   -7.8849    0.0000 O   0  0  0  0  0  0  0  0  0  0  0  0
   19.3949   -7.8919    0.0000 C   0  0  2  0  0  0  0  0  0  0  0  0
   20.1071   -7.4760    0.0000 C   0  0  2  0  0  0  0  0  0  0  0  0
   20.1030   -6.6513    0.0000 C   0  0  1  0  0  0  0  0  0  0  0  0
   19.3867   -6.2425    0.0000 C   0  0  2  0  0  0  0  0  0  0  0  0
   18.6745   -6.6584    0.0000 C   0  0  1  0  0  0  0  0  0  0  0  0
   18.6786   -7.4831    0.0000 O   0  0  0  0  0  0  0  0  0  0  0  0
   17.9582   -6.2495    0.0000 O   0  0  0  0  0  0  0  0  0  0  0  0
   12.9585   -6.6619    0.0000 C   0  0  0  0  0  0  0  0  0  0  0  0
   14.3870   -6.6617    0.0000 C   0  0  0  0  0  0  0  0  0  0  0  0
   13.6728   -7.8990    0.0000 H   0  0  0  0  0  0  0  0  0  0  0  0
 82 84  1  1  0  0  0
 70 72  1  1  0  0  0
 69 63  1  6  0  0  0
 68 64  1  1  0  0  0
 67 65  1  6  0  0  0
 71 66  1  0  0  0  0
 67 66  1  0  0  0  0
 68 67  1  0  0  0  0
 69 68  1  0  0  0  0
 70 69  1  0  0  0  0
 71 70  1  0  0  0  0
 78 74  1  1  0  0  0
 74 52  1  0  0  0  0
 53 54  1  0  0  0  0
 81 75  1  6  0  0  0
 80 76  1  1  0  0  0
 79 77  1  6  0  0  0
 83 78  1  0  0  0  0
 79 78  1  0  0  0  0
 80 79  1  0  0  0  0
 81 80  1  0  0  0  0
  1  2  1  0  0  0  0
  2  3  1  0  0  0  0
  3  4  1  0  0  0  0
  4  5  1  0  0  0  0
  5  6  1  0  0  0  0
  6  7  1  0  0  0  0
  7  8  1  0  0  0  0
  8  9  1  0  0  0  0
  9 10  1  0  0  0  0
 10 11  1  0  0  0  0
 11 12  1  0  0  0  0
 12 13  1  0  0  0  0
 13 14  1  0  0  0  0
 14 15  1  0  0  0  0
 15 16  1  0  0  0  0
 16 17  1  0  0  0  0
 12 17  1  0  0  0  0
 17 18  1  0  0  0  0
  9 18  1  0  0  0  0
 18 19  1  0  0  0  0
 19 20  1  0  0  0  0
 20 21  2  0  0  0  0
  8 21  1  0  0  0  0
 21 22  1  0  0  0  0
  5 22  1  0  0  0  0
  1 22  1  0  0  0  0
 23 24  2  0  0  0  0
 23 84  1  0  0  0  0
  5 23  1  1  0  0  0
 13 25  1  1  0  0  0
  8 26  1  6  0  0  0
  2 27  1  0  0  0  0
  2 28  1  0  0  0  0
 29 30  1  0  0  0  0
 13 29  1  6  0  0  0
 32 33  1  0  0  0  0
 33 34  1  0  0  0  0
 34 35  1  0  0  0  0
 35 36  1  0  0  0  0
 36 37  1  0  0  0  0
 32 37  1  0  0  0  0
 36 38  1  1  0  0  0
 35 39  1  1  0  0  0
 41 42  1  0  0  0  0
 42 43  1  0  0  0  0
 43 44  1  0  0  0  0
 44 45  1  0  0  0  0
 45 46  1  0  0  0  0
 41 46  1  0  0  0  0
 44 72  1  6  0  0  0
 46 47  1  6  0  0  0
 45 48  1  1  0  0  0
 43 49  1  6  0  0  0
 42 40  1  1  0  0  0
 34 40  1  6  0  0  0
 33 31  1  1  0  0  0
 14 31  1  1  0  0  0
 12 50  1  6  0  0  0
 22 51  1  1  0  0  0
 82 81  1  0  0  0  0
 83 82  1  0  0  0  0
 54 55  1  0  0  0  0
 55 56  1  0  0  0  0
 56 57  1  0  0  0  0
 57 58  1  0  0  0  0
 53 58  1  0  0  0  0
 57 73  1  6  0  0  0
 59 60  1  0  0  0  0
 58 59  1  1  0  0  0
 56 61  1  1  0  0  0
 55 62  1  6  0  0  0
 54 52  1  1  0  0  0
 17 85  1  1  0  0  0
  9 86  1  1  0  0  0
 18 87  1  6  0  0  0
M  END
>  <cdx:fragmentId>
5

$$$$
