136723.cdx
  Mrv1902 05222410192D          

  6  6  0  0  0  0            999 V2000
   14.4050  -13.1009    0.0000 C   0  0  0  0  0  0  0  0  0  0  0  0
   15.0724  -12.6160    0.0000 C   0  0  0  0  0  0  0  0  0  0  0  0
   15.7399  -13.1009    0.0000 C   0  0  0  0  0  0  0  0  0  0  0  0
   15.4849  -13.8855    0.0000 C   0  0  0  0  0  0  0  0  0  0  0  0
   14.6599  -13.8855    0.0000 C   0  0  0  0  0  0  0  0  0  0  0  0
   16.5245  -12.8459    0.0000 C   0  0  0  0  0  0  0  0  0  0  0  0
  1  2  2  0  0  0  0
  2  3  1  0  0  0  0
  3  4  1  0  0  0  0
  4  5  1  0  0  0  0
  1  5  1  0  0  0  0
  3  6  2  0  0  0  0
M  END
>  <cdx:groupId>
475

>  <cdx:fragmentId>
460

$$$$
