136881.cdx
  Mrv1902 05222410262D          

 37 41  0  0  0  0            999 V2000
    8.6246   -6.4493    0.0000 C   0  0  1  0  0  0  0  0  0  0  0  0
    9.3391   -6.0368    0.0000 C   0  0  1  0  0  0  0  0  0  0  0  0
   10.0535   -6.4493    0.0000 C   0  0  0  0  0  0  0  0  0  0  0  0
   10.0535   -7.2743    0.0000 C   0  0  0  0  0  0  0  0  0  0  0  0
    9.3391   -7.6868    0.0000 C   0  0  2  0  0  0  0  0  0  0  0  0
    9.3391   -8.5118    0.0000 C   0  0  0  0  0  0  0  0  0  0  0  0
    8.6246   -8.9243    0.0000 C   0  0  0  0  0  0  0  0  0  0  0  0
    7.9101   -8.5118    0.0000 C   0  0  1  0  0  0  0  0  0  0  0  0
    7.1956   -8.9243    0.0000 C   0  0  2  0  0  0  0  0  0  0  0  0
    7.1956   -9.7493    0.0000 C   0  0  0  0  0  0  0  0  0  0  0  0
    6.4812  -10.1618    0.0000 C   0  0  0  0  0  0  0  0  0  0  0  0
    5.7667   -9.7493    0.0000 C   0  0  1  0  0  0  0  0  0  0  0  0
    5.0522  -10.1618    0.0000 C   0  0  2  0  0  0  0  0  0  0  0  0
    4.3378   -9.7493    0.0000 C   0  0  2  0  0  0  0  0  0  0  0  0
    4.3378   -8.9243    0.0000 C   0  0  0  0  0  0  0  0  0  0  0  0
    5.0522   -8.5118    0.0000 C   0  0  0  0  0  0  0  0  0  0  0  0
    5.7667   -8.9243    0.0000 C   0  0  2  0  0  0  0  0  0  0  0  0
    6.4812   -8.5118    0.0000 C   0  0  1  0  0  0  0  0  0  0  0  0
    6.4812   -7.6868    0.0000 C   0  0  0  0  0  0  0  0  0  0  0  0
    7.1956   -7.2743    0.0000 C   0  0  0  0  0  0  0  0  0  0  0  0
    7.9101   -7.6868    0.0000 C   0  0  0  0  0  0  0  0  0  0  0  0
    8.6246   -7.2743    0.0000 C   0  0  2  0  0  0  0  0  0  0  0  0
   10.0535   -8.0993    0.0000 C   0  0  0  0  0  0  0  0  0  0  0  0
   10.0535   -8.9243    0.0000 O   0  0  0  0  0  0  0  0  0  0  0  0
   10.7680   -7.6868    0.0000 O   0  0  0  0  0  0  0  0  0  0  0  0
    5.7667   -8.0993    0.0000 C   0  0  0  0  0  0  0  0  0  0  0  0
    4.6397  -10.8762    0.0000 C   0  0  0  0  0  0  0  0  0  0  0  0
    9.3391   -5.2118    0.0000 C   0  0  0  0  0  0  0  0  0  0  0  0
    7.9101   -6.0368    0.0000 C   0  0  0  0  0  0  0  0  0  0  0  0
    5.4647  -10.8762    0.0000 C   0  0  0  0  0  0  0  0  0  0  0  0
    5.0522  -11.5907    0.0000 O   0  0  0  0  0  0  0  0  0  0  0  0
    3.6233  -10.1618    0.0000 O   0  0  0  0  0  0  0  0  0  0  0  0
    5.7667  -10.5743    0.0000 H   0  0  0  0  0  0  0  0  0  0  0  0
    8.6246   -8.0993    0.0000 H   0  0  0  0  0  0  0  0  0  0  0  0
    6.4812   -9.3368    0.0000 H   0  0  0  0  0  0  0  0  0  0  0  0
    7.9101   -9.3368    0.0000 C   0  0  0  0  0  0  0  0  0  0  0  0
    7.1956   -8.0993    0.0000 C   0  0  0  0  0  0  0  0  0  0  0  0
  1  2  1  0  0  0  0
  2  3  1  0  0  0  0
  3  4  1  0  0  0  0
  4  5  1  0  0  0  0
  5  6  1  0  0  0  0
  6  7  1  0  0  0  0
  7  8  1  0  0  0  0
  8  9  1  0  0  0  0
  9 10  1  0  0  0  0
 10 11  1  0  0  0  0
 11 12  1  0  0  0  0
 12 13  1  0  0  0  0
 13 14  1  0  0  0  0
 14 15  1  0  0  0  0
 15 16  1  0  0  0  0
 16 17  1  0  0  0  0
 12 17  1  0  0  0  0
 17 18  1  0  0  0  0
  9 18  1  0  0  0  0
 18 19  1  0  0  0  0
 19 20  1  0  0  0  0
 20 21  2  0  0  0  0
  8 21  1  0  0  0  0
 21 22  1  0  0  0  0
  5 22  1  0  0  0  0
  1 22  1  0  0  0  0
 23 24  2  0  0  0  0
 23 25  1  0  0  0  0
  5 23  1  1  0  0  0
 17 26  1  1  0  0  0
 13 27  1  1  0  0  0
  2 28  1  6  0  0  0
  1 29  1  1  0  0  0
 30 31  1  0  0  0  0
 13 30  1  0  0  0  0
 14 32  1  1  0  0  0
 12 33  1  6  0  0  0
 22 34  1  1  0  0  0
 18 35  1  6  0  0  0
  8 36  1  6  0  0  0
  9 37  1  1  0  0  0
M  END
>  <cdx:fragmentId>
5

$$$$
