136854.cdx
  Mrv1902 05222410272D          

 27 28  0  0  0  0            999 V2000
    3.7687   -8.7523    0.0000 O   0  0  0  0  0  0  0  0  0  0  0  0
    7.3460   -7.5349    0.0000 C   0  0  2  0  0  0  0  0  0  0  0  0
    6.6328   -7.1201    0.0000 O   0  0  0  0  0  0  0  0  0  0  0  0
    8.0618   -7.1246    0.0000 C   0  0  1  0  0  0  0  0  0  0  0  0
    4.4762   -9.9938    0.0000 O   0  0  0  0  0  0  0  0  0  0  0  0
    5.1930   -9.5853    0.0000 C   0  0  2  0  0  0  0  0  0  0  0  0
    5.1977   -8.7603    0.0000 C   0  0  1  0  0  0  0  0  0  0  0  0
    4.4855   -8.3438    0.0000 C   0  0  0  0  0  0  0  0  0  0  0  0
    8.0644   -6.2997    0.0000 C   0  0  1  0  0  0  0  0  0  0  0  0
    7.3512   -5.8849    0.0000 C   0  0  0  0  0  0  0  0  0  0  0  0
    6.6354   -6.2951    0.0000 C   0  0  0  0  0  0  0  0  0  0  0  0
    8.7749   -7.5394    0.0000 C   0  0  0  0  0  0  0  0  0  0  0  0
    9.4907   -7.1292    0.0000 O   0  0  0  0  0  0  0  0  0  0  0  0
    8.7801   -5.8894    0.0000 C   0  0  0  0  0  0  0  0  0  0  0  0
    8.0696   -4.6497    0.0000 O   0  0  0  0  0  0  0  0  0  0  0  0
    7.3538   -5.0599    0.0000 C   0  0  0  0  0  0  0  0  0  0  0  0
    6.6407   -4.6451    0.0000 O   0  0  0  0  0  0  0  0  0  0  0  0
    9.4933   -6.3042    0.0000 C   0  0  0  0  0  0  0  0  0  0  0  0
   10.2091   -5.8940    0.0000 O   0  0  0  0  0  0  0  0  0  0  0  0
    8.7723   -8.3644    0.0000 C   0  0  0  0  0  0  0  0  0  0  0  0
    5.9052  -10.0018    0.0000 C   0  0  1  0  0  0  0  0  0  0  0  0
    6.6219   -9.5933    0.0000 C   0  0  2  0  0  0  0  0  0  0  0  0
    6.6266   -8.7684    0.0000 C   0  0  1  0  0  0  0  0  0  0  0  0
    5.9144   -8.3518    0.0000 O   0  0  0  0  0  0  0  0  0  0  0  0
    5.9005  -10.8268    0.0000 O   0  0  0  0  0  0  0  0  0  0  0  0
    7.3341  -10.0098    0.0000 O   0  0  0  0  0  0  0  0  0  0  0  0
    7.3434   -8.3599    0.0000 O   0  0  0  0  0  0  0  0  0  0  0  0
  2 27  1  6  0  0  0
  2  3  1  0  0  0  0
  2  4  1  0  0  0  0
  4  9  1  0  0  0  0
  9 10  1  0  0  0  0
 10 11  2  0  0  0  0
 11  3  1  0  0  0  0
 18 13  2  0  0  0  0
  4 12  1  1  0  0  0
 19 18  1  0  0  0  0
 18 14  1  0  0  0  0
  9 14  1  1  0  0  0
 15 16  2  0  0  0  0
 16 10  1  0  0  0  0
 17 16  1  0  0  0  0
  6  5  1  6  0  0  0
 12 20  2  0  0  0  0
  6  7  1  0  0  0  0
  7  8  1  1  0  0  0
  8  1  1  0  0  0  0
  6 21  1  0  0  0  0
 21 22  1  0  0  0  0
 22 23  1  0  0  0  0
 23 24  1  0  0  0  0
 24  7  1  0  0  0  0
 23 27  1  1  0  0  0
 21 25  1  1  0  0  0
 22 26  1  6  0  0  0
M  END
>  <cdx:fragmentId>
5

$$$$
