136848.cdx
  Mrv1902 05222410182D          

 12 13  0  0  0  0            999 V2000
   15.1874  -13.6612    0.0000 C   0  0  0  0  0  0  0  0  0  0  0  0
   15.1874  -12.8362    0.0000 C   0  0  0  0  0  0  0  0  0  0  0  0
   15.7707  -12.2528    0.0000 C   0  0  0  0  0  0  0  0  0  0  0  0
   16.5957  -12.2528    0.0000 C   0  0  0  0  0  0  0  0  0  0  0  0
   17.1791  -12.8362    0.0000 C   0  0  0  0  0  0  0  0  0  0  0  0
   17.1791  -13.6612    0.0000 C   0  0  0  0  0  0  0  0  0  0  0  0
   16.5957  -14.2446    0.0000 C   0  0  0  0  0  0  0  0  0  0  0  0
   15.7707  -14.2446    0.0000 C   0  0  0  0  0  0  0  0  0  0  0  0
   14.4729  -12.4237    0.0000 C   0  0  0  0  0  0  0  0  0  0  0  0
   13.7584  -12.8362    0.0000 C   0  0  0  0  0  0  0  0  0  0  0  0
   13.7584  -13.6612    0.0000 C   0  0  0  0  0  0  0  0  0  0  0  0
   14.4729  -14.0737    0.0000 C   0  0  0  0  0  0  0  0  0  0  0  0
  1  2  1  0  0  0  0
  2  3  1  0  0  0  0
  3  4  1  0  0  0  0
  4  5  1  0  0  0  0
  5  6  1  0  0  0  0
  6  7  1  0  0  0  0
  7  8  1  0  0  0  0
  1  8  1  0  0  0  0
  9 10  1  0  0  0  0
 10 11  2  0  0  0  0
 11 12  1  0  0  0  0
 12  1  2  0  0  0  0
  9  2  2  0  0  0  0
M  END
>  <cdx:groupId>
514

>  <cdx:fragmentId>
480

$$$$
