13697.cdx
  Mrv1902 05222410282D          

 17 19  0  0  0  0            999 V2000
    7.8305   -9.0827    0.0000 C   0  0  0  0  0  0  0  0  0  0  0  0
    8.4758   -8.8329    0.0000 N   0  0  0  0  0  0  0  0  0  0  0  0
    8.1967   -8.0872    0.0000 C   0  0  0  0  0  0  0  0  0  0  0  0
    7.1470   -7.9385    0.0000 C   0  0  1  0  0  0  0  0  0  0  0  0
    5.8602   -7.9351    0.0000 C   0  0  0  0  0  0  0  0  0  0  0  0
    5.4739   -8.7036    0.0000 N   0  0  0  0  0  0  0  0  0  0  0  0
    6.1460   -9.0541    0.0000 C   0  0  0  0  0  0  0  0  0  0  0  0
    6.8411   -8.6849    0.0000 C   0  0  2  0  0  0  0  0  0  0  0  0
    6.8411   -7.0544    0.0000 C   0  0  0  0  0  0  0  0  0  0  0  0
    4.8343   -9.1105    0.0000 C   0  0  0  0  0  0  0  0  0  0  0  0
    4.8669   -9.8678    0.0000 C   0  0  0  0  0  0  0  0  0  0  0  0
    5.5390  -10.2182    0.0000 C   0  0  0  0  0  0  0  0  0  0  0  0
    6.1785   -9.8114    0.0000 C   0  0  0  0  0  0  0  0  0  0  0  0
    9.1903   -9.2454    0.0000 C   0  0  0  0  0  0  0  0  0  0  0  0
    4.1198   -8.6980    0.0000 O   0  0  0  0  0  0  0  0  0  0  0  0
    6.6276   -9.4818    0.0000 H   0  0  0  0  0  0  0  0  0  0  0  0
    7.5595   -7.2241    0.0000 H   0  0  0  0  0  0  0  0  0  0  0  0
  8  1  1  0  0  0  0
  1  2  1  0  0  0  0
  2  3  1  0  0  0  0
  3  4  1  0  0  0  0
  4  9  1  0  0  0  0
  4  5  1  0  0  0  0
  5  6  1  0  0  0  0
  7  6  1  0  0  0  0
  8  7  1  0  0  0  0
  8  9  1  0  0  0  0
  6 10  1  0  0  0  0
 10 11  1  0  0  0  0
 11 12  2  0  0  0  0
 12 13  1  0  0  0  0
 13  7  2  0  0  0  0
  2 14  1  0  0  0  0
 10 15  2  0  0  0  0
  8 16  1  1  0  0  0
  4 17  1  6  0  0  0
M  END
>  <cdx:groupId>
819

>  <cdx:fragmentId>
820

$$$$
