13699.cdx
  Mrv1902 05222410182D          

 26 30  0  0  0  0            999 V2000
    4.2980   -5.2507    0.0000 C   0  0  0  0  0  0  0  0  0  0  0  0
    7.8664   -4.8053    0.0000 C   0  0  0  0  0  0  0  0  0  0  0  0
    7.1558   -5.2243    0.0000 C   0  0  0  0  0  0  0  0  0  0  0  0
    7.1634   -6.0493    0.0000 C   0  0  0  0  0  0  0  0  0  0  0  0
    7.8817   -6.4552    0.0000 C   0  0  0  0  0  0  0  0  0  0  0  0
    8.5923   -6.0361    0.0000 C   0  0  0  0  0  0  0  0  0  0  0  0
    8.5847   -5.2111    0.0000 C   0  0  0  0  0  0  0  0  0  0  0  0
    7.8893   -7.2802    0.0000 C   0  0  1  0  0  0  0  0  0  0  0  0
    8.6075   -7.6860    0.0000 N   0  3  0  0  0  0  0  0  0  0  0  0
    9.3182   -7.2670    0.0000 C   0  0  0  0  0  0  0  0  0  0  0  0
    9.3106   -6.4420    0.0000 C   0  0  0  0  0  0  0  0  0  0  0  0
    6.4528   -6.4684    0.0000 C   0  0  0  0  0  0  0  0  0  0  0  0
    6.4604   -7.2934    0.0000 C   0  0  0  0  0  0  0  0  0  0  0  0
    7.1787   -7.6992    0.0000 C   0  0  0  0  0  0  0  0  0  0  0  0
    5.7345   -6.0625    0.0000 C   0  0  0  0  0  0  0  0  0  0  0  0
    5.0239   -6.4816    0.0000 C   0  0  0  0  0  0  0  0  0  0  0  0
    5.0315   -7.3066    0.0000 C   0  0  0  0  0  0  0  0  0  0  0  0
    5.7498   -7.7124    0.0000 C   0  0  0  0  0  0  0  0  0  0  0  0
    5.7269   -5.2375    0.0000 O   0  0  0  0  0  0  0  0  0  0  0  0
    8.1950   -8.4005    0.0000 C   0  0  0  0  0  0  0  0  0  0  0  0
    4.3057   -6.0757    0.0000 O   0  0  0  0  0  0  0  0  0  0  0  0
    7.8969   -8.1051    0.0000 H   0  0  0  0  0  0  0  0  0  0  0  0
    7.6875   -3.9999    0.0000 O   0  0  0  0  0  0  0  0  0  0  0  0
    6.8662   -3.9213    0.0000 C   0  0  0  0  0  0  0  0  0  0  0  0
    6.5376   -4.6780    0.0000 O   0  0  0  0  0  0  0  0  0  0  0  0
    9.0200   -8.4005    0.0000 C   0  0  0  0  0  0  0  0  0  0  0  0
 21  1  1  0  0  0  0
  2  3  2  0  0  0  0
  3  4  1  0  0  0  0
  4  5  2  0  0  0  0
  5  6  1  0  0  0  0
  6  7  2  0  0  0  0
  7  2  1  0  0  0  0
  5  8  1  0  0  0  0
  8  9  1  0  0  0  0
  9 10  1  0  0  0  0
 10 11  1  0  0  0  0
 11  6  1  0  0  0  0
  4 12  1  0  0  0  0
 12 13  2  0  0  0  0
 13 14  1  0  0  0  0
 14  8  1  0  0  0  0
 12 15  1  0  0  0  0
 15 16  2  0  0  0  0
 16 17  1  0  0  0  0
 17 18  2  0  0  0  0
 18 13  1  0  0  0  0
 15 19  1  0  0  0  0
  9 20  1  0  0  0  0
 16 21  1  0  0  0  0
  8 22  1  6  0  0  0
  2 23  1  0  0  0  0
 23 24  1  0  0  0  0
 24 25  1  0  0  0  0
 25  3  1  0  0  0  0
  9 26  1  0  0  0  0
M  CHG  1   9   1
M  END
>  <cdx:fragmentId>
5

$$$$
