137.cdx
  Mrv1902 05222410282D          

 23 25  0  0  0  0            999 V2000
    4.5768   -5.0589    0.0000 C   0  0  0  0  0  0  0  0  0  0  0  0
    4.5768   -5.8839    0.0000 C   0  0  0  0  0  0  0  0  0  0  0  0
    5.2913   -6.2964    0.0000 C   0  0  0  0  0  0  0  0  0  0  0  0
    6.0057   -5.8839    0.0000 C   0  0  0  0  0  0  0  0  0  0  0  0
    6.0057   -5.0589    0.0000 C   0  0  0  0  0  0  0  0  0  0  0  0
    5.2913   -4.6464    0.0000 C   0  0  0  0  0  0  0  0  0  0  0  0
    6.7202   -6.2964    0.0000 C   0  0  0  0  0  0  0  0  0  0  0  0
    7.4347   -5.8839    0.0000 C   0  0  0  0  0  0  0  0  0  0  0  0
    7.4347   -5.0589    0.0000 C   0  0  0  0  0  0  0  0  0  0  0  0
    6.7202   -4.6464    0.0000 O   0  0  0  0  0  0  0  0  0  0  0  0
    8.8636   -5.0589    0.0000 C   0  0  0  0  0  0  0  0  0  0  0  0
    8.1492   -4.6464    0.0000 C   0  0  0  0  0  0  0  0  0  0  0  0
    9.5781   -4.6464    0.0000 C   0  0  0  0  0  0  0  0  0  0  0  0
    9.5781   -3.8214    0.0000 C   0  0  0  0  0  0  0  0  0  0  0  0
    8.8636   -3.4089    0.0000 C   0  0  0  0  0  0  0  0  0  0  0  0
    8.1492   -3.8214    0.0000 C   0  0  0  0  0  0  0  0  0  0  0  0
    6.7202   -7.1214    0.0000 O   0  0  0  0  0  0  0  0  0  0  0  0
    8.1492   -6.2964    0.0000 O   0  0  0  0  0  0  0  0  0  0  0  0
    5.2913   -7.1214    0.0000 O   0  0  0  0  0  0  0  0  0  0  0  0
    3.8623   -4.6464    0.0000 O   0  0  0  0  0  0  0  0  0  0  0  0
   10.2926   -3.4089    0.0000 O   0  0  0  0  0  0  0  0  0  0  0  0
    8.8636   -2.5839    0.0000 O   0  0  0  0  0  0  0  0  0  0  0  0
    9.5781   -2.1714    0.0000 C   0  0  0  0  0  0  0  0  0  0  0  0
  1  2  2  0  0  0  0
  2  3  1  0  0  0  0
  3  4  2  0  0  0  0
  4  5  1  0  0  0  0
  5  6  2  0  0  0  0
  6  1  1  0  0  0  0
  4  7  1  0  0  0  0
  7  8  1  0  0  0  0
  8  9  2  0  0  0  0
  9 10  1  0  0  0  0
 10  5  1  0  0  0  0
 11 12  2  0  0  0  0
 12  9  1  0  0  0  0
 11 13  1  0  0  0  0
 13 14  2  0  0  0  0
 14 15  1  0  0  0  0
 15 16  2  0  0  0  0
 16 12  1  0  0  0  0
  7 17  2  0  0  0  0
  8 18  1  0  0  0  0
  3 19  1  0  0  0  0
  1 20  1  0  0  0  0
 14 21  1  0  0  0  0
 15 22  1  0  0  0  0
 22 23  1  0  0  0  0
M  END
>  <cdx:fragmentId>
116

$$$$
