13707.cdx
  Mrv1902 05222410192D          

 29 33  0  0  0  0            999 V2000
    8.6711   -4.7299    0.0000 C   0  0  0  0  0  0  0  0  0  0  0  0
    7.9599   -5.1480    0.0000 C   0  0  0  0  0  0  0  0  0  0  0  0
    7.9664   -5.9730    0.0000 C   0  0  0  0  0  0  0  0  0  0  0  0
    8.6841   -6.3798    0.0000 C   0  0  0  0  0  0  0  0  0  0  0  0
    9.3953   -5.9617    0.0000 C   0  0  0  0  0  0  0  0  0  0  0  0
    9.3888   -5.1367    0.0000 C   0  0  0  0  0  0  0  0  0  0  0  0
    8.6906   -7.2048    0.0000 C   0  0  0  0  0  0  0  0  0  0  0  0
    9.4083   -7.6116    0.0000 N   0  3  0  0  0  0  0  0  0  0  0  0
   10.1195   -7.1935    0.0000 C   0  0  0  0  0  0  0  0  0  0  0  0
   10.1130   -6.3685    0.0000 C   0  0  0  0  0  0  0  0  0  0  0  0
    7.2552   -6.3911    0.0000 C   0  0  0  0  0  0  0  0  0  0  0  0
    7.2617   -7.2161    0.0000 C   0  0  0  0  0  0  0  0  0  0  0  0
    7.9794   -7.6229    0.0000 C   0  0  0  0  0  0  0  0  0  0  0  0
    6.5375   -5.9843    0.0000 C   0  0  0  0  0  0  0  0  0  0  0  0
    5.8263   -6.4024    0.0000 C   0  0  0  0  0  0  0  0  0  0  0  0
    5.8328   -7.2274    0.0000 C   0  0  0  0  0  0  0  0  0  0  0  0
    6.5505   -7.6342    0.0000 C   0  0  0  0  0  0  0  0  0  0  0  0
   10.1000   -4.7186    0.0000 O   0  0  0  0  0  0  0  0  0  0  0  0
    6.5310   -5.1593    0.0000 O   0  0  0  0  0  0  0  0  0  0  0  0
    5.1086   -5.9956    0.0000 O   0  0  0  0  0  0  0  0  0  0  0  0
    5.1216   -7.6455    0.0000 O   0  0  0  0  0  0  0  0  0  0  0  0
    8.4932   -3.9243    0.0000 O   0  0  0  0  0  0  0  0  0  0  0  0
    7.6720   -3.8445    0.0000 C   0  0  0  0  0  0  0  0  0  0  0  0
    7.3424   -4.6008    0.0000 O   0  0  0  0  0  0  0  0  0  0  0  0
    8.9958   -8.3261    0.0000 C   0  0  0  0  0  0  0  0  0  0  0  0
    9.8208   -8.3261    0.0000 C   0  0  0  0  0  0  0  0  0  0  0  0
    5.1282   -8.4705    0.0000 C   0  0  0  0  0  0  0  0  0  0  0  0
    5.1021   -5.1706    0.0000 C   0  0  0  0  0  0  0  0  0  0  0  0
   10.0934   -3.8936    0.0000 C   0  0  0  0  0  0  0  0  0  0  0  0
  1  2  2  0  0  0  0
  2  3  1  0  0  0  0
  3  4  2  0  0  0  0
  4  5  1  0  0  0  0
  5  6  2  0  0  0  0
  6  1  1  0  0  0  0
  4  7  1  0  0  0  0
  7  8  1  0  0  0  0
  8  9  1  0  0  0  0
  9 10  1  0  0  0  0
 10  5  1  0  0  0  0
  3 11  1  0  0  0  0
 11 12  2  0  0  0  0
 12 13  1  0  0  0  0
 13  7  1  0  0  0  0
 11 14  1  0  0  0  0
 14 15  2  0  0  0  0
 15 16  1  0  0  0  0
 16 17  2  0  0  0  0
 17 12  1  0  0  0  0
  6 18  1  0  0  0  0
 14 19  1  0  0  0  0
 15 20  1  0  0  0  0
 16 21  1  0  0  0  0
  1 22  1  0  0  0  0
 22 23  1  0  0  0  0
 23 24  1  0  0  0  0
 24  2  1  0  0  0  0
  8 25  1  0  0  0  0
  8 26  1  0  0  0  0
 21 27  1  0  0  0  0
 20 28  1  0  0  0  0
 18 29  1  0  0  0  0
M  CHG  1   8   1
M  END
>  <cdx:fragmentId>
5

$$$$
