13706.cdx
  Mrv1902 05222410192D          

 26 28  0  0  0  0            999 V2000
    5.3560   -5.4781    0.0000 C   0  0  0  0  0  0  0  0  0  0  0  0
    5.3756   -6.3028    0.0000 C   0  0  0  0  0  0  0  0  0  0  0  0
    6.0997   -6.6982    0.0000 C   0  0  0  0  0  0  0  0  0  0  0  0
    6.8041   -6.2689    0.0000 C   0  0  0  0  0  0  0  0  0  0  0  0
    6.7845   -5.4441    0.0000 C   0  0  0  0  0  0  0  0  0  0  0  0
    6.0605   -5.0487    0.0000 C   0  0  0  0  0  0  0  0  0  0  0  0
    7.5282   -6.6643    0.0000 C   0  0  0  0  0  0  0  0  0  0  0  0
    8.2327   -6.2349    0.0000 N   0  3  0  0  0  0  0  0  0  0  0  0
    8.2131   -5.4102    0.0000 C   0  0  0  0  0  0  0  0  0  0  0  0
    7.4890   -5.0148    0.0000 C   0  0  0  0  0  0  0  0  0  0  0  0
   11.1485   -8.6414    0.0000 C   0  0  0  0  0  0  0  0  0  0  0  0
   10.4441   -9.0707    0.0000 O   0  0  0  0  0  0  0  0  0  0  0  0
   10.4049   -7.4212    0.0000 O   0  0  0  0  0  0  0  0  0  0  0  0
    8.2915   -8.7092    0.0000 C   0  0  0  0  0  0  0  0  0  0  0  0
    9.0155   -9.1047    0.0000 C   0  0  0  0  0  0  0  0  0  0  0  0
    9.7200   -8.6753    0.0000 C   0  0  0  0  0  0  0  0  0  0  0  0
    4.6319   -5.0826    0.0000 O   0  0  0  0  0  0  0  0  0  0  0  0
    4.6711   -6.7322    0.0000 O   0  0  0  0  0  0  0  0  0  0  0  0
    8.6563   -6.9429    0.0000 C   0  0  0  0  0  0  0  0  0  0  0  0
    9.7004   -7.8505    0.0000 C   0  0  0  0  0  0  0  0  0  0  0  0
    7.5478   -7.4891    0.0000 C   0  0  0  0  0  0  0  0  0  0  0  0
    8.2719   -7.8845    0.0000 C   0  0  0  0  0  0  0  0  0  0  0  0
    8.9763   -7.4551    0.0000 C   0  0  0  0  0  0  0  0  0  0  0  0
    3.9471   -6.3368    0.0000 C   0  0  0  0  0  0  0  0  0  0  0  0
    3.9275   -5.5120    0.0000 C   0  0  0  0  0  0  0  0  0  0  0  0
    9.0576   -6.2220    0.0000 C   0  0  0  0  0  0  0  0  0  0  0  0
  1  2  2  0  0  0  0
  2  3  1  0  0  0  0
  3  4  2  0  0  0  0
  4  5  1  0  0  0  0
  5  6  2  0  0  0  0
  6  1  1  0  0  0  0
  4  7  1  0  0  0  0
  7  8  1  0  0  0  0
  8  9  1  0  0  0  0
  9 10  1  0  0  0  0
 10  5  1  0  0  0  0
 12 11  1  0  0  0  0
 16 12  1  0  0  0  0
 20 13  1  0  0  0  0
 21  7  1  0  0  0  0
 14 22  1  0  0  0  0
 15 14  2  0  0  0  0
 16 15  1  0  0  0  0
 20 16  2  0  0  0  0
 23 20  1  0  0  0  0
  1 17  1  0  0  0  0
  2 18  1  0  0  0  0
  8 19  1  0  0  0  0
 22 21  1  0  0  0  0
 23 22  2  0  0  0  0
 18 24  1  0  0  0  0
 17 25  1  0  0  0  0
  8 26  1  0  0  0  0
M  CHG  1   8   1
M  END
>  <cdx:fragmentId>
5

$$$$
