11137139.cdx
  Mrv1902 05222410232D          

  8  8  0  0  0  0            999 V2000
    8.1580  -12.6372    0.0000 C   0  0  0  0  0  0  0  0  0  0  0  0
    8.8725  -12.2247    0.0000 O   0  0  0  0  0  0  0  0  0  0  0  0
    6.6898  -12.5603    0.0000 O   0  0  0  0  0  0  0  0  0  0  0  0
    7.4435  -12.2247    0.0000 C   0  0  1  0  0  0  0  0  0  0  0  0
    7.3573  -11.4042    0.0000 C   0  0  0  0  0  0  0  0  0  0  0  0
    6.5503  -11.2327    0.0000 C   0  0  0  0  0  0  0  0  0  0  0  0
    6.1378  -11.9472    0.0000 C   0  0  1  0  0  0  0  0  0  0  0  0
    5.3173  -12.0334    0.0000 C   0  0  0  0  0  0  0  0  0  0  0  0
  1  2  1  0  0  0  0
  3  4  1  0  0  0  0
  4  5  1  0  0  0  0
  5  6  1  0  0  0  0
  6  7  1  0  0  0  0
  3  7  1  0  0  0  0
  7  8  1  6  0  0  0
  4  1  1  1  0  0  0
M  END
>  <cdx:groupId>
66816

>  <cdx:fragmentId>
66799

$$$$
