137399.cdx
  Mrv1902 05222410192D          

 26 29  0  0  0  0            999 V2000
    6.6500   -8.9568    0.0000 C   0  0  0  0  0  0  0  0  0  0  0  0
    7.3598   -8.5364    0.0000 C   0  0  0  0  0  0  0  0  0  0  0  0
    8.0786   -8.9413    0.0000 C   0  0  0  0  0  0  0  0  0  0  0  0
    8.7887   -8.5213    0.0000 C   0  0  0  0  0  0  0  0  0  0  0  0
    8.7800   -7.6964    0.0000 C   0  0  0  0  0  0  0  0  0  0  0  0
    8.0612   -7.2914    0.0000 C   0  0  0  0  0  0  0  0  0  0  0  0
    7.3511   -7.7114    0.0000 C   0  0  0  0  0  0  0  0  0  0  0  0
    6.6326   -7.3060    0.0000 C   0  0  0  0  0  0  0  0  0  0  0  0
    5.9229   -7.7267    0.0000 C   0  0  0  0  0  0  0  0  0  0  0  0
    5.2043   -7.3215    0.0000 C   0  0  0  0  0  0  0  0  0  0  0  0
    4.4941   -7.7412    0.0000 C   0  0  0  0  0  0  0  0  0  0  0  0
    4.5025   -8.5662    0.0000 C   0  0  0  0  0  0  0  0  0  0  0  0
    5.2211   -8.9714    0.0000 C   0  0  0  0  0  0  0  0  0  0  0  0
    5.2295   -9.7963    0.0000 C   0  0  0  0  0  0  0  0  0  0  0  0
    5.9482  -10.2015    0.0000 C   0  0  0  0  0  0  0  0  0  0  0  0
    6.6584   -9.7818    0.0000 N   0  0  0  0  0  0  0  0  0  0  0  0
    5.9313   -8.5516    0.0000 C   0  0  0  0  0  0  0  0  0  0  0  0
    6.6242   -6.4810    0.0000 O   0  0  0  0  0  0  0  0  0  0  0  0
    3.7922   -8.9859    0.0000 O   0  0  0  0  0  0  0  0  0  0  0  0
    3.0736   -8.5807    0.0000 C   0  0  0  0  0  0  0  0  0  0  0  0
    3.7754   -7.3360    0.0000 O   0  0  0  0  0  0  0  0  0  0  0  0
    3.0652   -7.7558    0.0000 C   0  0  0  0  0  0  0  0  0  0  0  0
    5.1959   -6.4965    0.0000 O   0  0  0  0  0  0  0  0  0  0  0  0
    4.4773   -6.0913    0.0000 C   0  0  0  0  0  0  0  0  0  0  0  0
    9.4902   -7.2766    0.0000 O   0  0  0  0  0  0  0  0  0  0  0  0
   10.2089   -7.6818    0.0000 C   0  0  0  0  0  0  0  0  0  0  0  0
  1  2  1  0  0  0  0
  2  3  1  0  0  0  0
  3  4  2  0  0  0  0
  4  5  1  0  0  0  0
  5  6  2  0  0  0  0
  6  7  1  0  0  0  0
  7  8  1  0  0  0  0
  8  9  1  0  0  0  0
  9 10  2  0  0  0  0
 10 11  1  0  0  0  0
 11 12  2  0  0  0  0
 12 13  1  0  0  0  0
 13 14  1  0  0  0  0
 14 15  2  0  0  0  0
 15 16  1  0  0  0  0
  1 16  2  0  0  0  0
  1 17  1  0  0  0  0
 17  9  1  0  0  0  0
  2  7  2  0  0  0  0
 13 17  2  0  0  0  0
  8 18  2  0  0  0  0
 19 20  1  0  0  0  0
 12 19  1  0  0  0  0
 21 22  1  0  0  0  0
 11 21  1  0  0  0  0
 23 24  1  0  0  0  0
 10 23  1  0  0  0  0
 25 26  1  0  0  0  0
  5 25  1  0  0  0  0
M  END
>  <cdx:groupId>
601

>  <cdx:fragmentId>
523

$$$$
