13735.cdx
  Mrv1902 05222410282D          

 27 30  0  0  0  0            999 V2000
    9.4159   -9.1884    0.0000 C   0  0  0  0  0  0  0  0  0  0  0  0
    9.4159   -8.3634    0.0000 C   0  0  0  0  0  0  0  0  0  0  0  0
    8.7015   -7.9509    0.0000 C   0  0  0  0  0  0  0  0  0  0  0  0
    7.9870   -8.3634    0.0000 C   0  0  0  0  0  0  0  0  0  0  0  0
    7.9870   -9.1884    0.0000 C   0  0  0  0  0  0  0  0  0  0  0  0
    8.7015   -9.6009    0.0000 C   0  0  0  0  0  0  0  0  0  0  0  0
   10.1304   -9.6009    0.0000 O   0  0  0  0  0  0  0  0  0  0  0  0
   10.1304  -10.4259    0.0000 C   0  0  0  0  0  0  0  0  0  0  0  0
    8.7015  -10.4259    0.0000 O   0  0  0  0  0  0  0  0  0  0  0  0
    7.9870  -10.8384    0.0000 C   0  0  0  0  0  0  0  0  0  0  0  0
   10.1304   -7.9509    0.0000 O   0  0  0  0  0  0  0  0  0  0  0  0
   10.1304   -7.1259    0.0000 C   0  0  0  0  0  0  0  0  0  0  0  0
    7.2725   -7.9509    0.0000 C   0  0  0  0  0  0  0  0  0  0  0  0
    7.2725   -7.1259    0.0000 C   0  0  0  0  0  0  0  0  0  0  0  0
    6.5581   -6.7134    0.0000 O   0  0  0  0  0  0  0  0  0  0  0  0
    5.8436   -7.1259    0.0000 C   0  0  0  0  0  0  0  0  0  0  0  0
    5.8436   -7.9509    0.0000 C   0  0  0  0  0  0  0  0  0  0  0  0
    6.5581   -8.3634    0.0000 C   0  0  0  0  0  0  0  0  0  0  0  0
    5.1291   -6.7134    0.0000 C   0  0  0  0  0  0  0  0  0  0  0  0
    4.4146   -7.1259    0.0000 C   0  0  0  0  0  0  0  0  0  0  0  0
    4.4146   -7.9509    0.0000 C   0  0  0  0  0  0  0  0  0  0  0  0
    5.1291   -8.3634    0.0000 C   0  0  0  0  0  0  0  0  0  0  0  0
    3.6300   -6.8710    0.0000 O   0  0  0  0  0  0  0  0  0  0  0  0
    3.1451   -7.5384    0.0000 C   0  0  0  0  0  0  0  0  0  0  0  0
    3.6300   -8.2059    0.0000 O   0  0  0  0  0  0  0  0  0  0  0  0
    6.5581   -9.1884    0.0000 O   0  0  0  0  0  0  0  0  0  0  0  0
    5.1291   -9.1884    0.0000 O   0  0  0  0  0  0  0  0  0  0  0  0
  1  2  2  0  0  0  0
  2  3  1  0  0  0  0
  3  4  2  0  0  0  0
  4  5  1  0  0  0  0
  5  6  2  0  0  0  0
  6  1  1  0  0  0  0
  1  7  1  0  0  0  0
  7  8  1  0  0  0  0
  6  9  1  0  0  0  0
  9 10  1  0  0  0  0
  2 11  1  0  0  0  0
 11 12  1  0  0  0  0
  4 13  1  0  0  0  0
 13 14  2  0  0  0  0
 14 15  1  0  0  0  0
 15 16  1  0  0  0  0
 16 17  2  0  0  0  0
 17 18  1  0  0  0  0
 18 13  1  0  0  0  0
 16 19  1  0  0  0  0
 19 20  2  0  0  0  0
 20 21  1  0  0  0  0
 21 22  2  0  0  0  0
 22 17  1  0  0  0  0
 20 23  1  0  0  0  0
 23 24  1  0  0  0  0
 24 25  1  0  0  0  0
 25 21  1  0  0  0  0
 18 26  2  0  0  0  0
 22 27  1  0  0  0  0
M  END
>  <cdx:fragmentId>
5

$$$$
