13737.cdx
  Mrv1902 05222410272D          

 44 49  0  0  0  0            999 V2000
    2.4164   -7.0537    0.0000 C   0  0  0  0  0  0  0  0  0  0  0  0
    2.4164   -7.8788    0.0000 C   0  0  0  0  0  0  0  0  0  0  0  0
    3.1309   -8.2912    0.0000 C   0  0  0  0  0  0  0  0  0  0  0  0
    3.8453   -7.8788    0.0000 C   0  0  0  0  0  0  0  0  0  0  0  0
    3.8453   -7.0537    0.0000 C   0  0  0  0  0  0  0  0  0  0  0  0
    3.1309   -6.6413    0.0000 C   0  0  0  0  0  0  0  0  0  0  0  0
    4.5598   -5.8163    0.0000 C   0  0  0  0  0  0  0  0  0  0  0  0
    3.8453   -5.4037    0.0000 C   0  0  0  0  0  0  0  0  0  0  0  0
    3.1309   -5.8163    0.0000 O   0  0  0  0  0  0  0  0  0  0  0  0
    5.2743   -5.4037    0.0000 C   0  0  0  0  0  0  0  0  0  0  0  0
    5.2743   -4.5788    0.0000 C   0  0  0  0  0  0  0  0  0  0  0  0
    4.5598   -4.1662    0.0000 C   0  0  0  0  0  0  0  0  0  0  0  0
    3.8453   -4.5788    0.0000 C   0  0  0  0  0  0  0  0  0  0  0  0
    5.9888   -5.8163    0.0000 C   0  0  2  0  0  0  0  0  0  0  0  0
    6.7032   -5.4037    0.0000 N   0  0  0  0  0  0  0  0  0  0  0  0
    6.7032   -4.5788    0.0000 C   0  0  0  0  0  0  0  0  0  0  0  0
    5.9888   -4.1662    0.0000 C   0  0  0  0  0  0  0  0  0  0  0  0
    5.9888   -6.6412    0.0000 C   0  0  0  0  0  0  0  0  0  0  0  0
    6.7032   -7.0537    0.0000 C   0  0  0  0  0  0  0  0  0  0  0  0
    7.4177   -6.6412    0.0000 C   0  0  0  0  0  0  0  0  0  0  0  0
    7.4177   -5.8163    0.0000 C   0  0  0  0  0  0  0  0  0  0  0  0
    6.7032   -7.8787    0.0000 C   0  0  0  0  0  0  0  0  0  0  0  0
    7.4177   -8.2912    0.0000 C   0  0  0  0  0  0  0  0  0  0  0  0
    8.1322   -7.8787    0.0000 C   0  0  0  0  0  0  0  0  0  0  0  0
    8.1322   -7.0537    0.0000 C   0  0  0  0  0  0  0  0  0  0  0  0
    3.1309   -9.1162    0.0000 C   0  0  0  0  0  0  0  0  0  0  0  0
    3.8453   -9.5287    0.0000 N   0  0  0  0  0  0  0  0  0  0  0  0
    4.5598   -9.1162    0.0000 C   0  0  2  0  0  0  0  0  0  0  0  0
    4.5598   -8.2912    0.0000 C   0  0  0  0  0  0  0  0  0  0  0  0
    3.8453  -10.3537    0.0000 C   0  0  0  0  0  0  0  0  0  0  0  0
    4.5598  -10.7662    0.0000 C   0  0  0  0  0  0  0  0  0  0  0  0
    5.2743  -10.3537    0.0000 C   0  0  0  0  0  0  0  0  0  0  0  0
    5.2743   -9.5287    0.0000 C   0  0  0  0  0  0  0  0  0  0  0  0
    5.9888  -10.7662    0.0000 C   0  0  0  0  0  0  0  0  0  0  0  0
    6.7032  -10.3537    0.0000 C   0  0  0  0  0  0  0  0  0  0  0  0
    6.7032   -9.5287    0.0000 C   0  0  0  0  0  0  0  0  0  0  0  0
    5.9888   -9.1162    0.0000 C   0  0  0  0  0  0  0  0  0  0  0  0
    8.8466   -8.2912    0.0000 O   0  0  0  0  0  0  0  0  0  0  0  0
    3.1309   -4.1662    0.0000 O   0  0  0  0  0  0  0  0  0  0  0  0
    3.1309   -3.3413    0.0000 C   0  0  0  0  0  0  0  0  0  0  0  0
    1.7019   -6.6413    0.0000 O   0  0  0  0  0  0  0  0  0  0  0  0
    7.4177   -9.1162    0.0000 O   0  0  0  0  0  0  0  0  0  0  0  0
    7.4177  -10.7662    0.0000 O   0  0  0  0  0  0  0  0  0  0  0  0
    8.1322  -10.3537    0.0000 C   0  0  0  0  0  0  0  0  0  0  0  0
  1  2  1  0  0  0  0
  2  3  2  0  0  0  0
  3  4  1  0  0  0  0
  4  5  2  0  0  0  0
  5  6  1  0  0  0  0
  6  1  2  0  0  0  0
  7  8  2  0  0  0  0
  8  9  1  0  0  0  0
  9  6  1  0  0  0  0
  7 10  1  0  0  0  0
 10 11  2  0  0  0  0
 11 12  1  0  0  0  0
 12 13  2  0  0  0  0
 13  8  1  0  0  0  0
 10 14  1  0  0  0  0
 14 15  1  0  0  0  0
 15 16  1  0  0  0  0
 16 17  1  0  0  0  0
 17 11  1  0  0  0  0
 14 18  1  6  0  0  0
 18 19  1  0  0  0  0
 19 20  1  0  0  0  0
 21 15  1  0  0  0  0
 19 22  2  0  0  0  0
 22 23  1  0  0  0  0
 23 24  2  0  0  0  0
 24 25  1  0  0  0  0
 25 20  2  0  0  0  0
 26 27  1  0  0  0  0
 27 28  1  0  0  0  0
 28 29  1  6  0  0  0
 29  4  1  0  0  0  0
 27 30  1  0  0  0  0
 30 31  1  0  0  0  0
 31 32  1  0  0  0  0
 32 33  2  0  0  0  0
 33 28  1  0  0  0  0
 32 34  1  0  0  0  0
 34 35  2  0  0  0  0
 35 36  1  0  0  0  0
 36 37  2  0  0  0  0
 37 33  1  0  0  0  0
 24 38  1  0  0  0  0
 13 39  1  0  0  0  0
 39 40  1  0  0  0  0
  1 41  1  0  0  0  0
 36 42  1  0  0  0  0
 35 43  1  0  0  0  0
 43 44  1  0  0  0  0
M  END
>  <cdx:fragmentId>
5

$$$$
