1373.cdx
  Mrv1902 05222410252D          

 35 39  0  0  0  0            999 V2000
    3.2827   -7.9612    0.0000 C   0  0  0  0  0  0  0  0  0  0  0  0
    3.2827   -8.7862    0.0000 C   0  0  1  0  0  0  0  0  0  0  0  0
    3.9971   -9.1987    0.0000 C   0  0  0  0  0  0  0  0  0  0  0  0
    4.7116   -8.7862    0.0000 C   0  0  1  0  0  0  0  0  0  0  0  0
    4.7116   -7.9612    0.0000 C   0  0  2  0  0  0  0  0  0  0  0  0
    3.9971   -7.5488    0.0000 C   0  0  0  0  0  0  0  0  0  0  0  0
    5.4261   -9.1987    0.0000 C   0  0  0  0  0  0  0  0  0  0  0  0
    6.1405   -8.7862    0.0000 C   0  0  0  0  0  0  0  0  0  0  0  0
    6.1405   -7.9612    0.0000 C   0  0  2  0  0  0  0  0  0  0  0  0
    5.4261   -7.5488    0.0000 C   0  0  1  0  0  0  0  0  0  0  0  0
    6.8550   -7.5488    0.0000 C   0  0  1  0  0  0  0  0  0  0  0  0
    6.8550   -6.7237    0.0000 C   0  0  2  0  0  0  0  0  0  0  0  0
    6.1405   -6.3113    0.0000 C   0  0  0  0  0  0  0  0  0  0  0  0
    5.4261   -6.7237    0.0000 C   0  0  0  0  0  0  0  0  0  0  0  0
    7.6396   -7.8037    0.0000 C   0  0  0  0  0  0  0  0  0  0  0  0
    8.1246   -7.1362    0.0000 C   0  0  0  0  0  0  0  0  0  0  0  0
    7.6396   -6.4688    0.0000 C   0  0  2  0  0  0  0  0  0  0  0  0
    3.5846   -9.9132    0.0000 C   0  0  0  0  0  0  0  0  0  0  0  0
    4.4096   -9.9132    0.0000 C   0  0  0  0  0  0  0  0  0  0  0  0
    7.6396   -5.6438    0.0000 C   0  0  1  0  0  0  0  0  0  0  0  0
    8.3541   -5.2313    0.0000 C   0  0  0  0  0  0  0  0  0  0  0  0
    8.3541   -4.4063    0.0000 C   0  0  0  0  0  0  0  0  0  0  0  0
    9.0686   -3.9938    0.0000 C   0  0  0  0  0  0  0  0  0  0  0  0
    9.7830   -4.4063    0.0000 C   0  0  0  0  0  0  0  0  0  0  0  0
   10.4975   -4.8188    0.0000 O   0  0  0  0  0  0  0  0  0  0  0  0
   10.1955   -3.6918    0.0000 C   0  0  0  0  0  0  0  0  0  0  0  0
    9.3705   -5.1208    0.0000 C   0  0  0  0  0  0  0  0  0  0  0  0
    2.5682   -9.1987    0.0000 O   0  0  0  0  0  0  0  0  0  0  0  0
    4.7116   -7.1362    0.0000 C   0  0  0  0  0  0  0  0  0  0  0  0
    6.5530   -8.6757    0.0000 H   0  0  0  0  0  0  0  0  0  0  0  0
    6.8550   -5.8988    0.0000 C   0  0  0  0  0  0  0  0  0  0  0  0
    4.7116   -9.6112    0.0000 H   0  0  0  0  0  0  0  0  0  0  0  0
    7.2675   -8.2632    0.0000 C   0  0  0  0  0  0  0  0  0  0  0  0
    8.4365   -6.2553    0.0000 H   0  0  0  0  0  0  0  0  0  0  0  0
    6.9252   -5.2313    0.0000 C   0  0  0  0  0  0  0  0  0  0  0  0
  1  2  1  0  0  0  0
  2  3  1  0  0  0  0
  3  4  1  0  0  0  0
  4  5  1  0  0  0  0
  5  6  1  0  0  0  0
  6  1  1  0  0  0  0
  4  7  1  0  0  0  0
  7  8  1  0  0  0  0
  8  9  1  0  0  0  0
  9 10  1  0  0  0  0
 10  5  1  0  0  0  0
  9 11  1  0  0  0  0
 11 12  1  0  0  0  0
 12 13  1  0  0  0  0
 13 14  1  0  0  0  0
 14 10  1  0  0  0  0
 11 15  1  0  0  0  0
 15 16  1  0  0  0  0
 16 17  1  0  0  0  0
 17 12  1  0  0  0  0
  3 18  1  0  0  0  0
  3 19  1  0  0  0  0
 17 20  1  0  0  0  0
 20 21  1  0  0  0  0
 21 22  1  0  0  0  0
 22 23  2  0  0  0  0
 23 24  1  0  0  0  0
 24 25  1  0  0  0  0
 24 26  1  0  0  0  0
 24 27  1  0  0  0  0
  2 28  1  1  0  0  0
  5 29  1  1  0  0  0
 10 29  1  1  0  0  0
  9 30  1  1  0  0  0
 12 31  1  1  0  0  0
  4 32  1  6  0  0  0
 11 33  1  6  0  0  0
 17 34  1  6  0  0  0
 20 35  1  6  0  0  0
M  END
>  <cdx:fragmentId>
5

$$$$
