137357.cdx
  Mrv1902 05222410272D          

 18 19  0  0  0  0            999 V2000
    9.5841   -7.1267    0.0000 C   0  0  2  0  0  0  0  0  0  0  0  0
   10.0834   -7.7835    0.0000 C   0  0  0  0  0  0  0  0  0  0  0  0
    9.6131   -8.4613    0.0000 C   0  0  0  0  0  0  0  0  0  0  0  0
    8.8231   -8.2234    0.0000 C   0  0  2  0  0  0  0  0  0  0  0  0
    8.1894   -8.7517    0.0000 C   0  0  0  0  0  0  0  0  0  0  0  0
    7.3813   -8.5856    0.0000 C   0  0  0  0  0  0  0  0  0  0  0  0
    7.0073   -7.8503    0.0000 C   0  0  0  0  0  0  0  0  0  0  0  0
    7.3490   -7.0994    0.0000 C   0  0  0  0  0  0  0  0  0  0  0  0
    8.1492   -6.8984    0.0000 C   0  0  0  0  0  0  0  0  0  0  0  0
    8.8052   -7.3986    0.0000 C   0  0  1  0  0  0  0  0  0  0  0  0
   10.2986   -6.7142    0.0000 O   0  0  0  0  0  0  0  0  0  0  0  0
    7.1054   -5.6914    0.0000 C   0  0  0  0  0  0  0  0  0  0  0  0
    6.8208   -6.4657    0.0000 C   0  0  0  0  0  0  0  0  0  0  0  0
    6.0079   -6.6064    0.0000 C   0  0  0  0  0  0  0  0  0  0  0  0
    8.3905   -9.5518    0.0000 C   0  0  0  0  0  0  0  0  0  0  0  0
    9.5841   -6.3017    0.0000 C   0  0  0  0  0  0  0  0  0  0  0  0
    8.8231   -9.0484    0.0000 H   0  0  0  0  0  0  0  0  0  0  0  0
    8.8052   -6.5736    0.0000 H   0  0  0  0  0  0  0  0  0  0  0  0
  1  2  1  0  0  0  0
  2  3  1  0  0  0  0
  3  4  1  0  0  0  0
  4  5  1  0  0  0  0
  5  6  1  0  0  0  0
  6  7  1  0  0  0  0
  7  8  1  0  0  0  0
  8  9  2  0  0  0  0
  9 10  1  0  0  0  0
  1 10  1  0  0  0  0
  4 10  1  0  0  0  0
  1 11  1  6  0  0  0
 12 13  1  0  0  0  0
 13 14  1  0  0  0  0
  8 13  1  0  0  0  0
  5 15  2  0  0  0  0
  1 16  1  0  0  0  0
  4 17  1  1  0  0  0
 10 18  1  6  0  0  0
M  END
>  <cdx:fragmentId>
84945

$$$$
