13738.cdx
  Mrv1902 05222410182D          

 37 41  0  0  0  0            999 V2000
    3.6127   -5.7338    0.0000 C   0  0  0  0  0  0  0  0  0  0  0  0
    3.6127   -6.5587    0.0000 C   0  0  0  0  0  0  0  0  0  0  0  0
    4.3271   -6.9712    0.0000 C   0  0  0  0  0  0  0  0  0  0  0  0
    5.0416   -6.5587    0.0000 C   0  0  0  0  0  0  0  0  0  0  0  0
    5.0416   -5.7338    0.0000 C   0  0  0  0  0  0  0  0  0  0  0  0
    4.3271   -5.3213    0.0000 C   0  0  0  0  0  0  0  0  0  0  0  0
    5.7561   -6.9712    0.0000 O   0  0  0  0  0  0  0  0  0  0  0  0
    6.4705   -6.5587    0.0000 C   0  0  0  0  0  0  0  0  0  0  0  0
    6.4705   -5.7338    0.0000 C   0  0  0  0  0  0  0  0  0  0  0  0
    5.7561   -5.3213    0.0000 C   0  0  0  0  0  0  0  0  0  0  0  0
    2.8280   -5.4788    0.0000 C   0  0  0  0  0  0  0  0  0  0  0  0
    2.3431   -6.1463    0.0000 C   0  0  0  0  0  0  0  0  0  0  0  0
    2.8280   -6.8137    0.0000 O   0  0  0  0  0  0  0  0  0  0  0  0
    7.1850   -6.9712    0.0000 C   0  0  0  0  0  0  0  0  0  0  0  0
    7.8995   -6.5587    0.0000 O   0  0  0  0  0  0  0  0  0  0  0  0
    4.3271   -4.4962    0.0000 O   0  0  0  0  0  0  0  0  0  0  0  0
    5.7561   -4.4962    0.0000 O   0  0  0  0  0  0  0  0  0  0  0  0
    8.6140   -6.9712    0.0000 C   0  0  2  0  0  0  0  0  0  0  0  0
    8.6140   -7.7962    0.0000 O   0  0  0  0  0  0  0  0  0  0  0  0
    9.3284   -8.2087    0.0000 C   0  0  1  0  0  0  0  0  0  0  0  0
   10.0429   -7.7962    0.0000 C   0  0  2  0  0  0  0  0  0  0  0  0
   10.0429   -6.9712    0.0000 C   0  0  1  0  0  0  0  0  0  0  0  0
    9.3284   -6.5587    0.0000 C   0  0  1  0  0  0  0  0  0  0  0  0
    9.3284   -9.0337    0.0000 C   0  0  0  0  0  0  0  0  0  0  0  0
   10.7574   -6.5587    0.0000 O   0  0  0  0  0  0  0  0  0  0  0  0
    9.3284   -5.7338    0.0000 O   0  0  0  0  0  0  0  0  0  0  0  0
   10.7574   -8.2087    0.0000 O   0  0  0  0  0  0  0  0  0  0  0  0
   10.0429   -9.4462    0.0000 O   0  0  0  0  0  0  0  0  0  0  0  0
   10.0429  -10.2712    0.0000 C   0  0  2  0  0  0  0  0  0  0  0  0
    9.3755  -10.7562    0.0000 O   0  0  0  0  0  0  0  0  0  0  0  0
    9.6304  -11.5408    0.0000 C   0  0  0  0  0  0  0  0  0  0  0  0
   10.4554  -11.5408    0.0000 C   0  0  2  0  0  0  0  0  0  0  0  0
   10.7103  -10.7562    0.0000 C   0  0  1  0  0  0  0  0  0  0  0  0
   11.4950  -10.5012    0.0000 O   0  0  0  0  0  0  0  0  0  0  0  0
   11.2804  -11.5408    0.0000 O   0  0  0  0  0  0  0  0  0  0  0  0
   10.8679  -12.2553    0.0000 C   0  0  0  0  0  0  0  0  0  0  0  0
   11.6929  -12.2553    0.0000 O   0  0  0  0  0  0  0  0  0  0  0  0
  1  2  2  0  0  0  0
  2  3  1  0  0  0  0
  3  4  2  0  0  0  0
  4  5  1  0  0  0  0
  5  6  2  0  0  0  0
  6  1  1  0  0  0  0
  4  7  1  0  0  0  0
  7  8  1  0  0  0  0
  8  9  2  0  0  0  0
  9 10  1  0  0  0  0
 10  5  1  0  0  0  0
  1 11  1  0  0  0  0
 11 12  2  0  0  0  0
 12 13  1  0  0  0  0
 13  2  1  0  0  0  0
  8 14  1  0  0  0  0
 14 15  1  0  0  0  0
  6 16  1  0  0  0  0
 10 17  2  0  0  0  0
 18 15  1  1  0  0  0
 18 19  1  0  0  0  0
 19 20  1  0  0  0  0
 20 21  1  0  0  0  0
 21 22  1  0  0  0  0
 22 23  1  0  0  0  0
 23 18  1  0  0  0  0
 20 24  1  1  0  0  0
 22 25  1  1  0  0  0
 23 26  1  6  0  0  0
 21 27  1  6  0  0  0
 24 28  1  0  0  0  0
 29 28  1  1  0  0  0
 29 30  1  0  0  0  0
 30 31  1  0  0  0  0
 31 32  1  0  0  0  0
 32 33  1  0  0  0  0
 33 29  1  0  0  0  0
 33 34  1  6  0  0  0
 32 35  1  6  0  0  0
 32 36  1  0  0  0  0
 36 37  1  0  0  0  0
M  END
>  <cdx:fragmentId>
5

$$$$
