13748.cdx
  Mrv1902 05222410222D          

 43 48  0  0  0  0            999 V2000
    3.7983   -3.6300    0.0000 C   0  0  0  0  0  0  0  0  0  0  0  0
    5.2272   -4.4550    0.0000 C   0  0  0  0  0  0  0  0  0  0  0  0
    5.2272   -3.6300    0.0000 C   0  0  0  0  0  0  0  0  0  0  0  0
    4.5127   -3.2175    0.0000 O   0  0  0  0  0  0  0  0  0  0  0  0
    5.9417   -4.8675    0.0000 C   0  0  0  0  0  0  0  0  0  0  0  0
    6.6562   -4.4550    0.0000 C   0  0  0  0  0  0  0  0  0  0  0  0
    6.6562   -3.6300    0.0000 C   0  0  0  0  0  0  0  0  0  0  0  0
    5.9417   -3.2175    0.0000 C   0  0  0  0  0  0  0  0  0  0  0  0
    7.3706   -4.8675    0.0000 C   0  0  1  0  0  0  0  0  0  0  0  0
    8.0851   -4.4550    0.0000 N   0  0  0  0  0  0  0  0  0  0  0  0
    8.0851   -3.6300    0.0000 C   0  0  2  0  0  0  0  0  0  0  0  0
    7.3706   -3.2175    0.0000 C   0  0  0  0  0  0  0  0  0  0  0  0
    7.3706   -5.6925    0.0000 C   0  0  0  0  0  0  0  0  0  0  0  0
    8.0851   -6.1050    0.0000 C   0  0  0  0  0  0  0  0  0  0  0  0
    8.7996   -5.6925    0.0000 C   0  0  0  0  0  0  0  0  0  0  0  0
    8.7996   -4.8675    0.0000 C   0  0  0  0  0  0  0  0  0  0  0  0
    8.0851   -6.9300    0.0000 C   0  0  0  0  0  0  0  0  0  0  0  0
    8.7996   -7.3425    0.0000 C   0  0  0  0  0  0  0  0  0  0  0  0
    9.5140   -6.9300    0.0000 C   0  0  0  0  0  0  0  0  0  0  0  0
    9.5140   -6.1050    0.0000 C   0  0  0  0  0  0  0  0  0  0  0  0
    7.3706   -8.1675    0.0000 C   0  0  0  0  0  0  0  0  0  0  0  0
    8.0851   -8.5800    0.0000 C   0  0  0  0  0  0  0  0  0  0  0  0
    8.7996   -8.1675    0.0000 O   0  0  0  0  0  0  0  0  0  0  0  0
    6.6562   -8.5800    0.0000 C   0  0  0  0  0  0  0  0  0  0  0  0
    6.6562   -9.4050    0.0000 C   0  0  0  0  0  0  0  0  0  0  0  0
    7.3706   -9.8175    0.0000 C   0  0  0  0  0  0  0  0  0  0  0  0
    8.0851   -9.4050    0.0000 C   0  0  0  0  0  0  0  0  0  0  0  0
    5.9417   -9.8175    0.0000 C   0  0  0  0  0  0  0  0  0  0  0  0
    5.9417  -10.6425    0.0000 C   0  0  0  0  0  0  0  0  0  0  0  0
    6.6562  -11.0550    0.0000 N   0  0  0  0  0  0  0  0  0  0  0  0
    5.2272  -11.0550    0.0000 C   0  0  0  0  0  0  0  0  0  0  0  0
    5.2272  -11.8800    0.0000 C   0  0  0  0  0  0  0  0  0  0  0  0
    5.9417  -12.2925    0.0000 C   0  0  0  0  0  0  0  0  0  0  0  0
    6.6562  -11.8800    0.0000 C   0  0  0  0  0  0  0  0  0  0  0  0
    4.5127  -10.6425    0.0000 C   0  0  0  0  0  0  0  0  0  0  0  0
    3.7983  -11.0550    0.0000 C   0  0  0  0  0  0  0  0  0  0  0  0
    3.7983  -11.8800    0.0000 C   0  0  0  0  0  0  0  0  0  0  0  0
    4.5127  -12.2925    0.0000 C   0  0  0  0  0  0  0  0  0  0  0  0
   10.2285   -7.3425    0.0000 O   0  0  0  0  0  0  0  0  0  0  0  0
    3.0838  -10.6425    0.0000 O   0  0  0  0  0  0  0  0  0  0  0  0
    3.0838  -12.2925    0.0000 O   0  0  0  0  0  0  0  0  0  0  0  0
    3.0838  -13.1175    0.0000 C   0  0  0  0  0  0  0  0  0  0  0  0
    8.7996   -3.2175    0.0000 O   0  0  0  0  0  0  0  0  0  0  0  0
  2  3  1  0  0  0  0
  3  4  1  0  0  0  0
  4  1  1  0  0  0  0
  2  5  2  0  0  0  0
  5  6  1  0  0  0  0
  6  7  2  0  0  0  0
  7  8  1  0  0  0  0
  8  3  2  0  0  0  0
  6  9  1  0  0  0  0
  9 10  1  0  0  0  0
 10 11  1  0  0  0  0
 11 12  1  0  0  0  0
 12  7  1  0  0  0  0
  9 13  1  1  0  0  0
 13 14  1  0  0  0  0
 14 15  1  0  0  0  0
 16 10  1  0  0  0  0
 14 17  2  0  0  0  0
 17 18  1  0  0  0  0
 18 19  2  0  0  0  0
 19 20  1  0  0  0  0
 20 15  2  0  0  0  0
 21 22  1  0  0  0  0
 22 23  1  0  0  0  0
 23 18  1  0  0  0  0
 21 24  2  0  0  0  0
 24 25  1  0  0  0  0
 25 26  2  0  0  0  0
 26 27  1  0  0  0  0
 27 22  2  0  0  0  0
 25 28  1  0  0  0  0
 28 29  1  0  0  0  0
 29 30  1  0  0  0  0
 29 31  1  0  0  0  0
 31 32  1  0  0  0  0
 32 33  1  0  0  0  0
 33 34  1  0  0  0  0
 34 30  1  0  0  0  0
 31 35  2  0  0  0  0
 35 36  1  0  0  0  0
 36 37  2  0  0  0  0
 37 38  1  0  0  0  0
 38 32  2  0  0  0  0
 19 39  1  0  0  0  0
 36 40  1  0  0  0  0
 37 41  1  0  0  0  0
 41 42  1  0  0  0  0
 11 43  1  6  0  0  0
M  END
>  <cdx:fragmentId>
5

$$$$
