13759.cdx
  Mrv1902 05222410212D          

 33 36  0  0  0  0            999 V2000
    5.7164   -7.7550    0.0000 C   0  0  0  0  0  0  0  0  0  0  0  0
    5.7164   -8.5800    0.0000 C   0  0  0  0  0  0  0  0  0  0  0  0
    6.4309   -8.9925    0.0000 C   0  0  0  0  0  0  0  0  0  0  0  0
    7.1453   -8.5800    0.0000 C   0  0  0  0  0  0  0  0  0  0  0  0
    7.1453   -7.7550    0.0000 C   0  0  0  0  0  0  0  0  0  0  0  0
    6.4309   -7.3425    0.0000 C   0  0  0  0  0  0  0  0  0  0  0  0
    7.8598   -8.9925    0.0000 C   0  0  0  0  0  0  0  0  0  0  0  0
    8.5743   -8.5800    0.0000 C   0  0  0  0  0  0  0  0  0  0  0  0
    8.5743   -7.7550    0.0000 C   0  0  0  0  0  0  0  0  0  0  0  0
    7.8598   -7.3425    0.0000 O   0  0  0  0  0  0  0  0  0  0  0  0
    9.2888   -7.3425    0.0000 C   0  0  0  0  0  0  0  0  0  0  0  0
    9.2888   -6.5175    0.0000 C   0  0  0  0  0  0  0  0  0  0  0  0
   10.0032   -7.7550    0.0000 C   0  0  0  0  0  0  0  0  0  0  0  0
   10.7177   -7.3425    0.0000 C   0  0  0  0  0  0  0  0  0  0  0  0
   10.7177   -6.5175    0.0000 C   0  0  0  0  0  0  0  0  0  0  0  0
   10.0032   -6.1050    0.0000 C   0  0  0  0  0  0  0  0  0  0  0  0
    7.8598   -9.8175    0.0000 O   0  0  0  0  0  0  0  0  0  0  0  0
    6.4309   -9.8175    0.0000 O   0  0  0  0  0  0  0  0  0  0  0  0
    5.0019   -7.3425    0.0000 O   0  0  0  0  0  0  0  0  0  0  0  0
    6.4309   -6.5175    0.0000 O   0  0  0  0  0  0  0  0  0  0  0  0
    6.0003   -4.3589    0.0000 C   0  0  2  0  0  0  0  0  0  0  0  0
    5.1753   -4.3545    0.0000 C   0  0  2  0  0  0  0  0  0  0  0  0
    4.7591   -5.0668    0.0000 C   0  0  1  0  0  0  0  0  0  0  0  0
    5.1678   -5.7835    0.0000 C   0  0  2  0  0  0  0  0  0  0  0  0
    5.9928   -5.7878    0.0000 C   0  0  1  0  0  0  0  0  0  0  0  0
    6.4090   -5.0755    0.0000 O   0  0  0  0  0  0  0  0  0  0  0  0
    6.4166   -3.6466    0.0000 C   0  0  0  0  0  0  0  0  0  0  0  0
    3.9341   -5.0625    0.0000 O   0  0  0  0  0  0  0  0  0  0  0  0
    4.7515   -6.4957    0.0000 O   0  0  0  0  0  0  0  0  0  0  0  0
    4.7666   -3.6379    0.0000 O   0  0  0  0  0  0  0  0  0  0  0  0
    6.0079   -2.9300    0.0000 C   0  0  0  0  0  0  0  0  0  0  0  0
    6.4176   -2.2139    0.0000 O   0  0  0  0  0  0  0  0  0  0  0  0
    5.1829   -2.9332    0.0000 O   0  0  0  0  0  0  0  0  0  0  0  0
  1  2  2  0  0  0  0
  2  3  1  0  0  0  0
  3  4  2  0  0  0  0
  4  5  1  0  0  0  0
  5  6  2  0  0  0  0
  6  1  1  0  0  0  0
  4  7  1  0  0  0  0
  7  8  1  0  0  0  0
  8  9  2  0  0  0  0
  9 10  1  0  0  0  0
 10  5  1  0  0  0  0
  9 11  1  0  0  0  0
 11 12  1  0  0  0  0
 11 13  2  0  0  0  0
 13 14  1  0  0  0  0
 14 15  2  0  0  0  0
 15 16  1  0  0  0  0
 16 12  2  0  0  0  0
  7 17  2  0  0  0  0
  3 18  1  0  0  0  0
  1 19  1  0  0  0  0
  6 20  1  0  0  0  0
 21 22  1  0  0  0  0
 22 23  1  0  0  0  0
 23 24  1  0  0  0  0
 24 25  1  0  0  0  0
 25 26  1  0  0  0  0
 26 21  1  0  0  0  0
 21 27  1  1  0  0  0
 23 28  1  1  0  0  0
 24 29  1  6  0  0  0
 22 30  1  6  0  0  0
 27 31  1  0  0  0  0
 31 32  1  0  0  0  0
 31 33  2  0  0  0  0
 25 20  1  1  0  0  0
M  END
>  <cdx:fragmentId>
5

$$$$
