137524.cdx
  Mrv1902 05222410232D          

 10 10  0  0  0  0            999 V2000
    8.5589   -7.4621    0.0000 C   0  0  0  0  0  0  0  0  0  0  0  0
    8.5700   -8.2870    0.0000 C   0  0  0  0  0  0  0  0  0  0  0  0
    7.8611   -8.7091    0.0000 C   0  0  0  0  0  0  0  0  0  0  0  0
    7.1411   -8.3062    0.0000 C   0  0  0  0  0  0  0  0  0  0  0  0
    7.1300   -7.4813    0.0000 C   0  0  0  0  0  0  0  0  0  0  0  0
    7.8389   -7.0592    0.0000 C   0  0  0  0  0  0  0  0  0  0  0  0
    8.5255   -4.9873    0.0000 C   0  0  0  0  0  0  0  0  0  0  0  0
    8.5366   -5.8122    0.0000 C   0  0  0  0  0  0  0  0  0  0  0  0
    7.8278   -6.2343    0.0000 C   0  0  0  0  0  0  0  0  0  0  0  0
    7.1078   -5.8315    0.0000 C   0  0  0  0  0  0  0  0  0  0  0  0
  9  6  1  0  0  0  0
  6  1  2  0  0  0  0
  2  1  1  0  0  0  0
  3  2  2  0  0  0  0
  4  3  1  0  0  0  0
  5  4  2  0  0  0  0
  6  5  1  0  0  0  0
  8  7  2  0  0  0  0
  9  8  1  0  0  0  0
 10  9  2  0  0  0  0
M  END
>  <cdx:fragmentId>
684

$$$$
