13758.cdx
  Mrv1902 05222410212D          

 32 35  0  0  0  0            999 V2000
    7.2014   -7.2325    0.0000 C   0  0  0  0  0  0  0  0  0  0  0  0
    7.2014   -8.0575    0.0000 C   0  0  0  0  0  0  0  0  0  0  0  0
    7.9159   -8.4700    0.0000 C   0  0  0  0  0  0  0  0  0  0  0  0
    8.6303   -8.0575    0.0000 C   0  0  0  0  0  0  0  0  0  0  0  0
    8.6303   -7.2325    0.0000 C   0  0  0  0  0  0  0  0  0  0  0  0
    7.9159   -6.8200    0.0000 C   0  0  0  0  0  0  0  0  0  0  0  0
    9.3448   -8.4700    0.0000 C   0  0  0  0  0  0  0  0  0  0  0  0
   10.0593   -8.0575    0.0000 C   0  0  0  0  0  0  0  0  0  0  0  0
   10.0593   -7.2325    0.0000 C   0  0  0  0  0  0  0  0  0  0  0  0
    9.3448   -6.8200    0.0000 O   0  0  0  0  0  0  0  0  0  0  0  0
   10.7738   -6.8200    0.0000 C   0  0  0  0  0  0  0  0  0  0  0  0
   10.7738   -5.9950    0.0000 C   0  0  0  0  0  0  0  0  0  0  0  0
   11.4882   -7.2325    0.0000 C   0  0  0  0  0  0  0  0  0  0  0  0
   12.2027   -6.8200    0.0000 C   0  0  0  0  0  0  0  0  0  0  0  0
   12.2027   -5.9950    0.0000 C   0  0  0  0  0  0  0  0  0  0  0  0
   11.4882   -5.5825    0.0000 C   0  0  0  0  0  0  0  0  0  0  0  0
    9.3448   -9.2950    0.0000 O   0  0  0  0  0  0  0  0  0  0  0  0
    7.9159   -9.2950    0.0000 O   0  0  0  0  0  0  0  0  0  0  0  0
    6.4869   -6.8200    0.0000 O   0  0  0  0  0  0  0  0  0  0  0  0
    4.3373   -7.2356    0.0000 C   0  0  2  0  0  0  0  0  0  0  0  0
    4.3348   -8.0606    0.0000 C   0  0  2  0  0  0  0  0  0  0  0  0
    5.0481   -8.4752    0.0000 C   0  0  1  0  0  0  0  0  0  0  0  0
    5.7638   -8.0648    0.0000 C   0  0  2  0  0  0  0  0  0  0  0  0
    5.7662   -7.2398    0.0000 C   0  0  1  0  0  0  0  0  0  0  0  0
    5.0530   -6.8252    0.0000 O   0  0  0  0  0  0  0  0  0  0  0  0
    3.6241   -6.8209    0.0000 C   0  0  0  0  0  0  0  0  0  0  0  0
    5.0456   -9.3002    0.0000 O   0  0  0  0  0  0  0  0  0  0  0  0
    6.4770   -8.4795    0.0000 O   0  0  0  0  0  0  0  0  0  0  0  0
    3.6191   -8.4709    0.0000 O   0  0  0  0  0  0  0  0  0  0  0  0
    7.9159   -5.9950    0.0000 O   0  0  0  0  0  0  0  0  0  0  0  0
    2.9084   -7.2313    0.0000 O   0  0  0  0  0  0  0  0  0  0  0  0
    3.6265   -5.9959    0.0000 O   0  0  0  0  0  0  0  0  0  0  0  0
  1  2  2  0  0  0  0
  2  3  1  0  0  0  0
  3  4  2  0  0  0  0
  4  5  1  0  0  0  0
  5  6  2  0  0  0  0
  6  1  1  0  0  0  0
  4  7  1  0  0  0  0
  7  8  1  0  0  0  0
  8  9  2  0  0  0  0
  9 10  1  0  0  0  0
 10  5  1  0  0  0  0
  9 11  1  0  0  0  0
 11 12  1  0  0  0  0
 11 13  2  0  0  0  0
 13 14  1  0  0  0  0
 14 15  2  0  0  0  0
 15 16  1  0  0  0  0
 16 12  2  0  0  0  0
  7 17  2  0  0  0  0
  3 18  1  0  0  0  0
  1 19  1  0  0  0  0
 20 21  1  0  0  0  0
 21 22  1  0  0  0  0
 22 23  1  0  0  0  0
 23 24  1  0  0  0  0
 24 25  1  0  0  0  0
 25 20  1  0  0  0  0
 20 26  1  1  0  0  0
 22 27  1  1  0  0  0
 23 28  1  6  0  0  0
 21 29  1  6  0  0  0
 24 19  1  1  0  0  0
  6 30  1  0  0  0  0
 26 31  1  0  0  0  0
 26 32  2  0  0  0  0
M  END
>  <cdx:fragmentId>
5

$$$$
