137507.cdx
  Mrv1902 05222410222D          

  9 10  0  0  0  0            999 V2000
   15.0084  -14.1960    0.0000 C   0  0  0  0  0  0  0  0  0  0  0  0
   14.2939  -13.7835    0.0000 C   0  0  0  0  0  0  0  0  0  0  0  0
   14.2939  -12.9585    0.0000 C   0  0  0  0  0  0  0  0  0  0  0  0
   15.0084  -12.5460    0.0000 C   0  0  0  0  0  0  0  0  0  0  0  0
   15.7229  -12.9585    0.0000 C   0  0  0  0  0  0  0  0  0  0  0  0
   15.7229  -13.7835    0.0000 C   0  0  0  0  0  0  0  0  0  0  0  0
   14.6671  -13.6809    0.0000 C   0  0  0  0  0  0  0  0  0  0  0  0
   14.6671  -13.0622    0.0000 C   0  0  0  0  0  0  0  0  0  0  0  0
   16.4373  -12.5460    0.0000 O   0  0  0  0  0  0  0  0  0  0  0  0
  1  2  1  0  0  0  0
  2  3  2  0  0  0  0
  3  4  1  0  0  0  0
  4  5  1  0  0  0  0
  5  6  1  0  0  0  0
  7  8  1  0  0  0  0
  1  6  1  0  0  0  0
  1  7  1  0  0  0  0
  8  4  1  0  0  0  0
  5  9  2  0  0  0  0
M  END
>  <cdx:groupId>
637

>  <cdx:fragmentId>
612

$$$$
