137508.cdx
  Mrv1902 05222410262D          

 10 10  0  0  0  0            999 V2000
    7.6943   -8.1697    0.0000 C   0  0  0  0  0  0  0  0  0  0  0  0
    7.6929   -8.9947    0.0000 C   0  0  0  0  0  0  0  0  0  0  0  0
    6.9777   -9.4060    0.0000 C   0  0  0  0  0  0  0  0  0  0  0  0
    6.2640   -8.9923    0.0000 C   0  0  0  0  0  0  0  0  0  0  0  0
    6.2654   -8.1673    0.0000 C   0  0  0  0  0  0  0  0  0  0  0  0
    6.9806   -7.7560    0.0000 C   0  0  0  0  0  0  0  0  0  0  0  0
    6.5693   -7.0408    0.0000 C   0  0  0  0  0  0  0  0  0  0  0  0
    7.3943   -7.0422    0.0000 C   0  0  0  0  0  0  0  0  0  0  0  0
    7.3890  -10.1212    0.0000 C   0  0  0  0  0  0  0  0  0  0  0  0
    6.5640  -10.1198    0.0000 C   0  0  0  0  0  0  0  0  0  0  0  0
  1  2  2  0  0  0  0
  2  3  1  0  0  0  0
  3  4  1  0  0  0  0
  4  5  2  0  0  0  0
  5  6  1  0  0  0  0
  1  6  1  0  0  0  0
  6  7  1  0  0  0  0
  6  8  1  0  0  0  0
  3  9  1  0  0  0  0
  3 10  1  0  0  0  0
M  END
>  <cdx:fragmentId>
5

$$$$
