notoginsenic acid ﾥ￢-sophoroside.cdx
  Mrv1902 05222410232D          

 37 38  0  0  0  0            999 V2000
    2.3891   -9.1501    0.0000 C   0  0  0  0  0  0  0  0  0  0  0  0
    1.7480   -9.6358    0.0000 C   0  0  2  0  0  0  0  0  0  0  0  0
    2.3891  -10.1164    0.0000 C   0  0  0  0  0  0  0  0  0  0  0  0
    3.3927  -10.1164    0.0000 C   0  0  0  0  0  0  0  0  0  0  0  0
    4.0595   -9.6358    0.0000 C   0  0  1  0  0  0  0  0  0  0  0  0
    3.3927   -9.1501    0.0000 O   0  0  0  0  0  0  0  0  0  0  0  0
    1.7686  -10.2339    0.0000 O   0  0  0  0  0  0  0  0  0  0  0  0
    2.3891   -9.6214    0.0000 O   0  0  0  0  0  0  0  0  0  0  0  0
    3.4133  -10.7351    0.0000 O   0  0  0  0  0  0  0  0  0  0  0  0
    4.0595  -10.1514    0.0000 H   0  0  0  0  0  0  0  0  0  0  0  0
    2.3891   -8.6757    0.0000 C   0  0  0  0  0  0  0  0  0  0  0  0
    2.3891   -7.8507    0.0000 O   0  0  0  0  0  0  0  0  0  0  0  0
    4.0595   -8.8108    0.0000 O   0  0  0  0  0  0  0  0  0  0  0  0
    3.0285   -6.9432    0.0000 C   0  0  0  0  0  0  0  0  0  0  0  0
    2.3873   -7.4289    0.0000 C   0  0  2  0  0  0  0  0  0  0  0  0
    3.0285   -7.9095    0.0000 C   0  0  0  0  0  0  0  0  0  0  0  0
    4.0320   -7.9095    0.0000 C   0  0  0  0  0  0  0  0  0  0  0  0
    4.6989   -7.4289    0.0000 C   0  0  1  0  0  0  0  0  0  0  0  0
    4.0320   -6.9432    0.0000 O   0  0  0  0  0  0  0  0  0  0  0  0
    2.3873   -8.0683    0.0000 O   0  0  0  0  0  0  0  0  0  0  0  0
    3.0285   -7.3732    0.0000 O   0  0  0  0  0  0  0  0  0  0  0  0
    3.0285   -6.3451    0.0000 C   0  0  0  0  0  0  0  0  0  0  0  0
    4.6989   -7.9858    0.0000 H   0  0  0  0  0  0  0  0  0  0  0  0
    4.6989   -6.6039    0.0000 O   0  0  0  0  0  0  0  0  0  0  0  0
    5.1114   -5.8895    0.0000 C   0  0  0  0  0  0  0  0  0  0  0  0
    5.9364   -5.8895    0.0000 C   0  0  0  0  0  0  0  0  0  0  0  0
    6.3489   -6.6039    0.0000 C   0  0  0  0  0  0  0  0  0  0  0  0
    7.1739   -6.6039    0.0000 C   0  0  0  0  0  0  0  0  0  0  0  0
    7.9989   -6.6039    0.0000 C   0  0  0  0  0  0  0  0  0  0  0  0
    8.8239   -6.6039    0.0000 C   0  0  0  0  0  0  0  0  0  0  0  0
    9.6489   -6.6039    0.0000 C   0  0  0  0  0  0  0  0  0  0  0  0
   10.4739   -6.6039    0.0000 C   0  0  0  0  0  0  0  0  0  0  0  0
   10.8864   -5.8895    0.0000 C   0  0  0  0  0  0  0  0  0  0  0  0
   11.7114   -5.8895    0.0000 C   0  0  0  0  0  0  0  0  0  0  0  0
    3.0285   -5.5201    0.0000 O   0  0  0  0  0  0  0  0  0  0  0  0
   12.1239   -5.1750    0.0000 O   0  0  0  0  0  0  0  0  0  0  0  0
   12.1239   -6.6039    0.0000 O   0  0  0  0  0  0  0  0  0  0  0  0
  1  2  1  0  0  0  0
  2  3  1  1  0  0  0
  3  4  1  1  0  0  0
  5  4  1  1  0  0  0
  5  6  1  0  0  0  0
  1  6  1  0  0  0  0
  2  7  1  0  0  0  0
  3  8  1  0  0  0  0
  4  9  1  0  0  0  0
  5 10  1  0  0  0  0
  1 11  1  0  0  0  0
  5 13  1  0  0  0  0
 14 15  1  0  0  0  0
 15 16  1  1  0  0  0
 16 17  1  1  0  0  0
 18 17  1  1  0  0  0
 18 19  1  0  0  0  0
 14 19  1  0  0  0  0
 13 17  1  0  0  0  0
 15 20  1  0  0  0  0
 16 21  1  0  0  0  0
 14 22  1  0  0  0  0
 18 23  1  0  0  0  0
 18 24  1  0  0  0  0
 24 25  1  0  0  0  0
 25 26  1  0  0  0  0
 26 27  1  0  0  0  0
 27 28  1  0  0  0  0
 28 29  3  0  0  0  0
 29 30  1  0  0  0  0
 30 31  3  0  0  0  0
 31 32  1  0  0  0  0
 32 33  1  0  0  0  0
 33 34  1  0  0  0  0
 11 12  1  0  0  0  0
 22 35  1  0  0  0  0
 34 36  2  0  0  0  0
 34 37  1  0  0  0  0
M  STY  3   1 SUP   2 SUP   3 SUP
M  SAL   1  2  11  12
M  SBL   1  1  11
M  SMT   1 CH2OH
M  SAP   1  1  11   1  1
M  SAL   2  2  22  35
M  SBL   2  1  22
M  SMT   2 CH2OH
M  SAP   2  1  22  14  1
M  SAL   3  3  34  36  37
M  SBL   3  1  34
M  SMT   3 COOH
M  SAP   3  1  34  33  1
M  END
>  <cdx:fragmentId>
424

$$$$
