137658.cdx
  Mrv1902 05222410212D          

 10  9  0  0  0  0            999 V2000
   16.8977  -12.6200    0.0000 C   0  0  0  0  0  0  0  0  0  0  0  0
   16.8977  -13.4450    0.0000 C   0  0  0  0  0  0  0  0  0  0  0  0
   16.1832  -13.8575    0.0000 C   0  0  0  0  0  0  0  0  0  0  0  0
   15.4688  -13.4450    0.0000 C   0  0  0  0  0  0  0  0  0  0  0  0
   14.7543  -13.8575    0.0000 C   0  0  0  0  0  0  0  0  0  0  0  0
   14.0398  -13.4450    0.0000 C   0  0  0  0  0  0  0  0  0  0  0  0
   13.3253  -13.8575    0.0000 C   0  0  0  0  0  0  0  0  0  0  0  0
   14.0398  -12.6200    0.0000 C   0  0  0  0  0  0  0  0  0  0  0  0
   15.4688  -12.6200    0.0000 C   0  0  0  0  0  0  0  0  0  0  0  0
   17.6122  -13.8575    0.0000 C   0  0  0  0  0  0  0  0  0  0  0  0
  1  2  1  0  0  0  0
  2  3  1  0  0  0  0
  3  4  1  0  0  0  0
  4  5  1  0  0  0  0
  5  6  1  0  0  0  0
  6  7  1  0  0  0  0
  6  8  1  0  0  0  0
  4  9  1  0  0  0  0
  2 10  1  0  0  0  0
M  END
>  <cdx:groupId>
736

>  <cdx:fragmentId>
710

$$$$
