137818.cdx
  Mrv1902 05222410192D          

 16 17  0  0  0  0            999 V2000
    6.7240   -7.4875    0.0000 C   0  0  0  0  0  0  0  0  0  0  0  0
    6.7240   -6.6625    0.0000 C   0  0  0  0  0  0  0  0  0  0  0  0
    6.0095   -6.2500    0.0000 C   0  0  0  0  0  0  0  0  0  0  0  0
    5.2951   -6.6625    0.0000 C   0  0  0  0  0  0  0  0  0  0  0  0
    5.2951   -7.4875    0.0000 C   0  0  0  0  0  0  0  0  0  0  0  0
    6.0095   -7.9000    0.0000 C   0  0  0  0  0  0  0  0  0  0  0  0
    7.4385   -7.9000    0.0000 C   0  0  0  0  0  0  0  0  0  0  0  0
    7.4385   -8.7250    0.0000 C   0  0  0  0  0  0  0  0  0  0  0  0
    8.1530   -9.1375    0.0000 C   0  0  0  0  0  0  0  0  0  0  0  0
    8.8674   -8.7250    0.0000 C   0  0  0  0  0  0  0  0  0  0  0  0
    8.8674   -7.9000    0.0000 C   0  0  0  0  0  0  0  0  0  0  0  0
    8.1530   -7.4875    0.0000 C   0  0  0  0  0  0  0  0  0  0  0  0
    9.5819   -7.4875    0.0000 C   0  0  0  0  0  0  0  0  0  0  0  0
    4.5806   -7.9000    0.0000 C   0  0  0  0  0  0  0  0  0  0  0  0
    6.7240   -9.1375    0.0000 C   0  0  0  0  0  0  0  0  0  0  0  0
    7.4385   -6.2500    0.0000 C   0  0  0  0  0  0  0  0  0  0  0  0
  1  2  1  0  0  0  0
  2  3  2  0  0  0  0
  3  4  1  0  0  0  0
  4  5  2  0  0  0  0
  5  6  1  0  0  0  0
  1  6  2  0  0  0  0
  7  8  1  0  0  0  0
  8  9  2  0  0  0  0
  9 10  1  0  0  0  0
 10 11  2  0  0  0  0
 11 12  1  0  0  0  0
  7 12  2  0  0  0  0
  1  7  1  0  0  0  0
 11 13  1  0  0  0  0
  5 14  1  0  0  0  0
  8 15  1  0  0  0  0
  2 16  1  0  0  0  0
M  END
>  <cdx:fragmentId>
755

$$$$
