137988.cdx
  Mrv1902 05222410262D          

 34 37  0  0  0  0            999 V2000
    4.1255  -10.8773    0.0000 C   0  0  0  0  0  0  0  0  0  0  0  0
    4.1255  -10.0523    0.0000 C   0  0  0  0  0  0  0  0  0  0  0  0
    4.8400   -9.6398    0.0000 C   0  0  0  0  0  0  0  0  0  0  0  0
    4.8400  -11.2898    0.0000 C   0  0  0  0  0  0  0  0  0  0  0  0
    5.5545  -10.8773    0.0000 C   0  0  0  0  0  0  0  0  0  0  0  0
    6.2689  -11.2898    0.0000 C   0  0  0  0  0  0  0  0  0  0  0  0
    6.9834  -10.8773    0.0000 C   0  0  0  0  0  0  0  0  0  0  0  0
    6.9834  -10.0523    0.0000 C   0  0  1  0  0  0  0  0  0  0  0  0
    7.6979   -9.6398    0.0000 C   0  0  2  0  0  0  0  0  0  0  0  0
    8.4825   -9.8947    0.0000 C   0  0  0  0  0  0  0  0  0  0  0  0
    8.9674   -9.2273    0.0000 C   0  0  0  0  0  0  0  0  0  0  0  0
    8.4825   -8.5599    0.0000 C   0  0  2  0  0  0  0  0  0  0  0  0
    8.7374   -7.7752    0.0000 C   0  0  1  0  0  0  0  0  0  0  0  0
    9.5444   -7.6037    0.0000 C   0  0  0  0  0  0  0  0  0  0  0  0
    9.7994   -6.8191    0.0000 C   0  0  0  0  0  0  0  0  0  0  0  0
   10.6063   -6.6476    0.0000 C   0  0  0  0  0  0  0  0  0  0  0  0
   10.8613   -5.8629    0.0000 C   0  0  0  0  0  0  0  0  0  0  0  0
   10.2779   -5.2796    0.0000 C   0  0  0  0  0  0  0  0  0  0  0  0
   11.6682   -5.6914    0.0000 C   0  0  0  0  0  0  0  0  0  0  0  0
    8.1541   -7.1919    0.0000 C   0  0  0  0  0  0  0  0  0  0  0  0
    7.6979   -8.8148    0.0000 C   0  0  2  0  0  0  0  0  0  0  0  0
    7.6979   -7.9898    0.0000 C   0  0  0  0  0  0  0  0  0  0  0  0
    6.9834   -8.4023    0.0000 C   0  0  0  0  0  0  0  0  0  0  0  0
    6.2689   -8.8148    0.0000 C   0  0  0  0  0  0  0  0  0  0  0  0
    6.2689   -9.6398    0.0000 C   0  0  2  0  0  0  0  0  0  0  0  0
    5.5545  -10.0523    0.0000 C   0  0  1  0  0  0  0  0  0  0  0  0
    5.5545   -9.2273    0.0000 C   0  0  0  0  0  0  0  0  0  0  0  0
    5.2525  -12.0043    0.0000 C   0  0  0  0  0  0  0  0  0  0  0  0
    4.4275  -12.0043    0.0000 C   0  0  0  0  0  0  0  0  0  0  0  0
    6.2689  -10.4648    0.0000 H   0  0  0  0  0  0  0  0  0  0  0  0
    6.9834   -9.2273    0.0000 H   0  0  0  0  0  0  0  0  0  0  0  0
    7.6979  -10.4648    0.0000 H   0  0  0  0  0  0  0  0  0  0  0  0
    9.2671   -8.3049    0.0000 H   0  0  0  0  0  0  0  0  0  0  0  0
   11.9232   -4.9068    0.0000 O   0  0  0  0  0  0  0  0  0  0  0  0
  1  2  1  0  0  0  0
  2  3  1  0  0  0  0
  1  4  1  0  0  0  0
  4  5  1  0  0  0  0
  5  6  2  0  0  0  0
  6  7  1  0  0  0  0
  7  8  1  0  0  0  0
  8  9  1  0  0  0  0
  9 10  1  0  0  0  0
 10 11  1  0  0  0  0
 12 11  1  0  0  0  0
 12 13  1  0  0  0  0
 13 14  1  0  0  0  0
 14 15  1  0  0  0  0
 15 16  1  0  0  0  0
 16 17  1  0  0  0  0
 17 18  1  0  0  0  0
 17 19  1  0  0  0  0
 13 20  1  6  0  0  0
 12 21  1  0  0  0  0
  9 21  1  0  0  0  0
 21 22  1  1  0  0  0
 21 23  1  0  0  0  0
 23 24  1  0  0  0  0
 24 25  1  0  0  0  0
  8 25  1  0  0  0  0
 25 26  1  0  0  0  0
  3 26  1  0  0  0  0
  5 26  1  0  0  0  0
 26 27  1  1  0  0  0
  4 28  1  0  0  0  0
  4 29  1  0  0  0  0
 25 30  1  6  0  0  0
  8 31  1  1  0  0  0
  9 32  1  6  0  0  0
 12 33  1  6  0  0  0
 19 34  1  0  0  0  0
M  END
>  <cdx:fragmentId>
2068

$$$$
