137997.cdx
  Mrv1902 05222410182D          

 50 56  0  0  0  0            999 V2000
   12.0900   -5.2956    0.0000 O   0  0  0  0  0  0  0  0  0  0  0  0
   11.6051   -5.9631    0.0000 C   0  0  0  0  0  0  0  0  0  0  0  0
   12.0900   -6.6305    0.0000 C   0  0  0  0  0  0  0  0  0  0  0  0
   12.8746   -6.3756    0.0000 C   0  0  0  0  0  0  0  0  0  0  0  0
   12.8746   -5.5506    0.0000 C   0  0  0  0  0  0  0  0  0  0  0  0
   13.5421   -5.0656    0.0000 O   0  0  0  0  0  0  0  0  0  0  0  0
    8.1926   -8.4951    0.0000 C   0  0  0  0  0  0  0  0  0  0  0  0
    7.4781   -8.9076    0.0000 C   0  0  0  0  0  0  0  0  0  0  0  0
    7.4781   -9.7326    0.0000 C   0  0  1  0  0  0  0  0  0  0  0  0
    8.1926  -10.1451    0.0000 C   0  0  0  0  0  0  0  0  0  0  0  0
    8.9070   -9.7326    0.0000 C   0  0  1  0  0  0  0  0  0  0  0  0
    9.6215  -10.1451    0.0000 C   0  0  0  0  0  0  0  0  0  0  0  0
   10.3360   -9.7326    0.0000 C   0  0  0  0  0  0  0  0  0  0  0  0
   10.3360   -8.9076    0.0000 C   0  0  1  0  0  0  0  0  0  0  0  0
   11.0504   -8.4951    0.0000 C   0  0  1  0  0  0  0  0  0  0  0  0
   11.8351   -8.7500    0.0000 C   0  0  0  0  0  0  0  0  0  0  0  0
   12.3200   -8.0826    0.0000 C   0  0  0  0  0  0  0  0  0  0  0  0
   11.8351   -7.4151    0.0000 C   0  0  1  0  0  0  0  0  0  0  0  0
   11.0504   -7.6701    0.0000 C   0  0  1  0  0  0  0  0  0  0  0  0
   10.3360   -7.2576    0.0000 C   0  0  0  0  0  0  0  0  0  0  0  0
    9.6215   -7.6701    0.0000 C   0  0  0  0  0  0  0  0  0  0  0  0
    9.6215   -8.4951    0.0000 C   0  0  2  0  0  0  0  0  0  0  0  0
    8.9070   -8.9076    0.0000 C   0  0  1  0  0  0  0  0  0  0  0  0
   11.1367   -6.8496    0.0000 C   0  0  0  0  0  0  0  0  0  0  0  0
    8.9070   -8.0826    0.0000 C   0  0  0  0  0  0  0  0  0  0  0  0
    6.7636  -10.1451    0.0000 O   0  0  0  0  0  0  0  0  0  0  0  0
    6.0491   -8.9076    0.0000 O   0  0  0  0  0  0  0  0  0  0  0  0
    6.0491   -9.7326    0.0000 C   0  0  2  0  0  0  0  0  0  0  0  0
    5.3347  -10.1451    0.0000 C   0  0  0  0  0  0  0  0  0  0  0  0
    4.6202   -9.7326    0.0000 C   0  0  1  0  0  0  0  0  0  0  0  0
    4.6202   -8.9076    0.0000 C   0  0  1  0  0  0  0  0  0  0  0  0
    5.3347   -8.4951    0.0000 C   0  0  1  0  0  0  0  0  0  0  0  0
    5.3347   -7.6701    0.0000 C   0  0  0  0  0  0  0  0  0  0  0  0
    3.9057  -10.1451    0.0000 O   0  0  0  0  0  0  0  0  0  0  0  0
   11.0504   -9.3201    0.0000 O   0  0  0  0  0  0  0  0  0  0  0  0
    8.9070  -10.5576    0.0000 H   0  0  0  0  0  0  0  0  0  0  0  0
   10.3360   -8.0826    0.0000 H   0  0  0  0  0  0  0  0  0  0  0  0
    9.6215   -9.3201    0.0000 H   0  0  0  0  0  0  0  0  0  0  0  0
    3.1139   -9.9427    0.0000 O   0  0  0  0  0  0  0  0  0  0  0  0
    1.4644   -9.9808    0.0000 O   0  0  0  0  0  0  0  0  0  0  0  0
    0.6066   -8.5713    0.0000 O   0  0  0  0  0  0  0  0  0  0  0  0
    0.5736   -7.1427    0.0000 O   0  0  0  0  0  0  0  0  0  0  0  0
    1.3984   -7.1237    0.0000 C   0  0  0  0  0  0  0  0  0  0  0  0
    1.8273   -7.8284    0.0000 C   0  0  2  0  0  0  0  0  0  0  0  0
    1.4314   -8.5522    0.0000 C   0  0  2  0  0  0  0  0  0  0  0  0
    1.8603   -9.2570    0.0000 C   0  0  1  0  0  0  0  0  0  0  0  0
    2.6851   -9.2379    0.0000 C   0  0  2  0  0  0  0  0  0  0  0  0
    3.0809   -8.5141    0.0000 C   0  0  1  0  0  0  0  0  0  0  0  0
    2.6521   -7.8094    0.0000 O   0  0  0  0  0  0  0  0  0  0  0  0
    3.9057   -8.4951    0.0000 O   0  0  0  0  0  0  0  0  0  0  0  0
 48 50  1  1  0  0  0
 47 39  1  6  0  0  0
 46 40  1  1  0  0  0
 45 41  1  6  0  0  0
 44 43  1  1  0  0  0
 43 42  1  0  0  0  0
 49 44  1  0  0  0  0
 45 44  1  0  0  0  0
 46 45  1  0  0  0  0
 47 46  1  0  0  0  0
 48 47  1  0  0  0  0
 49 48  1  0  0  0  0
  1  2  1  0  0  0  0
  2  3  1  0  0  0  0
  3  4  2  0  0  0  0
  4  5  1  0  0  0  0
  1  5  1  0  0  0  0
  5  6  2  0  0  0  0
  7  8  1  0  0  0  0
  8  9  1  0  0  0  0
  9 10  1  0  0  0  0
 10 11  1  0  0  0  0
 11 12  1  0  0  0  0
 12 13  1  0  0  0  0
 13 14  1  0  0  0  0
 14 15  1  0  0  0  0
 15 16  1  0  0  0  0
 16 17  1  0  0  0  0
 17 18  1  0  0  0  0
 18 19  1  0  0  0  0
 15 19  1  0  0  0  0
 19 20  1  0  0  0  0
 20 21  1  0  0  0  0
 21 22  1  0  0  0  0
 14 22  1  0  0  0  0
 22 23  1  0  0  0  0
 11 23  1  0  0  0  0
  7 23  1  0  0  0  0
 19 24  1  1  0  0  0
 23 25  1  1  0  0  0
 27 28  1  0  0  0  0
 28 29  1  0  0  0  0
 29 30  1  0  0  0  0
 30 31  1  0  0  0  0
 31 32  1  0  0  0  0
 27 32  1  0  0  0  0
 31 50  1  6  0  0  0
 32 33  1  1  0  0  0
 30 34  1  6  0  0  0
 28 26  1  1  0  0  0
  9 26  1  1  0  0  0
 15 35  1  1  0  0  0
 18  3  1  1  0  0  0
 11 36  1  1  0  0  0
 14 37  1  1  0  0  0
 22 38  1  6  0  0  0
M  END
>  <cdx:fragmentId>
71

$$$$
