138.cdx
  Mrv1902 05222410182D          

 22 24  0  0  0  0            999 V2000
    4.2193   -7.8501    0.0000 C   0  0  0  0  0  0  0  0  0  0  0  0
    4.2193   -8.6751    0.0000 C   0  0  0  0  0  0  0  0  0  0  0  0
    4.9338   -9.0876    0.0000 C   0  0  0  0  0  0  0  0  0  0  0  0
    5.6482   -8.6751    0.0000 C   0  0  0  0  0  0  0  0  0  0  0  0
    5.6482   -7.8501    0.0000 C   0  0  0  0  0  0  0  0  0  0  0  0
    4.9338   -7.4376    0.0000 C   0  0  0  0  0  0  0  0  0  0  0  0
    6.3627   -9.0876    0.0000 C   0  0  0  0  0  0  0  0  0  0  0  0
    7.0772   -8.6751    0.0000 C   0  0  0  0  0  0  0  0  0  0  0  0
    7.0772   -7.8501    0.0000 C   0  0  0  0  0  0  0  0  0  0  0  0
    6.3627   -7.4376    0.0000 O   0  0  0  0  0  0  0  0  0  0  0  0
    8.5061   -7.8501    0.0000 C   0  0  0  0  0  0  0  0  0  0  0  0
    7.7917   -7.4376    0.0000 C   0  0  0  0  0  0  0  0  0  0  0  0
    9.2206   -7.4376    0.0000 C   0  0  0  0  0  0  0  0  0  0  0  0
    9.2206   -6.6126    0.0000 C   0  0  0  0  0  0  0  0  0  0  0  0
    8.5061   -6.2001    0.0000 C   0  0  0  0  0  0  0  0  0  0  0  0
    7.7917   -6.6126    0.0000 C   0  0  0  0  0  0  0  0  0  0  0  0
    6.3627   -9.9126    0.0000 O   0  0  0  0  0  0  0  0  0  0  0  0
    7.7917   -9.0876    0.0000 O   0  0  0  0  0  0  0  0  0  0  0  0
    4.9338   -9.9126    0.0000 O   0  0  0  0  0  0  0  0  0  0  0  0
    3.5048   -7.4376    0.0000 O   0  0  0  0  0  0  0  0  0  0  0  0
    9.9351   -6.2001    0.0000 O   0  0  0  0  0  0  0  0  0  0  0  0
   10.6495   -6.6126    0.0000 C   0  0  0  0  0  0  0  0  0  0  0  0
  1  2  2  0  0  0  0
  2  3  1  0  0  0  0
  3  4  2  0  0  0  0
  4  5  1  0  0  0  0
  5  6  2  0  0  0  0
  6  1  1  0  0  0  0
  4  7  1  0  0  0  0
  7  8  1  0  0  0  0
  8  9  2  0  0  0  0
  9 10  1  0  0  0  0
 10  5  1  0  0  0  0
 11 12  2  0  0  0  0
 12  9  1  0  0  0  0
 11 13  1  0  0  0  0
 13 14  2  0  0  0  0
 14 15  1  0  0  0  0
 15 16  2  0  0  0  0
 16 12  1  0  0  0  0
  7 17  2  0  0  0  0
  8 18  1  0  0  0  0
  3 19  1  0  0  0  0
  1 20  1  0  0  0  0
 14 21  1  0  0  0  0
 21 22  1  0  0  0  0
M  END
>  <cdx:fragmentId>
5

$$$$
