138052.cdx
  Mrv1902 05222410182D          

 12 11  0  0  0  0            999 V2000
   18.3266  -13.4726    0.0000 C   0  0  0  0  0  0  0  0  0  0  0  0
   17.6122  -13.8851    0.0000 C   0  0  0  0  0  0  0  0  0  0  0  0
   16.8977  -13.4726    0.0000 C   0  0  0  0  0  0  0  0  0  0  0  0
   16.1832  -13.8851    0.0000 C   0  0  0  0  0  0  0  0  0  0  0  0
   15.4688  -13.4726    0.0000 C   0  0  0  0  0  0  0  0  0  0  0  0
   14.7543  -13.8851    0.0000 C   0  0  0  0  0  0  0  0  0  0  0  0
   14.0398  -13.4726    0.0000 C   0  0  0  0  0  0  0  0  0  0  0  0
   13.3253  -13.8851    0.0000 C   0  0  0  0  0  0  0  0  0  0  0  0
   12.6109  -13.4726    0.0000 C   0  0  0  0  0  0  0  0  0  0  0  0
   18.3266  -12.6476    0.0000 O   0  0  0  0  0  0  0  0  0  0  0  0
   19.0411  -13.8851    0.0000 O   0  0  0  0  0  0  0  0  0  0  0  0
   11.8964  -13.8851    0.0000 O   0  0  0  0  0  0  0  0  0  0  0  0
  1  2  1  0  0  0  0
  2  3  1  0  0  0  0
  3  4  1  0  0  0  0
  4  5  1  0  0  0  0
  5  6  1  0  0  0  0
  6  7  1  0  0  0  0
  7  8  1  0  0  0  0
  8  9  1  0  0  0  0
  1 10  2  0  0  0  0
  1 11  1  0  0  0  0
  9 12  1  0  0  0  0
M  END
>  <cdx:groupId>
829

>  <cdx:fragmentId>
797

$$$$
