138211.cdx
  Mrv1902 05222410242D          

 11 11  0  0  0  0            999 V2000
    7.7453   -7.3415    0.0000 C   0  0  0  0  0  0  0  0  0  0  0  0
    8.4598   -6.9290    0.0000 C   0  0  0  0  0  0  0  0  0  0  0  0
    8.4598   -6.1040    0.0000 C   0  0  0  0  0  0  0  0  0  0  0  0
    7.7453   -8.1665    0.0000 O   0  0  0  0  0  0  0  0  0  0  0  0
    7.0308   -6.9290    0.0000 C   0  0  0  0  0  0  0  0  0  0  0  0
    6.3163   -7.3415    0.0000 C   0  0  0  0  0  0  0  0  0  0  0  0
    5.6019   -6.9290    0.0000 C   0  0  0  0  0  0  0  0  0  0  0  0
    5.6019   -6.1040    0.0000 C   0  0  0  0  0  0  0  0  0  0  0  0
    6.3163   -5.6915    0.0000 C   0  0  0  0  0  0  0  0  0  0  0  0
    7.0308   -6.1040    0.0000 C   0  0  0  0  0  0  0  0  0  0  0  0
    9.1742   -7.3415    0.0000 C   0  0  0  0  0  0  0  0  0  0  0  0
  1  2  1  0  0  0  0
  2  3  2  0  0  0  0
  1  4  1  0  0  0  0
  5  6  1  0  0  0  0
  6  7  2  0  0  0  0
  7  8  1  0  0  0  0
  8  9  2  0  0  0  0
  9 10  1  0  0  0  0
  5 10  2  0  0  0  0
  1  5  1  0  0  0  0
  2 11  1  0  0  0  0
M  END
>  <cdx:fragmentId>
845

$$$$
