138348.cdx
  Mrv1902 05222410252D          

 11 12  0  0  0  0            999 V2000
   15.4453  -12.8539    0.0000 C   0  0  0  0  0  0  0  0  0  0  0  0
   15.4453  -13.6789    0.0000 C   0  0  0  0  0  0  0  0  0  0  0  0
   14.7309  -14.0914    0.0000 C   0  0  0  0  0  0  0  0  0  0  0  0
   14.0164  -13.6789    0.0000 C   0  0  0  0  0  0  0  0  0  0  0  0
   14.0164  -12.8539    0.0000 C   0  0  0  0  0  0  0  0  0  0  0  0
   14.7309  -12.4414    0.0000 C   0  0  0  0  0  0  0  0  0  0  0  0
   16.2300  -12.5989    0.0000 C   0  0  0  0  0  0  0  0  0  0  0  0
   16.4849  -11.8143    0.0000 O   0  0  0  0  0  0  0  0  0  0  0  0
   16.2300  -13.9338    0.0000 C   0  0  0  0  0  0  0  0  0  0  0  0
   16.4849  -14.7184    0.0000 O   0  0  0  0  0  0  0  0  0  0  0  0
   16.7149  -13.2664    0.0000 O   0  0  0  0  0  0  0  0  0  0  0  0
  1  2  2  0  0  0  0
  2  3  1  0  0  0  0
  3  4  1  0  0  0  0
  4  5  2  0  0  0  0
  5  6  1  0  0  0  0
  1  6  1  0  0  0  0
  7  8  2  0  0  0  0
  1  7  1  0  0  0  0
  9 10  2  0  0  0  0
  2  9  1  0  0  0  0
  7 11  1  0  0  0  0
  9 11  1  0  0  0  0
M  END
>  <cdx:groupId>
956

>  <cdx:fragmentId>
925

$$$$
