138310.cdx
  Mrv1902 05222410262D          

  7  8  0  0  0  0            999 V2000
   15.8174  -13.6612    0.0000 C   0  0  0  0  0  0  0  0  0  0  0  0
   15.1029  -14.0737    0.0000 C   0  0  0  0  0  0  0  0  0  0  0  0
   14.3885  -13.6612    0.0000 C   0  0  0  0  0  0  0  0  0  0  0  0
   14.3885  -12.8362    0.0000 C   0  0  0  0  0  0  0  0  0  0  0  0
   15.1029  -12.4237    0.0000 C   0  0  0  0  0  0  0  0  0  0  0  0
   15.8174  -12.8362    0.0000 C   0  0  0  0  0  0  0  0  0  0  0  0
   16.5319  -13.2487    0.0000 C   0  0  0  0  0  0  0  0  0  0  0  0
  1  2  2  0  0  0  0
  2  3  1  0  0  0  0
  3  4  2  0  0  0  0
  4  5  1  0  0  0  0
  5  6  2  0  0  0  0
  6  7  1  0  0  0  0
  1  7  1  0  0  0  0
  1  6  1  0  0  0  0
M  END
>  <cdx:groupId>
919

>  <cdx:fragmentId>
900

$$$$
