138390.cdx
  Mrv1902 05222410212D          

  7  8  0  0  0  0            999 V2000
    7.5806   -6.7037    0.0000 C   0  0  0  0  0  0  0  0  0  0  0  0
    6.7959   -6.9586    0.0000 C   0  0  0  0  0  0  0  0  0  0  0  0
    6.3110   -6.2912    0.0000 C   0  0  0  0  0  0  0  0  0  0  0  0
    6.7959   -5.6238    0.0000 C   0  0  0  0  0  0  0  0  0  0  0  0
    7.5806   -5.8787    0.0000 C   0  0  0  0  0  0  0  0  0  0  0  0
    8.4056   -5.8787    0.0000 C   0  0  0  0  0  0  0  0  0  0  0  0
    8.4056   -6.7037    0.0000 C   0  0  0  0  0  0  0  0  0  0  0  0
  1  2  1  0  0  0  0
  2  3  1  0  0  0  0
  3  4  1  0  0  0  0
  4  5  1  0  0  0  0
  5  6  1  0  0  0  0
  6  7  2  0  0  0  0
  1  7  1  0  0  0  0
  1  5  1  0  0  0  0
M  END
>  <cdx:fragmentId>
963

$$$$
