13844.cdx
  Mrv1902 05222410192D          

 21 22  0  0  0  0            999 V2000
    7.9345  -11.5883    0.0000 C   0  0  0  0  0  0  0  0  0  0  0  0
    7.9412  -10.7634    0.0000 C   0  0  0  0  0  0  0  0  0  0  0  0
    7.2301  -10.3451    0.0000 C   0  0  0  0  0  0  0  0  0  0  0  0
    6.5123  -10.7518    0.0000 C   0  0  0  0  0  0  0  0  0  0  0  0
    6.5056  -11.5768    0.0000 C   0  0  0  0  0  0  0  0  0  0  0  0
    7.2167  -11.9951    0.0000 C   0  0  0  0  0  0  0  0  0  0  0  0
    9.3501  -13.2499    0.0000 C   0  0  0  0  0  0  0  0  0  0  0  0
    8.6390  -12.8316    0.0000 C   0  0  0  0  0  0  0  0  0  0  0  0
    8.6456  -12.0066    0.0000 C   0  0  0  0  0  0  0  0  0  0  0  0
    5.7879  -11.9835    0.0000 O   0  0  0  0  0  0  0  0  0  0  0  0
    5.8012  -10.3335    0.0000 O   0  0  0  0  0  0  0  0  0  0  0  0
    7.2368   -9.5201    0.0000 O   0  0  0  0  0  0  0  0  0  0  0  0
    7.9564   -9.1166    0.0000 C   0  0  0  0  0  0  0  0  0  0  0  0
    8.6656   -9.5380    0.0000 C   0  0  0  0  0  0  0  0  0  0  0  0
    9.3852   -9.1345    0.0000 C   0  0  0  0  0  0  0  0  0  0  0  0
    9.3955   -8.3096    0.0000 C   0  0  0  0  0  0  0  0  0  0  0  0
    8.6863   -7.8881    0.0000 C   0  0  0  0  0  0  0  0  0  0  0  0
    7.9667   -8.2917    0.0000 C   0  0  0  0  0  0  0  0  0  0  0  0
   10.1151   -7.9060    0.0000 C   0  0  0  0  0  0  0  0  0  0  0  0
   10.1254   -7.0811    0.0000 C   0  0  0  0  0  0  0  0  0  0  0  0
   10.8450   -6.6776    0.0000 C   0  0  0  0  0  0  0  0  0  0  0  0
  1  2  2  0  0  0  0
  2  3  1  0  0  0  0
  3  4  2  0  0  0  0
  4  5  1  0  0  0  0
  5  6  2  0  0  0  0
  6  1  1  0  0  0  0
  8  7  2  0  0  0  0
  1  9  1  0  0  0  0
  9  8  1  0  0  0  0
  5 10  1  0  0  0  0
  4 11  1  0  0  0  0
  3 12  1  0  0  0  0
 12 13  1  0  0  0  0
 13 14  2  0  0  0  0
 14 15  1  0  0  0  0
 15 16  2  0  0  0  0
 16 17  1  0  0  0  0
 17 18  2  0  0  0  0
 18 13  1  0  0  0  0
 16 19  1  0  0  0  0
 19 20  1  0  0  0  0
 20 21  2  0  0  0  0
M  END
>  <cdx:fragmentId>
5

$$$$
