13845.cdx
  Mrv1902 05222410192D          

 12 11  0  0  0  0            999 V2000
    3.5732   -4.9436    0.0000 C   0  0  0  0  0  0  0  0  0  0  0  0
    4.2845   -4.5258    0.0000 C   0  0  0  0  0  0  0  0  0  0  0  0
    5.0021   -4.9329    0.0000 C   0  0  0  0  0  0  0  0  0  0  0  0
    5.7134   -4.5151    0.0000 C   0  0  0  0  0  0  0  0  0  0  0  0
    6.4310   -4.9223    0.0000 C   0  0  0  0  0  0  0  0  0  0  0  0
    7.1423   -4.5045    0.0000 C   0  0  0  0  0  0  0  0  0  0  0  0
    7.8599   -4.9116    0.0000 C   0  0  0  0  0  0  0  0  0  0  0  0
    8.5712   -4.4938    0.0000 C   0  0  0  0  0  0  0  0  0  0  0  0
    9.2888   -4.9010    0.0000 C   0  0  0  0  0  0  0  0  0  0  0  0
   10.0002   -4.4832    0.0000 C   0  0  0  0  0  0  0  0  0  0  0  0
   10.7177   -4.8904    0.0000 C   0  0  0  0  0  0  0  0  0  0  0  0
    5.0082   -5.7579    0.0000 C   0  0  0  0  0  0  0  0  0  0  0  0
  1  2  1  0  0  0  0
  2  3  1  0  0  0  0
  3  4  1  0  0  0  0
  4  5  1  0  0  0  0
  5  6  1  0  0  0  0
  6  7  1  0  0  0  0
  7  8  1  0  0  0  0
  8  9  1  0  0  0  0
  9 10  1  0  0  0  0
 10 11  1  0  0  0  0
  3 12  1  0  0  0  0
M  END
>  <cdx:fragmentId>
5

$$$$
