13849.cdx
  Mrv1902 05222410272D          

 17 16  0  0  0  0            999 V2000
   12.0640   -3.5552    0.0000 C   0  0  0  0  0  0  0  0  0  0  0  0
   11.3495   -3.9677    0.0000 C   0  0  0  0  0  0  0  0  0  0  0  0
   10.6350   -3.5552    0.0000 C   0  0  0  0  0  0  0  0  0  0  0  0
    9.9205   -3.9677    0.0000 C   0  0  0  0  0  0  0  0  0  0  0  0
    9.2061   -3.5552    0.0000 C   0  0  0  0  0  0  0  0  0  0  0  0
    8.4916   -3.9677    0.0000 C   0  0  0  0  0  0  0  0  0  0  0  0
    7.7771   -3.5552    0.0000 C   0  0  0  0  0  0  0  0  0  0  0  0
    7.0627   -3.9677    0.0000 C   0  0  0  0  0  0  0  0  0  0  0  0
    6.3482   -3.5552    0.0000 C   0  0  0  0  0  0  0  0  0  0  0  0
    5.6337   -3.9677    0.0000 C   0  0  0  0  0  0  0  0  0  0  0  0
    4.9192   -3.5552    0.0000 C   0  0  0  0  0  0  0  0  0  0  0  0
    4.2048   -3.9677    0.0000 C   0  0  0  0  0  0  0  0  0  0  0  0
    3.4903   -3.5552    0.0000 C   0  0  0  0  0  0  0  0  0  0  0  0
    2.7758   -3.9677    0.0000 C   0  0  0  0  0  0  0  0  0  0  0  0
    2.0614   -3.5552    0.0000 C   0  0  0  0  0  0  0  0  0  0  0  0
   12.0640   -2.7302    0.0000 O   0  0  0  0  0  0  0  0  0  0  0  0
   12.7784   -3.9677    0.0000 O   0  0  0  0  0  0  0  0  0  0  0  0
  1  2  1  0  0  0  0
  2  3  1  0  0  0  0
  3  4  1  0  0  0  0
  4  5  1  0  0  0  0
  5  6  1  0  0  0  0
  6  7  1  0  0  0  0
  7  8  1  0  0  0  0
  8  9  1  0  0  0  0
  9 10  1  0  0  0  0
 10 11  1  0  0  0  0
 11 12  1  0  0  0  0
 12 13  1  0  0  0  0
 13 14  1  0  0  0  0
 14 15  1  0  0  0  0
  1 16  2  0  0  0  0
  1 17  1  0  0  0  0
M  END
>  <cdx:groupId>
52

>  <cdx:fragmentId>
5

$$$$
