13853.cdx
  Mrv1902 05222410202D          

 21 20  0  0  0  0            999 V2000
   13.7752   -7.4335    0.0000 C   0  0  0  0  0  0  0  0  0  0  0  0
   13.0608   -7.8460    0.0000 C   0  0  0  0  0  0  0  0  0  0  0  0
   12.3463   -7.4335    0.0000 C   0  0  0  0  0  0  0  0  0  0  0  0
   11.6318   -7.8460    0.0000 C   0  0  0  0  0  0  0  0  0  0  0  0
   10.9173   -8.2585    0.0000 C   0  0  0  0  0  0  0  0  0  0  0  0
   10.2029   -8.6710    0.0000 C   0  0  0  0  0  0  0  0  0  0  0  0
    9.4884   -9.0835    0.0000 C   0  0  0  0  0  0  0  0  0  0  0  0
    8.7739   -9.4960    0.0000 C   0  0  0  0  0  0  0  0  0  0  0  0
    8.0595   -9.0835    0.0000 C   0  0  0  0  0  0  0  0  0  0  0  0
    7.3450   -9.4960    0.0000 C   0  0  0  0  0  0  0  0  0  0  0  0
    6.6305   -9.0835    0.0000 C   0  0  0  0  0  0  0  0  0  0  0  0
    5.9160   -9.4960    0.0000 C   0  0  0  0  0  0  0  0  0  0  0  0
    5.2016   -9.0835    0.0000 C   0  0  0  0  0  0  0  0  0  0  0  0
    4.4871   -9.4960    0.0000 C   0  0  0  0  0  0  0  0  0  0  0  0
    3.7726   -9.0835    0.0000 C   0  0  0  0  0  0  0  0  0  0  0  0
    3.0582   -9.4960    0.0000 C   0  0  0  0  0  0  0  0  0  0  0  0
    2.3437   -9.0835    0.0000 C   0  0  0  0  0  0  0  0  0  0  0  0
    1.6292   -9.4960    0.0000 C   0  0  0  0  0  0  0  0  0  0  0  0
   12.3463   -6.6085    0.0000 O   0  0  0  0  0  0  0  0  0  0  0  0
    8.7739  -10.3210    0.0000 O   0  0  0  0  0  0  0  0  0  0  0  0
    0.9147   -9.0835    0.0000 O   0  0  0  0  0  0  0  0  0  0  0  0
  1  2  2  0  0  0  0
  2  3  1  0  0  0  0
  3  4  1  0  0  0  0
  4  5  3  0  0  0  0
  5  6  1  0  0  0  0
  6  7  3  0  0  0  0
  7  8  1  0  0  0  0
  8  9  1  0  0  0  0
  9 10  2  0  0  0  0
 10 11  1  0  0  0  0
 11 12  1  0  0  0  0
 12 13  1  0  0  0  0
 13 14  1  0  0  0  0
 14 15  1  0  0  0  0
 15 16  1  0  0  0  0
 16 17  1  0  0  0  0
 17 18  1  0  0  0  0
  3 19  1  0  0  0  0
  8 20  1  0  0  0  0
 18 21  1  0  0  0  0
M  END
>  <cdx:fragmentId>
5

$$$$
