13854.cdx
  Mrv1902 05222410192D          

  7  7  0  0  0  0            999 V2000
    3.6927   -2.0678    0.0000 N   0  0  0  0  0  0  0  0  0  0  0  0
    3.7790   -2.8883    0.0000 C   0  0  0  0  0  0  0  0  0  0  0  0
    3.0253   -3.2239    0.0000 C   0  0  0  0  0  0  0  0  0  0  0  0
    2.4733   -2.6108    0.0000 C   0  0  0  0  0  0  0  0  0  0  0  0
    2.8858   -1.8963    0.0000 C   0  0  0  0  0  0  0  0  0  0  0  0
    4.4934   -3.3008    0.0000 C   0  0  0  0  0  0  0  0  0  0  0  0
    5.2079   -2.8883    0.0000 O   0  0  0  0  0  0  0  0  0  0  0  0
  1  2  1  0  0  0  0
  2  3  2  0  0  0  0
  3  4  1  0  0  0  0
  4  5  2  0  0  0  0
  1  5  1  0  0  0  0
  6  7  2  0  0  0  0
  2  6  1  0  0  0  0
M  END
>  <cdx:groupId>
23

>  <cdx:fragmentId>
5

$$$$
