13850.cdx
  Mrv1902 05222410192D          

 17 16  0  0  0  0            999 V2000
    2.1387   -8.5051    0.0000 C   0  0  0  0  0  0  0  0  0  0  0  0
    2.8532   -8.9176    0.0000 C   0  0  0  0  0  0  0  0  0  0  0  0
    3.5676   -8.5051    0.0000 C   0  0  0  0  0  0  0  0  0  0  0  0
    4.2821   -8.9176    0.0000 C   0  0  0  0  0  0  0  0  0  0  0  0
    4.9966   -8.5051    0.0000 C   0  0  0  0  0  0  0  0  0  0  0  0
    5.7110   -8.9176    0.0000 C   0  0  0  0  0  0  0  0  0  0  0  0
    6.4255   -8.5051    0.0000 C   0  0  0  0  0  0  0  0  0  0  0  0
    7.1400   -8.9176    0.0000 C   0  0  0  0  0  0  0  0  0  0  0  0
    7.8545   -8.5051    0.0000 C   0  0  0  0  0  0  0  0  0  0  0  0
    8.5689   -8.9176    0.0000 C   0  0  0  0  0  0  0  0  0  0  0  0
    9.2834   -8.5051    0.0000 C   0  0  0  0  0  0  0  0  0  0  0  0
    9.9979   -8.9176    0.0000 C   0  0  0  0  0  0  0  0  0  0  0  0
   10.7123   -8.5051    0.0000 C   0  0  0  0  0  0  0  0  0  0  0  0
   11.4268   -8.9176    0.0000 C   0  0  0  0  0  0  0  0  0  0  0  0
   12.1413   -8.5051    0.0000 C   0  0  0  0  0  0  0  0  0  0  0  0
   12.8558   -8.9176    0.0000 C   0  0  0  0  0  0  0  0  0  0  0  0
    1.4242   -8.9176    0.0000 O   0  0  0  0  0  0  0  0  0  0  0  0
  1  2  1  0  0  0  0
  2  3  1  0  0  0  0
  3  4  1  0  0  0  0
  4  5  1  0  0  0  0
  5  6  1  0  0  0  0
  6  7  1  0  0  0  0
  7  8  1  0  0  0  0
  8  9  1  0  0  0  0
  9 10  1  0  0  0  0
 10 11  2  0  0  0  0
 11 12  1  0  0  0  0
 12 13  2  0  0  0  0
 13 14  1  0  0  0  0
 14 15  1  0  0  0  0
 15 16  1  0  0  0  0
  1 17  1  0  0  0  0
M  END
>  <cdx:fragmentId>
101076

$$$$
