138647.cdx
  Mrv1902 05222410192D          

 15 17  0  0  0  0            999 V2000
    6.4542   -6.9337    0.0000 C   0  0  0  0  0  0  0  0  0  0  0  0
    5.7868   -7.4187    0.0000 C   0  0  0  0  0  0  0  0  0  0  0  0
    5.1193   -6.9337    0.0000 C   0  0  0  0  0  0  0  0  0  0  0  0
    5.3743   -6.1491    0.0000 C   0  0  0  0  0  0  0  0  0  0  0  0
    6.1993   -6.1491    0.0000 C   0  0  0  0  0  0  0  0  0  0  0  0
    7.2388   -7.1887    0.0000 C   0  0  0  0  0  0  0  0  0  0  0  0
    7.9063   -6.7037    0.0000 C   0  0  0  0  0  0  0  0  0  0  0  0
    8.5737   -7.1887    0.0000 C   0  0  0  0  0  0  0  0  0  0  0  0
    8.3188   -7.9733    0.0000 C   0  0  0  0  0  0  0  0  0  0  0  0
    7.4938   -7.9733    0.0000 C   0  0  0  0  0  0  0  0  0  0  0  0
    9.3583   -6.9337    0.0000 C   0  0  0  0  0  0  0  0  0  0  0  0
    9.6133   -6.1491    0.0000 C   0  0  0  0  0  0  0  0  0  0  0  0
   10.4383   -6.1491    0.0000 C   0  0  0  0  0  0  0  0  0  0  0  0
   10.6932   -6.9337    0.0000 C   0  0  0  0  0  0  0  0  0  0  0  0
   10.0258   -7.4187    0.0000 C   0  0  0  0  0  0  0  0  0  0  0  0
  1  2  1  0  0  0  0
  2  3  1  0  0  0  0
  3  4  1  0  0  0  0
  4  5  1  0  0  0  0
  1  5  1  0  0  0  0
  6  7  1  0  0  0  0
  7  8  1  0  0  0  0
  8  9  1  0  0  0  0
  9 10  1  0  0  0  0
  6 10  1  0  0  0  0
  1  6  1  0  0  0  0
 11 12  1  0  0  0  0
 12 13  1  0  0  0  0
 13 14  1  0  0  0  0
 14 15  1  0  0  0  0
 11 15  1  0  0  0  0
  8 11  1  0  0  0  0
M  END
>  <cdx:fragmentId>
1029

$$$$
