138611.cdx
  Mrv1902 05222410242D          

  9  8  0  0  0  0            999 V2000
   14.7543  -14.4122    0.0000 C   0  0  0  0  0  0  0  0  0  0  0  0
   14.7543  -13.5872    0.0000 C   0  0  0  0  0  0  0  0  0  0  0  0
   15.4688  -13.1747    0.0000 C   0  0  0  0  0  0  0  0  0  0  0  0
   16.1832  -13.5872    0.0000 C   0  0  0  0  0  0  0  0  0  0  0  0
   16.8977  -13.1747    0.0000 C   0  0  0  0  0  0  0  0  0  0  0  0
   15.4688  -12.3497    0.0000 O   0  0  0  0  0  0  0  0  0  0  0  0
   16.1832  -14.4122    0.0000 C   0  0  0  0  0  0  0  0  0  0  0  0
   14.0398  -13.9997    0.0000 C   0  0  0  0  0  0  0  0  0  0  0  0
   14.0398  -13.1747    0.0000 C   0  0  0  0  0  0  0  0  0  0  0  0
  1  2  1  0  0  0  0
  2  3  1  0  0  0  0
  3  4  1  0  0  0  0
  4  5  1  0  0  0  0
  3  6  2  0  0  0  0
  4  7  1  0  0  0  0
  2  8  1  0  0  0  0
  2  9  1  0  0  0  0
M  END
>  <cdx:groupId>
1012

>  <cdx:fragmentId>
989

$$$$
