13869.cdx
  Mrv1902 05222410182D          

  8  8  0  0  0  0            999 V2000
    7.2633   -7.4456    0.0000 C   0  0  0  0  0  0  0  0  0  0  0  0
    7.2633   -8.2706    0.0000 C   0  0  0  0  0  0  0  0  0  0  0  0
    7.9777   -8.6831    0.0000 C   0  0  0  0  0  0  0  0  0  0  0  0
    8.6922   -8.2706    0.0000 C   0  0  0  0  0  0  0  0  0  0  0  0
    8.6922   -7.4456    0.0000 C   0  0  0  0  0  0  0  0  0  0  0  0
    7.9777   -7.0331    0.0000 C   0  0  0  0  0  0  0  0  0  0  0  0
    7.9777   -6.2081    0.0000 C   0  0  0  0  0  0  0  0  0  0  0  0
    6.5488   -7.0331    0.0000 C   0  0  0  0  0  0  0  0  0  0  0  0
  1  2  2  0  0  0  0
  2  3  1  0  0  0  0
  3  4  2  0  0  0  0
  4  5  1  0  0  0  0
  5  6  2  0  0  0  0
  6  1  1  0  0  0  0
  6  7  1  0  0  0  0
  1  8  1  0  0  0  0
M  END
>  <cdx:fragmentId>
5

$$$$
