13879.cdx
  Mrv1902 05222410192D          

 11 11  0  0  0  0            999 V2000
    5.4110   -4.8675    0.0000 C   0  0  0  0  0  0  0  0  0  0  0  0
    4.6965   -4.4550    0.0000 C   0  0  0  0  0  0  0  0  0  0  0  0
    4.6965   -3.6300    0.0000 C   0  0  0  0  0  0  0  0  0  0  0  0
    5.4110   -3.2175    0.0000 C   0  0  0  0  0  0  0  0  0  0  0  0
    6.1255   -3.6300    0.0000 C   0  0  0  0  0  0  0  0  0  0  0  0
    6.1255   -4.4550    0.0000 C   0  0  0  0  0  0  0  0  0  0  0  0
    7.5544   -3.6300    0.0000 O   0  0  0  0  0  0  0  0  0  0  0  0
    8.9834   -4.4550    0.0000 C   0  0  0  0  0  0  0  0  0  0  0  0
    8.2689   -4.8675    0.0000 C   0  0  0  0  0  0  0  0  0  0  0  0
    7.5544   -4.4550    0.0000 C   0  0  0  0  0  0  0  0  0  0  0  0
    6.8399   -4.8675    0.0000 C   0  0  0  0  0  0  0  0  0  0  0  0
 11  6  1  0  0  0  0
  6  1  2  0  0  0  0
  2  1  1  0  0  0  0
  3  2  2  0  0  0  0
  4  3  1  0  0  0  0
  5  4  2  0  0  0  0
  6  5  1  0  0  0  0
 10  7  2  0  0  0  0
  9  8  1  0  0  0  0
 10  9  1  0  0  0  0
 11 10  1  0  0  0  0
M  END
>  <cdx:fragmentId>
15

$$$$
