13880.cdx
  Mrv1902 05222410182D          

 30 32  0  0  0  0            999 V2000
    3.0970   -9.0956    0.0000 C   0  0  0  0  0  0  0  0  0  0  0  0
    3.0970   -9.9206    0.0000 C   0  0  0  0  0  0  0  0  0  0  0  0
    3.8115  -10.3331    0.0000 C   0  0  0  0  0  0  0  0  0  0  0  0
    4.5260   -9.9206    0.0000 C   0  0  0  0  0  0  0  0  0  0  0  0
    4.5260   -9.0956    0.0000 C   0  0  0  0  0  0  0  0  0  0  0  0
    3.8115   -8.6831    0.0000 C   0  0  0  0  0  0  0  0  0  0  0  0
    5.2404   -8.6831    0.0000 C   0  0  0  0  0  0  0  0  0  0  0  0
    5.9549   -9.0956    0.0000 C   0  0  0  0  0  0  0  0  0  0  0  0
    6.6694   -8.6831    0.0000 C   0  0  0  0  0  0  0  0  0  0  0  0
    7.3839   -9.0956    0.0000 C   0  0  0  0  0  0  0  0  0  0  0  0
    8.0983   -8.6831    0.0000 C   0  0  0  0  0  0  0  0  0  0  0  0
    7.3839   -9.9206    0.0000 C   0  0  0  0  0  0  0  0  0  0  0  0
    8.0983  -10.3331    0.0000 C   0  0  0  0  0  0  0  0  0  0  0  0
    8.8128   -9.9206    0.0000 C   0  0  0  0  0  0  0  0  0  0  0  0
    8.8128   -9.0956    0.0000 C   0  0  0  0  0  0  0  0  0  0  0  0
    6.6694   -7.8581    0.0000 O   0  0  0  0  0  0  0  0  0  0  0  0
    8.0983   -7.8581    0.0000 C   0  0  0  0  0  0  0  0  0  0  0  0
    8.8128   -7.4456    0.0000 C   0  0  0  0  0  0  0  0  0  0  0  0
    8.8128   -6.6206    0.0000 C   0  0  0  0  0  0  0  0  0  0  0  0
    9.5273   -6.2081    0.0000 C   0  0  0  0  0  0  0  0  0  0  0  0
    9.5273   -5.3831    0.0000 C   0  0  0  0  0  0  0  0  0  0  0  0
    8.8128   -4.9706    0.0000 C   0  0  0  0  0  0  0  0  0  0  0  0
    8.0983   -5.3831    0.0000 C   0  0  0  0  0  0  0  0  0  0  0  0
    8.0983   -6.2081    0.0000 C   0  0  0  0  0  0  0  0  0  0  0  0
    9.5273  -10.3331    0.0000 C   0  0  0  0  0  0  0  0  0  0  0  0
    9.5273  -11.1581    0.0000 C   0  0  0  0  0  0  0  0  0  0  0  0
   10.2417  -11.5706    0.0000 C   0  0  0  0  0  0  0  0  0  0  0  0
   11.0386  -11.3571    0.0000 C   0  0  0  0  0  0  0  0  0  0  0  0
   11.7531  -11.7696    0.0000 C   0  0  0  0  0  0  0  0  0  0  0  0
   11.4511  -10.6426    0.0000 C   0  0  0  0  0  0  0  0  0  0  0  0
  1  2  2  0  0  0  0
  2  3  1  0  0  0  0
  3  4  2  0  0  0  0
  4  5  1  0  0  0  0
  5  6  2  0  0  0  0
  6  1  1  0  0  0  0
  5  7  1  0  0  0  0
  7  8  1  0  0  0  0
  8  9  1  0  0  0  0
  9 10  1  0  0  0  0
 10 11  1  0  0  0  0
 10 12  1  0  0  0  0
 12 13  1  0  0  0  0
 13 14  2  0  0  0  0
 14 15  1  0  0  0  0
 15 11  1  0  0  0  0
  9 16  2  0  0  0  0
 11 17  1  0  0  0  0
 17 18  1  0  0  0  0
 18 19  1  0  0  0  0
 19 20  2  0  0  0  0
 20 21  1  0  0  0  0
 21 22  2  0  0  0  0
 22 23  1  0  0  0  0
 23 24  2  0  0  0  0
 24 19  1  0  0  0  0
 14 25  1  0  0  0  0
 25 26  1  0  0  0  0
 26 27  1  0  0  0  0
 27 28  2  0  0  0  0
 28 29  1  0  0  0  0
 28 30  1  0  0  0  0
M  END
>  <cdx:fragmentId>
5

$$$$
