138824.cdx
  Mrv1902 05222410232D          

 16 15  0  0  0  0            999 V2000
   10.7463   -7.4279    0.0000 C   0  0  0  0  0  0  0  0  0  0  0  0
   10.0318   -7.8404    0.0000 C   0  0  0  0  0  0  0  0  0  0  0  0
    9.3174   -7.4279    0.0000 C   0  0  0  0  0  0  0  0  0  0  0  0
    8.6029   -7.8404    0.0000 C   0  0  0  0  0  0  0  0  0  0  0  0
    7.8884   -7.4279    0.0000 C   0  0  0  0  0  0  0  0  0  0  0  0
    7.1740   -7.8404    0.0000 C   0  0  0  0  0  0  0  0  0  0  0  0
    6.4595   -7.4279    0.0000 C   0  0  0  0  0  0  0  0  0  0  0  0
    5.7450   -7.8404    0.0000 C   0  0  0  0  0  0  0  0  0  0  0  0
    5.0306   -7.4279    0.0000 C   0  0  0  0  0  0  0  0  0  0  0  0
    4.3161   -7.8404    0.0000 C   0  0  0  0  0  0  0  0  0  0  0  0
    3.6016   -7.4279    0.0000 C   0  0  0  0  0  0  0  0  0  0  0  0
    3.6016   -6.6029    0.0000 C   0  0  0  0  0  0  0  0  0  0  0  0
   11.4608   -7.8404    0.0000 O   0  0  0  0  0  0  0  0  0  0  0  0
    2.8871   -7.8404    0.0000 C   0  0  0  0  0  0  0  0  0  0  0  0
    6.4595   -6.6029    0.0000 C   0  0  0  0  0  0  0  0  0  0  0  0
    9.3174   -6.6029    0.0000 C   0  0  0  0  0  0  0  0  0  0  0  0
  1  2  1  0  0  0  0
  2  3  1  0  0  0  0
  3  4  1  0  0  0  0
  4  5  1  0  0  0  0
  5  6  1  0  0  0  0
  6  7  1  0  0  0  0
  7  8  1  0  0  0  0
  8  9  1  0  0  0  0
  9 10  1  0  0  0  0
 10 11  1  0  0  0  0
 11 12  1  0  0  0  0
  1 13  1  0  0  0  0
 11 14  1  0  0  0  0
  7 15  1  0  0  0  0
  3 16  1  0  0  0  0
M  END
>  <cdx:fragmentId>
1071

$$$$
