138963.cdx
  Mrv1902 05222410222D          

  9  8  0  0  0  0            999 V2000
   13.9969  -13.3404    0.0000 C   0  0  0  0  0  0  0  0  0  0  0  0
   14.7113  -13.7529    0.0000 C   0  0  0  0  0  0  0  0  0  0  0  0
   15.4258  -13.3404    0.0000 C   0  0  0  0  0  0  0  0  0  0  0  0
   16.1403  -13.7529    0.0000 C   0  0  0  0  0  0  0  0  0  0  0  0
   16.8548  -13.3404    0.0000 C   0  0  0  0  0  0  0  0  0  0  0  0
   17.5692  -13.7529    0.0000 C   0  0  0  0  0  0  0  0  0  0  0  0
   18.2837  -13.3404    0.0000 C   0  0  0  0  0  0  0  0  0  0  0  0
   13.2824  -13.7529    0.0000 O   0  0  0  0  0  0  0  0  0  0  0  0
   16.8548  -12.5154    0.0000 C   0  0  0  0  0  0  0  0  0  0  0  0
  1  2  1  0  0  0  0
  2  3  1  0  0  0  0
  3  4  1  0  0  0  0
  4  5  1  0  0  0  0
  5  6  1  0  0  0  0
  6  7  1  0  0  0  0
  1  8  1  0  0  0  0
  5  9  1  0  0  0  0
M  END
>  <cdx:groupId>
1145

>  <cdx:fragmentId>
1122

$$$$
