138994.cdx
  Mrv1902 05222410252D          

 21 23  0  0  0  0            999 V2000
    7.3281   -5.2506    0.0000 C   0  0  0  0  0  0  0  0  0  0  0  0
    8.0425   -5.6631    0.0000 C   0  0  0  0  0  0  0  0  0  0  0  0
    8.0425   -6.4881    0.0000 C   0  0  0  0  0  0  0  0  0  0  0  0
    7.3281   -6.9006    0.0000 C   0  0  0  0  0  0  0  0  0  0  0  0
    6.6136   -6.4881    0.0000 C   0  0  0  0  0  0  0  0  0  0  0  0
    5.8991   -6.9006    0.0000 C   0  0  0  0  0  0  0  0  0  0  0  0
    5.8991   -7.7256    0.0000 O   0  0  0  0  0  0  0  0  0  0  0  0
    5.1846   -6.4881    0.0000 C   0  0  0  0  0  0  0  0  0  0  0  0
    4.4702   -6.9006    0.0000 C   0  0  0  0  0  0  0  0  0  0  0  0
    3.7557   -6.4881    0.0000 C   0  0  0  0  0  0  0  0  0  0  0  0
    3.7557   -5.6631    0.0000 C   0  0  0  0  0  0  0  0  0  0  0  0
    4.4702   -5.2506    0.0000 C   0  0  0  0  0  0  0  0  0  0  0  0
    5.1846   -5.6631    0.0000 C   0  0  0  0  0  0  0  0  0  0  0  0
    5.8991   -5.2506    0.0000 C   0  0  0  0  0  0  0  0  0  0  0  0
    5.8991   -4.4256    0.0000 O   0  0  0  0  0  0  0  0  0  0  0  0
    6.6136   -5.6631    0.0000 C   0  0  0  0  0  0  0  0  0  0  0  0
    8.7570   -5.2506    0.0000 C   0  0  0  0  0  0  0  0  0  0  0  0
    9.4715   -5.6631    0.0000 O   0  0  0  0  0  0  0  0  0  0  0  0
   10.1859   -5.2506    0.0000 C   0  0  0  0  0  0  0  0  0  0  0  0
    8.7570   -6.9006    0.0000 O   0  0  0  0  0  0  0  0  0  0  0  0
    7.3281   -4.4256    0.0000 O   0  0  0  0  0  0  0  0  0  0  0  0
  1  2  1  0  0  0  0
  2  3  2  0  0  0  0
  3  4  1  0  0  0  0
  4  5  2  0  0  0  0
  5  6  1  0  0  0  0
  6  7  2  0  0  0  0
  6  8  1  0  0  0  0
  8  9  1  0  0  0  0
  9 10  2  0  0  0  0
 10 11  1  0  0  0  0
 11 12  2  0  0  0  0
 12 13  1  0  0  0  0
  8 13  2  0  0  0  0
 13 14  1  0  0  0  0
 14 15  2  0  0  0  0
 14 16  1  0  0  0  0
  5 16  1  0  0  0  0
  1 16  2  0  0  0  0
 18 19  1  0  0  0  0
 17 18  1  0  0  0  0
  2 17  1  0  0  0  0
  3 20  1  0  0  0  0
  1 21  1  0  0  0  0
M  END
>  <cdx:fragmentId>
5

$$$$
