139.cdx
  Mrv1902 05222410192D          

 21 23  0  0  0  0            999 V2000
    5.3692   -3.7606    0.0000 C   0  0  0  0  0  0  0  0  0  0  0  0
    5.3692   -4.5856    0.0000 C   0  0  0  0  0  0  0  0  0  0  0  0
    6.0837   -4.9981    0.0000 C   0  0  0  0  0  0  0  0  0  0  0  0
    6.7982   -4.5856    0.0000 C   0  0  0  0  0  0  0  0  0  0  0  0
    6.7982   -3.7606    0.0000 C   0  0  0  0  0  0  0  0  0  0  0  0
    6.0837   -3.3481    0.0000 C   0  0  0  0  0  0  0  0  0  0  0  0
    7.5126   -4.9981    0.0000 C   0  0  0  0  0  0  0  0  0  0  0  0
    8.2271   -4.5856    0.0000 C   0  0  0  0  0  0  0  0  0  0  0  0
    8.2271   -3.7606    0.0000 C   0  0  0  0  0  0  0  0  0  0  0  0
    7.5126   -3.3481    0.0000 O   0  0  0  0  0  0  0  0  0  0  0  0
    4.6547   -3.3481    0.0000 O   0  0  0  0  0  0  0  0  0  0  0  0
    8.9416   -3.3481    0.0000 C   0  0  0  0  0  0  0  0  0  0  0  0
    9.6560   -3.7606    0.0000 C   0  0  0  0  0  0  0  0  0  0  0  0
   10.3705   -3.3481    0.0000 C   0  0  0  0  0  0  0  0  0  0  0  0
   10.3705   -2.5231    0.0000 C   0  0  0  0  0  0  0  0  0  0  0  0
    9.6560   -2.1106    0.0000 C   0  0  0  0  0  0  0  0  0  0  0  0
    8.9416   -2.5231    0.0000 C   0  0  0  0  0  0  0  0  0  0  0  0
    7.5126   -5.8231    0.0000 O   0  0  0  0  0  0  0  0  0  0  0  0
    8.9416   -4.9981    0.0000 O   0  0  0  0  0  0  0  0  0  0  0  0
    6.0837   -5.8231    0.0000 O   0  0  0  0  0  0  0  0  0  0  0  0
    3.9403   -3.7606    0.0000 C   0  0  0  0  0  0  0  0  0  0  0  0
  1  2  2  0  0  0  0
  2  3  1  0  0  0  0
  3  4  2  0  0  0  0
  4  5  1  0  0  0  0
  5  6  2  0  0  0  0
  6  1  1  0  0  0  0
  4  7  1  0  0  0  0
  7  8  1  0  0  0  0
  8  9  2  0  0  0  0
  9 10  1  0  0  0  0
 10  5  1  0  0  0  0
  1 11  1  0  0  0  0
  9 12  1  0  0  0  0
 12 13  2  0  0  0  0
 13 14  1  0  0  0  0
 14 15  2  0  0  0  0
 15 16  1  0  0  0  0
 16 17  2  0  0  0  0
 17 12  1  0  0  0  0
  7 18  2  0  0  0  0
  8 19  1  0  0  0  0
  3 20  1  0  0  0  0
 11 21  1  0  0  0  0
M  END
>  <cdx:fragmentId>
5

$$$$
