139288.cdx
  Mrv1902 05222410222D          

 10  9  0  0  0  0            999 V2000
    9.0166  -15.4443    0.0000 C   0  0  0  0  0  0  0  0  0  0  0  0
    8.3021  -15.0318    0.0000 C   0  0  0  0  0  0  0  0  0  0  0  0
    7.5877  -15.4443    0.0000 C   0  0  0  0  0  0  0  0  0  0  0  0
    6.8732  -15.0318    0.0000 C   0  0  0  0  0  0  0  0  0  0  0  0
    6.1587  -15.4443    0.0000 C   0  0  0  0  0  0  0  0  0  0  0  0
    5.4443  -15.0318    0.0000 C   0  0  0  0  0  0  0  0  0  0  0  0
    4.7298  -15.4443    0.0000 C   0  0  0  0  0  0  0  0  0  0  0  0
    9.7311  -15.0318    0.0000 O   0  0  0  0  0  0  0  0  0  0  0  0
    5.4443  -14.2068    0.0000 C   0  0  0  0  0  0  0  0  0  0  0  0
    8.3021  -14.2068    0.0000 C   0  0  0  0  0  0  0  0  0  0  0  0
  1  2  1  0  0  0  0
  2  3  1  0  0  0  0
  3  4  1  0  0  0  0
  4  5  1  0  0  0  0
  5  6  1  0  0  0  0
  6  7  1  0  0  0  0
  1  8  2  0  0  0  0
  6  9  1  0  0  0  0
  2 10  1  0  0  0  0
M  END
>  <cdx:groupId>
102332

>  <cdx:fragmentId>
102306

$$$$
