139389.cdx
  Mrv1902 05222410192D          

 22 25  0  0  0  0            999 V2000
    6.7164   -8.2501    0.0000 H   0  0  0  0  0  0  0  0  0  0  0  0
    8.8557   -7.8167    0.0000 H   0  0  0  0  0  0  0  0  0  0  0  0
    9.5420   -4.9224    0.0000 C   0  0  0  0  0  0  0  0  0  0  0  0
    6.4174   -8.5550    0.0000 C   0  0  0  0  0  0  0  0  0  0  0  0
    5.5924   -8.5631    0.0000 C   0  0  0  0  0  0  0  0  0  0  0  0
    8.1050   -4.1114    0.0000 O   0  0  0  0  0  0  0  0  0  0  0  0
    7.8925   -6.7650    0.0000 O   0  0  0  0  0  0  0  0  0  0  0  0
    7.3425   -6.4625    0.0000 C   0  0  0  0  0  0  0  0  0  0  0  0
    5.9819   -6.1947    0.0000 C   0  0  0  0  0  0  0  0  0  0  0  0
    5.2714   -6.6142    0.0000 C   0  0  0  0  0  0  0  0  0  0  0  0
    5.2795   -7.4391    0.0000 C   0  0  0  0  0  0  0  0  0  0  0  0
    5.9980   -7.8446    0.0000 C   0  0  0  0  0  0  0  0  0  0  0  0
    6.7084   -7.4252    0.0000 C   0  0  2  0  0  0  0  0  0  0  0  0
    7.4268   -7.8307    0.0000 C   0  0  0  0  0  0  0  0  0  0  0  0
    8.1372   -7.4112    0.0000 C   0  0  1  0  0  0  0  0  0  0  0  0
    8.1292   -6.5863    0.0000 C   0  0  0  0  0  0  0  0  0  0  0  0
    8.8396   -6.1668    0.0000 C   0  0  0  0  0  0  0  0  0  0  0  0
    8.8316   -5.3419    0.0000 C   0  0  0  0  0  0  0  0  0  0  0  0
    8.1131   -4.9364    0.0000 C   0  0  0  0  0  0  0  0  0  0  0  0
    7.4027   -5.3558    0.0000 C   0  0  0  0  0  0  0  0  0  0  0  0
    7.4107   -6.1808    0.0000 C   0  0  0  0  0  0  0  0  0  0  0  0
    6.7003   -6.6002    0.0000 C   0  0  2  0  0  0  0  0  0  0  0  0
 13  1  1  6  0  0  0
 15  2  1  1  0  0  0
 18  3  1  0  0  0  0
 12  4  1  0  0  0  0
 12  5  1  0  0  0  0
 19  6  1  0  0  0  0
 21 16  2  0  0  0  0
 22 13  1  0  0  0  0
 15  7  1  0  0  0  0
 22  8  1  0  0  0  0
 22  9  1  1  0  0  0
  8  7  1  0  0  0  0
 10  9  1  0  0  0  0
 11 10  1  0  0  0  0
 12 11  1  0  0  0  0
 13 12  1  0  0  0  0
 14 13  1  0  0  0  0
 15 14  1  0  0  0  0
 16 15  1  0  0  0  0
 17 16  1  0  0  0  0
 18 17  2  0  0  0  0
 19 18  1  0  0  0  0
 20 19  2  0  0  0  0
 21 20  1  0  0  0  0
 22 21  1  0  0  0  0
M  END
>  <cdx:fragmentId>
111251

$$$$
