13949.cdx
  Mrv1902 05222410232D          

 27 29  0  0  0  0            999 V2000
    6.7614   -7.7481    0.0000 O   0  0  0  0  0  0  0  0  0  0  0  0
    7.4759   -7.3356    0.0000 C   0  0  0  0  0  0  0  0  0  0  0  0
    7.4759   -6.5106    0.0000 C   0  0  0  0  0  0  0  0  0  0  0  0
    8.1904   -6.0981    0.0000 C   0  0  0  0  0  0  0  0  0  0  0  0
    8.1904   -5.2731    0.0000 C   0  0  0  0  0  0  0  0  0  0  0  0
    8.9048   -4.8606    0.0000 C   0  0  0  0  0  0  0  0  0  0  0  0
    8.9048   -6.5106    0.0000 C   0  0  0  0  0  0  0  0  0  0  0  0
    8.9048   -4.0356    0.0000 C   0  0  0  0  0  0  0  0  0  0  0  0
    9.6193   -5.2731    0.0000 O   0  0  0  0  0  0  0  0  0  0  0  0
    9.6193   -3.6231    0.0000 C   0  0  0  0  0  0  0  0  0  0  0  0
    9.6193   -2.7981    0.0000 C   0  0  0  0  0  0  0  0  0  0  0  0
   10.3338   -4.0356    0.0000 C   0  0  0  0  0  0  0  0  0  0  0  0
    9.6193  -10.2231    0.0000 O   0  0  0  0  0  0  0  0  0  0  0  0
    5.2623   -8.7307    0.0000 C   0  0  0  0  0  0  0  0  0  0  0  0
    4.7774   -9.3981    0.0000 C   0  0  0  0  0  0  0  0  0  0  0  0
    5.2623  -10.0656    0.0000 O   0  0  0  0  0  0  0  0  0  0  0  0
    6.7614   -8.5731    0.0000 C   0  0  0  0  0  0  0  0  0  0  0  0
    6.0469   -8.9856    0.0000 C   0  0  0  0  0  0  0  0  0  0  0  0
    6.0469   -9.8106    0.0000 C   0  0  0  0  0  0  0  0  0  0  0  0
    6.7614  -10.2231    0.0000 C   0  0  0  0  0  0  0  0  0  0  0  0
    8.1904   -8.5731    0.0000 C   0  0  0  0  0  0  0  0  0  0  0  0
    7.4759   -8.9856    0.0000 C   0  0  0  0  0  0  0  0  0  0  0  0
    7.4759   -9.8106    0.0000 C   0  0  0  0  0  0  0  0  0  0  0  0
    8.1904  -10.2231    0.0000 O   0  0  0  0  0  0  0  0  0  0  0  0
    8.9048   -9.8106    0.0000 C   0  0  0  0  0  0  0  0  0  0  0  0
    8.9048   -8.9856    0.0000 C   0  0  0  0  0  0  0  0  0  0  0  0
   10.3338   -4.8606    0.0000 C   0  0  0  0  0  0  0  0  0  0  0  0
  1  2  1  0  0  0  0
  2  3  1  0  0  0  0
  3  4  2  0  0  0  0
  4  5  1  0  0  0  0
  5  6  1  0  0  0  0
  4  7  1  0  0  0  0
  6  8  1  0  0  0  0
  6  9  1  0  0  0  0
  8 10  2  0  0  0  0
 10 11  1  0  0  0  0
 17  1  1  0  0  0  0
 10 12  1  0  0  0  0
 25 13  2  0  0  0  0
 14 18  1  0  0  0  0
 15 14  2  0  0  0  0
 16 15  1  0  0  0  0
 19 16  1  0  0  0  0
 17 22  2  0  0  0  0
 18 17  1  0  0  0  0
 19 18  2  0  0  0  0
 20 19  1  0  0  0  0
 23 20  2  0  0  0  0
 21 26  2  0  0  0  0
 22 21  1  0  0  0  0
 23 22  1  0  0  0  0
 24 23  1  0  0  0  0
 25 24  1  0  0  0  0
 26 25  1  0  0  0  0
  9 27  1  0  0  0  0
M  END
>  <cdx:fragmentId>
5

$$$$
