13945.cdx
  Mrv1902 05222410232D          

 20 21  0  0  0  0            999 V2000
    8.8991   -9.3495    0.0000 P   0  0  0  0  0  0  0  0  0  0  0  0
    7.4268   -5.4707    0.0000 C   0  0  0  0  0  0  0  0  0  0  0  0
    7.4144   -4.6457    0.0000 N   0  0  0  0  0  0  0  0  0  0  0  0
    6.6938   -4.2441    0.0000 C   0  0  0  0  0  0  0  0  0  0  0  0
    5.9856   -4.6673    0.0000 C   0  0  0  0  0  0  0  0  0  0  0  0
    5.9980   -5.4922    0.0000 C   0  0  0  0  0  0  0  0  0  0  0  0
    6.7187   -5.8939    0.0000 N   0  0  0  0  0  0  0  0  0  0  0  0
    8.1474   -5.8723    0.0000 O   0  0  0  0  0  0  0  0  0  0  0  0
    6.6814   -3.4192    0.0000 N   0  0  0  0  0  0  0  0  0  0  0  0
    8.1846   -9.7620    0.0000 O   0  0  0  0  0  0  0  0  0  0  0  0
    9.6136   -8.9370    0.0000 O   0  0  0  0  0  0  0  0  0  0  0  0
    9.3116  -10.0640    0.0000 O   0  0  0  0  0  0  0  0  0  0  0  0
    8.4826   -8.6374    0.0000 O   0  0  0  0  0  0  0  0  0  0  0  0
    5.8630   -8.6691    0.0000 O   0  0  0  0  0  0  0  0  0  0  0  0
    6.7311   -6.7188    0.0000 C   0  0  1  0  0  0  0  0  0  0  0  0
    6.0710   -7.2137    0.0000 C   0  0  0  0  0  0  0  0  0  0  0  0
    6.3378   -7.9944    0.0000 C   0  0  1  0  0  0  0  0  0  0  0  0
    7.1627   -7.9820    0.0000 C   0  0  2  0  0  0  0  0  0  0  0  0
    7.4058   -7.1936    0.0000 O   0  0  0  0  0  0  0  0  0  0  0  0
    7.6576   -8.6420    0.0000 C   0  0  0  0  0  0  0  0  0  0  0  0
 18 20  1  6  0  0  0
 15  7  1  6  0  0  0
 17 14  1  1  0  0  0
 19 15  1  0  0  0  0
 16 15  1  0  0  0  0
 17 16  1  0  0  0  0
 18 17  1  0  0  0  0
 19 18  1  0  0  0  0
  2  3  1  0  0  0  0
  3  4  2  0  0  0  0
  4  5  1  0  0  0  0
  5  6  2  0  0  0  0
  6  7  1  0  0  0  0
  2  7  1  0  0  0  0
  2  8  2  0  0  0  0
  4  9  1  0  0  0  0
  1 10  2  0  0  0  0
  1 11  1  0  0  0  0
  1 12  1  0  0  0  0
  1 13  1  0  0  0  0
 13 20  1  0  0  0  0
M  END
>  <cdx:fragmentId>
29

$$$$
