139518.cdx
  Mrv1902 05222410252D          

 11 11  0  0  0  0            999 V2000
   14.7543  -12.8362    0.0000 C   0  0  0  0  0  0  0  0  0  0  0  0
   14.7543  -13.6612    0.0000 C   0  0  0  0  0  0  0  0  0  0  0  0
   15.4688  -14.0737    0.0000 C   0  0  0  0  0  0  0  0  0  0  0  0
   16.1832  -13.6612    0.0000 C   0  0  0  0  0  0  0  0  0  0  0  0
   16.1832  -12.8362    0.0000 C   0  0  0  0  0  0  0  0  0  0  0  0
   15.4688  -12.4237    0.0000 C   0  0  0  0  0  0  0  0  0  0  0  0
   14.0398  -14.0737    0.0000 C   0  0  0  0  0  0  0  0  0  0  0  0
   16.8977  -14.0737    0.0000 C   0  0  0  0  0  0  0  0  0  0  0  0
   17.6122  -13.6612    0.0000 C   0  0  0  0  0  0  0  0  0  0  0  0
   14.0398  -12.4237    0.0000 C   0  0  0  0  0  0  0  0  0  0  0  0
   13.3253  -12.8362    0.0000 C   0  0  0  0  0  0  0  0  0  0  0  0
  1  2  1  0  0  0  0
  2  3  2  0  0  0  0
  3  4  1  0  0  0  0
  4  5  2  0  0  0  0
  5  6  1  0  0  0  0
  1  6  2  0  0  0  0
  2  7  1  0  0  0  0
  8  9  1  0  0  0  0
  4  8  1  0  0  0  0
 10 11  1  0  0  0  0
  1 10  1  0  0  0  0
M  END
>  <cdx:groupId>
1181

>  <cdx:fragmentId>
1151

$$$$
