13985.cdx
  Mrv1902 05222410222D          

 16 15  0  0  0  0            999 V2000
    5.7428   -5.0044    0.0000 O   0  0  0  0  0  0  0  0  0  0  0  0
    5.0284   -5.4169    0.0000 C   0  0  0  0  0  0  0  0  0  0  0  0
    6.4573   -6.2419    0.0000 O   0  0  0  0  0  0  0  0  0  0  0  0
    6.4573   -7.8919    0.0000 O   0  0  0  0  0  0  0  0  0  0  0  0
    3.5994   -6.2419    0.0000 O   0  0  0  0  0  0  0  0  0  0  0  0
    3.5994   -7.8919    0.0000 O   0  0  0  0  0  0  0  0  0  0  0  0
    5.0284   -8.7169    0.0000 O   0  0  0  0  0  0  0  0  0  0  0  0
    5.0284   -7.8919    0.0000 C   0  0  0  0  0  0  0  0  0  0  0  0
    5.7428   -7.4794    0.0000 C   0  0  1  0  0  0  0  0  0  0  0  0
    5.7428   -6.6544    0.0000 C   0  0  2  0  0  0  0  0  0  0  0  0
    5.0284   -6.2419    0.0000 C   0  0  0  0  0  0  0  0  0  0  0  0
    4.3139   -6.6544    0.0000 C   0  0  2  0  0  0  0  0  0  0  0  0
    4.3139   -7.4794    0.0000 C   0  0  1  0  0  0  0  0  0  0  0  0
    8.2617   -7.3315    0.0000 O   0  0  0  0  0  0  0  0  0  0  0  0
    7.5472   -6.9190    0.0000 H   0  0  0  0  0  0  0  0  0  0  0  0
    8.9762   -6.9190    0.0000 H   0  0  0  0  0  0  0  0  0  0  0  0
  2  1  1  0  0  0  0
 11  2  1  0  0  0  0
 10  3  1  6  0  0  0
  9  4  1  1  0  0  0
 12  5  1  6  0  0  0
 13  6  1  6  0  0  0
  8  7  1  0  0  0  0
  8 13  1  0  0  0  0
  9  8  1  0  0  0  0
 10  9  1  0  0  0  0
 11 10  1  0  0  0  0
 12 11  1  0  0  0  0
 13 12  1  0  0  0  0
 14 16  1  0  0  0  0
 15 14  1  0  0  0  0
M  END
>  <cdx:fragmentId>
47

$$$$
