13991.cdx
  Mrv1902 05222410222D          

 17 18  0  0  0  0            999 V2000
    3.9179   -5.1825    0.0000 C   0  0  0  0  0  0  0  0  0  0  0  0
    5.3468   -5.1780    0.0000 C   0  0  0  0  0  0  0  0  0  0  0  0
    4.6337   -5.5927    0.0000 C   0  0  0  0  0  0  0  0  0  0  0  0
    4.6363   -6.4177    0.0000 C   0  0  0  0  0  0  0  0  0  0  0  0
    5.3521   -6.8279    0.0000 C   0  0  0  0  0  0  0  0  0  0  0  0
    9.6415   -7.6393    0.0000 O   0  0  0  0  0  0  0  0  0  0  0  0
    5.3547   -7.6529    0.0000 O   0  0  0  0  0  0  0  0  0  0  0  0
    8.2178   -9.2939    0.0000 C   0  0  0  0  0  0  0  0  0  0  0  0
    8.9309   -8.8791    0.0000 C   0  0  0  0  0  0  0  0  0  0  0  0
    8.9283   -8.0541    0.0000 C   0  0  0  0  0  0  0  0  0  0  0  0
    8.2125   -7.6439    0.0000 O   0  0  0  0  0  0  0  0  0  0  0  0
    6.7889   -9.2984    0.0000 C   0  0  0  0  0  0  0  0  0  0  0  0
    7.5020   -8.8836    0.0000 C   0  0  0  0  0  0  0  0  0  0  0  0
    7.4994   -8.0586    0.0000 C   0  0  0  0  0  0  0  0  0  0  0  0
    6.7836   -7.6484    0.0000 C   0  0  0  0  0  0  0  0  0  0  0  0
    6.0705   -8.0632    0.0000 C   0  0  0  0  0  0  0  0  0  0  0  0
    6.0731   -8.8882    0.0000 C   0  0  0  0  0  0  0  0  0  0  0  0
  3  1  1  0  0  0  0
  3  2  1  0  0  0  0
  4  3  2  0  0  0  0
  5  4  1  0  0  0  0
  7  5  1  0  0  0  0
 10  6  2  0  0  0  0
 16  7  1  0  0  0  0
  8 13  1  0  0  0  0
  9  8  2  0  0  0  0
 10  9  1  0  0  0  0
 11 10  1  0  0  0  0
 14 11  1  0  0  0  0
 12 17  1  0  0  0  0
 13 12  2  0  0  0  0
 14 13  1  0  0  0  0
 15 14  2  0  0  0  0
 16 15  1  0  0  0  0
 17 16  2  0  0  0  0
M  END
>  <cdx:fragmentId>
5

$$$$
