orobol-7-O-D-glucoside.cdx
  Mrv1902 05222410252D          

 35 38  0  0  0  0            999 V2000
    4.2108   -6.3731    0.0000 C   0  0  0  0  0  0  0  0  0  0  0  0
    4.2108   -7.1981    0.0000 C   0  0  0  0  0  0  0  0  0  0  0  0
    4.9252   -7.6106    0.0000 C   0  0  0  0  0  0  0  0  0  0  0  0
    5.6397   -7.1981    0.0000 C   0  0  0  0  0  0  0  0  0  0  0  0
    5.6397   -6.3731    0.0000 C   0  0  0  0  0  0  0  0  0  0  0  0
    4.9252   -5.9606    0.0000 C   0  0  0  0  0  0  0  0  0  0  0  0
    6.3542   -7.6106    0.0000 C   0  0  0  0  0  0  0  0  0  0  0  0
    7.0687   -7.1981    0.0000 C   0  0  0  0  0  0  0  0  0  0  0  0
    7.0687   -6.3731    0.0000 C   0  0  0  0  0  0  0  0  0  0  0  0
    6.3542   -5.9606    0.0000 O   0  0  0  0  0  0  0  0  0  0  0  0
    4.9252   -5.1356    0.0000 H   0  0  0  0  0  0  0  0  0  0  0  0
    3.4963   -7.6106    0.0000 H   0  0  0  0  0  0  0  0  0  0  0  0
    4.9252   -8.4356    0.0000 O   0  0  0  0  0  0  0  0  0  0  0  0
    6.3542   -8.4356    0.0000 O   0  0  0  0  0  0  0  0  0  0  0  0
    7.7831   -7.6106    0.0000 C   0  0  0  0  0  0  0  0  0  0  0  0
    7.7831   -8.4356    0.0000 C   0  0  0  0  0  0  0  0  0  0  0  0
    8.4976   -8.8481    0.0000 C   0  0  0  0  0  0  0  0  0  0  0  0
    9.2121   -8.4356    0.0000 C   0  0  0  0  0  0  0  0  0  0  0  0
    9.2121   -7.6106    0.0000 C   0  0  0  0  0  0  0  0  0  0  0  0
    8.4976   -7.1981    0.0000 C   0  0  0  0  0  0  0  0  0  0  0  0
    8.4976   -9.6731    0.0000 H   0  0  0  0  0  0  0  0  0  0  0  0
    9.9265   -7.1981    0.0000 O   0  0  0  0  0  0  0  0  0  0  0  0
    3.0165   -3.7386    0.0000 C   0  0  2  0  0  0  0  0  0  0  0  0
    2.1915   -3.7336    0.0000 C   0  0  2  0  0  0  0  0  0  0  0  0
    1.7747   -4.4456    0.0000 C   0  0  1  0  0  0  0  0  0  0  0  0
    2.1829   -5.1625    0.0000 C   0  0  2  0  0  0  0  0  0  0  0  0
    3.0079   -5.1675    0.0000 C   0  0  1  0  0  0  0  0  0  0  0  0
    3.4247   -4.4555    0.0000 O   0  0  0  0  0  0  0  0  0  0  0  0
    3.4160   -5.8844    0.0000 O   0  0  0  0  0  0  0  0  0  0  0  0
    3.4333   -3.0266    0.0000 C   0  0  0  0  0  0  0  0  0  0  0  0
    0.9497   -4.4406    0.0000 O   0  0  0  0  0  0  0  0  0  0  0  0
    1.7661   -5.8745    0.0000 O   0  0  0  0  0  0  0  0  0  0  0  0
    1.7833   -3.0166    0.0000 O   0  0  0  0  0  0  0  0  0  0  0  0
    4.2583   -3.0316    0.0000 O   0  0  0  0  0  0  0  0  0  0  0  0
   10.0457   -8.9461    0.0000 O   0  0  0  0  0  0  0  0  0  0  0  0
  1  2  2  0  0  0  0
  2  3  1  0  0  0  0
  3  4  2  0  0  0  0
  4  5  1  0  0  0  0
  5  6  2  0  0  0  0
  6  1  1  0  0  0  0
  4  7  1  0  0  0  0
  7  8  1  0  0  0  0
  8  9  2  0  0  0  0
  9 10  1  0  0  0  0
 10  5  1  0  0  0  0
  6 11  1  0  0  0  0
  2 12  1  0  0  0  0
  3 13  1  0  0  0  0
  7 14  2  0  0  0  0
  8 15  1  0  0  0  0
 15 16  2  0  0  0  0
 16 17  1  0  0  0  0
 17 18  2  0  0  0  0
 18 19  1  0  0  0  0
 19 20  2  0  0  0  0
 20 15  1  0  0  0  0
 17 21  1  0  0  0  0
 19 22  1  0  0  0  0
 23 24  1  0  0  0  0
 24 25  1  0  0  0  0
 25 26  1  0  0  0  0
 26 27  1  0  0  0  0
 27 28  1  0  0  0  0
 28 23  1  0  0  0  0
 27 29  1  1  0  0  0
 23 30  1  1  0  0  0
 25 31  1  1  0  0  0
 26 32  1  6  0  0  0
 24 33  1  6  0  0  0
 30 34  1  0  0  0  0
  1 29  1  0  0  0  0
 18 35  1  0  0  0  0
M  END
>  <cdx:fragmentId>
5

$$$$
