13998.cdx
  Mrv1902 05222410252D          

 23 27  0  0  0  0            999 V2000
    6.7408   -8.1194    0.0000 C   0  0  1  0  0  0  0  0  0  0  0  0
    6.7408   -8.9444    0.0000 C   0  0  0  0  0  0  0  0  0  0  0  0
    7.4552   -9.3569    0.0000 C   0  0  0  0  0  0  0  0  0  0  0  0
    8.1697   -8.9444    0.0000 C   0  0  0  0  0  0  0  0  0  0  0  0
    8.1697   -8.1194    0.0000 C   0  0  0  0  0  0  0  0  0  0  0  0
    7.4552   -7.7069    0.0000 C   0  0  1  0  0  0  0  0  0  0  0  0
    8.8842   -7.7069    0.0000 C   0  0  1  0  0  0  0  0  0  0  0  0
    8.8842   -6.8819    0.0000 C   0  0  0  0  0  0  0  0  0  0  0  0
    8.1697   -6.4694    0.0000 C   0  0  0  0  0  0  0  0  0  0  0  0
    7.4552   -6.8819    0.0000 C   0  0  0  0  0  0  0  0  0  0  0  0
    8.1697   -5.6444    0.0000 C   0  0  0  0  0  0  0  0  0  0  0  0
    7.4552   -5.2319    0.0000 C   0  0  0  0  0  0  0  0  0  0  0  0
    6.7408   -5.6444    0.0000 C   0  0  0  0  0  0  0  0  0  0  0  0
    6.7408   -6.4694    0.0000 C   0  0  0  0  0  0  0  0  0  0  0  0
    6.1325   -7.2325    0.0000 O   0  0  0  0  0  0  0  0  0  0  0  0
    6.0263   -5.2319    0.0000 O   0  0  0  0  0  0  0  0  0  0  0  0
    6.0263   -9.3569    0.0000 O   0  0  0  0  0  0  0  0  0  0  0  0
    6.0263  -10.1819    0.0000 C   0  0  0  0  0  0  0  0  0  0  0  0
    8.0386   -7.1235    0.0000 C   0  0  0  0  0  0  0  0  0  0  0  0
    9.5987   -8.1194    0.0000 N   0  0  0  0  0  0  0  0  0  0  0  0
    9.5987   -7.0881    0.0000 C   0  0  0  0  0  0  0  0  0  0  0  0
   10.0112   -8.8338    0.0000 C   0  0  0  0  0  0  0  0  0  0  0  0
    5.9439   -8.3329    0.0000 H   0  0  0  0  0  0  0  0  0  0  0  0
  1  2  1  0  0  0  0
  2  3  2  0  0  0  0
  3  4  1  0  0  0  0
  4  5  2  0  0  0  0
  5  6  1  0  0  0  0
  6  1  1  0  0  0  0
  5  7  1  0  0  0  0
  7  8  1  0  0  0  0
  8  9  1  0  0  0  0
  9 10  2  0  0  0  0
 10  6  1  0  0  0  0
  9 11  1  0  0  0  0
 11 12  2  0  0  0  0
 12 13  1  0  0  0  0
 13 14  2  0  0  0  0
 14 10  1  0  0  0  0
 14 15  1  0  0  0  0
  1 15  1  0  0  0  0
 13 16  1  0  0  0  0
  2 17  1  0  0  0  0
 17 18  1  0  0  0  0
  6 19  1  1  0  0  0
  7 20  1  1  0  0  0
 20 21  1  0  0  0  0
 19 21  1  0  0  0  0
 20 22  1  0  0  0  0
  1 23  1  1  0  0  0
M  END
>  <cdx:fragmentId>
5

$$$$
