140.cdx
  Mrv1902 05222410252D          

 22 24  0  0  0  0            999 V2000
    4.8793   -5.5550    0.0000 C   0  0  0  0  0  0  0  0  0  0  0  0
    4.8793   -6.3800    0.0000 C   0  0  0  0  0  0  0  0  0  0  0  0
    5.5938   -6.7925    0.0000 C   0  0  0  0  0  0  0  0  0  0  0  0
    6.3082   -6.3800    0.0000 C   0  0  0  0  0  0  0  0  0  0  0  0
    6.3082   -5.5550    0.0000 C   0  0  0  0  0  0  0  0  0  0  0  0
    5.5938   -5.1425    0.0000 C   0  0  0  0  0  0  0  0  0  0  0  0
    7.0227   -6.7925    0.0000 C   0  0  0  0  0  0  0  0  0  0  0  0
    7.7372   -6.3800    0.0000 C   0  0  0  0  0  0  0  0  0  0  0  0
    7.7372   -5.5550    0.0000 C   0  0  0  0  0  0  0  0  0  0  0  0
    7.0227   -5.1425    0.0000 O   0  0  0  0  0  0  0  0  0  0  0  0
    8.4517   -6.7925    0.0000 O   0  0  0  0  0  0  0  0  0  0  0  0
   10.5951   -3.9050    0.0000 O   0  0  0  0  0  0  0  0  0  0  0  0
    9.1661   -5.5550    0.0000 C   0  0  0  0  0  0  0  0  0  0  0  0
    9.8806   -5.1425    0.0000 C   0  0  0  0  0  0  0  0  0  0  0  0
    9.8806   -4.3175    0.0000 C   0  0  0  0  0  0  0  0  0  0  0  0
    9.1661   -3.9050    0.0000 C   0  0  0  0  0  0  0  0  0  0  0  0
    8.4517   -5.1425    0.0000 C   0  0  0  0  0  0  0  0  0  0  0  0
    7.0227   -7.6175    0.0000 O   0  0  0  0  0  0  0  0  0  0  0  0
    8.4517   -4.3175    0.0000 C   0  0  0  0  0  0  0  0  0  0  0  0
    7.7372   -3.9050    0.0000 O   0  0  0  0  0  0  0  0  0  0  0  0
    4.1648   -5.1425    0.0000 O   0  0  0  0  0  0  0  0  0  0  0  0
    5.5938   -7.6175    0.0000 O   0  0  0  0  0  0  0  0  0  0  0  0
  1  2  2  0  0  0  0
  2  3  1  0  0  0  0
  3  4  2  0  0  0  0
  4  5  1  0  0  0  0
  5  6  2  0  0  0  0
  6  1  1  0  0  0  0
  4  7  1  0  0  0  0
  7  8  1  0  0  0  0
  8  9  2  0  0  0  0
  9 10  1  0  0  0  0
 10  5  1  0  0  0  0
 15 12  1  0  0  0  0
 13 17  1  0  0  0  0
  8 11  1  0  0  0  0
 14 13  2  0  0  0  0
 15 14  1  0  0  0  0
 17  9  1  0  0  0  0
 16 15  2  0  0  0  0
 19 16  1  0  0  0  0
 19 17  2  0  0  0  0
 20 19  1  0  0  0  0
  7 18  2  0  0  0  0
  1 21  1  0  0  0  0
  3 22  1  0  0  0  0
M  END
>  <cdx:fragmentId>
112

$$$$
