14001.cdx
  Mrv1902 05222410232D          

 32 35  0  0  0  0            999 V2000
    5.2627   -7.8169    0.0000 C   0  0  0  0  0  0  0  0  0  0  0  0
    5.2627   -8.6419    0.0000 C   0  0  0  0  0  0  0  0  0  0  0  0
    5.9771   -9.0544    0.0000 C   0  0  0  0  0  0  0  0  0  0  0  0
    6.6916   -8.6419    0.0000 C   0  0  0  0  0  0  0  0  0  0  0  0
    6.6916   -7.8169    0.0000 C   0  0  0  0  0  0  0  0  0  0  0  0
    5.9771   -7.4044    0.0000 C   0  0  0  0  0  0  0  0  0  0  0  0
    7.4061   -9.0544    0.0000 C   0  0  0  0  0  0  0  0  0  0  0  0
    8.1205   -8.6419    0.0000 C   0  0  0  0  0  0  0  0  0  0  0  0
    8.1205   -7.8169    0.0000 C   0  0  0  0  0  0  0  0  0  0  0  0
    7.4061   -7.4044    0.0000 O   0  0  0  0  0  0  0  0  0  0  0  0
    8.8350   -7.4044    0.0000 C   0  0  0  0  0  0  0  0  0  0  0  0
    8.8350   -6.5794    0.0000 C   0  0  0  0  0  0  0  0  0  0  0  0
    9.5495   -7.8169    0.0000 C   0  0  0  0  0  0  0  0  0  0  0  0
   10.2640   -7.4044    0.0000 C   0  0  0  0  0  0  0  0  0  0  0  0
   10.2640   -6.5794    0.0000 C   0  0  0  0  0  0  0  0  0  0  0  0
    9.5495   -6.1669    0.0000 C   0  0  0  0  0  0  0  0  0  0  0  0
    7.4061   -9.8794    0.0000 O   0  0  0  0  0  0  0  0  0  0  0  0
    5.9771   -9.8794    0.0000 O   0  0  0  0  0  0  0  0  0  0  0  0
    4.5482   -7.4044    0.0000 O   0  0  0  0  0  0  0  0  0  0  0  0
    4.5482   -9.0544    0.0000 O   0  0  0  0  0  0  0  0  0  0  0  0
    5.2630   -5.3568    0.0000 C   0  0  2  0  0  0  0  0  0  0  0  0
    4.5513   -4.9396    0.0000 C   0  0  2  0  0  0  0  0  0  0  0  0
    3.8341   -5.3474    0.0000 C   0  0  1  0  0  0  0  0  0  0  0  0
    3.8287   -6.1724    0.0000 C   0  0  2  0  0  0  0  0  0  0  0  0
    4.5405   -6.5896    0.0000 C   0  0  1  0  0  0  0  0  0  0  0  0
    5.2576   -6.1818    0.0000 O   0  0  0  0  0  0  0  0  0  0  0  0
    5.9802   -4.9490    0.0000 C   0  0  0  0  0  0  0  0  0  0  0  0
    3.1224   -4.9303    0.0000 O   0  0  0  0  0  0  0  0  0  0  0  0
    3.1116   -6.5802    0.0000 O   0  0  0  0  0  0  0  0  0  0  0  0
    4.5567   -4.1146    0.0000 O   0  0  0  0  0  0  0  0  0  0  0  0
    5.9856   -4.1240    0.0000 O   0  0  0  0  0  0  0  0  0  0  0  0
    3.8337   -8.6419    0.0000 C   0  0  0  0  0  0  0  0  0  0  0  0
  1  2  2  0  0  0  0
  2  3  1  0  0  0  0
  3  4  2  0  0  0  0
  4  5  1  0  0  0  0
  5  6  2  0  0  0  0
  6  1  1  0  0  0  0
  4  7  1  0  0  0  0
  7  8  1  0  0  0  0
  8  9  2  0  0  0  0
  9 10  1  0  0  0  0
 10  5  1  0  0  0  0
  9 11  1  0  0  0  0
 11 12  1  0  0  0  0
 11 13  2  0  0  0  0
 13 14  1  0  0  0  0
 14 15  2  0  0  0  0
 15 16  1  0  0  0  0
 16 12  2  0  0  0  0
  7 17  2  0  0  0  0
  3 18  1  0  0  0  0
  1 19  1  0  0  0  0
  2 20  1  0  0  0  0
 21 22  1  0  0  0  0
 22 23  1  0  0  0  0
 23 24  1  0  0  0  0
 24 25  1  0  0  0  0
 25 26  1  0  0  0  0
 26 21  1  0  0  0  0
 21 27  1  1  0  0  0
 23 28  1  1  0  0  0
 24 29  1  6  0  0  0
 22 30  1  6  0  0  0
 27 31  1  0  0  0  0
 25 19  1  1  0  0  0
 20 32  1  0  0  0  0
M  END
>  <cdx:fragmentId>
112

$$$$
