140135.cdx
  Mrv1902 05222410272D          

 10  9  0  0  0  0            999 V2000
    5.7741   -7.1116    0.0000 C   0  0  0  0  0  0  0  0  0  0  0  0
    6.4886   -7.5241    0.0000 C   0  0  0  0  0  0  0  0  0  0  0  0
    7.2030   -7.1116    0.0000 C   0  0  0  0  0  0  0  0  0  0  0  0
    5.0596   -7.5241    0.0000 O   0  0  0  0  0  0  0  0  0  0  0  0
    7.9175   -7.5241    0.0000 O   0  0  0  0  0  0  0  0  0  0  0  0
    8.6320   -7.1116    0.0000 C   0  0  0  0  0  0  0  0  0  0  0  0
    9.3465   -7.5241    0.0000 C   0  0  0  0  0  0  0  0  0  0  0  0
    7.2030   -6.2866    0.0000 O   0  0  0  0  0  0  0  0  0  0  0  0
    6.4886   -5.8741    0.0000 C   0  0  0  0  0  0  0  0  0  0  0  0
    6.4886   -5.0491    0.0000 C   0  0  0  0  0  0  0  0  0  0  0  0
  1  2  1  0  0  0  0
  2  3  1  0  0  0  0
  1  4  1  0  0  0  0
  6  7  1  0  0  0  0
  5  6  1  0  0  0  0
  3  5  1  0  0  0  0
  9 10  1  0  0  0  0
  8  9  1  0  0  0  0
  3  8  1  0  0  0  0
M  END
>  <cdx:groupId>
1213

>  <cdx:fragmentId>
1187

$$$$
