140223.cdx
  Mrv1902 05222410232D          

  8  8  0  0  0  0            999 V2000
   15.8303  -12.8362    0.0000 C   0  0  0  0  0  0  0  0  0  0  0  0
   15.8303  -13.6612    0.0000 C   0  0  0  0  0  0  0  0  0  0  0  0
   15.1158  -14.0737    0.0000 C   0  0  0  0  0  0  0  0  0  0  0  0
   14.4013  -13.6612    0.0000 C   0  0  0  0  0  0  0  0  0  0  0  0
   14.4013  -12.8362    0.0000 C   0  0  0  0  0  0  0  0  0  0  0  0
   15.1158  -12.4237    0.0000 C   0  0  0  0  0  0  0  0  0  0  0  0
   16.5448  -14.0737    0.0000 C   0  0  0  0  0  0  0  0  0  0  0  0
   16.5448  -12.4237    0.0000 C   0  0  0  0  0  0  0  0  0  0  0  0
  1  2  2  0  0  0  0
  2  3  1  0  0  0  0
  3  4  1  0  0  0  0
  4  5  2  0  0  0  0
  5  6  1  0  0  0  0
  1  6  1  0  0  0  0
  2  7  1  0  0  0  0
  1  8  1  0  0  0  0
M  END
>  <cdx:groupId>
1274

>  <cdx:fragmentId>
1253

$$$$
