140213.cdx
  Mrv1902 05222410222D          

 10  9  0  0  0  0            999 V2000
   17.6122  -13.4624    0.0000 C   0  0  0  0  0  0  0  0  0  0  0  0
   16.8977  -13.8749    0.0000 C   0  0  0  0  0  0  0  0  0  0  0  0
   16.1832  -13.4624    0.0000 C   0  0  0  0  0  0  0  0  0  0  0  0
   15.4688  -13.8749    0.0000 C   0  0  0  0  0  0  0  0  0  0  0  0
   14.7543  -13.4624    0.0000 C   0  0  0  0  0  0  0  0  0  0  0  0
   14.0398  -13.8749    0.0000 C   0  0  0  0  0  0  0  0  0  0  0  0
   13.3253  -13.4624    0.0000 C   0  0  0  0  0  0  0  0  0  0  0  0
   16.1832  -14.2874    0.0000 C   0  0  0  0  0  0  0  0  0  0  0  0
   16.1832  -12.6374    0.0000 C   0  0  0  0  0  0  0  0  0  0  0  0
   16.8977  -12.2249    0.0000 C   0  0  0  0  0  0  0  0  0  0  0  0
  1  2  1  0  0  0  0
  2  3  1  0  0  0  0
  3  4  1  0  0  0  0
  4  5  1  0  0  0  0
  5  6  1  0  0  0  0
  6  7  1  0  0  0  0
  3  8  1  0  0  0  0
  9 10  1  0  0  0  0
  3  9  1  0  0  0  0
M  END
>  <cdx:groupId>
1246

>  <cdx:fragmentId>
1220

$$$$
