14050.cdx
  Mrv1902 05222410192D          

 24 26  0  0  0  0            999 V2000
    7.5213   -7.5109    0.0000 C   0  0  0  0  0  0  0  0  0  0  0  0
    7.5213   -6.6859    0.0000 C   0  0  0  0  0  0  0  0  0  0  0  0
    6.8069   -6.2734    0.0000 C   0  0  0  0  0  0  0  0  0  0  0  0
    6.0924   -6.6859    0.0000 C   0  0  0  0  0  0  0  0  0  0  0  0
    6.0924   -7.5109    0.0000 C   0  0  0  0  0  0  0  0  0  0  0  0
    6.8069   -7.9234    0.0000 C   0  0  0  0  0  0  0  0  0  0  0  0
    5.3779   -6.2734    0.0000 O   0  0  0  0  0  0  0  0  0  0  0  0
    4.6635   -6.6859    0.0000 C   0  0  0  0  0  0  0  0  0  0  0  0
    4.6635   -7.5109    0.0000 C   0  0  0  0  0  0  0  0  0  0  0  0
    5.3779   -7.9234    0.0000 C   0  0  0  0  0  0  0  0  0  0  0  0
    3.9490   -6.2734    0.0000 O   0  0  0  0  0  0  0  0  0  0  0  0
    6.8069   -8.7484    0.0000 O   0  0  0  0  0  0  0  0  0  0  0  0
    7.5213   -9.1609    0.0000 C   0  0  0  0  0  0  0  0  0  0  0  0
    7.5213   -9.9859    0.0000 C   0  0  1  0  0  0  0  0  0  0  0  0
    6.8069  -10.3984    0.0000 O   0  0  0  0  0  0  0  0  0  0  0  0
    8.2358  -10.3984    0.0000 C   0  0  0  0  0  0  0  0  0  0  0  0
    8.9503   -9.9859    0.0000 C   0  0  0  0  0  0  0  0  0  0  0  0
    8.2358  -11.2234    0.0000 C   0  0  0  0  0  0  0  0  0  0  0  0
    8.9503  -10.8109    0.0000 O   0  0  0  0  0  0  0  0  0  0  0  0
    8.3060   -7.7659    0.0000 C   0  0  0  0  0  0  0  0  0  0  0  0
    8.7909   -7.0984    0.0000 C   0  0  0  0  0  0  0  0  0  0  0  0
    8.3060   -6.4310    0.0000 O   0  0  0  0  0  0  0  0  0  0  0  0
    8.9503  -11.6359    0.0000 C   0  0  0  0  0  0  0  0  0  0  0  0
    9.6648  -12.0484    0.0000 C   0  0  0  0  0  0  0  0  0  0  0  0
  1  2  2  0  0  0  0
  2  3  1  0  0  0  0
  3  4  2  0  0  0  0
  4  5  1  0  0  0  0
  5  6  2  0  0  0  0
  6  1  1  0  0  0  0
  4  7  1  0  0  0  0
  7  8  1  0  0  0  0
  8  9  1  0  0  0  0
  9 10  2  0  0  0  0
 10  5  1  0  0  0  0
  8 11  2  0  0  0  0
  6 12  1  0  0  0  0
 12 13  1  0  0  0  0
 14 13  1  6  0  0  0
 14 15  1  0  0  0  0
 14 16  1  0  0  0  0
 16 17  1  0  0  0  0
 16 18  1  0  0  0  0
 16 19  1  0  0  0  0
  1 20  1  0  0  0  0
 20 21  2  0  0  0  0
 21 22  1  0  0  0  0
 22  2  1  0  0  0  0
 19 23  1  0  0  0  0
 23 24  1  0  0  0  0
M  END
>  <cdx:fragmentId>
5

$$$$
