14054.cdx
  Mrv1902 05222410192D          

 23 24  0  0  0  0            999 V2000
    2.2927   -8.4150    0.0000 C   0  0  0  0  0  0  0  0  0  0  0  0
    2.2927   -9.2400    0.0000 C   0  0  0  0  0  0  0  0  0  0  0  0
    3.0071   -9.6525    0.0000 C   0  0  0  0  0  0  0  0  0  0  0  0
    3.7216   -9.2400    0.0000 C   0  0  0  0  0  0  0  0  0  0  0  0
    3.7216   -8.4150    0.0000 C   0  0  0  0  0  0  0  0  0  0  0  0
    3.0071   -8.0025    0.0000 C   0  0  0  0  0  0  0  0  0  0  0  0
    4.4435   -8.0025    0.0000 C   0  0  0  0  0  0  0  0  0  0  0  0
    5.1579   -8.4150    0.0000 C   0  0  0  0  0  0  0  0  0  0  0  0
    5.8724   -8.0025    0.0000 C   0  0  0  0  0  0  0  0  0  0  0  0
    6.5869   -8.4150    0.0000 C   0  0  0  0  0  0  0  0  0  0  0  0
    7.3014   -8.0025    0.0000 C   0  0  0  0  0  0  0  0  0  0  0  0
    8.0158   -8.4150    0.0000 C   0  0  0  0  0  0  0  0  0  0  0  0
    8.7303   -8.0025    0.0000 C   0  0  0  0  0  0  0  0  0  0  0  0
    9.4448   -8.4150    0.0000 C   0  0  0  0  0  0  0  0  0  0  0  0
    9.4448   -9.2400    0.0000 C   0  0  0  0  0  0  0  0  0  0  0  0
   10.1592   -9.6525    0.0000 C   0  0  0  0  0  0  0  0  0  0  0  0
   10.8737   -9.2400    0.0000 C   0  0  0  0  0  0  0  0  0  0  0  0
   10.8737   -8.4150    0.0000 C   0  0  0  0  0  0  0  0  0  0  0  0
   10.1592   -8.0025    0.0000 C   0  0  0  0  0  0  0  0  0  0  0  0
    1.5782   -9.6525    0.0000 O   0  0  0  0  0  0  0  0  0  0  0  0
    1.5782   -8.0025    0.0000 O   0  0  0  0  0  0  0  0  0  0  0  0
    1.5782   -7.1775    0.0000 C   0  0  0  0  0  0  0  0  0  0  0  0
    5.8724   -7.1775    0.0000 O   0  0  0  0  0  0  0  0  0  0  0  0
  1  2  2  0  0  0  0
  2  3  1  0  0  0  0
  3  4  2  0  0  0  0
  4  5  1  0  0  0  0
  5  6  2  0  0  0  0
  6  1  1  0  0  0  0
  7  8  1  0  0  0  0
  8  9  1  0  0  0  0
  9 10  1  0  0  0  0
 10 11  1  0  0  0  0
 11 12  1  0  0  0  0
 12 13  1  0  0  0  0
 13 14  1  0  0  0  0
  7  5  1  0  0  0  0
 14 15  2  0  0  0  0
 15 16  1  0  0  0  0
 16 17  2  0  0  0  0
 17 18  1  0  0  0  0
 18 19  2  0  0  0  0
 19 14  1  0  0  0  0
  2 20  1  0  0  0  0
  1 21  1  0  0  0  0
 21 22  1  0  0  0  0
  9 23  1  0  0  0  0
M  END
>  <cdx:fragmentId>
21

$$$$
