14067.cdx
  Mrv1902 05222410282D          

 23 26  0  0  0  0            999 V2000
    4.1077   -8.4150    0.0000 C   0  0  0  0  0  0  0  0  0  0  0  0
    4.1077   -9.2400    0.0000 C   0  0  0  0  0  0  0  0  0  0  0  0
    4.8221   -9.6525    0.0000 C   0  0  0  0  0  0  0  0  0  0  0  0
    5.5366   -9.2400    0.0000 N   0  0  0  0  0  0  0  0  0  0  0  0
    5.5366   -8.4150    0.0000 C   0  0  2  0  0  0  0  0  0  0  0  0
    4.8221   -8.0025    0.0000 C   0  0  0  0  0  0  0  0  0  0  0  0
    6.2511   -9.6525    0.0000 C   0  0  0  0  0  0  0  0  0  0  0  0
    6.9655   -9.2400    0.0000 C   0  0  1  0  0  0  0  0  0  0  0  0
    6.9655   -8.4150    0.0000 C   0  0  1  0  0  0  0  0  0  0  0  0
    6.2511   -8.0025    0.0000 C   0  0  2  0  0  0  0  0  0  0  0  0
    7.6800   -9.6525    0.0000 C   0  0  0  0  0  0  0  0  0  0  0  0
    8.3945   -9.2400    0.0000 C   0  0  0  0  0  0  0  0  0  0  0  0
    8.3945   -8.4150    0.0000 C   0  0  0  0  0  0  0  0  0  0  0  0
    7.6800   -8.0025    0.0000 N   0  3  1  0  0  0  0  0  0  0  0  0
    7.6800   -7.1775    0.0000 C   0  0  0  0  0  0  0  0  0  0  0  0
    6.9655   -6.7650    0.0000 C   0  0  0  0  0  0  0  0  0  0  0  0
    6.2511   -7.1775    0.0000 C   0  0  0  0  0  0  0  0  0  0  0  0
    4.8221  -10.4775    0.0000 O   0  0  0  0  0  0  0  0  0  0  0  0
    6.2511   -8.8275    0.0000 H   0  0  0  0  0  0  0  0  0  0  0  0
    8.3945   -7.5900    0.0000 O   0  5  0  0  0  0  0  0  0  0  0  0
    5.5366   -7.5900    0.0000 H   0  0  0  0  0  0  0  0  0  0  0  0
    6.9655   -7.5900    0.0000 H   0  0  0  0  0  0  0  0  0  0  0  0
    6.9655  -10.0650    0.0000 H   0  0  0  0  0  0  0  0  0  0  0  0
  1  2  2  0  0  0  0
  2  3  1  0  0  0  0
  3  4  1  0  0  0  0
  4  5  1  0  0  0  0
  5  6  1  0  0  0  0
  6  1  1  0  0  0  0
  4  7  1  0  0  0  0
  7  8  1  0  0  0  0
  8  9  1  0  0  0  0
  9 10  1  0  0  0  0
 10  5  1  0  0  0  0
  8 11  1  0  0  0  0
 11 12  1  0  0  0  0
 12 13  1  0  0  0  0
 13 14  1  0  0  0  0
 14  9  1  0  0  0  0
 14 15  1  0  0  0  0
 15 16  1  0  0  0  0
 16 17  1  0  0  0  0
 17 10  1  0  0  0  0
  3 18  2  0  0  0  0
  5 19  1  1  0  0  0
 14 20  1  1  0  0  0
 10 21  1  6  0  0  0
  9 22  1  6  0  0  0
  8 23  1  6  0  0  0
M  CHG  2  14   1  20  -1
M  END
>  <cdx:fragmentId>
5

$$$$
