140765.cdx
  Mrv1902 05222410212D          

  6  6  0  0  0  0            999 V2000
   14.9748  -12.7376    0.0000 O   0  0  0  0  0  0  0  0  0  0  0  0
   15.6423  -13.2225    0.0000 C   0  0  0  0  0  0  0  0  0  0  0  0
   15.3873  -14.0071    0.0000 C   0  0  0  0  0  0  0  0  0  0  0  0
   14.5623  -14.0071    0.0000 C   0  0  0  0  0  0  0  0  0  0  0  0
   14.3074  -13.2225    0.0000 C   0  0  0  0  0  0  0  0  0  0  0  0
   16.4269  -12.9676    0.0000 O   0  0  0  0  0  0  0  0  0  0  0  0
  1  2  1  0  0  0  0
  2  3  1  0  0  0  0
  3  4  1  0  0  0  0
  4  5  2  0  0  0  0
  1  5  1  0  0  0  0
  2  6  2  0  0  0  0
M  END
>  <cdx:groupId>
1296

>  <cdx:fragmentId>
1281

$$$$
