14079.cdx
  Mrv1902 05222410192D          

  8  8  0  0  0  0            999 V2000
    3.8506   -2.0545    0.0000 C   0  0  0  0  0  0  0  0  0  0  0  0
    4.5651   -2.4670    0.0000 C   0  0  0  0  0  0  0  0  0  0  0  0
    3.0499   -3.2875    0.0000 N   0  0  0  0  0  0  0  0  0  0  0  0
    3.1361   -2.4670    0.0000 C   0  0  0  0  0  0  0  0  0  0  0  0
    2.3825   -2.1315    0.0000 C   0  0  0  0  0  0  0  0  0  0  0  0
    1.8304   -2.7446    0.0000 C   0  0  0  0  0  0  0  0  0  0  0  0
    2.2429   -3.4590    0.0000 C   0  0  0  0  0  0  0  0  0  0  0  0
    3.8506   -1.2295    0.0000 O   0  0  0  0  0  0  0  0  0  0  0  0
  1  2  1  0  0  0  0
  3  4  1  0  0  0  0
  4  5  2  0  0  0  0
  5  6  1  0  0  0  0
  6  7  2  0  0  0  0
  3  7  1  0  0  0  0
  1  4  1  0  0  0  0
  1  8  2  0  0  0  0
M  END
>  <cdx:groupId>
26

>  <cdx:fragmentId>
9

$$$$
