14095.cdx
  Mrv1902 05222410182D          

 10 10  0  0  0  0            999 V2000
    3.4138   -3.7744    0.0000 C   0  0  0  0  0  0  0  0  0  0  0  0
    4.1283   -3.3619    0.0000 C   0  0  0  0  0  0  0  0  0  0  0  0
    4.8427   -3.7744    0.0000 C   0  0  0  0  0  0  0  0  0  0  0  0
    4.8427   -4.5994    0.0000 C   0  0  0  0  0  0  0  0  0  0  0  0
    4.1283   -5.0119    0.0000 C   0  0  0  0  0  0  0  0  0  0  0  0
    3.4138   -4.5994    0.0000 C   0  0  0  0  0  0  0  0  0  0  0  0
    5.5572   -5.0119    0.0000 C   0  0  0  0  0  0  0  0  0  0  0  0
    6.2717   -4.5994    0.0000 C   0  0  0  0  0  0  0  0  0  0  0  0
    6.9862   -5.0119    0.0000 C   0  0  0  0  0  0  0  0  0  0  0  0
    2.6993   -3.3619    0.0000 C   0  0  0  0  0  0  0  0  0  0  0  0
  1  2  1  0  0  0  0
  2  3  2  0  0  0  0
  3  4  1  0  0  0  0
  4  5  2  0  0  0  0
  5  6  1  0  0  0  0
  1  6  2  0  0  0  0
  7  8  1  0  0  0  0
  8  9  1  0  0  0  0
  4  7  1  0  0  0  0
  1 10  1  0  0  0  0
M  END
>  <cdx:groupId>
32

>  <cdx:fragmentId>
5

$$$$
