14091.cdx
  Mrv1902 05222410202D          

 10 10  0  0  0  0            999 V2000
    3.8083   -2.8050    0.0000 C   0  0  0  0  0  0  0  0  0  0  0  0
    3.8083   -3.6300    0.0000 C   0  0  0  0  0  0  0  0  0  0  0  0
    3.0939   -4.0425    0.0000 C   0  0  0  0  0  0  0  0  0  0  0  0
    2.3794   -3.6300    0.0000 C   0  0  0  0  0  0  0  0  0  0  0  0
    2.3794   -2.8050    0.0000 C   0  0  0  0  0  0  0  0  0  0  0  0
    3.0939   -2.3925    0.0000 C   0  0  0  0  0  0  0  0  0  0  0  0
    4.5228   -4.0425    0.0000 C   0  0  0  0  0  0  0  0  0  0  0  0
    5.2373   -3.6300    0.0000 C   0  0  0  0  0  0  0  0  0  0  0  0
    5.9517   -4.0425    0.0000 C   0  0  0  0  0  0  0  0  0  0  0  0
    4.5228   -2.3925    0.0000 C   0  0  0  0  0  0  0  0  0  0  0  0
  1  2  1  0  0  0  0
  2  3  2  0  0  0  0
  3  4  1  0  0  0  0
  4  5  2  0  0  0  0
  5  6  1  0  0  0  0
  1  6  2  0  0  0  0
  7  8  1  0  0  0  0
  8  9  1  0  0  0  0
  2  7  1  0  0  0  0
  1 10  1  0  0  0  0
M  END
>  <cdx:groupId>
32

>  <cdx:fragmentId>
5

$$$$
