14101.cdx
  Mrv1902 05222410272D          

 30 30  0  0  0  0            999 V2000
    1.8183   -5.9400    0.0000 C   0  0  0  0  0  0  0  0  0  0  0  0
    1.8183   -6.7650    0.0000 C   0  0  0  0  0  0  0  0  0  0  0  0
    2.5327   -7.1775    0.0000 C   0  0  0  0  0  0  0  0  0  0  0  0
    3.2472   -6.7650    0.0000 C   0  0  0  0  0  0  0  0  0  0  0  0
    3.2472   -5.9400    0.0000 C   0  0  0  0  0  0  0  0  0  0  0  0
    2.5327   -5.5275    0.0000 C   0  0  0  0  0  0  0  0  0  0  0  0
    1.1038   -7.1775    0.0000 O   0  0  0  0  0  0  0  0  0  0  0  0
    2.5327   -8.0025    0.0000 O   0  0  0  0  0  0  0  0  0  0  0  0
    3.9617   -5.5275    0.0000 C   0  0  0  0  0  0  0  0  0  0  0  0
    4.6762   -5.9400    0.0000 C   0  0  0  0  0  0  0  0  0  0  0  0
    5.3906   -5.5275    0.0000 C   0  0  0  0  0  0  0  0  0  0  0  0
    6.1051   -5.9400    0.0000 O   0  0  0  0  0  0  0  0  0  0  0  0
    6.8196   -5.5275    0.0000 C   0  0  0  0  0  0  0  0  0  0  0  0
    6.8196   -4.7025    0.0000 O   0  0  0  0  0  0  0  0  0  0  0  0
    7.5340   -5.9400    0.0000 C   0  0  0  0  0  0  0  0  0  0  0  0
    8.2485   -5.5275    0.0000 C   0  0  0  0  0  0  0  0  0  0  0  0
    3.2472   -8.4150    0.0000 C   0  0  0  0  0  0  0  0  0  0  0  0
    8.9630   -5.9400    0.0000 C   0  0  0  0  0  0  0  0  0  0  0  0
    9.6775   -5.5275    0.0000 C   0  0  0  0  0  0  0  0  0  0  0  0
   10.3919   -5.9400    0.0000 C   0  0  0  0  0  0  0  0  0  0  0  0
   11.1064   -5.5275    0.0000 C   0  0  0  0  0  0  0  0  0  0  0  0
   11.8209   -5.9400    0.0000 C   0  0  0  0  0  0  0  0  0  0  0  0
   12.5353   -5.5275    0.0000 C   0  0  0  0  0  0  0  0  0  0  0  0
   13.2498   -5.9400    0.0000 C   0  0  0  0  0  0  0  0  0  0  0  0
   13.9643   -5.5275    0.0000 C   0  0  0  0  0  0  0  0  0  0  0  0
   14.6788   -5.9400    0.0000 C   0  0  0  0  0  0  0  0  0  0  0  0
   15.3932   -5.5275    0.0000 C   0  0  0  0  0  0  0  0  0  0  0  0
   16.1077   -5.9400    0.0000 C   0  0  0  0  0  0  0  0  0  0  0  0
   16.8222   -5.5275    0.0000 C   0  0  0  0  0  0  0  0  0  0  0  0
   17.5366   -5.9400    0.0000 C   0  0  0  0  0  0  0  0  0  0  0  0
  1  2  2  0  0  0  0
  2  3  1  0  0  0  0
  3  4  2  0  0  0  0
  4  5  1  0  0  0  0
  5  6  2  0  0  0  0
  6  1  1  0  0  0  0
  2  7  1  0  0  0  0
  3  8  1  0  0  0  0
  5  9  1  0  0  0  0
  9 10  2  0  0  0  0
 10 11  1  0  0  0  0
 11 12  1  0  0  0  0
 12 13  1  0  0  0  0
 13 14  2  0  0  0  0
 13 15  1  0  0  0  0
 15 16  1  0  0  0  0
  8 17  1  0  0  0  0
 16 18  1  0  0  0  0
 18 19  1  0  0  0  0
 19 20  1  0  0  0  0
 20 21  1  0  0  0  0
 21 22  1  0  0  0  0
 22 23  1  0  0  0  0
 23 24  1  0  0  0  0
 24 25  1  0  0  0  0
 25 26  1  0  0  0  0
 26 27  1  0  0  0  0
 27 28  1  0  0  0  0
 28 29  1  0  0  0  0
 29 30  1  0  0  0  0
M  END
>  <cdx:fragmentId>
5

$$$$
