14104.cdx
  Mrv1902 05222410272D          

 12 12  0  0  0  0            999 V2000
    6.6030   -3.4238    0.0000 C   0  0  0  0  0  0  0  0  0  0  0  0
    6.6030   -4.2488    0.0000 C   0  0  0  0  0  0  0  0  0  0  0  0
    7.3175   -4.6612    0.0000 C   0  0  0  0  0  0  0  0  0  0  0  0
    8.0320   -4.2488    0.0000 C   0  0  0  0  0  0  0  0  0  0  0  0
    8.0320   -3.4238    0.0000 C   0  0  0  0  0  0  0  0  0  0  0  0
    7.3175   -3.0112    0.0000 C   0  0  0  0  0  0  0  0  0  0  0  0
    5.8885   -2.1863    0.0000 C   0  0  0  0  0  0  0  0  0  0  0  0
    5.8885   -3.0112    0.0000 C   0  0  0  0  0  0  0  0  0  0  0  0
    5.1741   -3.4238    0.0000 C   0  0  0  0  0  0  0  0  0  0  0  0
    8.7464   -4.6612    0.0000 C   0  0  0  0  0  0  0  0  0  0  0  0
    5.8885   -4.6612    0.0000 O   0  0  0  0  0  0  0  0  0  0  0  0
    5.1741   -4.2488    0.0000 C   0  0  0  0  0  0  0  0  0  0  0  0
  1  2  1  0  0  0  0
  2  3  2  0  0  0  0
  3  4  1  0  0  0  0
  4  5  2  0  0  0  0
  5  6  1  0  0  0  0
  1  6  2  0  0  0  0
  7  8  1  0  0  0  0
  8  9  1  0  0  0  0
  1  8  1  0  0  0  0
  4 10  1  0  0  0  0
 11 12  1  0  0  0  0
  2 11  1  0  0  0  0
M  END
>  <cdx:fragmentId>
5

$$$$
