14118.cdx
  Mrv1902 05222410192D          

 22 24  0  0  0  0            999 V2000
    6.9952   -6.7031    0.0000 C   0  0  0  0  0  0  0  0  0  0  0  0
    6.9952   -7.5281    0.0000 C   0  0  0  0  0  0  0  0  0  0  0  0
    7.7096   -7.9406    0.0000 C   0  0  0  0  0  0  0  0  0  0  0  0
    8.4241   -7.5281    0.0000 C   0  0  0  0  0  0  0  0  0  0  0  0
    8.4241   -6.7031    0.0000 C   0  0  0  0  0  0  0  0  0  0  0  0
    7.7096   -6.2906    0.0000 C   0  0  0  0  0  0  0  0  0  0  0  0
    6.2105   -6.4482    0.0000 O   0  0  0  0  0  0  0  0  0  0  0  0
    5.7256   -7.1156    0.0000 C   0  0  0  0  0  0  0  0  0  0  0  0
    6.2105   -7.7831    0.0000 C   0  0  0  0  0  0  0  0  0  0  0  0
    4.9006   -7.1156    0.0000 C   0  0  0  0  0  0  0  0  0  0  0  0
    4.4881   -6.4012    0.0000 C   0  0  0  0  0  0  0  0  0  0  0  0
    3.6631   -6.4012    0.0000 C   0  0  0  0  0  0  0  0  0  0  0  0
    3.2506   -7.1156    0.0000 C   0  0  0  0  0  0  0  0  0  0  0  0
    3.6631   -7.8301    0.0000 C   0  0  0  0  0  0  0  0  0  0  0  0
    4.4881   -7.8301    0.0000 C   0  0  0  0  0  0  0  0  0  0  0  0
    9.1386   -7.9406    0.0000 C   0  0  0  0  0  0  0  0  0  0  0  0
    9.8530   -7.5281    0.0000 C   0  0  0  0  0  0  0  0  0  0  0  0
   10.5675   -7.9406    0.0000 C   0  0  0  0  0  0  0  0  0  0  0  0
    5.9970   -8.5800    0.0000 C   0  0  0  0  0  0  0  0  0  0  0  0
    2.4256   -7.1156    0.0000 O   0  0  0  0  0  0  0  0  0  0  0  0
    3.2506   -8.5446    0.0000 O   0  0  0  0  0  0  0  0  0  0  0  0
    3.6631   -9.2590    0.0000 C   0  0  0  0  0  0  0  0  0  0  0  0
  1  2  2  0  0  0  0
  2  3  1  0  0  0  0
  3  4  2  0  0  0  0
  4  5  1  0  0  0  0
  5  6  2  0  0  0  0
  6  1  1  0  0  0  0
  1  7  1  0  0  0  0
  7  8  1  0  0  0  0
  8  9  1  0  0  0  0
  9  2  1  0  0  0  0
  8 10  1  0  0  0  0
 10 11  2  0  0  0  0
 11 12  1  0  0  0  0
 12 13  2  0  0  0  0
 13 14  1  0  0  0  0
 14 15  2  0  0  0  0
 15 10  1  0  0  0  0
  4 16  1  0  0  0  0
 16 17  2  0  0  0  0
 17 18  1  0  0  0  0
  9 19  1  0  0  0  0
 13 20  1  0  0  0  0
 14 21  1  0  0  0  0
 21 22  1  0  0  0  0
M  END
>  <cdx:fragmentId>
5

$$$$
