141135.cdx
  Mrv1902 05222410212D          

 28 27  0  0  0  0            999 V2000
    1.9044   -9.6921    0.0000 C   0  0  0  0  0  0  0  0  0  0  0  0
    2.6188   -9.2796    0.0000 C   0  0  0  0  0  0  0  0  0  0  0  0
    3.3333   -9.6921    0.0000 O   0  0  0  0  0  0  0  0  0  0  0  0
    4.0478   -8.4546    0.0000 O   0  0  0  0  0  0  0  0  0  0  0  0
   20.4806   -9.6921    0.0000 C   0  0  0  0  0  0  0  0  0  0  0  0
   19.7662   -9.2796    0.0000 C   0  0  0  0  0  0  0  0  0  0  0  0
   19.0517   -9.6921    0.0000 C   0  0  0  0  0  0  0  0  0  0  0  0
   18.3372   -9.2796    0.0000 C   0  0  0  0  0  0  0  0  0  0  0  0
   17.6227   -9.6921    0.0000 C   0  0  0  0  0  0  0  0  0  0  0  0
   16.9083   -9.2796    0.0000 C   0  0  0  0  0  0  0  0  0  0  0  0
   16.1938   -9.6921    0.0000 C   0  0  0  0  0  0  0  0  0  0  0  0
   15.4793   -9.2796    0.0000 C   0  0  0  0  0  0  0  0  0  0  0  0
   14.7649   -9.6921    0.0000 C   0  0  0  0  0  0  0  0  0  0  0  0
   14.0504   -9.2796    0.0000 C   0  0  0  0  0  0  0  0  0  0  0  0
   13.3359   -9.6921    0.0000 C   0  0  0  0  0  0  0  0  0  0  0  0
   12.6214   -9.2796    0.0000 C   0  0  0  0  0  0  0  0  0  0  0  0
   11.9070   -9.6921    0.0000 C   0  0  0  0  0  0  0  0  0  0  0  0
   11.1925   -9.2796    0.0000 C   0  0  0  0  0  0  0  0  0  0  0  0
   10.4780   -9.6921    0.0000 C   0  0  0  0  0  0  0  0  0  0  0  0
    9.7636   -9.2796    0.0000 C   0  0  0  0  0  0  0  0  0  0  0  0
    9.0491   -9.6921    0.0000 C   0  0  0  0  0  0  0  0  0  0  0  0
    8.3346   -9.2796    0.0000 C   0  0  0  0  0  0  0  0  0  0  0  0
    7.6201   -9.6921    0.0000 C   0  0  0  0  0  0  0  0  0  0  0  0
    6.9057   -9.2796    0.0000 C   0  0  0  0  0  0  0  0  0  0  0  0
    6.1912   -9.6921    0.0000 C   0  0  0  0  0  0  0  0  0  0  0  0
    5.4767   -9.2796    0.0000 C   0  0  0  0  0  0  0  0  0  0  0  0
    4.7623   -9.6921    0.0000 C   0  0  0  0  0  0  0  0  0  0  0  0
    4.0478   -9.2796    0.0000 C   0  0  0  0  0  0  0  0  0  0  0  0
  3  2  1  0  0  0  0
  2  1  1  0  0  0  0
 28  3  1  0  0  0  0
 28  4  2  0  0  0  0
  6  5  1  0  0  0  0
  7  6  1  0  0  0  0
  8  7  1  0  0  0  0
  9  8  1  0  0  0  0
 10  9  1  0  0  0  0
 11 10  1  0  0  0  0
 12 11  1  0  0  0  0
 13 12  1  0  0  0  0
 14 13  1  0  0  0  0
 15 14  1  0  0  0  0
 16 15  1  0  0  0  0
 17 16  1  0  0  0  0
 18 17  1  0  0  0  0
 19 18  1  0  0  0  0
 20 19  1  0  0  0  0
 21 20  1  0  0  0  0
 22 21  1  0  0  0  0
 23 22  1  0  0  0  0
 24 23  1  0  0  0  0
 25 24  1  0  0  0  0
 26 25  1  0  0  0  0
 27 26  1  0  0  0  0
 28 27  1  0  0  0  0
M  END
>  <cdx:groupId>
1408

>  <cdx:fragmentId>
1328

$$$$
