14159.cdx
  Mrv1902 05222410252D          

 69 75  0  0  0  0            999 V2000
    1.8087   -5.3006    0.0000 C   0  0  0  0  0  0  0  0  0  0  0  0
    1.8087   -6.0431    0.0000 C   0  0  0  0  0  0  0  0  0  0  0  0
    2.4516   -6.4144    0.0000 C   0  0  0  0  0  0  0  0  0  0  0  0
    3.0948   -6.0431    0.0000 C   0  0  0  0  0  0  0  0  0  0  0  0
    3.0948   -5.3006    0.0000 C   0  0  0  0  0  0  0  0  0  0  0  0
    2.4516   -4.9294    0.0000 C   0  0  0  0  0  0  0  0  0  0  0  0
    3.7378   -6.4144    0.0000 C   0  0  0  0  0  0  0  0  0  0  0  0
    4.3807   -6.0431    0.0000 C   0  0  0  0  0  0  0  0  0  0  0  0
    4.3807   -5.3006    0.0000 C   0  0  0  0  0  0  0  0  0  0  0  0
    3.7378   -4.9294    0.0000 O   0  0  0  0  0  0  0  0  0  0  0  0
    5.6669   -5.3006    0.0000 C   0  0  0  0  0  0  0  0  0  0  0  0
    5.0237   -4.9294    0.0000 C   0  0  0  0  0  0  0  0  0  0  0  0
    6.3099   -4.9294    0.0000 C   0  0  0  0  0  0  0  0  0  0  0  0
    6.3099   -4.1869    0.0000 C   0  0  0  0  0  0  0  0  0  0  0  0
    5.6669   -3.8156    0.0000 C   0  0  0  0  0  0  0  0  0  0  0  0
    5.0237   -4.1869    0.0000 C   0  0  0  0  0  0  0  0  0  0  0  0
    1.1657   -4.9294    0.0000 O   0  0  0  0  0  0  0  0  0  0  0  0
    1.1657   -6.4144    0.0000 O   0  0  0  0  0  0  0  0  0  0  0  0
    0.4513   -6.8269    0.0000 C   0  0  0  0  0  0  0  0  0  0  0  0
    2.4516   -7.1569    0.0000 O   0  0  0  0  0  0  0  0  0  0  0  0
    3.7378   -7.1569    0.0000 O   0  0  0  0  0  0  0  0  0  0  0  0
    6.9528   -3.8156    0.0000 O   0  0  0  0  0  0  0  0  0  0  0  0
    5.6669   -3.0731    0.0000 O   0  0  0  0  0  0  0  0  0  0  0  0
    6.0049   -6.1196    0.0000 O   0  0  0  0  0  0  0  0  0  0  0  0
    5.6609   -6.7774    0.0000 C   0  0  0  0  0  0  0  0  0  0  0  0
    6.3657   -6.5439    0.0000 C   0  0  0  0  0  0  0  0  0  0  0  0
    7.0917   -6.7177    0.0000 C   0  0  0  0  0  0  0  0  0  0  0  0
    7.4360   -6.0599    0.0000 C   0  0  0  0  0  0  0  0  0  0  0  0
    6.7312   -6.2934    0.0000 C   0  0  0  0  0  0  0  0  0  0  0  0
    7.7525   -6.2326    0.0000 O   0  0  0  0  0  0  0  0  0  0  0  0
    7.0111   -5.8798    0.0000 C   0  0  0  0  0  0  0  0  0  0  0  0
    7.0507   -5.4725    0.0000 O   0  0  0  0  0  0  0  0  0  0  0  0
    6.1025   -6.9198    0.0000 O   0  0  0  0  0  0  0  0  0  0  0  0
    7.1065   -7.0702    0.0000 O   0  0  0  0  0  0  0  0  0  0  0  0
    5.0237   -6.4144    0.0000 O   0  0  0  0  0  0  0  0  0  0  0  0
    9.9627   -7.3067    0.0000 C   0  0  0  0  0  0  0  0  0  0  0  0
    9.2202   -7.3067    0.0000 C   0  0  0  0  0  0  0  0  0  0  0  0
    8.8489   -7.9497    0.0000 C   0  0  0  0  0  0  0  0  0  0  0  0
    9.2202   -8.5926    0.0000 C   0  0  0  0  0  0  0  0  0  0  0  0
    9.9627   -8.5926    0.0000 C   0  0  0  0  0  0  0  0  0  0  0  0
   10.3339   -7.9497    0.0000 C   0  0  0  0  0  0  0  0  0  0  0  0
   10.3339   -9.2359    0.0000 O   0  0  0  0  0  0  0  0  0  0  0  0
    8.8489   -9.2359    0.0000 O   0  0  0  0  0  0  0  0  0  0  0  0
    8.8489   -6.6638    0.0000 C   0  0  0  0  0  0  0  0  0  0  0  0
    9.2202   -6.0206    0.0000 C   0  0  0  0  0  0  0  0  0  0  0  0
    8.8489   -5.3776    0.0000 C   0  0  0  0  0  0  0  0  0  0  0  0
    8.1064   -5.3776    0.0000 O   0  0  0  0  0  0  0  0  0  0  0  0
    9.2163   -3.8283    0.0000 O   0  0  0  0  0  0  0  0  0  0  0  0
    8.8451   -4.4712    0.0000 C   0  0  0  0  0  0  0  0  0  0  0  0
    9.5590   -4.2672    0.0000 C   0  0  0  0  0  0  0  0  0  0  0  0
   10.2773   -4.4712    0.0000 C   0  0  0  0  0  0  0  0  0  0  0  0
   10.6485   -3.8283    0.0000 C   0  0  0  0  0  0  0  0  0  0  0  0
    9.9346   -4.0323    0.0000 C   0  0  0  0  0  0  0  0  0  0  0  0
   10.9574   -4.0139    0.0000 O   0  0  0  0  0  0  0  0  0  0  0  0
   10.2316   -3.6305    0.0000 C   0  0  0  0  0  0  0  0  0  0  0  0
   10.2129   -3.2406    0.0000 O   0  0  0  0  0  0  0  0  0  0  0  0
    9.2804   -4.6318    0.0000 O   0  0  0  0  0  0  0  0  0  0  0  0
   10.2773   -4.8240    0.0000 O   0  0  0  0  0  0  0  0  0  0  0  0
   11.6396   -5.0347    0.0000 O   0  0  0  0  0  0  0  0  0  0  0  0
   11.2684   -5.6779    0.0000 C   0  0  0  0  0  0  0  0  0  0  0  0
   11.9823   -5.4739    0.0000 C   0  0  0  0  0  0  0  0  0  0  0  0
   12.7006   -5.6779    0.0000 C   0  0  0  0  0  0  0  0  0  0  0  0
   13.0721   -5.0347    0.0000 C   0  0  0  0  0  0  0  0  0  0  0  0
   12.3579   -5.2387    0.0000 C   0  0  0  0  0  0  0  0  0  0  0  0
   13.3809   -5.2203    0.0000 O   0  0  0  0  0  0  0  0  0  0  0  0
   12.6549   -4.8370    0.0000 C   0  0  0  0  0  0  0  0  0  0  0  0
   12.6365   -4.4473    0.0000 O   0  0  0  0  0  0  0  0  0  0  0  0
   11.7040   -5.8382    0.0000 O   0  0  0  0  0  0  0  0  0  0  0  0
   12.7006   -6.0305    0.0000 O   0  0  0  0  0  0  0  0  0  0  0  0
  1  2  2  0  0  0  0
  2  3  1  0  0  0  0
  3  4  2  0  0  0  0
  4  5  1  0  0  0  0
  5  6  2  0  0  0  0
  6  1  1  0  0  0  0
  4  7  1  0  0  0  0
  7  8  1  0  0  0  0
  8  9  2  0  0  0  0
  9 10  1  0  0  0  0
 10  5  1  0  0  0  0
 11 12  2  0  0  0  0
 12  9  1  0  0  0  0
 11 13  1  0  0  0  0
 13 14  2  0  0  0  0
 14 15  1  0  0  0  0
 15 16  2  0  0  0  0
 16 12  1  0  0  0  0
  1 17  1  0  0  0  0
  2 18  1  0  0  0  0
  3 20  1  0  0  0  0
  7 21  2  0  0  0  0
 14 22  1  0  0  0  0
 15 23  1  0  0  0  0
 24 25  1  0  0  0  0
 25 26  1  0  0  0  0
 26 27  1  0  0  0  0
 27 28  1  0  0  0  0
 28 29  1  0  0  0  0
 29 24  1  0  0  0  0
 28 30  1  0  0  0  0
 29 31  1  0  0  0  0
 31 32  1  0  0  0  0
 26 33  1  0  0  0  0
 27 34  1  0  0  0  0
  8 35  1  0  0  0  0
 35 25  1  0  0  0  0
 36 37  2  0  0  0  0
 37 38  1  0  0  0  0
 38 39  2  0  0  0  0
 39 40  1  0  0  0  0
 40 41  2  0  0  0  0
 41 36  1  0  0  0  0
 40 42  1  0  0  0  0
 39 43  1  0  0  0  0
 37 44  1  0  0  0  0
 44 45  2  0  0  0  0
 45 46  1  0  0  0  0
 46 47  2  0  0  0  0
 48 49  1  0  0  0  0
 49 50  1  0  0  0  0
 50 51  1  0  0  0  0
 51 52  1  0  0  0  0
 52 53  1  0  0  0  0
 53 48  1  0  0  0  0
 52 54  1  0  0  0  0
 53 55  1  0  0  0  0
 55 56  1  0  0  0  0
 50 57  1  0  0  0  0
 51 58  1  0  0  0  0
 59 60  1  0  0  0  0
 60 61  1  0  0  0  0
 61 62  1  0  0  0  0
 62 63  1  0  0  0  0
 63 64  1  0  0  0  0
 64 59  1  0  0  0  0
 63 65  1  0  0  0  0
 64 66  1  0  0  0  0
 66 67  1  0  0  0  0
 61 68  1  0  0  0  0
 62 69  1  0  0  0  0
 46 57  1  0  0  0  0
 32 49  1  0  0  0  0
 58 60  1  0  0  0  0
 18 19  1  0  0  0  0
M  STY  1   1 SUP
M  SAL   1  2  18  19
M  SBL   1  1  20
M  SMT   1 OCH3
M  SAP   1  1  18   2  1
M  END
>  <cdx:fragmentId>
5

$$$$
