14155.cdx
  Mrv1902 05222410202D          

 16 18  0  0  0  0            999 V2000
    5.6989   -8.3414    0.0000 C   0  0  0  0  0  0  0  0  0  0  0  0
    6.6813   -7.7561    0.0000 C   0  0  2  0  0  0  0  0  0  0  0  0
    7.4780   -7.9702    0.0000 C   0  0  0  0  0  0  0  0  0  0  0  0
    7.8917   -7.2565    0.0000 C   0  0  0  0  0  0  0  0  0  0  0  0
    5.4319   -7.2977    0.0000 C   0  0  0  0  0  0  0  0  0  0  0  0
    7.0949   -7.0424    0.0000 C   0  0  1  0  0  0  0  0  0  0  0  0
    6.6827   -6.3287    0.0000 C   0  0  0  0  0  0  0  0  0  0  0  0
    5.0194   -8.0122    0.0000 C   0  0  0  0  0  0  0  0  0  0  0  0
    4.4964   -8.5567    0.0000 C   0  0  1  0  0  0  0  0  0  0  0  0
    4.8525   -9.2224    0.0000 C   0  0  0  0  0  0  0  0  0  0  0  0
    5.5958   -9.0894    0.0000 C   0  0  0  0  0  0  0  0  0  0  0  0
    3.6995   -8.3432    0.0000 C   0  0  0  0  0  0  0  0  0  0  0  0
    6.0994   -5.7453    0.0000 C   0  0  0  0  0  0  0  0  0  0  0  0
    6.8962   -5.5318    0.0000 C   0  0  0  0  0  0  0  0  0  0  0  0
    7.5074   -6.3279    0.0000 H   0  0  0  0  0  0  0  0  0  0  0  0
    6.2688   -8.4706    0.0000 C   0  0  0  0  0  0  0  0  0  0  0  0
  1  2  1  0  0  0  0
  2  3  1  0  0  0  0
  3  4  1  0  0  0  0
  5  6  1  0  0  0  0
  4  6  1  0  0  0  0
  6  7  1  0  0  0  0
  2  7  1  0  0  0  0
  5  8  1  0  0  0  0
  8  1  2  0  0  0  0
  8  9  1  0  0  0  0
  9 10  1  0  0  0  0
 10 11  1  0  0  0  0
 11  1  1  0  0  0  0
  9 12  1  1  0  0  0
  7 13  1  0  0  0  0
  7 14  1  0  0  0  0
  6 15  1  6  0  0  0
  2 16  1  6  0  0  0
M  END
>  <cdx:groupId>
799

>  <cdx:fragmentId>
800

$$$$
