14160.cdx
  Mrv1902 05222410232D          

 55 60  0  0  0  0            999 V2000
    3.0833   -3.5475    0.0000 C   0  0  0  0  0  0  0  0  0  0  0  0
    3.0833   -4.3725    0.0000 C   0  0  0  0  0  0  0  0  0  0  0  0
    3.7977   -4.7850    0.0000 C   0  0  0  0  0  0  0  0  0  0  0  0
    4.5122   -4.3725    0.0000 C   0  0  0  0  0  0  0  0  0  0  0  0
    4.5122   -3.5475    0.0000 C   0  0  0  0  0  0  0  0  0  0  0  0
    3.7977   -3.1350    0.0000 C   0  0  0  0  0  0  0  0  0  0  0  0
    5.2267   -4.7850    0.0000 C   0  0  0  0  0  0  0  0  0  0  0  0
    5.9412   -4.3725    0.0000 C   0  0  0  0  0  0  0  0  0  0  0  0
    5.9412   -3.5475    0.0000 C   0  0  0  0  0  0  0  0  0  0  0  0
    5.2267   -3.1350    0.0000 O   0  0  0  0  0  0  0  0  0  0  0  0
    6.6556   -3.1350    0.0000 C   0  0  0  0  0  0  0  0  0  0  0  0
    6.6556   -2.3100    0.0000 C   0  0  0  0  0  0  0  0  0  0  0  0
    7.3701   -3.5475    0.0000 C   0  0  0  0  0  0  0  0  0  0  0  0
    8.0846   -3.1350    0.0000 C   0  0  0  0  0  0  0  0  0  0  0  0
    8.0846   -2.3100    0.0000 C   0  0  0  0  0  0  0  0  0  0  0  0
    7.3701   -1.8975    0.0000 C   0  0  0  0  0  0  0  0  0  0  0  0
    2.3688   -3.1350    0.0000 O   0  0  0  0  0  0  0  0  0  0  0  0
    3.7977   -5.6100    0.0000 O   0  0  0  0  0  0  0  0  0  0  0  0
    5.2267   -5.6100    0.0000 O   0  0  0  0  0  0  0  0  0  0  0  0
    7.3701   -1.0725    0.0000 O   0  0  0  0  0  0  0  0  0  0  0  0
    8.7990   -1.8975    0.0000 O   0  0  0  0  0  0  0  0  0  0  0  0
    6.6556   -4.7850    0.0000 O   0  0  0  0  0  0  0  0  0  0  0  0
    7.0681   -5.4995    0.0000 C   0  0  2  0  0  0  0  0  0  0  0  0
    6.6556   -6.2139    0.0000 O   0  0  0  0  0  0  0  0  0  0  0  0
    7.0681   -6.9284    0.0000 C   0  0  1  0  0  0  0  0  0  0  0  0
    7.8931   -6.9284    0.0000 C   0  0  2  0  0  0  0  0  0  0  0  0
    8.3056   -6.2139    0.0000 C   0  0  1  0  0  0  0  0  0  0  0  0
    7.8931   -5.4995    0.0000 C   0  0  1  0  0  0  0  0  0  0  0  0
    6.6556   -7.6429    0.0000 C   0  0  0  0  0  0  0  0  0  0  0  0
    7.0681   -8.3574    0.0000 O   0  0  0  0  0  0  0  0  0  0  0  0
    8.3056   -7.6429    0.0000 O   0  0  0  0  0  0  0  0  0  0  0  0
    6.3463   -8.8037    0.0000 C   0  0  0  0  0  0  0  0  0  0  0  0
    5.6382   -8.3803    0.0000 O   0  0  0  0  0  0  0  0  0  0  0  0
    4.9175   -8.7817    0.0000 C   0  0  2  0  0  0  0  0  0  0  0  0
    4.9048   -9.6066    0.0000 C   0  0  1  0  0  0  0  0  0  0  0  0
    5.6129  -10.0301    0.0000 C   0  0  2  0  0  0  0  0  0  0  0  0
    6.3336   -9.6286    0.0000 C   0  0  1  0  0  0  0  0  0  0  0  0
    4.1841  -10.0081    0.0000 O   0  0  0  0  0  0  0  0  0  0  0  0
    5.6129  -10.8550    0.0000 O   0  0  0  0  0  0  0  0  0  0  0  0
    9.1306   -6.2139    0.0000 O   0  0  0  0  0  0  0  0  0  0  0  0
    7.0481  -10.0411    0.0000 O   0  0  0  0  0  0  0  0  0  0  0  0
    4.2030   -8.3692    0.0000 C   0  0  0  0  0  0  0  0  0  0  0  0
    8.3056   -4.7850    0.0000 O   0  0  0  0  0  0  0  0  0  0  0  0
    7.7625  -10.4536    0.0000 C   0  0  0  0  0  0  0  0  0  0  0  0
    8.4770  -10.0411    0.0000 C   0  0  0  0  0  0  0  0  0  0  0  0
    9.1915  -10.4536    0.0000 C   0  0  0  0  0  0  0  0  0  0  0  0
    9.9059  -10.0411    0.0000 C   0  0  0  0  0  0  0  0  0  0  0  0
   10.6204  -10.4536    0.0000 C   0  0  0  0  0  0  0  0  0  0  0  0
   11.3349  -10.0411    0.0000 C   0  0  0  0  0  0  0  0  0  0  0  0
   11.3349   -9.2161    0.0000 C   0  0  0  0  0  0  0  0  0  0  0  0
   10.6204   -8.8036    0.0000 C   0  0  0  0  0  0  0  0  0  0  0  0
    9.9059   -9.2161    0.0000 C   0  0  0  0  0  0  0  0  0  0  0  0
    7.7625  -11.2786    0.0000 O   0  0  0  0  0  0  0  0  0  0  0  0
   12.0493   -8.8036    0.0000 O   0  0  0  0  0  0  0  0  0  0  0  0
   12.0493  -10.4536    0.0000 O   0  0  0  0  0  0  0  0  0  0  0  0
  1  2  2  0  0  0  0
  2  3  1  0  0  0  0
  3  4  2  0  0  0  0
  4  5  1  0  0  0  0
  5  6  2  0  0  0  0
  6  1  1  0  0  0  0
  4  7  1  0  0  0  0
  7  8  1  0  0  0  0
  8  9  2  0  0  0  0
  9 10  1  0  0  0  0
 10  5  1  0  0  0  0
  9 11  1  0  0  0  0
 11 12  1  0  0  0  0
 11 13  2  0  0  0  0
 13 14  1  0  0  0  0
 14 15  2  0  0  0  0
 15 16  1  0  0  0  0
 16 12  2  0  0  0  0
  1 17  1  0  0  0  0
  3 18  1  0  0  0  0
  7 19  2  0  0  0  0
 16 20  1  0  0  0  0
 15 21  1  0  0  0  0
  8 22  1  0  0  0  0
 23 22  1  1  0  0  0
 23 24  1  0  0  0  0
 24 25  1  0  0  0  0
 25 26  1  0  0  0  0
 26 27  1  0  0  0  0
 27 28  1  0  0  0  0
 28 23  1  0  0  0  0
 25 29  1  1  0  0  0
 29 30  1  0  0  0  0
 26 31  1  6  0  0  0
 32 30  1  0  0  0  0
 32 33  1  0  0  0  0
 33 34  1  0  0  0  0
 34 35  1  0  0  0  0
 35 36  1  0  0  0  0
 36 37  1  0  0  0  0
 37 32  1  0  0  0  0
 35 38  1  1  0  0  0
 36 39  1  6  0  0  0
 27 40  1  1  0  0  0
 37 41  1  6  0  0  0
 34 42  1  6  0  0  0
 28 43  1  6  0  0  0
 41 44  1  0  0  0  0
 44 45  1  0  0  0  0
 45 46  2  0  0  0  0
 46 47  1  0  0  0  0
 47 48  2  0  0  0  0
 48 49  1  0  0  0  0
 49 50  2  0  0  0  0
 50 51  1  0  0  0  0
 51 52  2  0  0  0  0
 52 47  1  0  0  0  0
 44 53  2  0  0  0  0
 50 54  1  0  0  0  0
 49 55  1  0  0  0  0
M  END
>  <cdx:fragmentId>
5

$$$$
