141647.cdx
  Mrv1902 05222410212D          

 20 19  0  0  0  0            999 V2000
    9.0385  -13.9848    0.0000 C   0  0  0  0  0  0  0  0  0  0  0  0
    9.7530  -13.5723    0.0000 C   0  0  0  0  0  0  0  0  0  0  0  0
   10.4675  -13.9848    0.0000 C   0  0  0  0  0  0  0  0  0  0  0  0
   11.1819  -13.5723    0.0000 C   0  0  0  0  0  0  0  0  0  0  0  0
   11.8964  -13.9848    0.0000 C   0  0  0  0  0  0  0  0  0  0  0  0
   12.6109  -13.5723    0.0000 C   0  0  0  0  0  0  0  0  0  0  0  0
   13.3253  -13.9848    0.0000 C   0  0  0  0  0  0  0  0  0  0  0  0
   14.0398  -13.5723    0.0000 C   0  0  0  0  0  0  0  0  0  0  0  0
   14.7543  -13.9848    0.0000 C   0  0  0  0  0  0  0  0  0  0  0  0
   15.4688  -13.5723    0.0000 C   0  0  0  0  0  0  0  0  0  0  0  0
   16.1832  -13.9848    0.0000 C   0  0  0  0  0  0  0  0  0  0  0  0
   16.8977  -13.5723    0.0000 C   0  0  0  0  0  0  0  0  0  0  0  0
   17.6122  -13.9848    0.0000 C   0  0  0  0  0  0  0  0  0  0  0  0
   18.3266  -13.5723    0.0000 C   0  0  0  0  0  0  0  0  0  0  0  0
   19.0411  -13.9848    0.0000 C   0  0  0  0  0  0  0  0  0  0  0  0
   19.7556  -13.5723    0.0000 C   0  0  0  0  0  0  0  0  0  0  0  0
   20.4701  -13.9848    0.0000 C   0  0  0  0  0  0  0  0  0  0  0  0
   21.1845  -13.5723    0.0000 C   0  0  0  0  0  0  0  0  0  0  0  0
   21.8990  -13.9848    0.0000 C   0  0  0  0  0  0  0  0  0  0  0  0
    9.7530  -12.7473    0.0000 N   0  0  0  0  0  0  0  0  0  0  0  0
  1  2  1  0  0  0  0
  2  3  1  0  0  0  0
  3  4  1  0  0  0  0
  4  5  1  0  0  0  0
  5  6  1  0  0  0  0
  6  7  1  0  0  0  0
  7  8  1  0  0  0  0
  8  9  1  0  0  0  0
  9 10  1  0  0  0  0
 10 11  1  0  0  0  0
 11 12  1  0  0  0  0
 12 13  1  0  0  0  0
 13 14  1  0  0  0  0
 14 15  1  0  0  0  0
 15 16  1  0  0  0  0
 16 17  1  0  0  0  0
 17 18  1  0  0  0  0
 18 19  1  0  0  0  0
  2 20  1  0  0  0  0
M  END
>  <cdx:groupId>
1475

>  <cdx:fragmentId>
1419

$$$$
