14175.cdx
  Mrv1902 05222410232D          

 46 50  0  0  0  0            999 V2000
    3.4889   -7.4869    0.0000 C   0  0  0  0  0  0  0  0  0  0  0  0
    3.4889   -8.3119    0.0000 C   0  0  0  0  0  0  0  0  0  0  0  0
    4.2034   -8.7244    0.0000 C   0  0  0  0  0  0  0  0  0  0  0  0
    4.9178   -8.3119    0.0000 C   0  0  0  0  0  0  0  0  0  0  0  0
    4.9178   -7.4869    0.0000 C   0  0  0  0  0  0  0  0  0  0  0  0
    4.2034   -7.0744    0.0000 C   0  0  0  0  0  0  0  0  0  0  0  0
    5.6323   -8.7244    0.0000 C   0  0  0  0  0  0  0  0  0  0  0  0
    6.3468   -8.3119    0.0000 C   0  0  0  0  0  0  0  0  0  0  0  0
    6.3468   -7.4869    0.0000 C   0  0  0  0  0  0  0  0  0  0  0  0
    5.6323   -7.0744    0.0000 O   0  0  0  0  0  0  0  0  0  0  0  0
    7.7757   -7.4869    0.0000 C   0  0  0  0  0  0  0  0  0  0  0  0
    7.0613   -7.0744    0.0000 C   0  0  0  0  0  0  0  0  0  0  0  0
    8.4902   -7.0744    0.0000 C   0  0  0  0  0  0  0  0  0  0  0  0
    8.4902   -6.2494    0.0000 C   0  0  0  0  0  0  0  0  0  0  0  0
    7.7757   -5.8369    0.0000 C   0  0  0  0  0  0  0  0  0  0  0  0
    7.0613   -6.2494    0.0000 C   0  0  0  0  0  0  0  0  0  0  0  0
    2.7744   -7.0744    0.0000 O   0  0  0  0  0  0  0  0  0  0  0  0
    2.7744   -8.7244    0.0000 O   0  0  0  0  0  0  0  0  0  0  0  0
    2.0600   -9.1369    0.0000 C   0  0  0  0  0  0  0  0  0  0  0  0
    4.2034   -9.5494    0.0000 O   0  0  0  0  0  0  0  0  0  0  0  0
    5.6323   -9.5494    0.0000 O   0  0  0  0  0  0  0  0  0  0  0  0
    9.2047   -5.8369    0.0000 O   0  0  0  0  0  0  0  0  0  0  0  0
    7.7757   -5.0119    0.0000 O   0  0  0  0  0  0  0  0  0  0  0  0
    8.1515   -8.3967    0.0000 O   0  0  0  0  0  0  0  0  0  0  0  0
    7.7691   -9.1278    0.0000 C   0  0  0  0  0  0  0  0  0  0  0  0
    8.5522   -8.8682    0.0000 C   0  0  0  0  0  0  0  0  0  0  0  0
    9.3590   -9.0615    0.0000 C   0  0  0  0  0  0  0  0  0  0  0  0
    9.7415   -8.3305    0.0000 C   0  0  0  0  0  0  0  0  0  0  0  0
    8.9583   -8.5899    0.0000 C   0  0  0  0  0  0  0  0  0  0  0  0
   10.0930   -8.5223    0.0000 O   0  0  0  0  0  0  0  0  0  0  0  0
    9.2694   -8.1302    0.0000 C   0  0  0  0  0  0  0  0  0  0  0  0
    9.3133   -7.6777    0.0000 O   0  0  0  0  0  0  0  0  0  0  0  0
    8.2600   -9.2858    0.0000 O   0  0  0  0  0  0  0  0  0  0  0  0
    9.3753   -9.4530    0.0000 O   0  0  0  0  0  0  0  0  0  0  0  0
   10.0164   -6.5601    0.0000 O   0  0  0  0  0  0  0  0  0  0  0  0
    9.6039   -7.2746    0.0000 C   0  0  0  0  0  0  0  0  0  0  0  0
   10.3972   -7.0479    0.0000 C   0  0  0  0  0  0  0  0  0  0  0  0
   11.1952   -7.2746    0.0000 C   0  0  0  0  0  0  0  0  0  0  0  0
   11.6078   -6.5601    0.0000 C   0  0  0  0  0  0  0  0  0  0  0  0
   10.8145   -6.7868    0.0000 C   0  0  0  0  0  0  0  0  0  0  0  0
   11.9510   -6.7664    0.0000 O   0  0  0  0  0  0  0  0  0  0  0  0
   11.1445   -6.3404    0.0000 C   0  0  0  0  0  0  0  0  0  0  0  0
   11.1239   -5.9073    0.0000 O   0  0  0  0  0  0  0  0  0  0  0  0
   10.0878   -7.4530    0.0000 O   0  0  0  0  0  0  0  0  0  0  0  0
   11.1952   -7.6665    0.0000 O   0  0  0  0  0  0  0  0  0  0  0  0
    7.0613   -8.7244    0.0000 O   0  0  0  0  0  0  0  0  0  0  0  0
  1  2  2  0  0  0  0
  2  3  1  0  0  0  0
  3  4  2  0  0  0  0
  4  5  1  0  0  0  0
  5  6  2  0  0  0  0
  6  1  1  0  0  0  0
  4  7  1  0  0  0  0
  7  8  1  0  0  0  0
  8  9  2  0  0  0  0
  9 10  1  0  0  0  0
 10  5  1  0  0  0  0
 11 12  2  0  0  0  0
 12  9  1  0  0  0  0
 11 13  1  0  0  0  0
 13 14  2  0  0  0  0
 14 15  1  0  0  0  0
 15 16  2  0  0  0  0
 16 12  1  0  0  0  0
  1 17  1  0  0  0  0
  2 18  1  0  0  0  0
  3 20  1  0  0  0  0
  7 21  2  0  0  0  0
 14 22  1  0  0  0  0
 15 23  1  0  0  0  0
 24 25  1  0  0  0  0
 25 26  1  0  0  0  0
 26 27  1  0  0  0  0
 27 28  1  0  0  0  0
 28 29  1  0  0  0  0
 29 24  1  0  0  0  0
 28 30  1  0  0  0  0
 29 31  1  0  0  0  0
 31 32  1  0  0  0  0
 26 33  1  0  0  0  0
 27 34  1  0  0  0  0
 35 36  1  0  0  0  0
 36 37  1  0  0  0  0
 37 38  1  0  0  0  0
 38 39  1  0  0  0  0
 39 40  1  0  0  0  0
 40 35  1  0  0  0  0
 39 41  1  0  0  0  0
 40 42  1  0  0  0  0
 42 43  1  0  0  0  0
 37 44  1  0  0  0  0
 38 45  1  0  0  0  0
 36 32  1  0  0  0  0
  8 46  1  0  0  0  0
 46 25  1  0  0  0  0
 18 19  1  0  0  0  0
M  STY  1   1 SUP
M  SAL   1  2  18  19
M  SBL   1  1  20
M  SMT   1 OCH3
M  SAP   1  1  18   2  1
M  END
>  <cdx:fragmentId>
5

$$$$
