141975.cdx
  Mrv1902 05222410182D          

 10  9  0  0  0  0            999 V2000
   12.6109  -13.9280    0.0000 C   0  0  0  0  0  0  0  0  0  0  0  0
   13.3253  -13.5155    0.0000 C   0  0  0  0  0  0  0  0  0  0  0  0
   14.0398  -13.9280    0.0000 C   0  0  0  0  0  0  0  0  0  0  0  0
   14.7543  -13.5155    0.0000 C   0  0  0  0  0  0  0  0  0  0  0  0
   15.4688  -13.9280    0.0000 C   0  0  0  0  0  0  0  0  0  0  0  0
   16.1832  -13.5155    0.0000 C   0  0  0  0  0  0  0  0  0  0  0  0
   16.8977  -13.9280    0.0000 C   0  0  0  0  0  0  0  0  0  0  0  0
   17.6122  -13.5155    0.0000 C   0  0  0  0  0  0  0  0  0  0  0  0
   18.3266  -13.9280    0.0000 C   0  0  0  0  0  0  0  0  0  0  0  0
   14.7543  -12.6905    0.0000 O   0  0  0  0  0  0  0  0  0  0  0  0
  1  2  2  0  0  0  0
  2  3  1  0  0  0  0
  3  4  1  0  0  0  0
  4  5  1  0  0  0  0
  5  6  1  0  0  0  0
  6  7  1  0  0  0  0
  7  8  1  0  0  0  0
  8  9  1  0  0  0  0
  4 10  1  0  0  0  0
M  END
>  <cdx:groupId>
1510

>  <cdx:fragmentId>
1484

$$$$
