14202.cdx
  Mrv1902 05222410232D          

 25 27  0  0  0  0            999 V2000
    4.0458   -7.2188    0.0000 C   0  0  2  0  0  0  0  0  0  0  0  0
    4.0458   -8.0437    0.0000 C   0  0  0  0  0  0  0  0  0  0  0  0
    4.7602   -8.4563    0.0000 O   0  0  0  0  0  0  0  0  0  0  0  0
    5.4747   -8.0437    0.0000 C   0  0  0  0  0  0  0  0  0  0  0  0
    5.4747   -7.2188    0.0000 C   0  0  0  0  0  0  0  0  0  0  0  0
    4.7602   -6.8062    0.0000 C   0  0  1  0  0  0  0  0  0  0  0  0
    6.1892   -8.4563    0.0000 C   0  0  0  0  0  0  0  0  0  0  0  0
    6.9037   -8.0437    0.0000 C   0  0  0  0  0  0  0  0  0  0  0  0
    6.9037   -7.2188    0.0000 C   0  0  0  0  0  0  0  0  0  0  0  0
    6.1892   -6.8062    0.0000 C   0  0  0  0  0  0  0  0  0  0  0  0
    7.6181   -8.4563    0.0000 O   0  0  0  0  0  0  0  0  0  0  0  0
    8.3326   -8.0437    0.0000 C   0  0  0  0  0  0  0  0  0  0  0  0
    8.3326   -7.2188    0.0000 C   0  0  0  0  0  0  0  0  0  0  0  0
    7.6181   -6.8062    0.0000 C   0  0  0  0  0  0  0  0  0  0  0  0
    3.2208   -8.0437    0.0000 C   0  0  0  0  0  0  0  0  0  0  0  0
    3.6333   -8.7582    0.0000 C   0  0  0  0  0  0  0  0  0  0  0  0
    9.0471   -8.4563    0.0000 O   0  0  0  0  0  0  0  0  0  0  0  0
    3.3313   -6.8062    0.0000 O   0  0  0  0  0  0  0  0  0  0  0  0
    6.9037   -4.7438    0.0000 C   0  0  0  0  0  0  0  0  0  0  0  0
    6.1892   -3.5062    0.0000 C   0  0  0  0  0  0  0  0  0  0  0  0
    6.1892   -4.3313    0.0000 C   0  0  0  0  0  0  0  0  0  0  0  0
    6.1892   -5.9813    0.0000 O   0  0  0  0  0  0  0  0  0  0  0  0
    5.4747   -4.7438    0.0000 C   0  0  0  0  0  0  0  0  0  0  0  0
    5.4747   -5.5687    0.0000 C   0  0  0  0  0  0  0  0  0  0  0  0
    4.7602   -5.9813    0.0000 O   0  0  0  0  0  0  0  0  0  0  0  0
  1  2  1  0  0  0  0
  2  3  1  0  0  0  0
  3  4  1  0  0  0  0
  4  5  2  0  0  0  0
  5  6  1  0  0  0  0
  6  1  1  0  0  0  0
  4  7  1  0  0  0  0
  7  8  2  0  0  0  0
  8  9  1  0  0  0  0
  9 10  2  0  0  0  0
 10  5  1  0  0  0  0
  8 11  1  0  0  0  0
 11 12  1  0  0  0  0
 12 13  1  0  0  0  0
 13 14  2  0  0  0  0
 14  9  1  0  0  0  0
  2 15  1  0  0  0  0
  2 16  1  0  0  0  0
 12 17  2  0  0  0  0
  1 18  1  1  0  0  0
 21 19  1  0  0  0  0
  6 25  1  6  0  0  0
 21 20  1  0  0  0  0
 23 21  2  0  0  0  0
 24 22  2  0  0  0  0
 24 23  1  0  0  0  0
 25 24  1  0  0  0  0
M  END
>  <cdx:fragmentId>
5

$$$$
