14207.cdx
  Mrv1902 05222410252D          

 25 27  0  0  0  0            999 V2000
    4.2053   -6.3756    0.0000 C   0  0  0  0  0  0  0  0  0  0  0  0
    5.5285   -8.4351    0.0000 C   0  0  0  0  0  0  0  0  0  0  0  0
    5.9426   -9.1486    0.0000 C   0  0  0  0  0  0  0  0  0  0  0  0
    9.2038   -5.1267    0.0000 O   0  0  0  0  0  0  0  0  0  0  0  0
    4.2072   -7.2006    0.0000 C   0  0  0  0  0  0  0  0  0  0  0  0
    3.4937   -7.6148    0.0000 C   0  0  0  0  0  0  0  0  0  0  0  0
    3.4956   -8.4398    0.0000 C   0  0  0  0  0  0  0  0  0  0  0  0
    4.9226   -7.6115    0.0000 C   0  0  0  0  0  0  0  0  0  0  0  0
    4.9245   -8.4365    0.0000 O   0  0  0  0  0  0  0  0  0  0  0  0
    7.0632   -6.3691    0.0000 O   0  0  0  0  0  0  0  0  0  0  0  0
    5.6362   -7.1974    0.0000 O   0  0  0  0  0  0  0  0  0  0  0  0
    7.0651   -7.1941    0.0000 C   0  0  0  0  0  0  0  0  0  0  0  0
    6.3516   -7.6082    0.0000 C   0  0  1  0  0  0  0  0  0  0  0  0
    6.3535   -8.4332    0.0000 C   0  0  0  0  0  0  0  0  0  0  0  0
    7.0689   -8.8441    0.0000 O   0  0  0  0  0  0  0  0  0  0  0  0
    9.9230   -7.1875    0.0000 C   0  0  0  0  0  0  0  0  0  0  0  0
    9.9211   -6.3626    0.0000 C   0  0  0  0  0  0  0  0  0  0  0  0
    9.2057   -5.9517    0.0000 C   0  0  0  0  0  0  0  0  0  0  0  0
    8.4922   -6.3658    0.0000 O   0  0  0  0  0  0  0  0  0  0  0  0
    9.2113   -8.4267    0.0000 C   0  0  0  0  0  0  0  0  0  0  0  0
    9.2095   -7.6017    0.0000 C   0  0  0  0  0  0  0  0  0  0  0  0
    8.4940   -7.1908    0.0000 C   0  0  0  0  0  0  0  0  0  0  0  0
    7.7805   -7.6050    0.0000 C   0  0  0  0  0  0  0  0  0  0  0  0
    7.7824   -8.4300    0.0000 C   0  0  0  0  0  0  0  0  0  0  0  0
    8.4978   -8.8408    0.0000 C   0  0  0  0  0  0  0  0  0  0  0  0
  5  1  1  0  0  0  0
 14  2  1  0  0  0  0
 14  3  1  0  0  0  0
 18  4  2  0  0  0  0
  5  8  1  0  0  0  0
  6  5  2  0  0  0  0
  7  6  1  0  0  0  0
  8 11  1  0  0  0  0
  9  8  2  0  0  0  0
 10 12  2  0  0  0  0
 13 11  1  1  0  0  0
 12 23  1  0  0  0  0
 13 12  1  0  0  0  0
 14 13  1  0  0  0  0
 15 14  1  0  0  0  0
 24 15  1  0  0  0  0
 16 21  1  0  0  0  0
 17 16  2  0  0  0  0
 18 17  1  0  0  0  0
 19 18  1  0  0  0  0
 22 19  1  0  0  0  0
 20 25  1  0  0  0  0
 21 20  2  0  0  0  0
 22 21  1  0  0  0  0
 23 22  2  0  0  0  0
 24 23  1  0  0  0  0
 25 24  2  0  0  0  0
M  END
>  <cdx:fragmentId>
5

$$$$
