14203.cdx
  Mrv1902 05222410232D          

 28 30  0  0  0  0            999 V2000
    5.3933   -7.3012    0.0000 C   0  0  2  0  0  0  0  0  0  0  0  0
    5.3933   -8.1263    0.0000 C   0  0  0  0  0  0  0  0  0  0  0  0
    6.1077   -8.5388    0.0000 O   0  0  0  0  0  0  0  0  0  0  0  0
    6.8222   -8.1263    0.0000 C   0  0  0  0  0  0  0  0  0  0  0  0
    6.8222   -7.3012    0.0000 C   0  0  0  0  0  0  0  0  0  0  0  0
    6.1077   -6.8888    0.0000 C   0  0  1  0  0  0  0  0  0  0  0  0
    7.5367   -8.5388    0.0000 C   0  0  0  0  0  0  0  0  0  0  0  0
    8.2512   -8.1263    0.0000 C   0  0  0  0  0  0  0  0  0  0  0  0
    8.2512   -7.3012    0.0000 C   0  0  0  0  0  0  0  0  0  0  0  0
    7.5367   -6.8888    0.0000 C   0  0  0  0  0  0  0  0  0  0  0  0
    8.9656   -8.5388    0.0000 O   0  0  0  0  0  0  0  0  0  0  0  0
    9.6801   -8.1263    0.0000 C   0  0  0  0  0  0  0  0  0  0  0  0
    9.6801   -7.3012    0.0000 C   0  0  0  0  0  0  0  0  0  0  0  0
    8.9656   -6.8888    0.0000 C   0  0  0  0  0  0  0  0  0  0  0  0
    4.5683   -8.1263    0.0000 C   0  0  0  0  0  0  0  0  0  0  0  0
    4.9808   -8.8407    0.0000 C   0  0  0  0  0  0  0  0  0  0  0  0
   10.3946   -8.5388    0.0000 O   0  0  0  0  0  0  0  0  0  0  0  0
    4.6788   -6.8888    0.0000 O   0  0  0  0  0  0  0  0  0  0  0  0
    8.2512   -4.8263    0.0000 C   0  0  0  0  0  0  0  0  0  0  0  0
    7.5367   -3.5887    0.0000 C   0  0  0  0  0  0  0  0  0  0  0  0
    7.5367   -4.4138    0.0000 C   0  0  0  0  0  0  0  0  0  0  0  0
    7.5367   -6.0638    0.0000 O   0  0  0  0  0  0  0  0  0  0  0  0
    6.8222   -4.8263    0.0000 C   0  0  0  0  0  0  0  0  0  0  0  0
    6.8222   -5.6512    0.0000 C   0  0  0  0  0  0  0  0  0  0  0  0
    6.1077   -6.0638    0.0000 O   0  0  0  0  0  0  0  0  0  0  0  0
    3.9643   -7.3012    0.0000 C   0  0  0  0  0  0  0  0  0  0  0  0
    3.2499   -6.8887    0.0000 C   0  0  0  0  0  0  0  0  0  0  0  0
    3.9643   -8.1262    0.0000 O   0  0  0  0  0  0  0  0  0  0  0  0
  1  2  1  0  0  0  0
  2  3  1  0  0  0  0
  3  4  1  0  0  0  0
  4  5  2  0  0  0  0
  5  6  1  0  0  0  0
  6  1  1  0  0  0  0
  4  7  1  0  0  0  0
  7  8  2  0  0  0  0
  8  9  1  0  0  0  0
  9 10  2  0  0  0  0
 10  5  1  0  0  0  0
  8 11  1  0  0  0  0
 11 12  1  0  0  0  0
 12 13  1  0  0  0  0
 13 14  2  0  0  0  0
 14  9  1  0  0  0  0
  2 15  1  0  0  0  0
  2 16  1  0  0  0  0
 12 17  2  0  0  0  0
  1 18  1  1  0  0  0
 21 19  1  0  0  0  0
  6 25  1  6  0  0  0
 21 20  1  0  0  0  0
 23 21  2  0  0  0  0
 24 22  2  0  0  0  0
 24 23  1  0  0  0  0
 25 24  1  0  0  0  0
 18 26  1  0  0  0  0
 26 27  1  0  0  0  0
 26 28  2  0  0  0  0
M  END
>  <cdx:fragmentId>
5

$$$$
