142062.cdx
  Mrv1902 05222410202D          

 10 11  0  0  0  0            999 V2000
   16.1832  -12.4237    0.0000 C   0  0  0  0  0  0  0  0  0  0  0  0
   16.8977  -12.8362    0.0000 C   0  0  0  0  0  0  0  0  0  0  0  0
   16.8977  -13.6612    0.0000 C   0  0  0  0  0  0  0  0  0  0  0  0
   16.1832  -14.0737    0.0000 C   0  0  0  0  0  0  0  0  0  0  0  0
   15.4688  -13.6612    0.0000 C   0  0  0  0  0  0  0  0  0  0  0  0
   14.7543  -14.0737    0.0000 C   0  0  0  0  0  0  0  0  0  0  0  0
   14.0398  -13.6612    0.0000 C   0  0  0  0  0  0  0  0  0  0  0  0
   14.0398  -12.8362    0.0000 C   0  0  0  0  0  0  0  0  0  0  0  0
   14.7543  -12.4237    0.0000 C   0  0  0  0  0  0  0  0  0  0  0  0
   15.4688  -12.8362    0.0000 C   0  0  0  0  0  0  0  0  0  0  0  0
  1  2  1  0  0  0  0
  2  3  1  0  0  0  0
  3  4  1  0  0  0  0
  4  5  1  0  0  0  0
  5  6  1  0  0  0  0
  6  7  1  0  0  0  0
  7  8  2  0  0  0  0
  8  9  1  0  0  0  0
  9 10  1  0  0  0  0
  1 10  1  0  0  0  0
  5 10  2  0  0  0  0
M  END
>  <cdx:groupId>
1545

>  <cdx:fragmentId>
1517

$$$$
