14219.cdx
  Mrv1902 05222410222D          

 18 20  0  0  0  0            999 V2000
    3.8395   -6.1875    0.0000 N   0  0  0  0  0  0  0  0  0  0  0  0
    3.8395   -7.0125    0.0000 C   0  0  0  0  0  0  0  0  0  0  0  0
    4.5540   -7.4250    0.0000 N   0  0  0  0  0  0  0  0  0  0  0  0
    5.2685   -7.0125    0.0000 C   0  0  0  0  0  0  0  0  0  0  0  0
    5.2685   -6.1875    0.0000 C   0  0  0  0  0  0  0  0  0  0  0  0
    4.5540   -5.7750    0.0000 C   0  0  0  0  0  0  0  0  0  0  0  0
    6.0531   -7.2674    0.0000 N   0  0  0  0  0  0  0  0  0  0  0  0
    6.5380   -6.6000    0.0000 C   0  0  0  0  0  0  0  0  0  0  0  0
    6.0531   -5.9326    0.0000 N   0  0  0  0  0  0  0  0  0  0  0  0
    6.2666   -8.0643    0.0000 C   0  0  0  0  0  0  0  0  0  0  0  0
    7.0635   -8.2779    0.0000 C   0  0  0  0  0  0  0  0  0  0  0  0
    7.2770   -9.0747    0.0000 N   0  0  0  0  0  0  0  0  0  0  0  0
    8.0739   -9.2883    0.0000 C   0  0  0  0  0  0  0  0  0  0  0  0
    8.6573   -8.7049    0.0000 C   0  0  0  0  0  0  0  0  0  0  0  0
    8.4438   -7.9080    0.0000 C   0  0  0  0  0  0  0  0  0  0  0  0
    7.6469   -7.6945    0.0000 C   0  0  0  0  0  0  0  0  0  0  0  0
    9.4542   -8.9184    0.0000 O   0  0  0  0  0  0  0  0  0  0  0  0
    4.5540   -4.9500    0.0000 N   0  0  0  0  0  0  0  0  0  0  0  0
  1  2  2  0  0  0  0
  2  3  1  0  0  0  0
  3  4  2  0  0  0  0
  4  5  1  0  0  0  0
  5  6  2  0  0  0  0
  6  1  1  0  0  0  0
  4  7  1  0  0  0  0
  7  8  1  0  0  0  0
  8  9  2  0  0  0  0
  9  5  1  0  0  0  0
  7 10  1  0  0  0  0
 10 11  1  0  0  0  0
 11 12  2  0  0  0  0
 12 13  1  0  0  0  0
 13 14  2  0  0  0  0
 14 15  1  0  0  0  0
 15 16  2  0  0  0  0
 16 11  1  0  0  0  0
 14 17  1  0  0  0  0
  6 18  1  0  0  0  0
M  END
>  <cdx:fragmentId>
5

$$$$
