142131.cdx
  Mrv1902 05222410272D          

  9  8  0  0  0  0            999 V2000
    5.2406   -7.6816    0.0000 C   0  0  0  0  0  0  0  0  0  0  0  0
    5.9551   -7.2691    0.0000 C   0  0  0  0  0  0  0  0  0  0  0  0
    6.6695   -7.6816    0.0000 C   0  0  0  0  0  0  0  0  0  0  0  0
    7.3840   -7.2691    0.0000 C   0  0  0  0  0  0  0  0  0  0  0  0
    8.0985   -6.8566    0.0000 C   0  0  0  0  0  0  0  0  0  0  0  0
    8.8130   -7.2691    0.0000 C   0  0  0  0  0  0  0  0  0  0  0  0
    9.5274   -6.8566    0.0000 C   0  0  0  0  0  0  0  0  0  0  0  0
    9.5274   -6.0316    0.0000 C   0  0  0  0  0  0  0  0  0  0  0  0
   10.2419   -7.2691    0.0000 C   0  0  0  0  0  0  0  0  0  0  0  0
  1  2  1  0  0  0  0
  2  3  1  0  0  0  0
  3  4  2  0  0  0  0
  4  5  2  0  0  0  0
  5  6  1  0  0  0  0
  6  7  1  0  0  0  0
  7  8  1  0  0  0  0
  7  9  1  0  0  0  0
M  END
>  <cdx:fragmentId>
1552

$$$$
