14228.cdx
  Mrv1902 05222410242D          

 16 15  0  0  0  0            999 V2000
    7.5556   -5.5146    0.0000 C   0  0  0  0  0  0  0  0  0  0  0  0
    6.8412   -5.9271    0.0000 C   0  0  0  0  0  0  0  0  0  0  0  0
    6.1267   -5.5146    0.0000 C   0  0  0  0  0  0  0  0  0  0  0  0
    5.4122   -5.9271    0.0000 C   0  0  0  0  0  0  0  0  0  0  0  0
    4.6977   -5.5146    0.0000 C   0  0  0  0  0  0  0  0  0  0  0  0
    3.9833   -5.9271    0.0000 C   0  0  0  0  0  0  0  0  0  0  0  0
    3.2688   -5.5146    0.0000 C   0  0  0  0  0  0  0  0  0  0  0  0
    2.5543   -5.9271    0.0000 C   0  0  0  0  0  0  0  0  0  0  0  0
    7.5556   -4.6896    0.0000 O   0  0  0  0  0  0  0  0  0  0  0  0
    8.2701   -5.9271    0.0000 O   0  0  0  0  0  0  0  0  0  0  0  0
    8.9846   -5.5146    0.0000 C   0  0  0  0  0  0  0  0  0  0  0  0
    9.6990   -5.9271    0.0000 C   0  0  0  0  0  0  0  0  0  0  0  0
   10.4135   -5.5146    0.0000 C   0  0  0  0  0  0  0  0  0  0  0  0
   11.1280   -5.9271    0.0000 C   0  0  0  0  0  0  0  0  0  0  0  0
   11.8425   -5.5146    0.0000 C   0  0  0  0  0  0  0  0  0  0  0  0
   12.5569   -5.9271    0.0000 C   0  0  0  0  0  0  0  0  0  0  0  0
  1  2  1  0  0  0  0
  2  3  1  0  0  0  0
  3  4  1  0  0  0  0
  4  5  1  0  0  0  0
  5  6  1  0  0  0  0
  6  7  1  0  0  0  0
  7  8  1  0  0  0  0
  1  9  2  0  0  0  0
  1 10  1  0  0  0  0
 11 12  1  0  0  0  0
 12 13  1  0  0  0  0
 13 14  1  0  0  0  0
 14 15  1  0  0  0  0
 15 16  1  0  0  0  0
 10 11  1  0  0  0  0
M  END
>  <cdx:fragmentId>
5

$$$$
