14235.cdx
  Mrv1902 05222410212D          

 42 46  0  0  0  0            999 V2000
    5.0770   -5.3625    0.0000 C   0  0  0  0  0  0  0  0  0  0  0  0
    5.0770   -6.1875    0.0000 C   0  0  0  0  0  0  0  0  0  0  0  0
    5.7915   -6.6000    0.0000 C   0  0  0  0  0  0  0  0  0  0  0  0
    6.5060   -6.1875    0.0000 C   0  0  0  0  0  0  0  0  0  0  0  0
    6.5060   -5.3625    0.0000 C   0  0  0  0  0  0  0  0  0  0  0  0
    5.7915   -4.9500    0.0000 C   0  0  0  0  0  0  0  0  0  0  0  0
    7.2204   -6.6000    0.0000 C   0  0  0  0  0  0  0  0  0  0  0  0
    7.9349   -6.1875    0.0000 C   0  0  0  0  0  0  0  0  0  0  0  0
    7.9349   -5.3625    0.0000 C   0  0  0  0  0  0  0  0  0  0  0  0
    7.2204   -4.9500    0.0000 O   0  3  0  0  0  0  0  0  0  0  0  0
    8.6494   -4.9500    0.0000 C   0  0  0  0  0  0  0  0  0  0  0  0
    8.6494   -4.1250    0.0000 C   0  0  0  0  0  0  0  0  0  0  0  0
    9.3639   -5.3625    0.0000 C   0  0  0  0  0  0  0  0  0  0  0  0
   10.0783   -4.9500    0.0000 C   0  0  0  0  0  0  0  0  0  0  0  0
   10.0783   -4.1250    0.0000 C   0  0  0  0  0  0  0  0  0  0  0  0
    9.3639   -3.7125    0.0000 C   0  0  0  0  0  0  0  0  0  0  0  0
    4.3626   -7.4250    0.0000 O   0  0  0  0  0  0  0  0  0  0  0  0
    5.0770   -7.8375    0.0000 C   0  0  1  0  0  0  0  0  0  0  0  0
    5.7915   -7.4250    0.0000 O   0  0  0  0  0  0  0  0  0  0  0  0
    3.6481   -7.8375    0.0000 C   0  0  1  0  0  0  0  0  0  0  0  0
    3.6481   -8.6625    0.0000 C   0  0  2  0  0  0  0  0  0  0  0  0
    4.3626   -9.0750    0.0000 C   0  0  1  0  0  0  0  0  0  0  0  0
    5.0770   -8.6625    0.0000 C   0  0  1  0  0  0  0  0  0  0  0  0
    7.9349   -7.8375    0.0000 O   0  0  0  0  0  0  0  0  0  0  0  0
    8.6494   -7.4250    0.0000 C   0  0  1  0  0  0  0  0  0  0  0  0
    8.6494   -6.6000    0.0000 O   0  0  0  0  0  0  0  0  0  0  0  0
    7.9349   -8.6625    0.0000 C   0  0  1  0  0  0  0  0  0  0  0  0
    8.6494   -9.0750    0.0000 C   0  0  2  0  0  0  0  0  0  0  0  0
    9.3639   -8.6625    0.0000 C   0  0  1  0  0  0  0  0  0  0  0  0
    9.3639   -7.8375    0.0000 C   0  0  1  0  0  0  0  0  0  0  0  0
    2.9336   -7.4250    0.0000 C   0  0  0  0  0  0  0  0  0  0  0  0
    2.2191   -7.8375    0.0000 O   0  0  0  0  0  0  0  0  0  0  0  0
    4.3626   -4.9500    0.0000 O   0  0  0  0  0  0  0  0  0  0  0  0
    7.2204   -9.0750    0.0000 C   0  0  0  0  0  0  0  0  0  0  0  0
    7.2204   -9.9000    0.0000 O   0  0  0  0  0  0  0  0  0  0  0  0
   10.7928   -3.7125    0.0000 O   0  0  0  0  0  0  0  0  0  0  0  0
    4.3626   -9.9000    0.0000 O   0  0  0  0  0  0  0  0  0  0  0  0
   10.0783   -9.0750    0.0000 O   0  0  0  0  0  0  0  0  0  0  0  0
    2.9336   -9.0750    0.0000 O   0  0  0  0  0  0  0  0  0  0  0  0
    5.7915   -9.0750    0.0000 O   0  0  0  0  0  0  0  0  0  0  0  0
    8.6494   -9.9000    0.0000 O   0  0  0  0  0  0  0  0  0  0  0  0
   10.0783   -7.4250    0.0000 O   0  0  0  0  0  0  0  0  0  0  0  0
  1  2  2  0  0  0  0
  2  3  1  0  0  0  0
  3  4  2  0  0  0  0
  4  5  1  0  0  0  0
  5  6  2  0  0  0  0
  6  1  1  0  0  0  0
  4  7  1  0  0  0  0
  7  8  2  0  0  0  0
  8  9  1  0  0  0  0
  9 10  2  0  0  0  0
 10  5  1  0  0  0  0
  9 11  1  0  0  0  0
 11 12  1  0  0  0  0
 11 13  2  0  0  0  0
 13 14  1  0  0  0  0
 14 15  2  0  0  0  0
 15 16  1  0  0  0  0
 16 12  2  0  0  0  0
 17 18  1  0  0  0  0
 18 19  1  1  0  0  0
 19  3  1  0  0  0  0
 17 20  1  0  0  0  0
 20 21  1  0  0  0  0
 21 22  1  0  0  0  0
 22 23  1  0  0  0  0
 23 18  1  0  0  0  0
 24 25  1  0  0  0  0
 25 26  1  1  0  0  0
 26  8  1  0  0  0  0
 24 27  1  0  0  0  0
 27 28  1  0  0  0  0
 28 29  1  0  0  0  0
 29 30  1  0  0  0  0
 30 25  1  0  0  0  0
 20 31  1  1  0  0  0
 31 32  1  0  0  0  0
  1 33  1  0  0  0  0
 27 34  1  1  0  0  0
 34 35  1  0  0  0  0
 15 36  1  0  0  0  0
 22 37  1  1  0  0  0
 29 38  1  1  0  0  0
 21 39  1  6  0  0  0
 23 40  1  6  0  0  0
 28 41  1  6  0  0  0
 30 42  1  6  0  0  0
M  CHG  1  10   1
M  END
>  <cdx:fragmentId>
5

$$$$
