142456.cdx
  Mrv1902 05222410262D          

 71 78  0  0  0  0            999 V2000
    6.7963   -8.7801    0.0000 C   0  0  1  0  0  0  0  0  0  0  0  0
    7.4869   -9.2315    0.0000 C   0  0  2  0  0  0  0  0  0  0  0  0
    8.3109   -9.1906    0.0000 O   0  0  0  0  0  0  0  0  0  0  0  0
    8.6486   -8.4379    0.0000 C   0  0  0  0  0  0  0  0  0  0  0  0
    9.4197   -8.1445    0.0000 C   0  0  0  0  0  0  0  0  0  0  0  0
    9.3358   -7.3238    0.0000 C   0  0  0  0  0  0  0  0  0  0  0  0
   10.0046   -6.8407    0.0000 C   0  0  0  0  0  0  0  0  0  0  0  0
   10.7573   -7.1785    0.0000 C   0  0  0  0  0  0  0  0  0  0  0  0
   10.8412   -7.9992    0.0000 C   0  0  0  0  0  0  0  0  0  0  0  0
   10.1724   -8.4822    0.0000 C   0  0  0  0  0  0  0  0  0  0  0  0
   10.4658   -9.2532    0.0000 C   0  0  0  0  0  0  0  0  0  0  0  0
   11.2866   -9.1693    0.0000 C   0  0  0  0  0  0  0  0  0  0  0  0
   11.7696   -9.8382    0.0000 C   0  0  0  0  0  0  0  0  0  0  0  0
   11.4319  -10.5909    0.0000 C   0  0  0  0  0  0  0  0  0  0  0  0
   10.6111  -10.6748    0.0000 C   0  0  0  0  0  0  0  0  0  0  0  0
   10.1281  -10.0059    0.0000 C   0  0  0  0  0  0  0  0  0  0  0  0
    9.3571  -10.2994    0.0000 C   0  0  0  0  0  0  0  0  0  0  0  0
    8.6044   -9.9617    0.0000 O   0  0  0  0  0  0  0  0  0  0  0  0
    7.9617  -10.4790    0.0000 C   0  0  0  0  0  0  0  0  0  0  0  0
    7.2711  -10.0277    0.0000 C   0  0  1  0  0  0  0  0  0  0  0  0
    6.4471  -10.0685    0.0000 O   0  0  0  0  0  0  0  0  0  0  0  0
    6.1094  -10.8213    0.0000 C   0  0  0  0  0  0  0  0  0  0  0  0
    5.3384  -11.1147    0.0000 C   0  0  0  0  0  0  0  0  0  0  0  0
    5.4223  -11.9354    0.0000 C   0  0  0  0  0  0  0  0  0  0  0  0
    4.7534  -12.4184    0.0000 C   0  0  0  0  0  0  0  0  0  0  0  0
    4.0007  -12.0807    0.0000 C   0  0  0  0  0  0  0  0  0  0  0  0
    3.9168  -11.2600    0.0000 C   0  0  0  0  0  0  0  0  0  0  0  0
    4.5857  -10.7770    0.0000 C   0  0  0  0  0  0  0  0  0  0  0  0
    4.2922  -10.0059    0.0000 C   0  0  0  0  0  0  0  0  0  0  0  0
    3.4717  -10.0913    0.0000 C   0  0  0  0  0  0  0  0  0  0  0  0
    2.9867   -9.4239    0.0000 C   0  0  0  0  0  0  0  0  0  0  0  0
    3.3233   -8.6706    0.0000 C   0  0  0  0  0  0  0  0  0  0  0  0
    4.1440   -8.5865    0.0000 C   0  0  0  0  0  0  0  0  0  0  0  0
    4.3622   -7.7909    0.0000 C   0  0  0  0  0  0  0  0  0  0  0  0
    3.7014   -7.2971    0.0000 C   0  0  0  0  0  0  0  0  0  0  0  0
    3.7986   -6.4778    0.0000 C   0  0  0  0  0  0  0  0  0  0  0  0
    4.5567   -6.1524    0.0000 C   0  0  0  0  0  0  0  0  0  0  0  0
    5.2176   -6.6463    0.0000 C   0  0  0  0  0  0  0  0  0  0  0  0
    5.1204   -7.4655    0.0000 C   0  0  0  0  0  0  0  0  0  0  0  0
    5.8474   -7.8554    0.0000 C   0  0  0  0  0  0  0  0  0  0  0  0
    6.5733   -7.4633    0.0000 O   0  0  0  0  0  0  0  0  0  0  0  0
    7.1705   -8.0325    0.0000 C   0  0  1  0  0  0  0  0  0  0  0  0
    6.1537   -9.2975    0.0000 O   0  0  0  0  0  0  0  0  0  0  0  0
    5.4010   -8.9598    0.0000 C   0  0  0  0  0  0  0  0  0  0  0  0
    4.6299   -9.2532    0.0000 C   0  0  0  0  0  0  0  0  0  0  0  0
    7.9820   -7.8839    0.0000 C   0  0  0  0  0  0  0  0  0  0  0  0
    8.2591   -7.1069    0.0000 O   0  0  0  0  0  0  0  0  0  0  0  0
    8.5164   -8.5125    0.0000 O   0  0  0  0  0  0  0  0  0  0  0  0
    5.4010   -8.1348    0.0000 O   0  0  0  0  0  0  0  0  0  0  0  0
    5.8474   -8.6804    0.0000 O   0  0  0  0  0  0  0  0  0  0  0  0
    6.6756  -11.4213    0.0000 O   0  0  0  0  0  0  0  0  0  0  0  0
    9.3571  -11.1244    0.0000 O   0  0  0  0  0  0  0  0  0  0  0  0
    8.1953   -7.7487    0.0000 O   0  0  0  0  0  0  0  0  0  0  0  0
    4.6540   -5.3332    0.0000 O   0  0  0  0  0  0  0  0  0  0  0  0
    3.1377   -5.9840    0.0000 O   0  0  0  0  0  0  0  0  0  0  0  0
    2.8983   -7.4859    0.0000 O   0  0  0  0  0  0  0  0  0  0  0  0
    2.7310   -8.0964    0.0000 O   0  0  0  0  0  0  0  0  0  0  0  0
    2.1662   -9.5095    0.0000 O   0  0  0  0  0  0  0  0  0  0  0  0
    2.8982  -10.6844    0.0000 O   0  0  0  0  0  0  0  0  0  0  0  0
    3.0940  -11.2001    0.0000 O   0  0  0  0  0  0  0  0  0  0  0  0
    3.3319  -12.5637    0.0000 O   0  0  0  0  0  0  0  0  0  0  0  0
    4.8373  -13.2392    0.0000 O   0  0  0  0  0  0  0  0  0  0  0  0
   11.9149  -11.2597    0.0000 O   0  0  0  0  0  0  0  0  0  0  0  0
   12.5903   -9.7543    0.0000 O   0  0  0  0  0  0  0  0  0  0  0  0
   11.8614   -8.5775    0.0000 O   0  0  0  0  0  0  0  0  0  0  0  0
   11.6640   -8.0591    0.0000 O   0  0  0  0  0  0  0  0  0  0  0  0
   11.4262   -6.6954    0.0000 O   0  0  0  0  0  0  0  0  0  0  0  0
    9.9207   -6.0200    0.0000 O   0  0  0  0  0  0  0  0  0  0  0  0
    7.5433   -8.4299    0.0000 H   0  0  0  0  0  0  0  0  0  0  0  0
    7.9621   -8.5570    0.0000 H   0  0  0  0  0  0  0  0  0  0  0  0
    7.0553  -10.8240    0.0000 H   0  0  0  0  0  0  0  0  0  0  0  0
  1  2  1  0  0  0  0
  2  3  1  0  0  0  0
  3  4  1  0  0  0  0
  4  5  1  0  0  0  0
  5  6  2  0  0  0  0
  6  7  1  0  0  0  0
  7  8  2  0  0  0  0
  8  9  1  0  0  0  0
  9 10  2  0  0  0  0
 10 11  1  0  0  0  0
 11 12  2  0  0  0  0
 12 13  1  0  0  0  0
 13 14  2  0  0  0  0
 14 15  1  0  0  0  0
 15 16  2  0  0  0  0
 16 17  1  0  0  0  0
 17 18  1  0  0  0  0
 18 19  1  0  0  0  0
 19 20  1  0  0  0  0
 20 21  1  0  0  0  0
 21 22  1  0  0  0  0
 22 23  1  0  0  0  0
 23 24  2  0  0  0  0
 24 25  1  0  0  0  0
 25 26  2  0  0  0  0
 26 27  1  0  0  0  0
 27 28  2  0  0  0  0
 28 29  1  0  0  0  0
 29 30  1  0  0  0  0
 30 31  2  0  0  0  0
 31 32  1  0  0  0  0
 32 33  2  0  0  0  0
 33 34  1  0  0  0  0
 34 35  2  0  0  0  0
 35 36  1  0  0  0  0
 36 37  2  0  0  0  0
 37 38  1  0  0  0  0
 38 39  2  0  0  0  0
 39 40  1  0  0  0  0
 40 41  1  0  0  0  0
 41 42  1  0  0  0  0
 43 44  1  0  0  0  0
 44 45  1  0  0  0  0
  1 42  1  0  0  0  0
  1 43  1  0  0  0  0
 45 29  2  0  0  0  0
 34 39  1  0  0  0  0
 23 28  1  0  0  0  0
  2 20  1  0  0  0  0
 11 16  1  0  0  0  0
  5 10  1  0  0  0  0
 33 45  1  0  0  0  0
 46 47  2  0  0  0  0
 46 48  1  0  0  0  0
 42 46  1  1  0  0  0
 44 49  2  0  0  0  0
 40 50  2  0  0  0  0
 22 51  2  0  0  0  0
 17 52  2  0  0  0  0
  4 53  2  0  0  0  0
 37 54  1  0  0  0  0
 36 55  1  0  0  0  0
 35 56  1  0  0  0  0
 32 57  1  0  0  0  0
 31 58  1  0  0  0  0
 30 59  1  0  0  0  0
 27 60  1  0  0  0  0
 26 61  1  0  0  0  0
 25 62  1  0  0  0  0
 14 63  1  0  0  0  0
 13 64  1  0  0  0  0
 12 65  1  0  0  0  0
  9 66  1  0  0  0  0
  8 67  1  0  0  0  0
  7 68  1  0  0  0  0
  1 69  1  1  0  0  0
  2 70  1  1  0  0  0
 20 71  1  6  0  0  0
M  END
>  <cdx:groupId>
121672

>  <cdx:fragmentId>
121455

$$$$
