14259.cdx
  Mrv1902 05222410282D          

 23 22  0  0  0  0            999 V2000
   13.7620   -3.8852    0.0000 C   0  0  0  0  0  0  0  0  0  0  0  0
   13.0475   -4.2977    0.0000 C   0  0  0  0  0  0  0  0  0  0  0  0
   12.3331   -3.8852    0.0000 C   0  0  0  0  0  0  0  0  0  0  0  0
   11.6186   -4.2977    0.0000 C   0  0  0  0  0  0  0  0  0  0  0  0
   10.9041   -3.8852    0.0000 C   0  0  0  0  0  0  0  0  0  0  0  0
   10.1896   -4.2977    0.0000 C   0  0  0  0  0  0  0  0  0  0  0  0
    9.4752   -3.8852    0.0000 C   0  0  0  0  0  0  0  0  0  0  0  0
    8.7607   -4.2977    0.0000 C   0  0  0  0  0  0  0  0  0  0  0  0
    8.0462   -3.8852    0.0000 C   0  0  0  0  0  0  0  0  0  0  0  0
    7.3318   -4.2977    0.0000 C   0  0  0  0  0  0  0  0  0  0  0  0
    6.6173   -3.8852    0.0000 C   0  0  0  0  0  0  0  0  0  0  0  0
    5.9028   -4.2977    0.0000 C   0  0  0  0  0  0  0  0  0  0  0  0
    5.1884   -3.8852    0.0000 C   0  0  0  0  0  0  0  0  0  0  0  0
    4.4739   -4.2977    0.0000 C   0  0  0  0  0  0  0  0  0  0  0  0
    3.7594   -3.8852    0.0000 C   0  0  0  0  0  0  0  0  0  0  0  0
    3.0449   -4.2977    0.0000 C   0  0  0  0  0  0  0  0  0  0  0  0
    2.3305   -3.8852    0.0000 C   0  0  0  0  0  0  0  0  0  0  0  0
    1.6160   -4.2977    0.0000 C   0  0  0  0  0  0  0  0  0  0  0  0
    0.9015   -3.8852    0.0000 C   0  0  0  0  0  0  0  0  0  0  0  0
    0.1871   -4.2977    0.0000 C   0  0  0  0  0  0  0  0  0  0  0  0
   13.7620   -3.0602    0.0000 O   0  0  0  0  0  0  0  0  0  0  0  0
   14.4765   -4.2977    0.0000 O   0  0  0  0  0  0  0  0  0  0  0  0
   15.1909   -3.8852    0.0000 C   0  0  0  0  0  0  0  0  0  0  0  0
  1  2  1  0  0  0  0
  2  3  1  0  0  0  0
  3  4  1  0  0  0  0
  4  5  1  0  0  0  0
  5  6  1  0  0  0  0
  6  7  1  0  0  0  0
  7  8  1  0  0  0  0
  8  9  1  0  0  0  0
  9 10  1  0  0  0  0
 10 11  1  0  0  0  0
 11 12  1  0  0  0  0
 12 13  1  0  0  0  0
 13 14  1  0  0  0  0
 14 15  1  0  0  0  0
 15 16  1  0  0  0  0
 16 17  1  0  0  0  0
 17 18  1  0  0  0  0
 18 19  1  0  0  0  0
 19 20  1  0  0  0  0
  1 21  2  0  0  0  0
  1 22  1  0  0  0  0
 22 23  1  0  0  0  0
M  END
>  <cdx:groupId>
70

>  <cdx:fragmentId>
5

$$$$
