14266.cdx
  Mrv1902 05222410272D          

  7  7  0  0  0  0            999 V2000
    3.9849   -2.6971    0.0000 C   0  0  0  0  0  0  0  0  0  0  0  0
    3.9849   -3.5221    0.0000 C   0  0  0  0  0  0  0  0  0  0  0  0
    3.2003   -3.7771    0.0000 C   0  0  0  0  0  0  0  0  0  0  0  0
    2.7154   -3.1096    0.0000 C   0  0  0  0  0  0  0  0  0  0  0  0
    3.2003   -2.4422    0.0000 C   0  0  0  0  0  0  0  0  0  0  0  0
    4.6524   -4.0070    0.0000 C   0  0  0  0  0  0  0  0  0  0  0  0
    4.6524   -2.2122    0.0000 O   0  0  0  0  0  0  0  0  0  0  0  0
  1  2  1  0  0  0  0
  2  3  2  0  0  0  0
  3  4  1  0  0  0  0
  4  5  1  0  0  0  0
  1  5  1  0  0  0  0
  2  6  1  0  0  0  0
  1  7  2  0  0  0  0
M  END
>  <cdx:groupId>
23

>  <cdx:fragmentId>
5

$$$$
