14272.cdx
  Mrv1902 05222410272D          

  8  8  0  0  0  0            999 V2000
    7.1287   -4.9413    0.0000 C   0  0  0  0  0  0  0  0  0  0  0  0
    7.1287   -5.7663    0.0000 C   0  0  0  0  0  0  0  0  0  0  0  0
    6.4142   -6.1788    0.0000 C   0  0  0  0  0  0  0  0  0  0  0  0
    5.6997   -5.7663    0.0000 C   0  0  0  0  0  0  0  0  0  0  0  0
    5.6997   -4.9413    0.0000 C   0  0  0  0  0  0  0  0  0  0  0  0
    6.4142   -4.5288    0.0000 N   0  0  0  0  0  0  0  0  0  0  0  0
    7.8432   -6.1788    0.0000 C   0  0  0  0  0  0  0  0  0  0  0  0
    8.5576   -5.7663    0.0000 C   0  0  0  0  0  0  0  0  0  0  0  0
  1  2  1  0  0  0  0
  2  3  2  0  0  0  0
  3  4  1  0  0  0  0
  4  5  2  0  0  0  0
  5  6  1  0  0  0  0
  1  6  2  0  0  0  0
  7  8  2  0  0  0  0
  2  7  1  0  0  0  0
M  END
>  <cdx:fragmentId>
5

$$$$
