14278.cdx
  Mrv1902 05222410202D          

 22 24  0  0  0  0            999 V2000
    3.4270   -7.0125    0.0000 C   0  0  0  0  0  0  0  0  0  0  0  0
    3.4270   -7.8375    0.0000 C   0  0  0  0  0  0  0  0  0  0  0  0
    4.1415   -8.2500    0.0000 C   0  0  0  0  0  0  0  0  0  0  0  0
    4.8560   -7.8375    0.0000 C   0  0  0  0  0  0  0  0  0  0  0  0
    4.8560   -7.0125    0.0000 C   0  0  0  0  0  0  0  0  0  0  0  0
    4.1415   -6.6000    0.0000 C   0  0  0  0  0  0  0  0  0  0  0  0
    5.5704   -8.2500    0.0000 O   0  0  0  0  0  0  0  0  0  0  0  0
    6.2849   -7.8375    0.0000 C   0  0  0  0  0  0  0  0  0  0  0  0
    6.2849   -7.0125    0.0000 C   0  0  0  0  0  0  0  0  0  0  0  0
    5.5704   -6.6000    0.0000 C   0  0  0  0  0  0  0  0  0  0  0  0
    6.9994   -8.2500    0.0000 C   0  0  0  0  0  0  0  0  0  0  0  0
    7.7139   -7.8375    0.0000 C   0  0  0  0  0  0  0  0  0  0  0  0
    6.9994   -6.6000    0.0000 O   0  0  0  0  0  0  0  0  0  0  0  0
    6.9994   -9.0750    0.0000 C   0  0  0  0  0  0  0  0  0  0  0  0
    7.7139   -9.4875    0.0000 C   0  0  0  0  0  0  0  0  0  0  0  0
    8.4283   -9.0750    0.0000 C   0  0  0  0  0  0  0  0  0  0  0  0
    8.4283   -8.2500    0.0000 C   0  0  0  0  0  0  0  0  0  0  0  0
    2.7126   -6.6000    0.0000 O   0  0  0  0  0  0  0  0  0  0  0  0
    5.5704   -5.7750    0.0000 O   0  0  0  0  0  0  0  0  0  0  0  0
    6.2849   -9.4875    0.0000 O   0  0  0  0  0  0  0  0  0  0  0  0
    9.1428   -7.8375    0.0000 O   0  0  0  0  0  0  0  0  0  0  0  0
    9.1428   -9.4875    0.0000 O   0  0  0  0  0  0  0  0  0  0  0  0
  1  2  1  0  0  0  0
  2  3  2  0  0  0  0
  3  4  1  0  0  0  0
  4  5  2  0  0  0  0
  5  6  1  0  0  0  0
  6  1  2  0  0  0  0
  4  7  1  0  0  0  0
  7  8  1  0  0  0  0
  8  9  2  0  0  0  0
  9 10  1  0  0  0  0
 10  5  1  0  0  0  0
  8 11  1  0  0  0  0
 11 12  2  0  0  0  0
 13  9  1  0  0  0  0
 11 14  1  0  0  0  0
 14 15  2  0  0  0  0
 15 16  1  0  0  0  0
 16 17  2  0  0  0  0
 17 12  1  0  0  0  0
  1 18  1  0  0  0  0
 10 19  2  0  0  0  0
 14 20  1  0  0  0  0
 17 21  1  0  0  0  0
 16 22  1  0  0  0  0
M  END
>  <cdx:fragmentId>
5

$$$$
