14275.cdx
  Mrv1902 05222410262D          

  8  8  0  0  0  0            999 V2000
    4.3633   -1.8904    0.0000 C   0  0  0  0  0  0  0  0  0  0  0  0
    5.0777   -2.3029    0.0000 C   0  0  0  0  0  0  0  0  0  0  0  0
    5.0777   -3.1279    0.0000 C   0  0  0  0  0  0  0  0  0  0  0  0
    4.3633   -3.5404    0.0000 C   0  0  0  0  0  0  0  0  0  0  0  0
    3.6488   -3.1279    0.0000 C   0  0  0  0  0  0  0  0  0  0  0  0
    3.6488   -2.3029    0.0000 N   0  0  0  0  0  0  0  0  0  0  0  0
    5.7922   -1.8904    0.0000 O   0  0  0  0  0  0  0  0  0  0  0  0
    2.9343   -3.5404    0.0000 C   0  0  0  0  0  0  0  0  0  0  0  0
  1  2  1  0  0  0  0
  2  3  2  0  0  0  0
  3  4  1  0  0  0  0
  4  5  2  0  0  0  0
  5  6  1  0  0  0  0
  1  6  2  0  0  0  0
  2  7  1  0  0  0  0
  5  8  1  0  0  0  0
M  END
>  <cdx:groupId>
26

>  <cdx:fragmentId>
5

$$$$
