14285.cdx
  Mrv1902 05222410192D          

 27 29  0  0  0  0            999 V2000
    8.1338   -5.7131    0.0000 C   0  0  0  0  0  0  0  0  0  0  0  0
    8.8482   -6.1256    0.0000 O   0  0  0  0  0  0  0  0  0  0  0  0
   10.9916   -7.3631    0.0000 C   0  0  0  0  0  0  0  0  0  0  0  0
   10.2772   -6.9506    0.0000 O   0  0  0  0  0  0  0  0  0  0  0  0
    6.7048  -10.6631    0.0000 O   0  0  0  0  0  0  0  0  0  0  0  0
    3.8469   -8.1881    0.0000 O   0  0  0  0  0  0  0  0  0  0  0  0
    4.5614  -11.0756    0.0000 C   0  0  0  0  0  0  0  0  0  0  0  0
    5.2759  -10.6631    0.0000 O   0  0  0  0  0  0  0  0  0  0  0  0
    9.5627   -8.1881    0.0000 C   0  0  0  0  0  0  0  0  0  0  0  0
    9.5627   -7.3631    0.0000 C   0  0  0  0  0  0  0  0  0  0  0  0
    8.8482   -6.9506    0.0000 C   0  0  0  0  0  0  0  0  0  0  0  0
    8.1338   -7.3631    0.0000 C   0  0  0  0  0  0  0  0  0  0  0  0
    8.8482   -8.6006    0.0000 C   0  0  0  0  0  0  0  0  0  0  0  0
    8.1338   -8.1881    0.0000 C   0  0  0  0  0  0  0  0  0  0  0  0
    6.7048   -9.8381    0.0000 C   0  0  0  0  0  0  0  0  0  0  0  0
    7.4193   -9.4256    0.0000 C   0  0  0  0  0  0  0  0  0  0  0  0
    7.4193   -8.6006    0.0000 C   0  0  0  0  0  0  0  0  0  0  0  0
    6.7048   -8.1881    0.0000 O   0  0  0  0  0  0  0  0  0  0  0  0
    5.2759   -9.8381    0.0000 C   0  0  0  0  0  0  0  0  0  0  0  0
    5.9903   -9.4256    0.0000 C   0  0  0  0  0  0  0  0  0  0  0  0
    5.9903   -8.6006    0.0000 C   0  0  0  0  0  0  0  0  0  0  0  0
    5.2759   -8.1881    0.0000 C   0  0  0  0  0  0  0  0  0  0  0  0
    4.5614   -8.6006    0.0000 C   0  0  0  0  0  0  0  0  0  0  0  0
    4.5614   -9.4256    0.0000 C   0  0  0  0  0  0  0  0  0  0  0  0
    3.8469   -9.8381    0.0000 O   0  0  0  0  0  0  0  0  0  0  0  0
    3.1325   -9.4256    0.0000 C   0  0  0  0  0  0  0  0  0  0  0  0
    3.8469   -7.3631    0.0000 C   0  0  0  0  0  0  0  0  0  0  0  0
  2  1  1  0  0  0  0
 11  2  1  0  0  0  0
  4  3  1  0  0  0  0
 10  4  1  0  0  0  0
 15  5  2  0  0  0  0
 23  6  1  0  0  0  0
  8  7  1  0  0  0  0
 19  8  1  0  0  0  0
  9 13  2  0  0  0  0
 10  9  1  0  0  0  0
 11 10  2  0  0  0  0
 12 11  1  0  0  0  0
 14 12  2  0  0  0  0
 14 13  1  0  0  0  0
 17 14  1  0  0  0  0
 15 20  1  0  0  0  0
 16 15  1  0  0  0  0
 17 16  1  0  0  0  0
 18 17  1  0  0  0  0
 21 18  1  0  0  0  0
 19 24  2  0  0  0  0
 20 19  1  0  0  0  0
 21 20  2  0  0  0  0
 22 21  1  0  0  0  0
 23 22  2  0  0  0  0
 24 23  1  0  0  0  0
 24 25  1  0  0  0  0
 25 26  1  0  0  0  0
  6 27  1  0  0  0  0
M  END
>  <cdx:fragmentId>
5

$$$$
