14289.cdx
  Mrv1902 05222410272D          

 22 22  0  0  0  0            999 V2000
    5.7667   -9.8450    0.0000 C   0  0  0  0  0  0  0  0  0  0  0  0
    5.0522  -10.2575    0.0000 C   0  0  0  0  0  0  0  0  0  0  0  0
    4.3378   -9.8450    0.0000 C   0  0  0  0  0  0  0  0  0  0  0  0
    3.6233  -10.2575    0.0000 C   0  0  0  0  0  0  0  0  0  0  0  0
    2.9088   -9.8450    0.0000 C   0  0  0  0  0  0  0  0  0  0  0  0
    5.7667   -9.0200    0.0000 O   0  0  0  0  0  0  0  0  0  0  0  0
    6.4812  -10.2575    0.0000 O   0  0  0  0  0  0  0  0  0  0  0  0
    7.1956   -9.8450    0.0000 C   0  0  0  0  0  0  0  0  0  0  0  0
    7.1956   -9.0200    0.0000 C   0  0  0  0  0  0  0  0  0  0  0  0
    7.9101   -8.6075    0.0000 C   0  0  0  0  0  0  0  0  0  0  0  0
    8.6246   -9.0200    0.0000 C   0  0  0  0  0  0  0  0  0  0  0  0
    8.6246   -9.8450    0.0000 C   0  0  0  0  0  0  0  0  0  0  0  0
    7.9101  -10.2575    0.0000 C   0  0  0  0  0  0  0  0  0  0  0  0
    9.3391   -8.6075    0.0000 C   0  0  0  0  0  0  0  0  0  0  0  0
   10.0535   -9.0200    0.0000 C   0  0  0  0  0  0  0  0  0  0  0  0
   10.7680   -8.6075    0.0000 C   0  0  0  0  0  0  0  0  0  0  0  0
   11.4825   -9.0200    0.0000 C   0  0  0  0  0  0  0  0  0  0  0  0
    6.4812   -8.6075    0.0000 C   0  0  0  0  0  0  0  0  0  0  0  0
    6.4812   -7.7825    0.0000 C   0  0  0  0  0  0  0  0  0  0  0  0
    5.7667   -7.3700    0.0000 C   0  0  0  0  0  0  0  0  0  0  0  0
    5.7667   -6.5450    0.0000 C   0  0  0  0  0  0  0  0  0  0  0  0
    9.3391  -10.2575    0.0000 O   0  0  0  0  0  0  0  0  0  0  0  0
  1  2  1  0  0  0  0
  2  3  1  0  0  0  0
  3  4  1  0  0  0  0
  4  5  1  0  0  0  0
  1  6  2  0  0  0  0
  1  7  1  0  0  0  0
  8  9  1  0  0  0  0
  9 10  2  0  0  0  0
 10 11  1  0  0  0  0
 11 12  2  0  0  0  0
 12 13  1  0  0  0  0
  8 13  2  0  0  0  0
 14 15  1  0  0  0  0
 15 16  1  0  0  0  0
 16 17  1  0  0  0  0
 11 14  1  0  0  0  0
 18 19  1  0  0  0  0
 19 20  1  0  0  0  0
 20 21  1  0  0  0  0
  9 18  1  0  0  0  0
 12 22  1  0  0  0  0
  7  8  1  0  0  0  0
M  END
>  <cdx:fragmentId>
19

$$$$
