14296.cdx
  Mrv1902 05222410182D          

 10 10  0  0  0  0            999 V2000
    4.4435   -1.6162    0.0000 C   0  0  0  0  0  0  0  0  0  0  0  0
    4.4435   -2.4412    0.0000 C   0  0  0  0  0  0  0  0  0  0  0  0
    3.7290   -1.2037    0.0000 N   0  0  0  0  0  0  0  0  0  0  0  0
    3.7290   -2.8537    0.0000 N   0  0  0  0  0  0  0  0  0  0  0  0
    3.0145   -2.4412    0.0000 C   0  0  0  0  0  0  0  0  0  0  0  0
    3.0145   -1.6162    0.0000 C   0  0  0  0  0  0  0  0  0  0  0  0
    2.3001   -1.2037    0.0000 C   0  0  0  0  0  0  0  0  0  0  0  0
    2.3001   -2.8537    0.0000 C   0  0  0  0  0  0  0  0  0  0  0  0
    5.1579   -2.8537    0.0000 C   0  0  0  0  0  0  0  0  0  0  0  0
    5.1579   -1.2037    0.0000 C   0  0  0  0  0  0  0  0  0  0  0  0
  1  2  1  0  0  0  0
  1  3  2  0  0  0  0
  2  4  2  0  0  0  0
  4  5  1  0  0  0  0
  5  6  2  0  0  0  0
  3  6  1  0  0  0  0
  6  7  1  0  0  0  0
  5  8  1  0  0  0  0
  2  9  1  0  0  0  0
  1 10  1  0  0  0  0
M  END
>  <cdx:groupId>
32

>  <cdx:fragmentId>
5

$$$$
