14291.cdx
  Mrv1902 05222410192D          

  9  9  0  0  0  0            999 V2000
    5.0490   -3.8923    0.0000 C   0  0  0  0  0  0  0  0  0  0  0  0
    4.3345   -3.4798    0.0000 C   0  0  0  0  0  0  0  0  0  0  0  0
    4.3345   -2.6548    0.0000 C   0  0  0  0  0  0  0  0  0  0  0  0
    5.0490   -2.2423    0.0000 C   0  0  0  0  0  0  0  0  0  0  0  0
    5.7635   -2.6548    0.0000 C   0  0  0  0  0  0  0  0  0  0  0  0
    5.7635   -3.4798    0.0000 C   0  0  0  0  0  0  0  0  0  0  0  0
    5.0490   -4.7173    0.0000 O   0  0  0  0  0  0  0  0  0  0  0  0
    6.4779   -2.2423    0.0000 C   0  0  0  0  0  0  0  0  0  0  0  0
    3.6201   -2.2423    0.0000 C   0  0  0  0  0  0  0  0  0  0  0  0
  1  2  1  0  0  0  0
  2  3  2  0  0  0  0
  3  4  1  0  0  0  0
  4  5  1  0  0  0  0
  5  6  1  0  0  0  0
  1  6  1  0  0  0  0
  1  7  2  0  0  0  0
  5  8  1  0  0  0  0
  3  9  1  0  0  0  0
M  END
>  <cdx:groupId>
29

>  <cdx:fragmentId>
5

$$$$
