143.cdx
  Mrv1902 05222410242D          

 20 22  0  0  0  0            999 V2000
    5.0152   -4.9088    0.0000 C   0  0  0  0  0  0  0  0  0  0  0  0
    5.0152   -5.7338    0.0000 C   0  0  0  0  0  0  0  0  0  0  0  0
    5.7296   -6.1463    0.0000 C   0  0  0  0  0  0  0  0  0  0  0  0
    6.4441   -5.7338    0.0000 C   0  0  0  0  0  0  0  0  0  0  0  0
    6.4441   -4.9088    0.0000 C   0  0  0  0  0  0  0  0  0  0  0  0
    5.7296   -4.4962    0.0000 C   0  0  0  0  0  0  0  0  0  0  0  0
    7.1586   -6.1463    0.0000 C   0  0  0  0  0  0  0  0  0  0  0  0
    7.8730   -5.7338    0.0000 C   0  0  0  0  0  0  0  0  0  0  0  0
    7.8730   -4.9088    0.0000 C   0  0  2  0  0  0  0  0  0  0  0  0
    7.1586   -4.4962    0.0000 O   0  0  0  0  0  0  0  0  0  0  0  0
    8.5875   -4.4962    0.0000 C   0  0  0  0  0  0  0  0  0  0  0  0
    9.3020   -4.9088    0.0000 C   0  0  0  0  0  0  0  0  0  0  0  0
   10.0165   -4.4962    0.0000 C   0  0  0  0  0  0  0  0  0  0  0  0
   10.0165   -3.6713    0.0000 C   0  0  0  0  0  0  0  0  0  0  0  0
    9.3020   -3.2588    0.0000 C   0  0  0  0  0  0  0  0  0  0  0  0
    8.5875   -3.6713    0.0000 C   0  0  0  0  0  0  0  0  0  0  0  0
    4.3007   -4.4962    0.0000 O   0  0  0  0  0  0  0  0  0  0  0  0
    5.7296   -6.9712    0.0000 O   0  0  0  0  0  0  0  0  0  0  0  0
    7.1586   -6.9712    0.0000 O   0  0  0  0  0  0  0  0  0  0  0  0
    5.0152   -7.3838    0.0000 C   0  0  0  0  0  0  0  0  0  0  0  0
  1  2  2  0  0  0  0
  2  3  1  0  0  0  0
  3  4  2  0  0  0  0
  4  5  1  0  0  0  0
  5  6  2  0  0  0  0
  6  1  1  0  0  0  0
  4  7  1  0  0  0  0
  7  8  1  0  0  0  0
  8  9  1  0  0  0  0
  9 10  1  0  0  0  0
 10  5  1  0  0  0  0
 11 12  2  0  0  0  0
 12 13  1  0  0  0  0
 13 14  2  0  0  0  0
 14 15  1  0  0  0  0
 15 16  2  0  0  0  0
 16 11  1  0  0  0  0
  1 17  1  0  0  0  0
  3 18  1  0  0  0  0
  7 19  2  0  0  0  0
  9 11  1  6  0  0  0
 18 20  1  0  0  0  0
M  END
>  <cdx:fragmentId>
5

$$$$
