14328.cdx
  Mrv1902 05222410262D          

 13 13  0  0  0  0            999 V2000
    8.8567   -4.2083    0.0000 C   0  0  0  0  0  0  0  0  0  0  0  0
    9.5712   -4.6208    0.0000 C   0  0  0  0  0  0  0  0  0  0  0  0
    8.1422   -4.6208    0.0000 C   0  0  0  0  0  0  0  0  0  0  0  0
    7.4277   -4.2083    0.0000 C   0  0  0  0  0  0  0  0  0  0  0  0
    6.7133   -4.6208    0.0000 C   0  0  0  0  0  0  0  0  0  0  0  0
    6.7133   -5.4458    0.0000 C   0  0  0  0  0  0  0  0  0  0  0  0
    7.4277   -5.8583    0.0000 C   0  0  0  0  0  0  0  0  0  0  0  0
    8.1422   -5.4458    0.0000 C   0  0  0  0  0  0  0  0  0  0  0  0
    5.9988   -5.8583    0.0000 O   0  0  0  0  0  0  0  0  0  0  0  0
    5.2843   -5.4458    0.0000 C   0  0  0  0  0  0  0  0  0  0  0  0
    5.9988   -4.2083    0.0000 O   0  0  0  0  0  0  0  0  0  0  0  0
    5.2843   -4.6208    0.0000 C   0  0  0  0  0  0  0  0  0  0  0  0
    8.8567   -3.3833    0.0000 O   0  0  0  0  0  0  0  0  0  0  0  0
  1  2  1  0  0  0  0
  3  4  1  0  0  0  0
  4  5  2  0  0  0  0
  5  6  1  0  0  0  0
  6  7  2  0  0  0  0
  7  8  1  0  0  0  0
  3  8  2  0  0  0  0
  9 10  1  0  0  0  0
  6  9  1  0  0  0  0
 11 12  1  0  0  0  0
  5 11  1  0  0  0  0
  1  3  1  0  0  0  0
  1 13  2  0  0  0  0
M  END
>  <cdx:fragmentId>
9

$$$$
