14340.cdx
  Mrv1902 05222410212D          

 14 14  0  0  0  0            999 V2000
    7.7442   -3.1427    0.0000 C   0  0  0  0  0  0  0  0  0  0  0  0
    7.0297   -3.5552    0.0000 C   0  0  0  0  0  0  0  0  0  0  0  0
    6.3152   -3.1427    0.0000 C   0  0  0  0  0  0  0  0  0  0  0  0
    7.7442   -2.3177    0.0000 O   0  0  0  0  0  0  0  0  0  0  0  0
    8.4586   -3.5552    0.0000 O   0  0  0  0  0  0  0  0  0  0  0  0
    5.6008   -3.5552    0.0000 C   0  0  0  0  0  0  0  0  0  0  0  0
    4.8863   -3.1427    0.0000 C   0  0  0  0  0  0  0  0  0  0  0  0
    4.1718   -3.5552    0.0000 C   0  0  0  0  0  0  0  0  0  0  0  0
    4.1718   -4.3802    0.0000 C   0  0  0  0  0  0  0  0  0  0  0  0
    4.8863   -4.7927    0.0000 C   0  0  0  0  0  0  0  0  0  0  0  0
    5.6008   -4.3802    0.0000 C   0  0  0  0  0  0  0  0  0  0  0  0
    3.4574   -3.1427    0.0000 O   0  0  0  0  0  0  0  0  0  0  0  0
    2.7429   -3.5552    0.0000 C   0  0  0  0  0  0  0  0  0  0  0  0
    3.4574   -4.7927    0.0000 O   0  0  0  0  0  0  0  0  0  0  0  0
  1  2  1  0  0  0  0
  2  3  1  0  0  0  0
  1  4  2  0  0  0  0
  1  5  1  0  0  0  0
  6  7  1  0  0  0  0
  7  8  2  0  0  0  0
  8  9  1  0  0  0  0
  9 10  2  0  0  0  0
 10 11  1  0  0  0  0
  6 11  2  0  0  0  0
 12 13  1  0  0  0  0
  8 12  1  0  0  0  0
  9 14  1  0  0  0  0
  3  6  1  0  0  0  0
M  END
>  <cdx:groupId>
44

>  <cdx:fragmentId>
15

$$$$
