14344.cdx
  Mrv1902 05222410222D          

 15 16  0  0  0  0            999 V2000
    2.9492   -4.7998    0.0000 C   0  0  0  0  0  0  0  0  0  0  0  0
    2.2347   -4.3873    0.0000 N   0  0  0  0  0  0  0  0  0  0  0  0
    2.9492   -5.6248    0.0000 O   0  0  0  0  0  0  0  0  0  0  0  0
    3.6637   -4.3873    0.0000 O   0  0  0  0  0  0  0  0  0  0  0  0
    1.5203   -4.7998    0.0000 C   0  0  0  0  0  0  0  0  0  0  0  0
    3.6637   -3.5623    0.0000 C   0  0  0  0  0  0  0  0  0  0  0  0
    2.9492   -3.1498    0.0000 C   0  0  0  0  0  0  0  0  0  0  0  0
    2.9492   -2.3248    0.0000 C   0  0  0  0  0  0  0  0  0  0  0  0
    3.6637   -1.9123    0.0000 C   0  0  0  0  0  0  0  0  0  0  0  0
    4.3782   -2.3248    0.0000 C   0  0  0  0  0  0  0  0  0  0  0  0
    5.0926   -1.9123    0.0000 C   0  0  0  0  0  0  0  0  0  0  0  0
    5.8071   -2.3248    0.0000 C   0  0  0  0  0  0  0  0  0  0  0  0
    5.8071   -3.1498    0.0000 C   0  0  0  0  0  0  0  0  0  0  0  0
    5.0926   -3.5623    0.0000 C   0  0  0  0  0  0  0  0  0  0  0  0
    4.3782   -3.1498    0.0000 C   0  0  0  0  0  0  0  0  0  0  0  0
  1  2  1  0  0  0  0
  1  3  2  0  0  0  0
  1  4  1  0  0  0  0
  2  5  1  0  0  0  0
  6  7  1  0  0  0  0
  7  8  2  0  0  0  0
  8  9  1  0  0  0  0
  9 10  2  0  0  0  0
 10 11  1  0  0  0  0
 11 12  1  0  0  0  0
 12 13  1  0  0  0  0
 13 14  1  0  0  0  0
 14 15  1  0  0  0  0
  6 15  2  0  0  0  0
 10 15  1  0  0  0  0
  4  6  1  0  0  0  0
M  END
>  <cdx:groupId>
48

>  <cdx:fragmentId>
15

$$$$
