14362.cdx
  Mrv1902 05222410232D          

 38 41  0  0  0  0            999 V2000
    6.0810   -8.7702    0.0000 C   0  0  2  0  0  0  0  0  0  0  0  0
    6.2514   -9.5774    0.0000 C   0  0  2  0  0  0  0  0  0  0  0  0
    6.9888   -9.9475    0.0000 C   0  0  0  0  0  0  0  0  0  0  0  0
    7.7378   -9.6017    0.0000 C   0  0  0  0  0  0  0  0  0  0  0  0
    7.9345   -8.8005    0.0000 C   0  0  0  0  0  0  0  0  0  0  0  0
    7.4307   -8.1472    0.0000 C   0  0  2  0  0  0  0  0  0  0  0  0
    6.6058   -8.1337    0.0000 C   0  0  2  0  0  0  0  0  0  0  0  0
    5.2606   -8.6828    0.0000 C   0  0  0  0  0  0  0  0  0  0  0  0
    4.9240   -9.4361    0.0000 C   0  0  0  0  0  0  0  0  0  0  0  0
    5.5364   -9.9889    0.0000 C   0  0  0  0  0  0  0  0  0  0  0  0
    7.8548   -7.4395    0.0000 C   0  0  1  0  0  0  0  0  0  0  0  0
    7.4541   -6.7184    0.0000 C   0  0  2  0  0  0  0  0  0  0  0  0
    6.6292   -6.7049    0.0000 C   0  0  2  0  0  0  0  0  0  0  0  0
    6.2051   -7.4126    0.0000 C   0  0  1  0  0  0  0  0  0  0  0  0
    8.2789   -6.7319    0.0000 C   0  0  1  0  0  0  0  0  0  0  0  0
    4.1168   -9.6065    0.0000 C   0  0  0  0  0  0  0  0  0  0  0  0
    5.2803  -10.7732    0.0000 O   0  0  0  0  0  0  0  0  0  0  0  0
    8.4291  -10.0520    0.0000 C   0  0  0  0  0  0  0  0  0  0  0  0
    6.2071  -10.4012    0.0000 O   0  0  0  0  0  0  0  0  0  0  0  0
    7.4984   -5.8946    0.0000 O   0  0  0  0  0  0  0  0  0  0  0  0
    5.3812   -7.3683    0.0000 C   0  0  0  0  0  0  0  0  0  0  0  0
    6.2158   -5.9910    0.0000 O   0  0  0  0  0  0  0  0  0  0  0  0
    5.4968   -5.5864    0.0000 C   0  0  0  0  0  0  0  0  0  0  0  0
    4.7870   -6.0069    0.0000 C   0  0  0  0  0  0  0  0  0  0  0  0
    5.4876   -4.7615    0.0000 O   0  0  0  0  0  0  0  0  0  0  0  0
    7.9108   -5.1801    0.0000 C   0  0  0  0  0  0  0  0  0  0  0  0
    8.7358   -5.1801    0.0000 C   0  0  0  0  0  0  0  0  0  0  0  0
    9.1484   -5.8945    0.0000 C   0  0  0  0  0  0  0  0  0  0  0  0
    9.1483   -4.4656    0.0000 C   0  0  0  0  0  0  0  0  0  0  0  0
    8.7358   -3.7511    0.0000 C   0  0  0  0  0  0  0  0  0  0  0  0
    8.6906   -6.0169    0.0000 C   0  0  0  0  0  0  0  0  0  0  0  0
    9.1039   -6.7309    0.0000 C   0  0  0  0  0  0  0  0  0  0  0  0
    8.5698   -7.8512    0.0000 H   0  0  0  0  0  0  0  0  0  0  0  0
    8.2557   -8.1462    0.0000 H   0  0  0  0  0  0  0  0  0  0  0  0
    5.7808   -8.1337    0.0000 O   0  0  0  0  0  0  0  0  0  0  0  0
    6.9060   -8.7702    0.0000 H   0  0  0  0  0  0  0  0  0  0  0  0
    8.2776  -10.8629    0.0000 O   0  0  0  0  0  0  0  0  0  0  0  0
    7.4983   -4.4657    0.0000 O   0  0  0  0  0  0  0  0  0  0  0  0
  1  2  1  0  0  0  0
  2  3  1  0  0  0  0
  3  4  1  0  0  0  0
  4  5  2  0  0  0  0
  5  6  1  0  0  0  0
  6  7  1  0  0  0  0
  7  1  1  0  0  0  0
  1  8  1  0  0  0  0
  8  9  2  0  0  0  0
  9 10  1  0  0  0  0
 10  2  1  0  0  0  0
  6 11  1  0  0  0  0
 11 12  1  0  0  0  0
 12 13  1  0  0  0  0
 13 14  1  0  0  0  0
 14  7  1  0  0  0  0
 11 15  1  0  0  0  0
 15 12  1  0  0  0  0
  9 16  1  0  0  0  0
 10 17  2  0  0  0  0
  4 18  1  0  0  0  0
  2 19  1  1  0  0  0
 12 20  1  1  0  0  0
 14 21  1  6  0  0  0
 13 22  1  6  0  0  0
 22 23  1  0  0  0  0
 23 24  1  0  0  0  0
 23 25  2  0  0  0  0
 20 26  1  0  0  0  0
 26 27  1  0  0  0  0
 27 28  1  0  0  0  0
 27 29  2  0  0  0  0
 29 30  1  0  0  0  0
 15 31  1  1  0  0  0
 15 32  1  6  0  0  0
 11 33  1  6  0  0  0
  6 34  1  1  0  0  0
  7 35  1  6  0  0  0
  1 36  1  6  0  0  0
 18 37  1  0  0  0  0
 26 38  2  0  0  0  0
M  END
>  <cdx:fragmentId>
29

$$$$
