143974.cdx
  Mrv1902 05222410192D          

 28 29  0  0  0  0            999 V2000
    7.1613   -7.7152    0.0000 C   0  0  0  0  0  0  0  0  0  0  0  0
    7.8757   -7.3027    0.0000 C   0  0  0  0  0  0  0  0  0  0  0  0
    8.5902   -7.7152    0.0000 C   0  0  0  0  0  0  0  0  0  0  0  0
    9.3047   -7.3027    0.0000 C   0  0  0  0  0  0  0  0  0  0  0  0
    7.8757   -6.4777    0.0000 O   0  0  0  0  0  0  0  0  0  0  0  0
   10.0192   -7.7152    0.0000 C   0  0  0  0  0  0  0  0  0  0  0  0
   10.7336   -7.3027    0.0000 C   0  0  0  0  0  0  0  0  0  0  0  0
   11.4481   -7.7152    0.0000 C   0  0  0  0  0  0  0  0  0  0  0  0
   11.4481   -8.5402    0.0000 C   0  0  0  0  0  0  0  0  0  0  0  0
   10.7336   -8.9527    0.0000 C   0  0  0  0  0  0  0  0  0  0  0  0
   10.0192   -8.5402    0.0000 C   0  0  0  0  0  0  0  0  0  0  0  0
   12.1626   -8.9527    0.0000 O   0  0  0  0  0  0  0  0  0  0  0  0
   12.1626   -7.3027    0.0000 O   0  0  0  0  0  0  0  0  0  0  0  0
    2.1600   -7.3027    0.0000 O   0  0  0  0  0  0  0  0  0  0  0  0
    2.1600   -8.9527    0.0000 O   0  0  0  0  0  0  0  0  0  0  0  0
    4.3034   -8.5402    0.0000 C   0  0  0  0  0  0  0  0  0  0  0  0
    3.5889   -8.9527    0.0000 C   0  0  0  0  0  0  0  0  0  0  0  0
    2.8744   -8.5402    0.0000 C   0  0  0  0  0  0  0  0  0  0  0  0
    2.8744   -7.7152    0.0000 C   0  0  0  0  0  0  0  0  0  0  0  0
    3.5889   -7.3027    0.0000 C   0  0  0  0  0  0  0  0  0  0  0  0
    4.3034   -7.7152    0.0000 C   0  0  0  0  0  0  0  0  0  0  0  0
    6.4468   -7.3027    0.0000 C   0  0  0  0  0  0  0  0  0  0  0  0
    5.7323   -7.7152    0.0000 C   0  0  0  0  0  0  0  0  0  0  0  0
    5.0179   -7.3027    0.0000 C   0  0  0  0  0  0  0  0  0  0  0  0
    6.4468   -6.4777    0.0000 O   0  0  0  0  0  0  0  0  0  0  0  0
    5.0179   -6.4777    0.0000 O   0  0  0  0  0  0  0  0  0  0  0  0
    5.7323   -5.2402    0.0000 C   0  0  0  0  0  0  0  0  0  0  0  0
    5.7323   -6.0652    0.0000 C   0  0  0  0  0  0  0  0  0  0  0  0
 25 22  1  0  0  0  0
 24 21  1  0  0  0  0
 19 14  1  0  0  0  0
 18 15  1  0  0  0  0
 21 16  2  0  0  0  0
 17 16  1  0  0  0  0
 18 17  2  0  0  0  0
 19 18  1  0  0  0  0
 20 19  2  0  0  0  0
 21 20  1  0  0  0  0
 23 22  1  0  0  0  0
 24 23  1  0  0  0  0
 28 25  1  0  0  0  0
 28 26  2  0  0  0  0
 28 27  1  0  0  0  0
 22  1  1  0  0  0  0
  1  2  1  0  0  0  0
  2  3  1  0  0  0  0
  3  4  1  0  0  0  0
  2  5  1  0  0  0  0
  6  7  1  0  0  0  0
  7  8  2  0  0  0  0
  8  9  1  0  0  0  0
  9 10  2  0  0  0  0
 10 11  1  0  0  0  0
  6 11  2  0  0  0  0
  9 12  1  0  0  0  0
  8 13  1  0  0  0  0
  4  6  1  0  0  0  0
M  END
>  <cdx:groupId>
207617

>  <cdx:fragmentId>
207559

$$$$
