14396.cdx
  Mrv1902 05222410222D          

 11 11  0  0  0  0            999 V2000
    9.3874   -7.3348    0.0000 S   0  0  0  0  0  0  0  0  0  0  0  0
    8.6724   -7.7464    0.0000 C   0  0  0  0  0  0  0  0  0  0  0  0
    7.9574   -8.1580    0.0000 N   0  0  0  0  0  0  0  0  0  0  0  0
    7.9564   -8.9830    0.0000 C   0  0  0  0  0  0  0  0  0  0  0  0
    5.0964  -10.6294    0.0000 O   0  0  0  0  0  0  0  0  0  0  0  0
    5.8124   -9.3928    0.0000 C   0  0  0  0  0  0  0  0  0  0  0  0
    6.5274   -8.9812    0.0000 C   0  0  0  0  0  0  0  0  0  0  0  0
    7.2414   -9.3946    0.0000 C   0  0  0  0  0  0  0  0  0  0  0  0
    7.2403  -10.2196    0.0000 C   0  0  0  0  0  0  0  0  0  0  0  0
    6.5253  -10.6312    0.0000 C   0  0  0  0  0  0  0  0  0  0  0  0
    5.8114  -10.2178    0.0000 C   0  0  0  0  0  0  0  0  0  0  0  0
  8  4  1  0  0  0  0
  4  3  1  0  0  0  0
  2  1  2  0  0  0  0
  3  2  2  0  0  0  0
 11  5  1  0  0  0  0
 11  6  2  0  0  0  0
  7  6  1  0  0  0  0
  8  7  2  0  0  0  0
  9  8  1  0  0  0  0
 10  9  2  0  0  0  0
 11 10  1  0  0  0  0
M  END
>  <cdx:fragmentId>
5

$$$$
