144.cdx
  Mrv1902 05222410232D          

 20 22  0  0  0  0            999 V2000
    5.3727   -4.9637    0.0000 C   0  0  0  0  0  0  0  0  0  0  0  0
    5.3727   -5.7888    0.0000 C   0  0  0  0  0  0  0  0  0  0  0  0
    6.0871   -6.2012    0.0000 C   0  0  0  0  0  0  0  0  0  0  0  0
    6.8016   -5.7888    0.0000 C   0  0  0  0  0  0  0  0  0  0  0  0
    6.8016   -4.9637    0.0000 C   0  0  0  0  0  0  0  0  0  0  0  0
    6.0871   -4.5512    0.0000 C   0  0  0  0  0  0  0  0  0  0  0  0
    7.5161   -6.2012    0.0000 C   0  0  0  0  0  0  0  0  0  0  0  0
    8.2305   -5.7888    0.0000 C   0  0  0  0  0  0  0  0  0  0  0  0
    8.2305   -4.9637    0.0000 C   0  0  2  0  0  0  0  0  0  0  0  0
    7.5161   -4.5512    0.0000 O   0  0  0  0  0  0  0  0  0  0  0  0
    8.9450   -4.5512    0.0000 C   0  0  0  0  0  0  0  0  0  0  0  0
    9.6595   -4.9637    0.0000 C   0  0  0  0  0  0  0  0  0  0  0  0
   10.3740   -4.5512    0.0000 C   0  0  0  0  0  0  0  0  0  0  0  0
   10.3740   -3.7262    0.0000 C   0  0  0  0  0  0  0  0  0  0  0  0
    9.6595   -3.3138    0.0000 C   0  0  0  0  0  0  0  0  0  0  0  0
    8.9450   -3.7262    0.0000 C   0  0  0  0  0  0  0  0  0  0  0  0
    4.6582   -4.5512    0.0000 O   0  0  0  0  0  0  0  0  0  0  0  0
    6.0871   -7.0263    0.0000 O   0  0  0  0  0  0  0  0  0  0  0  0
    7.5161   -7.0263    0.0000 O   0  0  0  0  0  0  0  0  0  0  0  0
    3.9437   -4.9637    0.0000 C   0  0  0  0  0  0  0  0  0  0  0  0
  1  2  2  0  0  0  0
  2  3  1  0  0  0  0
  3  4  2  0  0  0  0
  4  5  1  0  0  0  0
  5  6  2  0  0  0  0
  6  1  1  0  0  0  0
  4  7  1  0  0  0  0
  7  8  1  0  0  0  0
  8  9  1  0  0  0  0
  9 10  1  0  0  0  0
 10  5  1  0  0  0  0
 11 12  2  0  0  0  0
 12 13  1  0  0  0  0
 13 14  2  0  0  0  0
 14 15  1  0  0  0  0
 15 16  2  0  0  0  0
 16 11  1  0  0  0  0
  1 17  1  0  0  0  0
  3 18  1  0  0  0  0
  7 19  2  0  0  0  0
  9 11  1  6  0  0  0
 17 20  1  0  0  0  0
M  END
>  <cdx:fragmentId>
5

$$$$
