14409.cdx
  Mrv1902 05222410232D          

 20 21  0  0  0  0            999 V2000
    6.3768   -4.3857    0.0000 C   0  0  0  0  0  0  0  0  0  0  0  0
    5.6623   -4.7982    0.0000 C   0  0  0  0  0  0  0  0  0  0  0  0
    5.6623   -5.6232    0.0000 C   0  0  0  0  0  0  0  0  0  0  0  0
    4.9479   -6.0357    0.0000 C   0  0  0  0  0  0  0  0  0  0  0  0
    4.2334   -5.6232    0.0000 C   0  0  0  0  0  0  0  0  0  0  0  0
    4.2334   -4.7982    0.0000 C   0  0  0  0  0  0  0  0  0  0  0  0
    4.9479   -4.3857    0.0000 C   0  0  0  0  0  0  0  0  0  0  0  0
    6.3768   -3.5607    0.0000 O   0  0  0  0  0  0  0  0  0  0  0  0
    7.0913   -4.7982    0.0000 O   0  0  0  0  0  0  0  0  0  0  0  0
    3.5189   -6.0357    0.0000 O   0  0  0  0  0  0  0  0  0  0  0  0
    2.8044   -5.6232    0.0000 C   0  0  0  0  0  0  0  0  0  0  0  0
    7.8057   -4.3857    0.0000 C   0  0  0  0  0  0  0  0  0  0  0  0
    8.5202   -4.7982    0.0000 C   0  0  0  0  0  0  0  0  0  0  0  0
    9.2347   -4.3857    0.0000 C   0  0  0  0  0  0  0  0  0  0  0  0
    9.2347   -3.5607    0.0000 C   0  0  0  0  0  0  0  0  0  0  0  0
    9.9491   -3.1482    0.0000 C   0  0  0  0  0  0  0  0  0  0  0  0
   10.6636   -3.5607    0.0000 C   0  0  0  0  0  0  0  0  0  0  0  0
   10.6636   -4.3857    0.0000 C   0  0  0  0  0  0  0  0  0  0  0  0
    9.9491   -4.7982    0.0000 C   0  0  0  0  0  0  0  0  0  0  0  0
   11.3781   -3.1482    0.0000 O   0  0  0  0  0  0  0  0  0  0  0  0
  1  2  1  0  0  0  0
  2  3  1  0  0  0  0
  3  4  2  0  0  0  0
  4  5  1  0  0  0  0
  5  6  2  0  0  0  0
  6  7  1  0  0  0  0
  2  7  2  0  0  0  0
  1  8  2  0  0  0  0
  1  9  1  0  0  0  0
 10 11  1  0  0  0  0
  5 10  1  0  0  0  0
 12 13  1  0  0  0  0
 14 15  1  0  0  0  0
 15 16  2  0  0  0  0
 16 17  1  0  0  0  0
 17 18  2  0  0  0  0
 18 19  1  0  0  0  0
 14 19  2  0  0  0  0
 17 20  1  0  0  0  0
 13 14  1  0  0  0  0
  9 12  1  0  0  0  0
M  END
>  <cdx:fragmentId>
108847

$$$$
