14425.cdx
  Mrv1902 05222410202D          

 24 24  0  0  0  0            999 V2000
    3.9881   -4.8133    0.0000 C   0  0  0  0  0  0  0  0  0  0  0  0
    3.2736   -4.4008    0.0000 C   0  0  0  0  0  0  0  0  0  0  0  0
    2.5592   -4.8133    0.0000 C   0  0  0  0  0  0  0  0  0  0  0  0
    1.8447   -4.4008    0.0000 C   0  0  0  0  0  0  0  0  0  0  0  0
    1.8447   -3.5758    0.0000 C   0  0  0  0  0  0  0  0  0  0  0  0
    2.5592   -3.1633    0.0000 C   0  0  0  0  0  0  0  0  0  0  0  0
    3.2736   -3.5758    0.0000 C   0  0  0  0  0  0  0  0  0  0  0  0
    3.9881   -5.6383    0.0000 O   0  0  0  0  0  0  0  0  0  0  0  0
    4.7026   -4.4008    0.0000 O   0  0  0  0  0  0  0  0  0  0  0  0
    2.5592   -2.3383    0.0000 O   0  0  0  0  0  0  0  0  0  0  0  0
    1.1302   -3.1633    0.0000 O   0  0  0  0  0  0  0  0  0  0  0  0
    1.1302   -4.8133    0.0000 O   0  0  0  0  0  0  0  0  0  0  0  0
    5.4171   -4.8133    0.0000 C   0  0  0  0  0  0  0  0  0  0  0  0
    6.1315   -4.4008    0.0000 C   0  0  0  0  0  0  0  0  0  0  0  0
    6.8460   -4.8133    0.0000 C   0  0  0  0  0  0  0  0  0  0  0  0
    7.5605   -4.4008    0.0000 C   0  0  0  0  0  0  0  0  0  0  0  0
    8.2749   -4.8133    0.0000 C   0  0  0  0  0  0  0  0  0  0  0  0
    8.9894   -4.4008    0.0000 C   0  0  0  0  0  0  0  0  0  0  0  0
    9.7039   -4.8133    0.0000 C   0  0  0  0  0  0  0  0  0  0  0  0
   10.4184   -4.4008    0.0000 C   0  0  0  0  0  0  0  0  0  0  0  0
   11.1328   -4.8133    0.0000 C   0  0  0  0  0  0  0  0  0  0  0  0
   11.8473   -4.4008    0.0000 C   0  0  0  0  0  0  0  0  0  0  0  0
   12.5618   -4.8133    0.0000 C   0  0  0  0  0  0  0  0  0  0  0  0
   13.2762   -4.4008    0.0000 C   0  0  0  0  0  0  0  0  0  0  0  0
  1  2  1  0  0  0  0
  2  3  1  0  0  0  0
  3  4  2  0  0  0  0
  4  5  1  0  0  0  0
  5  6  2  0  0  0  0
  6  7  1  0  0  0  0
  2  7  2  0  0  0  0
  1  8  2  0  0  0  0
  1  9  1  0  0  0  0
  6 10  1  0  0  0  0
  5 11  1  0  0  0  0
  4 12  1  0  0  0  0
 13 14  1  0  0  0  0
 14 15  1  0  0  0  0
 15 16  1  0  0  0  0
 16 17  1  0  0  0  0
 17 18  1  0  0  0  0
 18 19  1  0  0  0  0
 19 20  1  0  0  0  0
 20 21  1  0  0  0  0
 21 22  1  0  0  0  0
 22 23  1  0  0  0  0
 23 24  1  0  0  0  0
  9 13  1  0  0  0  0
M  END
>  <cdx:groupId>
74

>  <cdx:fragmentId>
5

$$$$
