14430.cdx
  Mrv1902 05222410212D          

 15 15  0  0  0  0            999 V2000
    4.7827   -5.2054    0.0000 C   0  0  0  0  0  0  0  0  0  0  0  0
    4.7827   -4.3804    0.0000 C   0  0  0  0  0  0  0  0  0  0  0  0
    5.4972   -3.9679    0.0000 C   0  0  0  0  0  0  0  0  0  0  0  0
    6.2117   -4.3804    0.0000 C   0  0  0  0  0  0  0  0  0  0  0  0
    6.9261   -3.9679    0.0000 C   0  0  0  0  0  0  0  0  0  0  0  0
    7.6406   -4.3804    0.0000 C   0  0  0  0  0  0  0  0  0  0  0  0
    7.6406   -5.2054    0.0000 C   0  0  0  0  0  0  0  0  0  0  0  0
    8.3551   -3.9679    0.0000 C   0  0  0  0  0  0  0  0  0  0  0  0
    8.3551   -3.1429    0.0000 C   0  0  0  0  0  0  0  0  0  0  0  0
    9.7840   -3.1429    0.0000 C   0  0  0  0  0  0  0  0  0  0  0  0
    9.0696   -4.3804    0.0000 C   0  0  0  0  0  0  0  0  0  0  0  0
    9.0696   -2.7304    0.0000 C   0  0  0  0  0  0  0  0  0  0  0  0
    9.7840   -3.9679    0.0000 C   0  0  0  0  0  0  0  0  0  0  0  0
   10.4985   -2.7304    0.0000 C   0  0  0  0  0  0  0  0  0  0  0  0
    4.0683   -3.9679    0.0000 C   0  0  0  0  0  0  0  0  0  0  0  0
  1  2  1  0  0  0  0
  2  3  2  0  0  0  0
  3  4  1  0  0  0  0
  4  5  1  0  0  0  0
  5  6  1  0  0  0  0
  6  7  1  0  0  0  0
  8  9  1  0  0  0  0
  8 11  2  0  0  0  0
  9 12  1  0  0  0  0
 10 12  2  0  0  0  0
 10 13  1  0  0  0  0
 11 13  1  0  0  0  0
 10 14  1  0  0  0  0
  6  8  1  0  0  0  0
  2 15  1  0  0  0  0
M  END
>  <cdx:fragmentId>
19

$$$$
