14431.cdx
  Mrv1902 05222410202D          

 38 41  0  0  0  0            999 V2000
   12.0377  -11.0688    0.0000 C   0  0  0  0  0  0  0  0  0  0  0  0
    5.6075  -11.4813    0.0000 C   0  0  0  0  0  0  0  0  0  0  0  0
    7.0364   -9.0062    0.0000 O   0  0  0  0  0  0  0  0  0  0  0  0
    8.4653   -9.0062    0.0000 O   0  0  0  0  0  0  0  0  0  0  0  0
    9.8943   -9.0062    0.0000 O   0  0  0  0  0  0  0  0  0  0  0  0
    8.4653  -12.3063    0.0000 O   0  0  0  0  0  0  0  0  0  0  0  0
   11.3232  -11.4813    0.0000 O   0  0  0  0  0  0  0  0  0  0  0  0
    7.0364   -9.8312    0.0000 C   0  0  0  0  0  0  0  0  0  0  0  0
    6.3219  -10.2437    0.0000 C   0  0  0  0  0  0  0  0  0  0  0  0
    6.3219  -11.0688    0.0000 C   0  0  0  0  0  0  0  0  0  0  0  0
    7.0364  -11.4813    0.0000 C   0  0  0  0  0  0  0  0  0  0  0  0
    8.4653   -9.8312    0.0000 C   0  0  0  0  0  0  0  0  0  0  0  0
    7.7509  -10.2437    0.0000 C   0  0  0  0  0  0  0  0  0  0  0  0
    7.7509  -11.0688    0.0000 C   0  0  0  0  0  0  0  0  0  0  0  0
    8.4653  -11.4813    0.0000 C   0  0  0  0  0  0  0  0  0  0  0  0
    9.8943   -9.8312    0.0000 C   0  0  0  0  0  0  0  0  0  0  0  0
    9.1798  -10.2437    0.0000 C   0  0  0  0  0  0  0  0  0  0  0  0
    9.1798  -11.0688    0.0000 C   0  0  0  0  0  0  0  0  0  0  0  0
    9.8943  -11.4813    0.0000 C   0  0  0  0  0  0  0  0  0  0  0  0
   10.6088  -11.0688    0.0000 C   0  0  0  0  0  0  0  0  0  0  0  0
   10.6088  -10.2437    0.0000 C   0  0  0  0  0  0  0  0  0  0  0  0
    6.3219   -8.5938    0.0000 C   0  0  2  0  0  0  0  0  0  0  0  0
    6.3219   -7.7687    0.0000 O   0  0  0  0  0  0  0  0  0  0  0  0
    5.6075   -7.3562    0.0000 C   0  0  1  0  0  0  0  0  0  0  0  0
    4.8930   -7.7687    0.0000 C   0  0  2  0  0  0  0  0  0  0  0  0
    4.8930   -8.5938    0.0000 C   0  0  1  0  0  0  0  0  0  0  0  0
    5.6075   -9.0062    0.0000 C   0  0  1  0  0  0  0  0  0  0  0  0
    5.6075   -6.5312    0.0000 C   0  0  0  0  0  0  0  0  0  0  0  0
    4.1785   -9.0062    0.0000 O   0  0  0  0  0  0  0  0  0  0  0  0
    5.6075   -9.8312    0.0000 O   0  0  0  0  0  0  0  0  0  0  0  0
    4.1785   -7.3563    0.0000 O   0  0  0  0  0  0  0  0  0  0  0  0
    4.8930   -6.1187    0.0000 O   0  0  0  0  0  0  0  0  0  0  0  0
    4.8930   -5.2937    0.0000 C   0  0  0  0  0  0  0  0  0  0  0  0
    4.1785   -4.8812    0.0000 C   0  0  0  0  0  0  0  0  0  0  0  0
    5.6075   -4.8812    0.0000 O   0  0  0  0  0  0  0  0  0  0  0  0
    4.1785   -4.0562    0.0000 C   0  0  0  0  0  0  0  0  0  0  0  0
    3.4640   -3.6437    0.0000 O   0  0  0  0  0  0  0  0  0  0  0  0
    4.8930   -3.6437    0.0000 O   0  0  0  0  0  0  0  0  0  0  0  0
  7  1  1  0  0  0  0
 10  2  1  0  0  0  0
  8  3  1  0  0  0  0
 12  4  2  0  0  0  0
 16  5  1  0  0  0  0
 15  6  2  0  0  0  0
 20  7  1  0  0  0  0
  8 13  1  0  0  0  0
  9  8  2  0  0  0  0
 10  9  1  0  0  0  0
 11 10  2  0  0  0  0
 14 11  1  0  0  0  0
 12 17  1  0  0  0  0
 13 12  1  0  0  0  0
 14 13  2  0  0  0  0
 15 14  1  0  0  0  0
 18 15  1  0  0  0  0
 16 21  1  0  0  0  0
 17 16  2  0  0  0  0
 18 17  1  0  0  0  0
 19 18  2  0  0  0  0
 20 19  1  0  0  0  0
 21 20  2  0  0  0  0
 22  3  1  1  0  0  0
 22 23  1  0  0  0  0
 23 24  1  0  0  0  0
 24 25  1  0  0  0  0
 25 26  1  0  0  0  0
 26 27  1  0  0  0  0
 27 22  1  0  0  0  0
 24 28  1  1  0  0  0
 26 29  1  1  0  0  0
 27 30  1  6  0  0  0
 25 31  1  6  0  0  0
 28 32  1  0  0  0  0
 32 33  1  0  0  0  0
 33 34  1  0  0  0  0
 33 35  2  0  0  0  0
 34 36  1  0  0  0  0
 36 37  1  0  0  0  0
 36 38  2  0  0  0  0
M  END
>  <cdx:fragmentId>
5

$$$$
