144737.cdx
  Mrv1902 05222410232D          

 31 32  0  0  0  0            999 V2000
    7.6558   -8.7415    0.0000 C   0  0  1  0  0  0  0  0  0  0  0  0
    8.3670   -8.3234    0.0000 C   0  0  1  0  0  0  0  0  0  0  0  0
    8.3606   -7.4985    0.0000 C   0  0  1  0  0  0  0  0  0  0  0  0
    7.6429   -7.0916    0.0000 C   0  0  0  0  0  0  0  0  0  0  0  0
    6.9317   -7.5097    0.0000 C   0  0  0  0  0  0  0  0  0  0  0  0
    6.9381   -8.3347    0.0000 O   0  0  0  0  0  0  0  0  0  0  0  0
   12.6473   -7.4648    0.0000 C   0  0  0  0  0  0  0  0  0  0  0  0
    9.0847   -8.7303    0.0000 C   0  0  0  0  0  0  0  0  0  0  0  0
    9.0912   -9.5553    0.0000 C   0  0  0  0  0  0  0  0  0  0  0  0
    6.9122   -5.0348    0.0000 C   0  0  0  0  0  0  0  0  0  0  0  0
    6.9187   -5.8597    0.0000 O   0  0  0  0  0  0  0  0  0  0  0  0
    8.3476   -5.8485    0.0000 O   0  0  0  0  0  0  0  0  0  0  0  0
    7.6484  -11.2164    0.0000 O   0  0  0  0  0  0  0  0  0  0  0  0
    6.2125  -12.0294    0.0000 O   0  0  0  0  0  0  0  0  0  0  0  0
    4.7906  -11.1923    0.0000 O   0  0  0  0  0  0  0  0  0  0  0  0
    4.0866   -9.9489    0.0000 O   0  0  0  0  0  0  0  0  0  0  0  0
    4.8045   -9.5424    0.0000 C   0  0  0  0  0  0  0  0  0  0  0  0
    5.5155   -9.9609    0.0000 C   0  0  2  0  0  0  0  0  0  0  0  0
    5.5085  -10.7859    0.0000 C   0  0  2  0  0  0  0  0  0  0  0  0
    6.2195  -11.2044    0.0000 C   0  0  1  0  0  0  0  0  0  0  0  0
    6.9374  -10.7979    0.0000 C   0  0  2  0  0  0  0  0  0  0  0  0
    6.9444   -9.9730    0.0000 C   0  0  1  0  0  0  0  0  0  0  0  0
    6.2334   -9.5545    0.0000 O   0  0  0  0  0  0  0  0  0  0  0  0
    7.6623   -9.5665    0.0000 O   0  0  0  0  0  0  0  0  0  0  0  0
   11.9296   -7.0579    0.0000 O   0  0  0  0  0  0  0  0  0  0  0  0
   11.2248   -8.3010    0.0000 O   0  0  0  0  0  0  0  0  0  0  0  0
   11.2184   -7.4760    0.0000 C   0  0  0  0  0  0  0  0  0  0  0  0
   10.5007   -7.0691    0.0000 C   0  0  0  0  0  0  0  0  0  0  0  0
    9.7895   -7.4872    0.0000 C   0  0  0  0  0  0  0  0  0  0  0  0
    9.0718   -7.0804    0.0000 C   0  0  0  0  0  0  0  0  0  0  0  0
    7.6364   -6.2666    0.0000 C   0  0  0  0  0  0  0  0  0  0  0  0
 11 10  1  0  0  0  0
 31 11  1  0  0  0  0
 31 12  2  0  0  0  0
 22 24  1  1  0  0  0
 21 13  1  6  0  0  0
 20 14  1  1  0  0  0
 19 15  1  6  0  0  0
 18 17  1  1  0  0  0
 17 16  1  0  0  0  0
 23 18  1  0  0  0  0
 19 18  1  0  0  0  0
 20 19  1  0  0  0  0
 21 20  1  0  0  0  0
 22 21  1  0  0  0  0
 23 22  1  0  0  0  0
 27 25  1  0  0  0  0
 25  7  1  0  0  0  0
 27 26  2  0  0  0  0
 28 27  1  0  0  0  0
 29 28  1  0  0  0  0
 30 29  2  0  0  0  0
  1  2  1  0  0  0  0
  2  3  1  0  0  0  0
  3  4  1  0  0  0  0
  4  5  2  0  0  0  0
  5  6  1  0  0  0  0
  1  6  1  0  0  0  0
  4 31  1  0  0  0  0
  1 24  1  6  0  0  0
  3 30  1  1  0  0  0
  8  9  2  0  0  0  0
  2  8  1  1  0  0  0
M  END
>  <cdx:fragmentId>
66928

$$$$
