14505.cdx
  Mrv1902 05222410272D          

  8  8  0  0  0  0            999 V2000
    4.1187   -2.6733    0.0000 C   0  0  0  0  0  0  0  0  0  0  0  0
    4.8332   -3.0858    0.0000 C   0  0  0  0  0  0  0  0  0  0  0  0
    3.3180   -3.9063    0.0000 O   0  0  0  0  0  0  0  0  0  0  0  0
    3.4043   -3.0858    0.0000 C   0  0  0  0  0  0  0  0  0  0  0  0
    2.6506   -2.7502    0.0000 C   0  0  0  0  0  0  0  0  0  0  0  0
    2.0986   -3.3633    0.0000 C   0  0  0  0  0  0  0  0  0  0  0  0
    2.5111   -4.0778    0.0000 C   0  0  0  0  0  0  0  0  0  0  0  0
    4.1187   -1.8483    0.0000 O   0  0  0  0  0  0  0  0  0  0  0  0
  1  2  1  0  0  0  0
  3  4  1  0  0  0  0
  4  5  2  0  0  0  0
  5  6  1  0  0  0  0
  6  7  2  0  0  0  0
  3  7  1  0  0  0  0
  1  4  1  0  0  0  0
  1  8  2  0  0  0  0
M  END
>  <cdx:groupId>
26

>  <cdx:fragmentId>
9

$$$$
