1450.cdx
  Mrv1902 05222410182D          

 14 13  0  0  0  0            999 V2000
   10.8737   -7.9406    0.0000 C   0  0  0  0  0  0  0  0  0  0  0  0
   10.1592   -8.3531    0.0000 C   0  0  0  0  0  0  0  0  0  0  0  0
    9.4448   -7.9406    0.0000 C   0  0  0  0  0  0  0  0  0  0  0  0
    8.7303   -8.3531    0.0000 C   0  0  0  0  0  0  0  0  0  0  0  0
    8.0158   -7.9406    0.0000 C   0  0  0  0  0  0  0  0  0  0  0  0
    7.3014   -8.3531    0.0000 C   0  0  0  0  0  0  0  0  0  0  0  0
    6.5869   -7.9406    0.0000 C   0  0  0  0  0  0  0  0  0  0  0  0
    5.8724   -8.3531    0.0000 C   0  0  0  0  0  0  0  0  0  0  0  0
    5.1579   -7.9406    0.0000 C   0  0  0  0  0  0  0  0  0  0  0  0
    4.4435   -8.3531    0.0000 C   0  0  0  0  0  0  0  0  0  0  0  0
    3.7290   -7.9406    0.0000 O   0  0  0  0  0  0  0  0  0  0  0  0
    4.4275   -9.0200    0.0000 H   0  0  0  0  0  0  0  0  0  0  0  0
    5.1425   -7.2875    0.0000 H   0  0  0  0  0  0  0  0  0  0  0  0
    5.8575   -9.0475    0.0000 H   0  0  0  0  0  0  0  0  0  0  0  0
  1  2  1  0  0  0  0
  2  3  1  0  0  0  0
  3  4  1  0  0  0  0
  4  5  1  0  0  0  0
  5  6  1  0  0  0  0
  6  7  1  0  0  0  0
  7  8  1  0  0  0  0
  8  9  2  0  0  0  0
  9 10  1  0  0  0  0
 10 11  2  0  0  0  0
 10 12  1  0  0  0  0
  9 13  1  0  0  0  0
  8 14  1  0  0  0  0
M  END
>  <cdx:fragmentId>
3

$$$$
