14519.cdx
  Mrv1902 05222410192D          

 10 10  0  0  0  0            999 V2000
    5.3237   -3.3283    0.0000 C   0  0  0  0  0  0  0  0  0  0  0  0
    5.3237   -4.1533    0.0000 C   0  0  0  0  0  0  0  0  0  0  0  0
    4.6093   -4.5658    0.0000 C   0  0  0  0  0  0  0  0  0  0  0  0
    3.8948   -4.1533    0.0000 C   0  0  0  0  0  0  0  0  0  0  0  0
    3.8948   -3.3283    0.0000 C   0  0  0  0  0  0  0  0  0  0  0  0
    4.6093   -2.9158    0.0000 C   0  0  0  0  0  0  0  0  0  0  0  0
    6.0382   -2.9158    0.0000 O   0  0  0  0  0  0  0  0  0  0  0  0
    3.1803   -2.9158    0.0000 C   0  0  0  0  0  0  0  0  0  0  0  0
    6.0382   -4.5658    0.0000 O   0  0  0  0  0  0  0  0  0  0  0  0
    6.7527   -4.1533    0.0000 C   0  0  0  0  0  0  0  0  0  0  0  0
  1  2  1  0  0  0  0
  2  3  2  0  0  0  0
  3  4  1  0  0  0  0
  4  5  2  0  0  0  0
  5  6  1  0  0  0  0
  1  6  2  0  0  0  0
  1  7  1  0  0  0  0
  5  8  1  0  0  0  0
  9 10  1  0  0  0  0
  2  9  1  0  0  0  0
M  END
>  <cdx:groupId>
32

>  <cdx:fragmentId>
5

$$$$
