14514.cdx
  Mrv1902 05222410272D          

  9  9  0  0  0  0            999 V2000
    9.1545   -5.2957    0.0000 C   0  0  0  0  0  0  0  0  0  0  0  0
    9.7684   -5.8467    0.0000 C   0  0  0  0  0  0  0  0  0  0  0  0
    7.7021   -5.0680    0.0000 O   0  0  0  0  0  0  0  0  0  0  0  0
    8.3703   -5.5518    0.0000 C   0  0  0  0  0  0  0  0  0  0  0  0
    8.1166   -6.3369    0.0000 C   0  0  0  0  0  0  0  0  0  0  0  0
    7.2916   -6.3382    0.0000 C   0  0  0  0  0  0  0  0  0  0  0  0
    7.0354   -5.5539    0.0000 C   0  0  0  0  0  0  0  0  0  0  0  0
    6.2504   -5.3002    0.0000 C   0  0  0  0  0  0  0  0  0  0  0  0
    9.3247   -4.4884    0.0000 O   0  0  0  0  0  0  0  0  0  0  0  0
  1  2  1  0  0  0  0
  3  4  1  0  0  0  0
  4  5  2  0  0  0  0
  5  6  1  0  0  0  0
  6  7  2  0  0  0  0
  3  7  1  0  0  0  0
  7  8  1  0  0  0  0
  1  4  1  0  0  0  0
  1  9  2  0  0  0  0
M  END
>  <cdx:fragmentId>
9

$$$$
