1452.cdx
  Mrv1902 05222410192D          

 32 33  0  0  0  0            999 V2000
   13.2031   -6.3467    0.0000 C   0  0  0  0  0  0  0  0  0  0  0  0
   12.4887   -6.7592    0.0000 C   0  0  0  0  0  0  0  0  0  0  0  0
   11.7742   -6.3467    0.0000 C   0  0  0  0  0  0  0  0  0  0  0  0
   11.0597   -6.7592    0.0000 C   0  0  0  0  0  0  0  0  0  0  0  0
   10.3452   -7.1717    0.0000 C   0  0  0  0  0  0  0  0  0  0  0  0
    9.6308   -7.5842    0.0000 C   0  0  0  0  0  0  0  0  0  0  0  0
    8.9163   -7.9967    0.0000 C   0  0  0  0  0  0  0  0  0  0  0  0
    8.2018   -8.4092    0.0000 C   0  0  0  0  0  0  0  0  0  0  0  0
    8.2018   -9.2342    0.0000 C   0  0  0  0  0  0  0  0  0  0  0  0
    8.9163   -9.6467    0.0000 C   0  0  0  0  0  0  0  0  0  0  0  0
   13.9176   -6.7592    0.0000 O   0  0  0  0  0  0  0  0  0  0  0  0
    7.4874   -7.9967    0.0000 O   0  0  0  0  0  0  0  0  0  0  0  0
    6.7729   -8.4092    0.0000 C   0  0  1  0  0  0  0  0  0  0  0  0
    6.7729   -9.2342    0.0000 C   0  0  2  0  0  0  0  0  0  0  0  0
    7.4874   -9.6467    0.0000 O   0  0  0  0  0  0  0  0  0  0  0  0
    6.0584   -9.6467    0.0000 C   0  0  1  0  0  0  0  0  0  0  0  0
    6.0584  -10.4717    0.0000 O   0  0  0  0  0  0  0  0  0  0  0  0
    5.3439   -9.2342    0.0000 C   0  0  2  0  0  0  0  0  0  0  0  0
    4.6295   -9.6467    0.0000 O   0  0  0  0  0  0  0  0  0  0  0  0
    5.3439   -8.4092    0.0000 C   0  0  2  0  0  0  0  0  0  0  0  0
    6.0584   -7.9967    0.0000 O   0  0  0  0  0  0  0  0  0  0  0  0
    4.6295   -7.9967    0.0000 C   0  0  0  0  0  0  0  0  0  0  0  0
    3.9150   -8.4092    0.0000 O   0  0  0  0  0  0  0  0  0  0  0  0
    3.2005   -7.9967    0.0000 C   0  0  1  0  0  0  0  0  0  0  0  0
    2.4469   -8.3322    0.0000 C   0  0  2  0  0  0  0  0  0  0  0  0
    2.2753   -9.1392    0.0000 O   0  0  0  0  0  0  0  0  0  0  0  0
    1.8948   -7.7192    0.0000 C   0  0  0  0  0  0  0  0  0  0  0  0
    1.2274   -8.2041    0.0000 O   0  0  0  0  0  0  0  0  0  0  0  0
    2.3073   -7.0047    0.0000 C   0  0  0  0  0  0  0  0  0  0  0  0
    3.1143   -7.1762    0.0000 O   0  0  0  0  0  0  0  0  0  0  0  0
    1.1411   -7.3836    0.0000 C   0  0  0  0  0  0  0  0  0  0  0  0
    0.4737   -7.8685    0.0000 O   0  0  0  0  0  0  0  0  0  0  0  0
  1  2  2  0  0  0  0
  2  3  1  0  0  0  0
  3  4  1  0  0  0  0
  4  5  3  0  0  0  0
  5  6  1  0  0  0  0
  6  7  3  0  0  0  0
  7  8  1  0  0  0  0
  8  9  1  0  0  0  0
  9 10  1  0  0  0  0
  1 11  1  0  0  0  0
 13 12  1  1  0  0  0
 13 14  1  0  0  0  0
 14 15  1  6  0  0  0
 14 16  1  0  0  0  0
 16 17  1  1  0  0  0
 16 18  1  0  0  0  0
 18 19  1  6  0  0  0
 18 20  1  0  0  0  0
 20 21  1  0  0  0  0
 20 22  1  1  0  0  0
 22 23  1  0  0  0  0
 13 21  1  0  0  0  0
 24 25  1  0  0  0  0
 25 26  1  6  0  0  0
 25 27  1  0  0  0  0
 27 28  1  0  0  0  0
 27 29  1  0  0  0  0
 29 30  1  0  0  0  0
 27 31  1  0  0  0  0
 31 32  1  0  0  0  0
 24 30  1  0  0  0  0
 24 23  1  1  0  0  0
  8 12  1  0  0  0  0
M  END
>  <cdx:fragmentId>
25

$$$$
