14527.cdx
  Mrv1902 05222410182D          

 11 11  0  0  0  0            999 V2000
    7.1252   -4.5375    0.0000 C   0  0  0  0  0  0  0  0  0  0  0  0
    6.4108   -4.1250    0.0000 C   0  0  0  0  0  0  0  0  0  0  0  0
    6.4108   -3.3000    0.0000 C   0  0  0  0  0  0  0  0  0  0  0  0
    7.1252   -2.8875    0.0000 C   0  0  0  0  0  0  0  0  0  0  0  0
    7.8397   -3.3000    0.0000 C   0  0  0  0  0  0  0  0  0  0  0  0
    7.8397   -4.1250    0.0000 C   0  0  0  0  0  0  0  0  0  0  0  0
    7.8397   -6.6000    0.0000 C   0  0  0  0  0  0  0  0  0  0  0  0
    7.8397   -5.7750    0.0000 C   0  0  0  0  0  0  0  0  0  0  0  0
    7.1252   -5.3625    0.0000 C   0  0  0  0  0  0  0  0  0  0  0  0
    6.4108   -5.7750    0.0000 C   0  0  0  0  0  0  0  0  0  0  0  0
    6.4108   -6.6000    0.0000 C   0  0  0  0  0  0  0  0  0  0  0  0
  1  2  1  0  0  0  0
  2  3  2  0  0  0  0
  3  4  1  0  0  0  0
  4  5  2  0  0  0  0
  5  6  1  0  0  0  0
  1  6  2  0  0  0  0
  7  8  1  0  0  0  0
  8  9  1  0  0  0  0
  9 10  1  0  0  0  0
 10 11  1  0  0  0  0
  1  9  1  0  0  0  0
M  END
>  <cdx:fragmentId>
5

$$$$
