14530.cdx
  Mrv1902 05222410192D          

 11 11  0  0  0  0            999 V2000
    5.6102   -2.7302    0.0000 C   0  0  0  0  0  0  0  0  0  0  0  0
    6.3247   -3.1427    0.0000 C   0  0  0  0  0  0  0  0  0  0  0  0
    4.8957   -3.1427    0.0000 C   0  0  0  0  0  0  0  0  0  0  0  0
    4.1813   -2.7302    0.0000 C   0  0  0  0  0  0  0  0  0  0  0  0
    3.4668   -3.1427    0.0000 C   0  0  0  0  0  0  0  0  0  0  0  0
    3.4668   -3.9677    0.0000 C   0  0  0  0  0  0  0  0  0  0  0  0
    4.1813   -4.3802    0.0000 C   0  0  0  0  0  0  0  0  0  0  0  0
    4.8957   -3.9677    0.0000 C   0  0  0  0  0  0  0  0  0  0  0  0
    2.7523   -4.3802    0.0000 O   0  0  0  0  0  0  0  0  0  0  0  0
    2.7523   -2.7302    0.0000 O   0  0  0  0  0  0  0  0  0  0  0  0
    5.6102   -1.9052    0.0000 O   0  0  0  0  0  0  0  0  0  0  0  0
  1  2  1  0  0  0  0
  3  4  1  0  0  0  0
  4  5  2  0  0  0  0
  5  6  1  0  0  0  0
  6  7  2  0  0  0  0
  7  8  1  0  0  0  0
  3  8  2  0  0  0  0
  6  9  1  0  0  0  0
  5 10  1  0  0  0  0
  1  3  1  0  0  0  0
  1 11  2  0  0  0  0
M  END
>  <cdx:groupId>
35

>  <cdx:fragmentId>
9

$$$$
