14542.cdx
  Mrv1902 05222410222D          

 19 18  0  0  0  0            999 V2000
    1.8934   -6.7237    0.0000 C   0  0  0  0  0  0  0  0  0  0  0  0
    2.6078   -7.1362    0.0000 C   0  0  0  0  0  0  0  0  0  0  0  0
    3.3223   -6.7237    0.0000 C   0  0  0  0  0  0  0  0  0  0  0  0
    4.0368   -7.1362    0.0000 C   0  0  0  0  0  0  0  0  0  0  0  0
    4.7513   -6.7237    0.0000 C   0  0  0  0  0  0  0  0  0  0  0  0
    5.4657   -7.1362    0.0000 C   0  0  0  0  0  0  0  0  0  0  0  0
    6.1802   -6.7237    0.0000 C   0  0  0  0  0  0  0  0  0  0  0  0
    6.8947   -7.1362    0.0000 C   0  0  0  0  0  0  0  0  0  0  0  0
    7.6091   -6.7237    0.0000 C   0  0  0  0  0  0  0  0  0  0  0  0
    8.3236   -7.1362    0.0000 C   0  0  0  0  0  0  0  0  0  0  0  0
    9.0381   -6.7237    0.0000 C   0  0  0  0  0  0  0  0  0  0  0  0
    9.7526   -7.1362    0.0000 C   0  0  0  0  0  0  0  0  0  0  0  0
   10.4670   -6.7237    0.0000 C   0  0  0  0  0  0  0  0  0  0  0  0
   11.1815   -7.1362    0.0000 C   0  0  0  0  0  0  0  0  0  0  0  0
   11.8960   -6.7237    0.0000 C   0  0  0  0  0  0  0  0  0  0  0  0
    2.6078   -7.9612    0.0000 C   0  0  0  0  0  0  0  0  0  0  0  0
    5.4657   -7.9612    0.0000 C   0  0  0  0  0  0  0  0  0  0  0  0
    8.3236   -7.9612    0.0000 C   0  0  0  0  0  0  0  0  0  0  0  0
   11.1815   -7.9612    0.0000 C   0  0  0  0  0  0  0  0  0  0  0  0
  1  2  1  0  0  0  0
  2  3  1  0  0  0  0
  3  4  1  0  0  0  0
  4  5  1  0  0  0  0
  5  6  1  0  0  0  0
  6  7  1  0  0  0  0
  7  8  1  0  0  0  0
  8  9  1  0  0  0  0
  9 10  1  0  0  0  0
 10 11  1  0  0  0  0
 11 12  1  0  0  0  0
 12 13  1  0  0  0  0
 13 14  1  0  0  0  0
 14 15  1  0  0  0  0
  2 16  1  0  0  0  0
  6 17  1  0  0  0  0
 10 18  1  0  0  0  0
 14 19  1  0  0  0  0
M  END
>  <cdx:fragmentId>
3

$$$$
