1454.cdx
  Mrv1902 05222410202D          

 29 30  0  0  0  0            999 V2000
    3.8258   -7.1225    0.0000 C   0  0  0  0  0  0  0  0  0  0  0  0
    3.8258   -7.9475    0.0000 C   0  0  0  0  0  0  0  0  0  0  0  0
    4.5402   -8.3600    0.0000 C   0  0  0  0  0  0  0  0  0  0  0  0
    5.2547   -7.9475    0.0000 C   0  0  0  0  0  0  0  0  0  0  0  0
    5.2547   -7.1225    0.0000 C   0  0  0  0  0  0  0  0  0  0  0  0
    4.5402   -6.7100    0.0000 C   0  0  0  0  0  0  0  0  0  0  0  0
    6.6837   -7.1225    0.0000 C   0  0  0  0  0  0  0  0  0  0  0  0
    5.9692   -6.7100    0.0000 C   0  0  0  0  0  0  0  0  0  0  0  0
    8.1126   -7.1225    0.0000 C   0  0  0  0  0  0  0  0  0  0  0  0
    7.3981   -6.7100    0.0000 C   0  0  0  0  0  0  0  0  0  0  0  0
    9.5415   -7.1225    0.0000 C   0  0  0  0  0  0  0  0  0  0  0  0
    8.8271   -6.7100    0.0000 C   0  0  0  0  0  0  0  0  0  0  0  0
   10.2560   -6.7100    0.0000 C   0  0  0  0  0  0  0  0  0  0  0  0
    8.8271   -5.8850    0.0000 O   0  0  0  0  0  0  0  0  0  0  0  0
    8.1126   -5.4725    0.0000 C   0  0  0  0  0  0  0  0  0  0  0  0
    7.3981   -5.8850    0.0000 O   0  0  0  0  0  0  0  0  0  0  0  0
   10.9705   -2.1725    0.0000 C   0  0  0  0  0  0  0  0  0  0  0  0
    9.5415   -4.6475    0.0000 C   0  0  0  0  0  0  0  0  0  0  0  0
   10.2560   -1.7600    0.0000 C   0  0  0  0  0  0  0  0  0  0  0  0
   10.2560   -0.9350    0.0000 C   0  0  0  0  0  0  0  0  0  0  0  0
    9.5415   -2.9975    0.0000 C   0  0  0  0  0  0  0  0  0  0  0  0
    9.5415   -2.1725    0.0000 C   0  0  0  0  0  0  0  0  0  0  0  0
    3.1113   -8.3600    0.0000 O   0  0  0  0  0  0  0  0  0  0  0  0
    8.1126   -4.6475    0.0000 C   0  0  0  0  0  0  0  0  0  0  0  0
    8.8271   -4.2350    0.0000 C   0  0  0  0  0  0  0  0  0  0  0  0
    8.8271   -3.4100    0.0000 C   0  0  0  0  0  0  0  0  0  0  0  0
   10.9705   -7.1225    0.0000 C   0  0  0  0  0  0  0  0  0  0  0  0
    3.1113   -6.7100    0.0000 O   0  0  0  0  0  0  0  0  0  0  0  0
    2.3968   -7.1225    0.0000 C   0  0  0  0  0  0  0  0  0  0  0  0
  1  2  2  0  0  0  0
  2  3  1  0  0  0  0
  3  4  2  0  0  0  0
  4  5  1  0  0  0  0
  5  6  2  0  0  0  0
  6  1  1  0  0  0  0
  7  8  1  0  0  0  0
  8  5  1  0  0  0  0
  9 10  1  0  0  0  0
 10  7  1  0  0  0  0
 11 12  1  0  0  0  0
 12  9  1  0  0  0  0
 13 11  1  0  0  0  0
 12 14  1  0  0  0  0
 14 15  1  0  0  0  0
 15 16  1  0  0  0  0
 16 10  1  0  0  0  0
 19 17  1  0  0  0  0
 25 18  1  0  0  0  0
 19 22  2  0  0  0  0
 24 15  1  0  0  0  0
 20 19  1  0  0  0  0
 21 26  1  0  0  0  0
 22 21  1  0  0  0  0
 25 24  2  0  0  0  0
  2 23  1  0  0  0  0
 26 25  1  0  0  0  0
 13 27  1  0  0  0  0
  1 28  1  0  0  0  0
 28 29  1  0  0  0  0
M  END
>  <cdx:fragmentId>
5

$$$$
