14551.cdx
  Mrv1902 05222410202D          

 16 16  0  0  0  0            999 V2000
    3.7845   -6.9781    0.0000 C   0  0  0  0  0  0  0  0  0  0  0  0
    5.2135   -6.9781    0.0000 C   0  0  0  0  0  0  0  0  0  0  0  0
    4.4990   -6.5656    0.0000 C   0  0  0  0  0  0  0  0  0  0  0  0
    5.9279   -6.5656    0.0000 C   0  0  0  0  0  0  0  0  0  0  0  0
    6.6424   -6.9781    0.0000 C   0  0  0  0  0  0  0  0  0  0  0  0
    7.3569   -6.5656    0.0000 C   0  0  0  0  0  0  0  0  0  0  0  0
    8.0714   -6.9781    0.0000 C   0  0  0  0  0  0  0  0  0  0  0  0
    8.1576   -7.7986    0.0000 N   0  0  0  0  0  0  0  0  0  0  0  0
    8.9646   -7.9701    0.0000 C   0  0  0  0  0  0  0  0  0  0  0  0
    9.3771   -7.2557    0.0000 N   0  0  0  0  0  0  0  0  0  0  0  0
    8.8250   -6.6426    0.0000 C   0  0  0  0  0  0  0  0  0  0  0  0
    4.4990   -5.7406    0.0000 C   0  0  0  0  0  0  0  0  0  0  0  0
    7.3569   -5.7406    0.0000 C   0  0  0  0  0  0  0  0  0  0  0  0
    6.6424   -5.3281    0.0000 O   0  0  0  0  0  0  0  0  0  0  0  0
    8.0714   -5.3281    0.0000 O   0  0  0  0  0  0  0  0  0  0  0  0
    9.1781   -8.7670    0.0000 N   0  0  0  0  0  0  0  0  0  0  0  0
  2  3  2  0  0  0  0
  3  1  1  0  0  0  0
  2  4  1  0  0  0  0
  4  5  1  0  0  0  0
  5  6  1  0  0  0  0
  6  7  1  0  0  0  0
  7  8  1  0  0  0  0
  8  9  2  0  0  0  0
  9 10  1  0  0  0  0
 10 11  1  0  0  0  0
 11  7  1  0  0  0  0
  3 12  1  0  0  0  0
  6 13  1  0  0  0  0
 13 14  1  0  0  0  0
 13 15  2  0  0  0  0
  9 16  1  0  0  0  0
M  END
>  <cdx:fragmentId>
24

$$$$
