14564.cdx
  Mrv1902 05222410232D          

 89 98  0  0  0  0            999 V2000
    9.3863   -8.1450    0.0000 C   0  0  0  0  0  0  0  0  0  0  0  0
    8.6719   -8.5575    0.0000 C   0  0  1  0  0  0  0  0  0  0  0  0
    8.6719   -9.3825    0.0000 C   0  0  1  0  0  0  0  0  0  0  0  0
    9.3863   -9.7950    0.0000 C   0  0  2  0  0  0  0  0  0  0  0  0
   10.1008   -9.3825    0.0000 C   0  0  2  0  0  0  0  0  0  0  0  0
   10.8153   -9.7950    0.0000 C   0  0  0  0  0  0  0  0  0  0  0  0
   11.5297   -9.3825    0.0000 C   0  0  0  0  0  0  0  0  0  0  0  0
   11.5297   -8.5575    0.0000 C   0  0  1  0  0  0  0  0  0  0  0  0
   12.2442   -8.1450    0.0000 C   0  0  2  0  0  0  0  0  0  0  0  0
   12.9587   -8.5575    0.0000 C   0  0  0  0  0  0  0  0  0  0  0  0
   13.6732   -8.1450    0.0000 C   0  0  2  0  0  0  0  0  0  0  0  0
   13.6732   -7.3200    0.0000 C   0  0  1  0  0  0  0  0  0  0  0  0
   14.3876   -6.9075    0.0000 C   0  0  0  0  0  0  0  0  0  0  0  0
   14.3876   -6.0825    0.0000 C   0  0  0  0  0  0  0  0  0  0  0  0
   13.6732   -5.6700    0.0000 C   0  0  0  0  0  0  0  0  0  0  0  0
   12.9587   -6.0825    0.0000 C   0  0  0  0  0  0  0  0  0  0  0  0
   12.9587   -6.9075    0.0000 C   0  0  1  0  0  0  0  0  0  0  0  0
   12.2442   -7.3200    0.0000 C   0  0  0  0  0  0  0  0  0  0  0  0
   11.5297   -6.9075    0.0000 C   0  0  0  0  0  0  0  0  0  0  0  0
   10.8153   -7.3200    0.0000 C   0  0  0  0  0  0  0  0  0  0  0  0
   10.8153   -8.1450    0.0000 C   0  0  2  0  0  0  0  0  0  0  0  0
   10.1008   -8.5575    0.0000 C   0  0  1  0  0  0  0  0  0  0  0  0
    7.9574   -9.7950    0.0000 O   0  0  0  0  0  0  0  0  0  0  0  0
    7.2429   -8.5575    0.0000 O   0  0  0  0  0  0  0  0  0  0  0  0
    7.2429   -9.3825    0.0000 C   0  0  2  0  0  0  0  0  0  0  0  0
    6.5284   -9.7950    0.0000 C   0  0  1  0  0  0  0  0  0  0  0  0
    5.8140   -9.3825    0.0000 C   0  0  2  0  0  0  0  0  0  0  0  0
    5.8140   -8.5575    0.0000 C   0  0  1  0  0  0  0  0  0  0  0  0
    6.5284   -8.1450    0.0000 C   0  0  1  0  0  0  0  0  0  0  0  0
    6.5284   -7.3200    0.0000 C   0  0  0  0  0  0  0  0  0  0  0  0
    5.8140   -6.9075    0.0000 O   0  0  0  0  0  0  0  0  0  0  0  0
    5.0995   -8.1450    0.0000 O   0  0  0  0  0  0  0  0  0  0  0  0
    5.0995   -9.7950    0.0000 O   0  0  0  0  0  0  0  0  0  0  0  0
    6.5284  -10.6200    0.0000 O   0  0  0  0  0  0  0  0  0  0  0  0
   10.1008   -7.7325    0.0000 C   0  0  0  0  0  0  0  0  0  0  0  0
   13.2607   -4.9555    0.0000 C   0  0  0  0  0  0  0  0  0  0  0  0
   14.0857   -4.9555    0.0000 C   0  0  0  0  0  0  0  0  0  0  0  0
   12.2442   -8.9700    0.0000 C   0  0  0  0  0  0  0  0  0  0  0  0
   11.5297   -7.7325    0.0000 C   0  0  0  0  0  0  0  0  0  0  0  0
    8.9738  -10.5094    0.0000 C   0  0  0  0  0  0  0  0  0  0  0  0
    8.1769  -10.7230    0.0000 O   0  0  0  0  0  0  0  0  0  0  0  0
   13.6732   -8.9700    0.0000 O   0  0  0  0  0  0  0  0  0  0  0  0
    7.9574   -8.1450    0.0000 O   0  0  0  0  0  0  0  0  0  0  0  0
   14.4588   -7.8150    0.0000 C   0  0  0  0  0  0  0  0  0  0  0  0
   14.4588   -8.6400    0.0000 O   0  0  0  0  0  0  0  0  0  0  0  0
   15.1733   -7.4025    0.0000 O   0  0  0  0  0  0  0  0  0  0  0  0
   15.8878   -8.6400    0.0000 O   0  0  0  0  0  0  0  0  0  0  0  0
   15.8878   -7.8150    0.0000 C   0  0  2  0  0  0  0  0  0  0  0  0
   16.6022   -7.4025    0.0000 C   0  0  1  0  0  0  0  0  0  0  0  0
   17.3167   -7.8150    0.0000 C   0  0  2  0  0  0  0  0  0  0  0  0
   17.3167   -8.6400    0.0000 C   0  0  2  0  0  0  0  0  0  0  0  0
   16.6022   -9.0525    0.0000 C   0  0  0  0  0  0  0  0  0  0  0  0
   18.0312   -9.0525    0.0000 O   0  0  0  0  0  0  0  0  0  0  0  0
   18.0312   -7.4025    0.0000 O   0  0  0  0  0  0  0  0  0  0  0  0
   16.6022   -6.5775    0.0000 O   0  0  0  0  0  0  0  0  0  0  0  0
   18.0312   -6.5775    0.0000 O   0  0  0  0  0  0  0  0  0  0  0  0
   17.3167   -6.1650    0.0000 C   0  0  2  0  0  0  0  0  0  0  0  0
   17.3167   -5.3400    0.0000 C   0  0  1  0  0  0  0  0  0  0  0  0
   18.0312   -4.9275    0.0000 C   0  0  1  0  0  0  0  0  0  0  0  0
   18.7456   -5.3400    0.0000 C   0  0  2  0  0  0  0  0  0  0  0  0
   18.7456   -6.1650    0.0000 C   0  0  2  0  0  0  0  0  0  0  0  0
   19.4601   -4.9275    0.0000 O   0  0  0  0  0  0  0  0  0  0  0  0
   20.1746   -6.1650    0.0000 O   0  0  0  0  0  0  0  0  0  0  0  0
   20.1746   -5.3400    0.0000 C   0  0  2  0  0  0  0  0  0  0  0  0
   20.8891   -4.9275    0.0000 C   0  0  1  0  0  0  0  0  0  0  0  0
   21.6035   -5.3400    0.0000 C   0  0  2  0  0  0  0  0  0  0  0  0
   21.6035   -6.1650    0.0000 C   0  0  1  0  0  0  0  0  0  0  0  0
   20.8891   -6.5775    0.0000 C   0  0  0  0  0  0  0  0  0  0  0  0
   22.3180   -6.5775    0.0000 O   0  0  0  0  0  0  0  0  0  0  0  0
   22.3180   -4.9275    0.0000 O   0  0  0  0  0  0  0  0  0  0  0  0
   20.8891   -4.1025    0.0000 O   0  0  0  0  0  0  0  0  0  0  0  0
   19.4601   -6.5775    0.0000 C   0  0  0  0  0  0  0  0  0  0  0  0
   18.0312   -4.1025    0.0000 O   0  0  0  0  0  0  0  0  0  0  0  0
   16.6022   -4.9275    0.0000 O   0  0  0  0  0  0  0  0  0  0  0  0
   10.1008  -10.2075    0.0000 H   0  0  0  0  0  0  0  0  0  0  0  0
   12.9587   -7.7325    0.0000 H   0  0  0  0  0  0  0  0  0  0  0  0
   10.8153   -8.9700    0.0000 H   0  0  0  0  0  0  0  0  0  0  0  0
    9.7988  -10.5094    0.0000 C   0  0  0  0  0  0  0  0  0  0  0  0
    9.3863  -11.2239    0.0000 O   0  0  0  0  0  0  0  0  0  0  0  0
   10.6238  -10.5094    0.0000 O   0  0  0  0  0  0  0  0  0  0  0  0
   23.0325   -5.3400    0.0000 C   0  0  2  0  0  0  0  0  0  0  0  0
   23.1187   -6.1604    0.0000 O   0  0  0  0  0  0  0  0  0  0  0  0
   23.9257   -6.3320    0.0000 C   0  0  0  0  0  0  0  0  0  0  0  0
   24.3382   -5.6175    0.0000 C   0  0  2  0  0  0  0  0  0  0  0  0
   23.7861   -5.0044    0.0000 C   0  0  1  0  0  0  0  0  0  0  0  0
   23.9577   -4.1974    0.0000 O   0  0  0  0  0  0  0  0  0  0  0  0
   25.0526   -5.2050    0.0000 O   0  0  0  0  0  0  0  0  0  0  0  0
   25.0526   -6.0300    0.0000 C   0  0  0  0  0  0  0  0  0  0  0  0
   25.7671   -5.6175    0.0000 O   0  0  0  0  0  0  0  0  0  0  0  0
  1  2  1  0  0  0  0
  2  3  1  0  0  0  0
  3  4  1  0  0  0  0
  4  5  1  0  0  0  0
  5  6  1  0  0  0  0
  6  7  1  0  0  0  0
  7  8  1  0  0  0  0
  8  9  1  0  0  0  0
  9 10  1  0  0  0  0
 10 11  1  0  0  0  0
 11 12  1  0  0  0  0
 12 13  1  0  0  0  0
 13 14  1  0  0  0  0
 14 15  1  0  0  0  0
 15 16  1  0  0  0  0
 16 17  1  0  0  0  0
 12 17  1  0  0  0  0
 17 18  1  0  0  0  0
  9 18  1  0  0  0  0
 18 19  2  0  0  0  0
 19 20  1  0  0  0  0
 20 21  1  0  0  0  0
  8 21  1  0  0  0  0
 21 22  1  0  0  0  0
  5 22  1  0  0  0  0
  1 22  1  0  0  0  0
 24 25  1  0  0  0  0
 25 26  1  0  0  0  0
 26 27  1  0  0  0  0
 27 28  1  0  0  0  0
 28 29  1  0  0  0  0
 24 29  1  0  0  0  0
 30 31  1  0  0  0  0
 29 30  1  1  0  0  0
 28 32  1  6  0  0  0
 27 33  1  1  0  0  0
 26 34  1  6  0  0  0
 25 23  1  1  0  0  0
  3 23  1  1  0  0  0
 22 35  1  1  0  0  0
 15 36  1  0  0  0  0
 15 37  1  0  0  0  0
  9 38  1  6  0  0  0
  8 39  1  1  0  0  0
 40 41  1  0  0  0  0
  4 40  1  6  0  0  0
 11 42  1  6  0  0  0
  2 43  1  1  0  0  0
 44 45  2  0  0  0  0
 47 48  1  0  0  0  0
 48 49  1  0  0  0  0
 49 50  1  0  0  0  0
 50 51  1  0  0  0  0
 51 52  1  0  0  0  0
 47 52  1  0  0  0  0
 51 53  1  1  0  0  0
 50 54  1  1  0  0  0
 56 57  1  0  0  0  0
 57 58  1  0  0  0  0
 58 59  1  0  0  0  0
 59 60  1  0  0  0  0
 60 61  1  0  0  0  0
 56 61  1  0  0  0  0
 63 64  1  0  0  0  0
 64 65  1  0  0  0  0
 65 66  1  0  0  0  0
 66 67  1  0  0  0  0
 67 68  1  0  0  0  0
 63 68  1  0  0  0  0
 67 69  1  6  0  0  0
 66 70  1  1  0  0  0
 65 71  1  6  0  0  0
 64 62  1  1  0  0  0
 60 62  1  1  0  0  0
 61 72  1  6  0  0  0
 59 73  1  6  0  0  0
 58 74  1  6  0  0  0
 57 55  1  1  0  0  0
 49 55  1  6  0  0  0
 48 46  1  1  0  0  0
 44 46  1  0  0  0  0
 12 44  1  1  0  0  0
  5 75  1  6  0  0  0
 17 76  1  1  0  0  0
 21 77  1  6  0  0  0
  4 78  1  1  0  0  0
 78 79  1  0  0  0  0
 78 80  2  0  0  0  0
 81 70  1  1  0  0  0
 81 82  1  0  0  0  0
 82 83  1  0  0  0  0
 83 84  1  0  0  0  0
 84 85  1  0  0  0  0
 85 81  1  0  0  0  0
 85 86  1  6  0  0  0
 84 87  1  6  0  0  0
 84 88  1  0  0  0  0
 88 89  1  0  0  0  0
M  END
>  <cdx:fragmentId>
5

$$$$
