145692.cdx
  Mrv1902 05222410202D          

 10  9  0  0  0  0            999 V2000
    8.3651   -7.2306    0.0000 C   0  0  0  0  0  0  0  0  0  0  0  0
    8.3651   -6.4056    0.0000 O   0  0  0  0  0  0  0  0  0  0  0  0
    9.0796   -7.6431    0.0000 O   0  0  0  0  0  0  0  0  0  0  0  0
    7.6506  -10.1181    0.0000 C   0  0  0  0  0  0  0  0  0  0  0  0
    6.2217  -10.1181    0.0000 C   0  0  0  0  0  0  0  0  0  0  0  0
    6.9362   -9.7056    0.0000 S   0  3  0  0  0  0  0  0  0  0  0  0
    6.9362   -8.8806    0.0000 C   0  0  0  0  0  0  0  0  0  0  0  0
    7.6506   -8.4681    0.0000 C   0  0  0  0  0  0  0  0  0  0  0  0
    7.6506   -7.6431    0.0000 C   0  0  2  0  0  0  0  0  0  0  0  0
    6.9362   -7.2306    0.0000 N   0  0  0  0  0  0  0  0  0  0  0  0
  6  4  1  0  0  0  0
  6  5  1  0  0  0  0
  7  6  1  0  0  0  0
  8  7  1  0  0  0  0
  9  8  1  0  0  0  0
  9 10  1  6  0  0  0
  1  9  1  0  0  0  0
  1  2  2  0  0  0  0
  1  3  1  0  0  0  0
M  CHG  1   6   1
M  END
>  <cdx:fragmentId>
686

$$$$
