14579.cdx
  Mrv1902 05222410212D          

 15 15  0  0  0  0            999 V2000
    6.5740   -3.8577    0.0000 C   0  0  0  0  0  0  0  0  0  0  0  0
    5.8595   -3.4452    0.0000 C   0  0  0  0  0  0  0  0  0  0  0  0
    5.1451   -3.8577    0.0000 C   0  0  0  0  0  0  0  0  0  0  0  0
    6.5740   -4.6827    0.0000 O   0  0  0  0  0  0  0  0  0  0  0  0
    5.8595   -2.6202    0.0000 O   0  0  0  0  0  0  0  0  0  0  0  0
    4.4306   -3.4452    0.0000 O   0  0  0  0  0  0  0  0  0  0  0  0
    7.2885   -3.4452    0.0000 C   0  0  0  0  0  0  0  0  0  0  0  0
    8.0030   -3.8577    0.0000 C   0  0  0  0  0  0  0  0  0  0  0  0
    8.7174   -3.4452    0.0000 C   0  0  0  0  0  0  0  0  0  0  0  0
    8.7174   -2.6202    0.0000 C   0  0  0  0  0  0  0  0  0  0  0  0
    8.0030   -2.2077    0.0000 C   0  0  0  0  0  0  0  0  0  0  0  0
    7.2885   -2.6202    0.0000 C   0  0  0  0  0  0  0  0  0  0  0  0
    9.4319   -3.8577    0.0000 O   0  0  0  0  0  0  0  0  0  0  0  0
   10.1464   -3.4452    0.0000 C   0  0  0  0  0  0  0  0  0  0  0  0
    9.4319   -2.2077    0.0000 O   0  0  0  0  0  0  0  0  0  0  0  0
  1  2  1  0  0  0  0
  2  3  1  0  0  0  0
  1  4  1  0  0  0  0
  2  5  1  0  0  0  0
  3  6  1  0  0  0  0
  7  8  1  0  0  0  0
  8  9  2  0  0  0  0
  9 10  1  0  0  0  0
 10 11  2  0  0  0  0
 11 12  1  0  0  0  0
  7 12  2  0  0  0  0
 13 14  1  0  0  0  0
  9 13  1  0  0  0  0
 10 15  1  0  0  0  0
  1  7  1  0  0  0  0
M  END
>  <cdx:fragmentId>
17

$$$$
