14574.cdx
  Mrv1902 05222410252D          

 36 40  0  0  0  0            999 V2000
   11.1536   -8.6528    0.0000 C   0  0  0  0  0  0  0  0  0  0  0  0
   11.1688   -5.7949    0.0000 C   0  0  0  0  0  0  0  0  0  0  0  0
    4.4571   -5.5383    0.0000 C   0  0  0  0  0  0  0  0  0  0  0  0
    4.4527   -6.3633    0.0000 O   0  0  0  0  0  0  0  0  0  0  0  0
   10.3287   -8.6484    0.0000 O   0  0  0  0  0  0  0  0  0  0  0  0
   11.1612   -7.2238    0.0000 O   0  0  0  0  0  0  0  0  0  0  0  0
   10.3438   -5.7905    0.0000 O   0  0  0  0  0  0  0  0  0  0  0  0
    8.0007  -10.2652    0.0000 O   0  0  0  0  0  0  0  0  0  0  0  0
    9.3829   -9.9027    0.0000 C   0  0  0  0  0  0  0  0  0  0  0  0
    8.5872   -9.6850    0.0000 C   0  0  0  0  0  0  0  0  0  0  0  0
    8.3779   -8.8870    0.0000 O   0  0  0  0  0  0  0  0  0  0  0  0
    2.2940   -9.2394    0.0000 O   0  0  0  0  0  0  0  0  0  0  0  0
    9.0950   -7.9274    0.0000 C   0  0  0  0  0  0  0  0  0  0  0  0
    9.9200   -7.9317    0.0000 C   0  0  0  0  0  0  0  0  0  0  0  0
   10.3362   -7.2195    0.0000 C   0  0  0  0  0  0  0  0  0  0  0  0
    9.9275   -6.5028    0.0000 C   0  0  0  0  0  0  0  0  0  0  0  0
    9.1025   -6.4984    0.0000 C   0  0  0  0  0  0  0  0  0  0  0  0
    7.5821   -8.6692    0.0000 C   0  0  0  0  0  0  0  0  0  0  0  0
    8.6863   -7.2107    0.0000 C   0  0  0  0  0  0  0  0  0  0  0  0
    7.3728   -7.8712    0.0000 C   0  0  1  0  0  0  0  0  0  0  0  0
    7.8613   -7.2064    0.0000 C   0  0  1  0  0  0  0  0  0  0  0  0
    7.3799   -6.5364    0.0000 O   0  0  0  0  0  0  0  0  0  0  0  0
    6.5896   -7.6121    0.0000 C   0  0  0  0  0  0  0  0  0  0  0  0
    6.5939   -6.7871    0.0000 C   0  0  0  0  0  0  0  0  0  0  0  0
    5.8816   -6.3709    0.0000 C   0  0  0  0  0  0  0  0  0  0  0  0
    5.1650   -6.7796    0.0000 C   0  0  0  0  0  0  0  0  0  0  0  0
    5.1519   -9.2545    0.0000 C   0  0  0  0  0  0  0  0  0  0  0  0
    5.8685   -8.8458    0.0000 C   0  0  0  0  0  0  0  0  0  0  0  0
    5.8729   -8.0208    0.0000 C   0  0  0  0  0  0  0  0  0  0  0  0
    5.1606   -7.6046    0.0000 C   0  0  0  0  0  0  0  0  0  0  0  0
    3.0107   -8.8307    0.0000 C   0  0  0  0  0  0  0  0  0  0  0  0
    3.7230   -9.2470    0.0000 C   0  0  0  0  0  0  0  0  0  0  0  0
    4.4396   -8.8383    0.0000 C   0  0  0  0  0  0  0  0  0  0  0  0
    4.4440   -8.0133    0.0000 C   0  0  0  0  0  0  0  0  0  0  0  0
    3.7317   -7.5970    0.0000 C   0  0  0  0  0  0  0  0  0  0  0  0
    3.0151   -8.0057    0.0000 C   0  0  0  0  0  0  0  0  0  0  0  0
  5  1  1  0  0  0  0
  7  2  1  0  0  0  0
  4  3  1  0  0  0  0
 26  4  1  0  0  0  0
 14  5  1  0  0  0  0
 15  6  1  0  0  0  0
 16  7  1  0  0  0  0
 10  8  2  0  0  0  0
 10  9  1  0  0  0  0
 11 10  1  0  0  0  0
 18 11  1  0  0  0  0
 31 12  1  0  0  0  0
 13 19  1  0  0  0  0
 14 13  2  0  0  0  0
 15 14  1  0  0  0  0
 16 15  1  0  0  0  0
 17 16  1  0  0  0  0
 19 17  2  0  0  0  0
 20 18  1  6  0  0  0
 21 19  1  1  0  0  0
 20 23  1  0  0  0  0
 21 20  1  0  0  0  0
 22 21  1  0  0  0  0
 24 22  1  0  0  0  0
 23 29  1  0  0  0  0
 24 23  2  0  0  0  0
 25 24  1  0  0  0  0
 26 25  2  0  0  0  0
 30 26  1  0  0  0  0
 27 33  1  0  0  0  0
 28 27  1  0  0  0  0
 29 28  1  0  0  0  0
 30 29  2  0  0  0  0
 34 30  1  0  0  0  0
 31 36  1  0  0  0  0
 32 31  2  0  0  0  0
 33 32  1  0  0  0  0
 34 33  2  0  0  0  0
 35 34  1  0  0  0  0
 36 35  2  0  0  0  0
M  END
>  <cdx:fragmentId>
5

$$$$
