1458.cdx
  Mrv1902 05222410262D          

 31 32  0  0  0  0            999 V2000
    3.8258   -7.4663    0.0000 C   0  0  0  0  0  0  0  0  0  0  0  0
    3.8258   -8.2912    0.0000 C   0  0  0  0  0  0  0  0  0  0  0  0
    4.5402   -8.7037    0.0000 C   0  0  0  0  0  0  0  0  0  0  0  0
    5.2547   -8.2912    0.0000 C   0  0  0  0  0  0  0  0  0  0  0  0
    5.2547   -7.4663    0.0000 C   0  0  0  0  0  0  0  0  0  0  0  0
    4.5402   -7.0537    0.0000 C   0  0  0  0  0  0  0  0  0  0  0  0
    6.6837   -7.4663    0.0000 C   0  0  0  0  0  0  0  0  0  0  0  0
    5.9692   -7.0537    0.0000 C   0  0  0  0  0  0  0  0  0  0  0  0
    8.1126   -7.4663    0.0000 C   0  0  0  0  0  0  0  0  0  0  0  0
    7.3981   -7.0537    0.0000 C   0  0  0  0  0  0  0  0  0  0  0  0
    9.5415   -7.4663    0.0000 C   0  0  0  0  0  0  0  0  0  0  0  0
    8.8271   -7.0537    0.0000 C   0  0  0  0  0  0  0  0  0  0  0  0
   10.2560   -7.0537    0.0000 C   0  0  0  0  0  0  0  0  0  0  0  0
    8.8271   -6.2287    0.0000 O   0  0  0  0  0  0  0  0  0  0  0  0
    8.1126   -5.8163    0.0000 C   0  0  0  0  0  0  0  0  0  0  0  0
    7.3981   -6.2287    0.0000 O   0  0  0  0  0  0  0  0  0  0  0  0
    9.5415   -4.9913    0.0000 C   0  0  0  0  0  0  0  0  0  0  0  0
    8.8271   -4.5788    0.0000 C   0  0  0  0  0  0  0  0  0  0  0  0
    8.1126   -4.9913    0.0000 C   0  0  0  0  0  0  0  0  0  0  0  0
   10.9705   -4.9913    0.0000 C   0  0  0  0  0  0  0  0  0  0  0  0
   10.2560   -4.5788    0.0000 C   0  0  0  0  0  0  0  0  0  0  0  0
   12.3994   -4.9913    0.0000 C   0  0  0  0  0  0  0  0  0  0  0  0
   11.6850   -4.5788    0.0000 C   0  0  0  0  0  0  0  0  0  0  0  0
    3.1113   -8.7037    0.0000 O   0  0  0  0  0  0  0  0  0  0  0  0
    8.8271   -3.7538    0.0000 C   0  0  0  0  0  0  0  0  0  0  0  0
   11.6850   -3.7538    0.0000 C   0  0  0  0  0  0  0  0  0  0  0  0
   10.9705   -7.4662    0.0000 C   0  0  0  0  0  0  0  0  0  0  0  0
   11.6850   -7.0537    0.0000 C   0  0  0  0  0  0  0  0  0  0  0  0
   12.3994   -7.4662    0.0000 C   0  0  0  0  0  0  0  0  0  0  0  0
    3.1113   -7.0537    0.0000 O   0  0  0  0  0  0  0  0  0  0  0  0
    2.3968   -7.4663    0.0000 C   0  0  0  0  0  0  0  0  0  0  0  0
  1  2  2  0  0  0  0
  2  3  1  0  0  0  0
  3  4  2  0  0  0  0
  4  5  1  0  0  0  0
  5  6  2  0  0  0  0
  6  1  1  0  0  0  0
  7  8  1  0  0  0  0
  8  5  1  0  0  0  0
  9 10  1  0  0  0  0
 10  7  1  0  0  0  0
 11 12  1  0  0  0  0
 12  9  1  0  0  0  0
 13 11  1  0  0  0  0
 12 14  1  0  0  0  0
 14 15  1  0  0  0  0
 15 16  1  0  0  0  0
 16 10  1  0  0  0  0
 17 18  1  0  0  0  0
 18 19  2  0  0  0  0
 19 15  1  0  0  0  0
 20 21  1  0  0  0  0
 21 17  1  0  0  0  0
 22 23  1  0  0  0  0
 23 20  2  0  0  0  0
  2 24  1  0  0  0  0
 18 25  1  0  0  0  0
 23 26  1  0  0  0  0
 13 27  1  0  0  0  0
 27 28  1  0  0  0  0
 28 29  1  0  0  0  0
  1 30  1  0  0  0  0
 30 31  1  0  0  0  0
M  END
>  <cdx:fragmentId>
5

$$$$
