14607.cdx
  Mrv1902 05222410232D          

 36 39  0  0  0  0            999 V2000
    4.0389   -8.3187    0.0000 C   0  0  2  0  0  0  0  0  0  0  0  0
    4.0389   -9.1438    0.0000 C   0  0  1  0  0  0  0  0  0  0  0  0
    4.7534   -9.5563    0.0000 C   0  0  0  0  0  0  0  0  0  0  0  0
    5.4678   -9.1438    0.0000 C   0  0  2  0  0  0  0  0  0  0  0  0
    5.4678   -8.3187    0.0000 C   0  0  2  0  0  0  0  0  0  0  0  0
    4.7534   -7.9063    0.0000 C   0  0  0  0  0  0  0  0  0  0  0  0
    6.1823   -9.5563    0.0000 C   0  0  0  0  0  0  0  0  0  0  0  0
    6.8968   -9.1438    0.0000 C   0  0  0  0  0  0  0  0  0  0  0  0
    6.8968   -8.3187    0.0000 C   0  0  0  0  0  0  0  0  0  0  0  0
    6.1823   -7.9063    0.0000 C   0  0  2  0  0  0  0  0  0  0  0  0
    7.6113   -7.9063    0.0000 C   0  0  2  0  0  0  0  0  0  0  0  0
    7.6113   -7.0812    0.0000 C   0  0  1  0  0  0  0  0  0  0  0  0
    6.8968   -6.6688    0.0000 C   0  0  0  0  0  0  0  0  0  0  0  0
    6.1823   -7.0812    0.0000 C   0  0  0  0  0  0  0  0  0  0  0  0
    7.6113   -6.2563    0.0000 C   0  0  0  0  0  0  0  0  0  0  0  0
    5.4678   -7.4937    0.0000 C   0  0  0  0  0  0  0  0  0  0  0  0
    3.3244   -9.5563    0.0000 O   0  0  0  0  0  0  0  0  0  0  0  0
    5.4678   -9.9688    0.0000 H   0  0  0  0  0  0  0  0  0  0  0  0
    6.1823   -8.7313    0.0000 H   0  0  0  0  0  0  0  0  0  0  0  0
    7.6113   -8.7313    0.0000 O   0  0  0  0  0  0  0  0  0  0  0  0
    6.1823  -10.3812    0.0000 O   0  0  0  0  0  0  0  0  0  0  0  0
    3.3244   -7.9063    0.0000 O   0  0  0  0  0  0  0  0  0  0  0  0
    8.3959   -8.1612    0.0000 C   0  0  0  0  0  0  0  0  0  0  0  0
    8.8808   -7.4937    0.0000 C   0  0  0  0  0  0  0  0  0  0  0  0
    8.3959   -6.8263    0.0000 C   0  0  2  0  0  0  0  0  0  0  0  0
    8.6508   -6.0417    0.0000 C   0  0  2  0  0  0  0  0  0  0  0  0
    8.0988   -5.4286    0.0000 C   0  0  0  0  0  0  0  0  0  0  0  0
    9.4578   -5.8702    0.0000 C   0  0  1  0  0  0  0  0  0  0  0  0
    9.7127   -5.0855    0.0000 C   0  0  0  0  0  0  0  0  0  0  0  0
   10.5197   -4.9140    0.0000 C   0  0  0  0  0  0  0  0  0  0  0  0
   11.0717   -5.5271    0.0000 C   0  0  0  0  0  0  0  0  0  0  0  0
   10.7746   -4.1294    0.0000 C   0  0  0  0  0  0  0  0  0  0  0  0
   10.2226   -3.5163    0.0000 C   0  0  0  0  0  0  0  0  0  0  0  0
   11.5816   -3.9579    0.0000 C   0  0  0  0  0  0  0  0  0  0  0  0
    9.1805   -6.5714    0.0000 H   0  0  0  0  0  0  0  0  0  0  0  0
   10.0098   -6.4833    0.0000 O   0  0  0  0  0  0  0  0  0  0  0  0
  1  2  1  0  0  0  0
  2  3  1  0  0  0  0
  3  4  1  0  0  0  0
  4  5  1  0  0  0  0
  5  6  1  0  0  0  0
  6  1  1  0  0  0  0
  4  7  1  0  0  0  0
  7  8  1  0  0  0  0
  8  9  2  0  0  0  0
  9 10  1  0  0  0  0
 10  5  1  0  0  0  0
  9 11  1  0  0  0  0
 11 12  1  0  0  0  0
 12 13  1  0  0  0  0
 13 14  1  0  0  0  0
 14 10  1  0  0  0  0
 12 15  1  1  0  0  0
  5 16  1  1  0  0  0
  2 17  1  1  0  0  0
  4 18  1  1  0  0  0
 10 19  1  6  0  0  0
 11 20  1  6  0  0  0
  7 21  2  0  0  0  0
  1 22  1  1  0  0  0
 11 23  1  0  0  0  0
 23 24  1  0  0  0  0
 24 25  1  0  0  0  0
 25 12  1  0  0  0  0
 25 26  1  0  0  0  0
 26 27  1  6  0  0  0
 26 28  1  0  0  0  0
 28 29  1  0  0  0  0
 29 30  1  0  0  0  0
 30 31  1  0  0  0  0
 30 32  1  0  0  0  0
 32 33  1  0  0  0  0
 32 34  1  0  0  0  0
 25 35  1  6  0  0  0
 28 36  1  1  0  0  0
M  END
>  <cdx:fragmentId>
5

$$$$
