146101.cdx
  Mrv1902 05222410202D          

 20 22  0  0  0  0            999 V2000
    7.6075   -6.1439    0.0000 C   0  0  0  0  0  0  0  0  0  0  0  0
    8.3220   -6.5564    0.0000 C   0  0  0  0  0  0  0  0  0  0  0  0
    8.3220   -7.3814    0.0000 C   0  0  0  0  0  0  0  0  0  0  0  0
    7.6075   -7.7939    0.0000 C   0  0  0  0  0  0  0  0  0  0  0  0
    6.8931   -7.3814    0.0000 C   0  0  0  0  0  0  0  0  0  0  0  0
    6.1786   -7.7939    0.0000 C   0  0  0  0  0  0  0  0  0  0  0  0
    6.1786   -8.6189    0.0000 O   0  0  0  0  0  0  0  0  0  0  0  0
    5.4641   -7.3814    0.0000 C   0  0  0  0  0  0  0  0  0  0  0  0
    4.7496   -7.7939    0.0000 C   0  0  0  0  0  0  0  0  0  0  0  0
    4.0352   -7.3814    0.0000 C   0  0  0  0  0  0  0  0  0  0  0  0
    4.0352   -6.5564    0.0000 C   0  0  0  0  0  0  0  0  0  0  0  0
    4.7496   -6.1439    0.0000 C   0  0  0  0  0  0  0  0  0  0  0  0
    5.4641   -6.5564    0.0000 C   0  0  0  0  0  0  0  0  0  0  0  0
    6.1786   -6.1439    0.0000 C   0  0  0  0  0  0  0  0  0  0  0  0
    6.1786   -5.3189    0.0000 O   0  0  0  0  0  0  0  0  0  0  0  0
    6.8931   -6.5564    0.0000 C   0  0  0  0  0  0  0  0  0  0  0  0
    9.0365   -6.1439    0.0000 O   0  0  0  0  0  0  0  0  0  0  0  0
    9.7509   -6.5564    0.0000 C   0  0  0  0  0  0  0  0  0  0  0  0
    9.0365   -7.7939    0.0000 O   0  0  0  0  0  0  0  0  0  0  0  0
    7.6075   -5.3189    0.0000 O   0  0  0  0  0  0  0  0  0  0  0  0
  1  2  1  0  0  0  0
  2  3  2  0  0  0  0
  3  4  1  0  0  0  0
  4  5  2  0  0  0  0
  5  6  1  0  0  0  0
  6  7  2  0  0  0  0
  6  8  1  0  0  0  0
  8  9  1  0  0  0  0
  9 10  2  0  0  0  0
 10 11  1  0  0  0  0
 11 12  2  0  0  0  0
 12 13  1  0  0  0  0
  8 13  2  0  0  0  0
 13 14  1  0  0  0  0
 14 15  2  0  0  0  0
 14 16  1  0  0  0  0
  5 16  1  0  0  0  0
  1 16  2  0  0  0  0
 17 18  1  0  0  0  0
  2 17  1  0  0  0  0
  3 19  1  0  0  0  0
  1 20  1  0  0  0  0
M  END
>  <cdx:groupId>
1935

>  <cdx:fragmentId>
1876

$$$$
