146160.cdx
  Mrv1902 05222410192D          

 46 50  0  0  0  0            999 V2000
    8.3977  -11.7902    0.0000 O   0  0  0  0  0  0  0  0  0  0  0  0
    6.9691  -12.6157    0.0000 O   0  0  0  0  0  0  0  0  0  0  0  0
    5.5399  -11.7912    0.0000 C   0  0  0  0  0  0  0  0  0  0  0  0
    9.8258   -9.3147    0.0000 O   0  0  0  0  0  0  0  0  0  0  0  0
   11.2551  -10.1392    0.0000 O   0  0  0  0  0  0  0  0  0  0  0  0
   11.2556  -11.7892    0.0000 O   0  0  0  0  0  0  0  0  0  0  0  0
    9.8267  -11.7897    0.0000 C   0  0  0  0  0  0  0  0  0  0  0  0
   10.5410  -11.3770    0.0000 C   0  0  2  0  0  0  0  0  0  0  0  0
   10.5407  -10.5520    0.0000 C   0  0  1  0  0  0  0  0  0  0  0  0
    9.8261  -10.1397    0.0000 C   0  0  2  0  0  0  0  0  0  0  0  0
    9.1118  -10.5525    0.0000 C   0  0  1  0  0  0  0  0  0  0  0  0
    9.1121  -11.3775    0.0000 O   0  0  0  0  0  0  0  0  0  0  0  0
    8.3972  -10.1402    0.0000 O   0  0  0  0  0  0  0  0  0  0  0  0
    6.2542  -11.3785    0.0000 C   0  0  1  0  0  0  0  0  0  0  0  0
    6.9688  -11.7907    0.0000 C   0  0  1  0  0  0  0  0  0  0  0  0
    7.6831  -11.3780    0.0000 C   0  0  2  0  0  0  0  0  0  0  0  0
    7.6829  -10.5530    0.0000 C   0  0  2  0  0  0  0  0  0  0  0  0
    6.9682  -10.1407    0.0000 C   0  0  1  0  0  0  0  0  0  0  0  0
    6.2539  -10.5535    0.0000 O   0  0  0  0  0  0  0  0  0  0  0  0
    6.9680   -9.3157    0.0000 O   0  0  0  0  0  0  0  0  0  0  0  0
    4.1104  -10.1417    0.0000 O   0  0  0  0  0  0  0  0  0  0  0  0
    2.6806   -7.6672    0.0000 O   0  0  0  0  0  0  0  0  0  0  0  0
    9.8250   -6.8397    0.0000 C   0  0  0  0  0  0  0  0  0  0  0  0
    9.1104   -6.4275    0.0000 O   0  0  0  0  0  0  0  0  0  0  0  0
    6.9671   -6.8407    0.0000 C   0  0  0  0  0  0  0  0  0  0  0  0
    7.6814   -6.4280    0.0000 C   0  0  0  0  0  0  0  0  0  0  0  0
    8.3960   -6.8402    0.0000 C   0  0  0  0  0  0  0  0  0  0  0  0
    8.3963   -7.6652    0.0000 C   0  0  0  0  0  0  0  0  0  0  0  0
    7.6820   -8.0780    0.0000 C   0  0  0  0  0  0  0  0  0  0  0  0
    6.9674   -7.6657    0.0000 C   0  0  0  0  0  0  0  0  0  0  0  0
    2.6797   -5.1922    0.0000 C   0  0  0  0  0  0  0  0  0  0  0  0
    4.1086   -5.1917    0.0000 C   0  0  0  0  0  0  0  0  0  0  0  0
    3.3943   -5.6044    0.0000 C   0  0  0  0  0  0  0  0  0  0  0  0
    3.3946   -6.4294    0.0000 C   0  0  0  0  0  0  0  0  0  0  0  0
    4.1092   -6.8417    0.0000 C   0  0  0  0  0  0  0  0  0  0  0  0
    5.5393  -10.1412    0.0000 O   0  0  0  0  0  0  0  0  0  0  0  0
    5.5384   -7.6662    0.0000 O   0  0  0  0  0  0  0  0  0  0  0  0
    4.8241   -8.0789    0.0000 C   0  0  0  0  0  0  0  0  0  0  0  0
    4.1095   -7.6667    0.0000 C   0  0  0  0  0  0  0  0  0  0  0  0
    3.3952   -8.0794    0.0000 C   0  0  0  0  0  0  0  0  0  0  0  0
    3.3955   -8.9044    0.0000 C   0  0  0  0  0  0  0  0  0  0  0  0
    4.1101   -9.3167    0.0000 C   0  0  0  0  0  0  0  0  0  0  0  0
    4.8244   -8.9039    0.0000 C   0  0  0  0  0  0  0  0  0  0  0  0
    5.5390   -9.3162    0.0000 C   0  0  0  0  0  0  0  0  0  0  0  0
    6.2533   -8.9035    0.0000 C   0  0  0  0  0  0  0  0  0  0  0  0
    6.2531   -8.0785    0.0000 C   0  0  0  0  0  0  0  0  0  0  0  0
 45 20  1  0  0  0  0
 18 20  1  1  0  0  0
 16  1  1  6  0  0  0
 15  2  1  1  0  0  0
 14  3  1  6  0  0  0
 17 13  1  6  0  0  0
 11 13  1  1  0  0  0
 10  4  1  6  0  0  0
  9  5  1  1  0  0  0
  8  6  1  6  0  0  0
 12  7  1  0  0  0  0
  8  7  1  0  0  0  0
  9  8  1  0  0  0  0
 10  9  1  0  0  0  0
 11 10  1  0  0  0  0
 12 11  1  0  0  0  0
 19 14  1  0  0  0  0
 15 14  1  0  0  0  0
 16 15  1  0  0  0  0
 17 16  1  0  0  0  0
 18 17  1  0  0  0  0
 19 18  1  0  0  0  0
 42 21  1  0  0  0  0
 40 22  1  0  0  0  0
 46 30  1  0  0  0  0
 27 24  1  0  0  0  0
 24 23  1  0  0  0  0
 30 25  2  0  0  0  0
 26 25  1  0  0  0  0
 27 26  2  0  0  0  0
 28 27  1  0  0  0  0
 29 28  2  0  0  0  0
 30 29  1  0  0  0  0
 39 35  1  0  0  0  0
 33 31  1  0  0  0  0
 33 32  1  0  0  0  0
 34 33  2  0  0  0  0
 35 34  1  0  0  0  0
 44 36  2  0  0  0  0
 46 37  1  0  0  0  0
 38 37  1  0  0  0  0
 43 38  2  0  0  0  0
 39 38  1  0  0  0  0
 40 39  2  0  0  0  0
 41 40  1  0  0  0  0
 42 41  2  0  0  0  0
 43 42  1  0  0  0  0
 44 43  1  0  0  0  0
 45 44  1  0  0  0  0
 46 45  2  0  0  0  0
M  END
>  <cdx:groupId>
41830

>  <cdx:fragmentId>
41691

$$$$
