14620.cdx
  Mrv1902 05222410222D          

 36 39  0  0  0  0            999 V2000
    2.6227   -8.1056    0.0000 C   0  0  2  0  0  0  0  0  0  0  0  0
    2.6227   -8.9306    0.0000 C   0  0  1  0  0  0  0  0  0  0  0  0
    3.3371   -9.3431    0.0000 C   0  0  0  0  0  0  0  0  0  0  0  0
    4.0516   -8.9306    0.0000 C   0  0  2  0  0  0  0  0  0  0  0  0
    4.0516   -8.1056    0.0000 C   0  0  2  0  0  0  0  0  0  0  0  0
    3.3371   -7.6931    0.0000 C   0  0  0  0  0  0  0  0  0  0  0  0
    4.7661   -9.3431    0.0000 C   0  0  0  0  0  0  0  0  0  0  0  0
    5.4805   -8.9306    0.0000 C   0  0  0  0  0  0  0  0  0  0  0  0
    5.4805   -8.1056    0.0000 C   0  0  0  0  0  0  0  0  0  0  0  0
    4.7661   -7.6931    0.0000 C   0  0  0  0  0  0  0  0  0  0  0  0
    6.1950   -7.6931    0.0000 C   0  0  1  0  0  0  0  0  0  0  0  0
    6.1950   -6.8681    0.0000 C   0  0  2  0  0  0  0  0  0  0  0  0
    5.4805   -6.4556    0.0000 C   0  0  0  0  0  0  0  0  0  0  0  0
    4.7661   -6.8681    0.0000 C   0  0  0  0  0  0  0  0  0  0  0  0
    6.9095   -6.4556    0.0000 C   0  0  2  0  0  0  0  0  0  0  0  0
    7.6240   -6.8681    0.0000 C   0  0  0  0  0  0  0  0  0  0  0  0
    7.6240   -7.6931    0.0000 C   0  0  0  0  0  0  0  0  0  0  0  0
    6.9095   -5.6306    0.0000 C   0  0  2  0  0  0  0  0  0  0  0  0
    6.1950   -5.2181    0.0000 C   0  0  0  0  0  0  0  0  0  0  0  0
    7.6240   -5.2181    0.0000 C   0  0  1  0  0  0  0  0  0  0  0  0
    8.3384   -5.6306    0.0000 C   0  0  0  0  0  0  0  0  0  0  0  0
    9.0529   -5.2181    0.0000 C   0  0  0  0  0  0  0  0  0  0  0  0
    9.7674   -5.6306    0.0000 C   0  0  0  0  0  0  0  0  0  0  0  0
   10.4818   -5.2181    0.0000 C   0  0  0  0  0  0  0  0  0  0  0  0
    9.7674   -6.4556    0.0000 C   0  0  0  0  0  0  0  0  0  0  0  0
   10.4818   -6.0431    0.0000 O   0  0  0  0  0  0  0  0  0  0  0  0
   11.1963   -5.6306    0.0000 C   0  0  0  0  0  0  0  0  0  0  0  0
    4.7661  -10.1681    0.0000 O   0  0  0  0  0  0  0  0  0  0  0  0
    1.9082   -7.6931    0.0000 O   0  0  0  0  0  0  0  0  0  0  0  0
    1.9082   -9.3431    0.0000 O   0  0  0  0  0  0  0  0  0  0  0  0
    4.0516   -7.2806    0.0000 C   0  0  0  0  0  0  0  0  0  0  0  0
    4.0516   -9.7556    0.0000 H   0  0  0  0  0  0  0  0  0  0  0  0
    6.1950   -6.0431    0.0000 C   0  0  0  0  0  0  0  0  0  0  0  0
    6.9095   -4.8056    0.0000 O   0  0  0  0  0  0  0  0  0  0  0  0
    6.1950   -8.5181    0.0000 O   0  0  0  0  0  0  0  0  0  0  0  0
    7.6240   -4.3931    0.0000 O   0  0  0  0  0  0  0  0  0  0  0  0
  1  2  1  0  0  0  0
  2  3  1  0  0  0  0
  3  4  1  0  0  0  0
  4  5  1  0  0  0  0
  5  6  1  0  0  0  0
  6  1  1  0  0  0  0
  4  7  1  0  0  0  0
  7  8  1  0  0  0  0
  8  9  2  0  0  0  0
  9 10  1  0  0  0  0
 10  5  1  0  0  0  0
  9 11  1  0  0  0  0
 11 12  1  0  0  0  0
 12 13  1  0  0  0  0
 13 14  1  0  0  0  0
 14 10  1  0  0  0  0
 12 15  1  0  0  0  0
 15 16  1  0  0  0  0
 16 17  1  0  0  0  0
 17 11  1  0  0  0  0
 18 19  1  6  0  0  0
 18 20  1  0  0  0  0
 20 21  1  0  0  0  0
 21 22  1  0  0  0  0
 22 23  1  0  0  0  0
 23 24  1  0  0  0  0
 23 25  1  0  0  0  0
 23 26  1  0  0  0  0
 26 27  1  0  0  0  0
  7 28  2  0  0  0  0
  1 29  1  1  0  0  0
  2 30  1  1  0  0  0
  5 31  1  1  0  0  0
  4 32  1  1  0  0  0
 12 33  1  1  0  0  0
 18 34  1  1  0  0  0
 11 35  1  6  0  0  0
 20 36  1  6  0  0  0
 15 18  1  1  0  0  0
M  END
>  <cdx:fragmentId>
5

$$$$
