146416.cdx
  Mrv1902 05222410202D          

 10  9  0  0  0  0            999 V2000
    7.3917   -5.9812    0.0000 O   0  0  0  0  0  0  0  0  0  0  0  0
    7.3957   -6.8062    0.0000 C   0  0  0  0  0  0  0  0  0  0  0  0
    6.6833   -7.2222    0.0000 C   0  0  2  0  0  0  0  0  0  0  0  0
    6.6873   -8.0472    0.0000 C   0  0  0  0  0  0  0  0  0  0  0  0
    5.9748   -8.4631    0.0000 S   0  0  0  0  0  0  0  0  0  0  0  0
    5.9789   -9.2881    0.0000 C   0  0  0  0  0  0  0  0  0  0  0  0
    5.2664   -9.7041    0.0000 C   0  0  0  0  0  0  0  0  0  0  0  0
    8.1122   -7.2152    0.0000 O   0  0  0  0  0  0  0  0  0  0  0  0
    5.9668   -6.8132    0.0000 N   0  0  0  0  0  0  0  0  0  0  0  0
    5.2584   -8.0541    0.0000 O   0  0  0  0  0  0  0  0  0  0  0  0
  1  2  1  0  0  0  0
  2  3  1  0  0  0  0
  3  4  1  0  0  0  0
  4  5  1  0  0  0  0
  5  6  1  0  0  0  0
  6  7  1  0  0  0  0
  2  8  2  0  0  0  0
  3  9  1  6  0  0  0
  5 10  2  0  0  0  0
M  END
>  <cdx:fragmentId>
3

$$$$
