146425.cdx
  Mrv1902 05222410272D          

 26 28  0  0  0  0            999 V2000
   13.0266  -14.7212    0.0000 O   0  0  0  0  0  0  0  0  0  0  0  0
   13.5787  -15.3343    0.0000 C   0  0  0  0  0  0  0  0  0  0  0  0
   14.3324  -14.9987    0.0000 C   0  0  1  0  0  0  0  0  0  0  0  0
   14.2461  -14.1782    0.0000 C   0  0  2  0  0  0  0  0  0  0  0  0
   13.4391  -14.0067    0.0000 C   0  0  0  0  0  0  0  0  0  0  0  0
   13.4072  -16.1412    0.0000 O   0  0  0  0  0  0  0  0  0  0  0  0
   14.8592  -13.6262    0.0000 C   0  0  0  0  0  0  0  0  0  0  0  0
   14.6877  -12.8192    0.0000 C   0  0  0  0  0  0  0  0  0  0  0  0
   13.9031  -12.5643    0.0000 C   0  0  0  0  0  0  0  0  0  0  0  0
   13.7315  -11.7573    0.0000 C   0  0  0  0  0  0  0  0  0  0  0  0
   14.3446  -11.2053    0.0000 C   0  0  0  0  0  0  0  0  0  0  0  0
   15.1293  -11.4602    0.0000 C   0  0  0  0  0  0  0  0  0  0  0  0
   15.3008  -12.2672    0.0000 C   0  0  0  0  0  0  0  0  0  0  0  0
   14.1731  -10.3983    0.0000 O   0  0  0  0  0  0  0  0  0  0  0  0
   13.3885  -10.1434    0.0000 C   0  0  0  0  0  0  0  0  0  0  0  0
   12.9469  -11.5024    0.0000 O   0  0  0  0  0  0  0  0  0  0  0  0
   15.0468  -15.4112    0.0000 C   0  0  0  0  0  0  0  0  0  0  0  0
   15.7613  -14.9987    0.0000 C   0  0  0  0  0  0  0  0  0  0  0  0
   16.4758  -15.4112    0.0000 C   0  0  0  0  0  0  0  0  0  0  0  0
   17.1902  -14.9987    0.0000 C   0  0  0  0  0  0  0  0  0  0  0  0
   17.1902  -14.1737    0.0000 C   0  0  0  0  0  0  0  0  0  0  0  0
   16.4758  -13.7612    0.0000 C   0  0  0  0  0  0  0  0  0  0  0  0
   15.7613  -14.1737    0.0000 C   0  0  0  0  0  0  0  0  0  0  0  0
   17.9047  -13.7612    0.0000 O   0  0  0  0  0  0  0  0  0  0  0  0
   18.6192  -14.1737    0.0000 C   0  0  0  0  0  0  0  0  0  0  0  0
   17.9047  -15.4112    0.0000 O   0  0  0  0  0  0  0  0  0  0  0  0
  1  2  1  0  0  0  0
  2  3  1  0  0  0  0
  3  4  1  0  0  0  0
  4  5  1  0  0  0  0
  1  5  1  0  0  0  0
  2  6  2  0  0  0  0
  8  9  1  0  0  0  0
  9 10  2  0  0  0  0
 10 11  1  0  0  0  0
 11 12  2  0  0  0  0
 12 13  1  0  0  0  0
  8 13  2  0  0  0  0
 14 15  1  0  0  0  0
 11 14  1  0  0  0  0
 10 16  1  0  0  0  0
  7  8  1  0  0  0  0
  4  7  1  6  0  0  0
 18 19  1  0  0  0  0
 19 20  2  0  0  0  0
 20 21  1  0  0  0  0
 21 22  2  0  0  0  0
 22 23  1  0  0  0  0
 18 23  2  0  0  0  0
 24 25  1  0  0  0  0
 21 24  1  0  0  0  0
 20 26  1  0  0  0  0
 17 18  1  0  0  0  0
  3 17  1  1  0  0  0
M  END
>  <cdx:groupId>
2020

>  <cdx:fragmentId>
1957

$$$$
