146723.cdx
  Mrv1902 05222410252D          

 25 26  0  0  0  0            999 V2000
    5.1511   -6.3211    0.0000 C   0  0  0  0  0  0  0  0  0  0  0  0
    5.8655   -6.7336    0.0000 C   0  0  0  0  0  0  0  0  0  0  0  0
    6.5800   -6.3211    0.0000 C   0  0  0  0  0  0  0  0  0  0  0  0
    7.2945   -6.7336    0.0000 C   0  0  0  0  0  0  0  0  0  0  0  0
    8.0089   -6.3211    0.0000 C   0  0  0  0  0  0  0  0  0  0  0  0
    8.7234   -6.7336    0.0000 C   0  0  0  0  0  0  0  0  0  0  0  0
    9.4379   -6.3211    0.0000 C   0  0  0  0  0  0  0  0  0  0  0  0
    6.5800   -5.4961    0.0000 O   0  0  0  0  0  0  0  0  0  0  0  0
    8.0089   -5.4961    0.0000 O   0  0  0  0  0  0  0  0  0  0  0  0
   10.1524   -6.7336    0.0000 C   0  0  0  0  0  0  0  0  0  0  0  0
   10.8668   -6.3211    0.0000 C   0  0  0  0  0  0  0  0  0  0  0  0
   11.5813   -6.7336    0.0000 C   0  0  0  0  0  0  0  0  0  0  0  0
   11.5813   -7.5586    0.0000 C   0  0  0  0  0  0  0  0  0  0  0  0
   10.8668   -7.9711    0.0000 C   0  0  0  0  0  0  0  0  0  0  0  0
   10.1524   -7.5586    0.0000 C   0  0  0  0  0  0  0  0  0  0  0  0
   12.2958   -7.9711    0.0000 O   0  0  0  0  0  0  0  0  0  0  0  0
    4.4366   -6.7336    0.0000 C   0  0  0  0  0  0  0  0  0  0  0  0
    3.7221   -6.3211    0.0000 C   0  0  0  0  0  0  0  0  0  0  0  0
    3.0076   -6.7336    0.0000 C   0  0  0  0  0  0  0  0  0  0  0  0
    3.0076   -7.5586    0.0000 C   0  0  0  0  0  0  0  0  0  0  0  0
    3.7221   -7.9711    0.0000 C   0  0  0  0  0  0  0  0  0  0  0  0
    4.4366   -7.5586    0.0000 C   0  0  0  0  0  0  0  0  0  0  0  0
    2.2932   -6.3211    0.0000 O   0  0  0  0  0  0  0  0  0  0  0  0
    1.5787   -6.7336    0.0000 C   0  0  0  0  0  0  0  0  0  0  0  0
    2.2932   -7.9711    0.0000 O   0  0  0  0  0  0  0  0  0  0  0  0
  1  2  2  0  0  0  0
  2  3  1  0  0  0  0
  3  4  1  0  0  0  0
  4  5  1  0  0  0  0
  5  6  1  0  0  0  0
  6  7  2  0  0  0  0
  3  8  2  0  0  0  0
  5  9  2  0  0  0  0
 10 11  1  0  0  0  0
 11 12  2  0  0  0  0
 12 13  1  0  0  0  0
 13 14  2  0  0  0  0
 14 15  1  0  0  0  0
 10 15  2  0  0  0  0
 13 16  1  0  0  0  0
  7 10  1  0  0  0  0
 17 18  1  0  0  0  0
 18 19  2  0  0  0  0
 19 20  1  0  0  0  0
 20 21  2  0  0  0  0
 21 22  1  0  0  0  0
 17 22  2  0  0  0  0
 23 24  1  0  0  0  0
 19 23  1  0  0  0  0
 20 25  1  0  0  0  0
  1 17  1  0  0  0  0
M  END
>  <cdx:fragmentId>
3088

$$$$
