1467.cdx
  Mrv1902 05222410272D          

 10  9  0  0  0  0            999 V2000
    3.3371   -7.8375    0.0000 C   0  0  0  0  0  0  0  0  0  0  0  0
    4.0516   -7.4250    0.0000 C   0  0  0  0  0  0  0  0  0  0  0  0
    4.7661   -7.8375    0.0000 C   0  0  0  0  0  0  0  0  0  0  0  0
    5.4805   -7.4250    0.0000 C   0  0  0  0  0  0  0  0  0  0  0  0
    6.1950   -7.8375    0.0000 C   0  0  0  0  0  0  0  0  0  0  0  0
    6.9095   -7.4250    0.0000 C   0  0  0  0  0  0  0  0  0  0  0  0
    7.6240   -7.8375    0.0000 C   0  0  0  0  0  0  0  0  0  0  0  0
    8.3384   -7.4250    0.0000 C   0  0  0  0  0  0  0  0  0  0  0  0
    8.3384   -6.6000    0.0000 C   0  0  0  0  0  0  0  0  0  0  0  0
    9.0529   -6.1875    0.0000 O   0  0  0  0  0  0  0  0  0  0  0  0
  1  2  1  0  0  0  0
  2  3  1  0  0  0  0
  3  4  1  0  0  0  0
  4  5  1  0  0  0  0
  5  6  1  0  0  0  0
  6  7  1  0  0  0  0
  7  8  2  0  0  0  0
  8  9  1  0  0  0  0
  9 10  2  0  0  0  0
M  END
>  <cdx:fragmentId>
3

$$$$
