146755.cdx
  Mrv1902 05222410282D          

 47 53  0  0  0  0            999 V2000
    4.3637   -8.4288    0.0000 C   0  0  0  0  0  0  0  0  0  0  0  0
    4.3637   -9.2538    0.0000 C   0  0  1  0  0  0  0  0  0  0  0  0
    5.0781   -9.6662    0.0000 C   0  0  2  0  0  0  0  0  0  0  0  0
    5.7926   -9.2538    0.0000 C   0  0  1  0  0  0  0  0  0  0  0  0
    5.7926   -8.4288    0.0000 C   0  0  0  0  0  0  0  0  0  0  0  0
    5.0781   -8.0162    0.0000 C   0  0  0  0  0  0  0  0  0  0  0  0
    5.4906  -10.3807    0.0000 C   0  0  0  0  0  0  0  0  0  0  0  0
    3.6492   -9.6662    0.0000 O   0  0  0  0  0  0  0  0  0  0  0  0
    4.6656  -10.3807    0.0000 C   0  0  0  0  0  0  0  0  0  0  0  0
    2.2411   -8.0078    0.0000 C   0  0  0  0  0  0  0  0  0  0  0  0
    1.5254   -8.4181    0.0000 C   0  0  2  0  0  0  0  0  0  0  0  0
    1.5229   -9.2431    0.0000 C   0  0  1  0  0  0  0  0  0  0  0  0
    2.2362   -9.6578    0.0000 C   0  0  2  0  0  0  0  0  0  0  0  0
    2.9519   -9.2474    0.0000 C   0  0  1  0  0  0  0  0  0  0  0  0
    2.9544   -8.4224    0.0000 O   0  0  0  0  0  0  0  0  0  0  0  0
    0.8072   -9.6535    0.0000 O   0  0  0  0  0  0  0  0  0  0  0  0
    0.8122   -8.0035    0.0000 O   0  0  0  0  0  0  0  0  0  0  0  0
    2.2337  -10.4828    0.0000 O   0  0  0  0  0  0  0  0  0  0  0  0
    5.7926  -10.0787    0.0000 H   0  0  0  0  0  0  0  0  0  0  0  0
    6.4376   -9.7681    0.0000 C   0  0  0  0  0  0  0  0  0  0  0  0
    7.2419   -9.5845    0.0000 C   0  0  0  0  0  0  0  0  0  0  0  0
    7.5999   -8.8413    0.0000 C   0  0  0  0  0  0  0  0  0  0  0  0
    7.2419   -8.0980    0.0000 C   0  0  0  0  0  0  0  0  0  0  0  0
    6.4376   -7.9144    0.0000 C   0  0  0  0  0  0  0  0  0  0  0  0
    8.4226   -8.9029    0.0000 C   0  0  1  0  0  0  0  0  0  0  0  0
    8.8873   -8.2213    0.0000 C   0  0  2  0  0  0  0  0  0  0  0  0
    8.5294   -7.4780    0.0000 C   0  0  0  0  0  0  0  0  0  0  0  0
    7.7067   -7.4163    0.0000 C   0  0  0  0  0  0  0  0  0  0  0  0
    8.9273   -9.5555    0.0000 C   0  0  0  0  0  0  0  0  0  0  0  0
    9.7039   -9.2772    0.0000 C   0  0  2  0  0  0  0  0  0  0  0  0
    9.7039   -8.4526    0.0000 C   0  0  2  0  0  0  0  0  0  0  0  0
   10.3486   -9.7914    0.0000 O   0  0  0  0  0  0  0  0  0  0  0  0
   11.1526   -9.6079    0.0000 C   0  0  2  0  0  0  0  0  0  0  0  0
   11.5104   -8.8649    0.0000 C   0  0  1  0  0  0  0  0  0  0  0  0
   11.1526   -8.1220    0.0000 C   0  0  0  0  0  0  0  0  0  0  0  0
   10.3486   -7.9385    0.0000 C   0  0  1  0  0  0  0  0  0  0  0  0
   11.6670  -10.2529    0.0000 C   0  0  0  0  0  0  0  0  0  0  0  0
   10.9525  -10.6654    0.0000 C   0  0  0  0  0  0  0  0  0  0  0  0
   12.3814   -9.8404    0.0000 C   0  0  0  0  0  0  0  0  0  0  0  0
   12.0795  -10.9674    0.0000 O   0  0  0  0  0  0  0  0  0  0  0  0
   10.7401  -10.3224    0.0000 H   0  0  0  0  0  0  0  0  0  0  0  0
   12.3354   -8.8649    0.0000 H   0  0  0  0  0  0  0  0  0  0  0  0
   10.5050   -8.7175    0.0000 O   0  0  0  0  0  0  0  0  0  0  0  0
   10.1651   -7.1341    0.0000 C   0  0  0  0  0  0  0  0  0  0  0  0
    9.7039   -7.6280    0.0000 H   0  0  0  0  0  0  0  0  0  0  0  0
    9.2998   -7.5068    0.0000 C   0  0  0  0  0  0  0  0  0  0  0  0
    8.0101   -9.6174    0.0000 C   0  0  0  0  0  0  0  0  0  0  0  0
  1  2  1  0  0  0  0
  2  3  1  0  0  0  0
  3  4  1  0  0  0  0
  4  5  1  0  0  0  0
  5  6  2  0  0  0  0
  6  1  1  0  0  0  0
  3  7  1  0  0  0  0
  2  8  1  1  0  0  0
  3  9  1  1  0  0  0
 10 11  1  0  0  0  0
 11 12  1  0  0  0  0
 12 13  1  0  0  0  0
 13 14  1  0  0  0  0
 14 15  1  0  0  0  0
 15 10  1  0  0  0  0
 12 16  1  1  0  0  0
 11 17  1  6  0  0  0
 13 18  1  6  0  0  0
 14  8  1  1  0  0  0
  4 19  1  6  0  0  0
  4 20  1  0  0  0  0
 20 21  1  0  0  0  0
 21 22  2  0  0  0  0
 22 23  1  0  0  0  0
 23 24  1  0  0  0  0
 24  5  1  0  0  0  0
 22 25  1  0  0  0  0
 25 26  1  0  0  0  0
 26 27  1  0  0  0  0
 27 28  1  0  0  0  0
 28 23  2  0  0  0  0
 25 29  1  0  0  0  0
 30 29  1  1  0  0  0
 30 31  1  0  0  0  0
 31 26  1  0  0  0  0
 30 32  1  0  0  0  0
 32 33  1  0  0  0  0
 33 34  1  0  0  0  0
 34 35  1  0  0  0  0
 35 36  1  0  0  0  0
 36 31  1  0  0  0  0
 33 37  1  0  0  0  0
 37 38  1  0  0  0  0
 37 39  1  0  0  0  0
 37 40  1  0  0  0  0
 33 41  1  1  0  0  0
 34 42  1  1  0  0  0
 30 43  1  0  0  0  0
 43 34  1  0  0  0  0
 36 44  1  6  0  0  0
 31 45  1  6  0  0  0
 26 46  1  1  0  0  0
 25 47  1  6  0  0  0
M  END
>  <cdx:fragmentId>
592

$$$$
