146779.cdx
  Mrv1902 05222410262D          

 20 22  0  0  0  0            999 V2000
    9.0806   -5.5992    0.0000 H   0  0  0  0  0  0  0  0  0  0  0  0
    6.7325   -4.6577    0.0000 O   0  0  0  0  0  0  0  0  0  0  0  0
   10.3477   -6.3486    0.0000 O   0  0  0  0  0  0  0  0  0  0  0  0
    9.5320   -5.5144    0.0000 C   0  0  0  0  0  0  0  0  0  0  0  0
    9.5227   -6.3393    0.0000 C   0  0  0  0  0  0  0  0  0  0  0  0
    9.5134   -7.1643    0.0000 C   0  0  0  0  0  0  0  0  0  0  0  0
    3.8655   -5.4503    0.0000 O   0  0  0  0  0  0  0  0  0  0  0  0
    8.6978   -6.3300    0.0000 C   0  0  2  0  0  0  0  0  0  0  0  0
    8.2053   -6.9919    0.0000 C   0  0  0  0  0  0  0  0  0  0  0  0
    8.2204   -5.6571    0.0000 O   0  0  0  0  0  0  0  0  0  0  0  0
    5.2943   -5.4665    0.0000 O   0  0  0  0  0  0  0  0  0  0  0  0
    6.0041   -5.8870    0.0000 C   0  0  0  0  0  0  0  0  0  0  0  0
    6.7232   -5.4826    0.0000 C   0  0  0  0  0  0  0  0  0  0  0  0
    7.4330   -5.9032    0.0000 C   0  0  0  0  0  0  0  0  0  0  0  0
    7.4236   -6.7281    0.0000 C   0  0  0  0  0  0  0  0  0  0  0  0
    6.7045   -7.1325    0.0000 C   0  0  0  0  0  0  0  0  0  0  0  0
    5.9948   -6.7120    0.0000 C   0  0  0  0  0  0  0  0  0  0  0  0
    5.2757   -7.1164    0.0000 C   0  0  0  0  0  0  0  0  0  0  0  0
    4.5659   -6.6958    0.0000 C   0  0  0  0  0  0  0  0  0  0  0  0
    4.5753   -5.8709    0.0000 C   0  0  0  0  0  0  0  0  0  0  0  0
  8  1  1  1  0  0  0
 13  2  1  0  0  0  0
  8  5  1  0  0  0  0
  5  3  1  0  0  0  0
  5  4  1  0  0  0  0
  6  5  1  0  0  0  0
 20  7  2  0  0  0  0
 10 14  1  0  0  0  0
  9 15  1  0  0  0  0
 10  8  1  0  0  0  0
  9  8  1  0  0  0  0
 20 11  1  0  0  0  0
 12 11  1  0  0  0  0
 17 12  1  0  0  0  0
 13 12  2  0  0  0  0
 14 13  1  0  0  0  0
 15 14  2  0  0  0  0
 16 15  1  0  0  0  0
 17 16  2  0  0  0  0
 18 17  1  0  0  0  0
 19 18  2  0  0  0  0
 20 19  1  0  0  0  0
M  END
>  <cdx:fragmentId>
5

$$$$
