14707.cdx
  Mrv1902 05222410272D          

 26 28  0  0  0  0            999 V2000
    6.8496   -7.1037    0.0000 C   0  0  0  0  0  0  0  0  0  0  0  0
    7.6745   -7.0933    0.0000 C   0  0  1  0  0  0  0  0  0  0  0  0
    8.1679   -7.7546    0.0000 O   0  0  0  0  0  0  0  0  0  0  0  0
    8.9492   -7.4897    0.0000 C   0  0  0  0  0  0  0  0  0  0  0  0
    8.9388   -6.6648    0.0000 C   0  0  0  0  0  0  0  0  0  0  0  0
    8.1510   -6.4198    0.0000 C   0  0  2  0  0  0  0  0  0  0  0  0
    9.6688   -7.8932    0.0000 C   0  0  0  0  0  0  0  0  0  0  0  0
   10.3780   -7.4717    0.0000 C   0  0  0  0  0  0  0  0  0  0  0  0
   10.3676   -6.6468    0.0000 C   0  0  0  0  0  0  0  0  0  0  0  0
    9.6480   -6.2433    0.0000 C   0  0  0  0  0  0  0  0  0  0  0  0
    7.8060   -5.6704    0.0000 C   0  0  0  0  0  0  0  0  0  0  0  0
   10.3468   -4.9969    0.0000 C   0  0  0  0  0  0  0  0  0  0  0  0
    9.6376   -5.4184    0.0000 C   0  0  0  0  0  0  0  0  0  0  0  0
    8.2094   -4.9508    0.0000 O   0  0  0  0  0  0  0  0  0  0  0  0
    6.9810   -5.6808    0.0000 O   0  0  0  0  0  0  0  0  0  0  0  0
   10.3364   -4.1720    0.0000 C   0  0  0  0  0  0  0  0  0  0  0  0
    9.6792   -8.7181    0.0000 O   0  0  0  0  0  0  0  0  0  0  0  0
    6.4235   -6.3973    0.0000 C   0  0  0  0  0  0  0  0  0  0  0  0
    5.5987   -6.3973    0.0000 C   0  0  0  0  0  0  0  0  0  0  0  0
    5.1999   -7.1037    0.0000 C   0  0  0  0  0  0  0  0  0  0  0  0
    5.5987   -7.8101    0.0000 C   0  0  0  0  0  0  0  0  0  0  0  0
    6.4235   -7.8101    0.0000 C   0  0  0  0  0  0  0  0  0  0  0  0
    4.3749   -7.1037    0.0000 O   0  0  0  0  0  0  0  0  0  0  0  0
    5.1827   -5.6848    0.0000 O   0  0  0  0  0  0  0  0  0  0  0  0
   11.0456   -3.7505    0.0000 O   0  0  0  0  0  0  0  0  0  0  0  0
    9.6168   -3.7685    0.0000 O   0  0  0  0  0  0  0  0  0  0  0  0
  2  1  1  6  0  0  0
  2  3  1  0  0  0  0
  3  4  1  0  0  0  0
  4  5  2  0  0  0  0
  5  6  1  0  0  0  0
  6  2  1  0  0  0  0
  4  7  1  0  0  0  0
  7  8  2  0  0  0  0
  8  9  1  0  0  0  0
  9 10  2  0  0  0  0
 10  5  1  0  0  0  0
  6 11  1  1  0  0  0
 12 13  2  0  0  0  0
 13 10  1  0  0  0  0
 11 14  1  0  0  0  0
 11 15  2  0  0  0  0
 12 16  1  0  0  0  0
  7 17  1  0  0  0  0
  1 18  2  0  0  0  0
 18 19  1  0  0  0  0
 19 20  2  0  0  0  0
 20 21  1  0  0  0  0
 21 22  2  0  0  0  0
 22  1  1  0  0  0  0
 20 23  1  0  0  0  0
 19 24  1  0  0  0  0
 16 25  1  0  0  0  0
 16 26  2  0  0  0  0
M  END
>  <cdx:fragmentId>
5

$$$$
