14727.cdx
  Mrv1902 05222410192D          

 47 53  0  0  0  0            999 V2000
    6.5552   -8.1744    0.0000 C   0  0  0  0  0  0  0  0  0  0  0  0
    6.5552   -8.9994    0.0000 C   0  0  1  0  0  0  0  0  0  0  0  0
    7.2696   -9.4119    0.0000 C   0  0  1  0  0  0  0  0  0  0  0  0
    7.9841   -8.9994    0.0000 C   0  0  1  0  0  0  0  0  0  0  0  0
    7.9841   -8.1744    0.0000 C   0  0  2  0  0  0  0  0  0  0  0  0
    7.2696   -7.7619    0.0000 C   0  0  0  0  0  0  0  0  0  0  0  0
    8.6986   -9.4119    0.0000 C   0  0  0  0  0  0  0  0  0  0  0  0
    9.4130   -8.9994    0.0000 C   0  0  0  0  0  0  0  0  0  0  0  0
    9.4130   -8.1744    0.0000 C   0  0  2  0  0  0  0  0  0  0  0  0
    8.6986   -7.7619    0.0000 C   0  0  2  0  0  0  0  0  0  0  0  0
   10.1275   -7.7619    0.0000 C   0  0  1  0  0  0  0  0  0  0  0  0
   10.1275   -6.9369    0.0000 C   0  0  0  0  0  0  0  0  0  0  0  0
    9.4130   -6.5244    0.0000 C   0  0  0  0  0  0  0  0  0  0  0  0
    8.6986   -6.9369    0.0000 C   0  0  0  0  0  0  0  0  0  0  0  0
   10.8420   -8.1744    0.0000 C   0  0  0  0  0  0  0  0  0  0  0  0
   11.5565   -7.7619    0.0000 C   0  0  1  0  0  0  0  0  0  0  0  0
   11.5565   -6.9369    0.0000 C   0  0  0  0  0  0  0  0  0  0  0  0
   10.8420   -6.5244    0.0000 C   0  0  1  0  0  0  0  0  0  0  0  0
   12.2709   -6.5244    0.0000 C   0  0  0  0  0  0  0  0  0  0  0  0
   12.2709   -5.6994    0.0000 C   0  0  0  0  0  0  0  0  0  0  0  0
   11.5565   -5.2869    0.0000 C   0  0  1  0  0  0  0  0  0  0  0  0
   10.8420   -5.6994    0.0000 C   0  0  0  0  0  0  0  0  0  0  0  0
   10.1275   -6.1119    0.0000 O   0  0  0  0  0  0  0  0  0  0  0  0
   11.5565   -6.1119    0.0000 C   0  0  0  0  0  0  0  0  0  0  0  0
    5.8407   -9.4119    0.0000 O   0  0  0  0  0  0  0  0  0  0  0  0
    6.8571  -10.1263    0.0000 C   0  0  0  0  0  0  0  0  0  0  0  0
    7.9841   -7.3494    0.0000 C   0  0  0  0  0  0  0  0  0  0  0  0
    9.4130   -7.3494    0.0000 C   0  0  0  0  0  0  0  0  0  0  0  0
   11.1440   -4.5724    0.0000 C   0  0  0  0  0  0  0  0  0  0  0  0
    7.6821  -10.1263    0.0000 C   0  0  0  0  0  0  0  0  0  0  0  0
   10.1275   -8.5869    0.0000 C   0  0  0  0  0  0  0  0  0  0  0  0
   12.2709   -8.1744    0.0000 O   0  0  0  0  0  0  0  0  0  0  0  0
   11.9690   -4.5724    0.0000 C   0  0  0  0  0  0  0  0  0  0  0  0
    4.4072   -7.7541    0.0000 C   0  0  2  0  0  0  0  0  0  0  0  0
    3.6928   -8.1666    0.0000 C   0  0  1  0  0  0  0  0  0  0  0  0
    3.6928   -8.9916    0.0000 C   0  0  1  0  0  0  0  0  0  0  0  0
    4.4072   -9.4041    0.0000 C   0  0  2  0  0  0  0  0  0  0  0  0
    5.1217   -8.9916    0.0000 C   0  0  1  0  0  0  0  0  0  0  0  0
    5.1217   -8.1666    0.0000 O   0  0  0  0  0  0  0  0  0  0  0  0
    4.4072   -6.9291    0.0000 C   0  0  0  0  0  0  0  0  0  0  0  0
    2.9783   -9.4041    0.0000 O   0  0  0  0  0  0  0  0  0  0  0  0
    2.9783   -7.7541    0.0000 O   0  0  0  0  0  0  0  0  0  0  0  0
    4.4073  -10.2291    0.0000 O   0  0  0  0  0  0  0  0  0  0  0  0
    7.2696  -10.8408    0.0000 O   0  0  0  0  0  0  0  0  0  0  0  0
   10.8420   -7.3494    0.0000 H   0  0  0  0  0  0  0  0  0  0  0  0
    7.9841   -9.8244    0.0000 H   0  0  0  0  0  0  0  0  0  0  0  0
    8.6986   -8.5869    0.0000 H   0  0  0  0  0  0  0  0  0  0  0  0
  1  2  1  0  0  0  0
  2  3  1  0  0  0  0
  3  4  1  0  0  0  0
  4  5  1  0  0  0  0
  5  6  1  0  0  0  0
  6  1  1  0  0  0  0
  4  7  1  0  0  0  0
  7  8  1  0  0  0  0
  8  9  1  0  0  0  0
  9 10  1  0  0  0  0
 10  5  1  0  0  0  0
  9 11  1  0  0  0  0
 11 12  1  0  0  0  0
 12 13  1  0  0  0  0
 13 14  2  0  0  0  0
 14 10  1  0  0  0  0
 11 15  1  0  0  0  0
 15 16  1  0  0  0  0
 16 17  1  0  0  0  0
 17 18  1  0  0  0  0
 18 12  1  0  0  0  0
 17 19  1  0  0  0  0
 19 20  1  0  0  0  0
 20 21  1  0  0  0  0
 21 22  1  0  0  0  0
 22 18  1  0  0  0  0
 12 23  1  0  0  0  0
 17 24  1  0  0  0  0
 24 23  1  0  0  0  0
  2 25  1  1  0  0  0
  3 26  1  1  0  0  0
  5 27  1  1  0  0  0
  9 28  1  1  0  0  0
 21 29  1  1  0  0  0
  3 30  1  6  0  0  0
 11 31  1  6  0  0  0
 16 32  1  1  0  0  0
 21 33  1  6  0  0  0
 34 35  1  0  0  0  0
 35 36  1  0  0  0  0
 36 37  1  0  0  0  0
 37 38  1  0  0  0  0
 38 39  1  0  0  0  0
 39 34  1  0  0  0  0
 34 40  1  1  0  0  0
 36 41  1  1  0  0  0
 35 42  1  1  0  0  0
 37 43  1  6  0  0  0
 38 25  1  1  0  0  0
 30 44  1  0  0  0  0
 18 45  1  1  0  0  0
  4 46  1  6  0  0  0
 10 47  1  6  0  0  0
M  END
>  <cdx:fragmentId>
5

$$$$
