14741.cdx
  Mrv1902 05222410222D          

 36 41  0  0  0  0            999 V2000
    6.9202  -10.7771    0.0000 H   0  0  0  0  0  0  0  0  0  0  0  0
    6.1815  -12.0061    0.0000 H   0  0  0  0  0  0  0  0  0  0  0  0
    8.2915  -10.8658    0.0000 H   0  0  0  0  0  0  0  0  0  0  0  0
    8.6619  -10.5427    0.0000 H   0  0  0  0  0  0  0  0  0  0  0  0
    7.5102   -8.3562    0.0000 H   0  0  0  0  0  0  0  0  0  0  0  0
    8.4210   -4.8129    0.0000 C   0  0  0  0  0  0  0  0  0  0  0  0
   10.5470   -7.9391    0.0000 C   0  0  0  0  0  0  0  0  0  0  0  0
    6.2010   -9.5312    0.0000 C   0  0  0  0  0  0  0  0  0  0  0  0
    4.0431  -11.5684    0.0000 O   0  0  0  0  0  0  0  0  0  0  0  0
    6.8911  -12.4270    0.0000 O   0  0  0  0  0  0  0  0  0  0  0  0
    7.1013   -9.1473    0.0000 C   0  0  0  0  0  0  0  0  0  0  0  0
    6.9202   -9.9521    0.0000 C   0  0  2  0  0  0  0  0  0  0  0  0
    6.2010  -10.3562    0.0000 C   0  0  2  0  0  0  0  0  0  0  0  0
    5.4914   -9.9353    0.0000 C   0  0  0  0  0  0  0  0  0  0  0  0
    4.7721  -10.3394    0.0000 C   0  0  0  0  0  0  0  0  0  0  0  0
    4.7624  -11.1643    0.0000 C   0  0  1  0  0  0  0  0  0  0  0  0
    5.4720  -11.5852    0.0000 C   0  0  0  0  0  0  0  0  0  0  0  0
    6.1912  -11.1811    0.0000 C   0  0  2  0  0  0  0  0  0  0  0  0
    6.9008  -11.6020    0.0000 C   0  0  1  0  0  0  0  0  0  0  0  0
    7.6201  -11.1980    0.0000 C   0  0  0  0  0  0  0  0  0  0  0  0
    7.6298  -10.3730    0.0000 C   0  0  1  0  0  0  0  0  0  0  0  0
    8.2494   -9.8283    0.0000 C   0  0  2  0  0  0  0  0  0  0  0  0
    9.0688   -9.9242    0.0000 C   0  0  0  0  0  0  0  0  0  0  0  0
    9.5615   -9.2625    0.0000 C   0  0  0  0  0  0  0  0  0  0  0  0
    9.2349   -8.5049    0.0000 C   0  0  0  0  0  0  0  0  0  0  0  0
    9.7276   -7.8432    0.0000 C   0  0  2  0  0  0  0  0  0  0  0  0
    9.4010   -7.0857    0.0000 C   0  0  2  0  0  0  0  0  0  0  0  0
    9.8937   -6.4240    0.0000 C   0  0  0  0  0  0  0  0  0  0  0  0
    9.5671   -5.6664    0.0000 C   0  0  0  0  0  0  0  0  0  0  0  0
    8.7477   -5.5705    0.0000 C   0  0  2  0  0  0  0  0  0  0  0  0
    8.2549   -6.2322    0.0000 C   0  0  0  0  0  0  0  0  0  0  0  0
    8.5816   -6.9898    0.0000 N   0  0  0  0  0  0  0  0  0  0  0  0
    8.0888   -7.6514    0.0000 C   0  0  0  0  0  0  0  0  0  0  0  0
    8.4155   -8.4090    0.0000 C   0  0  0  0  0  0  0  0  0  0  0  0
    7.9227   -9.0707    0.0000 C   0  0  2  0  0  0  0  0  0  0  0  0
    8.9885   -6.3712    0.0000 H   0  0  0  0  0  0  0  0  0  0  0  0
 12  1  1  6  0  0  0
 18  2  1  6  0  0  0
 21  3  1  1  0  0  0
 22  4  1  6  0  0  0
 35  5  1  6  0  0  0
 30  6  1  6  0  0  0
 26  7  1  6  0  0  0
 13  8  1  1  0  0  0
 16  9  1  1  0  0  0
 19 10  1  1  0  0  0
 32 27  1  0  0  0  0
 34 25  2  0  0  0  0
 18 13  1  0  0  0  0
 21 12  1  0  0  0  0
 35 22  1  0  0  0  0
 35 11  1  0  0  0  0
 12 11  1  0  0  0  0
 13 12  1  0  0  0  0
 14 13  1  0  0  0  0
 15 14  1  0  0  0  0
 16 15  1  0  0  0  0
 17 16  1  0  0  0  0
 18 17  1  0  0  0  0
 19 18  1  0  0  0  0
 20 19  1  0  0  0  0
 21 20  1  0  0  0  0
 22 21  1  0  0  0  0
 23 22  1  0  0  0  0
 24 23  1  0  0  0  0
 25 24  1  0  0  0  0
 26 25  1  0  0  0  0
 27 26  1  0  0  0  0
 28 27  1  0  0  0  0
 29 28  1  0  0  0  0
 30 29  1  0  0  0  0
 31 30  1  0  0  0  0
 32 31  1  0  0  0  0
 33 32  1  0  0  0  0
 34 33  1  0  0  0  0
 35 34  1  0  0  0  0
 27 36  1  6  0  0  0
M  END
>  <cdx:fragmentId>
239192

$$$$
