147621.cdx
  Mrv1902 05222410222D          

 22 24  0  0  0  0            999 V2000
    4.6631   -6.1783    0.0000 C   0  0  0  0  0  0  0  0  0  0  0  0
    5.3775   -6.5908    0.0000 O   0  0  0  0  0  0  0  0  0  0  0  0
    3.9486   -9.0658    0.0000 O   0  0  0  0  0  0  0  0  0  0  0  0
    8.2355   -6.5908    0.0000 O   0  0  0  0  0  0  0  0  0  0  0  0
   10.3789   -8.6533    0.0000 O   0  0  0  0  0  0  0  0  0  0  0  0
    9.6644   -9.0658    0.0000 C   0  0  0  0  0  0  0  0  0  0  0  0
    6.0921   -7.8283    0.0000 C   0  0  0  0  0  0  0  0  0  0  0  0
    6.8065   -6.5908    0.0000 O   0  0  0  0  0  0  0  0  0  0  0  0
    6.8065   -7.4158    0.0000 C   0  0  0  0  0  0  0  0  0  0  0  0
    7.5209   -7.8283    0.0000 C   0  0  0  0  0  0  0  0  0  0  0  0
    8.2355   -7.4158    0.0000 C   0  0  0  0  0  0  0  0  0  0  0  0
    8.9499   -7.8283    0.0000 C   0  0  0  0  0  0  0  0  0  0  0  0
    8.9499   -8.6533    0.0000 C   0  0  0  0  0  0  0  0  0  0  0  0
    8.2355   -9.0658    0.0000 C   0  0  0  0  0  0  0  0  0  0  0  0
    7.5209   -8.6533    0.0000 C   0  0  0  0  0  0  0  0  0  0  0  0
    6.8065   -9.8908    0.0000 O   0  0  0  0  0  0  0  0  0  0  0  0
    6.8065   -9.0658    0.0000 C   0  0  0  0  0  0  0  0  0  0  0  0
    6.0921   -8.6533    0.0000 C   0  0  0  0  0  0  0  0  0  0  0  0
    5.3775   -9.0658    0.0000 C   0  0  0  0  0  0  0  0  0  0  0  0
    4.6631   -8.6533    0.0000 C   0  0  0  0  0  0  0  0  0  0  0  0
    4.6631   -7.8283    0.0000 C   0  0  0  0  0  0  0  0  0  0  0  0
    5.3775   -7.4158    0.0000 C   0  0  0  0  0  0  0  0  0  0  0  0
  2  1  1  0  0  0  0
 22  2  1  0  0  0  0
 20  3  1  0  0  0  0
 11  4  1  0  0  0  0
 13  6  1  0  0  0  0
  6  5  1  0  0  0  0
 22  7  2  0  0  0  0
 18  7  1  0  0  0  0
  9  7  1  0  0  0  0
  9  8  2  0  0  0  0
 10  9  1  0  0  0  0
 15 10  2  0  0  0  0
 11 10  1  0  0  0  0
 12 11  2  0  0  0  0
 13 12  1  0  0  0  0
 14 13  2  0  0  0  0
 15 14  1  0  0  0  0
 17 15  1  0  0  0  0
 17 16  2  0  0  0  0
 18 17  1  0  0  0  0
 19 18  2  0  0  0  0
 20 19  1  0  0  0  0
 21 20  2  0  0  0  0
 22 21  1  0  0  0  0
M  END
>  <cdx:fragmentId>
2420

$$$$
