147600.cdx
  Mrv1902 05222410252D          

 31 33  0  0  0  0            999 V2000
    7.8496   -7.7000    0.0000 C   0  0  0  0  0  0  0  0  0  0  0  0
    8.5639   -8.1129    0.0000 C   0  0  0  0  0  0  0  0  0  0  0  0
    9.2786   -7.7009    0.0000 C   0  0  0  0  0  0  0  0  0  0  0  0
    9.2791   -6.8759    0.0000 C   0  0  0  0  0  0  0  0  0  0  0  0
    8.5649   -6.4629    0.0000 C   0  0  0  0  0  0  0  0  0  0  0  0
    7.8502   -6.8750    0.0000 C   0  0  0  0  0  0  0  0  0  0  0  0
    8.5654   -5.6379    0.0000 C   0  0  0  0  0  0  0  0  0  0  0  0
    9.2801   -5.2259    0.0000 C   0  0  0  0  0  0  0  0  0  0  0  0
    9.2806   -4.4009    0.0000 C   0  0  0  0  0  0  0  0  0  0  0  0
    8.5664   -3.9879    0.0000 C   0  0  0  0  0  0  0  0  0  0  0  0
    9.9954   -3.9888    0.0000 C   0  0  0  0  0  0  0  0  0  0  0  0
    9.9938   -6.4638    0.0000 O   0  0  0  0  0  0  0  0  0  0  0  0
    9.9928   -8.1138    0.0000 O   0  0  0  0  0  0  0  0  0  0  0  0
    4.9902  -10.1732    0.0000 O   0  0  0  0  0  0  0  0  0  0  0  0
    3.5628   -7.6974    0.0000 O   0  0  0  0  0  0  0  0  0  0  0  0
    3.5643   -5.2224    0.0000 C   0  0  0  0  0  0  0  0  0  0  0  0
    4.9792   -5.3628    0.0000 C   0  0  0  0  0  0  0  0  0  0  0  0
    4.2645   -5.7748    0.0000 C   0  0  0  0  0  0  0  0  0  0  0  0
    4.2781   -6.4603    0.0000 C   0  0  0  0  0  0  0  0  0  0  0  0
    4.9923   -6.8732    0.0000 C   0  0  0  0  0  0  0  0  0  0  0  0
    6.4192  -10.1741    0.0000 O   0  0  0  0  0  0  0  0  0  0  0  0
    6.4207   -7.6991    0.0000 O   0  0  0  0  0  0  0  0  0  0  0  0
    5.7060   -8.1112    0.0000 C   0  0  0  0  0  0  0  0  0  0  0  0
    4.9918   -7.6982    0.0000 C   0  0  0  0  0  0  0  0  0  0  0  0
    4.2770   -8.1103    0.0000 C   0  0  0  0  0  0  0  0  0  0  0  0
    4.2765   -8.9353    0.0000 C   0  0  0  0  0  0  0  0  0  0  0  0
    4.9907   -9.3482    0.0000 C   0  0  0  0  0  0  0  0  0  0  0  0
    5.7055   -8.9362    0.0000 C   0  0  0  0  0  0  0  0  0  0  0  0
    6.4197   -9.3491    0.0000 C   0  0  0  0  0  0  0  0  0  0  0  0
    7.1344   -8.9371    0.0000 C   0  0  0  0  0  0  0  0  0  0  0  0
    7.1349   -8.1121    0.0000 C   0  0  0  0  0  0  0  0  0  0  0  0
 31  1  1  0  0  0  0
 27 14  1  0  0  0  0
 25 15  1  0  0  0  0
 24 20  1  0  0  0  0
 18 16  1  0  0  0  0
 18 17  1  0  0  0  0
 19 18  2  0  0  0  0
 20 19  1  0  0  0  0
 29 21  2  0  0  0  0
 31 22  1  0  0  0  0
 23 22  1  0  0  0  0
 28 23  2  0  0  0  0
 24 23  1  0  0  0  0
 25 24  2  0  0  0  0
 26 25  1  0  0  0  0
 27 26  2  0  0  0  0
 28 27  1  0  0  0  0
 29 28  1  0  0  0  0
 30 29  1  0  0  0  0
 31 30  2  0  0  0  0
  1  2  1  0  0  0  0
  2  3  2  0  0  0  0
  3  4  1  0  0  0  0
  4  5  2  0  0  0  0
  5  6  1  0  0  0  0
  1  6  2  0  0  0  0
  7  8  1  0  0  0  0
  8  9  2  0  0  0  0
  9 10  1  0  0  0  0
  9 11  1  0  0  0  0
  5  7  1  0  0  0  0
  4 12  1  0  0  0  0
  3 13  1  0  0  0  0
M  END
>  <cdx:groupId>
126988

>  <cdx:fragmentId>
126896

$$$$
