14769.cdx
  Mrv1902 05222410222D          

 21 23  0  0  0  0            999 V2000
    4.7677   -8.3338    0.0000 C   0  0  0  0  0  0  0  0  0  0  0  0
    4.7677   -7.5088    0.0000 C   0  0  0  0  0  0  0  0  0  0  0  0
    5.4821   -7.0963    0.0000 C   0  0  0  0  0  0  0  0  0  0  0  0
    6.1966   -7.5088    0.0000 C   0  0  0  0  0  0  0  0  0  0  0  0
    6.1966   -8.3338    0.0000 C   0  0  0  0  0  0  0  0  0  0  0  0
    5.4821   -8.7463    0.0000 C   0  0  0  0  0  0  0  0  0  0  0  0
    6.9111   -7.0963    0.0000 O   0  0  0  0  0  0  0  0  0  0  0  0
    7.6255   -7.5088    0.0000 C   0  0  0  0  0  0  0  0  0  0  0  0
    7.6255   -8.3338    0.0000 C   0  0  0  0  0  0  0  0  0  0  0  0
    6.9111   -8.7463    0.0000 C   0  0  0  0  0  0  0  0  0  0  0  0
    8.3400   -8.7463    0.0000 C   0  0  0  0  0  0  0  0  0  0  0  0
    8.3400   -9.5713    0.0000 C   0  0  0  0  0  0  0  0  0  0  0  0
    9.0545   -8.3338    0.0000 C   0  0  0  0  0  0  0  0  0  0  0  0
    9.7690   -8.7463    0.0000 C   0  0  0  0  0  0  0  0  0  0  0  0
    9.7690   -9.5713    0.0000 C   0  0  0  0  0  0  0  0  0  0  0  0
    9.0545   -9.9838    0.0000 C   0  0  0  0  0  0  0  0  0  0  0  0
    5.4821   -9.5713    0.0000 O   0  0  0  0  0  0  0  0  0  0  0  0
    6.9111   -9.5713    0.0000 O   0  0  0  0  0  0  0  0  0  0  0  0
   10.4834   -9.9838    0.0000 O   0  0  0  0  0  0  0  0  0  0  0  0
    4.0532   -7.0963    0.0000 O   0  0  0  0  0  0  0  0  0  0  0  0
    3.3387   -7.5088    0.0000 C   0  0  0  0  0  0  0  0  0  0  0  0
  1  2  2  0  0  0  0
  2  3  1  0  0  0  0
  3  4  2  0  0  0  0
  4  5  1  0  0  0  0
  5  6  2  0  0  0  0
  6  1  1  0  0  0  0
  4  7  1  0  0  0  0
  7  8  1  0  0  0  0
  8  9  2  0  0  0  0
  9 10  1  0  0  0  0
 10  5  1  0  0  0  0
  9 11  1  0  0  0  0
 11 12  1  0  0  0  0
 11 13  2  0  0  0  0
 13 14  1  0  0  0  0
 14 15  2  0  0  0  0
 15 16  1  0  0  0  0
 16 12  2  0  0  0  0
  6 17  1  0  0  0  0
 10 18  2  0  0  0  0
 15 19  1  0  0  0  0
  2 20  1  0  0  0  0
 20 21  1  0  0  0  0
M  END
>  <cdx:fragmentId>
5

$$$$
