14773.cdx
  Mrv1902 05222410232D          

 46 48  0  0  0  0            999 V2000
    4.3661  -11.5476    0.0000 O   0  0  0  0  0  0  0  0  0  0  0  0
    5.2466   -9.6028    0.0000 O   0  0  0  0  0  0  0  0  0  0  0  0
    4.5834  -10.0936    0.0000 C   0  0  1  0  0  0  0  0  0  0  0  0
    4.8452  -10.8759    0.0000 C   0  0  2  0  0  0  0  0  0  0  0  0
    5.6701  -10.8687    0.0000 C   0  0  1  0  0  0  0  0  0  0  0  0
    5.9182  -10.0819    0.0000 C   0  0  1  0  0  0  0  0  0  0  0  0
    6.7006   -9.8202    0.0000 C   0  0  0  0  0  0  0  0  0  0  0  0
    7.4151  -10.2326    0.0000 O   0  0  0  0  0  0  0  0  0  0  0  0
    6.1609  -11.5319    0.0000 O   0  0  0  0  0  0  0  0  0  0  0  0
    3.7697  -10.2297    0.0000 C   0  0  0  0  0  0  0  0  0  0  0  0
    4.0000   -9.5102    0.0000 O   0  0  0  0  0  0  0  0  0  0  0  0
    3.9999   -8.6852    0.0000 C   0  0  1  0  0  0  0  0  0  0  0  0
    4.7144   -8.2727    0.0000 O   0  0  0  0  0  0  0  0  0  0  0  0
    4.7143   -7.4477    0.0000 C   0  0  1  0  0  0  0  0  0  0  0  0
    3.9998   -7.0352    0.0000 C   0  0  2  0  0  0  0  0  0  0  0  0
    3.2854   -7.4478    0.0000 C   0  0  1  0  0  0  0  0  0  0  0  0
    3.2854   -8.2728    0.0000 C   0  0  1  0  0  0  0  0  0  0  0  0
    2.5710   -8.6854    0.0000 O   0  0  0  0  0  0  0  0  0  0  0  0
    3.2450   -9.5931    0.0000 O   0  0  0  0  0  0  0  0  0  0  0  0
    1.1419   -7.0355    0.0000 C   0  0  0  0  0  0  0  0  0  0  0  0
    1.8565   -8.2729    0.0000 O   0  0  0  0  0  0  0  0  0  0  0  0
    1.8564   -7.4479    0.0000 C   0  0  0  0  0  0  0  0  0  0  0  0
    2.5708   -7.0354    0.0000 O   0  0  0  0  0  0  0  0  0  0  0  0
    6.8576   -6.2100    0.0000 O   0  0  0  0  0  0  0  0  0  0  0  0
    6.1430   -4.9726    0.0000 C   0  0  0  0  0  0  0  0  0  0  0  0
    6.1431   -5.7976    0.0000 C   0  0  0  0  0  0  0  0  0  0  0  0
    5.4287   -6.2101    0.0000 O   0  0  0  0  0  0  0  0  0  0  0  0
    5.4287   -7.0351    0.0000 C   0  0  0  0  0  0  0  0  0  0  0  0
    2.4313   -9.7293    0.0000 C   0  0  0  0  0  0  0  0  0  0  0  0
    1.9065   -9.0927    0.0000 C   0  0  0  0  0  0  0  0  0  0  0  0
    2.1423  -10.5020    0.0000 O   0  0  0  0  0  0  0  0  0  0  0  0
    3.2851   -4.9728    0.0000 O   0  0  0  0  0  0  0  0  0  0  0  0
    2.5708   -6.2104    0.0000 C   0  0  0  0  0  0  0  0  0  0  0  0
    3.2852   -5.7978    0.0000 C   0  0  0  0  0  0  0  0  0  0  0  0
    3.9997   -6.2102    0.0000 O   0  0  0  0  0  0  0  0  0  0  0  0
    8.1295   -9.8200    0.0000 C   0  0  0  0  0  0  0  0  0  0  0  0
    8.8440  -10.2325    0.0000 C   0  0  0  0  0  0  0  0  0  0  0  0
    8.1295   -8.9950    0.0000 O   0  0  0  0  0  0  0  0  0  0  0  0
    9.5585   -9.8199    0.0000 C   0  0  0  0  0  0  0  0  0  0  0  0
   10.2730  -10.2324    0.0000 C   0  0  0  0  0  0  0  0  0  0  0  0
   10.2731  -11.0574    0.0000 C   0  0  0  0  0  0  0  0  0  0  0  0
   10.9876  -11.4698    0.0000 C   0  0  0  0  0  0  0  0  0  0  0  0
   11.7020  -11.0572    0.0000 C   0  0  0  0  0  0  0  0  0  0  0  0
   11.7019  -10.2322    0.0000 C   0  0  0  0  0  0  0  0  0  0  0  0
   10.9874   -9.8198    0.0000 C   0  0  0  0  0  0  0  0  0  0  0  0
   12.4165  -11.4697    0.0000 O   0  0  0  0  0  0  0  0  0  0  0  0
  2  3  1  0  0  0  0
  3  4  1  0  0  0  0
  4  5  1  0  0  0  0
  5  6  1  0  0  0  0
  2  6  1  0  0  0  0
  7  8  1  0  0  0  0
  6  7  1  6  0  0  0
  5  9  1  1  0  0  0
  4  1  1  6  0  0  0
  3 10  1  0  0  0  0
  3 11  1  6  0  0  0
 12 11  1  6  0  0  0
 12 13  1  0  0  0  0
 13 14  1  0  0  0  0
 14 15  1  0  0  0  0
 15 16  1  0  0  0  0
 16 17  1  0  0  0  0
 17 12  1  0  0  0  0
 26 24  2  0  0  0  0
 14 28  1  1  0  0  0
 22 20  1  0  0  0  0
 16 23  1  1  0  0  0
 17 18  1  6  0  0  0
 34 32  2  0  0  0  0
 15 35  1  6  0  0  0
 10 19  1  0  0  0  0
 22 21  2  0  0  0  0
 23 22  1  0  0  0  0
 26 25  1  0  0  0  0
 27 26  1  0  0  0  0
 28 27  1  0  0  0  0
 19 29  1  0  0  0  0
 29 30  1  0  0  0  0
 29 31  2  0  0  0  0
 34 33  1  0  0  0  0
 35 34  1  0  0  0  0
  8 36  1  0  0  0  0
 36 37  1  0  0  0  0
 36 38  2  0  0  0  0
 37 39  2  0  0  0  0
 39 40  1  0  0  0  0
 40 41  2  0  0  0  0
 41 42  1  0  0  0  0
 42 43  2  0  0  0  0
 43 44  1  0  0  0  0
 44 45  2  0  0  0  0
 45 40  1  0  0  0  0
 43 46  1  0  0  0  0
M  END
>  <cdx:fragmentId>
204591

$$$$
