14778.cdx
  Mrv1902 05222410212D          

 22 25  0  0  0  0            999 V2000
    8.9413   -8.3702    0.0000 O   0  0  0  0  0  0  0  0  0  0  0  0
    9.4262   -7.7028    0.0000 C   0  0  0  0  0  0  0  0  0  0  0  0
    8.9413   -7.0353    0.0000 C   0  0  0  0  0  0  0  0  0  0  0  0
    8.1567   -7.2903    0.0000 C   0  0  0  0  0  0  0  0  0  0  0  0
    7.4422   -6.8778    0.0000 C   0  0  0  0  0  0  0  0  0  0  0  0
    6.7277   -7.2903    0.0000 C   0  0  0  0  0  0  0  0  0  0  0  0
    6.7277   -8.1153    0.0000 C   0  0  0  0  0  0  0  0  0  0  0  0
    7.4422   -8.5278    0.0000 C   0  0  0  0  0  0  0  0  0  0  0  0
    8.1567   -8.1153    0.0000 C   0  0  0  0  0  0  0  0  0  0  0  0
    7.4422   -9.3528    0.0000 C   0  0  0  0  0  0  0  0  0  0  0  0
    6.7277   -9.7653    0.0000 C   0  0  0  0  0  0  0  0  0  0  0  0
    6.0133   -9.3528    0.0000 C   0  0  0  0  0  0  0  0  0  0  0  0
    5.2988   -9.7653    0.0000 C   0  0  0  0  0  0  0  0  0  0  0  0
    4.5843   -9.3528    0.0000 C   0  0  0  0  0  0  0  0  0  0  0  0
    4.5843   -8.5278    0.0000 C   0  0  0  0  0  0  0  0  0  0  0  0
    5.2988   -8.1153    0.0000 C   0  0  0  0  0  0  0  0  0  0  0  0
    6.0133   -8.5278    0.0000 C   0  0  0  0  0  0  0  0  0  0  0  0
    6.0133   -6.8778    0.0000 O   0  0  0  0  0  0  0  0  0  0  0  0
    7.4422   -6.0528    0.0000 O   0  0  0  0  0  0  0  0  0  0  0  0
    5.2988  -10.5903    0.0000 C   0  0  0  0  0  0  0  0  0  0  0  0
    9.1962   -6.2507    0.0000 C   0  0  0  0  0  0  0  0  0  0  0  0
   10.0032   -6.0792    0.0000 O   0  0  0  0  0  0  0  0  0  0  0  0
  1  2  1  0  0  0  0
  2  3  2  0  0  0  0
  3  4  1  0  0  0  0
  4  5  1  0  0  0  0
  5  6  1  0  0  0  0
  6  7  1  0  0  0  0
  7  8  2  0  0  0  0
  8  9  1  0  0  0  0
  4  9  2  0  0  0  0
  1  9  1  0  0  0  0
 10 11  2  0  0  0  0
 11 12  1  0  0  0  0
 12 13  2  0  0  0  0
 13 14  1  0  0  0  0
 14 15  2  0  0  0  0
 15 16  1  0  0  0  0
 16 17  2  0  0  0  0
 12 17  1  0  0  0  0
 17  7  1  0  0  0  0
 10  8  1  0  0  0  0
  6 18  2  0  0  0  0
  5 19  2  0  0  0  0
 13 20  1  0  0  0  0
 21 22  1  0  0  0  0
  3 21  1  0  0  0  0
M  END
>  <cdx:fragmentId>
9257

$$$$
