14775.cdx
  Mrv1902 05222410252D          

 61 67  0  0  0  0            999 V2000
    2.5608   -6.8819    0.0000 C   0  0  1  0  0  0  0  0  0  0  0  0
    2.5608   -7.7069    0.0000 C   0  0  2  0  0  0  0  0  0  0  0  0
    3.2752   -8.1194    0.0000 C   0  0  1  0  0  0  0  0  0  0  0  0
    3.9897   -7.7069    0.0000 C   0  0  1  0  0  0  0  0  0  0  0  0
    3.9897   -6.8819    0.0000 C   0  0  2  0  0  0  0  0  0  0  0  0
    3.2752   -6.4694    0.0000 C   0  0  0  0  0  0  0  0  0  0  0  0
    4.7042   -8.1194    0.0000 C   0  0  0  0  0  0  0  0  0  0  0  0
    5.4187   -7.7069    0.0000 C   0  0  0  0  0  0  0  0  0  0  0  0
    5.4187   -6.8819    0.0000 C   0  0  2  0  0  0  0  0  0  0  0  0
    4.7042   -6.4694    0.0000 C   0  0  2  0  0  0  0  0  0  0  0  0
    6.1331   -6.4694    0.0000 C   0  0  1  0  0  0  0  0  0  0  0  0
    6.1331   -5.6444    0.0000 C   0  0  0  0  0  0  0  0  0  0  0  0
    5.4187   -5.2319    0.0000 C   0  0  0  0  0  0  0  0  0  0  0  0
    4.7042   -5.6444    0.0000 C   0  0  0  0  0  0  0  0  0  0  0  0
    6.8476   -6.8819    0.0000 C   0  0  0  0  0  0  0  0  0  0  0  0
    7.5621   -6.4694    0.0000 C   0  0  0  0  0  0  0  0  0  0  0  0
    7.5621   -5.6444    0.0000 C   0  0  2  0  0  0  0  0  0  0  0  0
    6.8476   -5.2319    0.0000 C   0  0  1  0  0  0  0  0  0  0  0  0
    8.2765   -5.2319    0.0000 C   0  0  0  0  0  0  0  0  0  0  0  0
    8.2765   -4.4069    0.0000 C   0  0  0  0  0  0  0  0  0  0  0  0
    7.5621   -3.9944    0.0000 C   0  0  2  0  0  0  0  0  0  0  0  0
    6.8476   -4.4069    0.0000 C   0  0  2  0  0  0  0  0  0  0  0  0
    8.2765   -6.0569    0.0000 C   0  0  0  0  0  0  0  0  0  0  0  0
    8.2765   -6.8819    0.0000 O   0  0  0  0  0  0  0  0  0  0  0  0
    8.9910   -5.6444    0.0000 O   0  0  0  0  0  0  0  0  0  0  0  0
    2.8627   -8.8338    0.0000 C   0  0  0  0  0  0  0  0  0  0  0  0
    3.9897   -6.0569    0.0000 C   0  0  0  0  0  0  0  0  0  0  0  0
    5.4187   -6.0569    0.0000 C   0  0  0  0  0  0  0  0  0  0  0  0
    3.6877   -8.8338    0.0000 C   0  0  0  0  0  0  0  0  0  0  0  0
    1.8463   -6.4694    0.0000 O   0  0  0  0  0  0  0  0  0  0  0  0
    1.8463   -8.1194    0.0000 O   0  0  0  0  0  0  0  0  0  0  0  0
    6.1331   -7.2944    0.0000 C   0  0  0  0  0  0  0  0  0  0  0  0
    6.4351   -3.6924    0.0000 C   0  0  0  0  0  0  0  0  0  0  0  0
    6.0226   -4.4069    0.0000 O   0  0  0  0  0  0  0  0  0  0  0  0
    7.5621   -3.1694    0.0000 C   0  0  0  0  0  0  0  0  0  0  0  0
   10.4679   -7.2869    0.0000 C   0  0  2  0  0  0  0  0  0  0  0  0
   11.1742   -6.8606    0.0000 C   0  0  2  0  0  0  0  0  0  0  0  0
   11.1581   -6.0358    0.0000 C   0  0  1  0  0  0  0  0  0  0  0  0
   10.4358   -5.6372    0.0000 C   0  0  2  0  0  0  0  0  0  0  0  0
    9.7295   -6.0635    0.0000 C   0  0  1  0  0  0  0  0  0  0  0  0
    9.7455   -6.8884    0.0000 O   0  0  0  0  0  0  0  0  0  0  0  0
   10.4839   -8.1118    0.0000 C   0  0  0  0  0  0  0  0  0  0  0  0
   11.8645   -5.6094    0.0000 O   0  0  0  0  0  0  0  0  0  0  0  0
   10.4197   -4.8124    0.0000 O   0  0  0  0  0  0  0  0  0  0  0  0
   11.8965   -7.2591    0.0000 O   0  0  0  0  0  0  0  0  0  0  0  0
   11.2063   -8.5103    0.0000 O   0  0  0  0  0  0  0  0  0  0  0  0
   10.4776  -10.5858    0.0000 C   0  0  2  0  0  0  0  0  0  0  0  0
   11.1932  -10.9963    0.0000 C   0  0  2  0  0  0  0  0  0  0  0  0
   11.9065  -10.5818    0.0000 C   0  0  1  0  0  0  0  0  0  0  0  0
   11.9041   -9.7568    0.0000 C   0  0  2  0  0  0  0  0  0  0  0  0
   11.1885   -9.3463    0.0000 C   0  0  1  0  0  0  0  0  0  0  0  0
   10.4752   -9.7608    0.0000 O   0  0  0  0  0  0  0  0  0  0  0  0
    9.7643  -11.0004    0.0000 C   0  0  0  0  0  0  0  0  0  0  0  0
   12.6221  -10.9922    0.0000 O   0  0  0  0  0  0  0  0  0  0  0  0
   12.6174   -9.3422    0.0000 O   0  0  0  0  0  0  0  0  0  0  0  0
   11.1955  -11.8213    0.0000 O   0  0  0  0  0  0  0  0  0  0  0  0
    9.7666  -11.8254    0.0000 O   0  0  0  0  0  0  0  0  0  0  0  0
    3.2752   -9.5483    0.0000 O   0  0  0  0  0  0  0  0  0  0  0  0
    6.8476   -6.0569    0.0000 H   0  0  0  0  0  0  0  0  0  0  0  0
    4.7042   -7.2944    0.0000 H   0  0  0  0  0  0  0  0  0  0  0  0
    3.9897   -8.5319    0.0000 H   0  0  0  0  0  0  0  0  0  0  0  0
  1  2  1  0  0  0  0
  2  3  1  0  0  0  0
  3  4  1  0  0  0  0
  4  5  1  0  0  0  0
  5  6  1  0  0  0  0
  6  1  1  0  0  0  0
  4  7  1  0  0  0  0
  7  8  1  0  0  0  0
  8  9  1  0  0  0  0
  9 10  1  0  0  0  0
 10  5  1  0  0  0  0
  9 11  1  0  0  0  0
 11 12  1  0  0  0  0
 12 13  2  0  0  0  0
 13 14  1  0  0  0  0
 14 10  1  0  0  0  0
 11 15  1  0  0  0  0
 15 16  1  0  0  0  0
 16 17  1  0  0  0  0
 17 18  1  0  0  0  0
 18 12  1  0  0  0  0
 17 19  1  0  0  0  0
 19 20  1  0  0  0  0
 20 21  1  0  0  0  0
 21 22  1  0  0  0  0
 22 18  1  0  0  0  0
 17 23  1  1  0  0  0
 23 24  2  0  0  0  0
 23 25  1  0  0  0  0
  3 26  1  1  0  0  0
  5 27  1  1  0  0  0
  9 28  1  1  0  0  0
  3 29  1  6  0  0  0
  1 30  1  6  0  0  0
  2 31  1  6  0  0  0
 11 32  1  6  0  0  0
 22 33  1  1  0  0  0
 22 34  1  6  0  0  0
 21 35  1  6  0  0  0
 36 37  1  0  0  0  0
 37 38  1  0  0  0  0
 38 39  1  0  0  0  0
 39 40  1  0  0  0  0
 40 41  1  0  0  0  0
 41 36  1  0  0  0  0
 36 42  1  1  0  0  0
 38 43  1  1  0  0  0
 39 44  1  6  0  0  0
 37 45  1  6  0  0  0
 42 46  1  0  0  0  0
 40 25  1  1  0  0  0
 47 48  1  0  0  0  0
 48 49  1  0  0  0  0
 49 50  1  0  0  0  0
 50 51  1  0  0  0  0
 51 52  1  0  0  0  0
 52 47  1  0  0  0  0
 47 53  1  1  0  0  0
 49 54  1  1  0  0  0
 50 55  1  6  0  0  0
 48 56  1  6  0  0  0
 53 57  1  0  0  0  0
 51 46  1  1  0  0  0
 29 58  1  0  0  0  0
 18 59  1  1  0  0  0
 10 60  1  6  0  0  0
  4 61  1  6  0  0  0
M  END
>  <cdx:fragmentId>
5

$$$$
