14772.cdx
  Mrv1902 05222410232D          

 49 51  0  0  0  0            999 V2000
    9.9070   -4.6869    0.0000 O   0  0  0  0  0  0  0  0  0  0  0  0
    9.0263   -6.6316    0.0000 O   0  0  0  0  0  0  0  0  0  0  0  0
    9.6896   -6.1409    0.0000 C   0  0  1  0  0  0  0  0  0  0  0  0
    9.4278   -5.3585    0.0000 C   0  0  2  0  0  0  0  0  0  0  0  0
    8.6029   -5.3657    0.0000 C   0  0  1  0  0  0  0  0  0  0  0  0
    8.3547   -6.1525    0.0000 C   0  0  1  0  0  0  0  0  0  0  0  0
    7.5723   -6.4142    0.0000 C   0  0  0  0  0  0  0  0  0  0  0  0
    6.8579   -6.0017    0.0000 O   0  0  0  0  0  0  0  0  0  0  0  0
    8.1122   -4.7024    0.0000 O   0  0  0  0  0  0  0  0  0  0  0  0
   10.5033   -6.0049    0.0000 C   0  0  0  0  0  0  0  0  0  0  0  0
   10.2729   -6.7243    0.0000 O   0  0  0  0  0  0  0  0  0  0  0  0
   10.2729   -7.5493    0.0000 C   0  0  1  0  0  0  0  0  0  0  0  0
    9.5584   -7.9618    0.0000 O   0  0  0  0  0  0  0  0  0  0  0  0
    9.5584   -8.7868    0.0000 C   0  0  1  0  0  0  0  0  0  0  0  0
   10.2729   -9.1993    0.0000 C   0  0  2  0  0  0  0  0  0  0  0  0
   10.9874   -8.7868    0.0000 C   0  0  1  0  0  0  0  0  0  0  0  0
   10.9874   -7.9618    0.0000 C   0  0  1  0  0  0  0  0  0  0  0  0
    8.8440   -9.1993    0.0000 C   0  0  0  0  0  0  0  0  0  0  0  0
   11.7019   -9.1993    0.0000 O   0  0  0  0  0  0  0  0  0  0  0  0
   11.7019   -7.5493    0.0000 O   0  0  0  0  0  0  0  0  0  0  0  0
   10.2729  -10.0243    0.0000 O   0  0  0  0  0  0  0  0  0  0  0  0
   11.0280   -6.6415    0.0000 O   0  0  0  0  0  0  0  0  0  0  0  0
    8.4413   -3.9459    0.0000 C   0  0  0  0  0  0  0  0  0  0  0  0
    7.9506   -3.2827    0.0000 O   0  0  0  0  0  0  0  0  0  0  0  0
    9.2610   -3.8526    0.0000 C   0  0  0  0  0  0  0  0  0  0  0  0
   11.7019  -10.0243    0.0000 C   0  0  0  0  0  0  0  0  0  0  0  0
   10.9874  -10.4368    0.0000 O   0  0  0  0  0  0  0  0  0  0  0  0
   12.4163  -10.4368    0.0000 C   0  0  0  0  0  0  0  0  0  0  0  0
    8.1295   -8.7868    0.0000 O   0  0  0  0  0  0  0  0  0  0  0  0
    7.4150   -9.1993    0.0000 C   0  0  0  0  0  0  0  0  0  0  0  0
    6.7006   -8.7868    0.0000 C   0  0  0  0  0  0  0  0  0  0  0  0
    7.4150  -10.0243    0.0000 O   0  0  0  0  0  0  0  0  0  0  0  0
   11.8417   -6.5054    0.0000 C   0  0  0  0  0  0  0  0  0  0  0  0
   12.3664   -7.1420    0.0000 C   0  0  0  0  0  0  0  0  0  0  0  0
   12.1306   -5.7327    0.0000 O   0  0  0  0  0  0  0  0  0  0  0  0
    9.5584  -10.4368    0.0000 C   0  0  0  0  0  0  0  0  0  0  0  0
    8.8440  -10.0243    0.0000 C   0  0  0  0  0  0  0  0  0  0  0  0
    9.5584  -11.2618    0.0000 O   0  0  0  0  0  0  0  0  0  0  0  0
    6.1434   -6.4142    0.0000 C   0  0  0  0  0  0  0  0  0  0  0  0
    5.4289   -6.0017    0.0000 C   0  0  0  0  0  0  0  0  0  0  0  0
    6.1434   -7.2392    0.0000 O   0  0  0  0  0  0  0  0  0  0  0  0
    4.7144   -6.4142    0.0000 C   0  0  0  0  0  0  0  0  0  0  0  0
    4.0000   -6.0017    0.0000 C   0  0  0  0  0  0  0  0  0  0  0  0
    4.0000   -5.1767    0.0000 C   0  0  0  0  0  0  0  0  0  0  0  0
    3.2855   -4.7642    0.0000 C   0  0  0  0  0  0  0  0  0  0  0  0
    2.5710   -5.1767    0.0000 C   0  0  0  0  0  0  0  0  0  0  0  0
    2.5710   -6.0017    0.0000 C   0  0  0  0  0  0  0  0  0  0  0  0
    3.2855   -6.4142    0.0000 C   0  0  0  0  0  0  0  0  0  0  0  0
    1.8566   -4.7642    0.0000 O   0  0  0  0  0  0  0  0  0  0  0  0
  2  3  1  0  0  0  0
  3  4  1  0  0  0  0
  4  5  1  0  0  0  0
  5  6  1  0  0  0  0
  2  6  1  0  0  0  0
  7  8  1  0  0  0  0
  6  7  1  6  0  0  0
  5  9  1  1  0  0  0
  4  1  1  6  0  0  0
  3 10  1  0  0  0  0
  3 11  1  6  0  0  0
 12 11  1  6  0  0  0
 12 13  1  0  0  0  0
 13 14  1  0  0  0  0
 14 15  1  0  0  0  0
 15 16  1  0  0  0  0
 16 17  1  0  0  0  0
 17 12  1  0  0  0  0
 14 18  1  1  0  0  0
 16 19  1  1  0  0  0
 17 20  1  6  0  0  0
 15 21  1  6  0  0  0
 10 22  1  0  0  0  0
  9 23  1  0  0  0  0
 23 24  2  0  0  0  0
 23 25  1  0  0  0  0
 19 26  1  0  0  0  0
 26 27  2  0  0  0  0
 26 28  1  0  0  0  0
 18 29  1  0  0  0  0
 29 30  1  0  0  0  0
 30 31  1  0  0  0  0
 30 32  2  0  0  0  0
 22 33  1  0  0  0  0
 33 34  1  0  0  0  0
 33 35  2  0  0  0  0
 21 36  1  0  0  0  0
 36 37  1  0  0  0  0
 36 38  2  0  0  0  0
  8 39  1  0  0  0  0
 39 40  1  0  0  0  0
 39 41  2  0  0  0  0
 40 42  2  0  0  0  0
 42 43  1  0  0  0  0
 43 44  2  0  0  0  0
 44 45  1  0  0  0  0
 45 46  2  0  0  0  0
 46 47  1  0  0  0  0
 47 48  2  0  0  0  0
 48 43  1  0  0  0  0
 46 49  1  0  0  0  0
M  END
>  <cdx:fragmentId>
204591

$$$$
