14776.cdx
  Mrv1902 05222410252D          

 37 42  0  0  0  0            999 V2000
    2.6227   -7.5281    0.0000 C   0  0  1  0  0  0  0  0  0  0  0  0
    2.6227   -8.3531    0.0000 C   0  0  2  0  0  0  0  0  0  0  0  0
    3.3371   -8.7656    0.0000 C   0  0  1  0  0  0  0  0  0  0  0  0
    4.0516   -8.3531    0.0000 C   0  0  1  0  0  0  0  0  0  0  0  0
    4.0516   -7.5281    0.0000 C   0  0  2  0  0  0  0  0  0  0  0  0
    3.3371   -7.1156    0.0000 C   0  0  0  0  0  0  0  0  0  0  0  0
    4.7661   -8.7656    0.0000 C   0  0  0  0  0  0  0  0  0  0  0  0
    5.4805   -8.3531    0.0000 C   0  0  0  0  0  0  0  0  0  0  0  0
    5.4805   -7.5281    0.0000 C   0  0  2  0  0  0  0  0  0  0  0  0
    4.7661   -7.1156    0.0000 C   0  0  2  0  0  0  0  0  0  0  0  0
    6.1950   -7.1156    0.0000 C   0  0  0  0  0  0  0  0  0  0  0  0
    6.1950   -6.2906    0.0000 C   0  0  1  0  0  0  0  0  0  0  0  0
    5.4805   -5.8781    0.0000 C   0  0  2  0  0  0  0  0  0  0  0  0
    4.7661   -6.2906    0.0000 C   0  0  0  0  0  0  0  0  0  0  0  0
    6.9095   -7.5281    0.0000 C   0  0  0  0  0  0  0  0  0  0  0  0
    7.6240   -7.1156    0.0000 C   0  0  0  0  0  0  0  0  0  0  0  0
    7.6240   -6.2906    0.0000 C   0  0  2  0  0  0  0  0  0  0  0  0
    6.9095   -5.8781    0.0000 C   0  0  1  0  0  0  0  0  0  0  0  0
    8.3384   -5.8781    0.0000 C   0  0  0  0  0  0  0  0  0  0  0  0
    8.3384   -5.0531    0.0000 C   0  0  0  0  0  0  0  0  0  0  0  0
    7.6240   -4.6406    0.0000 C   0  0  1  0  0  0  0  0  0  0  0  0
    6.9095   -5.0531    0.0000 C   0  0  0  0  0  0  0  0  0  0  0  0
    4.0516   -6.7031    0.0000 C   0  0  0  0  0  0  0  0  0  0  0  0
    5.4805   -6.7031    0.0000 C   0  0  0  0  0  0  0  0  0  0  0  0
    6.9095   -6.7031    0.0000 H   0  0  0  0  0  0  0  0  0  0  0  0
    8.3384   -6.7031    0.0000 C   0  0  0  0  0  0  0  0  0  0  0  0
    7.2115   -3.9262    0.0000 C   0  0  0  0  0  0  0  0  0  0  0  0
    8.0365   -3.9262    0.0000 C   0  0  0  0  0  0  0  0  0  0  0  0
    6.1950   -5.4656    0.0000 C   0  0  0  0  0  0  0  0  0  0  0  0
    4.7661   -7.9406    0.0000 H   0  0  0  0  0  0  0  0  0  0  0  0
    4.0516   -9.1781    0.0000 H   0  0  0  0  0  0  0  0  0  0  0  0
    1.9082   -7.1156    0.0000 O   0  0  0  0  0  0  0  0  0  0  0  0
    1.9082   -8.7656    0.0000 O   0  0  0  0  0  0  0  0  0  0  0  0
    9.0529   -6.2906    0.0000 O   0  0  0  0  0  0  0  0  0  0  0  0
    8.3384   -7.5281    0.0000 O   0  0  0  0  0  0  0  0  0  0  0  0
    2.9246   -9.4801    0.0000 C   0  0  0  0  0  0  0  0  0  0  0  0
    3.7496   -9.4801    0.0000 C   0  0  0  0  0  0  0  0  0  0  0  0
  1  2  1  0  0  0  0
  2  3  1  0  0  0  0
  3  4  1  0  0  0  0
  4  5  1  0  0  0  0
  5  6  1  0  0  0  0
  6  1  1  0  0  0  0
  4  7  1  0  0  0  0
  7  8  1  0  0  0  0
  8  9  1  0  0  0  0
  9 10  1  0  0  0  0
 10  5  1  0  0  0  0
  9 11  1  0  0  0  0
 11 12  1  0  0  0  0
 12 13  1  0  0  0  0
 13 14  1  0  0  0  0
 14 10  1  0  0  0  0
 11 15  2  0  0  0  0
 15 16  1  0  0  0  0
 16 17  1  0  0  0  0
 17 18  1  0  0  0  0
 18 12  1  0  0  0  0
 17 19  1  0  0  0  0
 19 20  1  0  0  0  0
 20 21  1  0  0  0  0
 21 22  1  0  0  0  0
 22 18  1  0  0  0  0
  5 23  1  1  0  0  0
  9 24  1  1  0  0  0
 18 25  1  1  0  0  0
 17 26  1  1  0  0  0
 21 27  1  1  0  0  0
 21 28  1  6  0  0  0
 13 29  1  6  0  0  0
 12 29  1  6  0  0  0
 10 30  1  6  0  0  0
  4 31  1  6  0  0  0
  1 32  1  6  0  0  0
  2 33  1  6  0  0  0
 26 34  2  0  0  0  0
 26 35  1  0  0  0  0
  3 36  1  1  0  0  0
  3 37  1  6  0  0  0
M  END
>  <cdx:fragmentId>
5

$$$$
