pseudolaric acid B-O-ﾥ￢-D-glucopyranoside.cdx
  Mrv1902 05222410222D          

 42 45  0  0  0  0            999 V2000
    3.5517   -5.6518    0.0000 C   0  0  0  0  0  0  0  0  0  0  0  0
    3.1955   -6.3960    0.0000 C   0  0  0  0  0  0  0  0  0  0  0  0
    3.5552   -7.1384    0.0000 C   0  0  0  0  0  0  0  0  0  0  0  0
    4.3599   -7.3201    0.0000 C   0  0  0  0  0  0  0  0  0  0  0  0
    5.0037   -6.8042    0.0000 C   0  0  2  0  0  0  0  0  0  0  0  0
    5.0018   -5.9792    0.0000 C   0  0  2  0  0  0  0  0  0  0  0  0
    4.3555   -5.4663    0.0000 C   0  0  0  0  0  0  0  0  0  0  0  0
    5.7192   -7.2150    0.0000 C   0  0  0  0  0  0  0  0  0  0  0  0
    6.4327   -6.8042    0.0000 O   0  0  0  0  0  0  0  0  0  0  0  0
    6.4327   -5.9792    0.0000 C   0  0  1  0  0  0  0  0  0  0  0  0
    5.7192   -5.5684    0.0000 C   0  0  2  0  0  0  0  0  0  0  0  0
    2.3705   -6.3960    0.0000 C   0  0  0  0  0  0  0  0  0  0  0  0
    1.9580   -7.1105    0.0000 O   0  0  0  0  0  0  0  0  0  0  0  0
    1.9580   -5.6815    0.0000 O   0  0  0  0  0  0  0  0  0  0  0  0
    1.1330   -5.6815    0.0000 C   0  0  0  0  0  0  0  0  0  0  0  0
    5.7192   -8.0400    0.0000 O   0  0  0  0  0  0  0  0  0  0  0  0
    7.1471   -5.5667    0.0000 C   0  0  0  0  0  0  0  0  0  0  0  0
    7.8616   -5.9792    0.0000 C   0  0  0  0  0  0  0  0  0  0  0  0
    8.5761   -5.5667    0.0000 C   0  0  0  0  0  0  0  0  0  0  0  0
    9.2906   -5.9792    0.0000 C   0  0  0  0  0  0  0  0  0  0  0  0
   10.0050   -5.5667    0.0000 C   0  0  0  0  0  0  0  0  0  0  0  0
    9.2906   -6.8042    0.0000 C   0  0  0  0  0  0  0  0  0  0  0  0
    5.0018   -5.1542    0.0000 O   0  0  0  0  0  0  0  0  0  0  0  0
    6.1317   -6.2829    0.0000 C   0  0  0  0  0  0  0  0  0  0  0  0
    5.8287   -6.8042    0.0000 C   0  0  0  0  0  0  0  0  0  0  0  0
    6.4327   -5.1542    0.0000 C   0  0  0  0  0  0  0  0  0  0  0  0
   11.1091   -7.9926    0.0000 C   0  0  2  0  0  0  0  0  0  0  0  0
   11.9341   -7.9819    0.0000 C   0  0  2  0  0  0  0  0  0  0  0  0
   12.3372   -7.2621    0.0000 C   0  0  1  0  0  0  0  0  0  0  0  0
   11.9155   -6.5531    0.0000 C   0  0  2  0  0  0  0  0  0  0  0  0
   11.0905   -6.5638    0.0000 C   0  0  1  0  0  0  0  0  0  0  0  0
   10.6874   -7.2836    0.0000 O   0  0  0  0  0  0  0  0  0  0  0  0
   10.7060   -8.7124    0.0000 C   0  0  0  0  0  0  0  0  0  0  0  0
   13.1622   -7.2514    0.0000 O   0  0  0  0  0  0  0  0  0  0  0  0
   12.3558   -8.6909    0.0000 O   0  0  0  0  0  0  0  0  0  0  0  0
   12.3186   -5.8333    0.0000 O   0  0  0  0  0  0  0  0  0  0  0  0
    9.8810   -8.7231    0.0000 O   0  0  0  0  0  0  0  0  0  0  0  0
   10.0050   -4.7417    0.0000 O   0  0  0  0  0  0  0  0  0  0  0  0
   10.7195   -5.9792    0.0000 O   0  0  0  0  0  0  0  0  0  0  0  0
    5.0018   -4.3292    0.0000 C   0  0  0  0  0  0  0  0  0  0  0  0
    5.7162   -3.9167    0.0000 O   0  0  0  0  0  0  0  0  0  0  0  0
    4.2873   -3.9167    0.0000 C   0  0  0  0  0  0  0  0  0  0  0  0
  1  2  1  0  0  0  0
  2  3  2  0  0  0  0
  3  4  1  0  0  0  0
  4  5  1  0  0  0  0
  5  6  1  0  0  0  0
  6  7  1  0  0  0  0
  7  1  1  0  0  0  0
  5  8  1  0  0  0  0
  8  9  1  0  0  0  0
  9 10  1  0  0  0  0
 10 11  1  0  0  0  0
 11  6  1  0  0  0  0
  2 12  1  0  0  0  0
  8 16  2  0  0  0  0
 10 17  1  0  0  0  0
 17 18  2  0  0  0  0
 18 19  1  0  0  0  0
 19 20  2  0  0  0  0
 20 21  1  0  0  0  0
 20 22  1  0  0  0  0
  6 23  1  1  0  0  0
 11 24  1  1  0  0  0
  5 25  1  1  0  0  0
 25 24  1  0  0  0  0
 10 26  1  6  0  0  0
 27 28  1  0  0  0  0
 28 29  1  0  0  0  0
 29 30  1  0  0  0  0
 30 31  1  0  0  0  0
 31 32  1  0  0  0  0
 32 27  1  0  0  0  0
 27 33  1  1  0  0  0
 29 34  1  1  0  0  0
 28 35  1  6  0  0  0
 30 36  1  6  0  0  0
 33 37  1  0  0  0  0
 21 38  2  0  0  0  0
 21 39  1  0  0  0  0
 31 39  1  1  0  0  0
 12 13  2  0  0  0  0
 12 14  1  0  0  0  0
 14 15  1  0  0  0  0
 23 40  1  0  0  0  0
 40 41  2  0  0  0  0
 40 42  1  0  0  0  0
M  STY  2   1 SUP   2 SUP
M  SAL   1  4  12  13  14  15
M  SBL   1  1  13
M  SMT   1 COOCH3
M  SAP   1  1  12   2  1
M  SAL   2  4  23  40  41  42
M  SBL   2  1  21
M  SMT   2 OCOCH3
M  SAP   2  1  23   6  1
M  END
>  <cdx:fragmentId>
29

$$$$
