14797.cdx
  Mrv1902 05222410222D          

 39 43  0  0  0  0            999 V2000
    5.8402   -8.8688    0.0000 C   0  0  0  0  0  0  0  0  0  0  0  0
    5.8402   -9.6937    0.0000 C   0  0  0  0  0  0  0  0  0  0  0  0
    6.5546  -10.1063    0.0000 C   0  0  0  0  0  0  0  0  0  0  0  0
    7.2691   -9.6937    0.0000 C   0  0  0  0  0  0  0  0  0  0  0  0
    7.2691   -8.8688    0.0000 C   0  0  0  0  0  0  0  0  0  0  0  0
    6.5546   -8.4563    0.0000 C   0  0  0  0  0  0  0  0  0  0  0  0
    7.9836  -10.1063    0.0000 O   0  0  0  0  0  0  0  0  0  0  0  0
    8.6980   -9.6937    0.0000 C   0  0  0  0  0  0  0  0  0  0  0  0
    8.6980   -8.8688    0.0000 C   0  0  0  0  0  0  0  0  0  0  0  0
    7.9836   -8.4563    0.0000 C   0  0  0  0  0  0  0  0  0  0  0  0
    9.4125  -10.1063    0.0000 C   0  0  0  0  0  0  0  0  0  0  0  0
   10.1270   -9.6937    0.0000 C   0  0  0  0  0  0  0  0  0  0  0  0
   10.1270   -8.8688    0.0000 C   0  0  0  0  0  0  0  0  0  0  0  0
    9.4125   -8.4563    0.0000 C   0  0  0  0  0  0  0  0  0  0  0  0
    6.5546   -7.6313    0.0000 O   0  0  0  0  0  0  0  0  0  0  0  0
    7.9836   -7.6313    0.0000 O   0  0  0  0  0  0  0  0  0  0  0  0
    9.4125   -7.6313    0.0000 O   0  0  0  0  0  0  0  0  0  0  0  0
   10.8415  -10.1063    0.0000 O   0  0  0  0  0  0  0  0  0  0  0  0
   11.5559  -10.5188    0.0000 C   0  0  0  0  0  0  0  0  0  0  0  0
    6.5546  -10.9313    0.0000 O   0  0  0  0  0  0  0  0  0  0  0  0
    4.3201   -6.7838    0.0000 C   0  0  0  0  0  0  0  0  0  0  0  0
    3.7346   -7.3650    0.0000 C   0  0  0  0  0  0  0  0  0  0  0  0
    4.5596   -7.3544    0.0000 C   0  0  0  0  0  0  0  0  0  0  0  0
    5.2701   -7.7826    0.0000 O   0  0  0  0  0  0  0  0  0  0  0  0
    5.8558   -7.2014    0.0000 C   0  0  0  0  0  0  0  0  0  0  0  0
    5.0308   -7.2119    0.0000 C   0  0  0  0  0  0  0  0  0  0  0  0
    3.4952   -6.7807    0.0000 O   0  0  0  0  0  0  0  0  0  0  0  0
    2.9096   -7.3619    0.0000 O   0  0  0  0  0  0  0  0  0  0  0  0
    5.6142   -6.6286    0.0000 O   0  0  0  0  0  0  0  0  0  0  0  0
    4.0640   -5.2291    0.0000 C   0  0  0  0  0  0  0  0  0  0  0  0
    3.4720   -5.8036    0.0000 C   0  0  0  0  0  0  0  0  0  0  0  0
    4.2970   -5.8023    0.0000 C   0  0  0  0  0  0  0  0  0  0  0  0
    5.0027   -6.2384    0.0000 O   0  0  0  0  0  0  0  0  0  0  0  0
    5.5948   -5.6639    0.0000 C   0  0  0  0  0  0  0  0  0  0  0  0
    4.7698   -5.6651    0.0000 C   0  0  0  0  0  0  0  0  0  0  0  0
    4.7698   -4.8401    0.0000 O   0  0  0  0  0  0  0  0  0  0  0  0
    3.2390   -5.2291    0.0000 O   0  0  0  0  0  0  0  0  0  0  0  0
    2.6470   -5.8036    0.0000 O   0  0  0  0  0  0  0  0  0  0  0  0
    3.7136   -6.3857    0.0000 C   0  0  0  0  0  0  0  0  0  0  0  0
  1  2  2  0  0  0  0
  2  3  1  0  0  0  0
  3  4  2  0  0  0  0
  4  5  1  0  0  0  0
  5  6  2  0  0  0  0
  6  1  1  0  0  0  0
  4  7  1  0  0  0  0
  7  8  1  0  0  0  0
  8  9  2  0  0  0  0
  9 10  1  0  0  0  0
 10  5  1  0  0  0  0
  8 11  1  0  0  0  0
 11 12  2  0  0  0  0
 12 13  1  0  0  0  0
 13 14  2  0  0  0  0
 14  9  1  0  0  0  0
  6 15  1  0  0  0  0
 10 16  2  0  0  0  0
 14 17  1  0  0  0  0
 12 18  1  0  0  0  0
  3 20  1  0  0  0  0
 21 22  1  0  0  0  0
 22 23  1  0  0  0  0
 23 24  1  0  0  0  0
 24 25  1  0  0  0  0
 25 26  1  0  0  0  0
 26 21  1  0  0  0  0
 21 27  1  0  0  0  0
 22 28  1  0  0  0  0
 26 29  1  0  0  0  0
 30 31  1  0  0  0  0
 31 32  1  0  0  0  0
 32 33  1  0  0  0  0
 33 34  1  0  0  0  0
 34 35  1  0  0  0  0
 35 30  1  0  0  0  0
 34 29  1  0  0  0  0
 35 36  1  0  0  0  0
 30 37  1  0  0  0  0
 31 38  1  0  0  0  0
 32 39  1  0  0  0  0
 25 15  1  0  0  0  0
 18 19  1  0  0  0  0
M  STY  1   1 SUP
M  SAL   1  2  18  19
M  SBL   1  1  20
M  SMT   1 OCH3
M  SAP   1  1  18  12  1
M  END
>  <cdx:fragmentId>
5

$$$$
