148037.cdx
  Mrv1902 05222410282D          

 40 44  0  0  0  0            999 V2000
    6.9648   -5.6076    0.0000 C   0  0  0  0  0  0  0  0  0  0  0  0
    7.6793   -6.0201    0.0000 C   0  0  0  0  0  0  0  0  0  0  0  0
    7.6793   -6.8451    0.0000 C   0  0  0  0  0  0  0  0  0  0  0  0
    6.9648   -7.2576    0.0000 C   0  0  0  0  0  0  0  0  0  0  0  0
    6.2503   -6.8451    0.0000 C   0  0  0  0  0  0  0  0  0  0  0  0
    5.5359   -7.2576    0.0000 C   0  0  0  0  0  0  0  0  0  0  0  0
    4.8214   -6.8451    0.0000 C   0  0  0  0  0  0  0  0  0  0  0  0
    4.1069   -7.2576    0.0000 C   0  0  0  0  0  0  0  0  0  0  0  0
    3.3925   -6.8451    0.0000 C   0  0  0  0  0  0  0  0  0  0  0  0
    3.3925   -6.0201    0.0000 C   0  0  0  0  0  0  0  0  0  0  0  0
    4.1069   -5.6076    0.0000 C   0  0  0  0  0  0  0  0  0  0  0  0
    4.8214   -6.0201    0.0000 C   0  0  0  0  0  0  0  0  0  0  0  0
    5.5359   -5.6076    0.0000 C   0  0  0  0  0  0  0  0  0  0  0  0
    6.2503   -6.0201    0.0000 C   0  0  0  0  0  0  0  0  0  0  0  0
    5.5359   -4.7826    0.0000 O   0  0  0  0  0  0  0  0  0  0  0  0
    5.5359   -8.0826    0.0000 O   0  0  0  0  0  0  0  0  0  0  0  0
    6.9398   -9.7180    0.0000 C   0  0  0  0  0  0  0  0  0  0  0  0
    6.9314  -10.5430    0.0000 O   0  0  0  0  0  0  0  0  0  0  0  0
    5.5026  -10.5285    0.0000 O   0  0  0  0  0  0  0  0  0  0  0  0
    6.2128  -10.9482    0.0000 C   0  0  2  0  0  0  0  0  0  0  0  0
    6.2044  -11.7732    0.0000 C   0  0  1  0  0  0  0  0  0  0  0  0
    5.4858  -12.1784    0.0000 C   0  0  2  0  0  0  0  0  0  0  0  0
    4.7756  -11.7587    0.0000 C   0  0  1  0  0  0  0  0  0  0  0  0
    4.7839  -10.9337    0.0000 C   0  0  0  0  0  0  0  0  0  0  0  0
    4.0570  -12.1639    0.0000 O   0  0  0  0  0  0  0  0  0  0  0  0
    5.4775  -13.0033    0.0000 O   0  0  0  0  0  0  0  0  0  0  0  0
    6.9147  -12.1929    0.0000 O   0  0  0  0  0  0  0  0  0  0  0  0
    8.3938   -5.6076    0.0000 C   0  0  0  0  0  0  0  0  0  0  0  0
    9.1082   -6.0201    0.0000 O   0  0  0  0  0  0  0  0  0  0  0  0
    6.9648   -4.7826    0.0000 O   0  0  0  0  0  0  0  0  0  0  0  0
    9.8143   -8.0971    0.0000 O   0  0  0  0  0  0  0  0  0  0  0  0
    9.7975   -9.7470    0.0000 O   0  0  0  0  0  0  0  0  0  0  0  0
    8.3603  -10.5574    0.0000 O   0  0  0  0  0  0  0  0  0  0  0  0
    7.6584   -9.3128    0.0000 C   0  0  2  0  0  0  0  0  0  0  0  0
    8.3687   -9.7325    0.0000 C   0  0  2  0  0  0  0  0  0  0  0  0
    9.0873   -9.3273    0.0000 C   0  0  1  0  0  0  0  0  0  0  0  0
    9.0956   -8.5023    0.0000 C   0  0  2  0  0  0  0  0  0  0  0  0
    8.3854   -8.0826    0.0000 C   0  0  2  0  0  0  0  0  0  0  0  0
    7.6668   -8.4878    0.0000 O   0  0  0  0  0  0  0  0  0  0  0  0
    8.3938   -7.2576    0.0000 O   0  0  0  0  0  0  0  0  0  0  0  0
 38 40  1  6  0  0  0
 37 31  1  6  0  0  0
 36 32  1  1  0  0  0
 35 33  1  6  0  0  0
 34 17  1  1  0  0  0
 39 34  1  0  0  0  0
 35 34  1  0  0  0  0
 36 35  1  0  0  0  0
 37 36  1  0  0  0  0
 38 37  1  0  0  0  0
  1  2  1  0  0  0  0
  2  3  2  0  0  0  0
  3  4  1  0  0  0  0
  4  5  2  0  0  0  0
  5  6  1  0  0  0  0
  6  7  1  0  0  0  0
  7  8  1  0  0  0  0
  8  9  2  0  0  0  0
  9 10  1  0  0  0  0
 10 11  2  0  0  0  0
 11 12  1  0  0  0  0
  7 12  2  0  0  0  0
 12 13  1  0  0  0  0
 13 14  1  0  0  0  0
  5 14  1  0  0  0  0
  1 14  2  0  0  0  0
 13 15  2  0  0  0  0
  6 16  2  0  0  0  0
 39 38  1  0  0  0  0
 19 20  1  0  0  0  0
 20 21  1  0  0  0  0
 21 22  1  0  0  0  0
 22 23  1  0  0  0  0
 23 24  1  0  0  0  0
 19 24  1  0  0  0  0
 23 25  1  6  0  0  0
 22 26  1  1  0  0  0
 21 27  1  6  0  0  0
 20 18  1  1  0  0  0
 17 18  1  0  0  0  0
  3 40  1  0  0  0  0
 28 29  1  0  0  0  0
  2 28  1  0  0  0  0
  1 30  1  0  0  0  0
M  END
>  <cdx:fragmentId>
2589

$$$$
