148063.cdx
  Mrv1902 05222410222D          

 43 46  0  0  0  0            999 V2000
    7.3490  -10.8417    0.0000 C   0  0  0  0  0  0  0  0  0  0  0  0
    6.6385  -11.2611    0.0000 C   0  0  0  0  0  0  0  0  0  0  0  0
    5.9201  -10.8555    0.0000 C   0  0  0  0  0  0  0  0  0  0  0  0
    7.3410  -10.0167    0.0000 O   0  0  0  0  0  0  0  0  0  0  0  0
    8.0674  -11.2472    0.0000 O   0  0  0  0  0  0  0  0  0  0  0  0
    5.2097  -11.2749    0.0000 C   0  0  0  0  0  0  0  0  0  0  0  0
    4.4912  -10.8694    0.0000 C   0  0  0  0  0  0  0  0  0  0  0  0
    3.7808  -11.2888    0.0000 C   0  0  0  0  0  0  0  0  0  0  0  0
    3.7888  -12.1137    0.0000 C   0  0  0  0  0  0  0  0  0  0  0  0
    4.5072  -12.5193    0.0000 C   0  0  0  0  0  0  0  0  0  0  0  0
    5.2177  -12.0999    0.0000 C   0  0  0  0  0  0  0  0  0  0  0  0
    3.0624  -10.8832    0.0000 O   0  0  0  0  0  0  0  0  0  0  0  0
    2.3519  -11.3026    0.0000 C   0  0  0  0  0  0  0  0  0  0  0  0
    3.0783  -12.5331    0.0000 O   0  0  0  0  0  0  0  0  0  0  0  0
    8.7779  -10.8278    0.0000 C   0  0  0  0  0  0  0  0  0  0  0  0
    8.7818  -11.6459    0.0000 O   0  0  0  0  0  0  0  0  0  0  0  0
    9.8565  -12.6587    0.0000 O   0  0  0  0  0  0  0  0  0  0  0  0
   12.2032  -13.1997    0.0000 O   0  0  0  0  0  0  0  0  0  0  0  0
   13.6202  -14.0450    0.0000 O   0  0  0  0  0  0  0  0  0  0  0  0
   15.0608  -13.2404    0.0000 O   0  0  0  0  0  0  0  0  0  0  0  0
   19.3472  -13.3015    0.0000 O   0  0  0  0  0  0  0  0  0  0  0  0
   17.9419  -11.6313    0.0000 C   0  0  0  0  0  0  0  0  0  0  0  0
   18.6504  -12.0539    0.0000 C   0  0  0  0  0  0  0  0  0  0  0  0
   18.6387  -12.8788    0.0000 C   0  0  0  0  0  0  0  0  0  0  0  0
   17.9184  -13.2811    0.0000 C   0  0  0  0  0  0  0  0  0  0  0  0
   17.2099  -12.8585    0.0000 C   0  0  0  0  0  0  0  0  0  0  0  0
   17.2216  -12.0335    0.0000 C   0  0  0  0  0  0  0  0  0  0  0  0
   16.5131  -11.6109    0.0000 C   0  0  0  0  0  0  0  0  0  0  0  0
   15.7928  -12.0132    0.0000 C   0  0  0  0  0  0  0  0  0  0  0  0
   15.0843  -11.5906    0.0000 O   0  0  0  0  0  0  0  0  0  0  0  0
   14.3640  -11.9928    0.0000 C   0  0  1  0  0  0  0  0  0  0  0  0
   14.3523  -12.8178    0.0000 C   0  0  1  0  0  0  0  0  0  0  0  0
   13.6320  -13.2200    0.0000 C   0  0  2  0  0  0  0  0  0  0  0  0
   12.9235  -12.7974    0.0000 C   0  0  1  0  0  0  0  0  0  0  0  0
   12.9352  -11.9725    0.0000 C   0  0  2  0  0  0  0  0  0  0  0  0
   13.6555  -11.5702    0.0000 O   0  0  0  0  0  0  0  0  0  0  0  0
   12.2267  -11.5499    0.0000 C   0  0  0  0  0  0  0  0  0  0  0  0
   11.5064  -11.9521    0.0000 O   0  0  0  0  0  0  0  0  0  0  0  0
   10.7979  -11.5295    0.0000 C   0  0  1  0  0  0  0  0  0  0  0  0
   10.0395  -11.8543    0.0000 C   0  0  1  0  0  0  0  0  0  0  0  0
    9.4963  -11.2334    0.0000 C   0  0  2  0  0  0  0  0  0  0  0  0
    9.9189  -10.5249    0.0000 C   0  0  0  0  0  0  0  0  0  0  0  0
   10.7234  -10.7079    0.0000 O   0  0  0  0  0  0  0  0  0  0  0  0
 41 15  1  1  0  0  0
 41 16  1  6  0  0  0
 40 17  1  6  0  0  0
 39 38  1  1  0  0  0
 35 37  1  1  0  0  0
 34 18  1  6  0  0  0
 33 19  1  1  0  0  0
 32 20  1  6  0  0  0
 31 30  1  1  0  0  0
 28 27  1  0  0  0  0
 24 21  1  0  0  0  0
 27 22  2  0  0  0  0
 23 22  1  0  0  0  0
 24 23  2  0  0  0  0
 25 24  1  0  0  0  0
 26 25  2  0  0  0  0
 27 26  1  0  0  0  0
 30 29  1  0  0  0  0
 29 28  1  0  0  0  0
 36 31  1  0  0  0  0
 32 31  1  0  0  0  0
 33 32  1  0  0  0  0
 34 33  1  0  0  0  0
 35 34  1  0  0  0  0
 36 35  1  0  0  0  0
 38 37  1  0  0  0  0
 43 39  1  0  0  0  0
 40 39  1  0  0  0  0
 41 40  1  0  0  0  0
 42 41  1  0  0  0  0
 43 42  1  0  0  0  0
  1  2  1  0  0  0  0
  2  3  2  0  0  0  0
  1  4  2  0  0  0  0
  1  5  1  0  0  0  0
  6  7  1  0  0  0  0
  7  8  2  0  0  0  0
  8  9  1  0  0  0  0
  9 10  2  0  0  0  0
 10 11  1  0  0  0  0
  6 11  2  0  0  0  0
 12 13  1  0  0  0  0
  8 12  1  0  0  0  0
  9 14  1  0  0  0  0
  3  6  1  0  0  0  0
  5 15  1  0  0  0  0
M  END
>  <cdx:groupId>
20993

>  <cdx:fragmentId>
20926

$$$$
