14817.cdx
  Mrv1902 05222410212D          

 44 48  0  0  0  0            999 V2000
    8.5519   -7.7233    0.0000 C   0  0  0  0  0  0  0  0  0  0  0  0
    7.8375   -8.1358    0.0000 O   0  0  0  0  0  0  0  0  0  0  0  0
    9.2664  -10.6108    0.0000 O   0  0  0  0  0  0  0  0  0  0  0  0
    8.5795  -12.6922    0.0000 C   0  0  2  0  0  0  0  0  0  0  0  0
    9.2946  -13.1036    0.0000 C   0  0  2  0  0  0  0  0  0  0  0  0
   10.0084  -12.6899    0.0000 C   0  0  1  0  0  0  0  0  0  0  0  0
   10.0071  -11.8649    0.0000 C   0  0  2  0  0  0  0  0  0  0  0  0
    9.2920  -11.4536    0.0000 C   0  0  1  0  0  0  0  0  0  0  0  0
    8.5782  -11.8672    0.0000 O   0  0  0  0  0  0  0  0  0  0  0  0
    7.8657  -13.1059    0.0000 C   0  0  0  0  0  0  0  0  0  0  0  0
   10.7236  -13.1012    0.0000 O   0  0  0  0  0  0  0  0  0  0  0  0
   10.7209  -11.4512    0.0000 O   0  0  0  0  0  0  0  0  0  0  0  0
    9.2960  -13.9286    0.0000 O   0  0  0  0  0  0  0  0  0  0  0  0
    7.8670  -13.9309    0.0000 O   0  0  0  0  0  0  0  0  0  0  0  0
    4.2651   -6.8983    0.0000 C   0  0  2  0  0  0  0  0  0  0  0  0
    4.9796   -6.4858    0.0000 O   0  0  0  0  0  0  0  0  0  0  0  0
    4.9796   -5.6608    0.0000 C   0  0  1  0  0  0  0  0  0  0  0  0
    4.2651   -5.2483    0.0000 C   0  0  2  0  0  0  0  0  0  0  0  0
    3.5506   -5.6608    0.0000 C   0  0  1  0  0  0  0  0  0  0  0  0
    3.5506   -6.4858    0.0000 C   0  0  1  0  0  0  0  0  0  0  0  0
    5.6941   -5.2483    0.0000 C   0  0  0  0  0  0  0  0  0  0  0  0
    5.6941   -4.4233    0.0000 O   0  0  0  0  0  0  0  0  0  0  0  0
    2.8362   -5.2483    0.0000 O   0  0  0  0  0  0  0  0  0  0  0  0
    2.8362   -6.8983    0.0000 O   0  0  0  0  0  0  0  0  0  0  0  0
    4.2651   -4.4233    0.0000 O   0  0  0  0  0  0  0  0  0  0  0  0
    4.9796   -7.3108    0.0000 H   0  0  0  0  0  0  0  0  0  0  0  0
    2.8362   -7.7233    0.0000 O   0  0  0  0  0  0  0  0  0  0  0  0
    7.8375  -10.6108    0.0000 C   0  0  0  0  0  0  0  0  0  0  0  0
    8.5519  -10.1983    0.0000 C   0  0  0  0  0  0  0  0  0  0  0  0
    8.5519   -9.3733    0.0000 C   0  0  0  0  0  0  0  0  0  0  0  0
    7.8375   -8.9608    0.0000 C   0  0  0  0  0  0  0  0  0  0  0  0
    5.6941  -10.1983    0.0000 O   0  0  0  0  0  0  0  0  0  0  0  0
    7.1230  -10.1983    0.0000 C   0  0  0  0  0  0  0  0  0  0  0  0
    7.1230   -9.3733    0.0000 C   0  0  0  0  0  0  0  0  0  0  0  0
    5.6941   -9.3733    0.0000 C   0  0  0  0  0  0  0  0  0  0  0  0
    6.4085   -8.9608    0.0000 C   0  0  0  0  0  0  0  0  0  0  0  0
    6.4085   -8.1358    0.0000 C   0  0  0  0  0  0  0  0  0  0  0  0
    5.6941   -7.7233    0.0000 O   0  0  0  0  0  0  0  0  0  0  0  0
    4.2651   -9.3733    0.0000 C   0  0  0  0  0  0  0  0  0  0  0  0
    4.9796   -8.9608    0.0000 C   0  0  0  0  0  0  0  0  0  0  0  0
    4.9796   -8.1358    0.0000 C   0  0  0  0  0  0  0  0  0  0  0  0
    4.2651   -7.7233    0.0000 C   0  0  0  0  0  0  0  0  0  0  0  0
    3.5506   -8.1358    0.0000 C   0  0  0  0  0  0  0  0  0  0  0  0
    3.5506   -8.9608    0.0000 C   0  0  0  0  0  0  0  0  0  0  0  0
  2  1  1  0  0  0  0
 31  2  1  0  0  0  0
  4  5  1  0  0  0  0
  5  6  1  0  0  0  0
  6  7  1  0  0  0  0
  7  8  1  0  0  0  0
  8  9  1  0  0  0  0
  9  4  1  0  0  0  0
  4 10  1  1  0  0  0
  6 11  1  1  0  0  0
  7 12  1  6  0  0  0
  5 13  1  6  0  0  0
 10 14  1  0  0  0  0
 15 16  1  0  0  0  0
 16 17  1  0  0  0  0
 17 18  1  0  0  0  0
 18 19  1  0  0  0  0
 19 20  1  0  0  0  0
 20 15  1  0  0  0  0
 17 21  1  1  0  0  0
 21 22  1  0  0  0  0
 19 23  1  1  0  0  0
 20 24  1  6  0  0  0
 18 25  1  6  0  0  0
 42 15  1  0  0  0  0
 15 26  1  6  0  0  0
 43 27  1  0  0  0  0
 29  3  1  0  0  0  0
  8  3  1  1  0  0  0
 28 33  2  0  0  0  0
 29 28  1  0  0  0  0
 30 29  2  0  0  0  0
 31 30  1  0  0  0  0
 34 31  2  0  0  0  0
 32 35  2  0  0  0  0
 34 33  1  0  0  0  0
 36 34  1  0  0  0  0
 35 40  1  0  0  0  0
 36 35  1  0  0  0  0
 37 36  2  0  0  0  0
 38 37  1  0  0  0  0
 41 38  1  0  0  0  0
 39 44  2  0  0  0  0
 40 39  1  0  0  0  0
 41 40  2  0  0  0  0
 42 41  1  0  0  0  0
 43 42  2  0  0  0  0
 44 43  1  0  0  0  0
M  END
>  <cdx:fragmentId>
5

$$$$
