1481.cdx
  Mrv1902 05222410192D          

  9  8  0  0  0  0            999 V2000
    4.7517   -3.1933    0.0000 C   0  0  0  0  0  0  0  0  0  0  0  0
    5.4662   -3.6058    0.0000 C   0  0  0  0  0  0  0  0  0  0  0  0
    6.1806   -3.1933    0.0000 C   0  0  0  0  0  0  0  0  0  0  0  0
    6.8951   -3.6058    0.0000 C   0  0  0  0  0  0  0  0  0  0  0  0
    7.6096   -3.1933    0.0000 C   0  0  0  0  0  0  0  0  0  0  0  0
    8.3241   -3.6058    0.0000 C   0  0  0  0  0  0  0  0  0  0  0  0
    9.0385   -3.1933    0.0000 C   0  0  0  0  0  0  0  0  0  0  0  0
    9.7530   -3.6058    0.0000 C   0  0  0  0  0  0  0  0  0  0  0  0
    4.0372   -3.6058    0.0000 O   0  0  0  0  0  0  0  0  0  0  0  0
  1  2  1  0  0  0  0
  2  3  2  0  0  0  0
  3  4  1  0  0  0  0
  4  5  2  0  0  0  0
  5  6  1  0  0  0  0
  6  7  1  0  0  0  0
  7  8  1  0  0  0  0
  1  9  2  0  0  0  0
M  END
>  <cdx:fragmentId>
64

$$$$
