14819.cdx
  Mrv1902 05222410262D          

 53 58  0  0  0  0            999 V2000
    4.5371   -7.1809    0.0000 O   0  0  0  0  0  0  0  0  0  0  0  0
    4.5459   -8.8263    0.0000 O   0  0  0  0  0  0  0  0  0  0  0  0
    3.1186   -9.6541    0.0000 O   0  0  0  0  0  0  0  0  0  0  0  0
    1.6880   -8.8319    0.0000 O   0  0  0  0  0  0  0  0  0  0  0  0
    0.9711   -7.5958    0.0000 O   0  0  0  0  0  0  0  0  0  0  0  0
    1.6847   -7.1819    0.0000 C   0  0  0  0  0  0  0  0  0  0  0  0
    2.4000   -7.5930    0.0000 C   0  0  2  0  0  0  0  0  0  0  0  0
    2.4016   -8.4180    0.0000 C   0  0  2  0  0  0  0  0  0  0  0  0
    3.1169   -8.8291    0.0000 C   0  0  1  0  0  0  0  0  0  0  0  0
    3.8306   -8.4152    0.0000 C   0  0  2  0  0  0  0  0  0  0  0  0
    3.8290   -7.5902    0.0000 C   0  0  1  0  0  0  0  0  0  0  0  0
    3.1137   -7.1791    0.0000 O   0  0  0  0  0  0  0  0  0  0  0  0
    6.6825   -5.9469    0.0000 O   0  0  0  0  0  0  0  0  0  0  0  0
    5.9674   -6.3583    0.0000 C   0  0  2  0  0  0  0  0  0  0  0  0
    5.2536   -5.9446    0.0000 C   0  0  1  0  0  0  0  0  0  0  0  0
    5.2549   -5.1196    0.0000 C   0  0  2  0  0  0  0  0  0  0  0  0
    5.9701   -4.7083    0.0000 C   0  0  1  0  0  0  0  0  0  0  0  0
    6.6839   -5.1219    0.0000 C   0  0  1  0  0  0  0  0  0  0  0  0
    7.3990   -4.7106    0.0000 C   0  0  0  0  0  0  0  0  0  0  0  0
    8.1128   -5.1243    0.0000 O   0  0  0  0  0  0  0  0  0  0  0  0
    5.9714   -3.8833    0.0000 O   0  0  0  0  0  0  0  0  0  0  0  0
    4.5411   -4.7059    0.0000 O   0  0  0  0  0  0  0  0  0  0  0  0
    4.5384   -6.3559    0.0000 O   0  0  0  0  0  0  0  0  0  0  0  0
    6.6812   -6.7719    0.0000 H   0  0  0  0  0  0  0  0  0  0  0  0
   12.3906  -10.9056    0.0000 O   0  0  0  0  0  0  0  0  0  0  0  0
   12.3886  -12.5556    0.0000 O   0  0  0  0  0  0  0  0  0  0  0  0
   10.9587  -13.3789    0.0000 O   0  0  0  0  0  0  0  0  0  0  0  0
    9.5298  -13.3773    0.0000 O   0  0  0  0  0  0  0  0  0  0  0  0
    9.5307  -12.5523    0.0000 C   0  0  0  0  0  0  0  0  0  0  0  0
   10.2457  -12.1406    0.0000 C   0  0  2  0  0  0  0  0  0  0  0  0
   10.9597  -12.5539    0.0000 C   0  0  2  0  0  0  0  0  0  0  0  0
   11.6746  -12.1423    0.0000 C   0  0  1  0  0  0  0  0  0  0  0  0
   11.6756  -11.3173    0.0000 C   0  0  2  0  0  0  0  0  0  0  0  0
   10.9616  -10.9040    0.0000 C   0  0  1  0  0  0  0  0  0  0  0  0
   10.2467  -11.3156    0.0000 O   0  0  0  0  0  0  0  0  0  0  0  0
   10.9626  -10.0790    0.0000 O   0  0  0  0  0  0  0  0  0  0  0  0
    9.5363   -8.4266    0.0000 C   0  0  0  0  0  0  0  0  0  0  0  0
   10.2501   -8.8403    0.0000 C   0  0  0  0  0  0  0  0  0  0  0  0
   10.2488   -9.6653    0.0000 C   0  0  0  0  0  0  0  0  0  0  0  0
    9.5336  -10.0766    0.0000 C   0  0  0  0  0  0  0  0  0  0  0  0
    8.8198   -9.6629    0.0000 C   0  0  0  0  0  0  0  0  0  0  0  0
    8.8212   -8.8379    0.0000 C   0  0  0  0  0  0  0  0  0  0  0  0
    7.3909   -9.6606    0.0000 O   0  0  0  0  0  0  0  0  0  0  0  0
    7.3950   -7.1856    0.0000 O   0  0  0  0  0  0  0  0  0  0  0  0
    6.6798   -7.5969    0.0000 C   0  0  0  0  0  0  0  0  0  0  0  0
    5.9660   -7.1833    0.0000 C   0  0  0  0  0  0  0  0  0  0  0  0
    5.2509   -7.5946    0.0000 C   0  0  0  0  0  0  0  0  0  0  0  0
    5.2495   -8.4196    0.0000 C   0  0  0  0  0  0  0  0  0  0  0  0
    5.9633   -8.8333    0.0000 C   0  0  0  0  0  0  0  0  0  0  0  0
    6.6785   -8.4219    0.0000 C   0  0  0  0  0  0  0  0  0  0  0  0
    7.3923   -8.8356    0.0000 C   0  0  0  0  0  0  0  0  0  0  0  0
    8.1074   -8.4243    0.0000 C   0  0  0  0  0  0  0  0  0  0  0  0
    8.1088   -7.5993    0.0000 C   0  0  0  0  0  0  0  0  0  0  0  0
 10  2  1  6  0  0  0
  9  3  1  1  0  0  0
  8  4  1  6  0  0  0
  7  6  1  1  0  0  0
  6  5  1  0  0  0  0
 12  7  1  0  0  0  0
  8  7  1  0  0  0  0
  9  8  1  0  0  0  0
 10  9  1  0  0  0  0
 11 10  1  0  0  0  0
 12 11  1  0  0  0  0
 47  1  1  0  0  0  0
 14 46  1  0  0  0  0
 13 14  1  0  0  0  0
 14 15  1  0  0  0  0
 52 42  1  0  0  0  0
 39 36  1  0  0  0  0
 34 36  1  1  0  0  0
 33 25  1  6  0  0  0
 32 26  1  1  0  0  0
 31 27  1  6  0  0  0
 30 29  1  1  0  0  0
 29 28  1  0  0  0  0
 35 30  1  0  0  0  0
 31 30  1  0  0  0  0
 32 31  1  0  0  0  0
 33 32  1  0  0  0  0
 34 33  1  0  0  0  0
 35 34  1  0  0  0  0
 42 37  2  0  0  0  0
 38 37  1  0  0  0  0
 39 38  2  0  0  0  0
 40 39  1  0  0  0  0
 41 40  2  0  0  0  0
 42 41  1  0  0  0  0
 51 43  2  0  0  0  0
 53 44  1  0  0  0  0
 45 44  1  0  0  0  0
 50 45  2  0  0  0  0
 46 45  1  0  0  0  0
 47 46  2  0  0  0  0
 48 47  1  0  0  0  0
 49 48  2  0  0  0  0
 50 49  1  0  0  0  0
 51 50  1  0  0  0  0
 52 51  1  0  0  0  0
 53 52  2  0  0  0  0
 11  1  1  1  0  0  0
 15 16  1  0  0  0  0
 16 17  1  0  0  0  0
 17 18  1  0  0  0  0
 13 18  1  0  0  0  0
 19 20  1  0  0  0  0
 18 19  1  1  0  0  0
 17 21  1  6  0  0  0
 16 22  1  1  0  0  0
 15 23  1  6  0  0  0
 14 24  1  6  0  0  0
M  END
>  <cdx:fragmentId>
41

$$$$
