14810.cdx
  Mrv1902 05222410232D          

 61 65  0  0  0  0            999 V2000
    4.3890  -10.1532    0.0000 N   0  0  0  0  0  0  0  0  0  0  0  0
    4.8020  -10.8674    0.0000 C   0  0  0  0  0  0  0  0  0  0  0  0
    5.6270  -10.8668    0.0000 C   0  0  1  0  0  0  0  0  0  0  0  0
    6.0400  -11.5810    0.0000 N   0  0  0  0  0  0  0  0  0  0  0  0
    6.8650  -11.5804    0.0000 C   0  0  0  0  0  0  0  0  0  0  0  0
    7.2780  -12.2945    0.0000 C   0  0  1  0  0  0  0  0  0  0  0  0
    8.1030  -12.2939    0.0000 N   0  0  0  0  0  0  0  0  0  0  0  0
    8.5150  -11.5792    0.0000 C   0  0  0  0  0  0  0  0  0  0  0  0
    9.3400  -11.5786    0.0000 C   0  0  2  0  0  0  0  0  0  0  0  0
    9.8925  -12.1913    0.0000 C   0  0  0  0  0  0  0  0  0  0  0  0
   10.6459  -11.8552    0.0000 C   0  0  0  0  0  0  0  0  0  0  0  0
   10.5591  -11.0347    0.0000 C   0  0  0  0  0  0  0  0  0  0  0  0
    9.7520  -10.8638    0.0000 N   0  0  0  0  0  0  0  0  0  0  0  0
    9.3390  -10.1496    0.0000 C   0  0  0  0  0  0  0  0  0  0  0  0
    9.7509   -9.4349    0.0000 C   0  0  0  0  0  0  0  0  0  0  0  0
    9.3379   -8.7207    0.0000 N   0  0  0  0  0  0  0  0  0  0  0  0
    9.7499   -8.0059    0.0000 C   0  0  0  0  0  0  0  0  0  0  0  0
    9.3369   -7.2917    0.0000 C   0  0  1  0  0  0  0  0  0  0  0  0
    8.5119   -7.2923    0.0000 N   0  0  0  0  0  0  0  0  0  0  0  0
    8.0989   -6.5782    0.0000 C   0  0  0  0  0  0  0  0  0  0  0  0
    7.2739   -6.5788    0.0000 C   0  0  2  0  0  0  0  0  0  0  0  0
    6.8619   -7.2935    0.0000 N   0  0  0  0  0  0  0  0  0  0  0  0
    6.0369   -7.2941    0.0000 C   0  0  0  0  0  0  0  0  0  0  0  0
    5.6249   -8.0089    0.0000 C   0  0  1  0  0  0  0  0  0  0  0  0
    6.0379   -8.7231    0.0000 N   0  0  0  0  0  0  0  0  0  0  0  0
    5.6259   -9.4378    0.0000 C   0  0  0  0  0  0  0  0  0  0  0  0
    4.8009   -9.4384    0.0000 C   0  0  2  0  0  0  0  0  0  0  0  0
    4.2485   -8.8257    0.0000 C   0  0  0  0  0  0  0  0  0  0  0  0
    3.4950   -9.1618    0.0000 C   0  0  0  0  0  0  0  0  0  0  0  0
    3.5819   -9.9823    0.0000 C   0  0  0  0  0  0  0  0  0  0  0  0
    4.3900  -11.5821    0.0000 O   0  0  0  0  0  0  0  0  0  0  0  0
    7.2770  -10.8656    0.0000 O   0  0  0  0  0  0  0  0  0  0  0  0
    8.1020  -10.8650    0.0000 O   0  0  0  0  0  0  0  0  0  0  0  0
    8.5140  -10.1502    0.0000 O   0  0  0  0  0  0  0  0  0  0  0  0
   10.5749   -8.0053    0.0000 O   0  0  0  0  0  0  0  0  0  0  0  0
    8.5109   -5.8634    0.0000 O   0  0  0  0  0  0  0  0  0  0  0  0
    5.6239   -6.5800    0.0000 O   0  0  0  0  0  0  0  0  0  0  0  0
    6.3407   -9.8498    0.0000 O   0  0  0  0  0  0  0  0  0  0  0  0
    6.8660  -13.0093    0.0000 C   0  0  0  0  0  0  0  0  0  0  0  0
    7.2790  -13.7235    0.0000 C   0  0  0  0  0  0  0  0  0  0  0  0
    8.1040  -13.7229    0.0000 C   0  0  0  0  0  0  0  0  0  0  0  0
    6.8671  -14.4382    0.0000 C   0  0  0  0  0  0  0  0  0  0  0  0
    6.2586  -10.3360    0.0000 C   0  0  0  0  0  0  0  0  0  0  0  0
    6.8609   -5.8646    0.0000 C   0  0  0  0  0  0  0  0  0  0  0  0
    6.0359   -5.8652    0.0000 O   0  0  0  0  0  0  0  0  0  0  0  0
    4.7999   -8.0095    0.0000 C   0  0  0  0  0  0  0  0  0  0  0  0
    4.3869   -7.2953    0.0000 C   0  0  0  0  0  0  0  0  0  0  0  0
    3.5619   -7.2959    0.0000 C   0  0  0  0  0  0  0  0  0  0  0  0
    3.1489   -6.5818    0.0000 C   0  0  0  0  0  0  0  0  0  0  0  0
    3.5609   -5.8670    0.0000 C   0  0  0  0  0  0  0  0  0  0  0  0
    4.3859   -5.8664    0.0000 C   0  0  0  0  0  0  0  0  0  0  0  0
    4.7989   -6.5806    0.0000 C   0  0  0  0  0  0  0  0  0  0  0  0
    9.7489   -6.5770    0.0000 C   0  0  0  0  0  0  0  0  0  0  0  0
   10.5739   -6.5764    0.0000 C   0  0  0  0  0  0  0  0  0  0  0  0
   10.9859   -5.8616    0.0000 C   0  0  0  0  0  0  0  0  0  0  0  0
   11.8109   -5.8610    0.0000 C   0  0  0  0  0  0  0  0  0  0  0  0
   12.2239   -6.5752    0.0000 C   0  0  0  0  0  0  0  0  0  0  0  0
   11.8119   -7.2899    0.0000 C   0  0  0  0  0  0  0  0  0  0  0  0
   10.9869   -7.2905    0.0000 C   0  0  0  0  0  0  0  0  0  0  0  0
    9.0050  -12.3325    0.0000 H   0  0  0  0  0  0  0  0  0  0  0  0
    5.1360   -8.6845    0.0000 H   0  0  0  0  0  0  0  0  0  0  0  0
  1  2  1  0  0  0  0
  2  3  1  0  0  0  0
  3  4  1  0  0  0  0
  4  5  1  0  0  0  0
  5  6  1  0  0  0  0
  6  7  1  0  0  0  0
  7  8  1  0  0  0  0
  8  9  1  0  0  0  0
  9 10  1  0  0  0  0
 10 11  1  0  0  0  0
 11 12  1  0  0  0  0
 12 13  1  0  0  0  0
 13 14  1  0  0  0  0
 14 15  1  0  0  0  0
 15 16  1  0  0  0  0
 16 17  1  0  0  0  0
 17 18  1  0  0  0  0
 18 19  1  0  0  0  0
 19 20  1  0  0  0  0
 20 21  1  0  0  0  0
 21 22  1  0  0  0  0
 22 23  1  0  0  0  0
 23 24  1  0  0  0  0
 24 25  1  0  0  0  0
 25 26  1  0  0  0  0
 26 27  1  0  0  0  0
 27 28  1  0  0  0  0
 28 29  1  0  0  0  0
 29 30  1  0  0  0  0
  1 30  1  0  0  0  0
  1 27  1  0  0  0  0
  9 13  1  0  0  0  0
  2 31  2  0  0  0  0
  5 32  2  0  0  0  0
  8 33  2  0  0  0  0
 14 34  2  0  0  0  0
 17 35  2  0  0  0  0
 20 36  2  0  0  0  0
 23 37  2  0  0  0  0
 26 38  2  0  0  0  0
 39 40  1  0  0  0  0
 40 41  1  0  0  0  0
 40 42  1  0  0  0  0
  6 39  1  1  0  0  0
  3 43  1  6  0  0  0
 44 45  1  0  0  0  0
 21 44  1  6  0  0  0
 46 47  1  0  0  0  0
 47 48  1  0  0  0  0
 48 49  2  0  0  0  0
 49 50  1  0  0  0  0
 50 51  2  0  0  0  0
 51 52  1  0  0  0  0
 47 52  2  0  0  0  0
 24 46  1  1  0  0  0
 53 54  1  0  0  0  0
 54 55  1  0  0  0  0
 55 56  2  0  0  0  0
 56 57  1  0  0  0  0
 57 58  2  0  0  0  0
 58 59  1  0  0  0  0
 54 59  2  0  0  0  0
 18 53  1  1  0  0  0
  9 60  1  6  0  0  0
 27 61  1  6  0  0  0
M  END
>  <cdx:fragmentId>
311

$$$$
