14822.cdx
  Mrv1902 05222410242D          

 42 46  0  0  0  0            999 V2000
    6.1908   -5.9400    0.0000 C   0  0  0  0  0  0  0  0  0  0  0  0
    6.1908   -6.7650    0.0000 C   0  0  0  0  0  0  0  0  0  0  0  0
    6.9052   -7.1775    0.0000 C   0  0  0  0  0  0  0  0  0  0  0  0
    7.6197   -6.7650    0.0000 C   0  0  0  0  0  0  0  0  0  0  0  0
    7.6197   -5.9400    0.0000 C   0  0  0  0  0  0  0  0  0  0  0  0
    6.9052   -5.5275    0.0000 C   0  0  0  0  0  0  0  0  0  0  0  0
    8.3342   -7.1775    0.0000 O   0  0  0  0  0  0  0  0  0  0  0  0
    9.0487   -6.7650    0.0000 C   0  0  0  0  0  0  0  0  0  0  0  0
    9.0487   -5.9400    0.0000 C   0  0  0  0  0  0  0  0  0  0  0  0
    8.3342   -5.5275    0.0000 C   0  0  0  0  0  0  0  0  0  0  0  0
    9.7631   -5.5275    0.0000 C   0  0  0  0  0  0  0  0  0  0  0  0
    9.7631   -4.7025    0.0000 C   0  0  0  0  0  0  0  0  0  0  0  0
    8.3342   -4.7025    0.0000 O   0  0  0  0  0  0  0  0  0  0  0  0
   10.4776   -5.9400    0.0000 C   0  0  0  0  0  0  0  0  0  0  0  0
   11.1921   -5.5275    0.0000 C   0  0  0  0  0  0  0  0  0  0  0  0
   11.1921   -4.7025    0.0000 C   0  0  0  0  0  0  0  0  0  0  0  0
   10.4776   -4.2900    0.0000 C   0  0  0  0  0  0  0  0  0  0  0  0
   11.9065   -4.2900    0.0000 O   0  0  0  0  0  0  0  0  0  0  0  0
    5.4763   -7.1775    0.0000 O   0  0  0  0  0  0  0  0  0  0  0  0
    6.9052   -8.0025    0.0000 C   0  0  2  0  0  0  0  0  0  0  0  0
    6.1908   -8.4150    0.0000 O   0  0  0  0  0  0  0  0  0  0  0  0
    6.1908   -9.2400    0.0000 C   0  0  1  0  0  0  0  0  0  0  0  0
    6.9052   -9.6525    0.0000 C   0  0  2  0  0  0  0  0  0  0  0  0
    7.6197   -9.2400    0.0000 C   0  0  1  0  0  0  0  0  0  0  0  0
    7.6197   -8.4150    0.0000 C   0  0  1  0  0  0  0  0  0  0  0  0
    5.4763   -9.6525    0.0000 C   0  0  0  0  0  0  0  0  0  0  0  0
    5.4763  -10.4775    0.0000 O   0  0  0  0  0  0  0  0  0  0  0  0
    8.3342   -9.6525    0.0000 O   0  0  0  0  0  0  0  0  0  0  0  0
    8.3342   -8.0025    0.0000 O   0  0  0  0  0  0  0  0  0  0  0  0
    6.9052  -10.4775    0.0000 O   0  0  0  0  0  0  0  0  0  0  0  0
    6.1908   -7.5900    0.0000 H   0  0  0  0  0  0  0  0  0  0  0  0
    3.3445  -10.8900    0.0000 C   0  0  2  0  0  0  0  0  0  0  0  0
    3.3445  -11.7150    0.0000 C   0  0  2  0  0  0  0  0  0  0  0  0
    4.0590  -12.1275    0.0000 C   0  0  1  0  0  0  0  0  0  0  0  0
    4.7735  -11.7150    0.0000 C   0  0  2  0  0  0  0  0  0  0  0  0
    4.7735  -10.8900    0.0000 C   0  0  1  0  0  0  0  0  0  0  0  0
    4.0590  -10.4775    0.0000 O   0  0  0  0  0  0  0  0  0  0  0  0
    2.6301  -10.4775    0.0000 C   0  0  0  0  0  0  0  0  0  0  0  0
    4.0590  -12.9525    0.0000 O   0  0  0  0  0  0  0  0  0  0  0  0
    5.4879  -12.1275    0.0000 O   0  0  0  0  0  0  0  0  0  0  0  0
    2.6301  -12.1275    0.0000 O   0  0  0  0  0  0  0  0  0  0  0  0
    1.9156  -10.8900    0.0000 O   0  0  0  0  0  0  0  0  0  0  0  0
  1  2  1  0  0  0  0
  2  3  2  0  0  0  0
  3  4  1  0  0  0  0
  4  5  2  0  0  0  0
  5  6  1  0  0  0  0
  6  1  2  0  0  0  0
  4  7  1  0  0  0  0
  7  8  1  0  0  0  0
  8  9  2  0  0  0  0
  9 10  1  0  0  0  0
 10  5  1  0  0  0  0
  9 11  1  0  0  0  0
 11 12  1  0  0  0  0
 13 10  2  0  0  0  0
 11 14  2  0  0  0  0
 14 15  1  0  0  0  0
 15 16  2  0  0  0  0
 16 17  1  0  0  0  0
 17 12  2  0  0  0  0
 16 18  1  0  0  0  0
  2 19  1  0  0  0  0
  3 20  1  0  0  0  0
 20 21  1  0  0  0  0
 21 22  1  0  0  0  0
 22 23  1  0  0  0  0
 23 24  1  0  0  0  0
 24 25  1  0  0  0  0
 25 20  1  0  0  0  0
 22 26  1  1  0  0  0
 26 27  1  0  0  0  0
 24 28  1  1  0  0  0
 25 29  1  6  0  0  0
 23 30  1  6  0  0  0
 20 31  1  6  0  0  0
 32 33  1  0  0  0  0
 33 34  1  0  0  0  0
 34 35  1  0  0  0  0
 35 36  1  0  0  0  0
 36 37  1  0  0  0  0
 37 32  1  0  0  0  0
 32 38  1  1  0  0  0
 34 39  1  1  0  0  0
 35 40  1  6  0  0  0
 33 41  1  6  0  0  0
 38 42  1  0  0  0  0
 36 27  1  1  0  0  0
M  END
>  <cdx:fragmentId>
5

$$$$
