14825.cdx
  Mrv1902 05222410262D          

 43 47  0  0  0  0            999 V2000
    7.6039   -5.9403    0.0000 O   0  0  0  0  0  0  0  0  0  0  0  0
    8.4289   -5.9403    0.0000 C   0  0  0  0  0  0  0  0  0  0  0  0
    9.0122   -6.5236    0.0000 C   0  0  0  0  0  0  0  0  0  0  0  0
    9.0122   -7.3486    0.0000 C   0  0  0  0  0  0  0  0  0  0  0  0
    8.4289   -7.9320    0.0000 C   0  0  0  0  0  0  0  0  0  0  0  0
    7.6039   -7.9320    0.0000 C   0  0  0  0  0  0  0  0  0  0  0  0
    7.0205   -7.3486    0.0000 C   0  0  0  0  0  0  0  0  0  0  0  0
    7.0205   -6.5236    0.0000 C   0  0  0  0  0  0  0  0  0  0  0  0
    6.3060   -6.1111    0.0000 C   0  0  0  0  0  0  0  0  0  0  0  0
    5.5916   -6.5236    0.0000 C   0  0  0  0  0  0  0  0  0  0  0  0
    5.5916   -7.3486    0.0000 C   0  0  0  0  0  0  0  0  0  0  0  0
    6.3060   -7.7611    0.0000 C   0  0  0  0  0  0  0  0  0  0  0  0
    8.7446   -5.1781    0.0000 O   0  0  0  0  0  0  0  0  0  0  0  0
    8.7446   -8.6942    0.0000 O   0  0  0  0  0  0  0  0  0  0  0  0
    7.4244   -9.2410    0.0000 O   0  0  0  0  0  0  0  0  0  0  0  0
    8.2424   -9.3487    0.0000 C   0  0  2  0  0  0  0  0  0  0  0  0
    8.5581  -10.1109    0.0000 C   0  0  1  0  0  0  0  0  0  0  0  0
    8.0558  -10.7654    0.0000 C   0  0  2  0  0  0  0  0  0  0  0  0
    7.2379  -10.6577    0.0000 C   0  0  1  0  0  0  0  0  0  0  0  0
    6.9222   -9.8955    0.0000 C   0  0  1  0  0  0  0  0  0  0  0  0
    6.1043   -9.7879    0.0000 C   0  0  0  0  0  0  0  0  0  0  0  0
    5.6020  -10.4424    0.0000 O   0  0  0  0  0  0  0  0  0  0  0  0
    4.4684   -9.5725    0.0000 O   0  0  0  0  0  0  0  0  0  0  0  0
    4.7841  -10.3347    0.0000 C   0  0  2  0  0  0  0  0  0  0  0  0
    4.2819  -10.9892    0.0000 C   0  0  1  0  0  0  0  0  0  0  0  0
    3.4639  -10.8815    0.0000 C   0  0  1  0  0  0  0  0  0  0  0  0
    3.1482  -10.1193    0.0000 C   0  0  2  0  0  0  0  0  0  0  0  0
    3.6504   -9.4648    0.0000 C   0  0  2  0  0  0  0  0  0  0  0  0
    3.3347   -8.7026    0.0000 C   0  0  0  0  0  0  0  0  0  0  0  0
    2.3303  -10.0116    0.0000 O   0  0  0  0  0  0  0  0  0  0  0  0
    2.9617  -11.5360    0.0000 O   0  0  0  0  0  0  0  0  0  0  0  0
    4.5976  -11.7514    0.0000 O   0  0  0  0  0  0  0  0  0  0  0  0
    6.7357  -11.3123    0.0000 O   0  0  0  0  0  0  0  0  0  0  0  0
    8.3716  -11.5276    0.0000 O   0  0  0  0  0  0  0  0  0  0  0  0
    9.3760  -10.2186    0.0000 O   0  0  0  0  0  0  0  0  0  0  0  0
    9.7744   -7.6643    0.0000 C   0  0  0  0  0  0  0  0  0  0  0  0
   10.4290   -7.1621    0.0000 C   0  0  0  0  0  0  0  0  0  0  0  0
   11.1912   -7.4778    0.0000 C   0  0  0  0  0  0  0  0  0  0  0  0
   11.2988   -8.2958    0.0000 C   0  0  0  0  0  0  0  0  0  0  0  0
   10.6443   -8.7980    0.0000 C   0  0  0  0  0  0  0  0  0  0  0  0
    9.8821   -8.4823    0.0000 C   0  0  0  0  0  0  0  0  0  0  0  0
   12.0610   -8.6115    0.0000 O   0  0  0  0  0  0  0  0  0  0  0  0
    4.8771   -6.1111    0.0000 O   0  0  0  0  0  0  0  0  0  0  0  0
  1  2  1  0  0  0  0
  2  3  1  0  0  0  0
  3  4  2  0  0  0  0
  4  5  1  0  0  0  0
  5  6  1  0  0  0  0
  6  7  1  0  0  0  0
  7  8  1  0  0  0  0
  1  8  1  0  0  0  0
  9 10  1  0  0  0  0
 10 11  2  0  0  0  0
 11 12  1  0  0  0  0
 12  7  2  0  0  0  0
  9  8  2  0  0  0  0
  2 13  2  0  0  0  0
 15 16  1  0  0  0  0
 16 17  1  0  0  0  0
 17 18  1  0  0  0  0
 18 19  1  0  0  0  0
 19 20  1  0  0  0  0
 15 20  1  0  0  0  0
 23 24  1  0  0  0  0
 24 25  1  0  0  0  0
 25 26  1  0  0  0  0
 26 27  1  0  0  0  0
 27 28  1  0  0  0  0
 23 28  1  0  0  0  0
 28 29  1  6  0  0  0
 27 30  1  1  0  0  0
 26 31  1  6  0  0  0
 25 32  1  6  0  0  0
 24 22  1  1  0  0  0
 21 22  1  0  0  0  0
 20 21  1  1  0  0  0
 19 33  1  6  0  0  0
 18 34  1  1  0  0  0
 17 35  1  6  0  0  0
 16 14  1  1  0  0  0
  5 14  1  0  0  0  0
 36 37  1  0  0  0  0
 37 38  2  0  0  0  0
 38 39  1  0  0  0  0
 39 40  2  0  0  0  0
 40 41  1  0  0  0  0
 36 41  2  0  0  0  0
 39 42  1  0  0  0  0
  4 36  1  0  0  0  0
 10 43  1  0  0  0  0
M  END
>  <cdx:fragmentId>
49

$$$$
