14820.cdx
  Mrv1902 05222410232D          

 42 46  0  0  0  0            999 V2000
    2.9733   -7.9406    0.0000 C   0  0  0  0  0  0  0  0  0  0  0  0
    2.9733   -8.7656    0.0000 C   0  0  0  0  0  0  0  0  0  0  0  0
    3.6877   -9.1781    0.0000 C   0  0  0  0  0  0  0  0  0  0  0  0
    4.4022   -8.7656    0.0000 C   0  0  0  0  0  0  0  0  0  0  0  0
    4.4022   -7.9406    0.0000 C   0  0  0  0  0  0  0  0  0  0  0  0
    3.6877   -7.5281    0.0000 C   0  0  0  0  0  0  0  0  0  0  0  0
    5.1167   -9.1781    0.0000 O   0  0  0  0  0  0  0  0  0  0  0  0
    5.8312   -8.7656    0.0000 C   0  0  0  0  0  0  0  0  0  0  0  0
    5.8312   -7.9406    0.0000 C   0  0  0  0  0  0  0  0  0  0  0  0
    5.1167   -7.5281    0.0000 C   0  0  0  0  0  0  0  0  0  0  0  0
    6.5456   -7.5281    0.0000 C   0  0  0  0  0  0  0  0  0  0  0  0
    6.5456   -6.7031    0.0000 C   0  0  0  0  0  0  0  0  0  0  0  0
    5.1167   -6.7031    0.0000 O   0  0  0  0  0  0  0  0  0  0  0  0
    7.2601   -7.9406    0.0000 C   0  0  0  0  0  0  0  0  0  0  0  0
    7.9746   -7.5281    0.0000 C   0  0  0  0  0  0  0  0  0  0  0  0
    7.9746   -6.7031    0.0000 C   0  0  0  0  0  0  0  0  0  0  0  0
    7.2601   -6.2906    0.0000 C   0  0  0  0  0  0  0  0  0  0  0  0
    8.6890   -6.2906    0.0000 O   0  0  0  0  0  0  0  0  0  0  0  0
    2.2588   -9.1781    0.0000 O   0  0  0  0  0  0  0  0  0  0  0  0
    3.6877  -10.0031    0.0000 C   0  0  2  0  0  0  0  0  0  0  0  0
    2.9733  -10.4156    0.0000 O   0  0  0  0  0  0  0  0  0  0  0  0
    2.9733  -11.2406    0.0000 C   0  0  1  0  0  0  0  0  0  0  0  0
    3.6877  -11.6531    0.0000 C   0  0  2  0  0  0  0  0  0  0  0  0
    4.4022  -11.2406    0.0000 C   0  0  1  0  0  0  0  0  0  0  0  0
    4.4022  -10.4156    0.0000 C   0  0  1  0  0  0  0  0  0  0  0  0
    2.2588  -11.6531    0.0000 C   0  0  0  0  0  0  0  0  0  0  0  0
    2.2588  -12.4781    0.0000 O   0  0  0  0  0  0  0  0  0  0  0  0
    5.1167  -11.6531    0.0000 O   0  0  0  0  0  0  0  0  0  0  0  0
    5.1167  -10.0031    0.0000 O   0  0  0  0  0  0  0  0  0  0  0  0
    3.6877  -12.4781    0.0000 O   0  0  0  0  0  0  0  0  0  0  0  0
    2.9733   -9.5906    0.0000 H   0  0  0  0  0  0  0  0  0  0  0  0
   10.1481   -7.9262    0.0000 C   0  0  2  0  0  0  0  0  0  0  0  0
   10.8619   -7.5125    0.0000 C   0  0  2  0  0  0  0  0  0  0  0  0
   10.8606   -6.6876    0.0000 C   0  0  1  0  0  0  0  0  0  0  0  0
   10.1455   -6.2762    0.0000 C   0  0  2  0  0  0  0  0  0  0  0  0
    9.4317   -6.6899    0.0000 C   0  0  1  0  0  0  0  0  0  0  0  0
    9.4330   -7.5149    0.0000 O   0  0  0  0  0  0  0  0  0  0  0  0
   10.1495   -8.7512    0.0000 C   0  0  0  0  0  0  0  0  0  0  0  0
   11.5744   -6.2739    0.0000 O   0  0  0  0  0  0  0  0  0  0  0  0
   10.1441   -5.4512    0.0000 O   0  0  0  0  0  0  0  0  0  0  0  0
   11.5771   -7.9239    0.0000 O   0  0  0  0  0  0  0  0  0  0  0  0
   10.8646   -9.1625    0.0000 O   0  0  0  0  0  0  0  0  0  0  0  0
  1  2  1  0  0  0  0
  2  3  2  0  0  0  0
  3  4  1  0  0  0  0
  4  5  2  0  0  0  0
  5  6  1  0  0  0  0
  6  1  2  0  0  0  0
  4  7  1  0  0  0  0
  7  8  1  0  0  0  0
  8  9  2  0  0  0  0
  9 10  1  0  0  0  0
 10  5  1  0  0  0  0
  9 11  1  0  0  0  0
 11 12  1  0  0  0  0
 13 10  2  0  0  0  0
 11 14  2  0  0  0  0
 14 15  1  0  0  0  0
 15 16  2  0  0  0  0
 16 17  1  0  0  0  0
 17 12  2  0  0  0  0
 16 18  1  0  0  0  0
  2 19  1  0  0  0  0
  3 20  1  0  0  0  0
 20 21  1  0  0  0  0
 21 22  1  0  0  0  0
 22 23  1  0  0  0  0
 23 24  1  0  0  0  0
 24 25  1  0  0  0  0
 25 20  1  0  0  0  0
 22 26  1  1  0  0  0
 26 27  1  0  0  0  0
 24 28  1  1  0  0  0
 25 29  1  6  0  0  0
 23 30  1  6  0  0  0
 20 31  1  6  0  0  0
 32 33  1  0  0  0  0
 33 34  1  0  0  0  0
 34 35  1  0  0  0  0
 35 36  1  0  0  0  0
 36 37  1  0  0  0  0
 37 32  1  0  0  0  0
 32 38  1  1  0  0  0
 34 39  1  1  0  0  0
 35 40  1  6  0  0  0
 33 41  1  6  0  0  0
 38 42  1  0  0  0  0
 36 18  1  1  0  0  0
M  END
>  <cdx:fragmentId>
5

$$$$
