148262.cdx
  Mrv1902 05222410232D          

 26 30  0  0  0  0            999 V2000
    7.9108   -8.5048    0.0000 C   0  0  0  0  0  0  0  0  0  0  0  0
    8.6252   -8.0923    0.0000 C   0  0  0  0  0  0  0  0  0  0  0  0
    8.6252   -7.2673    0.0000 C   0  0  0  0  0  0  0  0  0  0  0  0
    9.3397   -6.8548    0.0000 C   0  0  0  0  0  0  0  0  0  0  0  0
    9.5112   -6.0478    0.0000 O   0  0  0  0  0  0  0  0  0  0  0  0
   10.3317   -5.9616    0.0000 C   0  0  0  0  0  0  0  0  0  0  0  0
   10.6673   -6.7152    0.0000 O   0  0  0  0  0  0  0  0  0  0  0  0
   10.0542   -7.2673    0.0000 C   0  0  0  0  0  0  0  0  0  0  0  0
   10.0542   -8.0923    0.0000 C   0  0  0  0  0  0  0  0  0  0  0  0
    9.3397   -8.5048    0.0000 C   0  0  0  0  0  0  0  0  0  0  0  0
    9.3397   -9.3298    0.0000 C   0  0  0  0  0  0  0  0  0  0  0  0
    8.6252   -9.7423    0.0000 C   0  0  0  0  0  0  0  0  0  0  0  0
    7.9108   -9.3298    0.0000 N   0  3  0  0  0  0  0  0  0  0  0  0
    7.1963   -9.7423    0.0000 C   0  0  0  0  0  0  0  0  0  0  0  0
    6.4818   -9.3298    0.0000 C   0  0  0  0  0  0  0  0  0  0  0  0
    5.7674   -9.7423    0.0000 C   0  0  0  0  0  0  0  0  0  0  0  0
    5.0529   -9.3298    0.0000 C   0  0  0  0  0  0  0  0  0  0  0  0
    5.0529   -8.5048    0.0000 C   0  0  0  0  0  0  0  0  0  0  0  0
    5.7674   -8.0923    0.0000 C   0  0  0  0  0  0  0  0  0  0  0  0
    6.4818   -8.5048    0.0000 C   0  0  0  0  0  0  0  0  0  0  0  0
    7.1963   -8.0923    0.0000 C   0  0  0  0  0  0  0  0  0  0  0  0
    7.1963   -7.2673    0.0000 C   0  0  0  0  0  0  0  0  0  0  0  0
    4.3384   -9.7423    0.0000 O   0  0  0  0  0  0  0  0  0  0  0  0
    3.6239   -9.3298    0.0000 C   0  0  0  0  0  0  0  0  0  0  0  0
    5.7674  -10.5673    0.0000 O   0  0  0  0  0  0  0  0  0  0  0  0
    5.0529  -10.9798    0.0000 C   0  0  0  0  0  0  0  0  0  0  0  0
  1  2  1  0  0  0  0
  2  3  2  0  0  0  0
  3  4  1  0  0  0  0
  4  5  1  0  0  0  0
  5  6  1  0  0  0  0
  6  7  1  0  0  0  0
  7  8  1  0  0  0  0
  8  9  1  0  0  0  0
  9 10  2  0  0  0  0
 10 11  1  0  0  0  0
 11 12  1  0  0  0  0
 12 13  1  0  0  0  0
 13 14  1  0  0  0  0
 14 15  2  0  0  0  0
 15 16  1  0  0  0  0
 16 17  2  0  0  0  0
 17 18  1  0  0  0  0
 18 19  2  0  0  0  0
 19 20  1  0  0  0  0
 20 21  2  0  0  0  0
  1 21  1  0  0  0  0
  1 13  2  0  0  0  0
 15 20  1  0  0  0  0
  2 10  1  0  0  0  0
  4  8  2  0  0  0  0
 21 22  1  0  0  0  0
 23 24  1  0  0  0  0
 17 23  1  0  0  0  0
 25 26  1  0  0  0  0
 16 25  1  0  0  0  0
M  CHG  1  13   1
M  END
>  <cdx:fragmentId>
5

$$$$
