14826.cdx
  Mrv1902 05222410252D          

 45 49  0  0  0  0            999 V2000
    8.5094   -9.4811    0.0000 O   0  0  0  0  0  0  0  0  0  0  0  0
    7.8525   -8.9820    0.0000 C   0  0  0  0  0  0  0  0  0  0  0  0
    7.1748   -9.4524    0.0000 C   0  0  0  0  0  0  0  0  0  0  0  0
    7.4128  -10.2423    0.0000 C   0  0  0  0  0  0  0  0  0  0  0  0
    8.2376  -10.2601    0.0000 C   0  0  0  0  0  0  0  0  0  0  0  0
    8.7081  -10.9378    0.0000 O   0  0  0  0  0  0  0  0  0  0  0  0
    7.8703   -8.1571    0.0000 C   0  0  0  0  0  0  0  0  0  0  0  0
    8.5935   -7.7601    0.0000 C   0  0  0  0  0  0  0  0  0  0  0  0
    9.2989   -8.1879    0.0000 C   0  0  0  0  0  0  0  0  0  0  0  0
   10.0221   -7.7909    0.0000 C   0  0  0  0  0  0  0  0  0  0  0  0
   10.0398   -6.9660    0.0000 C   0  0  0  0  0  0  0  0  0  0  0  0
    9.3344   -6.5383    0.0000 C   0  0  0  0  0  0  0  0  0  0  0  0
    8.6112   -6.9353    0.0000 C   0  0  0  0  0  0  0  0  0  0  0  0
    6.3959   -9.1806    0.0000 C   0  0  0  0  0  0  0  0  0  0  0  0
    5.7710   -9.7194    0.0000 C   0  0  0  0  0  0  0  0  0  0  0  0
    4.9921   -9.4476    0.0000 C   0  0  0  0  0  0  0  0  0  0  0  0
    4.8379   -8.6371    0.0000 C   0  0  0  0  0  0  0  0  0  0  0  0
    5.4628   -8.0984    0.0000 C   0  0  0  0  0  0  0  0  0  0  0  0
    6.2417   -8.3702    0.0000 C   0  0  0  0  0  0  0  0  0  0  0  0
    5.9252  -10.5298    0.0000 O   0  0  0  0  0  0  0  0  0  0  0  0
    4.5214  -10.7968    0.0000 O   0  0  0  0  0  0  0  0  0  0  0  0
    5.3003  -11.0686    0.0000 C   0  0  2  0  0  0  0  0  0  0  0  0
    5.4545  -11.8790    0.0000 C   0  0  1  0  0  0  0  0  0  0  0  0
    4.8296  -12.4177    0.0000 C   0  0  2  0  0  0  0  0  0  0  0  0
    4.0507  -12.1460    0.0000 C   0  0  1  0  0  0  0  0  0  0  0  0
    3.8965  -11.3355    0.0000 C   0  0  1  0  0  0  0  0  0  0  0  0
    3.1176  -11.0638    0.0000 C   0  0  0  0  0  0  0  0  0  0  0  0
    2.4928  -11.6025    0.0000 O   0  0  0  0  0  0  0  0  0  0  0  0
    3.4258  -12.6847    0.0000 O   0  0  0  0  0  0  0  0  0  0  0  0
    4.9838  -13.2282    0.0000 O   0  0  0  0  0  0  0  0  0  0  0  0
    6.2334  -12.1508    0.0000 O   0  0  0  0  0  0  0  0  0  0  0  0
    4.0590   -8.3654    0.0000 O   0  0  0  0  0  0  0  0  0  0  0  0
    3.4342   -8.9041    0.0000 C   0  0  0  0  0  0  0  0  0  0  0  0
    9.3093   -5.7885    0.0000 O   0  0  0  0  0  0  0  0  0  0  0  0
    9.2584   -4.1393    0.0000 O   0  0  0  0  0  0  0  0  0  0  0  0
   10.6612   -3.2706    0.0000 O   0  0  0  0  0  0  0  0  0  0  0  0
   12.0895   -3.2265    0.0000 O   0  0  0  0  0  0  0  0  0  0  0  0
   12.1149   -4.0511    0.0000 C   0  0  0  0  0  0  0  0  0  0  0  0
   11.4135   -4.4855    0.0000 C   0  0  2  0  0  0  0  0  0  0  0  0
   10.6867   -4.0952    0.0000 C   0  0  2  0  0  0  0  0  0  0  0  0
    9.9853   -4.5295    0.0000 C   0  0  1  0  0  0  0  0  0  0  0  0
   10.0107   -5.3541    0.0000 C   0  0  2  0  0  0  0  0  0  0  0  0
   10.7376   -5.7444    0.0000 C   0  0  1  0  0  0  0  0  0  0  0  0
   11.4390   -5.3101    0.0000 O   0  0  0  0  0  0  0  0  0  0  0  0
   10.7630   -6.5690    0.0000 O   0  0  0  0  0  0  0  0  0  0  0  0
 43 45  1  1  0  0  0
 42 34  1  6  0  0  0
 41 35  1  1  0  0  0
 40 36  1  6  0  0  0
 39 38  1  1  0  0  0
 38 37  1  0  0  0  0
 44 39  1  0  0  0  0
 40 39  1  0  0  0  0
 41 40  1  0  0  0  0
 42 41  1  0  0  0  0
 43 42  1  0  0  0  0
 44 43  1  0  0  0  0
  1  2  1  0  0  0  0
  2  3  1  0  0  0  0
  3  4  2  0  0  0  0
  4  5  1  0  0  0  0
  1  5  1  0  0  0  0
  5  6  2  0  0  0  0
  8  9  1  0  0  0  0
  9 10  2  0  0  0  0
 10 11  1  0  0  0  0
 11 12  2  0  0  0  0
 12 13  1  0  0  0  0
  8 13  2  0  0  0  0
 11 45  1  0  0  0  0
  7  8  1  0  0  0  0
  2  7  1  0  0  0  0
 14 15  1  0  0  0  0
 15 16  2  0  0  0  0
 16 17  1  0  0  0  0
 17 18  2  0  0  0  0
 18 19  1  0  0  0  0
 14 19  2  0  0  0  0
 21 22  1  0  0  0  0
 22 23  1  0  0  0  0
 23 24  1  0  0  0  0
 24 25  1  0  0  0  0
 25 26  1  0  0  0  0
 21 26  1  0  0  0  0
 27 28  1  0  0  0  0
 26 27  1  1  0  0  0
 25 29  1  6  0  0  0
 24 30  1  1  0  0  0
 23 31  1  6  0  0  0
 22 20  1  1  0  0  0
 15 20  1  0  0  0  0
 32 33  1  0  0  0  0
 17 32  1  0  0  0  0
  3 14  1  0  0  0  0
M  END
>  <cdx:fragmentId>
33

$$$$
