14867.cdx
  Mrv1902 05222410202D          

 29 31  0  0  0  0            999 V2000
    6.1421   -6.0661    0.0000 C   0  0  0  0  0  0  0  0  0  0  0  0
    6.1421   -5.2411    0.0000 C   0  0  0  0  0  0  0  0  0  0  0  0
    5.4276   -6.4786    0.0000 O   0  0  0  0  0  0  0  0  0  0  0  0
    6.8566   -6.4786    0.0000 O   0  0  0  0  0  0  0  0  0  0  0  0
    6.1421   -8.5411    0.0000 C   0  0  0  0  0  0  0  0  0  0  0  0
    6.1421   -7.7161    0.0000 C   0  0  2  0  0  0  0  0  0  0  0  0
    6.8566   -7.3036    0.0000 C   0  0  2  0  0  0  0  0  0  0  0  0
    7.5710   -7.7161    0.0000 C   0  0  0  0  0  0  0  0  0  0  0  0
    8.2855   -7.3036    0.0000 C   0  0  0  0  0  0  0  0  0  0  0  0
    9.0000   -7.7161    0.0000 C   0  0  0  0  0  0  0  0  0  0  0  0
    9.0000   -8.5411    0.0000 C   0  0  0  0  0  0  0  0  0  0  0  0
    8.2855   -8.9536    0.0000 C   0  0  0  0  0  0  0  0  0  0  0  0
    7.5710   -8.5411    0.0000 C   0  0  0  0  0  0  0  0  0  0  0  0
    6.8566   -8.9536    0.0000 O   0  0  0  0  0  0  0  0  0  0  0  0
    9.7145   -7.3036    0.0000 C   0  0  0  0  0  0  0  0  0  0  0  0
    9.7145   -6.4786    0.0000 C   0  0  0  0  0  0  0  0  0  0  0  0
    9.0000   -6.0661    0.0000 C   0  0  0  0  0  0  0  0  0  0  0  0
    8.2855   -6.4786    0.0000 O   0  0  0  0  0  0  0  0  0  0  0  0
    9.0000   -5.2411    0.0000 O   0  0  0  0  0  0  0  0  0  0  0  0
    5.7296   -9.2555    0.0000 C   0  0  0  0  0  0  0  0  0  0  0  0
    5.3171   -8.5411    0.0000 C   0  0  0  0  0  0  0  0  0  0  0  0
    5.4276   -7.3036    0.0000 O   0  0  0  0  0  0  0  0  0  0  0  0
    5.4276   -4.8286    0.0000 C   0  0  0  0  0  0  0  0  0  0  0  0
    4.7132   -7.7161    0.0000 C   0  0  0  0  0  0  0  0  0  0  0  0
    3.9987   -7.3036    0.0000 C   0  0  0  0  0  0  0  0  0  0  0  0
    4.7132   -8.5411    0.0000 O   0  0  0  0  0  0  0  0  0  0  0  0
    3.2842   -7.7161    0.0000 C   0  0  0  0  0  0  0  0  0  0  0  0
    3.9987   -6.4786    0.0000 C   0  0  0  0  0  0  0  0  0  0  0  0
    3.2842   -8.5411    0.0000 C   0  0  0  0  0  0  0  0  0  0  0  0
  1  2  1  0  0  0  0
  1  3  2  0  0  0  0
  1  4  1  0  0  0  0
  5  6  1  0  0  0  0
  6  7  1  0  0  0  0
  7  8  1  0  0  0  0
  8  9  1  0  0  0  0
  9 10  2  0  0  0  0
 10 11  1  0  0  0  0
 11 12  2  0  0  0  0
 12 13  1  0  0  0  0
  8 13  2  0  0  0  0
 13 14  1  0  0  0  0
  5 14  1  0  0  0  0
 15 16  2  0  0  0  0
 16 17  1  0  0  0  0
 17 18  1  0  0  0  0
 18  9  1  0  0  0  0
 15 10  1  0  0  0  0
 17 19  2  0  0  0  0
  5 20  1  0  0  0  0
  5 21  1  0  0  0  0
  6 22  1  1  0  0  0
  7  4  1  1  0  0  0
  2 23  1  0  0  0  0
 22 24  1  0  0  0  0
 24 25  1  0  0  0  0
 24 26  2  0  0  0  0
 25 27  2  0  0  0  0
 25 28  1  0  0  0  0
 27 29  1  0  0  0  0
M  END
>  <cdx:fragmentId>
19

$$$$
