14862.cdx
  Mrv1902 05222410182D          

 11 10  0  0  0  0            999 V2000
    8.1718   -4.3439    0.0000 C   0  0  0  0  0  0  0  0  0  0  0  0
    7.4574   -3.9314    0.0000 C   0  0  0  0  0  0  0  0  0  0  0  0
    6.7429   -4.3439    0.0000 C   0  0  0  0  0  0  0  0  0  0  0  0
    6.0284   -3.9314    0.0000 C   0  0  0  0  0  0  0  0  0  0  0  0
    5.3140   -4.3439    0.0000 C   0  0  0  0  0  0  0  0  0  0  0  0
    4.5995   -3.9314    0.0000 C   0  0  0  0  0  0  0  0  0  0  0  0
    3.8850   -4.3439    0.0000 C   0  0  0  0  0  0  0  0  0  0  0  0
    3.1705   -3.9314    0.0000 C   0  0  0  0  0  0  0  0  0  0  0  0
    2.4561   -4.3439    0.0000 C   0  0  0  0  0  0  0  0  0  0  0  0
    8.8863   -3.9314    0.0000 O   0  0  0  0  0  0  0  0  0  0  0  0
    3.1705   -3.1064    0.0000 C   0  0  0  0  0  0  0  0  0  0  0  0
  1  2  1  0  0  0  0
  2  3  1  0  0  0  0
  3  4  1  0  0  0  0
  4  5  1  0  0  0  0
  5  6  1  0  0  0  0
  6  7  1  0  0  0  0
  7  8  1  0  0  0  0
  8  9  1  0  0  0  0
  1 10  2  0  0  0  0
  8 11  1  0  0  0  0
M  END
>  <cdx:groupId>
34

>  <cdx:fragmentId>
5

$$$$
