1486.cdx
  Mrv1902 05222410182D          

 13 13  0  0  0  0            999 V2000
    6.2195   -2.5858    0.0000 C   0  0  0  0  0  0  0  0  0  0  0  0
    5.5050   -2.9983    0.0000 C   0  0  0  0  0  0  0  0  0  0  0  0
    6.2195   -1.7608    0.0000 O   0  0  0  0  0  0  0  0  0  0  0  0
    6.9339   -2.9983    0.0000 O   0  0  0  0  0  0  0  0  0  0  0  0
    4.7905   -2.5858    0.0000 O   0  0  0  0  0  0  0  0  0  0  0  0
    4.0761   -2.9983    0.0000 C   0  0  0  0  0  0  0  0  0  0  0  0
    4.0761   -3.8233    0.0000 C   0  0  0  0  0  0  0  0  0  0  0  0
    3.3616   -4.2358    0.0000 C   0  0  0  0  0  0  0  0  0  0  0  0
    2.6471   -3.8233    0.0000 C   0  0  0  0  0  0  0  0  0  0  0  0
    2.6471   -2.9983    0.0000 C   0  0  0  0  0  0  0  0  0  0  0  0
    3.3616   -2.5858    0.0000 C   0  0  0  0  0  0  0  0  0  0  0  0
    1.9326   -4.2358    0.0000 Cl  0  0  0  0  0  0  0  0  0  0  0  0
    4.7905   -4.2358    0.0000 Cl  0  0  0  0  0  0  0  0  0  0  0  0
  1  2  1  0  0  0  0
  1  3  2  0  0  0  0
  1  4  1  0  0  0  0
  6  7  1  0  0  0  0
  7  8  2  0  0  0  0
  8  9  1  0  0  0  0
  9 10  2  0  0  0  0
 10 11  1  0  0  0  0
  6 11  2  0  0  0  0
  5  6  1  0  0  0  0
  9 12  1  0  0  0  0
  7 13  1  0  0  0  0
  2  5  1  0  0  0  0
M  END
>  <cdx:groupId>
41

>  <cdx:fragmentId>
15

$$$$
