14863.cdx
  Mrv1902 05222410182D          

 25 27  0  0  0  0            999 V2000
    6.3184   -5.0747    0.0000 C   0  0  0  0  0  0  0  0  0  0  0  0
    5.6033   -6.3118    0.0000 O   0  0  0  0  0  0  0  0  0  0  0  0
    6.3180   -5.8997    0.0000 C   0  0  0  0  0  0  0  0  0  0  0  0
    5.4917   -8.3743    0.0000 C   0  0  0  0  0  0  0  0  0  0  0  0
    5.9039   -9.0890    0.0000 C   0  0  0  0  0  0  0  0  0  0  0  0
    9.1763   -5.0762    0.0000 O   0  0  0  0  0  0  0  0  0  0  0  0
    4.1740   -7.1361    0.0000 C   0  0  0  0  0  0  0  0  0  0  0  0
    4.8882   -7.5490    0.0000 C   0  0  0  0  0  0  0  0  0  0  0  0
    4.8878   -8.3740    0.0000 O   0  0  0  0  0  0  0  0  0  0  0  0
    7.0323   -6.3126    0.0000 O   0  0  0  0  0  0  0  0  0  0  0  0
    5.6029   -7.1368    0.0000 O   0  0  0  0  0  0  0  0  0  0  0  0
    7.0318   -7.1376    0.0000 C   0  0  2  0  0  0  0  0  0  0  0  0
    6.3172   -7.5497    0.0000 C   0  0  1  0  0  0  0  0  0  0  0  0
    6.3167   -8.3747    0.0000 C   0  0  0  0  0  0  0  0  0  0  0  0
    7.0310   -8.7876    0.0000 O   0  0  0  0  0  0  0  0  0  0  0  0
    9.8897   -7.1391    0.0000 C   0  0  0  0  0  0  0  0  0  0  0  0
    9.8902   -6.3141    0.0000 C   0  0  0  0  0  0  0  0  0  0  0  0
    9.1759   -5.9012    0.0000 C   0  0  0  0  0  0  0  0  0  0  0  0
    8.4612   -6.3133    0.0000 O   0  0  0  0  0  0  0  0  0  0  0  0
    9.1746   -8.3762    0.0000 C   0  0  0  0  0  0  0  0  0  0  0  0
    9.1750   -7.5512    0.0000 C   0  0  0  0  0  0  0  0  0  0  0  0
    8.4608   -7.1383    0.0000 C   0  0  0  0  0  0  0  0  0  0  0  0
    7.7461   -7.5504    0.0000 C   0  0  0  0  0  0  0  0  0  0  0  0
    7.7457   -8.3754    0.0000 C   0  0  0  0  0  0  0  0  0  0  0  0
    8.4599   -8.7883    0.0000 C   0  0  0  0  0  0  0  0  0  0  0  0
  3  1  1  0  0  0  0
  3  2  2  0  0  0  0
 10  3  1  0  0  0  0
 14  4  1  0  0  0  0
 14  5  1  0  0  0  0
 18  6  2  0  0  0  0
  7  8  1  0  0  0  0
  8 11  1  0  0  0  0
  9  8  2  0  0  0  0
 12 10  1  1  0  0  0
 13 11  1  1  0  0  0
 12 23  1  0  0  0  0
 13 12  1  0  0  0  0
 14 13  1  0  0  0  0
 15 14  1  0  0  0  0
 24 15  1  0  0  0  0
 16 21  1  0  0  0  0
 17 16  2  0  0  0  0
 18 17  1  0  0  0  0
 19 18  1  0  0  0  0
 22 19  1  0  0  0  0
 20 25  1  0  0  0  0
 21 20  2  0  0  0  0
 22 21  1  0  0  0  0
 23 22  2  0  0  0  0
 24 23  1  0  0  0  0
 25 24  2  0  0  0  0
M  END
>  <cdx:fragmentId>
5

$$$$
