148657.cdx
  Mrv1902 05222410232D          

 20 23  0  0  0  0            999 V2000
    7.0264   -9.0237    0.0000 C   0  0  0  0  0  0  0  0  0  0  0  0
    7.0276   -9.8487    0.0000 C   0  0  0  0  0  0  0  0  0  0  0  0
    6.3137  -10.2622    0.0000 C   0  0  0  0  0  0  0  0  0  0  0  0
    6.3148  -11.0872    0.0000 C   0  0  0  0  0  0  0  0  0  0  0  0
    7.0299  -11.4987    0.0000 C   0  0  0  0  0  0  0  0  0  0  0  0
    7.7438  -11.0852    0.0000 C   0  0  0  0  0  0  0  0  0  0  0  0
    7.7426  -10.2602    0.0000 C   0  0  0  0  0  0  0  0  0  0  0  0
    8.4565   -9.8467    0.0000 C   0  0  0  0  0  0  0  0  0  0  0  0
    8.4553   -9.0217    0.0000 C   0  0  0  0  0  0  0  0  0  0  0  0
    8.9681   -8.3743    0.0000 N   0  0  0  0  0  0  0  0  0  0  0  0
    8.5546   -7.6604    0.0000 C   0  0  0  0  0  0  0  0  0  0  0  0
    7.7392   -7.7852    0.0000 C   0  0  0  0  0  0  0  0  0  0  0  0
    7.0241   -7.3737    0.0000 C   0  0  0  0  0  0  0  0  0  0  0  0
    6.3102   -7.7872    0.0000 C   0  0  0  0  0  0  0  0  0  0  0  0
    6.3114   -8.6122    0.0000 C   0  0  0  0  0  0  0  0  0  0  0  0
    7.7403   -8.6102    0.0000 C   0  0  0  0  0  0  0  0  0  0  0  0
    8.9661   -6.9453    0.0000 O   0  0  0  0  0  0  0  0  0  0  0  0
    5.5975   -9.0257    0.0000 O   0  0  0  0  0  0  0  0  0  0  0  0
    5.5986   -9.8507    0.0000 C   0  0  0  0  0  0  0  0  0  0  0  0
    5.5952   -7.3757    0.0000 O   0  0  0  0  0  0  0  0  0  0  0  0
  1  2  1  0  0  0  0
  2  3  2  0  0  0  0
  3  4  1  0  0  0  0
  4  5  2  0  0  0  0
  5  6  1  0  0  0  0
  6  7  2  0  0  0  0
  7  8  1  0  0  0  0
  8  9  2  0  0  0  0
  9 10  1  0  0  0  0
 10 11  1  0  0  0  0
 11 12  1  0  0  0  0
 12 13  2  0  0  0  0
 13 14  1  0  0  0  0
 14 15  2  0  0  0  0
  1 15  1  0  0  0  0
  1 16  2  0  0  0  0
 16  9  1  0  0  0  0
  2  7  1  0  0  0  0
 12 16  1  0  0  0  0
 11 17  2  0  0  0  0
 18 19  1  0  0  0  0
 15 18  1  0  0  0  0
 14 20  1  0  0  0  0
M  END
>  <cdx:fragmentId>
5

$$$$
