14887.cdx
  Mrv1902 05222410272D          

 44 48  0  0  0  0            999 V2000
    5.9550   -8.0848    0.0000 C   0  0  0  0  0  0  0  0  0  0  0  0
    6.6659   -8.5035    0.0000 C   0  0  0  0  0  0  0  0  0  0  0  0
    7.3839   -8.0971    0.0000 C   0  0  0  0  0  0  0  0  0  0  0  0
    7.3910   -7.2721    0.0000 C   0  0  0  0  0  0  0  0  0  0  0  0
    6.6801   -6.8535    0.0000 C   0  0  0  0  0  0  0  0  0  0  0  0
    5.9621   -7.2599    0.0000 C   0  0  0  0  0  0  0  0  0  0  0  0
    8.0948   -8.5157    0.0000 C   0  0  0  0  0  0  0  0  0  0  0  0
    8.8128   -8.1094    0.0000 C   0  0  0  0  0  0  0  0  0  0  0  0
    8.8199   -7.2844    0.0000 C   0  0  0  0  0  0  0  0  0  0  0  0
    8.1090   -6.8658    0.0000 O   0  0  0  0  0  0  0  0  0  0  0  0
    9.5379   -6.8781    0.0000 C   0  0  0  0  0  0  0  0  0  0  0  0
    9.5449   -6.0531    0.0000 C   0  0  0  0  0  0  0  0  0  0  0  0
   10.2488   -7.2967    0.0000 C   0  0  0  0  0  0  0  0  0  0  0  0
   10.9667   -6.8903    0.0000 C   0  0  0  0  0  0  0  0  0  0  0  0
   10.9738   -6.0654    0.0000 C   0  0  0  0  0  0  0  0  0  0  0  0
   10.2629   -5.6467    0.0000 C   0  0  0  0  0  0  0  0  0  0  0  0
    5.2512   -6.8412    0.0000 O   0  0  0  0  0  0  0  0  0  0  0  0
    6.6588   -9.3284    0.0000 O   0  0  0  0  0  0  0  0  0  0  0  0
    8.0877   -9.3407    0.0000 O   0  0  0  0  0  0  0  0  0  0  0  0
    9.5237   -8.5280    0.0000 O   0  0  0  0  0  0  0  0  0  0  0  0
   10.2700   -4.8218    0.0000 O   0  0  0  0  0  0  0  0  0  0  0  0
   11.6918   -5.6590    0.0000 O   0  0  0  0  0  0  0  0  0  0  0  0
    9.5166   -9.3530    0.0000 C   0  0  2  0  0  0  0  0  0  0  0  0
    4.5332   -7.2476    0.0000 C   0  0  2  0  0  0  0  0  0  0  0  0
    3.8223   -6.8290    0.0000 O   0  0  0  0  0  0  0  0  0  0  0  0
    3.1043   -7.2353    0.0000 C   0  0  1  0  0  0  0  0  0  0  0  0
    3.0972   -8.0603    0.0000 C   0  0  2  0  0  0  0  0  0  0  0  0
    3.8081   -8.4789    0.0000 C   0  0  1  0  0  0  0  0  0  0  0  0
    4.5261   -8.0726    0.0000 C   0  0  1  0  0  0  0  0  0  0  0  0
    8.7986   -9.7593    0.0000 O   0  0  0  0  0  0  0  0  0  0  0  0
    8.7915  -10.5843    0.0000 C   0  0  1  0  0  0  0  0  0  0  0  0
    9.5024  -11.0029    0.0000 C   0  0  2  0  0  0  0  0  0  0  0  0
   10.2204  -10.5966    0.0000 C   0  0  1  0  0  0  0  0  0  0  0  0
   10.2275   -9.7716    0.0000 C   0  0  1  0  0  0  0  0  0  0  0  0
    2.3934   -6.8167    0.0000 C   0  0  0  0  0  0  0  0  0  0  0  0
    1.6789   -7.2292    0.0000 O   0  0  0  0  0  0  0  0  0  0  0  0
    8.0735  -10.9906    0.0000 C   0  0  0  0  0  0  0  0  0  0  0  0
    8.0665  -11.8156    0.0000 O   0  0  0  0  0  0  0  0  0  0  0  0
    3.8010   -9.3039    0.0000 O   0  0  0  0  0  0  0  0  0  0  0  0
   10.9313  -11.0152    0.0000 O   0  0  0  0  0  0  0  0  0  0  0  0
    5.2370   -8.4912    0.0000 O   0  0  0  0  0  0  0  0  0  0  0  0
    2.3792   -8.4666    0.0000 O   0  0  0  0  0  0  0  0  0  0  0  0
   10.9455   -9.3652    0.0000 O   0  0  0  0  0  0  0  0  0  0  0  0
    9.4953  -11.8279    0.0000 O   0  0  0  0  0  0  0  0  0  0  0  0
  1  2  1  0  0  0  0
  2  3  2  0  0  0  0
  3  4  1  0  0  0  0
  4  5  2  0  0  0  0
  5  6  1  0  0  0  0
  6  1  2  0  0  0  0
  3  7  1  0  0  0  0
  7  8  1  0  0  0  0
  8  9  2  0  0  0  0
  9 10  1  0  0  0  0
 10  4  1  0  0  0  0
  9 11  1  0  0  0  0
 11 12  2  0  0  0  0
 11 13  1  0  0  0  0
 13 14  2  0  0  0  0
 14 15  1  0  0  0  0
 15 16  2  0  0  0  0
 16 12  1  0  0  0  0
  6 17  1  0  0  0  0
  2 18  1  0  0  0  0
  7 19  2  0  0  0  0
  8 20  1  0  0  0  0
 16 21  1  0  0  0  0
 15 22  1  0  0  0  0
 23 20  1  1  0  0  0
 24 17  1  1  0  0  0
 24 25  1  0  0  0  0
 25 26  1  0  0  0  0
 26 27  1  0  0  0  0
 27 28  1  0  0  0  0
 28 29  1  0  0  0  0
 29 24  1  0  0  0  0
 23 30  1  0  0  0  0
 30 31  1  0  0  0  0
 31 32  1  0  0  0  0
 32 33  1  0  0  0  0
 33 34  1  0  0  0  0
 34 23  1  0  0  0  0
 26 35  1  1  0  0  0
 35 36  1  0  0  0  0
 31 37  1  1  0  0  0
 37 38  1  0  0  0  0
 28 39  1  1  0  0  0
 33 40  1  1  0  0  0
 29 41  1  6  0  0  0
 27 42  1  6  0  0  0
 34 43  1  6  0  0  0
 32 44  1  6  0  0  0
M  END
>  <cdx:fragmentId>
5

$$$$
