14880.cdx
  Mrv1902 05222410262D          

 34 37  0  0  0  0            999 V2000
    5.1595   -8.6419    0.0000 C   0  0  0  0  0  0  0  0  0  0  0  0
    5.1595   -9.4669    0.0000 C   0  0  0  0  0  0  0  0  0  0  0  0
    5.8740   -9.8794    0.0000 C   0  0  0  0  0  0  0  0  0  0  0  0
    6.5885   -9.4669    0.0000 C   0  0  0  0  0  0  0  0  0  0  0  0
    6.5885   -8.6419    0.0000 C   0  0  0  0  0  0  0  0  0  0  0  0
    5.8740   -8.2294    0.0000 C   0  0  0  0  0  0  0  0  0  0  0  0
    7.3029   -9.8794    0.0000 C   0  0  0  0  0  0  0  0  0  0  0  0
    8.0174   -9.4669    0.0000 C   0  0  0  0  0  0  0  0  0  0  0  0
    8.0174   -8.6419    0.0000 C   0  0  0  0  0  0  0  0  0  0  0  0
    7.3029   -8.2294    0.0000 O   0  0  0  0  0  0  0  0  0  0  0  0
    8.7319   -8.2294    0.0000 C   0  0  0  0  0  0  0  0  0  0  0  0
    8.7319   -7.4044    0.0000 C   0  0  0  0  0  0  0  0  0  0  0  0
    9.4464   -8.6419    0.0000 C   0  0  0  0  0  0  0  0  0  0  0  0
   10.1608   -8.2294    0.0000 C   0  0  0  0  0  0  0  0  0  0  0  0
   10.1608   -7.4044    0.0000 C   0  0  0  0  0  0  0  0  0  0  0  0
    9.4464   -6.9919    0.0000 C   0  0  0  0  0  0  0  0  0  0  0  0
    5.8740  -10.7044    0.0000 O   0  0  0  0  0  0  0  0  0  0  0  0
    7.3029  -10.7044    0.0000 O   0  0  0  0  0  0  0  0  0  0  0  0
   10.8753   -6.9919    0.0000 O   0  0  0  0  0  0  0  0  0  0  0  0
    4.4451   -8.2294    0.0000 O   0  0  0  0  0  0  0  0  0  0  0  0
    4.4465   -7.4044    0.0000 C   0  0  2  0  0  0  0  0  0  0  0  0
    5.1617   -6.9932    0.0000 O   0  0  0  0  0  0  0  0  0  0  0  0
    5.1632   -6.1682    0.0000 C   0  0  1  0  0  0  0  0  0  0  0  0
    4.4495   -5.7544    0.0000 C   0  0  2  0  0  0  0  0  0  0  0  0
    3.7343   -6.1656    0.0000 C   0  0  1  0  0  0  0  0  0  0  0  0
    3.7328   -6.9906    0.0000 C   0  0  1  0  0  0  0  0  0  0  0  0
    5.8784   -5.7569    0.0000 C   0  0  0  0  0  0  0  0  0  0  0  0
    3.0205   -5.7518    0.0000 O   0  0  0  0  0  0  0  0  0  0  0  0
    3.0176   -7.4018    0.0000 O   0  0  0  0  0  0  0  0  0  0  0  0
    4.4510   -4.9294    0.0000 O   0  0  0  0  0  0  0  0  0  0  0  0
    5.8799   -4.9319    0.0000 O   0  0  0  0  0  0  0  0  0  0  0  0
    4.4451   -9.8794    0.0000 O   0  0  0  0  0  0  0  0  0  0  0  0
   10.8753   -8.6419    0.0000 O   0  0  0  0  0  0  0  0  0  0  0  0
    8.7319   -9.8794    0.0000 O   0  0  0  0  0  0  0  0  0  0  0  0
  1  2  2  0  0  0  0
  2  3  1  0  0  0  0
  3  4  2  0  0  0  0
  4  5  1  0  0  0  0
  5  6  2  0  0  0  0
  6  1  1  0  0  0  0
  4  7  1  0  0  0  0
  7  8  1  0  0  0  0
  8  9  2  0  0  0  0
  9 10  1  0  0  0  0
 10  5  1  0  0  0  0
  9 11  1  0  0  0  0
 11 12  1  0  0  0  0
 11 13  2  0  0  0  0
 13 14  1  0  0  0  0
 14 15  2  0  0  0  0
 15 16  1  0  0  0  0
 16 12  2  0  0  0  0
  3 17  1  0  0  0  0
  7 18  2  0  0  0  0
 15 19  1  0  0  0  0
  1 20  1  0  0  0  0
 21 20  1  1  0  0  0
 21 22  1  0  0  0  0
 22 23  1  0  0  0  0
 23 24  1  0  0  0  0
 24 25  1  0  0  0  0
 25 26  1  0  0  0  0
 26 21  1  0  0  0  0
 23 27  1  1  0  0  0
 25 28  1  1  0  0  0
 26 29  1  6  0  0  0
 24 30  1  6  0  0  0
 27 31  1  0  0  0  0
  2 32  1  0  0  0  0
 14 33  1  0  0  0  0
  8 34  1  0  0  0  0
M  END
>  <cdx:fragmentId>
5

$$$$
