14892.cdx
  Mrv1902 05222410272D          

 44 48  0  0  0  0            999 V2000
    4.7831   -7.7676    0.0000 C   0  0  0  0  0  0  0  0  0  0  0  0
    4.7831   -8.5926    0.0000 C   0  0  0  0  0  0  0  0  0  0  0  0
    5.4975   -9.0051    0.0000 C   0  0  0  0  0  0  0  0  0  0  0  0
    6.2120   -8.5926    0.0000 C   0  0  0  0  0  0  0  0  0  0  0  0
    6.2120   -7.7676    0.0000 C   0  0  0  0  0  0  0  0  0  0  0  0
    5.4975   -7.3551    0.0000 C   0  0  0  0  0  0  0  0  0  0  0  0
    6.9265   -9.0051    0.0000 C   0  0  0  0  0  0  0  0  0  0  0  0
    7.6409   -8.5926    0.0000 C   0  0  0  0  0  0  0  0  0  0  0  0
    7.6409   -7.7676    0.0000 C   0  0  0  0  0  0  0  0  0  0  0  0
    6.9265   -7.3551    0.0000 O   0  0  0  0  0  0  0  0  0  0  0  0
    8.3554   -9.0051    0.0000 O   0  0  0  0  0  0  0  0  0  0  0  0
    9.0699   -7.7676    0.0000 C   0  0  0  0  0  0  0  0  0  0  0  0
    8.3554   -7.3551    0.0000 C   0  0  0  0  0  0  0  0  0  0  0  0
    9.7844   -7.3551    0.0000 C   0  0  0  0  0  0  0  0  0  0  0  0
    9.7844   -6.5301    0.0000 C   0  0  0  0  0  0  0  0  0  0  0  0
    9.0699   -6.1176    0.0000 C   0  0  0  0  0  0  0  0  0  0  0  0
    8.3554   -6.5301    0.0000 C   0  0  0  0  0  0  0  0  0  0  0  0
    4.0686   -7.3551    0.0000 O   0  0  0  0  0  0  0  0  0  0  0  0
    5.4975   -9.8301    0.0000 O   0  0  0  0  0  0  0  0  0  0  0  0
    6.9265   -9.8301    0.0000 O   0  0  0  0  0  0  0  0  0  0  0  0
   10.4988   -6.1176    0.0000 O   0  0  0  0  0  0  0  0  0  0  0  0
    9.0699   -5.2926    0.0000 O   0  0  0  0  0  0  0  0  0  0  0  0
    7.6507  -11.0714    0.0000 C   0  0  2  0  0  0  0  0  0  0  0  0
    8.3656  -11.4830    0.0000 C   0  0  1  0  0  0  0  0  0  0  0  0
    9.0796  -11.0696    0.0000 C   0  0  1  0  0  0  0  0  0  0  0  0
    9.0786  -10.2446    0.0000 C   0  0  2  0  0  0  0  0  0  0  0  0
    8.3636   -9.8330    0.0000 C   0  0  1  0  0  0  0  0  0  0  0  0
    7.6497  -10.2464    0.0000 O   0  0  0  0  0  0  0  0  0  0  0  0
    9.7946  -11.4813    0.0000 O   0  0  0  0  0  0  0  0  0  0  0  0
    8.3666  -12.3080    0.0000 O   0  0  0  0  0  0  0  0  0  0  0  0
    6.9367  -11.4847    0.0000 C   0  0  0  0  0  0  0  0  0  0  0  0
    9.7926   -9.8313    0.0000 O   0  0  0  0  0  0  0  0  0  0  0  0
    6.9377  -12.3097    0.0000 O   0  0  0  0  0  0  0  0  0  0  0  0
    6.2237  -12.7231    0.0000 C   0  0  0  0  0  0  0  0  0  0  0  0
    6.2247  -13.5481    0.0000 C   0  0  0  0  0  0  0  0  0  0  0  0
    5.5108  -13.9615    0.0000 C   0  0  0  0  0  0  0  0  0  0  0  0
    5.5088  -12.3115    0.0000 O   0  0  0  0  0  0  0  0  0  0  0  0
    5.5118  -14.7865    0.0000 C   0  0  0  0  0  0  0  0  0  0  0  0
    4.7970  -15.1985    0.0000 C   0  0  0  0  0  0  0  0  0  0  0  0
    4.7970  -16.0235    0.0000 C   0  0  0  0  0  0  0  0  0  0  0  0
    5.5118  -16.4365    0.0000 C   0  0  0  0  0  0  0  0  0  0  0  0
    6.2265  -16.0235    0.0000 C   0  0  0  0  0  0  0  0  0  0  0  0
    6.2265  -15.1985    0.0000 C   0  0  0  0  0  0  0  0  0  0  0  0
    5.5118  -17.2615    0.0000 O   0  0  0  0  0  0  0  0  0  0  0  0
  1  2  1  0  0  0  0
  2  3  2  0  0  0  0
  3  4  1  0  0  0  0
  4  5  2  0  0  0  0
  5  6  1  0  0  0  0
  6  1  2  0  0  0  0
  4  7  1  0  0  0  0
  7  8  1  0  0  0  0
  8  9  2  0  0  0  0
  9 10  1  0  0  0  0
 10  5  1  0  0  0  0
  8 11  1  0  0  0  0
 12 13  2  0  0  0  0
 13  9  1  0  0  0  0
 12 14  1  0  0  0  0
 14 15  2  0  0  0  0
 15 16  1  0  0  0  0
 16 17  2  0  0  0  0
 17 13  1  0  0  0  0
  1 18  1  0  0  0  0
  3 19  1  0  0  0  0
  7 20  2  0  0  0  0
 15 21  1  0  0  0  0
 16 22  1  0  0  0  0
 23 24  1  0  0  0  0
 24 25  1  0  0  0  0
 25 26  1  0  0  0  0
 26 27  1  0  0  0  0
 27 28  1  0  0  0  0
 28 23  1  0  0  0  0
 25 29  1  1  0  0  0
 24 30  1  1  0  0  0
 23 31  1  1  0  0  0
 26 32  1  6  0  0  0
 31 33  1  0  0  0  0
 27 11  1  1  0  0  0
 33 34  1  0  0  0  0
 34 35  1  0  0  0  0
 35 36  2  0  0  0  0
 34 37  2  0  0  0  0
 36 38  1  0  0  0  0
 38 39  2  0  0  0  0
 39 40  1  0  0  0  0
 40 41  2  0  0  0  0
 41 42  1  0  0  0  0
 42 43  2  0  0  0  0
 43 38  1  0  0  0  0
 41 44  1  0  0  0  0
M  END
>  <cdx:fragmentId>
5

$$$$
