14899.cdx
  Mrv1902 05222410202D          

 43 47  0  0  0  0            999 V2000
    7.0480   -9.5700    0.0000 O   0  0  0  0  0  0  0  0  0  0  0  0
    6.2234   -9.5930    0.0000 C   0  0  2  0  0  0  0  0  0  0  0  0
    8.4770  -10.3950    0.0000 O   0  0  0  0  0  0  0  0  0  0  0  0
    5.7911   -8.8904    0.0000 C   0  0  2  0  0  0  0  0  0  0  0  0
    4.9664   -8.9134    0.0000 C   0  0  1  0  0  0  0  0  0  0  0  0
    4.5740   -9.6391    0.0000 O   0  0  0  0  0  0  0  0  0  0  0  0
    9.9059   -9.5700    0.0000 O   0  0  0  0  0  0  0  0  0  0  0  0
    9.9059   -7.9200    0.0000 O   0  0  0  0  0  0  0  0  0  0  0  0
    5.0063  -10.3418    0.0000 C   0  0  1  0  0  0  0  0  0  0  0  0
    5.8310  -10.3188    0.0000 C   0  0  2  0  0  0  0  0  0  0  0  0
    4.6139  -11.0675    0.0000 C   0  0  0  0  0  0  0  0  0  0  0  0
    5.0462  -11.7702    0.0000 O   0  0  0  0  0  0  0  0  0  0  0  0
    6.2633  -11.0214    0.0000 O   0  0  0  0  0  0  0  0  0  0  0  0
    4.5341   -8.2108    0.0000 C   0  0  0  0  0  0  0  0  0  0  0  0
    6.1834   -8.1647    0.0000 O   0  0  0  0  0  0  0  0  0  0  0  0
    4.1902   -5.4450    0.0000 O   0  0  0  0  0  0  0  0  0  0  0  0
    5.6191   -7.9200    0.0000 O   0  0  0  0  0  0  0  0  0  0  0  0
    9.1915   -3.3825    0.0000 O   0  0  0  0  0  0  0  0  0  0  0  0
   10.6204   -4.2075    0.0000 O   0  0  0  0  0  0  0  0  0  0  0  0
    7.7625   -9.1575    0.0000 C   0  0  1  0  0  0  0  0  0  0  0  0
    8.4770   -9.5700    0.0000 C   0  0  1  0  0  0  0  0  0  0  0  0
    9.1915   -9.1575    0.0000 C   0  0  2  0  0  0  0  0  0  0  0  0
    9.1915   -8.3325    0.0000 C   0  0  2  0  0  0  0  0  0  0  0  0
    7.0480   -7.9200    0.0000 O   0  0  0  0  0  0  0  0  0  0  0  0
    7.7625   -8.3325    0.0000 O   0  0  0  0  0  0  0  0  0  0  0  0
    8.4770   -7.9200    0.0000 C   0  0  1  0  0  0  0  0  0  0  0  0
    8.4770   -7.0950    0.0000 O   0  0  0  0  0  0  0  0  0  0  0  0
    5.6191   -5.4450    0.0000 C   0  0  0  0  0  0  0  0  0  0  0  0
    4.9046   -5.8575    0.0000 C   0  0  0  0  0  0  0  0  0  0  0  0
    4.9046   -6.6825    0.0000 C   0  0  0  0  0  0  0  0  0  0  0  0
    5.6191   -7.0950    0.0000 C   0  0  0  0  0  0  0  0  0  0  0  0
    6.3336   -5.8575    0.0000 C   0  0  0  0  0  0  0  0  0  0  0  0
    6.3336   -6.6825    0.0000 C   0  0  0  0  0  0  0  0  0  0  0  0
    7.0480   -7.0950    0.0000 C   0  0  0  0  0  0  0  0  0  0  0  0
    7.7625   -6.6825    0.0000 C   0  0  0  0  0  0  0  0  0  0  0  0
    7.0480   -5.4450    0.0000 O   0  0  0  0  0  0  0  0  0  0  0  0
    7.7625   -5.8575    0.0000 C   0  0  0  0  0  0  0  0  0  0  0  0
    9.1915   -4.2075    0.0000 C   0  0  0  0  0  0  0  0  0  0  0  0
    8.4770   -4.6200    0.0000 C   0  0  0  0  0  0  0  0  0  0  0  0
    8.4770   -5.4450    0.0000 C   0  0  0  0  0  0  0  0  0  0  0  0
    9.1915   -5.8575    0.0000 C   0  0  0  0  0  0  0  0  0  0  0  0
    9.9059   -5.4450    0.0000 C   0  0  0  0  0  0  0  0  0  0  0  0
    9.9059   -4.6200    0.0000 C   0  0  0  0  0  0  0  0  0  0  0  0
 21  3  1  1  0  0  0
  2  1  1  1  0  0  0
 22  7  1  6  0  0  0
 23  8  1  6  0  0  0
  2  4  1  0  0  0  0
  4  5  1  0  0  0  0
  5  6  1  0  0  0  0
  6  9  1  0  0  0  0
  9 10  1  0  0  0  0
 10  2  1  0  0  0  0
  9 11  1  1  0  0  0
 11 12  1  0  0  0  0
 10 13  1  1  0  0  0
  5 14  1  1  0  0  0
 20  1  1  6  0  0  0
  4 15  1  6  0  0  0
 29 16  1  0  0  0  0
 31 17  1  0  0  0  0
 38 18  1  0  0  0  0
 43 19  1  0  0  0  0
 20 25  1  0  0  0  0
 21 20  1  0  0  0  0
 22 21  1  0  0  0  0
 23 22  1  0  0  0  0
 26 23  1  0  0  0  0
 24 34  2  0  0  0  0
 26 25  1  0  0  0  0
 26 27  1  1  0  0  0
 35 27  1  0  0  0  0
 28 32  2  0  0  0  0
 29 28  1  0  0  0  0
 30 29  2  0  0  0  0
 31 30  1  0  0  0  0
 33 31  2  0  0  0  0
 32 36  1  0  0  0  0
 33 32  1  0  0  0  0
 34 33  1  0  0  0  0
 35 34  1  0  0  0  0
 37 35  2  0  0  0  0
 37 36  1  0  0  0  0
 40 37  1  0  0  0  0
 38 43  2  0  0  0  0
 39 38  1  0  0  0  0
 40 39  2  0  0  0  0
 41 40  1  0  0  0  0
 42 41  2  0  0  0  0
 43 42  1  0  0  0  0
M  END
>  <cdx:fragmentId>
5

$$$$
