14900.cdx
  Mrv1902 05222410192D          

 23 22  0  0  0  0            999 V2000
   11.2112   -3.5139    0.0000 C   0  0  0  0  0  0  0  0  0  0  0  0
   10.4967   -3.9264    0.0000 C   0  0  0  0  0  0  0  0  0  0  0  0
    9.7822   -3.5139    0.0000 C   0  0  0  0  0  0  0  0  0  0  0  0
    9.0678   -3.9264    0.0000 C   0  0  0  0  0  0  0  0  0  0  0  0
    8.3533   -3.5139    0.0000 C   0  0  0  0  0  0  0  0  0  0  0  0
    7.6388   -3.9264    0.0000 C   0  0  0  0  0  0  0  0  0  0  0  0
    6.9243   -3.5139    0.0000 C   0  0  0  0  0  0  0  0  0  0  0  0
    6.2099   -3.9264    0.0000 C   0  0  0  0  0  0  0  0  0  0  0  0
    5.4954   -3.5139    0.0000 C   0  0  0  0  0  0  0  0  0  0  0  0
    4.7809   -3.9264    0.0000 C   0  0  0  0  0  0  0  0  0  0  0  0
    4.0665   -3.5139    0.0000 C   0  0  0  0  0  0  0  0  0  0  0  0
    3.3520   -3.9264    0.0000 C   0  0  0  0  0  0  0  0  0  0  0  0
    2.6375   -3.5139    0.0000 C   0  0  0  0  0  0  0  0  0  0  0  0
    1.9230   -3.9264    0.0000 C   0  0  0  0  0  0  0  0  0  0  0  0
    1.2086   -3.5139    0.0000 C   0  0  0  0  0  0  0  0  0  0  0  0
    0.4941   -3.9264    0.0000 C   0  0  0  0  0  0  0  0  0  0  0  0
   11.2112   -2.6889    0.0000 O   0  0  0  0  0  0  0  0  0  0  0  0
   11.9256   -3.9264    0.0000 O   0  0  0  0  0  0  0  0  0  0  0  0
   12.6401   -3.5139    0.0000 C   0  0  0  0  0  0  0  0  0  0  0  0
   13.3546   -3.9264    0.0000 C   0  0  0  0  0  0  0  0  0  0  0  0
   14.0691   -3.5139    0.0000 C   0  0  0  0  0  0  0  0  0  0  0  0
   14.7835   -3.9264    0.0000 O   0  0  0  0  0  0  0  0  0  0  0  0
   13.3546   -4.7514    0.0000 O   0  0  0  0  0  0  0  0  0  0  0  0
  1  2  1  0  0  0  0
  2  3  1  0  0  0  0
  3  4  1  0  0  0  0
  4  5  1  0  0  0  0
  5  6  1  0  0  0  0
  6  7  1  0  0  0  0
  7  8  1  0  0  0  0
  8  9  1  0  0  0  0
  9 10  1  0  0  0  0
 10 11  1  0  0  0  0
 11 12  1  0  0  0  0
 12 13  1  0  0  0  0
 13 14  1  0  0  0  0
 14 15  1  0  0  0  0
 15 16  1  0  0  0  0
  1 17  2  0  0  0  0
  1 18  1  0  0  0  0
 19 20  1  0  0  0  0
 20 21  1  0  0  0  0
 21 22  1  0  0  0  0
 20 23  1  0  0  0  0
 18 19  1  0  0  0  0
M  END
>  <cdx:groupId>
70

>  <cdx:fragmentId>
5

$$$$
