1491.cdx
  Mrv1902 05222410192D          

 11 11  0  0  0  0            999 V2000
    5.6444   -4.1680    0.0000 O   0  0  0  0  0  0  0  0  0  0  0  0
    7.0459   -6.6586    0.0000 O   0  0  0  0  0  0  0  0  0  0  0  0
    6.3725   -2.9385    0.0000 O   0  0  0  0  0  0  0  0  0  0  0  0
    7.8013   -2.9542    0.0000 O   0  0  0  0  0  0  0  0  0  0  0  0
    7.7831   -4.6041    0.0000 C   0  0  0  0  0  0  0  0  0  0  0  0
    7.7740   -5.4291    0.0000 C   0  0  0  0  0  0  0  0  0  0  0  0
    7.0550   -5.8337    0.0000 C   0  0  0  0  0  0  0  0  0  0  0  0
    6.3452   -5.4133    0.0000 C   0  0  0  0  0  0  0  0  0  0  0  0
    6.3543   -4.5884    0.0000 C   0  0  0  0  0  0  0  0  0  0  0  0
    7.0732   -4.1838    0.0000 C   0  0  0  0  0  0  0  0  0  0  0  0
    7.0823   -3.3588    0.0000 C   0  0  0  0  0  0  0  0  0  0  0  0
  9  1  1  0  0  0  0
  7  2  1  0  0  0  0
 11  3  1  0  0  0  0
 11  4  2  0  0  0  0
 10  5  2  0  0  0  0
  6  5  1  0  0  0  0
  7  6  2  0  0  0  0
  8  7  1  0  0  0  0
  9  8  2  0  0  0  0
 10  9  1  0  0  0  0
 11 10  1  0  0  0  0
M  END
>  <cdx:groupId>
35

>  <cdx:fragmentId>
5

$$$$
