14930.cdx
  Mrv1902 05222410272D          

 54 59  0  0  0  0            999 V2000
    3.1177   -5.3006    0.0000 C   0  0  0  0  0  0  0  0  0  0  0  0
    3.1177   -6.1256    0.0000 C   0  0  0  0  0  0  0  0  0  0  0  0
    3.8321   -6.5381    0.0000 C   0  0  0  0  0  0  0  0  0  0  0  0
    4.5466   -6.1256    0.0000 C   0  0  0  0  0  0  0  0  0  0  0  0
    4.5466   -5.3006    0.0000 C   0  0  0  0  0  0  0  0  0  0  0  0
    3.8321   -4.8881    0.0000 C   0  0  0  0  0  0  0  0  0  0  0  0
    5.2611   -6.5381    0.0000 C   0  0  0  0  0  0  0  0  0  0  0  0
    5.9755   -6.1256    0.0000 C   0  0  0  0  0  0  0  0  0  0  0  0
    5.9755   -5.3006    0.0000 C   0  0  0  0  0  0  0  0  0  0  0  0
    5.2611   -4.8881    0.0000 O   0  0  0  0  0  0  0  0  0  0  0  0
    6.6900   -4.8881    0.0000 C   0  0  0  0  0  0  0  0  0  0  0  0
    6.6900   -4.0631    0.0000 C   0  0  0  0  0  0  0  0  0  0  0  0
    7.4045   -5.3006    0.0000 C   0  0  0  0  0  0  0  0  0  0  0  0
    8.1190   -4.8881    0.0000 C   0  0  0  0  0  0  0  0  0  0  0  0
    8.1190   -4.0631    0.0000 C   0  0  0  0  0  0  0  0  0  0  0  0
    7.4045   -3.6506    0.0000 C   0  0  0  0  0  0  0  0  0  0  0  0
    2.4032   -4.8881    0.0000 O   0  0  0  0  0  0  0  0  0  0  0  0
    3.8321   -7.3631    0.0000 O   0  0  0  0  0  0  0  0  0  0  0  0
    5.2611   -7.3631    0.0000 O   0  0  0  0  0  0  0  0  0  0  0  0
    7.4045   -2.8256    0.0000 O   0  0  0  0  0  0  0  0  0  0  0  0
    8.8334   -3.6506    0.0000 O   0  0  0  0  0  0  0  0  0  0  0  0
    6.6900   -6.5381    0.0000 O   0  0  0  0  0  0  0  0  0  0  0  0
    7.1025   -7.2526    0.0000 C   0  0  2  0  0  0  0  0  0  0  0  0
    6.6900   -7.9671    0.0000 O   0  0  0  0  0  0  0  0  0  0  0  0
    7.1025   -8.6815    0.0000 C   0  0  1  0  0  0  0  0  0  0  0  0
    7.9275   -8.6815    0.0000 C   0  0  2  0  0  0  0  0  0  0  0  0
    8.3400   -7.9671    0.0000 C   0  0  1  0  0  0  0  0  0  0  0  0
    7.9275   -7.2526    0.0000 C   0  0  1  0  0  0  0  0  0  0  0  0
    6.6900   -9.3960    0.0000 C   0  0  0  0  0  0  0  0  0  0  0  0
    7.1025  -10.1105    0.0000 O   0  0  0  0  0  0  0  0  0  0  0  0
    8.3400   -9.3960    0.0000 O   0  0  0  0  0  0  0  0  0  0  0  0
    6.3806  -10.5568    0.0000 C   0  0  0  0  0  0  0  0  0  0  0  0
    5.6726  -10.1334    0.0000 O   0  0  0  0  0  0  0  0  0  0  0  0
    4.9519  -10.5349    0.0000 C   0  0  2  0  0  0  0  0  0  0  0  0
    4.9392  -11.3598    0.0000 C   0  0  1  0  0  0  0  0  0  0  0  0
    5.6472  -11.7832    0.0000 C   0  0  2  0  0  0  0  0  0  0  0  0
    6.3680  -11.3817    0.0000 C   0  0  1  0  0  0  0  0  0  0  0  0
    4.2185  -11.7612    0.0000 O   0  0  0  0  0  0  0  0  0  0  0  0
    4.2185  -12.5861    0.0000 O   0  0  0  0  0  0  0  0  0  0  0  0
    4.9392  -13.0096    0.0000 C   0  0  0  0  0  0  0  0  0  0  0  0
    5.6472  -12.6081    0.0000 O   0  0  0  0  0  0  0  0  0  0  0  0
    3.4914  -13.0096    0.0000 C   0  0  1  0  0  0  0  0  0  0  0  0
    3.4914  -13.8455    0.0000 C   0  0  2  0  0  0  0  0  0  0  0  0
    4.2185  -14.2689    0.0000 C   0  0  1  0  0  0  0  0  0  0  0  0
    4.9392  -13.8455    0.0000 C   0  0  1  0  0  0  0  0  0  0  0  0
    2.7769  -12.5971    0.0000 C   0  0  0  0  0  0  0  0  0  0  0  0
    2.0625  -13.0096    0.0000 O   0  0  0  0  0  0  0  0  0  0  0  0
    9.1650   -7.9671    0.0000 O   0  0  0  0  0  0  0  0  0  0  0  0
    4.2185  -15.0939    0.0000 O   0  0  0  0  0  0  0  0  0  0  0  0
    2.7769  -14.2580    0.0000 O   0  0  0  0  0  0  0  0  0  0  0  0
    5.6537  -14.2580    0.0000 O   0  0  0  0  0  0  0  0  0  0  0  0
    7.0824  -11.7942    0.0000 O   0  0  0  0  0  0  0  0  0  0  0  0
    4.2374  -10.1224    0.0000 C   0  0  0  0  0  0  0  0  0  0  0  0
    8.3400   -6.5381    0.0000 O   0  0  0  0  0  0  0  0  0  0  0  0
  1  2  2  0  0  0  0
  2  3  1  0  0  0  0
  3  4  2  0  0  0  0
  4  5  1  0  0  0  0
  5  6  2  0  0  0  0
  6  1  1  0  0  0  0
  4  7  1  0  0  0  0
  7  8  1  0  0  0  0
  8  9  2  0  0  0  0
  9 10  1  0  0  0  0
 10  5  1  0  0  0  0
  9 11  1  0  0  0  0
 11 12  1  0  0  0  0
 11 13  2  0  0  0  0
 13 14  1  0  0  0  0
 14 15  2  0  0  0  0
 15 16  1  0  0  0  0
 16 12  2  0  0  0  0
  1 17  1  0  0  0  0
  3 18  1  0  0  0  0
  7 19  2  0  0  0  0
 16 20  1  0  0  0  0
 15 21  1  0  0  0  0
  8 22  1  0  0  0  0
 23 22  1  1  0  0  0
 23 24  1  0  0  0  0
 24 25  1  0  0  0  0
 25 26  1  0  0  0  0
 26 27  1  0  0  0  0
 27 28  1  0  0  0  0
 28 23  1  0  0  0  0
 25 29  1  1  0  0  0
 29 30  1  0  0  0  0
 26 31  1  6  0  0  0
 32 30  1  0  0  0  0
 32 33  1  0  0  0  0
 33 34  1  0  0  0  0
 34 35  1  0  0  0  0
 35 36  1  0  0  0  0
 36 37  1  0  0  0  0
 37 32  1  0  0  0  0
 35 38  1  1  0  0  0
 39 40  1  0  0  0  0
 40 41  1  0  0  0  0
 36 41  1  6  0  0  0
 39 42  1  0  0  0  0
 42 43  1  0  0  0  0
 43 44  1  0  0  0  0
 44 45  1  0  0  0  0
 45 40  1  0  0  0  0
 42 46  1  1  0  0  0
 46 47  1  0  0  0  0
 27 48  1  1  0  0  0
 44 49  1  1  0  0  0
 43 50  1  6  0  0  0
 45 51  1  6  0  0  0
 37 52  1  6  0  0  0
 34 53  1  6  0  0  0
 28 54  1  6  0  0  0
M  END
>  <cdx:fragmentId>
5

$$$$
