1494.cdx
  Mrv1902 05222410192D          

 26 25  0  0  0  0            999 V2000
   15.1414  -10.5177    0.0000 C   0  0  0  0  0  0  0  0  0  0  0  0
   14.4271  -10.9301    0.0000 C   0  0  0  0  0  0  0  0  0  0  0  0
   13.7129  -10.5177    0.0000 C   0  0  0  0  0  0  0  0  0  0  0  0
   12.9986  -10.9301    0.0000 C   0  0  0  0  0  0  0  0  0  0  0  0
   12.2844  -10.5177    0.0000 C   0  0  0  0  0  0  0  0  0  0  0  0
   11.5701  -10.9301    0.0000 C   0  0  0  0  0  0  0  0  0  0  0  0
   10.8559  -10.5177    0.0000 C   0  0  0  0  0  0  0  0  0  0  0  0
   10.1416  -10.9301    0.0000 C   0  0  0  0  0  0  0  0  0  0  0  0
    9.4274  -10.5177    0.0000 C   0  0  0  0  0  0  0  0  0  0  0  0
    8.7132  -10.9301    0.0000 C   0  0  0  0  0  0  0  0  0  0  0  0
    7.9989  -10.5177    0.0000 C   0  0  0  0  0  0  0  0  0  0  0  0
    7.2847  -10.9301    0.0000 C   0  0  0  0  0  0  0  0  0  0  0  0
    6.5704  -10.5177    0.0000 C   0  0  0  0  0  0  0  0  0  0  0  0
    5.8562  -10.9301    0.0000 C   0  0  0  0  0  0  0  0  0  0  0  0
    5.1419  -10.5177    0.0000 C   0  0  0  0  0  0  0  0  0  0  0  0
    4.4277  -10.9301    0.0000 N   0  0  0  0  0  0  0  0  0  0  0  0
    3.7134  -10.5177    0.0000 C   0  0  0  0  0  0  0  0  0  0  0  0
    2.9992  -10.9301    0.0000 C   0  0  0  0  0  0  0  0  0  0  0  0
    2.2849  -10.5177    0.0000 C   0  0  0  0  0  0  0  0  0  0  0  0
    2.9992  -11.7548    0.0000 C   0  0  0  0  0  0  0  0  0  0  0  0
    5.1419   -9.6930    0.0000 O   0  0  0  0  0  0  0  0  0  0  0  0
   15.1414   -9.6930    0.0000 C   0  0  0  0  0  0  0  0  0  0  0  0
   15.8556   -9.2806    0.0000 C   0  0  0  0  0  0  0  0  0  0  0  0
   15.8556   -8.4559    0.0000 C   0  0  0  0  0  0  0  0  0  0  0  0
   16.5699   -8.0435    0.0000 C   0  0  0  0  0  0  0  0  0  0  0  0
   16.5699   -7.2188    0.0000 C   0  0  0  0  0  0  0  0  0  0  0  0
  1  2  2  0  0  0  0
  2  3  1  0  0  0  0
  3  4  1  0  0  0  0
  4  5  1  0  0  0  0
  5  6  1  0  0  0  0
  6  7  1  0  0  0  0
  7  8  1  0  0  0  0
  8  9  1  0  0  0  0
  9 10  1  0  0  0  0
 10 11  1  0  0  0  0
 11 12  2  0  0  0  0
 12 13  1  0  0  0  0
 13 14  2  0  0  0  0
 14 15  1  0  0  0  0
 15 16  1  0  0  0  0
 16 17  1  0  0  0  0
 17 18  1  0  0  0  0
 18 19  1  0  0  0  0
 18 20  1  0  0  0  0
 15 21  2  0  0  0  0
  1 22  1  0  0  0  0
 22 23  1  0  0  0  0
 23 24  1  0  0  0  0
 24 25  1  0  0  0  0
 25 26  1  0  0  0  0
M  END
>  <cdx:fragmentId>
3

$$$$
