quercetin 3-O-ﾥ￡-L-(ﾥ￢-Dglucopyranosyl)-(1,2)-rhamnopyranoside.cdx
  Mrv1902 05222410252D          

 43 47  0  0  0  0            999 V2000
    3.4270   -7.1775    0.0000 C   0  0  0  0  0  0  0  0  0  0  0  0
    3.4270   -8.0025    0.0000 C   0  0  0  0  0  0  0  0  0  0  0  0
    4.1415   -8.4150    0.0000 C   0  0  0  0  0  0  0  0  0  0  0  0
    4.8560   -8.0025    0.0000 C   0  0  0  0  0  0  0  0  0  0  0  0
    4.8560   -7.1775    0.0000 C   0  0  0  0  0  0  0  0  0  0  0  0
    4.1415   -6.7650    0.0000 C   0  0  0  0  0  0  0  0  0  0  0  0
    5.5704   -8.4150    0.0000 C   0  0  0  0  0  0  0  0  0  0  0  0
    6.2849   -8.0025    0.0000 C   0  0  0  0  0  0  0  0  0  0  0  0
    6.2849   -7.1775    0.0000 C   0  0  0  0  0  0  0  0  0  0  0  0
    5.5704   -6.7650    0.0000 O   0  0  0  0  0  0  0  0  0  0  0  0
    6.9994   -6.7650    0.0000 C   0  0  0  0  0  0  0  0  0  0  0  0
    2.7126   -6.7650    0.0000 O   0  0  0  0  0  0  0  0  0  0  0  0
    4.1415   -9.2400    0.0000 O   0  0  0  0  0  0  0  0  0  0  0  0
    5.5704   -9.2400    0.0000 O   0  0  0  0  0  0  0  0  0  0  0  0
    7.7139   -7.1775    0.0000 C   0  0  0  0  0  0  0  0  0  0  0  0
    8.4283   -6.7650    0.0000 C   0  0  0  0  0  0  0  0  0  0  0  0
    8.4283   -5.9400    0.0000 C   0  0  0  0  0  0  0  0  0  0  0  0
    7.7139   -5.5275    0.0000 C   0  0  0  0  0  0  0  0  0  0  0  0
    6.9994   -5.9400    0.0000 C   0  0  0  0  0  0  0  0  0  0  0  0
    7.7139   -4.7025    0.0000 O   0  0  0  0  0  0  0  0  0  0  0  0
    9.1428   -5.5275    0.0000 O   0  0  0  0  0  0  0  0  0  0  0  0
    6.3324  -10.5778    0.0000 C   0  0  2  0  0  0  0  0  0  0  0  0
    7.0358  -11.0090    0.0000 C   0  0  2  0  0  0  0  0  0  0  0  0
    7.7608  -10.6154    0.0000 C   0  0  1  0  0  0  0  0  0  0  0  0
    7.7825   -9.7907    0.0000 C   0  0  2  0  0  0  0  0  0  0  0  0
    7.0791   -9.3595    0.0000 C   0  0  1  0  0  0  0  0  0  0  0  0
    6.3541   -9.7531    0.0000 O   0  0  0  0  0  0  0  0  0  0  0  0
    7.1008   -8.5348    0.0000 O   0  0  0  0  0  0  0  0  0  0  0  0
    5.6073  -10.9714    0.0000 C   0  0  0  0  0  0  0  0  0  0  0  0
    8.4642  -11.0465    0.0000 O   0  0  0  0  0  0  0  0  0  0  0  0
    7.0141  -11.8337    0.0000 O   0  0  0  0  0  0  0  0  0  0  0  0
    8.5076   -9.3971    0.0000 O   0  0  0  0  0  0  0  0  0  0  0  0
    5.5856  -11.7961    0.0000 O   0  0  0  0  0  0  0  0  0  0  0  0
    9.2110   -9.8282    0.0000 C   0  0  2  0  0  0  0  0  0  0  0  0
    9.1893  -10.6530    0.0000 O   0  0  0  0  0  0  0  0  0  0  0  0
    9.8927  -11.0841    0.0000 C   0  0  2  0  0  0  0  0  0  0  0  0
   10.6177  -10.6905    0.0000 C   0  0  1  0  0  0  0  0  0  0  0  0
   10.6394   -9.8658    0.0000 C   0  0  2  0  0  0  0  0  0  0  0  0
    9.9360   -9.4347    0.0000 C   0  0  1  0  0  0  0  0  0  0  0  0
   11.3211  -11.1217    0.0000 O   0  0  0  0  0  0  0  0  0  0  0  0
    9.9577   -8.6099    0.0000 O   0  0  0  0  0  0  0  0  0  0  0  0
   11.3645   -9.4722    0.0000 O   0  0  0  0  0  0  0  0  0  0  0  0
    9.8710  -11.9088    0.0000 C   0  0  0  0  0  0  0  0  0  0  0  0
  1  2  2  0  0  0  0
  2  3  1  0  0  0  0
  3  4  2  0  0  0  0
  4  5  1  0  0  0  0
  5  6  2  0  0  0  0
  6  1  1  0  0  0  0
  4  7  1  0  0  0  0
  7  8  1  0  0  0  0
  8  9  2  0  0  0  0
  9 10  1  0  0  0  0
 10  5  1  0  0  0  0
  9 11  1  0  0  0  0
  1 12  1  0  0  0  0
  3 13  1  0  0  0  0
  7 14  2  0  0  0  0
 11 15  2  0  0  0  0
 15 16  1  0  0  0  0
 16 17  2  0  0  0  0
 17 18  1  0  0  0  0
 18 19  2  0  0  0  0
 19 11  1  0  0  0  0
 18 20  1  0  0  0  0
 17 21  1  0  0  0  0
 22 23  1  0  0  0  0
 23 24  1  0  0  0  0
 24 25  1  0  0  0  0
 25 26  1  0  0  0  0
 26 27  1  0  0  0  0
 27 22  1  0  0  0  0
 26 28  1  1  0  0  0
 22 29  1  1  0  0  0
 24 30  1  1  0  0  0
 23 31  1  6  0  0  0
 25 32  1  6  0  0  0
 29 33  1  0  0  0  0
 34 32  1  1  0  0  0
 34 35  1  0  0  0  0
 35 36  1  0  0  0  0
 36 37  1  0  0  0  0
 37 38  1  0  0  0  0
 38 39  1  0  0  0  0
 39 34  1  0  0  0  0
 37 40  1  1  0  0  0
 39 41  1  6  0  0  0
 38 42  1  6  0  0  0
 36 43  1  6  0  0  0
  8 28  1  0  0  0  0
M  END
>  <cdx:fragmentId>
67

$$$$
