14984.cdx
  Mrv1902 05222410252D          

 33 36  0  0  0  0            999 V2000
    2.1070   -6.2494    0.0000 C   0  0  0  0  0  0  0  0  0  0  0  0
    2.1070   -7.0744    0.0000 C   0  0  0  0  0  0  0  0  0  0  0  0
    2.8215   -7.4869    0.0000 C   0  0  0  0  0  0  0  0  0  0  0  0
    3.5360   -7.0744    0.0000 C   0  0  0  0  0  0  0  0  0  0  0  0
    3.5360   -6.2494    0.0000 C   0  0  0  0  0  0  0  0  0  0  0  0
    2.8215   -5.8369    0.0000 C   0  0  0  0  0  0  0  0  0  0  0  0
    4.2504   -7.4869    0.0000 C   0  0  0  0  0  0  0  0  0  0  0  0
    4.9649   -7.0744    0.0000 C   0  0  0  0  0  0  0  0  0  0  0  0
    4.9649   -6.2494    0.0000 C   0  0  0  0  0  0  0  0  0  0  0  0
    4.2504   -5.8369    0.0000 O   0  0  0  0  0  0  0  0  0  0  0  0
    5.6794   -7.4869    0.0000 O   0  0  0  0  0  0  0  0  0  0  0  0
    6.3939   -6.2494    0.0000 C   0  0  0  0  0  0  0  0  0  0  0  0
    5.6794   -5.8369    0.0000 C   0  0  0  0  0  0  0  0  0  0  0  0
    7.1083   -5.8369    0.0000 C   0  0  0  0  0  0  0  0  0  0  0  0
    7.1083   -5.0119    0.0000 C   0  0  0  0  0  0  0  0  0  0  0  0
    6.3939   -4.5994    0.0000 C   0  0  0  0  0  0  0  0  0  0  0  0
    5.6794   -5.0119    0.0000 C   0  0  0  0  0  0  0  0  0  0  0  0
    8.5373   -5.8369    0.0000 O   0  0  0  0  0  0  0  0  0  0  0  0
    8.5373   -5.0119    0.0000 C   0  0  1  0  0  0  0  0  0  0  0  0
    7.8228   -4.5994    0.0000 O   0  0  0  0  0  0  0  0  0  0  0  0
    9.2517   -6.2494    0.0000 C   0  0  1  0  0  0  0  0  0  0  0  0
    9.9662   -5.8369    0.0000 C   0  0  2  0  0  0  0  0  0  0  0  0
    9.9662   -5.0119    0.0000 C   0  0  1  0  0  0  0  0  0  0  0  0
    9.2517   -4.5994    0.0000 C   0  0  1  0  0  0  0  0  0  0  0  0
    9.2517   -7.0744    0.0000 C   0  0  0  0  0  0  0  0  0  0  0  0
    9.9662   -7.4869    0.0000 O   0  0  0  0  0  0  0  0  0  0  0  0
   10.6807   -6.2494    0.0000 O   0  0  0  0  0  0  0  0  0  0  0  0
    1.3926   -5.8369    0.0000 O   0  0  0  0  0  0  0  0  0  0  0  0
    2.8215   -8.3119    0.0000 O   0  0  0  0  0  0  0  0  0  0  0  0
    4.2504   -8.3119    0.0000 O   0  0  0  0  0  0  0  0  0  0  0  0
   10.6807   -4.5994    0.0000 O   0  0  0  0  0  0  0  0  0  0  0  0
    9.2517   -3.7744    0.0000 O   0  0  0  0  0  0  0  0  0  0  0  0
    6.3939   -3.7744    0.0000 O   0  0  0  0  0  0  0  0  0  0  0  0
  1  2  1  0  0  0  0
  2  3  2  0  0  0  0
  3  4  1  0  0  0  0
  4  5  2  0  0  0  0
  5  6  1  0  0  0  0
  6  1  2  0  0  0  0
  4  7  1  0  0  0  0
  7  8  1  0  0  0  0
  8  9  2  0  0  0  0
  9 10  1  0  0  0  0
 10  5  1  0  0  0  0
  8 11  1  0  0  0  0
 12 13  2  0  0  0  0
 13  9  1  0  0  0  0
 12 14  1  0  0  0  0
 14 15  2  0  0  0  0
 15 16  1  0  0  0  0
 16 17  2  0  0  0  0
 17 13  1  0  0  0  0
 18 19  1  0  0  0  0
 19 20  1  1  0  0  0
 20 15  1  0  0  0  0
 18 21  1  0  0  0  0
 21 22  1  0  0  0  0
 22 23  1  0  0  0  0
 23 24  1  0  0  0  0
 24 19  1  0  0  0  0
 21 25  1  1  0  0  0
 25 26  1  0  0  0  0
 22 27  1  6  0  0  0
  1 28  1  0  0  0  0
  3 29  1  0  0  0  0
  7 30  2  0  0  0  0
 23 31  1  1  0  0  0
 24 32  1  6  0  0  0
 16 33  1  0  0  0  0
M  END
>  <cdx:fragmentId>
5

$$$$
