14989.cdx
  Mrv1902 05222410212D          

 31 34  0  0  0  0            999 V2000
    7.3194   -7.7866    0.0000 O   0  0  0  0  0  0  0  0  0  0  0  0
    6.6049   -8.1991    0.0000 C   0  0  2  0  0  0  0  0  0  0  0  0
    5.8905   -7.7866    0.0000 C   0  0  1  0  0  0  0  0  0  0  0  0
    5.8905   -6.9616    0.0000 C   0  0  2  0  0  0  0  0  0  0  0  0
    6.6049   -6.5491    0.0000 C   0  0  1  0  0  0  0  0  0  0  0  0
    7.3194   -6.9616    0.0000 C   0  0  1  0  0  0  0  0  0  0  0  0
    8.0339   -6.5491    0.0000 C   0  0  0  0  0  0  0  0  0  0  0  0
    8.0339   -5.7241    0.0000 O   0  0  0  0  0  0  0  0  0  0  0  0
    6.6049   -5.7241    0.0000 O   0  0  0  0  0  0  0  0  0  0  0  0
    5.1760   -6.5491    0.0000 O   0  0  0  0  0  0  0  0  0  0  0  0
    5.1760   -8.1991    0.0000 O   0  0  0  0  0  0  0  0  0  0  0  0
    8.0339  -11.4991    0.0000 O   0  0  0  0  0  0  0  0  0  0  0  0
    5.1760  -11.4991    0.0000 O   0  0  0  0  0  0  0  0  0  0  0  0
   10.1773   -9.4366    0.0000 O   0  0  0  0  0  0  0  0  0  0  0  0
    9.4628   -9.0241    0.0000 C   0  0  0  0  0  0  0  0  0  0  0  0
    6.6049  -11.4991    0.0000 O   0  0  0  0  0  0  0  0  0  0  0  0
    7.3194  -10.2616    0.0000 C   0  0  0  0  0  0  0  0  0  0  0  0
    6.6049  -10.6741    0.0000 C   0  0  0  0  0  0  0  0  0  0  0  0
    5.8905  -10.2616    0.0000 C   0  0  0  0  0  0  0  0  0  0  0  0
    5.1760  -10.6741    0.0000 C   0  0  0  0  0  0  0  0  0  0  0  0
    4.4615  -10.2616    0.0000 C   0  0  0  0  0  0  0  0  0  0  0  0
    4.4615   -9.4366    0.0000 C   0  0  0  0  0  0  0  0  0  0  0  0
    5.1760   -9.0241    0.0000 C   0  0  0  0  0  0  0  0  0  0  0  0
    5.8905   -9.4366    0.0000 C   0  0  0  0  0  0  0  0  0  0  0  0
    6.6049   -9.0241    0.0000 C   0  0  0  0  0  0  0  0  0  0  0  0
    7.3194   -9.4366    0.0000 C   0  0  0  0  0  0  0  0  0  0  0  0
    8.0339   -9.0241    0.0000 C   0  0  0  0  0  0  0  0  0  0  0  0
    8.7483   -9.4366    0.0000 C   0  0  0  0  0  0  0  0  0  0  0  0
    8.7483  -10.2616    0.0000 C   0  0  0  0  0  0  0  0  0  0  0  0
    8.0339  -10.6741    0.0000 C   0  0  0  0  0  0  0  0  0  0  0  0
    7.3194   -8.6116    0.0000 H   0  0  0  0  0  0  0  0  0  0  0  0
 30 12  1  0  0  0  0
 20 13  1  0  0  0  0
 28 15  1  0  0  0  0
 15 14  1  0  0  0  0
 25  2  1  0  0  0  0
 18 16  2  0  0  0  0
 30 17  2  0  0  0  0
 26 17  1  0  0  0  0
 18 17  1  0  0  0  0
 19 18  1  0  0  0  0
 24 19  2  0  0  0  0
 20 19  1  0  0  0  0
 21 20  2  0  0  0  0
 22 21  1  0  0  0  0
 23 22  2  0  0  0  0
 24 23  1  0  0  0  0
 25 24  1  0  0  0  0
 25 26  1  0  0  0  0
 27 26  2  0  0  0  0
 28 27  1  0  0  0  0
 29 28  2  0  0  0  0
 30 29  1  0  0  0  0
  2  1  1  0  0  0  0
  2  3  1  0  0  0  0
  3  4  1  0  0  0  0
  4  5  1  0  0  0  0
  5  6  1  0  0  0  0
  1  6  1  0  0  0  0
  7  8  1  0  0  0  0
  6  7  1  1  0  0  0
  5  9  1  6  0  0  0
  4 10  1  1  0  0  0
  3 11  1  6  0  0  0
  2 31  1  6  0  0  0
M  END
>  <cdx:fragmentId>
5

$$$$
