15007.cdx
  Mrv1902 05222410202D          

 60 66  0  0  0  0            999 V2000
    7.3320   -8.1331    0.0000 C   0  0  0  0  0  0  0  0  0  0  0  0
    7.3320   -8.9581    0.0000 C   0  0  1  0  0  0  0  0  0  0  0  0
    8.0465   -9.3706    0.0000 C   0  0  2  0  0  0  0  0  0  0  0  0
    8.7610   -8.9581    0.0000 C   0  0  1  0  0  0  0  0  0  0  0  0
    8.7610   -8.1331    0.0000 C   0  0  2  0  0  0  0  0  0  0  0  0
    8.0465   -7.7206    0.0000 C   0  0  0  0  0  0  0  0  0  0  0  0
    9.4754   -9.3706    0.0000 C   0  0  0  0  0  0  0  0  0  0  0  0
   10.1899   -8.9581    0.0000 C   0  0  0  0  0  0  0  0  0  0  0  0
   10.1899   -8.1331    0.0000 C   0  0  2  0  0  0  0  0  0  0  0  0
    9.4754   -7.7206    0.0000 C   0  0  2  0  0  0  0  0  0  0  0  0
   10.9044   -7.7206    0.0000 C   0  0  1  0  0  0  0  0  0  0  0  0
   10.9044   -6.8956    0.0000 C   0  0  0  0  0  0  0  0  0  0  0  0
   10.1899   -6.4831    0.0000 C   0  0  0  0  0  0  0  0  0  0  0  0
    9.4754   -6.8956    0.0000 C   0  0  0  0  0  0  0  0  0  0  0  0
   11.6189   -8.1331    0.0000 C   0  0  0  0  0  0  0  0  0  0  0  0
   12.3333   -7.7206    0.0000 C   0  0  0  0  0  0  0  0  0  0  0  0
   12.3333   -6.8956    0.0000 C   0  0  2  0  0  0  0  0  0  0  0  0
   11.6189   -6.4831    0.0000 C   0  0  1  0  0  0  0  0  0  0  0  0
   13.0478   -6.4831    0.0000 C   0  0  0  0  0  0  0  0  0  0  0  0
   13.0478   -5.6581    0.0000 C   0  0  0  0  0  0  0  0  0  0  0  0
   12.3333   -5.2456    0.0000 C   0  0  1  0  0  0  0  0  0  0  0  0
   11.6189   -5.6581    0.0000 C   0  0  0  0  0  0  0  0  0  0  0  0
    7.6340  -10.0851    0.0000 C   0  0  0  0  0  0  0  0  0  0  0  0
    8.4590  -10.0851    0.0000 C   0  0  0  0  0  0  0  0  0  0  0  0
   12.7458   -4.5312    0.0000 C   0  0  0  0  0  0  0  0  0  0  0  0
    6.6176   -9.3706    0.0000 O   0  0  0  0  0  0  0  0  0  0  0  0
    8.7610   -7.3081    0.0000 C   0  0  0  0  0  0  0  0  0  0  0  0
   10.1899   -7.3081    0.0000 C   0  0  0  0  0  0  0  0  0  0  0  0
   10.9044   -6.0706    0.0000 H   0  0  0  0  0  0  0  0  0  0  0  0
   13.0478   -7.3081    0.0000 C   0  0  0  0  0  0  0  0  0  0  0  0
   11.9208   -4.5312    0.0000 C   0  0  0  0  0  0  0  0  0  0  0  0
   10.9044   -8.5456    0.0000 C   0  0  0  0  0  0  0  0  0  0  0  0
    9.4754   -8.5456    0.0000 H   0  0  0  0  0  0  0  0  0  0  0  0
    8.7610   -9.7831    0.0000 H   0  0  0  0  0  0  0  0  0  0  0  0
    5.9031   -8.9581    0.0000 C   0  0  1  0  0  0  0  0  0  0  0  0
    5.9031   -8.1331    0.0000 O   0  0  0  0  0  0  0  0  0  0  0  0
    5.1886   -7.7206    0.0000 C   0  0  1  0  0  0  0  0  0  0  0  0
    4.4741   -8.1331    0.0000 C   0  0  2  0  0  0  0  0  0  0  0  0
    4.4741   -8.9581    0.0000 C   0  0  1  0  0  0  0  0  0  0  0  0
    5.1886   -9.3706    0.0000 C   0  0  1  0  0  0  0  0  0  0  0  0
    5.1886   -6.8956    0.0000 C   0  0  0  0  0  0  0  0  0  0  0  0
    3.7597   -9.3706    0.0000 O   0  0  0  0  0  0  0  0  0  0  0  0
    3.7597   -7.7206    0.0000 O   0  0  0  0  0  0  0  0  0  0  0  0
    5.1886  -10.1956    0.0000 O   0  0  0  0  0  0  0  0  0  0  0  0
    5.9031   -6.4831    0.0000 O   0  0  0  0  0  0  0  0  0  0  0  0
    4.4741   -6.4831    0.0000 O   0  0  0  0  0  0  0  0  0  0  0  0
    4.4741  -10.6081    0.0000 C   0  0  2  0  0  0  0  0  0  0  0  0
    3.7597  -10.1956    0.0000 O   0  0  0  0  0  0  0  0  0  0  0  0
    3.0452  -10.6081    0.0000 C   0  0  1  0  0  0  0  0  0  0  0  0
    3.0452  -11.4331    0.0000 C   0  0  2  0  0  0  0  0  0  0  0  0
    3.7597  -11.8456    0.0000 C   0  0  1  0  0  0  0  0  0  0  0  0
    4.4741  -11.4331    0.0000 C   0  0  1  0  0  0  0  0  0  0  0  0
    2.3307  -10.1956    0.0000 C   0  0  0  0  0  0  0  0  0  0  0  0
    3.7597  -12.6706    0.0000 O   0  0  0  0  0  0  0  0  0  0  0  0
    2.3307  -11.8456    0.0000 O   0  0  0  0  0  0  0  0  0  0  0  0
    5.1886  -11.8456    0.0000 O   0  0  0  0  0  0  0  0  0  0  0  0
    1.6163  -10.6081    0.0000 O   0  0  0  0  0  0  0  0  0  0  0  0
    2.3307   -9.3706    0.0000 O   0  0  0  0  0  0  0  0  0  0  0  0
   12.3333   -3.8167    0.0000 O   0  0  0  0  0  0  0  0  0  0  0  0
   11.0958   -4.5312    0.0000 O   0  0  0  0  0  0  0  0  0  0  0  0
  1  2  1  0  0  0  0
  2  3  1  0  0  0  0
  3  4  1  0  0  0  0
  4  5  1  0  0  0  0
  5  6  1  0  0  0  0
  6  1  1  0  0  0  0
  4  7  1  0  0  0  0
  7  8  1  0  0  0  0
  8  9  1  0  0  0  0
  9 10  1  0  0  0  0
 10  5  1  0  0  0  0
  9 11  1  0  0  0  0
 11 12  1  0  0  0  0
 12 13  2  0  0  0  0
 13 14  1  0  0  0  0
 14 10  1  0  0  0  0
 11 15  1  0  0  0  0
 15 16  1  0  0  0  0
 16 17  1  0  0  0  0
 17 18  1  0  0  0  0
 18 12  1  0  0  0  0
 17 19  1  0  0  0  0
 19 20  1  0  0  0  0
 20 21  1  0  0  0  0
 21 22  1  0  0  0  0
 22 18  1  0  0  0  0
  3 23  1  6  0  0  0
  3 24  1  1  0  0  0
 21 25  1  1  0  0  0
  2 26  1  1  0  0  0
  5 27  1  1  0  0  0
  9 28  1  1  0  0  0
 18 29  1  1  0  0  0
 17 30  1  1  0  0  0
 21 31  1  6  0  0  0
 11 32  1  6  0  0  0
 10 33  1  6  0  0  0
  4 34  1  6  0  0  0
 35 26  1  6  0  0  0
 35 36  1  0  0  0  0
 36 37  1  0  0  0  0
 37 38  1  0  0  0  0
 38 39  1  0  0  0  0
 39 40  1  0  0  0  0
 40 35  1  0  0  0  0
 37 41  1  1  0  0  0
 39 42  1  1  0  0  0
 38 43  1  6  0  0  0
 40 44  1  6  0  0  0
 41 45  2  0  0  0  0
 41 46  1  0  0  0  0
 47 44  1  1  0  0  0
 47 48  1  0  0  0  0
 48 49  1  0  0  0  0
 49 50  1  0  0  0  0
 50 51  1  0  0  0  0
 51 52  1  0  0  0  0
 52 47  1  0  0  0  0
 49 53  1  1  0  0  0
 51 54  1  1  0  0  0
 50 55  1  6  0  0  0
 52 56  1  6  0  0  0
 53 57  1  0  0  0  0
 53 58  2  0  0  0  0
 31 59  1  0  0  0  0
 31 60  2  0  0  0  0
M  END
>  <cdx:fragmentId>
4796

$$$$
