1500.cdx
  Mrv1902 05222410282D          

 11 10  0  0  0  0            999 V2000
    3.6038   -5.7758    0.0000 C   0  0  0  0  0  0  0  0  0  0  0  0
    3.6254   -6.6005    0.0000 C   0  0  0  0  0  0  0  0  0  0  0  0
    4.3503   -6.9942    0.0000 C   0  0  0  0  0  0  0  0  0  0  0  0
    4.3719   -7.8189    0.0000 C   0  0  0  0  0  0  0  0  0  0  0  0
    5.0969   -8.2126    0.0000 C   0  0  0  0  0  0  0  0  0  0  0  0
    5.8003   -7.7816    0.0000 C   0  0  0  0  0  0  0  0  0  0  0  0
    6.5253   -8.1753    0.0000 C   0  0  0  0  0  0  0  0  0  0  0  0
    7.2288   -7.7443    0.0000 C   0  0  0  0  0  0  0  0  0  0  0  0
    7.9538   -8.1380    0.0000 C   0  0  0  0  0  0  0  0  0  0  0  0
    8.6572   -7.7070    0.0000 C   0  0  0  0  0  0  0  0  0  0  0  0
    2.8788   -5.3821    0.0000 O   0  0  0  0  0  0  0  0  0  0  0  0
  1  2  1  0  0  0  0
  2  3  2  0  0  0  0
  3  4  1  0  0  0  0
  4  5  2  0  0  0  0
  5  6  1  0  0  0  0
  6  7  1  0  0  0  0
  7  8  1  0  0  0  0
  8  9  1  0  0  0  0
  9 10  1  0  0  0  0
  1 11  2  0  0  0  0
M  END
>  <cdx:fragmentId>
3

$$$$
