150032.cdx
  Mrv1902 05222410242D          

 24 27  0  0  0  0            999 V2000
    6.9978   -8.8194    0.0000 C   0  0  0  0  0  0  0  0  0  0  0  0
    7.7132   -8.4086    0.0000 C   0  0  0  0  0  0  0  0  0  0  0  0
    8.4274   -8.8216    0.0000 C   0  0  0  0  0  0  0  0  0  0  0  0
    9.1421   -8.4096    0.0000 C   0  0  0  0  0  0  0  0  0  0  0  0
    9.1427   -7.5846    0.0000 C   0  0  0  0  0  0  0  0  0  0  0  0
    8.4286   -7.1716    0.0000 C   0  0  0  0  0  0  0  0  0  0  0  0
    7.7138   -7.5836    0.0000 C   0  0  0  0  0  0  0  0  0  0  0  0
    6.9999   -7.1701    0.0000 C   0  0  0  0  0  0  0  0  0  0  0  0
    6.2846   -7.5811    0.0000 C   0  0  0  0  0  0  0  0  0  0  0  0
    5.5706   -7.1678    0.0000 C   0  0  0  0  0  0  0  0  0  0  0  0
    4.8556   -7.5796    0.0000 C   0  0  0  0  0  0  0  0  0  0  0  0
    4.8548   -8.4046    0.0000 C   0  0  0  0  0  0  0  0  0  0  0  0
    5.5688   -8.8178    0.0000 C   0  0  0  0  0  0  0  0  0  0  0  0
    5.5679   -9.6428    0.0000 C   0  0  0  0  0  0  0  0  0  0  0  0
    6.2820  -10.0561    0.0000 C   0  0  0  0  0  0  0  0  0  0  0  0
    6.9969   -9.6444    0.0000 N   0  0  0  0  0  0  0  0  0  0  0  0
    6.2837   -8.4061    0.0000 C   0  0  0  0  0  0  0  0  0  0  0  0
    7.0008   -6.3451    0.0000 O   0  0  0  0  0  0  0  0  0  0  0  0
    4.1416   -7.1663    0.0000 O   0  0  0  0  0  0  0  0  0  0  0  0
    3.4267   -7.5781    0.0000 C   0  0  0  0  0  0  0  0  0  0  0  0
    5.5714   -6.3428    0.0000 O   0  0  0  0  0  0  0  0  0  0  0  0
    4.8574   -5.9296    0.0000 C   0  0  0  0  0  0  0  0  0  0  0  0
    9.8576   -7.1728    0.0000 O   0  0  0  0  0  0  0  0  0  0  0  0
   10.5717   -7.5861    0.0000 C   0  0  0  0  0  0  0  0  0  0  0  0
  1  2  1  0  0  0  0
  2  3  1  0  0  0  0
  3  4  2  0  0  0  0
  4  5  1  0  0  0  0
  5  6  2  0  0  0  0
  6  7  1  0  0  0  0
  7  8  1  0  0  0  0
  8  9  1  0  0  0  0
  9 10  1  0  0  0  0
 10 11  2  0  0  0  0
 11 12  1  0  0  0  0
 12 13  2  0  0  0  0
 13 14  1  0  0  0  0
 14 15  2  0  0  0  0
 15 16  1  0  0  0  0
  1 16  2  0  0  0  0
  1 17  1  0  0  0  0
 17  9  2  0  0  0  0
  2  7  2  0  0  0  0
 13 17  1  0  0  0  0
  8 18  2  0  0  0  0
 19 20  1  0  0  0  0
 11 19  1  0  0  0  0
 21 22  1  0  0  0  0
 10 21  1  0  0  0  0
 23 24  1  0  0  0  0
  5 23  1  0  0  0  0
M  END
>  <cdx:groupId>
861

>  <cdx:fragmentId>
789

$$$$
