15006.cdx
  Mrv1902 05222410202D          

 20 22  0  0  0  0            999 V2000
    4.3455   -7.0125    0.0000 C   0  0  0  0  0  0  0  0  0  0  0  0
    4.3455   -7.8375    0.0000 C   0  0  0  0  0  0  0  0  0  0  0  0
    5.0600   -8.2500    0.0000 C   0  0  0  0  0  0  0  0  0  0  0  0
    5.7745   -7.8375    0.0000 C   0  0  0  0  0  0  0  0  0  0  0  0
    5.7745   -7.0125    0.0000 C   0  0  0  0  0  0  0  0  0  0  0  0
    5.0600   -6.6000    0.0000 C   0  0  0  0  0  0  0  0  0  0  0  0
    6.4889   -8.2500    0.0000 C   0  0  0  0  0  0  0  0  0  0  0  0
    7.2034   -7.8375    0.0000 C   0  0  2  0  0  0  0  0  0  0  0  0
    7.2034   -7.0125    0.0000 C   0  0  0  0  0  0  0  0  0  0  0  0
    6.4889   -6.6000    0.0000 O   0  0  0  0  0  0  0  0  0  0  0  0
    7.9179   -8.2500    0.0000 C   0  0  0  0  0  0  0  0  0  0  0  0
    7.9179   -9.0750    0.0000 C   0  0  0  0  0  0  0  0  0  0  0  0
    8.6324   -9.4875    0.0000 C   0  0  0  0  0  0  0  0  0  0  0  0
    9.3468   -9.0750    0.0000 C   0  0  0  0  0  0  0  0  0  0  0  0
    9.3468   -8.2500    0.0000 C   0  0  0  0  0  0  0  0  0  0  0  0
    8.6324   -7.8375    0.0000 C   0  0  0  0  0  0  0  0  0  0  0  0
    3.6311   -6.6000    0.0000 O   0  0  0  0  0  0  0  0  0  0  0  0
    8.6324   -7.0125    0.0000 O   0  0  0  0  0  0  0  0  0  0  0  0
   10.0613   -9.4875    0.0000 O   0  0  0  0  0  0  0  0  0  0  0  0
   10.7758   -9.0750    0.0000 C   0  0  0  0  0  0  0  0  0  0  0  0
  1  2  1  0  0  0  0
  2  3  2  0  0  0  0
  3  4  1  0  0  0  0
  4  5  2  0  0  0  0
  5  6  1  0  0  0  0
  6  1  2  0  0  0  0
  4  7  1  0  0  0  0
  7  8  1  0  0  0  0
  8  9  1  0  0  0  0
  9 10  1  0  0  0  0
 10  5  1  0  0  0  0
  8 11  1  6  0  0  0
 11 12  1  0  0  0  0
 12 13  2  0  0  0  0
 13 14  1  0  0  0  0
 14 15  2  0  0  0  0
 15 16  1  0  0  0  0
 16 11  2  0  0  0  0
  1 17  1  0  0  0  0
 16 18  1  0  0  0  0
 14 19  1  0  0  0  0
 19 20  1  0  0  0  0
M  END
>  <cdx:fragmentId>
5032

$$$$
