15015.cdx
  Mrv1902 05222410182D          

 11 11  0  0  0  0            999 V2000
    5.8580   -7.7275    0.0000 C   0  0  0  0  0  0  0  0  0  0  0  0
    5.8580   -8.5525    0.0000 C   0  0  0  0  0  0  0  0  0  0  0  0
    6.5725   -8.9650    0.0000 C   0  0  0  0  0  0  0  0  0  0  0  0
    7.2870   -8.5525    0.0000 C   0  0  0  0  0  0  0  0  0  0  0  0
    7.2870   -7.7275    0.0000 C   0  0  0  0  0  0  0  0  0  0  0  0
    6.5725   -7.3150    0.0000 C   0  0  0  0  0  0  0  0  0  0  0  0
    6.5725   -6.4900    0.0000 C   0  0  0  0  0  0  0  0  0  0  0  0
    5.8580   -6.0775    0.0000 C   0  0  0  0  0  0  0  0  0  0  0  0
    7.2870   -6.0775    0.0000 C   0  0  0  0  0  0  0  0  0  0  0  0
    8.0014   -8.9650    0.0000 O   0  0  0  0  0  0  0  0  0  0  0  0
    6.5725   -9.7900    0.0000 C   0  0  0  0  0  0  0  0  0  0  0  0
  1  2  1  0  0  0  0
  2  3  2  0  0  0  0
  3  4  1  0  0  0  0
  4  5  2  0  0  0  0
  5  6  1  0  0  0  0
  6  1  2  0  0  0  0
  6  7  1  0  0  0  0
  7  8  1  0  0  0  0
  7  9  1  0  0  0  0
  4 10  1  0  0  0  0
  3 11  1  0  0  0  0
M  END
>  <cdx:fragmentId>
477

$$$$
