15014.cdx
  Mrv1902 05222410192D          

 16 15  0  0  0  0            999 V2000
    2.1170   -7.8375    0.0000 O   0  0  0  0  0  0  0  0  0  0  0  0
    2.8314   -8.2500    0.0000 C   0  0  0  0  0  0  0  0  0  0  0  0
    2.8314   -9.0750    0.0000 O   0  0  0  0  0  0  0  0  0  0  0  0
    3.5459   -7.8375    0.0000 C   0  0  0  0  0  0  0  0  0  0  0  0
    4.2604   -8.2500    0.0000 C   0  0  0  0  0  0  0  0  0  0  0  0
    4.9749   -7.8375    0.0000 C   0  0  0  0  0  0  0  0  0  0  0  0
    5.6893   -8.2500    0.0000 C   0  0  0  0  0  0  0  0  0  0  0  0
    6.4038   -7.8375    0.0000 C   0  0  0  0  0  0  0  0  0  0  0  0
    7.1183   -8.2500    0.0000 C   0  0  0  0  0  0  0  0  0  0  0  0
    7.8327   -7.8375    0.0000 C   0  0  0  0  0  0  0  0  0  0  0  0
    8.5472   -8.2500    0.0000 C   0  0  0  0  0  0  0  0  0  0  0  0
    9.2617   -7.8375    0.0000 C   0  0  0  0  0  0  0  0  0  0  0  0
    9.9762   -8.2500    0.0000 C   0  0  0  0  0  0  0  0  0  0  0  0
   10.6906   -7.8375    0.0000 C   0  0  0  0  0  0  0  0  0  0  0  0
   11.4051   -8.2500    0.0000 C   0  0  0  0  0  0  0  0  0  0  0  0
   12.1196   -7.8375    0.0000 C   0  0  0  0  0  0  0  0  0  0  0  0
  1  2  1  0  0  0  0
  2  3  2  0  0  0  0
  2  4  1  0  0  0  0
  4  5  2  0  0  0  0
  5  6  1  0  0  0  0
  6  7  2  0  0  0  0
  7  8  1  0  0  0  0
  8  9  2  0  0  0  0
  9 10  1  0  0  0  0
 10 11  2  0  0  0  0
 11 12  1  0  0  0  0
 12 13  2  0  0  0  0
 13 14  1  0  0  0  0
 14 15  1  0  0  0  0
 15 16  1  0  0  0  0
M  END
>  <cdx:fragmentId>
392

$$$$
