15013.cdx
  Mrv1902 05222410202D          

 31 32  0  0  0  0            999 V2000
    3.9055   -8.9100    0.0000 C   0  0  0  0  0  0  0  0  0  0  0  0
    3.9055   -9.7350    0.0000 C   0  0  0  0  0  0  0  0  0  0  0  0
    4.6200  -10.1475    0.0000 C   0  0  0  0  0  0  0  0  0  0  0  0
    5.3345   -9.7350    0.0000 C   0  0  0  0  0  0  0  0  0  0  0  0
    5.3345   -8.9100    0.0000 C   0  0  0  0  0  0  0  0  0  0  0  0
    4.6200   -8.4975    0.0000 C   0  0  0  0  0  0  0  0  0  0  0  0
    6.0489   -8.4975    0.0000 C   0  0  0  0  0  0  0  0  0  0  0  0
    6.0489   -7.6725    0.0000 O   0  0  0  0  0  0  0  0  0  0  0  0
    6.7634   -8.9100    0.0000 C   0  0  0  0  0  0  0  0  0  0  0  0
    7.4779   -8.4975    0.0000 C   0  0  0  0  0  0  0  0  0  0  0  0
    8.1924   -8.9100    0.0000 C   0  0  0  0  0  0  0  0  0  0  0  0
    8.1924   -9.7350    0.0000 C   0  0  0  0  0  0  0  0  0  0  0  0
    8.9068  -10.1475    0.0000 C   0  0  0  0  0  0  0  0  0  0  0  0
    9.6213   -9.7350    0.0000 C   0  0  0  0  0  0  0  0  0  0  0  0
    9.6213   -8.9100    0.0000 C   0  0  0  0  0  0  0  0  0  0  0  0
    8.9068   -8.4975    0.0000 C   0  0  0  0  0  0  0  0  0  0  0  0
    4.6200   -7.6725    0.0000 O   0  0  0  0  0  0  0  0  0  0  0  0
    3.1911  -10.1475    0.0000 O   0  0  0  0  0  0  0  0  0  0  0  0
    6.0489  -10.1475    0.0000 O   0  0  0  0  0  0  0  0  0  0  0  0
   10.3358   -8.4975    0.0000 O   0  0  0  0  0  0  0  0  0  0  0  0
   10.3358  -10.1475    0.0000 O   0  0  0  0  0  0  0  0  0  0  0  0
    3.1911   -8.4975    0.0000 C   0  0  0  0  0  0  0  0  0  0  0  0
    2.4766   -8.9100    0.0000 C   0  0  0  0  0  0  0  0  0  0  0  0
    1.7621   -8.4975    0.0000 C   0  0  0  0  0  0  0  0  0  0  0  0
    1.0476   -8.9100    0.0000 C   0  0  0  0  0  0  0  0  0  0  0  0
    1.7621   -7.6725    0.0000 C   0  0  0  0  0  0  0  0  0  0  0  0
    8.9068  -10.9725    0.0000 C   0  0  0  0  0  0  0  0  0  0  0  0
    9.6213  -11.3850    0.0000 C   0  0  0  0  0  0  0  0  0  0  0  0
    9.6213  -12.2100    0.0000 C   0  0  0  0  0  0  0  0  0  0  0  0
   10.3358  -12.6225    0.0000 C   0  0  0  0  0  0  0  0  0  0  0  0
    8.9068  -12.6225    0.0000 C   0  0  0  0  0  0  0  0  0  0  0  0
  1  2  2  0  0  0  0
  2  3  1  0  0  0  0
  3  4  2  0  0  0  0
  4  5  1  0  0  0  0
  5  6  2  0  0  0  0
  6  1  1  0  0  0  0
  5  7  1  0  0  0  0
  7  8  2  0  0  0  0
  7  9  1  0  0  0  0
  9 10  1  0  0  0  0
 10 11  1  0  0  0  0
 11 12  2  0  0  0  0
 12 13  1  0  0  0  0
 13 14  2  0  0  0  0
 14 15  1  0  0  0  0
 15 16  2  0  0  0  0
 16 11  1  0  0  0  0
  6 17  1  0  0  0  0
  2 18  1  0  0  0  0
  4 19  1  0  0  0  0
 15 20  1  0  0  0  0
 14 21  1  0  0  0  0
  1 22  1  0  0  0  0
 22 23  1  0  0  0  0
 23 24  2  0  0  0  0
 24 25  1  0  0  0  0
 24 26  1  0  0  0  0
 13 27  1  0  0  0  0
 27 28  1  0  0  0  0
 28 29  2  0  0  0  0
 29 30  1  0  0  0  0
 29 31  1  0  0  0  0
M  END
>  <cdx:fragmentId>
272

$$$$
