15012.cdx
  Mrv1902 05222410202D          

 31 34  0  0  0  0            999 V2000
    6.4630   -7.9475    0.0000 C   0  0  0  0  0  0  0  0  0  0  0  0
    6.4630   -8.7725    0.0000 C   0  0  0  0  0  0  0  0  0  0  0  0
    7.1775   -9.1850    0.0000 C   0  0  0  0  0  0  0  0  0  0  0  0
    7.8920   -8.7725    0.0000 C   0  0  0  0  0  0  0  0  0  0  0  0
    7.8920   -7.9475    0.0000 C   0  0  0  0  0  0  0  0  0  0  0  0
    7.1775   -7.5350    0.0000 C   0  0  0  0  0  0  0  0  0  0  0  0
    8.6064   -9.1850    0.0000 C   0  0  0  0  0  0  0  0  0  0  0  0
    9.3209   -8.7725    0.0000 C   0  0  0  0  0  0  0  0  0  0  0  0
    9.3209   -7.9475    0.0000 C   0  0  0  0  0  0  0  0  0  0  0  0
    8.6064   -7.5350    0.0000 O   0  0  0  0  0  0  0  0  0  0  0  0
   10.0354   -9.1850    0.0000 C   0  0  0  0  0  0  0  0  0  0  0  0
   10.0354  -10.0100    0.0000 C   0  0  0  0  0  0  0  0  0  0  0  0
   10.7499  -10.4225    0.0000 C   0  0  0  0  0  0  0  0  0  0  0  0
   11.4643  -10.0100    0.0000 C   0  0  0  0  0  0  0  0  0  0  0  0
   11.4643   -9.1850    0.0000 C   0  0  0  0  0  0  0  0  0  0  0  0
   10.7499   -8.7725    0.0000 C   0  0  0  0  0  0  0  0  0  0  0  0
    8.6064  -10.0100    0.0000 O   0  0  0  0  0  0  0  0  0  0  0  0
    9.3209  -10.4225    0.0000 C   0  0  0  0  0  0  0  0  0  0  0  0
   10.0354   -7.5350    0.0000 O   0  0  0  0  0  0  0  0  0  0  0  0
    5.7486   -7.5350    0.0000 O   0  0  0  0  0  0  0  0  0  0  0  0
    5.0341   -7.9475    0.0000 C   0  0  2  0  0  0  0  0  0  0  0  0
    4.3196   -7.5350    0.0000 O   0  0  0  0  0  0  0  0  0  0  0  0
    3.6051   -7.9475    0.0000 C   0  0  1  0  0  0  0  0  0  0  0  0
    3.6051   -8.7725    0.0000 C   0  0  2  0  0  0  0  0  0  0  0  0
    4.3196   -9.1850    0.0000 C   0  0  1  0  0  0  0  0  0  0  0  0
    5.0341   -8.7725    0.0000 C   0  0  1  0  0  0  0  0  0  0  0  0
    2.8907   -7.5350    0.0000 C   0  0  0  0  0  0  0  0  0  0  0  0
    4.3196  -10.0100    0.0000 O   0  0  0  0  0  0  0  0  0  0  0  0
    2.8907   -9.1850    0.0000 O   0  0  0  0  0  0  0  0  0  0  0  0
    5.7486   -9.1850    0.0000 O   0  0  0  0  0  0  0  0  0  0  0  0
    2.1762   -7.9475    0.0000 O   0  0  0  0  0  0  0  0  0  0  0  0
  1  2  2  0  0  0  0
  2  3  1  0  0  0  0
  3  4  2  0  0  0  0
  4  5  1  0  0  0  0
  5  6  2  0  0  0  0
  6  1  1  0  0  0  0
  4  7  1  0  0  0  0
  7  8  1  0  0  0  0
  8  9  1  0  0  0  0
  9 10  1  0  0  0  0
 10  5  1  0  0  0  0
  8 11  1  0  0  0  0
 11 12  2  0  0  0  0
 12 13  1  0  0  0  0
 13 14  2  0  0  0  0
 14 15  1  0  0  0  0
 15 16  2  0  0  0  0
 16 11  1  0  0  0  0
  7 17  1  0  0  0  0
 17 18  1  0  0  0  0
  9 19  1  0  0  0  0
  1 20  1  0  0  0  0
 21 20  1  1  0  0  0
 21 22  1  0  0  0  0
 22 23  1  0  0  0  0
 23 24  1  0  0  0  0
 24 25  1  0  0  0  0
 25 26  1  0  0  0  0
 26 21  1  0  0  0  0
 23 27  1  1  0  0  0
 25 28  1  1  0  0  0
 24 29  1  6  0  0  0
 26 30  1  6  0  0  0
 27 31  1  0  0  0  0
M  END
>  <cdx:fragmentId>
148

$$$$
