15022.cdx
  Mrv1902 05222410262D          

 24 27  0  0  0  0            999 V2000
    4.1255   -8.9100    0.0000 C   0  0  0  0  0  0  0  0  0  0  0  0
    4.1255   -9.7350    0.0000 C   0  0  0  0  0  0  0  0  0  0  0  0
    4.8400  -10.1475    0.0000 C   0  0  0  0  0  0  0  0  0  0  0  0
    5.5545   -9.7350    0.0000 C   0  0  0  0  0  0  0  0  0  0  0  0
    5.5545   -8.9100    0.0000 C   0  0  0  0  0  0  0  0  0  0  0  0
    4.8400   -8.4975    0.0000 O   0  0  0  0  0  0  0  0  0  0  0  0
    6.2689  -10.1475    0.0000 C   0  0  0  0  0  0  0  0  0  0  0  0
    6.9834   -9.7350    0.0000 C   0  0  0  0  0  0  0  0  0  0  0  0
    6.9834   -8.9100    0.0000 C   0  0  0  0  0  0  0  0  0  0  0  0
    6.2689   -8.4975    0.0000 C   0  0  0  0  0  0  0  0  0  0  0  0
    7.6979  -10.1475    0.0000 C   0  0  0  0  0  0  0  0  0  0  0  0
    8.4124   -9.7350    0.0000 C   0  0  0  0  0  0  0  0  0  0  0  0
    8.4124   -8.9100    0.0000 C   0  0  0  0  0  0  0  0  0  0  0  0
    7.6979   -8.4975    0.0000 O   0  0  0  0  0  0  0  0  0  0  0  0
    9.1268   -8.4975    0.0000 C   0  0  0  0  0  0  0  0  0  0  0  0
    9.8413   -8.9100    0.0000 C   0  0  0  0  0  0  0  0  0  0  0  0
   10.5558   -8.4975    0.0000 C   0  0  0  0  0  0  0  0  0  0  0  0
   10.5558   -7.6725    0.0000 C   0  0  0  0  0  0  0  0  0  0  0  0
    9.8413   -7.2600    0.0000 C   0  0  0  0  0  0  0  0  0  0  0  0
    9.1268   -7.6725    0.0000 C   0  0  0  0  0  0  0  0  0  0  0  0
   11.2702   -7.2600    0.0000 O   0  0  0  0  0  0  0  0  0  0  0  0
    3.4111   -8.4975    0.0000 C   0  0  0  0  0  0  0  0  0  0  0  0
    4.1255   -8.0850    0.0000 C   0  0  0  0  0  0  0  0  0  0  0  0
    7.6979  -10.9725    0.0000 O   0  0  0  0  0  0  0  0  0  0  0  0
  1  2  1  0  0  0  0
  2  3  2  0  0  0  0
  3  4  1  0  0  0  0
  4  5  1  0  0  0  0
  5  6  1  0  0  0  0
  6  1  1  0  0  0  0
  4  7  2  0  0  0  0
  7  8  1  0  0  0  0
  8  9  2  0  0  0  0
  9 10  1  0  0  0  0
 10  5  2  0  0  0  0
  8 11  1  0  0  0  0
 11 12  1  0  0  0  0
 12 13  2  0  0  0  0
 13 14  1  0  0  0  0
 14  9  1  0  0  0  0
 13 15  1  0  0  0  0
 15 16  2  0  0  0  0
 16 17  1  0  0  0  0
 17 18  2  0  0  0  0
 18 19  1  0  0  0  0
 19 20  2  0  0  0  0
 20 15  1  0  0  0  0
 18 21  1  0  0  0  0
  1 22  1  0  0  0  0
  1 23  1  0  0  0  0
 11 24  2  0  0  0  0
M  END
>  <cdx:fragmentId>
5

$$$$
