15027.cdx
  Mrv1902 05222410282D          

 26 28  0  0  0  0            999 V2000
    4.4995   -7.7756    0.0000 C   0  0  0  0  0  0  0  0  0  0  0  0
    4.4995   -8.6006    0.0000 C   0  0  0  0  0  0  0  0  0  0  0  0
    5.2140   -9.0131    0.0000 C   0  0  0  0  0  0  0  0  0  0  0  0
    5.9285   -8.6006    0.0000 C   0  0  0  0  0  0  0  0  0  0  0  0
    5.9285   -7.7756    0.0000 C   0  0  0  0  0  0  0  0  0  0  0  0
    5.2140   -7.3631    0.0000 C   0  0  0  0  0  0  0  0  0  0  0  0
    6.6429   -9.0131    0.0000 O   0  0  0  0  0  0  0  0  0  0  0  0
    7.3574   -8.6006    0.0000 C   0  0  0  0  0  0  0  0  0  0  0  0
    7.3574   -7.7756    0.0000 C   0  0  2  0  0  0  0  0  0  0  0  0
    6.6429   -7.3631    0.0000 C   0  0  0  0  0  0  0  0  0  0  0  0
    3.7851   -9.0131    0.0000 O   0  0  0  0  0  0  0  0  0  0  0  0
    8.0719   -7.3631    0.0000 C   0  0  0  0  0  0  0  0  0  0  0  0
    8.7864   -7.7756    0.0000 C   0  0  0  0  0  0  0  0  0  0  0  0
    9.5008   -7.3631    0.0000 C   0  0  0  0  0  0  0  0  0  0  0  0
    9.5008   -6.5381    0.0000 C   0  0  0  0  0  0  0  0  0  0  0  0
    8.7864   -6.1256    0.0000 C   0  0  0  0  0  0  0  0  0  0  0  0
    8.0719   -6.5381    0.0000 C   0  0  0  0  0  0  0  0  0  0  0  0
    7.3574   -6.1256    0.0000 O   0  0  0  0  0  0  0  0  0  0  0  0
   10.2153   -6.1256    0.0000 O   0  0  0  0  0  0  0  0  0  0  0  0
    8.7864   -5.3006    0.0000 C   0  0  0  0  0  0  0  0  0  0  0  0
    9.5008   -4.8881    0.0000 C   0  0  0  0  0  0  0  0  0  0  0  0
    9.5008   -4.0631    0.0000 C   0  0  0  0  0  0  0  0  0  0  0  0
   10.2153   -3.6506    0.0000 C   0  0  0  0  0  0  0  0  0  0  0  0
    8.7864   -3.6506    0.0000 C   0  0  0  0  0  0  0  0  0  0  0  0
   10.9298   -6.5381    0.0000 C   0  0  0  0  0  0  0  0  0  0  0  0
    7.3574   -6.9506    0.0000 H   0  0  0  0  0  0  0  0  0  0  0  0
  1  2  1  0  0  0  0
  2  3  2  0  0  0  0
  3  4  1  0  0  0  0
  4  5  2  0  0  0  0
  5  6  1  0  0  0  0
  6  1  2  0  0  0  0
  4  7  1  0  0  0  0
  7  8  1  0  0  0  0
  8  9  1  0  0  0  0
  9 10  1  0  0  0  0
 10  5  1  0  0  0  0
  2 11  1  0  0  0  0
  9 12  1  0  0  0  0
 12 13  1  0  0  0  0
 13 14  2  0  0  0  0
 14 15  1  0  0  0  0
 15 16  2  0  0  0  0
 16 17  1  0  0  0  0
 17 12  2  0  0  0  0
 17 18  1  0  0  0  0
 15 19  1  0  0  0  0
 16 20  1  0  0  0  0
 20 21  1  0  0  0  0
 21 22  2  0  0  0  0
 22 23  1  0  0  0  0
 22 24  1  0  0  0  0
 19 25  1  0  0  0  0
  9 26  1  1  0  0  0
M  END
>  <cdx:fragmentId>
5

$$$$
