15026.cdx
  Mrv1902 05222410282D          

 30 32  0  0  0  0            999 V2000
    4.3070   -4.3381    0.0000 C   0  0  0  0  0  0  0  0  0  0  0  0
    4.3070   -5.1631    0.0000 C   0  0  0  0  0  0  0  0  0  0  0  0
    5.0215   -5.5756    0.0000 C   0  0  0  0  0  0  0  0  0  0  0  0
    5.7360   -5.1631    0.0000 C   0  0  0  0  0  0  0  0  0  0  0  0
    5.7360   -4.3381    0.0000 C   0  0  0  0  0  0  0  0  0  0  0  0
    5.0215   -3.9256    0.0000 C   0  0  0  0  0  0  0  0  0  0  0  0
    6.4504   -5.5756    0.0000 O   0  0  0  0  0  0  0  0  0  0  0  0
    7.1649   -5.1631    0.0000 C   0  0  0  0  0  0  0  0  0  0  0  0
    7.1649   -4.3381    0.0000 C   0  0  0  0  0  0  0  0  0  0  0  0
    6.4504   -3.9256    0.0000 C   0  0  0  0  0  0  0  0  0  0  0  0
    3.5926   -5.5756    0.0000 O   0  0  0  0  0  0  0  0  0  0  0  0
    6.4504   -3.1006    0.0000 O   0  0  0  0  0  0  0  0  0  0  0  0
    5.0215   -3.1006    0.0000 O   0  0  0  0  0  0  0  0  0  0  0  0
    3.5926   -3.9256    0.0000 C   0  0  0  0  0  0  0  0  0  0  0  0
    2.8781   -4.3381    0.0000 C   0  0  0  0  0  0  0  0  0  0  0  0
    2.1636   -3.9256    0.0000 C   0  0  0  0  0  0  0  0  0  0  0  0
    1.4491   -4.3381    0.0000 C   0  0  0  0  0  0  0  0  0  0  0  0
    2.1636   -3.1006    0.0000 C   0  0  0  0  0  0  0  0  0  0  0  0
    7.8794   -5.5756    0.0000 C   0  0  0  0  0  0  0  0  0  0  0  0
    7.8794   -6.4006    0.0000 C   0  0  0  0  0  0  0  0  0  0  0  0
    8.5939   -6.8131    0.0000 C   0  0  0  0  0  0  0  0  0  0  0  0
    9.3083   -6.4006    0.0000 C   0  0  0  0  0  0  0  0  0  0  0  0
    9.3083   -5.5756    0.0000 C   0  0  0  0  0  0  0  0  0  0  0  0
    8.5939   -5.1631    0.0000 C   0  0  0  0  0  0  0  0  0  0  0  0
   10.0228   -6.8131    0.0000 O   0  0  0  0  0  0  0  0  0  0  0  0
    8.5939   -7.6381    0.0000 C   0  0  0  0  0  0  0  0  0  0  0  0
    9.3083   -8.0506    0.0000 C   0  0  0  0  0  0  0  0  0  0  0  0
    9.3083   -8.8756    0.0000 C   0  0  0  0  0  0  0  0  0  0  0  0
    8.5939   -9.2881    0.0000 C   0  0  0  0  0  0  0  0  0  0  0  0
   10.0228   -9.2881    0.0000 C   0  0  0  0  0  0  0  0  0  0  0  0
  1  2  1  0  0  0  0
  2  3  2  0  0  0  0
  3  4  1  0  0  0  0
  4  5  2  0  0  0  0
  5  6  1  0  0  0  0
  6  1  2  0  0  0  0
  4  7  1  0  0  0  0
  7  8  1  0  0  0  0
  8  9  2  0  0  0  0
  9 10  1  0  0  0  0
 10  5  1  0  0  0  0
  2 11  1  0  0  0  0
 10 12  2  0  0  0  0
  6 13  1  0  0  0  0
  1 14  1  0  0  0  0
 14 15  1  0  0  0  0
 15 16  2  0  0  0  0
 16 17  1  0  0  0  0
 16 18  1  0  0  0  0
  8 19  1  0  0  0  0
 19 20  2  0  0  0  0
 20 21  1  0  0  0  0
 21 22  2  0  0  0  0
 22 23  1  0  0  0  0
 23 24  2  0  0  0  0
 24 19  1  0  0  0  0
 22 25  1  0  0  0  0
 21 26  1  0  0  0  0
 26 27  1  0  0  0  0
 27 28  2  0  0  0  0
 28 29  1  0  0  0  0
 28 30  1  0  0  0  0
M  END
>  <cdx:fragmentId>
5

$$$$
