15029.cdx
  Mrv1902 05222410182D          

 26 29  0  0  0  0            999 V2000
    7.3705   -8.1950    0.0000 C   0  0  0  0  0  0  0  0  0  0  0  0
    7.3705   -9.0200    0.0000 C   0  0  0  0  0  0  0  0  0  0  0  0
    8.0850   -9.4325    0.0000 C   0  0  0  0  0  0  0  0  0  0  0  0
    8.7995   -9.0200    0.0000 C   0  0  0  0  0  0  0  0  0  0  0  0
    8.7995   -8.1950    0.0000 C   0  0  0  0  0  0  0  0  0  0  0  0
    8.0850   -7.7825    0.0000 O   0  0  0  0  0  0  0  0  0  0  0  0
    9.5139   -9.4325    0.0000 C   0  0  0  0  0  0  0  0  0  0  0  0
   10.2284   -9.0200    0.0000 C   0  0  0  0  0  0  0  0  0  0  0  0
   10.2284   -8.1950    0.0000 C   0  0  0  0  0  0  0  0  0  0  0  0
    9.5139   -7.7825    0.0000 C   0  0  0  0  0  0  0  0  0  0  0  0
   10.9429   -7.7825    0.0000 O   0  0  0  0  0  0  0  0  0  0  0  0
   10.9429   -6.9575    0.0000 C   0  0  0  0  0  0  0  0  0  0  0  0
   10.2284   -6.5450    0.0000 C   0  0  0  0  0  0  0  0  0  0  0  0
    9.5139   -6.9575    0.0000 C   0  0  0  0  0  0  0  0  0  0  0  0
    8.0850  -10.2575    0.0000 O   0  0  0  0  0  0  0  0  0  0  0  0
   11.6574   -6.5450    0.0000 C   0  0  0  0  0  0  0  0  0  0  0  0
   10.9429   -6.1325    0.0000 C   0  0  0  0  0  0  0  0  0  0  0  0
    6.6561   -7.7825    0.0000 O   0  0  0  0  0  0  0  0  0  0  0  0
    5.9416   -8.1950    0.0000 C   0  0  0  0  0  0  0  0  0  0  0  0
    5.2271   -7.7825    0.0000 C   0  0  0  0  0  0  0  0  0  0  0  0
    4.5126   -8.1950    0.0000 C   0  0  0  0  0  0  0  0  0  0  0  0
    4.5126   -9.0200    0.0000 C   0  0  0  0  0  0  0  0  0  0  0  0
    5.2271   -9.4325    0.0000 C   0  0  0  0  0  0  0  0  0  0  0  0
    5.9416   -9.0200    0.0000 C   0  0  0  0  0  0  0  0  0  0  0  0
    5.2271   -6.9575    0.0000 O   0  0  0  0  0  0  0  0  0  0  0  0
    3.7982   -9.4325    0.0000 O   0  0  0  0  0  0  0  0  0  0  0  0
  1  2  2  0  0  0  0
  2  3  1  0  0  0  0
  3  4  1  0  0  0  0
  4  5  2  0  0  0  0
  5  6  1  0  0  0  0
  6  1  1  0  0  0  0
  4  7  1  0  0  0  0
  7  8  2  0  0  0  0
  8  9  1  0  0  0  0
  9 10  2  0  0  0  0
 10  5  1  0  0  0  0
  9 11  1  0  0  0  0
 11 12  1  0  0  0  0
 12 13  1  0  0  0  0
 13 14  2  0  0  0  0
 14 10  1  0  0  0  0
  3 15  2  0  0  0  0
 12 16  1  0  0  0  0
 12 17  1  0  0  0  0
  1 18  1  0  0  0  0
 18 19  1  0  0  0  0
 19 20  2  0  0  0  0
 20 21  1  0  0  0  0
 21 22  2  0  0  0  0
 22 23  1  0  0  0  0
 23 24  2  0  0  0  0
 24 19  1  0  0  0  0
 20 25  1  0  0  0  0
 22 26  1  0  0  0  0
M  END
>  <cdx:fragmentId>
199

$$$$
