15021.cdx
  Mrv1902 05222410272D          

 25 26  0  0  0  0            999 V2000
    6.4630   -9.6525    0.0000 C   0  0  0  0  0  0  0  0  0  0  0  0
    6.4630  -10.4775    0.0000 C   0  0  0  0  0  0  0  0  0  0  0  0
    7.1775  -10.8900    0.0000 C   0  0  0  0  0  0  0  0  0  0  0  0
    7.8920  -10.4775    0.0000 C   0  0  0  0  0  0  0  0  0  0  0  0
    7.8920   -9.6525    0.0000 C   0  0  0  0  0  0  0  0  0  0  0  0
    7.1775   -9.2400    0.0000 C   0  0  0  0  0  0  0  0  0  0  0  0
    5.7486  -10.8900    0.0000 C   0  0  0  0  0  0  0  0  0  0  0  0
    5.0341  -10.4775    0.0000 C   0  0  0  0  0  0  0  0  0  0  0  0
    4.3196  -10.8900    0.0000 C   0  0  0  0  0  0  0  0  0  0  0  0
    3.6051  -10.4775    0.0000 C   0  0  0  0  0  0  0  0  0  0  0  0
    4.3196  -11.7150    0.0000 C   0  0  0  0  0  0  0  0  0  0  0  0
    7.1775  -11.7150    0.0000 O   0  0  0  0  0  0  0  0  0  0  0  0
    8.6064  -10.8900    0.0000 O   0  0  0  0  0  0  0  0  0  0  0  0
    7.1775   -8.4150    0.0000 C   0  0  0  0  0  0  0  0  0  0  0  0
    7.8920   -8.0025    0.0000 C   0  0  0  0  0  0  0  0  0  0  0  0
    7.8920   -7.1775    0.0000 C   0  0  0  0  0  0  0  0  0  0  0  0
    7.1775   -6.7650    0.0000 O   0  0  0  0  0  0  0  0  0  0  0  0
    8.6064   -6.7650    0.0000 C   0  0  0  0  0  0  0  0  0  0  0  0
    9.3209   -7.1775    0.0000 C   0  0  0  0  0  0  0  0  0  0  0  0
   10.0354   -6.7650    0.0000 C   0  0  0  0  0  0  0  0  0  0  0  0
   10.0354   -5.9400    0.0000 C   0  0  0  0  0  0  0  0  0  0  0  0
    9.3209   -5.5275    0.0000 C   0  0  0  0  0  0  0  0  0  0  0  0
    8.6064   -5.9400    0.0000 C   0  0  0  0  0  0  0  0  0  0  0  0
   10.7499   -5.5275    0.0000 O   0  0  0  0  0  0  0  0  0  0  0  0
    9.3209   -8.0025    0.0000 O   0  0  0  0  0  0  0  0  0  0  0  0
  1  2  1  0  0  0  0
  2  3  2  0  0  0  0
  3  4  1  0  0  0  0
  4  5  2  0  0  0  0
  5  6  1  0  0  0  0
  6  1  2  0  0  0  0
  2  7  1  0  0  0  0
  7  8  1  0  0  0  0
  8  9  2  0  0  0  0
  9 10  1  0  0  0  0
  9 11  1  0  0  0  0
  3 12  1  0  0  0  0
  4 13  1  0  0  0  0
  6 14  1  0  0  0  0
 14 15  2  0  0  0  0
 15 16  1  0  0  0  0
 16 17  2  0  0  0  0
 16 18  1  0  0  0  0
 18 19  2  0  0  0  0
 19 20  1  0  0  0  0
 20 21  2  0  0  0  0
 21 22  1  0  0  0  0
 22 23  2  0  0  0  0
 23 18  1  0  0  0  0
 21 24  1  0  0  0  0
 19 25  1  0  0  0  0
M  END
>  <cdx:fragmentId>
535

$$$$
