15035.cdx
  Mrv1902 05222410272D          

 40 43  0  0  0  0            999 V2000
    4.2355   -9.8175    0.0000 C   0  0  0  0  0  0  0  0  0  0  0  0
    4.2355  -10.6425    0.0000 C   0  0  0  0  0  0  0  0  0  0  0  0
    4.9500  -11.0550    0.0000 C   0  0  0  0  0  0  0  0  0  0  0  0
    5.6645  -10.6425    0.0000 C   0  0  0  0  0  0  0  0  0  0  0  0
    5.6645   -9.8175    0.0000 C   0  0  0  0  0  0  0  0  0  0  0  0
    4.9500   -9.4050    0.0000 C   0  0  0  0  0  0  0  0  0  0  0  0
    6.3789  -11.0550    0.0000 C   0  0  0  0  0  0  0  0  0  0  0  0
    7.0934  -10.6425    0.0000 C   0  0  0  0  0  0  0  0  0  0  0  0
    6.3789  -11.8800    0.0000 O   0  0  0  0  0  0  0  0  0  0  0  0
    7.0934   -9.8175    0.0000 C   0  0  0  0  0  0  0  0  0  0  0  0
    7.8079   -9.4050    0.0000 C   0  0  0  0  0  0  0  0  0  0  0  0
    8.5224   -9.8175    0.0000 C   0  0  0  0  0  0  0  0  0  0  0  0
    9.2368   -9.4050    0.0000 C   0  0  0  0  0  0  0  0  0  0  0  0
    9.2368   -8.5800    0.0000 C   0  0  0  0  0  0  0  0  0  0  0  0
    8.5224   -8.1675    0.0000 C   0  0  0  0  0  0  0  0  0  0  0  0
    7.8079   -8.5800    0.0000 C   0  0  0  0  0  0  0  0  0  0  0  0
    4.9500  -11.8800    0.0000 O   0  0  0  0  0  0  0  0  0  0  0  0
    9.9513   -9.8175    0.0000 O   0  0  0  0  0  0  0  0  0  0  0  0
    9.9513   -8.1675    0.0000 O   0  0  0  0  0  0  0  0  0  0  0  0
    9.9513   -7.3425    0.0000 C   0  0  2  0  0  0  0  0  0  0  0  0
   10.6658   -6.9300    0.0000 O   0  0  0  0  0  0  0  0  0  0  0  0
   10.6658   -6.1050    0.0000 C   0  0  1  0  0  0  0  0  0  0  0  0
    9.9513   -5.6925    0.0000 C   0  0  2  0  0  0  0  0  0  0  0  0
    9.2368   -6.1050    0.0000 C   0  0  1  0  0  0  0  0  0  0  0  0
    9.2368   -6.9300    0.0000 C   0  0  1  0  0  0  0  0  0  0  0  0
   11.3802   -5.6925    0.0000 C   0  0  0  0  0  0  0  0  0  0  0  0
    8.5224   -5.6925    0.0000 O   0  0  0  0  0  0  0  0  0  0  0  0
    8.5224   -7.3425    0.0000 O   0  0  0  0  0  0  0  0  0  0  0  0
    9.9513   -4.8675    0.0000 O   0  0  0  0  0  0  0  0  0  0  0  0
   11.3802   -4.8675    0.0000 O   0  0  0  0  0  0  0  0  0  0  0  0
    7.7060   -7.3281    0.0000 C   0  0  1  0  0  0  0  0  0  0  0  0
    7.2421   -6.6459    0.0000 C   0  0  1  0  0  0  0  0  0  0  0  0
    6.4499   -6.8763    0.0000 C   0  0  1  0  0  0  0  0  0  0  0  0
    6.4242   -7.7009    0.0000 C   0  0  0  0  0  0  0  0  0  0  0  0
    7.2006   -7.9801    0.0000 O   0  0  0  0  0  0  0  0  0  0  0  0
    7.5213   -5.8696    0.0000 O   0  0  0  0  0  0  0  0  0  0  0  0
    5.6253   -6.8506    0.0000 O   0  0  0  0  0  0  0  0  0  0  0  0
    6.2639   -6.1596    0.0000 C   0  0  0  0  0  0  0  0  0  0  0  0
    5.4740   -5.9214    0.0000 O   0  0  0  0  0  0  0  0  0  0  0  0
    3.5211   -9.4050    0.0000 O   0  0  0  0  0  0  0  0  0  0  0  0
  1  2  1  0  0  0  0
  2  3  2  0  0  0  0
  3  4  1  0  0  0  0
  4  5  2  0  0  0  0
  5  6  1  0  0  0  0
  6  1  2  0  0  0  0
  4  7  1  0  0  0  0
  7  8  1  0  0  0  0
  7  9  2  0  0  0  0
  8 10  2  0  0  0  0
 10 11  1  0  0  0  0
 11 12  2  0  0  0  0
 12 13  1  0  0  0  0
 13 14  2  0  0  0  0
 14 15  1  0  0  0  0
 15 16  2  0  0  0  0
 16 11  1  0  0  0  0
  3 17  1  0  0  0  0
 13 18  1  0  0  0  0
 14 19  1  0  0  0  0
 20 19  1  1  0  0  0
 20 21  1  0  0  0  0
 21 22  1  0  0  0  0
 22 23  1  0  0  0  0
 23 24  1  0  0  0  0
 24 25  1  0  0  0  0
 25 20  1  0  0  0  0
 22 26  1  1  0  0  0
 24 27  1  1  0  0  0
 25 28  1  6  0  0  0
 23 29  1  6  0  0  0
 26 30  1  0  0  0  0
 31 32  1  0  0  0  0
 32 33  1  0  0  0  0
 33 34  1  0  0  0  0
 34 35  1  0  0  0  0
 35 31  1  0  0  0  0
 32 36  1  1  0  0  0
 33 37  1  1  0  0  0
 33 38  1  0  0  0  0
 38 39  1  0  0  0  0
 31 28  1  6  0  0  0
  1 40  1  0  0  0  0
M  END
>  <cdx:fragmentId>
255

$$$$
