15038.cdx
  Mrv1902 05222410192D          

 42 47  0  0  0  0            999 V2000
    5.5555   -8.4700    0.0000 C   0  0  0  0  0  0  0  0  0  0  0  0
    5.5555   -9.2950    0.0000 C   0  0  0  0  0  0  0  0  0  0  0  0
    6.2700   -9.7075    0.0000 C   0  0  0  0  0  0  0  0  0  0  0  0
    6.9845   -9.2950    0.0000 C   0  0  0  0  0  0  0  0  0  0  0  0
    6.9845   -8.4700    0.0000 C   0  0  0  0  0  0  0  0  0  0  0  0
    6.2700   -8.0575    0.0000 C   0  0  0  0  0  0  0  0  0  0  0  0
    7.6989   -9.7075    0.0000 C   0  0  1  0  0  0  0  0  0  0  0  0
    8.4134   -9.2950    0.0000 C   0  0  1  0  0  0  0  0  0  0  0  0
    8.4134   -8.4700    0.0000 C   0  0  0  0  0  0  0  0  0  0  0  0
    7.6989   -8.0575    0.0000 O   0  0  0  0  0  0  0  0  0  0  0  0
    7.8705  -10.5145    0.0000 O   0  0  0  0  0  0  0  0  0  0  0  0
    8.6909  -10.6007    0.0000 C   0  0  0  0  0  0  0  0  0  0  0  0
    9.0265   -9.8470    0.0000 C   0  0  0  0  0  0  0  0  0  0  0  0
    9.1759  -11.2681    0.0000 C   0  0  0  0  0  0  0  0  0  0  0  0
    9.9964  -11.1819    0.0000 C   0  0  0  0  0  0  0  0  0  0  0  0
   10.3319  -10.4282    0.0000 C   0  0  0  0  0  0  0  0  0  0  0  0
    9.8470   -9.7608    0.0000 C   0  0  0  0  0  0  0  0  0  0  0  0
   10.4813  -11.8493    0.0000 O   0  0  0  0  0  0  0  0  0  0  0  0
   11.3018  -11.7631    0.0000 C   0  0  0  0  0  0  0  0  0  0  0  0
    4.8411   -8.0575    0.0000 O   0  0  0  0  0  0  0  0  0  0  0  0
    9.1279   -8.8825    0.0000 H   0  0  0  0  0  0  0  0  0  0  0  0
    7.0315  -10.1924    0.0000 H   0  0  0  0  0  0  0  0  0  0  0  0
    4.1380   -8.4908    0.0000 C   0  0  2  0  0  0  0  0  0  0  0  0
    3.4219   -8.0811    0.0000 O   0  0  0  0  0  0  0  0  0  0  0  0
    2.7091   -8.4964    0.0000 C   0  0  1  0  0  0  0  0  0  0  0  0
    2.7123   -9.3214    0.0000 C   0  0  2  0  0  0  0  0  0  0  0  0
    3.4284   -9.7311    0.0000 C   0  0  1  0  0  0  0  0  0  0  0  0
    4.1412   -9.3158    0.0000 C   0  0  1  0  0  0  0  0  0  0  0  0
    1.9930   -8.0867    0.0000 C   0  0  0  0  0  0  0  0  0  0  0  0
    3.4316  -10.5561    0.0000 O   0  0  0  0  0  0  0  0  0  0  0  0
    4.8573   -9.7255    0.0000 O   0  0  0  0  0  0  0  0  0  0  0  0
    1.9994   -9.7367    0.0000 O   0  0  0  0  0  0  0  0  0  0  0  0
    1.2801   -8.5020    0.0000 O   0  0  0  0  0  0  0  0  0  0  0  0
    5.1634  -10.4824    0.0000 C   0  0  1  0  0  0  0  0  0  0  0  0
    4.7171  -11.1763    0.0000 C   0  0  1  0  0  0  0  0  0  0  0  0
    5.2391  -11.8152    0.0000 C   0  0  1  0  0  0  0  0  0  0  0  0
    6.0080  -11.5161    0.0000 C   0  0  0  0  0  0  0  0  0  0  0  0
    5.9613  -10.6925    0.0000 O   0  0  0  0  0  0  0  0  0  0  0  0
    3.8935  -11.2231    0.0000 O   0  0  0  0  0  0  0  0  0  0  0  0
    5.5382  -12.5841    0.0000 O   0  0  0  0  0  0  0  0  0  0  0  0
    4.6523  -12.2668    0.0000 C   0  0  0  0  0  0  0  0  0  0  0  0
    4.7422  -13.0869    0.0000 O   0  0  0  0  0  0  0  0  0  0  0  0
  1  2  1  0  0  0  0
  2  3  2  0  0  0  0
  3  4  1  0  0  0  0
  4  5  2  0  0  0  0
  5  6  1  0  0  0  0
  6  1  2  0  0  0  0
  4  7  1  0  0  0  0
  7  8  1  0  0  0  0
  8  9  1  0  0  0  0
  9 10  1  0  0  0  0
 10  5  1  0  0  0  0
  7 11  1  0  0  0  0
 11 12  1  0  0  0  0
 12 13  2  0  0  0  0
 13  8  1  0  0  0  0
 12 14  1  0  0  0  0
 14 15  2  0  0  0  0
 15 16  1  0  0  0  0
 16 17  2  0  0  0  0
 17 13  1  0  0  0  0
 15 18  1  0  0  0  0
 18 19  1  0  0  0  0
  1 20  1  0  0  0  0
  8 21  1  6  0  0  0
  7 22  1  6  0  0  0
 23 24  1  0  0  0  0
 24 25  1  0  0  0  0
 25 26  1  0  0  0  0
 26 27  1  0  0  0  0
 27 28  1  0  0  0  0
 28 23  1  0  0  0  0
 25 29  1  1  0  0  0
 27 30  1  1  0  0  0
 28 31  1  6  0  0  0
 26 32  1  6  0  0  0
 29 33  1  0  0  0  0
 34 35  1  0  0  0  0
 35 36  1  0  0  0  0
 36 37  1  0  0  0  0
 37 38  1  0  0  0  0
 38 34  1  0  0  0  0
 35 39  1  1  0  0  0
 36 40  1  1  0  0  0
 36 41  1  0  0  0  0
 41 42  1  0  0  0  0
 34 31  1  6  0  0  0
 23 20  1  1  0  0  0
M  END
>  <cdx:fragmentId>
5

$$$$
