15037.cdx
  Mrv1902 05222410262D          

 31 33  0  0  0  0            999 V2000
    3.4380  -10.1200    0.0000 C   0  0  0  0  0  0  0  0  0  0  0  0
    3.4380  -10.9450    0.0000 C   0  0  0  0  0  0  0  0  0  0  0  0
    4.1525  -11.3575    0.0000 C   0  0  0  0  0  0  0  0  0  0  0  0
    4.8670  -10.9450    0.0000 C   0  0  0  0  0  0  0  0  0  0  0  0
    4.8670  -10.1200    0.0000 C   0  0  0  0  0  0  0  0  0  0  0  0
    4.1525   -9.7075    0.0000 C   0  0  0  0  0  0  0  0  0  0  0  0
    5.5814  -11.3575    0.0000 C   0  0  0  0  0  0  0  0  0  0  0  0
    6.2959  -10.9450    0.0000 C   0  0  0  0  0  0  0  0  0  0  0  0
    5.5814  -12.1825    0.0000 O   0  0  0  0  0  0  0  0  0  0  0  0
    6.2959  -10.1200    0.0000 C   0  0  0  0  0  0  0  0  0  0  0  0
    7.0104   -9.7075    0.0000 C   0  0  0  0  0  0  0  0  0  0  0  0
    7.7249  -10.1200    0.0000 C   0  0  0  0  0  0  0  0  0  0  0  0
    8.4393   -9.7075    0.0000 C   0  0  0  0  0  0  0  0  0  0  0  0
    8.4393   -8.8825    0.0000 C   0  0  0  0  0  0  0  0  0  0  0  0
    7.7249   -8.4700    0.0000 C   0  0  0  0  0  0  0  0  0  0  0  0
    7.0104   -8.8825    0.0000 C   0  0  0  0  0  0  0  0  0  0  0  0
    4.1525  -12.1825    0.0000 O   0  0  0  0  0  0  0  0  0  0  0  0
    9.1538   -8.4700    0.0000 O   0  0  0  0  0  0  0  0  0  0  0  0
    9.1538   -7.6450    0.0000 C   0  0  2  0  0  0  0  0  0  0  0  0
    9.8683   -7.2325    0.0000 O   0  0  0  0  0  0  0  0  0  0  0  0
    9.8683   -6.4075    0.0000 C   0  0  1  0  0  0  0  0  0  0  0  0
    9.1538   -5.9950    0.0000 C   0  0  2  0  0  0  0  0  0  0  0  0
    8.4393   -6.4075    0.0000 C   0  0  1  0  0  0  0  0  0  0  0  0
    8.4393   -7.2325    0.0000 C   0  0  1  0  0  0  0  0  0  0  0  0
   10.5827   -5.9950    0.0000 C   0  0  0  0  0  0  0  0  0  0  0  0
    7.7249   -5.9950    0.0000 O   0  0  0  0  0  0  0  0  0  0  0  0
    7.7249   -7.6450    0.0000 O   0  0  0  0  0  0  0  0  0  0  0  0
    9.1538   -5.1700    0.0000 O   0  0  0  0  0  0  0  0  0  0  0  0
   10.5827   -5.1700    0.0000 O   0  0  0  0  0  0  0  0  0  0  0  0
    2.7236   -9.7075    0.0000 O   0  0  0  0  0  0  0  0  0  0  0  0
    9.1538  -10.1200    0.0000 O   0  0  0  0  0  0  0  0  0  0  0  0
  1  2  1  0  0  0  0
  2  3  2  0  0  0  0
  3  4  1  0  0  0  0
  4  5  2  0  0  0  0
  5  6  1  0  0  0  0
  6  1  2  0  0  0  0
  4  7  1  0  0  0  0
  7  8  1  0  0  0  0
  7  9  2  0  0  0  0
  8 10  2  0  0  0  0
 10 11  1  0  0  0  0
 11 12  2  0  0  0  0
 12 13  1  0  0  0  0
 13 14  2  0  0  0  0
 14 15  1  0  0  0  0
 15 16  2  0  0  0  0
 16 11  1  0  0  0  0
  3 17  1  0  0  0  0
 14 18  1  0  0  0  0
 19 18  1  1  0  0  0
 19 20  1  0  0  0  0
 20 21  1  0  0  0  0
 21 22  1  0  0  0  0
 22 23  1  0  0  0  0
 23 24  1  0  0  0  0
 24 19  1  0  0  0  0
 21 25  1  1  0  0  0
 23 26  1  1  0  0  0
 24 27  1  6  0  0  0
 22 28  1  6  0  0  0
 25 29  1  0  0  0  0
  1 30  1  0  0  0  0
 13 31  1  0  0  0  0
M  END
>  <cdx:fragmentId>
255

$$$$
