15034.cdx
  Mrv1902 05222410262D          

 22 25  0  0  0  0            999 V2000
    3.6539   -5.7956    0.0000 C   0  0  0  0  0  0  0  0  0  0  0  0
    3.6539   -6.6206    0.0000 C   0  0  0  0  0  0  0  0  0  0  0  0
    4.3684   -7.0331    0.0000 C   0  0  0  0  0  0  0  0  0  0  0  0
    5.0828   -6.6206    0.0000 C   0  0  0  0  0  0  0  0  0  0  0  0
    5.0828   -5.7956    0.0000 C   0  0  0  0  0  0  0  0  0  0  0  0
    4.3684   -5.3831    0.0000 C   0  0  0  0  0  0  0  0  0  0  0  0
    5.7973   -7.0331    0.0000 C   0  0  0  0  0  0  0  0  0  0  0  0
    6.5118   -6.6206    0.0000 C   0  0  0  0  0  0  0  0  0  0  0  0
    6.5118   -5.7956    0.0000 C   0  0  0  0  0  0  0  0  0  0  0  0
    5.7973   -5.3831    0.0000 O   0  0  0  0  0  0  0  0  0  0  0  0
    2.9394   -5.3831    0.0000 O   0  0  0  0  0  0  0  0  0  0  0  0
    5.9688   -7.8401    0.0000 O   0  0  0  0  0  0  0  0  0  0  0  0
    6.7893   -7.9263    0.0000 C   0  0  0  0  0  0  0  0  0  0  0  0
    7.1249   -7.1727    0.0000 C   0  0  0  0  0  0  0  0  0  0  0  0
    4.3684   -7.8581    0.0000 O   0  0  0  0  0  0  0  0  0  0  0  0
    3.6539   -8.2706    0.0000 C   0  0  0  0  0  0  0  0  0  0  0  0
    7.2263   -5.3831    0.0000 O   0  0  0  0  0  0  0  0  0  0  0  0
    7.2742   -8.5938    0.0000 C   0  0  0  0  0  0  0  0  0  0  0  0
    8.0947   -8.5075    0.0000 C   0  0  0  0  0  0  0  0  0  0  0  0
    8.4303   -7.7539    0.0000 C   0  0  0  0  0  0  0  0  0  0  0  0
    7.9454   -7.0864    0.0000 C   0  0  0  0  0  0  0  0  0  0  0  0
    8.5797   -9.1750    0.0000 O   0  0  0  0  0  0  0  0  0  0  0  0
  1  2  1  0  0  0  0
  2  3  2  0  0  0  0
  3  4  1  0  0  0  0
  4  5  2  0  0  0  0
  5  6  1  0  0  0  0
  6  1  2  0  0  0  0
  4  7  1  0  0  0  0
  7  8  2  0  0  0  0
  8  9  1  0  0  0  0
  9 10  1  0  0  0  0
 10  5  1  0  0  0  0
  1 11  1  0  0  0  0
  7 12  1  0  0  0  0
 12 13  1  0  0  0  0
 13 14  2  0  0  0  0
 14  8  1  0  0  0  0
  3 15  1  0  0  0  0
 15 16  1  0  0  0  0
  9 17  2  0  0  0  0
 13 18  1  0  0  0  0
 18 19  2  0  0  0  0
 19 20  1  0  0  0  0
 20 21  2  0  0  0  0
 21 14  1  0  0  0  0
 19 22  1  0  0  0  0
M  END
>  <cdx:fragmentId>
5

$$$$
