15031.cdx
  Mrv1902 05222410272D          

 40 43  0  0  0  0            999 V2000
    3.7158  -11.0137    0.0000 C   0  0  2  0  0  0  0  0  0  0  0  0
    3.7158  -11.8387    0.0000 C   0  0  2  0  0  0  0  0  0  0  0  0
    4.4302  -12.2512    0.0000 C   0  0  1  0  0  0  0  0  0  0  0  0
    5.1447  -11.8387    0.0000 C   0  0  2  0  0  0  0  0  0  0  0  0
    5.1447  -11.0137    0.0000 C   0  0  1  0  0  0  0  0  0  0  0  0
    4.4302  -10.6013    0.0000 O   0  0  0  0  0  0  0  0  0  0  0  0
    5.8592  -10.6013    0.0000 O   0  0  0  0  0  0  0  0  0  0  0  0
    5.8592   -9.7763    0.0000 C   0  0  0  0  0  0  0  0  0  0  0  0
    5.1447   -9.3637    0.0000 C   0  0  0  0  0  0  0  0  0  0  0  0
    6.5737   -9.3637    0.0000 C   0  0  0  0  0  0  0  0  0  0  0  0
    6.5737   -8.5388    0.0000 C   0  0  0  0  0  0  0  0  0  0  0  0
    5.8592   -8.1263    0.0000 C   0  0  0  0  0  0  0  0  0  0  0  0
    5.1447   -8.5388    0.0000 C   0  0  0  0  0  0  0  0  0  0  0  0
    6.5737   -6.8888    0.0000 C   0  0  0  0  0  0  0  0  0  0  0  0
    5.8592   -7.3012    0.0000 C   0  0  0  0  0  0  0  0  0  0  0  0
    8.0026   -6.0638    0.0000 C   0  0  0  0  0  0  0  0  0  0  0  0
    7.2881   -5.6512    0.0000 C   0  0  0  0  0  0  0  0  0  0  0  0
    6.5737   -6.0638    0.0000 C   0  0  0  0  0  0  0  0  0  0  0  0
    8.7171   -5.6512    0.0000 C   0  0  0  0  0  0  0  0  0  0  0  0
    8.7171   -4.8263    0.0000 C   0  0  0  0  0  0  0  0  0  0  0  0
    8.0026   -4.4138    0.0000 C   0  0  0  0  0  0  0  0  0  0  0  0
    7.2881   -4.8263    0.0000 C   0  0  0  0  0  0  0  0  0  0  0  0
    3.0013  -10.6013    0.0000 C   0  0  0  0  0  0  0  0  0  0  0  0
    5.8592   -5.6512    0.0000 O   0  0  0  0  0  0  0  0  0  0  0  0
    9.4315   -4.4138    0.0000 O   0  0  0  0  0  0  0  0  0  0  0  0
    4.4302  -13.0763    0.0000 O   0  0  0  0  0  0  0  0  0  0  0  0
    5.8592  -12.2512    0.0000 O   0  0  0  0  0  0  0  0  0  0  0  0
    3.0013  -12.2512    0.0000 O   0  0  0  0  0  0  0  0  0  0  0  0
    2.2868  -11.0137    0.0000 O   0  0  0  0  0  0  0  0  0  0  0  0
    6.5737   -4.4138    0.0000 O   0  0  0  0  0  0  0  0  0  0  0  0
    6.5737  -11.8387    0.0000 C   0  0  1  0  0  0  0  0  0  0  0  0
    7.3273  -12.1743    0.0000 C   0  0  1  0  0  0  0  0  0  0  0  0
    7.8794  -11.5612    0.0000 C   0  0  1  0  0  0  0  0  0  0  0  0
    7.4669  -10.8467    0.0000 C   0  0  0  0  0  0  0  0  0  0  0  0
    6.6599  -11.0183    0.0000 O   0  0  0  0  0  0  0  0  0  0  0  0
    7.4989  -12.9813    0.0000 O   0  0  0  0  0  0  0  0  0  0  0  0
    8.5938  -11.1487    0.0000 O   0  0  0  0  0  0  0  0  0  0  0  0
    8.4150  -12.0725    0.0000 C   0  0  0  0  0  0  0  0  0  0  0  0
    9.2119  -11.8590    0.0000 O   0  0  0  0  0  0  0  0  0  0  0  0
    8.0026   -6.8888    0.0000 O   0  0  0  0  0  0  0  0  0  0  0  0
  1  2  1  0  0  0  0
  2  3  1  0  0  0  0
  3  4  1  0  0  0  0
  4  5  1  0  0  0  0
  5  6  1  0  0  0  0
  6  1  1  0  0  0  0
  5  7  1  1  0  0  0
  7  8  1  0  0  0  0
  8  9  1  0  0  0  0
  8 10  2  0  0  0  0
 10 11  1  0  0  0  0
 11 12  2  0  0  0  0
 12 13  1  0  0  0  0
 13  9  2  0  0  0  0
 14 15  2  0  0  0  0
 15 12  1  0  0  0  0
 16 17  2  0  0  0  0
 17 18  1  0  0  0  0
 18 14  1  0  0  0  0
 16 19  1  0  0  0  0
 19 20  2  0  0  0  0
 20 21  1  0  0  0  0
 21 22  2  0  0  0  0
 22 17  1  0  0  0  0
  1 23  1  1  0  0  0
 18 24  2  0  0  0  0
 20 25  1  0  0  0  0
  3 26  1  1  0  0  0
  4 27  1  6  0  0  0
  2 28  1  6  0  0  0
 23 29  1  0  0  0  0
 22 30  1  0  0  0  0
 31 27  1  6  0  0  0
 31 32  1  0  0  0  0
 32 33  1  0  0  0  0
 33 34  1  0  0  0  0
 34 35  1  0  0  0  0
 35 31  1  0  0  0  0
 32 36  1  1  0  0  0
 33 37  1  1  0  0  0
 33 38  1  0  0  0  0
 38 39  1  0  0  0  0
 16 40  1  0  0  0  0
M  END
>  <cdx:fragmentId>
5

$$$$
