1504.cdx
  Mrv1902 05222410262D          

 17 17  0  0  0  0            999 V2000
    4.5820   -7.1156    0.0000 C   0  0  0  0  0  0  0  0  0  0  0  0
    4.5820   -7.9406    0.0000 C   0  0  0  0  0  0  0  0  0  0  0  0
    5.2965   -8.3531    0.0000 C   0  0  0  0  0  0  0  0  0  0  0  0
    6.0110   -7.1156    0.0000 C   0  0  0  0  0  0  0  0  0  0  0  0
    5.2965   -6.7031    0.0000 C   0  0  0  0  0  0  0  0  0  0  0  0
    6.7254   -8.3531    0.0000 C   0  0  0  0  0  0  0  0  0  0  0  0
    7.4399   -7.9406    0.0000 C   0  0  2  0  0  0  0  0  0  0  0  0
    7.4399   -7.1156    0.0000 C   0  0  1  0  0  0  0  0  0  0  0  0
    6.7254   -6.7031    0.0000 C   0  0  0  0  0  0  0  0  0  0  0  0
    5.5100   -9.1500    0.0000 C   0  0  0  0  0  0  0  0  0  0  0  0
    6.5119   -9.1500    0.0000 C   0  0  0  0  0  0  0  0  0  0  0  0
    4.1695   -6.4012    0.0000 C   0  0  0  0  0  0  0  0  0  0  0  0
    3.7851   -7.3292    0.0000 C   0  0  0  0  0  0  0  0  0  0  0  0
    5.0975   -9.8645    0.0000 C   0  0  0  0  0  0  0  0  0  0  0  0
    8.2649   -7.1156    0.0000 C   0  0  0  0  0  0  0  0  0  0  0  0
    7.8524   -6.4012    0.0000 O   0  0  0  0  0  0  0  0  0  0  0  0
    8.1544   -8.3531    0.0000 O   0  0  0  0  0  0  0  0  0  0  0  0
  1  2  1  0  0  0  0
  2  3  1  0  0  0  0
  4  5  2  0  0  0  0
  5  1  1  0  0  0  0
  6  7  1  0  0  0  0
  7  8  1  0  0  0  0
  8  9  1  0  0  0  0
  9  4  1  0  0  0  0
  3 10  2  0  0  0  0
  6 11  1  0  0  0  0
 10 11  1  0  0  0  0
  1 12  1  0  0  0  0
  1 13  1  0  0  0  0
 10 14  1  0  0  0  0
  8 15  1  1  0  0  0
  8 16  1  6  0  0  0
  7 17  1  6  0  0  0
M  END
>  <cdx:fragmentId>
5

$$$$
