15042.cdx
  Mrv1902 05222410242D          

 22 25  0  0  0  0            999 V2000
    4.4830   -8.3325    0.0000 C   0  0  0  0  0  0  0  0  0  0  0  0
    4.4830   -9.1575    0.0000 C   0  0  0  0  0  0  0  0  0  0  0  0
    5.1975   -9.5700    0.0000 C   0  0  0  0  0  0  0  0  0  0  0  0
    5.9120   -9.1575    0.0000 C   0  0  0  0  0  0  0  0  0  0  0  0
    5.9120   -8.3325    0.0000 C   0  0  0  0  0  0  0  0  0  0  0  0
    5.1975   -7.9200    0.0000 C   0  0  0  0  0  0  0  0  0  0  0  0
    6.6264   -9.5700    0.0000 C   0  0  2  0  0  0  0  0  0  0  0  0
    7.3409   -9.1575    0.0000 C   0  0  2  0  0  0  0  0  0  0  0  0
    7.3409   -8.3325    0.0000 C   0  0  0  0  0  0  0  0  0  0  0  0
    6.6264   -7.9200    0.0000 O   0  0  0  0  0  0  0  0  0  0  0  0
    6.7980  -10.3770    0.0000 O   0  0  0  0  0  0  0  0  0  0  0  0
    7.6184  -10.4632    0.0000 C   0  0  0  0  0  0  0  0  0  0  0  0
    7.9540   -9.7095    0.0000 C   0  0  0  0  0  0  0  0  0  0  0  0
    8.1034  -11.1306    0.0000 C   0  0  0  0  0  0  0  0  0  0  0  0
    8.9239  -11.0444    0.0000 C   0  0  0  0  0  0  0  0  0  0  0  0
    9.2594  -10.2907    0.0000 C   0  0  0  0  0  0  0  0  0  0  0  0
    8.7745   -9.6233    0.0000 C   0  0  0  0  0  0  0  0  0  0  0  0
    9.4088  -11.7118    0.0000 O   0  0  0  0  0  0  0  0  0  0  0  0
   10.2293  -11.6256    0.0000 C   0  0  0  0  0  0  0  0  0  0  0  0
    3.7686   -7.9200    0.0000 O   0  0  0  0  0  0  0  0  0  0  0  0
    8.0554   -8.7450    0.0000 H   0  0  0  0  0  0  0  0  0  0  0  0
    5.9120   -9.9825    0.0000 H   0  0  0  0  0  0  0  0  0  0  0  0
  1  2  1  0  0  0  0
  2  3  2  0  0  0  0
  3  4  1  0  0  0  0
  4  5  2  0  0  0  0
  5  6  1  0  0  0  0
  6  1  2  0  0  0  0
  4  7  1  0  0  0  0
  7  8  1  0  0  0  0
  8  9  1  0  0  0  0
  9 10  1  0  0  0  0
 10  5  1  0  0  0  0
  7 11  1  0  0  0  0
 11 12  1  0  0  0  0
 12 13  2  0  0  0  0
 13  8  1  0  0  0  0
 12 14  1  0  0  0  0
 14 15  2  0  0  0  0
 15 16  1  0  0  0  0
 16 17  2  0  0  0  0
 17 13  1  0  0  0  0
 15 18  1  0  0  0  0
 18 19  1  0  0  0  0
  1 20  1  0  0  0  0
  8 21  1  1  0  0  0
  7 22  1  1  0  0  0
M  END
>  <cdx:fragmentId>
5

$$$$
