15040.cdx
  Mrv1902 05222410232D          

 25 27  0  0  0  0            999 V2000
    4.2658   -6.9781    0.0000 C   0  0  0  0  0  0  0  0  0  0  0  0
    4.2658   -7.8031    0.0000 C   0  0  0  0  0  0  0  0  0  0  0  0
    4.9802   -8.2156    0.0000 C   0  0  0  0  0  0  0  0  0  0  0  0
    5.6947   -7.8031    0.0000 C   0  0  0  0  0  0  0  0  0  0  0  0
    5.6947   -6.9781    0.0000 C   0  0  0  0  0  0  0  0  0  0  0  0
    4.9802   -6.5656    0.0000 C   0  0  0  0  0  0  0  0  0  0  0  0
    6.4092   -8.2156    0.0000 C   0  0  0  0  0  0  0  0  0  0  0  0
    7.1237   -7.8031    0.0000 C   0  0  0  0  0  0  0  0  0  0  0  0
    7.1237   -6.9781    0.0000 C   0  0  0  0  0  0  0  0  0  0  0  0
    6.4092   -6.5656    0.0000 O   0  0  0  0  0  0  0  0  0  0  0  0
    7.8381   -8.2156    0.0000 O   0  0  0  0  0  0  0  0  0  0  0  0
    8.5526   -6.9781    0.0000 C   0  0  0  0  0  0  0  0  0  0  0  0
    7.8381   -6.5656    0.0000 C   0  0  0  0  0  0  0  0  0  0  0  0
    9.2671   -6.5656    0.0000 C   0  0  0  0  0  0  0  0  0  0  0  0
    9.2671   -5.7406    0.0000 C   0  0  0  0  0  0  0  0  0  0  0  0
    8.5526   -5.3281    0.0000 C   0  0  0  0  0  0  0  0  0  0  0  0
    7.8381   -5.7406    0.0000 C   0  0  0  0  0  0  0  0  0  0  0  0
    9.9815   -6.9781    0.0000 O   0  0  0  0  0  0  0  0  0  0  0  0
   10.6960   -5.7406    0.0000 C   0  0  0  0  0  0  0  0  0  0  0  0
    9.9815   -5.3281    0.0000 O   0  0  0  0  0  0  0  0  0  0  0  0
    3.5513   -6.5656    0.0000 O   0  0  0  0  0  0  0  0  0  0  0  0
    2.8368   -6.9781    0.0000 C   0  0  0  0  0  0  0  0  0  0  0  0
    4.9802   -9.0406    0.0000 O   0  0  0  0  0  0  0  0  0  0  0  0
    6.4092   -9.0406    0.0000 O   0  0  0  0  0  0  0  0  0  0  0  0
    9.9815   -7.8031    0.0000 C   0  0  0  0  0  0  0  0  0  0  0  0
  1  2  2  0  0  0  0
  2  3  1  0  0  0  0
  3  4  2  0  0  0  0
  4  5  1  0  0  0  0
  5  6  2  0  0  0  0
  6  1  1  0  0  0  0
  4  7  1  0  0  0  0
  7  8  1  0  0  0  0
  8  9  2  0  0  0  0
  9 10  1  0  0  0  0
 10  5  1  0  0  0  0
  8 11  1  0  0  0  0
 12 13  2  0  0  0  0
 13  9  1  0  0  0  0
 12 14  1  0  0  0  0
 14 15  2  0  0  0  0
 15 16  1  0  0  0  0
 16 17  2  0  0  0  0
 17 13  1  0  0  0  0
 14 18  1  0  0  0  0
 19 20  1  0  0  0  0
 20 15  1  0  0  0  0
  1 21  1  0  0  0  0
 21 22  1  0  0  0  0
  3 23  1  0  0  0  0
  7 24  2  0  0  0  0
 18 25  1  0  0  0  0
M  END
>  <cdx:fragmentId>
5

$$$$
