15043.cdx
  Mrv1902 05222410242D          

 33 36  0  0  0  0            999 V2000
    3.1417   -6.4281    0.0000 C   0  0  0  0  0  0  0  0  0  0  0  0
    3.1417   -7.2531    0.0000 C   0  0  0  0  0  0  0  0  0  0  0  0
    3.8562   -7.6656    0.0000 C   0  0  0  0  0  0  0  0  0  0  0  0
    4.5707   -7.2531    0.0000 C   0  0  0  0  0  0  0  0  0  0  0  0
    4.5707   -6.4281    0.0000 C   0  0  0  0  0  0  0  0  0  0  0  0
    3.8562   -6.0156    0.0000 C   0  0  0  0  0  0  0  0  0  0  0  0
    5.2851   -7.6656    0.0000 C   0  0  0  0  0  0  0  0  0  0  0  0
    5.9996   -7.2531    0.0000 C   0  0  0  0  0  0  0  0  0  0  0  0
    5.9996   -6.4281    0.0000 C   0  0  2  0  0  0  0  0  0  0  0  0
    5.2851   -6.0156    0.0000 O   0  0  0  0  0  0  0  0  0  0  0  0
    2.4272   -6.0156    0.0000 O   0  0  0  0  0  0  0  0  0  0  0  0
    6.7141   -6.0156    0.0000 C   0  0  0  0  0  0  0  0  0  0  0  0
    7.4285   -6.4281    0.0000 C   0  0  0  0  0  0  0  0  0  0  0  0
    8.1430   -6.0156    0.0000 C   0  0  0  0  0  0  0  0  0  0  0  0
    8.1430   -5.1906    0.0000 C   0  0  0  0  0  0  0  0  0  0  0  0
    7.4285   -4.7781    0.0000 C   0  0  0  0  0  0  0  0  0  0  0  0
    6.7141   -5.1906    0.0000 C   0  0  0  0  0  0  0  0  0  0  0  0
    8.8575   -4.7781    0.0000 O   0  0  0  0  0  0  0  0  0  0  0  0
    5.2851   -8.4906    0.0000 O   0  0  0  0  0  0  0  0  0  0  0  0
    9.5720   -5.1906    0.0000 C   0  0  2  0  0  0  0  0  0  0  0  0
    9.5720   -6.0156    0.0000 O   0  0  0  0  0  0  0  0  0  0  0  0
   10.2864   -6.4281    0.0000 C   0  0  1  0  0  0  0  0  0  0  0  0
   11.0009   -6.0156    0.0000 C   0  0  2  0  0  0  0  0  0  0  0  0
   11.0009   -5.1906    0.0000 C   0  0  1  0  0  0  0  0  0  0  0  0
   10.2864   -4.7781    0.0000 C   0  0  1  0  0  0  0  0  0  0  0  0
   10.2864   -7.2531    0.0000 C   0  0  0  0  0  0  0  0  0  0  0  0
   11.7154   -4.7781    0.0000 O   0  0  0  0  0  0  0  0  0  0  0  0
   10.2864   -3.9531    0.0000 O   0  0  0  0  0  0  0  0  0  0  0  0
   11.7154   -6.4281    0.0000 O   0  0  0  0  0  0  0  0  0  0  0  0
   11.0009   -7.6656    0.0000 O   0  0  0  0  0  0  0  0  0  0  0  0
   11.0009   -8.4906    0.0000 C   0  0  0  0  0  0  0  0  0  0  0  0
   11.7154   -8.9031    0.0000 C   0  0  0  0  0  0  0  0  0  0  0  0
   10.2864   -8.9031    0.0000 O   0  0  0  0  0  0  0  0  0  0  0  0
  1  2  2  0  0  0  0
  2  3  1  0  0  0  0
  3  4  2  0  0  0  0
  4  5  1  0  0  0  0
  5  6  2  0  0  0  0
  6  1  1  0  0  0  0
  4  7  1  0  0  0  0
  7  8  1  0  0  0  0
  8  9  1  0  0  0  0
  9 10  1  0  0  0  0
 10  5  1  0  0  0  0
  1 11  1  0  0  0  0
  9 12  1  6  0  0  0
 12 13  2  0  0  0  0
 13 14  1  0  0  0  0
 14 15  2  0  0  0  0
 15 16  1  0  0  0  0
 16 17  2  0  0  0  0
 17 12  1  0  0  0  0
 15 18  1  0  0  0  0
  7 19  2  0  0  0  0
 20 18  1  1  0  0  0
 20 21  1  0  0  0  0
 21 22  1  0  0  0  0
 22 23  1  0  0  0  0
 23 24  1  0  0  0  0
 24 25  1  0  0  0  0
 25 20  1  0  0  0  0
 22 26  1  1  0  0  0
 24 27  1  1  0  0  0
 25 28  1  6  0  0  0
 23 29  1  6  0  0  0
 26 30  1  0  0  0  0
 30 31  1  0  0  0  0
 31 32  1  0  0  0  0
 31 33  2  0  0  0  0
M  END
>  <cdx:fragmentId>
5

$$$$
