15044.cdx
  Mrv1902 05222410262D          

 21 23  0  0  0  0            999 V2000
    4.6542   -6.4831    0.0000 C   0  0  0  0  0  0  0  0  0  0  0  0
    4.6542   -7.3081    0.0000 C   0  0  0  0  0  0  0  0  0  0  0  0
    5.3687   -7.7206    0.0000 C   0  0  0  0  0  0  0  0  0  0  0  0
    6.0832   -7.3081    0.0000 C   0  0  0  0  0  0  0  0  0  0  0  0
    6.0832   -6.4831    0.0000 C   0  0  0  0  0  0  0  0  0  0  0  0
    5.3687   -6.0706    0.0000 C   0  0  0  0  0  0  0  0  0  0  0  0
    6.7976   -7.7206    0.0000 C   0  0  0  0  0  0  0  0  0  0  0  0
    7.5121   -7.3081    0.0000 C   0  0  0  0  0  0  0  0  0  0  0  0
    7.5121   -6.4831    0.0000 C   0  0  2  0  0  0  0  0  0  0  0  0
    6.7976   -6.0706    0.0000 O   0  0  0  0  0  0  0  0  0  0  0  0
    3.9397   -6.0706    0.0000 O   0  0  0  0  0  0  0  0  0  0  0  0
    8.2266   -6.0706    0.0000 C   0  0  0  0  0  0  0  0  0  0  0  0
    8.9410   -6.4831    0.0000 C   0  0  0  0  0  0  0  0  0  0  0  0
    9.6555   -6.0706    0.0000 C   0  0  0  0  0  0  0  0  0  0  0  0
    9.6555   -5.2456    0.0000 C   0  0  0  0  0  0  0  0  0  0  0  0
    8.9410   -4.8331    0.0000 C   0  0  0  0  0  0  0  0  0  0  0  0
    8.2266   -5.2456    0.0000 C   0  0  0  0  0  0  0  0  0  0  0  0
    6.7976   -8.5456    0.0000 O   0  0  0  0  0  0  0  0  0  0  0  0
    5.3687   -8.5456    0.0000 O   0  0  0  0  0  0  0  0  0  0  0  0
   10.3700   -6.4831    0.0000 O   0  0  0  0  0  0  0  0  0  0  0  0
    8.9410   -4.0081    0.0000 O   0  0  0  0  0  0  0  0  0  0  0  0
  1  2  2  0  0  0  0
  2  3  1  0  0  0  0
  3  4  2  0  0  0  0
  4  5  1  0  0  0  0
  5  6  2  0  0  0  0
  6  1  1  0  0  0  0
  4  7  1  0  0  0  0
  7  8  1  0  0  0  0
  8  9  1  0  0  0  0
  9 10  1  0  0  0  0
 10  5  1  0  0  0  0
  1 11  1  0  0  0  0
  9 12  1  6  0  0  0
 12 13  2  0  0  0  0
 13 14  1  0  0  0  0
 14 15  2  0  0  0  0
 15 16  1  0  0  0  0
 16 17  2  0  0  0  0
 17 12  1  0  0  0  0
  7 18  2  0  0  0  0
  3 19  1  0  0  0  0
 14 20  1  0  0  0  0
 16 21  1  0  0  0  0
M  END
>  <cdx:fragmentId>
5

$$$$
