1505.cdx
  Mrv1902 05222410262D          

 21 23  0  0  0  0            999 V2000
    6.8532   -8.6038    0.0000 C   0  0  0  0  0  0  0  0  0  0  0  0
    7.5206   -7.2939    0.0000 O   0  0  0  0  0  0  0  0  0  0  0  0
    6.8532   -7.7788    0.0000 C   0  0  0  0  0  0  0  0  0  0  0  0
    6.1857   -7.2939    0.0000 C   0  0  0  0  0  0  0  0  0  0  0  0
    6.4407   -6.5092    0.0000 C   0  0  0  0  0  0  0  0  0  0  0  0
    7.2657   -6.5092    0.0000 C   0  0  0  0  0  0  0  0  0  0  0  0
    7.7506   -5.8418    0.0000 C   0  0  0  0  0  0  0  0  0  0  0  0
    8.3213   -8.6807    0.0000 O   0  0  0  0  0  0  0  0  0  0  0  0
    7.5677   -9.0163    0.0000 C   0  0  0  0  0  0  0  0  0  0  0  0
    7.6539   -9.8368    0.0000 C   0  0  0  0  0  0  0  0  0  0  0  0
    8.4609  -10.0083    0.0000 C   0  0  0  0  0  0  0  0  0  0  0  0
    8.8734   -9.2938    0.0000 C   0  0  0  0  0  0  0  0  0  0  0  0
    9.6938   -9.2076    0.0000 C   0  0  0  0  0  0  0  0  0  0  0  0
    6.1387   -9.0163    0.0000 C   0  0  0  0  0  0  0  0  0  0  0  0
    6.1387   -9.8413    0.0000 C   0  0  0  0  0  0  0  0  0  0  0  0
    5.4242  -10.2538    0.0000 C   0  0  0  0  0  0  0  0  0  0  0  0
    4.7098   -9.8413    0.0000 C   0  0  0  0  0  0  0  0  0  0  0  0
    4.7098   -9.0163    0.0000 C   0  0  0  0  0  0  0  0  0  0  0  0
    5.4242   -8.6038    0.0000 C   0  0  0  0  0  0  0  0  0  0  0  0
    6.8532  -10.2538    0.0000 O   0  0  0  0  0  0  0  0  0  0  0  0
    6.8532  -11.0788    0.0000 C   0  0  0  0  0  0  0  0  0  0  0  0
  2  3  1  0  0  0  0
  3  4  2  0  0  0  0
  4  5  1  0  0  0  0
  5  6  2  0  0  0  0
  2  6  1  0  0  0  0
  6  7  1  0  0  0  0
  1  3  1  0  0  0  0
  8  9  1  0  0  0  0
  9 10  2  0  0  0  0
 10 11  1  0  0  0  0
 11 12  2  0  0  0  0
  8 12  1  0  0  0  0
 12 13  1  0  0  0  0
  1  9  1  0  0  0  0
 14 15  1  0  0  0  0
 15 16  2  0  0  0  0
 16 17  1  0  0  0  0
 17 18  2  0  0  0  0
 18 19  1  0  0  0  0
 14 19  2  0  0  0  0
 20 21  1  0  0  0  0
 15 20  1  0  0  0  0
  1 14  1  0  0  0  0
M  END
>  <cdx:fragmentId>
7

$$$$
