15054.cdx
  Mrv1902 05222410232D          

 33 36  0  0  0  0            999 V2000
    5.8855   -8.2500    0.0000 C   0  0  0  0  0  0  0  0  0  0  0  0
    5.8855   -9.0750    0.0000 C   0  0  0  0  0  0  0  0  0  0  0  0
    6.6000   -9.4875    0.0000 C   0  0  0  0  0  0  0  0  0  0  0  0
    7.3145   -9.0750    0.0000 C   0  0  0  0  0  0  0  0  0  0  0  0
    7.3145   -8.2500    0.0000 C   0  0  0  0  0  0  0  0  0  0  0  0
    6.6000   -7.8375    0.0000 C   0  0  0  0  0  0  0  0  0  0  0  0
    8.0289   -9.4875    0.0000 C   0  0  0  0  0  0  0  0  0  0  0  0
    8.7434   -9.0750    0.0000 C   0  0  0  0  0  0  0  0  0  0  0  0
    8.7434   -8.2500    0.0000 C   0  0  0  0  0  0  0  0  0  0  0  0
    8.0289   -7.8375    0.0000 O   0  0  0  0  0  0  0  0  0  0  0  0
    9.4579   -9.4875    0.0000 C   0  0  0  0  0  0  0  0  0  0  0  0
    9.4579  -10.3125    0.0000 C   0  0  0  0  0  0  0  0  0  0  0  0
   10.1724  -10.7250    0.0000 C   0  0  0  0  0  0  0  0  0  0  0  0
   10.8868  -10.3125    0.0000 C   0  0  0  0  0  0  0  0  0  0  0  0
   10.8868   -9.4875    0.0000 C   0  0  0  0  0  0  0  0  0  0  0  0
   10.1724   -9.0750    0.0000 C   0  0  0  0  0  0  0  0  0  0  0  0
   11.6013  -10.7250    0.0000 O   0  0  0  0  0  0  0  0  0  0  0  0
    5.1711   -7.8375    0.0000 O   0  0  0  0  0  0  0  0  0  0  0  0
    8.0289  -10.3125    0.0000 O   0  0  0  0  0  0  0  0  0  0  0  0
    4.3461   -7.8364    0.0000 C   0  0  2  0  0  0  0  0  0  0  0  0
    3.9345   -7.1214    0.0000 O   0  0  0  0  0  0  0  0  0  0  0  0
    3.1095   -7.1203    0.0000 C   0  0  1  0  0  0  0  0  0  0  0  0
    2.6961   -7.8343    0.0000 C   0  0  2  0  0  0  0  0  0  0  0  0
    3.1076   -8.5493    0.0000 C   0  0  1  0  0  0  0  0  0  0  0  0
    3.9326   -8.5504    0.0000 C   0  0  1  0  0  0  0  0  0  0  0  0
    2.6979   -6.4053    0.0000 C   0  0  0  0  0  0  0  0  0  0  0  0
    2.6942   -9.2632    0.0000 O   0  0  0  0  0  0  0  0  0  0  0  0
    1.8711   -7.8332    0.0000 O   0  0  0  0  0  0  0  0  0  0  0  0
    4.3442   -9.2654    0.0000 O   0  0  0  0  0  0  0  0  0  0  0  0
    1.8729   -6.4043    0.0000 O   0  0  0  0  0  0  0  0  0  0  0  0
    5.1711   -9.4875    0.0000 O   0  0  0  0  0  0  0  0  0  0  0  0
    5.1711  -10.3125    0.0000 C   0  0  0  0  0  0  0  0  0  0  0  0
   12.3158  -10.3125    0.0000 C   0  0  0  0  0  0  0  0  0  0  0  0
  1  2  1  0  0  0  0
  2  3  2  0  0  0  0
  3  4  1  0  0  0  0
  4  5  2  0  0  0  0
  5  6  1  0  0  0  0
  6  1  2  0  0  0  0
  4  7  1  0  0  0  0
  7  8  1  0  0  0  0
  8  9  2  0  0  0  0
  9 10  1  0  0  0  0
 10  5  1  0  0  0  0
  8 11  1  0  0  0  0
 11 12  2  0  0  0  0
 12 13  1  0  0  0  0
 13 14  2  0  0  0  0
 14 15  1  0  0  0  0
 15 16  2  0  0  0  0
 16 11  1  0  0  0  0
 14 17  1  0  0  0  0
  1 18  1  0  0  0  0
  7 19  2  0  0  0  0
 20 18  1  1  0  0  0
 20 21  1  0  0  0  0
 21 22  1  0  0  0  0
 22 23  1  0  0  0  0
 23 24  1  0  0  0  0
 24 25  1  0  0  0  0
 25 20  1  0  0  0  0
 22 26  1  1  0  0  0
 24 27  1  1  0  0  0
 23 28  1  6  0  0  0
 25 29  1  6  0  0  0
 26 30  1  0  0  0  0
  2 31  1  0  0  0  0
 31 32  1  0  0  0  0
 17 33  1  0  0  0  0
M  END
>  <cdx:fragmentId>
5

$$$$
