15053.cdx
  Mrv1902 05222410252D          

 20 22  0  0  0  0            999 V2000
    4.2630   -7.7550    0.0000 C   0  0  0  0  0  0  0  0  0  0  0  0
    4.2630   -8.5800    0.0000 C   0  0  0  0  0  0  0  0  0  0  0  0
    4.9775   -8.9925    0.0000 C   0  0  0  0  0  0  0  0  0  0  0  0
    5.6920   -8.5800    0.0000 C   0  0  0  0  0  0  0  0  0  0  0  0
    5.6920   -7.7550    0.0000 C   0  0  0  0  0  0  0  0  0  0  0  0
    4.9775   -7.3425    0.0000 C   0  0  0  0  0  0  0  0  0  0  0  0
    6.4064   -8.9925    0.0000 C   0  0  0  0  0  0  0  0  0  0  0  0
    7.1209   -8.5800    0.0000 C   0  0  1  0  0  0  0  0  0  0  0  0
    7.1209   -7.7550    0.0000 C   0  0  0  0  0  0  0  0  0  0  0  0
    6.4064   -7.3425    0.0000 O   0  0  0  0  0  0  0  0  0  0  0  0
    7.8354   -8.9925    0.0000 C   0  0  0  0  0  0  0  0  0  0  0  0
    7.8354   -9.8175    0.0000 C   0  0  0  0  0  0  0  0  0  0  0  0
    8.5499  -10.2300    0.0000 C   0  0  0  0  0  0  0  0  0  0  0  0
    9.2643   -9.8175    0.0000 C   0  0  0  0  0  0  0  0  0  0  0  0
    9.2643   -8.9925    0.0000 C   0  0  0  0  0  0  0  0  0  0  0  0
    8.5499   -8.5800    0.0000 C   0  0  0  0  0  0  0  0  0  0  0  0
    9.9788  -10.2300    0.0000 O   0  0  0  0  0  0  0  0  0  0  0  0
    3.5486   -7.3425    0.0000 O   0  0  0  0  0  0  0  0  0  0  0  0
    8.5499   -7.7550    0.0000 O   0  0  0  0  0  0  0  0  0  0  0  0
    9.2643   -7.3425    0.0000 C   0  0  0  0  0  0  0  0  0  0  0  0
  1  2  1  0  0  0  0
  2  3  2  0  0  0  0
  3  4  1  0  0  0  0
  4  5  2  0  0  0  0
  5  6  1  0  0  0  0
  6  1  2  0  0  0  0
  4  7  1  0  0  0  0
  7  8  1  0  0  0  0
  8  9  1  0  0  0  0
  9 10  1  0  0  0  0
 10  5  1  0  0  0  0
  8 11  1  1  0  0  0
 11 12  2  0  0  0  0
 12 13  1  0  0  0  0
 13 14  2  0  0  0  0
 14 15  1  0  0  0  0
 15 16  2  0  0  0  0
 16 11  1  0  0  0  0
 14 17  1  0  0  0  0
  1 18  1  0  0  0  0
 16 19  1  0  0  0  0
 19 20  1  0  0  0  0
M  END
>  <cdx:fragmentId>
5

$$$$
