15056.cdx
  Mrv1902 05222410242D          

 22 25  0  0  0  0            999 V2000
    4.4005   -7.7275    0.0000 C   0  0  0  0  0  0  0  0  0  0  0  0
    4.4005   -8.5525    0.0000 C   0  0  0  0  0  0  0  0  0  0  0  0
    5.1150   -8.9650    0.0000 C   0  0  0  0  0  0  0  0  0  0  0  0
    5.8295   -8.5525    0.0000 C   0  0  0  0  0  0  0  0  0  0  0  0
    5.8295   -7.7275    0.0000 C   0  0  0  0  0  0  0  0  0  0  0  0
    5.1150   -7.3150    0.0000 C   0  0  0  0  0  0  0  0  0  0  0  0
    6.5439   -8.9650    0.0000 C   0  0  0  0  0  0  0  0  0  0  0  0
    7.2584   -8.5525    0.0000 C   0  0  0  0  0  0  0  0  0  0  0  0
    7.2584   -7.7275    0.0000 C   0  0  0  0  0  0  0  0  0  0  0  0
    6.5439   -7.3150    0.0000 O   0  0  0  0  0  0  0  0  0  0  0  0
    6.7155   -9.7720    0.0000 O   0  0  0  0  0  0  0  0  0  0  0  0
    7.5359   -9.8582    0.0000 C   0  0  0  0  0  0  0  0  0  0  0  0
    7.8715   -9.1045    0.0000 C   0  0  0  0  0  0  0  0  0  0  0  0
    8.0209  -10.5256    0.0000 C   0  0  0  0  0  0  0  0  0  0  0  0
    8.8414  -10.4394    0.0000 C   0  0  0  0  0  0  0  0  0  0  0  0
    9.1769   -9.6857    0.0000 C   0  0  0  0  0  0  0  0  0  0  0  0
    8.6920   -9.0183    0.0000 C   0  0  0  0  0  0  0  0  0  0  0  0
    7.9729   -7.3150    0.0000 O   0  0  0  0  0  0  0  0  0  0  0  0
    9.3263  -11.1068    0.0000 O   0  0  0  0  0  0  0  0  0  0  0  0
   10.1468  -11.0206    0.0000 C   0  0  0  0  0  0  0  0  0  0  0  0
    3.6861   -7.3150    0.0000 O   0  0  0  0  0  0  0  0  0  0  0  0
    5.1150   -9.7900    0.0000 O   0  0  0  0  0  0  0  0  0  0  0  0
  1  2  1  0  0  0  0
  2  3  2  0  0  0  0
  3  4  1  0  0  0  0
  4  5  2  0  0  0  0
  5  6  1  0  0  0  0
  6  1  2  0  0  0  0
  4  7  1  0  0  0  0
  7  8  2  0  0  0  0
  8  9  1  0  0  0  0
  9 10  1  0  0  0  0
 10  5  1  0  0  0  0
  7 11  1  0  0  0  0
 11 12  1  0  0  0  0
 12 13  2  0  0  0  0
 13  8  1  0  0  0  0
 12 14  1  0  0  0  0
 14 15  2  0  0  0  0
 15 16  1  0  0  0  0
 16 17  2  0  0  0  0
 17 13  1  0  0  0  0
  9 18  2  0  0  0  0
 15 19  1  0  0  0  0
 19 20  1  0  0  0  0
  1 21  1  0  0  0  0
  3 22  1  0  0  0  0
M  END
>  <cdx:fragmentId>
5

$$$$
