15060.cdx
  Mrv1902 05222410212D          

 30 31  0  0  0  0            999 V2000
    8.1405  -10.2575    0.0000 C   0  0  2  0  0  0  0  0  0  0  0  0
    8.1405  -11.0825    0.0000 C   0  0  2  0  0  0  0  0  0  0  0  0
    8.8550  -11.4950    0.0000 C   0  0  1  0  0  0  0  0  0  0  0  0
    9.5695  -11.0825    0.0000 C   0  0  2  0  0  0  0  0  0  0  0  0
    9.5695  -10.2575    0.0000 C   0  0  1  0  0  0  0  0  0  0  0  0
    8.8550   -9.8450    0.0000 O   0  0  0  0  0  0  0  0  0  0  0  0
    7.4261   -9.8450    0.0000 C   0  0  0  0  0  0  0  0  0  0  0  0
   10.2839   -9.8450    0.0000 O   0  0  0  0  0  0  0  0  0  0  0  0
    8.8550  -12.3200    0.0000 O   0  0  0  0  0  0  0  0  0  0  0  0
    6.7116  -10.2575    0.0000 O   0  0  0  0  0  0  0  0  0  0  0  0
    5.9971   -9.8450    0.0000 C   0  0  0  0  0  0  0  0  0  0  0  0
    5.2826  -10.2575    0.0000 C   0  0  0  0  0  0  0  0  0  0  0  0
    5.9971   -9.0200    0.0000 O   0  0  0  0  0  0  0  0  0  0  0  0
    4.5682   -9.8450    0.0000 C   0  0  0  0  0  0  0  0  0  0  0  0
    3.8537   -9.4325    0.0000 C   0  0  0  0  0  0  0  0  0  0  0  0
    4.9807   -9.1305    0.0000 C   0  0  0  0  0  0  0  0  0  0  0  0
    4.1557  -10.5595    0.0000 O   0  0  0  0  0  0  0  0  0  0  0  0
    3.1392   -9.8450    0.0000 C   0  0  0  0  0  0  0  0  0  0  0  0
    2.4248   -9.4325    0.0000 O   0  0  0  0  0  0  0  0  0  0  0  0
    3.1392  -10.6700    0.0000 O   0  0  0  0  0  0  0  0  0  0  0  0
   10.2839   -9.0200    0.0000 C   0  0  0  0  0  0  0  0  0  0  0  0
   10.9984   -8.6075    0.0000 C   0  0  0  0  0  0  0  0  0  0  0  0
   10.9984   -7.7825    0.0000 C   0  0  0  0  0  0  0  0  0  0  0  0
   10.2839   -7.3700    0.0000 C   0  0  0  0  0  0  0  0  0  0  0  0
    9.5695   -7.7825    0.0000 O   0  0  0  0  0  0  0  0  0  0  0  0
    9.5695   -8.6075    0.0000 C   0  0  0  0  0  0  0  0  0  0  0  0
    8.8550   -9.0200    0.0000 C   0  0  0  0  0  0  0  0  0  0  0  0
   11.7129   -9.0200    0.0000 O   0  0  0  0  0  0  0  0  0  0  0  0
    7.4261  -11.4950    0.0000 O   0  0  0  0  0  0  0  0  0  0  0  0
   10.2839  -11.4950    0.0000 O   0  0  0  0  0  0  0  0  0  0  0  0
  1  2  1  0  0  0  0
  2  3  1  0  0  0  0
  3  4  1  0  0  0  0
  4  5  1  0  0  0  0
  5  6  1  0  0  0  0
  6  1  1  0  0  0  0
  1  7  1  1  0  0  0
  5  8  1  1  0  0  0
  3  9  1  1  0  0  0
  7 10  1  0  0  0  0
 10 11  1  0  0  0  0
 11 12  1  0  0  0  0
 11 13  2  0  0  0  0
 12 14  1  0  0  0  0
 14 15  1  0  0  0  0
 14 16  1  0  0  0  0
 14 17  1  0  0  0  0
 15 18  1  0  0  0  0
 18 19  1  0  0  0  0
 18 20  2  0  0  0  0
  8 21  1  0  0  0  0
 21 22  1  0  0  0  0
 22 23  1  0  0  0  0
 23 24  2  0  0  0  0
 24 25  1  0  0  0  0
 25 26  1  0  0  0  0
 26 21  2  0  0  0  0
 26 27  1  0  0  0  0
 22 28  2  0  0  0  0
  2 29  1  6  0  0  0
  4 30  1  6  0  0  0
M  END
>  <cdx:fragmentId>
5

$$$$
