24150641.cdx
  Mrv1902 05222410262D          

 33 35  0  0  0  0            999 V2000
    7.6457  -14.5887    0.0000 C   0  0  1  0  0  0  0  0  0  0  0  0
    8.3602  -14.1762    0.0000 C   0  0  1  0  0  0  0  0  0  0  0  0
    8.3602  -13.3513    0.0000 C   0  0  1  0  0  0  0  0  0  0  0  0
    7.6457  -12.9388    0.0000 C   0  0  0  0  0  0  0  0  0  0  0  0
    6.9313  -13.3513    0.0000 C   0  0  0  0  0  0  0  0  0  0  0  0
    6.9313  -14.1762    0.0000 O   0  0  0  0  0  0  0  0  0  0  0  0
    9.1448  -13.0963    0.0000 C   0  0  1  0  0  0  0  0  0  0  0  0
    9.6297  -13.7637    0.0000 C   0  0  0  0  0  0  0  0  0  0  0  0
    9.1448  -14.4312    0.0000 C   0  0  1  0  0  0  0  0  0  0  0  0
    7.6457  -12.1138    0.0000 C   0  0  0  0  0  0  0  0  0  0  0  0
    8.3602  -11.7012    0.0000 O   0  0  0  0  0  0  0  0  0  0  0  0
    6.9313  -11.7012    0.0000 O   0  0  0  0  0  0  0  0  0  0  0  0
    7.6457  -15.4138    0.0000 O   0  0  0  0  0  0  0  0  0  0  0  0
    6.2168  -15.4138    0.0000 O   0  0  0  0  0  0  0  0  0  0  0  0
    6.9313  -15.8263    0.0000 C   0  0  2  0  0  0  0  0  0  0  0  0
    6.9313  -16.6513    0.0000 C   0  0  1  0  0  0  0  0  0  0  0  0
    6.2168  -17.0637    0.0000 C   0  0  2  0  0  0  0  0  0  0  0  0
    5.5023  -16.6513    0.0000 C   0  0  1  0  0  0  0  0  0  0  0  0
    5.5023  -15.8263    0.0000 C   0  0  1  0  0  0  0  0  0  0  0  0
    4.7878  -15.4138    0.0000 C   0  0  0  0  0  0  0  0  0  0  0  0
    4.0734  -15.8263    0.0000 O   0  0  0  0  0  0  0  0  0  0  0  0
    4.7878  -17.0637    0.0000 O   0  0  0  0  0  0  0  0  0  0  0  0
    6.2168  -17.8887    0.0000 O   0  0  0  0  0  0  0  0  0  0  0  0
    7.6457  -17.0637    0.0000 O   0  0  0  0  0  0  0  0  0  0  0  0
    8.9733  -15.2382    0.0000 C   0  0  0  0  0  0  0  0  0  0  0  0
    9.7579  -14.9832    0.0000 O   0  0  0  0  0  0  0  0  0  0  0  0
    9.3998  -12.3117    0.0000 O   0  0  0  0  0  0  0  0  0  0  0  0
   10.2067  -12.1402    0.0000 C   0  0  0  0  0  0  0  0  0  0  0  0
   10.4617  -11.3555    0.0000 O   0  0  0  0  0  0  0  0  0  0  0  0
   10.7588  -12.7533    0.0000 C   0  0  0  0  0  0  0  0  0  0  0  0
    8.4464  -12.5308    0.0000 H   0  0  0  0  0  0  0  0  0  0  0  0
    8.4464  -14.9967    0.0000 H   0  0  0  0  0  0  0  0  0  0  0  0
    6.9313  -10.8762    0.0000 C   0  0  0  0  0  0  0  0  0  0  0  0
  1  2  1  0  0  0  0
  2  3  1  0  0  0  0
  3  4  1  0  0  0  0
  4  5  2  0  0  0  0
  5  6  1  0  0  0  0
  1  6  1  0  0  0  0
  7  8  1  0  0  0  0
  8  9  1  0  0  0  0
  9  2  1  0  0  0  0
  7  3  1  0  0  0  0
 10 11  2  0  0  0  0
 10 12  1  0  0  0  0
  4 10  1  0  0  0  0
 14 15  1  0  0  0  0
 15 16  1  0  0  0  0
 16 17  1  0  0  0  0
 17 18  1  0  0  0  0
 18 19  1  0  0  0  0
 14 19  1  0  0  0  0
 20 21  1  0  0  0  0
 19 20  1  1  0  0  0
 18 22  1  6  0  0  0
 17 23  1  1  0  0  0
 16 24  1  6  0  0  0
 15 13  1  1  0  0  0
  1 13  1  6  0  0  0
  9 25  1  1  0  0  0
  9 26  1  6  0  0  0
 28 29  2  0  0  0  0
 28 30  1  0  0  0  0
 27 28  1  0  0  0  0
  7 27  1  6  0  0  0
  3 31  1  6  0  0  0
  2 32  1  6  0  0  0
 12 33  1  0  0  0  0
M  END
>  <cdx:groupId>
146211

>  <cdx:fragmentId>
146113

$$$$
