15062.cdx
  Mrv1902 05222410212D          

 15 15  0  0  0  0            999 V2000
    5.6930   -8.6625    0.0000 C   0  0  0  0  0  0  0  0  0  0  0  0
    5.6930   -9.4875    0.0000 C   0  0  0  0  0  0  0  0  0  0  0  0
    6.4075   -9.9000    0.0000 C   0  0  0  0  0  0  0  0  0  0  0  0
    7.1220   -9.4875    0.0000 C   0  0  0  0  0  0  0  0  0  0  0  0
    7.1220   -8.6625    0.0000 C   0  0  0  0  0  0  0  0  0  0  0  0
    6.4075   -8.2500    0.0000 C   0  0  0  0  0  0  0  0  0  0  0  0
    6.4075   -7.4250    0.0000 O   0  0  0  0  0  0  0  0  0  0  0  0
    7.8364   -8.2500    0.0000 C   0  0  0  0  0  0  0  0  0  0  0  0
    8.2489   -8.9645    0.0000 C   0  0  0  0  0  0  0  0  0  0  0  0
    7.4239   -7.5355    0.0000 C   0  0  0  0  0  0  0  0  0  0  0  0
    8.5509   -7.8375    0.0000 C   0  0  0  0  0  0  0  0  0  0  0  0
    6.4075  -10.7250    0.0000 C   0  0  0  0  0  0  0  0  0  0  0  0
    6.4075  -11.5500    0.0000 C   0  0  0  0  0  0  0  0  0  0  0  0
    5.5825  -10.7250    0.0000 C   0  0  0  0  0  0  0  0  0  0  0  0
    7.2325  -10.7250    0.0000 C   0  0  0  0  0  0  0  0  0  0  0  0
  1  2  1  0  0  0  0
  2  3  2  0  0  0  0
  3  4  1  0  0  0  0
  4  5  2  0  0  0  0
  5  6  1  0  0  0  0
  6  1  2  0  0  0  0
  6  7  1  0  0  0  0
  5  8  1  0  0  0  0
  8  9  1  0  0  0  0
  8 10  1  0  0  0  0
  8 11  1  0  0  0  0
  3 12  1  0  0  0  0
 12 13  1  0  0  0  0
 12 14  1  0  0  0  0
 12 15  1  0  0  0  0
M  END
>  <cdx:fragmentId>
204

$$$$
