15073.cdx
  Mrv1902 05222410222D          

 55 60  0  0  0  0            999 V2000
    2.7382   -6.0885    0.0000 C   0  0  0  0  0  0  0  0  0  0  0  0
    2.7382   -6.9135    0.0000 C   0  0  0  0  0  0  0  0  0  0  0  0
    3.4526   -7.3260    0.0000 C   0  0  0  0  0  0  0  0  0  0  0  0
    4.1671   -6.9135    0.0000 C   0  0  0  0  0  0  0  0  0  0  0  0
    4.1671   -6.0885    0.0000 C   0  0  0  0  0  0  0  0  0  0  0  0
    3.4526   -5.6760    0.0000 C   0  0  0  0  0  0  0  0  0  0  0  0
    4.8816   -7.3260    0.0000 C   0  0  0  0  0  0  0  0  0  0  0  0
    5.5960   -6.9135    0.0000 C   0  0  0  0  0  0  0  0  0  0  0  0
    5.5960   -6.0885    0.0000 C   0  0  0  0  0  0  0  0  0  0  0  0
    4.8816   -5.6760    0.0000 O   0  0  0  0  0  0  0  0  0  0  0  0
    6.3105   -5.6760    0.0000 C   0  0  0  0  0  0  0  0  0  0  0  0
    6.3105   -4.8510    0.0000 C   0  0  0  0  0  0  0  0  0  0  0  0
    7.0250   -6.0885    0.0000 C   0  0  0  0  0  0  0  0  0  0  0  0
    7.7395   -5.6760    0.0000 C   0  0  0  0  0  0  0  0  0  0  0  0
    7.7395   -4.8510    0.0000 C   0  0  0  0  0  0  0  0  0  0  0  0
    7.0250   -4.4385    0.0000 C   0  0  0  0  0  0  0  0  0  0  0  0
    2.0237   -5.6760    0.0000 O   0  0  0  0  0  0  0  0  0  0  0  0
    3.4526   -8.1510    0.0000 O   0  0  0  0  0  0  0  0  0  0  0  0
    4.8816   -8.1510    0.0000 O   0  0  0  0  0  0  0  0  0  0  0  0
    7.0250   -3.6135    0.0000 O   0  0  0  0  0  0  0  0  0  0  0  0
    8.4539   -4.4385    0.0000 O   0  0  0  0  0  0  0  0  0  0  0  0
    6.3105   -7.3260    0.0000 O   0  0  0  0  0  0  0  0  0  0  0  0
    6.8613  -11.2200    0.0000 O   0  0  0  0  0  0  0  0  0  0  0  0
    7.7825  -12.8043    0.0000 O   0  0  0  0  0  0  0  0  0  0  0  0
   11.6298  -13.3004    0.0000 C   0  0  0  0  0  0  0  0  0  0  0  0
   12.0057  -12.5660    0.0000 C   0  0  0  0  0  0  0  0  0  0  0  0
   11.5577  -11.8732    0.0000 C   0  0  0  0  0  0  0  0  0  0  0  0
   10.7338  -11.9149    0.0000 C   0  0  0  0  0  0  0  0  0  0  0  0
   10.3578  -12.6492    0.0000 C   0  0  0  0  0  0  0  0  0  0  0  0
   10.8059  -13.3420    0.0000 C   0  0  0  0  0  0  0  0  0  0  0  0
   12.0778  -13.9931    0.0000 O   0  0  0  0  0  0  0  0  0  0  0  0
   12.8297  -12.5243    0.0000 O   0  0  0  0  0  0  0  0  0  0  0  0
    9.5339  -12.6909    0.0000 C   0  0  0  0  0  0  0  0  0  0  0  0
    9.0859  -11.9981    0.0000 C   0  0  0  0  0  0  0  0  0  0  0  0
    8.2619  -12.0398    0.0000 C   0  0  0  0  0  0  0  0  0  0  0  0
    7.8139  -11.3470    0.0000 O   0  0  0  0  0  0  0  0  0  0  0  0
    5.1696  -12.8722    0.0000 C   0  0  1  0  0  0  0  0  0  0  0  0
    5.6097  -13.5700    0.0000 C   0  0  1  0  0  0  0  0  0  0  0  0
    6.4341  -13.5377    0.0000 C   0  0  2  0  0  0  0  0  0  0  0  0
    6.8184  -12.8077    0.0000 C   0  0  2  0  0  0  0  0  0  0  0  0
    6.3782  -12.1099    0.0000 C   0  0  1  0  0  0  0  0  0  0  0  0
    5.5539  -12.1422    0.0000 O   0  0  0  0  0  0  0  0  0  0  0  0
    4.3453  -12.9045    0.0000 C   0  0  0  0  0  0  0  0  0  0  0  0
    6.8742  -14.2355    0.0000 O   0  0  0  0  0  0  0  0  0  0  0  0
    5.2255  -14.3001    0.0000 O   0  0  0  0  0  0  0  0  0  0  0  0
    6.8114   -9.6721    0.0000 C   0  0  2  0  0  0  0  0  0  0  0  0
    7.6364   -9.6721    0.0000 C   0  0  2  0  0  0  0  0  0  0  0  0
    8.0489   -8.9576    0.0000 C   0  0  1  0  0  0  0  0  0  0  0  0
    7.6364   -8.2431    0.0000 C   0  0  2  0  0  0  0  0  0  0  0  0
    6.8114   -8.2431    0.0000 C   0  0  1  0  0  0  0  0  0  0  0  0
    6.3989   -8.9576    0.0000 O   0  0  0  0  0  0  0  0  0  0  0  0
    6.3989  -10.3865    0.0000 C   0  0  0  0  0  0  0  0  0  0  0  0
    8.8739   -8.9576    0.0000 O   0  0  0  0  0  0  0  0  0  0  0  0
    8.0489   -7.5286    0.0000 O   0  0  0  0  0  0  0  0  0  0  0  0
    8.0489  -10.3865    0.0000 O   0  0  0  0  0  0  0  0  0  0  0  0
  1  2  1  0  0  0  0
  2  3  2  0  0  0  0
  3  4  1  0  0  0  0
  4  5  2  0  0  0  0
  5  6  1  0  0  0  0
  6  1  2  0  0  0  0
  4  7  1  0  0  0  0
  7  8  1  0  0  0  0
  8  9  2  0  0  0  0
  9 10  1  0  0  0  0
 10  5  1  0  0  0  0
  9 11  1  0  0  0  0
 11 12  1  0  0  0  0
 11 13  2  0  0  0  0
 13 14  1  0  0  0  0
 14 15  2  0  0  0  0
 15 16  1  0  0  0  0
 16 12  2  0  0  0  0
  1 17  1  0  0  0  0
  3 18  1  0  0  0  0
  7 19  2  0  0  0  0
 16 20  1  0  0  0  0
 15 21  1  0  0  0  0
  8 22  1  0  0  0  0
 25 26  2  0  0  0  0
 26 27  1  0  0  0  0
 27 28  2  0  0  0  0
 28 29  1  0  0  0  0
 29 30  2  0  0  0  0
 30 25  1  0  0  0  0
 25 31  1  0  0  0  0
 26 32  1  0  0  0  0
 29 33  1  0  0  0  0
 33 34  2  0  0  0  0
 34 35  1  0  0  0  0
 35 36  2  0  0  0  0
 24 35  1  0  0  0  0
 37 38  1  0  0  0  0
 38 39  1  0  0  0  0
 39 40  1  0  0  0  0
 40 41  1  0  0  0  0
 41 42  1  0  0  0  0
 42 37  1  0  0  0  0
 37 43  1  6  0  0  0
 39 44  1  6  0  0  0
 38 45  1  1  0  0  0
 41 23  1  1  0  0  0
 40 24  1  6  0  0  0
 46 47  1  0  0  0  0
 47 48  1  0  0  0  0
 48 49  1  0  0  0  0
 49 50  1  0  0  0  0
 50 51  1  0  0  0  0
 51 46  1  0  0  0  0
 46 52  1  1  0  0  0
 48 53  1  1  0  0  0
 49 54  1  6  0  0  0
 47 55  1  6  0  0  0
 23 52  1  0  0  0  0
 50 22  1  1  0  0  0
M  END
>  <cdx:fragmentId>
5

$$$$
