15088.cdx
  Mrv1902 05222410222D          

 30 31  0  0  0  0            999 V2000
    4.1805   -9.7350    0.0000 C   0  0  0  0  0  0  0  0  0  0  0  0
    4.1805  -10.5600    0.0000 C   0  0  0  0  0  0  0  0  0  0  0  0
    4.8950  -10.9725    0.0000 C   0  0  0  0  0  0  0  0  0  0  0  0
    5.6095  -10.5600    0.0000 C   0  0  0  0  0  0  0  0  0  0  0  0
    5.6095   -9.7350    0.0000 C   0  0  0  0  0  0  0  0  0  0  0  0
    4.8950   -9.3225    0.0000 C   0  0  0  0  0  0  0  0  0  0  0  0
    4.8950   -8.4975    0.0000 C   0  0  0  0  0  0  0  0  0  0  0  0
    4.1805   -8.0850    0.0000 O   0  0  0  0  0  0  0  0  0  0  0  0
    5.6095   -8.0850    0.0000 C   0  0  2  0  0  0  0  0  0  0  0  0
    6.3239   -8.4975    0.0000 O   0  0  0  0  0  0  0  0  0  0  0  0
    5.6095   -7.2600    0.0000 C   0  0  0  0  0  0  0  0  0  0  0  0
    6.3239   -6.8475    0.0000 C   0  0  0  0  0  0  0  0  0  0  0  0
    6.3239  -10.9725    0.0000 C   0  0  0  0  0  0  0  0  0  0  0  0
    7.0384  -10.5600    0.0000 C   0  0  0  0  0  0  0  0  0  0  0  0
    7.7529  -10.9725    0.0000 C   0  0  0  0  0  0  0  0  0  0  0  0
    8.4674  -10.5600    0.0000 C   0  0  0  0  0  0  0  0  0  0  0  0
    7.7529  -11.7975    0.0000 C   0  0  0  0  0  0  0  0  0  0  0  0
    3.4661   -9.3225    0.0000 O   0  0  0  0  0  0  0  0  0  0  0  0
    4.8950  -11.7975    0.0000 O   0  0  0  0  0  0  0  0  0  0  0  0
    7.0384   -7.2600    0.0000 C   0  0  0  0  0  0  0  0  0  0  0  0
    7.7529   -6.8475    0.0000 C   0  0  0  0  0  0  0  0  0  0  0  0
    7.7529   -6.0225    0.0000 C   0  0  0  0  0  0  0  0  0  0  0  0
    7.0384   -5.6100    0.0000 C   0  0  0  0  0  0  0  0  0  0  0  0
    6.3239   -6.0225    0.0000 C   0  0  0  0  0  0  0  0  0  0  0  0
    8.4674   -5.6100    0.0000 O   0  0  0  0  0  0  0  0  0  0  0  0
    8.4674   -7.2600    0.0000 C   0  0  0  0  0  0  0  0  0  0  0  0
    9.1818   -6.8475    0.0000 C   0  0  0  0  0  0  0  0  0  0  0  0
    9.8963   -7.2600    0.0000 C   0  0  0  0  0  0  0  0  0  0  0  0
   10.6108   -6.8475    0.0000 C   0  0  0  0  0  0  0  0  0  0  0  0
    9.8963   -8.0850    0.0000 C   0  0  0  0  0  0  0  0  0  0  0  0
  1  2  1  0  0  0  0
  2  3  2  0  0  0  0
  3  4  1  0  0  0  0
  4  5  2  0  0  0  0
  5  6  1  0  0  0  0
  6  1  2  0  0  0  0
  6  7  1  0  0  0  0
  7  8  2  0  0  0  0
  7  9  1  0  0  0  0
  9 10  1  1  0  0  0
  9 11  1  0  0  0  0
 11 12  1  0  0  0  0
  4 13  1  0  0  0  0
 13 14  1  0  0  0  0
 14 15  2  0  0  0  0
 15 16  1  0  0  0  0
 15 17  1  0  0  0  0
  1 18  1  0  0  0  0
  3 19  1  0  0  0  0
 12 20  2  0  0  0  0
 20 21  1  0  0  0  0
 21 22  2  0  0  0  0
 22 23  1  0  0  0  0
 23 24  2  0  0  0  0
 24 12  1  0  0  0  0
 22 25  1  0  0  0  0
 21 26  1  0  0  0  0
 26 27  1  0  0  0  0
 27 28  2  0  0  0  0
 28 29  1  0  0  0  0
 28 30  1  0  0  0  0
M  END
>  <cdx:fragmentId>
5

$$$$
