15089.cdx
  Mrv1902 05222410212D          

 18 18  0  0  0  0            999 V2000
    5.4541   -2.9494    0.0000 C   0  0  0  0  0  0  0  0  0  0  0  0
    5.4541   -3.7744    0.0000 C   0  0  0  0  0  0  0  0  0  0  0  0
    4.7396   -4.1869    0.0000 C   0  0  0  0  0  0  0  0  0  0  0  0
    4.0252   -3.7744    0.0000 C   0  0  0  0  0  0  0  0  0  0  0  0
    4.0252   -2.9494    0.0000 C   0  0  0  0  0  0  0  0  0  0  0  0
    4.7396   -2.5369    0.0000 C   0  0  0  0  0  0  0  0  0  0  0  0
    3.3107   -2.5369    0.0000 C   0  0  0  0  0  0  0  0  0  0  0  0
    2.5962   -2.1244    0.0000 C   0  0  0  0  0  0  0  0  0  0  0  0
    3.3107   -1.7119    0.0000 C   0  0  0  0  0  0  0  0  0  0  0  0
    2.5962   -2.9494    0.0000 C   0  0  0  0  0  0  0  0  0  0  0  0
    4.7396   -5.0119    0.0000 C   0  0  0  0  0  0  0  0  0  0  0  0
    5.4541   -5.4244    0.0000 C   0  0  0  0  0  0  0  0  0  0  0  0
    4.7396   -5.8369    0.0000 C   0  0  0  0  0  0  0  0  0  0  0  0
    4.0252   -5.4244    0.0000 C   0  0  0  0  0  0  0  0  0  0  0  0
    6.1686   -2.5369    0.0000 C   0  0  0  0  0  0  0  0  0  0  0  0
    6.1686   -1.7119    0.0000 C   0  0  0  0  0  0  0  0  0  0  0  0
    6.8830   -2.1244    0.0000 C   0  0  0  0  0  0  0  0  0  0  0  0
    6.8830   -2.9494    0.0000 C   0  0  0  0  0  0  0  0  0  0  0  0
  1  2  1  0  0  0  0
  2  3  2  0  0  0  0
  3  4  1  0  0  0  0
  4  5  2  0  0  0  0
  5  6  1  0  0  0  0
  1  6  2  0  0  0  0
  7  8  1  0  0  0  0
  7 10  1  0  0  0  0
  7  9  1  0  0  0  0
  5  7  1  0  0  0  0
 11 12  1  0  0  0  0
 11 14  1  0  0  0  0
 11 13  1  0  0  0  0
  3 11  1  0  0  0  0
 15 16  1  0  0  0  0
 15 18  1  0  0  0  0
 15 17  1  0  0  0  0
  1 15  1  0  0  0  0
M  END
>  <cdx:groupId>
56

>  <cdx:fragmentId>
5

$$$$
