15094.cdx
  Mrv1902 05222410242D          

 17 18  0  0  0  0            999 V2000
    9.2867   -7.9078    0.0000 C   0  0  0  0  0  0  0  0  0  0  0  0
    9.2825   -7.0828    0.0000 C   0  0  0  0  0  0  0  0  0  0  0  0
    8.5659   -6.6740    0.0000 C   0  0  2  0  0  0  0  0  0  0  0  0
    7.8536   -7.0902    0.0000 C   0  0  1  0  0  0  0  0  0  0  0  0
    7.8578   -7.9152    0.0000 C   0  0  1  0  0  0  0  0  0  0  0  0
    8.5744   -8.3240    0.0000 C   0  0  0  0  0  0  0  0  0  0  0  0
    7.1370   -6.6814    0.0000 C   0  0  0  0  0  0  0  0  0  0  0  0
    6.4246   -7.0976    0.0000 C   0  0  0  0  0  0  0  0  0  0  0  0
    6.4289   -7.9226    0.0000 C   0  0  0  0  0  0  0  0  0  0  0  0
    7.1455   -8.3314    0.0000 C   0  0  0  0  0  0  0  0  0  0  0  0
    8.5787   -9.1490    0.0000 C   0  0  0  0  0  0  0  0  0  0  0  0
    5.7080   -6.6888    0.0000 C   0  0  0  0  0  0  0  0  0  0  0  0
    8.5616   -5.8491    0.0000 C   0  0  0  0  0  0  0  0  0  0  0  0
    7.8450   -5.4403    0.0000 C   0  0  0  0  0  0  0  0  0  0  0  0
    9.2739   -5.4329    0.0000 C   0  0  0  0  0  0  0  0  0  0  0  0
    7.8493   -6.2652    0.0000 H   0  0  0  0  0  0  0  0  0  0  0  0
    7.8621   -8.7402    0.0000 H   0  0  0  0  0  0  0  0  0  0  0  0
  1  2  1  0  0  0  0
  2  3  1  0  0  0  0
  3  4  1  0  0  0  0
  4  5  1  0  0  0  0
  5  6  1  0  0  0  0
  6  1  1  0  0  0  0
  4  7  1  0  0  0  0
  7  8  2  0  0  0  0
  8  9  1  0  0  0  0
  9 10  1  0  0  0  0
 10  5  1  0  0  0  0
  6 11  2  0  0  0  0
  8 12  1  0  0  0  0
  3 13  1  6  0  0  0
 13 14  1  0  0  0  0
 13 15  1  0  0  0  0
  4 16  1  6  0  0  0
  5 17  1  6  0  0  0
M  END
>  <cdx:fragmentId>
65

$$$$
