150929.cdx
  Mrv1902 05222410272D          

  8  7  0  0  0  0            999 V2000
    7.6311   -6.0621    0.0000 O   0  0  0  0  0  0  0  0  0  0  0  0
    9.0600   -6.8871    0.0000 O   0  0  0  0  0  0  0  0  0  0  0  0
    5.4876   -7.2996    0.0000 O   0  0  0  0  0  0  0  0  0  0  0  0
    6.2021   -6.0621    0.0000 O   0  0  0  0  0  0  0  0  0  0  0  0
    8.3455   -7.2996    0.0000 C   0  0  0  0  0  0  0  0  0  0  0  0
    7.6311   -6.8871    0.0000 C   0  0  0  0  0  0  0  0  0  0  0  0
    6.9166   -7.2996    0.0000 C   0  0  0  0  0  0  0  0  0  0  0  0
    6.2021   -6.8871    0.0000 C   0  0  0  0  0  0  0  0  0  0  0  0
  6  1  1  0  0  0  0
  5  2  1  0  0  0  0
  8  3  1  0  0  0  0
  8  4  2  0  0  0  0
  6  5  1  0  0  0  0
  7  6  1  0  0  0  0
  8  7  1  0  0  0  0
M  END
>  <cdx:groupId>
1023

>  <cdx:fragmentId>
1003

$$$$
