150985.cdx
  Mrv1902 05222410212D          

 23 24  0  0  0  0            999 V2000
    7.1052   -6.6032    0.0000 C   0  0  1  0  0  0  0  0  0  0  0  0
    6.3907   -6.1907    0.0000 C   0  0  1  0  0  0  0  0  0  0  0  0
    6.3907   -5.3657    0.0000 C   0  0  0  0  0  0  0  0  0  0  0  0
    7.1052   -4.9532    0.0000 C   0  0  0  0  0  0  0  0  0  0  0  0
    7.8196   -5.3657    0.0000 C   0  0  1  0  0  0  0  0  0  0  0  0
    8.5341   -4.9532    0.0000 C   0  0  0  0  0  0  0  0  0  0  0  0
    9.2486   -5.3657    0.0000 C   0  0  0  0  0  0  0  0  0  0  0  0
    9.2486   -6.1907    0.0000 C   0  0  0  0  0  0  0  0  0  0  0  0
    8.5341   -6.6032    0.0000 C   0  0  0  0  0  0  0  0  0  0  0  0
    7.8196   -6.1907    0.0000 C   0  0  2  0  0  0  0  0  0  0  0  0
    5.9782   -6.9051    0.0000 O   0  0  0  0  0  0  0  0  0  0  0  0
    7.8196   -7.0157    0.0000 C   0  0  0  0  0  0  0  0  0  0  0  0
    8.1216   -4.2387    0.0000 C   0  0  0  0  0  0  0  0  0  0  0  0
    8.9466   -4.2387    0.0000 C   0  0  0  0  0  0  0  0  0  0  0  0
    5.5657   -6.1907    0.0000 C   0  0  0  0  0  0  0  0  0  0  0  0
    7.1052   -7.4282    0.0000 C   0  0  0  0  0  0  0  0  0  0  0  0
    6.3907   -7.8407    0.0000 C   0  0  0  0  0  0  0  0  0  0  0  0
    6.3907   -8.6657    0.0000 C   0  0  1  0  0  0  0  0  0  0  0  0
    5.6762   -9.0782    0.0000 C   0  0  0  0  0  0  0  0  0  0  0  0
    5.6762   -9.9032    0.0000 C   0  0  0  0  0  0  0  0  0  0  0  0
    6.8032   -9.3801    0.0000 C   0  0  0  0  0  0  0  0  0  0  0  0
    7.2157   -8.6657    0.0000 O   0  0  0  0  0  0  0  0  0  0  0  0
    7.8196   -4.5407    0.0000 H   0  0  0  0  0  0  0  0  0  0  0  0
  1  2  1  0  0  0  0
  2  3  1  0  0  0  0
  3  4  1  0  0  0  0
  4  5  1  0  0  0  0
  5  6  1  0  0  0  0
  6  7  1  0  0  0  0
  7  8  1  0  0  0  0
  8  9  1  0  0  0  0
  9 10  1  0  0  0  0
  1 10  1  0  0  0  0
  5 10  1  0  0  0  0
  2 11  1  6  0  0  0
 10 12  1  1  0  0  0
  6 13  1  0  0  0  0
  6 14  1  0  0  0  0
  2 15  1  1  0  0  0
 16 17  1  0  0  0  0
 17 18  1  0  0  0  0
 18 19  1  0  0  0  0
 19 20  2  0  0  0  0
 18 21  1  6  0  0  0
 18 22  1  1  0  0  0
  1 16  1  1  0  0  0
  5 23  1  6  0  0  0
M  END
>  <cdx:groupId>
4423

>  <cdx:fragmentId>
4356

$$$$
