15095.cdx
  Mrv1902 05222410242D          

 16 17  0  0  0  0            999 V2000
    7.1778   -7.2122    0.0000 H   0  0  0  0  0  0  0  0  0  0  0  0
    9.1771   -7.6167    0.0000 C   0  0  0  0  0  0  0  0  0  0  0  0
    6.0797   -6.7437    0.0000 C   0  0  0  0  0  0  0  0  0  0  0  0
    6.8381   -6.8165    0.0000 C   0  0  0  0  0  0  0  0  0  0  0  0
    6.5665  -10.1670    0.0000 C   0  0  0  0  0  0  0  0  0  0  0  0
    7.7481   -7.6135    0.0000 C   0  0  0  0  0  0  0  0  0  0  0  0
    8.4617   -8.0276    0.0000 C   0  0  0  0  0  0  0  0  0  0  0  0
    8.4598   -8.8526    0.0000 C   0  0  0  0  0  0  0  0  0  0  0  0
    7.7444   -9.2635    0.0000 C   0  0  0  0  0  0  0  0  0  0  0  0
    6.3889   -7.5085    0.0000 C   0  0  0  0  0  0  0  0  0  0  0  0
    5.5842   -7.6903    0.0000 C   0  0  0  0  0  0  0  0  0  0  0  0
    5.2245   -8.4328    0.0000 C   0  0  0  0  0  0  0  0  0  0  0  0
    5.5808   -9.1769    0.0000 C   0  0  0  0  0  0  0  0  0  0  0  0
    6.3847   -9.3623    0.0000 C   0  0  0  0  0  0  0  0  0  0  0  0
    7.0309   -8.8494    0.0000 C   0  0  0  0  0  0  0  0  0  0  0  0
    7.0327   -8.0244    0.0000 C   0  0  2  0  0  0  0  0  0  0  0  0
 16  1  1  6  0  0  0
  7  2  1  0  0  0  0
 10  3  1  0  0  0  0
 10  4  1  0  0  0  0
 14  5  1  0  0  0  0
  9 15  1  0  0  0  0
  6 16  1  0  0  0  0
  7  6  2  0  0  0  0
  8  7  1  0  0  0  0
  9  8  1  0  0  0  0
 16 10  1  0  0  0  0
 11 10  1  0  0  0  0
 12 11  1  0  0  0  0
 13 12  1  0  0  0  0
 14 13  1  0  0  0  0
 15 14  2  0  0  0  0
 16 15  1  0  0  0  0
M  END
>  <cdx:fragmentId>
5

$$$$
