21151017.cdx
  Mrv1902 05222410282D          

 31 35  0  0  0  0            999 V2000
    6.6286  -14.5508    0.0000 C   0  0  1  0  0  0  0  0  0  0  0  0
    7.1429  -13.9058    0.0000 C   0  0  0  0  0  0  0  0  0  0  0  0
    7.9679  -13.9058    0.0000 C   0  0  2  0  0  0  0  0  0  0  0  0
    8.4823  -14.5508    0.0000 C   0  0  2  0  0  0  0  0  0  0  0  0
    9.3040  -14.4768    0.0000 C   0  0  0  0  0  0  0  0  0  0  0  0
    9.6282  -15.2354    0.0000 C   0  0  1  0  0  0  0  0  0  0  0  0
    9.7877  -16.0449    0.0000 O   0  0  0  0  0  0  0  0  0  0  0  0
    9.0070  -15.7782    0.0000 C   0  0  1  0  0  0  0  0  0  0  0  0
    8.2987  -15.3551    0.0000 C   0  0  1  0  0  0  0  0  0  0  0  0
    7.5554  -15.7130    0.0000 C   0  0  1  0  0  0  0  0  0  0  0  0
    6.8121  -15.3551    0.0000 C   0  0  2  0  0  0  0  0  0  0  0  0
    6.2978  -16.0001    0.0000 C   0  0  0  0  0  0  0  0  0  0  0  0
    5.4728  -16.0001    0.0000 C   0  0  0  0  0  0  0  0  0  0  0  0
    4.9584  -15.3551    0.0000 C   0  0  1  0  0  0  0  0  0  0  0  0
    5.1420  -14.5508    0.0000 C   0  0  1  0  0  0  0  0  0  0  0  0
    5.8853  -14.1928    0.0000 C   0  0  0  0  0  0  0  0  0  0  0  0
    5.5623  -14.4709    0.0000 C   0  0  1  0  0  0  0  0  0  0  0  0
    8.3804  -13.1913    0.0000 O   0  0  0  0  0  0  0  0  0  0  0  0
    8.8066  -13.7922    0.0000 O   0  0  0  0  0  0  0  0  0  0  0  0
    8.0286  -16.3888    0.0000 O   0  0  0  0  0  0  0  0  0  0  0  0
    4.3262  -14.4278    0.0000 O   0  0  0  0  0  0  0  0  0  0  0  0
    5.1498  -13.7564    0.0000 O   0  0  0  0  0  0  0  0  0  0  0  0
    4.8405  -13.7828    0.0000 C   0  0  0  0  0  0  0  0  0  0  0  0
    7.2733  -16.4883    0.0000 C   0  0  0  0  0  0  0  0  0  0  0  0
    9.3040  -13.6518    0.0000 C   0  0  0  0  0  0  0  0  0  0  0  0
   10.0185  -14.0643    0.0000 C   0  0  0  0  0  0  0  0  0  0  0  0
   10.4166  -14.9923    0.0000 H   0  0  0  0  0  0  0  0  0  0  0  0
    8.6602  -16.5268    0.0000 H   0  0  0  0  0  0  0  0  0  0  0  0
    7.6537  -14.8407    0.0000 H   0  0  0  0  0  0  0  0  0  0  0  0
    6.8533  -16.1791    0.0000 H   0  0  0  0  0  0  0  0  0  0  0  0
    4.1541  -15.5387    0.0000 H   0  0  0  0  0  0  0  0  0  0  0  0
  1  2  1  0  0  0  0
  2  3  1  0  0  0  0
  3  4  1  0  0  0  0
  4  5  1  0  0  0  0
  5  6  1  0  0  0  0
  6  7  1  0  0  0  0
  7  8  1  0  0  0  0
  8  9  1  0  0  0  0
  9 10  1  0  0  0  0
 10 11  1  0  0  0  0
 11 12  1  0  0  0  0
 12 13  1  0  0  0  0
 13 14  1  0  0  0  0
 14 15  1  0  0  0  0
 15 16  1  0  0  0  0
  1 16  1  1  0  0  0
  1 17  1  0  0  0  0
 17 14  1  0  0  0  0
  1 11  1  0  0  0  0
  4  9  1  0  0  0  0
  6  8  1  0  0  0  0
  3 18  1  1  0  0  0
  4 19  1  1  0  0  0
 10 20  1  6  0  0  0
 15 21  1  6  0  0  0
 17 22  1  1  0  0  0
 15 23  1  1  0  0  0
 10 24  1  1  0  0  0
  5 25  1  0  0  0  0
  5 26  1  0  0  0  0
  6 27  1  6  0  0  0
  8 28  1  6  0  0  0
  9 29  1  6  0  0  0
 11 30  1  1  0  0  0
 14 31  1  6  0  0  0
M  END
>  <cdx:groupId>
127092

>  <cdx:fragmentId>
126998

$$$$
