151014.cdx
  Mrv1902 05222410272D          

 17 16  0  0  0  0            999 V2000
   11.2463   -8.3026    0.0000 C   0  0  0  0  0  0  0  0  0  0  0  0
   10.5318   -8.7151    0.0000 C   0  0  0  0  0  0  0  0  0  0  0  0
    9.8173   -8.3026    0.0000 C   0  0  0  0  0  0  0  0  0  0  0  0
    9.1029   -8.7151    0.0000 C   0  0  0  0  0  0  0  0  0  0  0  0
    8.3884   -8.3026    0.0000 C   0  0  0  0  0  0  0  0  0  0  0  0
    7.6739   -8.7151    0.0000 C   0  0  0  0  0  0  0  0  0  0  0  0
    6.9595   -8.3026    0.0000 C   0  0  0  0  0  0  0  0  0  0  0  0
    6.2450   -8.7151    0.0000 C   0  0  0  0  0  0  0  0  0  0  0  0
    5.5305   -8.3026    0.0000 C   0  0  0  0  0  0  0  0  0  0  0  0
    4.8160   -8.7151    0.0000 C   0  0  0  0  0  0  0  0  0  0  0  0
    4.1016   -8.3026    0.0000 C   0  0  0  0  0  0  0  0  0  0  0  0
    3.3871   -8.7151    0.0000 C   0  0  0  0  0  0  0  0  0  0  0  0
    2.6726   -8.3026    0.0000 C   0  0  0  0  0  0  0  0  0  0  0  0
    1.9582   -8.7151    0.0000 C   0  0  0  0  0  0  0  0  0  0  0  0
   11.2463   -7.4776    0.0000 O   0  0  0  0  0  0  0  0  0  0  0  0
   11.9608   -8.7151    0.0000 O   0  0  0  0  0  0  0  0  0  0  0  0
    2.6726   -7.4776    0.0000 C   0  0  0  0  0  0  0  0  0  0  0  0
  1  2  1  0  0  0  0
  2  3  1  0  0  0  0
  3  4  1  0  0  0  0
  4  5  1  0  0  0  0
  5  6  1  0  0  0  0
  6  7  1  0  0  0  0
  7  8  1  0  0  0  0
  8  9  1  0  0  0  0
  9 10  1  0  0  0  0
 10 11  1  0  0  0  0
 11 12  1  0  0  0  0
 12 13  1  0  0  0  0
 13 14  1  0  0  0  0
  1 15  2  0  0  0  0
  1 16  1  0  0  0  0
 13 17  1  0  0  0  0
M  END
>  <cdx:groupId>
1204

>  <cdx:fragmentId>
1157

$$$$
