15109.cdx
  Mrv1902 05222410232D          

 13 13  0  0  0  0            999 V2000
    6.8915   -6.8392    0.0000 C   0  0  0  0  0  0  0  0  0  0  0  0
    6.8930   -7.6642    0.0000 C   0  0  0  0  0  0  0  0  0  0  0  0
    6.1793   -8.0780    0.0000 C   0  0  0  0  0  0  0  0  0  0  0  0
    6.1808   -8.9030    0.0000 C   0  0  0  0  0  0  0  0  0  0  0  0
    6.8960   -9.3142    0.0000 C   0  0  0  0  0  0  0  0  0  0  0  0
    7.6097   -8.9004    0.0000 C   0  0  0  0  0  0  0  0  0  0  0  0
    7.6083   -8.0754    0.0000 C   0  0  0  0  0  0  0  0  0  0  0  0
    6.1763   -6.4280    0.0000 O   0  0  0  0  0  0  0  0  0  0  0  0
    7.6053   -6.4254    0.0000 O   0  0  0  0  0  0  0  0  0  0  0  0
    8.3220   -7.6616    0.0000 O   0  0  0  0  0  0  0  0  0  0  0  0
    5.4641   -7.6668    0.0000 O   0  0  0  0  0  0  0  0  0  0  0  0
    4.7504   -8.0806    0.0000 C   0  0  0  0  0  0  0  0  0  0  0  0
    9.0372   -8.0728    0.0000 C   0  0  0  0  0  0  0  0  0  0  0  0
  1  2  1  0  0  0  0
  2  3  1  0  0  0  0
  3  4  2  0  0  0  0
  4  5  1  0  0  0  0
  5  6  2  0  0  0  0
  6  7  1  0  0  0  0
  2  7  2  0  0  0  0
  1  8  2  0  0  0  0
  1  9  1  0  0  0  0
  7 10  1  0  0  0  0
 11 12  1  0  0  0  0
  3 11  1  0  0  0  0
 10 13  1  0  0  0  0
M  END
>  <cdx:fragmentId>
5

$$$$
