1510.cdx
  Mrv1902 05222410262D          

 42 46  0  0  0  0            999 V2000
    5.7302   -8.0437    0.0000 C   0  0  0  0  0  0  0  0  0  0  0  0
    5.7302   -8.8688    0.0000 C   0  0  0  0  0  0  0  0  0  0  0  0
    6.4446   -9.2813    0.0000 C   0  0  0  0  0  0  0  0  0  0  0  0
    7.1591   -8.8688    0.0000 C   0  0  0  0  0  0  0  0  0  0  0  0
    7.1591   -8.0437    0.0000 C   0  0  0  0  0  0  0  0  0  0  0  0
    6.4446   -7.6313    0.0000 C   0  0  0  0  0  0  0  0  0  0  0  0
    7.8736   -9.2813    0.0000 C   0  0  0  0  0  0  0  0  0  0  0  0
    8.5880   -8.8688    0.0000 C   0  0  0  0  0  0  0  0  0  0  0  0
    8.5880   -8.0437    0.0000 C   0  0  1  0  0  0  0  0  0  0  0  0
    7.8736   -7.6313    0.0000 O   0  0  0  0  0  0  0  0  0  0  0  0
    9.3025   -7.6313    0.0000 C   0  0  0  0  0  0  0  0  0  0  0  0
    9.3025   -6.8062    0.0000 C   0  0  0  0  0  0  0  0  0  0  0  0
   10.0170   -8.0437    0.0000 C   0  0  0  0  0  0  0  0  0  0  0  0
   10.7315   -7.6313    0.0000 C   0  0  0  0  0  0  0  0  0  0  0  0
   10.7315   -6.8062    0.0000 C   0  0  0  0  0  0  0  0  0  0  0  0
   10.0170   -6.3937    0.0000 C   0  0  0  0  0  0  0  0  0  0  0  0
   11.4459   -6.3937    0.0000 O   0  0  0  0  0  0  0  0  0  0  0  0
    7.8736  -10.1063    0.0000 O   0  0  0  0  0  0  0  0  0  0  0  0
    5.0157   -7.6313    0.0000 O   0  0  0  0  0  0  0  0  0  0  0  0
    6.4446  -10.1063    0.0000 O   0  0  0  0  0  0  0  0  0  0  0  0
    5.7362   -5.5615    0.0000 C   0  0  2  0  0  0  0  0  0  0  0  0
    5.0220   -5.1485    0.0000 C   0  0  2  0  0  0  0  0  0  0  0  0
    4.3072   -5.5604    0.0000 C   0  0  1  0  0  0  0  0  0  0  0  0
    4.3066   -6.3854    0.0000 C   0  0  2  0  0  0  0  0  0  0  0  0
    5.0208   -6.7985    0.0000 C   0  0  1  0  0  0  0  0  0  0  0  0
    5.7356   -6.3865    0.0000 O   0  0  0  0  0  0  0  0  0  0  0  0
    6.4509   -5.1495    0.0000 C   0  0  0  0  0  0  0  0  0  0  0  0
    3.5931   -5.1474    0.0000 O   0  0  0  0  0  0  0  0  0  0  0  0
    3.5918   -6.7974    0.0000 O   0  0  0  0  0  0  0  0  0  0  0  0
    5.0226   -4.3235    0.0000 O   0  0  0  0  0  0  0  0  0  0  0  0
    6.4516   -4.3245    0.0000 O   0  0  0  0  0  0  0  0  0  0  0  0
    4.2774  -10.5084    0.0000 C   0  0  2  0  0  0  0  0  0  0  0  0
    4.2703  -11.3334    0.0000 C   0  0  2  0  0  0  0  0  0  0  0  0
    4.9812  -11.7520    0.0000 C   0  0  1  0  0  0  0  0  0  0  0  0
    5.6992  -11.3457    0.0000 C   0  0  2  0  0  0  0  0  0  0  0  0
    5.7063  -10.5208    0.0000 C   0  0  1  0  0  0  0  0  0  0  0  0
    4.9954  -10.1021    0.0000 O   0  0  0  0  0  0  0  0  0  0  0  0
    3.5666  -10.0898    0.0000 C   0  0  0  0  0  0  0  0  0  0  0  0
    4.9741  -12.5770    0.0000 O   0  0  0  0  0  0  0  0  0  0  0  0
    6.4101  -11.7644    0.0000 O   0  0  0  0  0  0  0  0  0  0  0  0
    3.5523  -11.7397    0.0000 O   0  0  0  0  0  0  0  0  0  0  0  0
    2.8486  -10.4961    0.0000 O   0  0  0  0  0  0  0  0  0  0  0  0
  1  2  2  0  0  0  0
  2  3  1  0  0  0  0
  3  4  2  0  0  0  0
  4  5  1  0  0  0  0
  5  6  2  0  0  0  0
  6  1  1  0  0  0  0
  4  7  1  0  0  0  0
  7  8  1  0  0  0  0
  8  9  1  0  0  0  0
  9 10  1  0  0  0  0
 10  5  1  0  0  0  0
  9 11  1  1  0  0  0
 11 12  1  0  0  0  0
 11 13  2  0  0  0  0
 13 14  1  0  0  0  0
 14 15  2  0  0  0  0
 15 16  1  0  0  0  0
 16 12  2  0  0  0  0
 15 17  1  0  0  0  0
  7 18  2  0  0  0  0
  1 19  1  0  0  0  0
  3 20  1  0  0  0  0
 21 22  1  0  0  0  0
 22 23  1  0  0  0  0
 23 24  1  0  0  0  0
 24 25  1  0  0  0  0
 25 26  1  0  0  0  0
 26 21  1  0  0  0  0
 21 27  1  1  0  0  0
 23 28  1  1  0  0  0
 24 29  1  6  0  0  0
 22 30  1  6  0  0  0
 27 31  1  0  0  0  0
 32 33  1  0  0  0  0
 33 34  1  0  0  0  0
 34 35  1  0  0  0  0
 35 36  1  0  0  0  0
 36 37  1  0  0  0  0
 37 32  1  0  0  0  0
 32 38  1  1  0  0  0
 34 39  1  1  0  0  0
 35 40  1  6  0  0  0
 33 41  1  6  0  0  0
 38 42  1  0  0  0  0
 25 19  1  1  0  0  0
 36 20  1  1  0  0  0
M  END
>  <cdx:fragmentId>
5

$$$$
