15104.cdx
  Mrv1902 05222410232D          

 14 13  0  0  0  0            999 V2000
    8.8389   -4.2609    0.0000 C   0  0  0  0  0  0  0  0  0  0  0  0
    8.8401   -3.4359    0.0000 O   0  0  0  0  0  0  0  0  0  0  0  0
    7.4041   -8.3838    0.0000 N   0  0  0  0  0  0  0  0  0  0  0  0
    7.4100   -4.2588    0.0000 N   0  0  0  0  0  0  0  0  0  0  0  0
    9.5528   -4.6744    0.0000 O   0  0  0  0  0  0  0  0  0  0  0  0
    8.1239   -4.6724    0.0000 C   0  0  1  0  0  0  0  0  0  0  0  0
    8.1227   -5.4974    0.0000 C   0  0  0  0  0  0  0  0  0  0  0  0
    7.4065   -6.7338    0.0000 Se  0  0  0  0  0  0  0  0  0  0  0  0
    7.4076   -5.9088    0.0000 Se  0  0  0  0  0  0  0  0  0  0  0  0
    5.9740   -9.2068    0.0000 O   0  0  0  0  0  0  0  0  0  0  0  0
    5.2613   -7.9683    0.0000 O   0  0  0  0  0  0  0  0  0  0  0  0
    6.6914   -7.1453    0.0000 C   0  0  0  0  0  0  0  0  0  0  0  0
    6.6902   -7.9703    0.0000 C   0  0  1  0  0  0  0  0  0  0  0  0
    5.9752   -8.3818    0.0000 C   0  0  0  0  0  0  0  0  0  0  0  0
 13  3  1  6  0  0  0
 12  8  1  0  0  0  0
  9  7  1  0  0  0  0
  6  4  1  6  0  0  0
  6  1  1  0  0  0  0
  7  6  1  0  0  0  0
  9  8  1  0  0  0  0
 14 10  1  0  0  0  0
 14 11  2  0  0  0  0
 13 12  1  0  0  0  0
 14 13  1  0  0  0  0
  1  2  2  0  0  0  0
  1  5  1  0  0  0  0
M  END
>  <cdx:groupId>
43

>  <cdx:fragmentId>
23

$$$$
