151006.cdx
  Mrv1902 05222410262D          

 13 13  0  0  0  0            999 V2000
    7.8985   -9.9366    0.0000 C   0  0  0  0  0  0  0  0  0  0  0  0
    7.0735   -9.9359    0.0000 C   0  0  2  0  0  0  0  0  0  0  0  0
    6.5879  -10.6029    0.0000 O   0  0  0  0  0  0  0  0  0  0  0  0
    6.8192   -9.1510    0.0000 C   0  0  1  0  0  0  0  0  0  0  0  0
    6.0348   -8.8954    0.0000 O   0  0  0  0  0  0  0  0  0  0  0  0
    7.4871   -8.6667    0.0000 C   0  0  1  0  0  0  0  0  0  0  0  0
    8.2035   -6.6049    0.0000 O   0  0  0  0  0  0  0  0  0  0  0  0
    8.3828  -10.6045    0.0000 O   0  0  0  0  0  0  0  0  0  0  0  0
    8.1541   -9.1522    0.0000 O   0  0  0  0  0  0  0  0  0  0  0  0
    8.2027   -7.4299    0.0000 C   0  0  0  0  0  0  0  0  0  0  0  0
    6.7738   -7.4285    0.0000 O   0  0  0  0  0  0  0  0  0  0  0  0
    7.4879   -7.8417    0.0000 C   0  0  1  0  0  0  0  0  0  0  0  0
    8.2016   -8.2542    0.0000 H   0  0  0  0  0  0  0  0  0  0  0  0
 10  7  1  0  0  0  0
 12 10  1  0  0  0  0
 12 11  1  6  0  0  0
  1  2  1  0  0  0  0
  2  3  1  6  0  0  0
  2  4  1  0  0  0  0
  4  5  1  1  0  0  0
  4  6  1  0  0  0  0
  6 12  1  0  0  0  0
  1  8  2  0  0  0  0
  1  9  1  0  0  0  0
  6  9  1  0  0  0  0
  6 13  1  1  0  0  0
M  END
>  <cdx:groupId>
1152

>  <cdx:fragmentId>
1119

$$$$
