15103.cdx
  Mrv1902 05222410212D          

  9  8  0  0  0  0            999 V2000
    8.3428   -3.0176    0.0000 C   0  0  0  0  0  0  0  0  0  0  0  0
    8.3428   -2.1926    0.0000 O   0  0  0  0  0  0  0  0  0  0  0  0
    9.0573   -3.4301    0.0000 O   0  0  0  0  0  0  0  0  0  0  0  0
    6.9139   -3.0176    0.0000 N   0  0  0  0  0  0  0  0  0  0  0  0
    6.1994   -5.9051    0.0000 C   0  0  0  0  0  0  0  0  0  0  0  0
    6.9139   -5.4926    0.0000 Se  0  0  0  0  0  0  0  0  0  0  0  0
    6.9139   -4.6676    0.0000 C   0  0  0  0  0  0  0  0  0  0  0  0
    7.6284   -4.2551    0.0000 C   0  0  0  0  0  0  0  0  0  0  0  0
    7.6284   -3.4301    0.0000 C   0  0  1  0  0  0  0  0  0  0  0  0
  9  4  1  6  0  0  0
  7  6  1  0  0  0  0
  6  5  1  0  0  0  0
  8  7  1  0  0  0  0
  9  8  1  0  0  0  0
  1  9  1  0  0  0  0
  1  2  2  0  0  0  0
  1  3  1  0  0  0  0
M  END
>  <cdx:fragmentId>
5

$$$$
