151252.cdx
  Mrv1902 05222410212D          

 16 16  0  0  0  0            999 V2000
    9.8636   -7.9787    0.0000 N   0  3  0  0  0  0  0  0  0  0  0  0
   10.5784   -7.5667    0.0000 C   0  0  0  0  0  0  0  0  0  0  0  0
    9.1488   -8.3907    0.0000 C   0  0  0  0  0  0  0  0  0  0  0  0
    8.4347   -7.9777    0.0000 C   0  0  0  0  0  0  0  0  0  0  0  0
    7.7199   -8.3896    0.0000 O   0  0  0  0  0  0  0  0  0  0  0  0
    7.0057   -7.9766    0.0000 C   0  0  0  0  0  0  0  0  0  0  0  0
    6.2910   -8.3886    0.0000 C   0  0  0  0  0  0  0  0  0  0  0  0
    6.2904   -9.2136    0.0000 C   0  0  0  0  0  0  0  0  0  0  0  0
    5.5756   -9.6255    0.0000 C   0  0  0  0  0  0  0  0  0  0  0  0
    4.8614   -9.2125    0.0000 C   0  0  0  0  0  0  0  0  0  0  0  0
    4.8620   -8.3875    0.0000 C   0  0  0  0  0  0  0  0  0  0  0  0
    5.5768   -7.9755    0.0000 C   0  0  0  0  0  0  0  0  0  0  0  0
    7.0064   -7.1516    0.0000 O   0  0  0  0  0  0  0  0  0  0  0  0
    4.1466   -9.6245    0.0000 O   0  0  0  0  0  0  0  0  0  0  0  0
   10.2756   -8.6935    0.0000 C   0  0  0  0  0  0  0  0  0  0  0  0
    9.4517   -7.2639    0.0000 C   0  0  0  0  0  0  0  0  0  0  0  0
  1  2  1  0  0  0  0
  3  4  1  0  0  0  0
  6  7  1  0  0  0  0
  7  8  1  0  0  0  0
  8  9  2  0  0  0  0
  9 10  1  0  0  0  0
 10 11  2  0  0  0  0
 11 12  1  0  0  0  0
  7 12  2  0  0  0  0
  6 13  2  0  0  0  0
 10 14  1  0  0  0  0
  5  6  1  0  0  0  0
  4  5  1  0  0  0  0
  1  3  1  0  0  0  0
  1 15  1  0  0  0  0
  1 16  1  0  0  0  0
M  CHG  1   1   1
M  END
>  <cdx:fragmentId>
19

$$$$
