15140.cdx
  Mrv1902 05222410272D          

 44 48  0  0  0  0            999 V2000
    2.8495   -5.4863    0.0000 C   0  0  0  0  0  0  0  0  0  0  0  0
    2.8495   -6.3113    0.0000 C   0  0  0  0  0  0  0  0  0  0  0  0
    3.5640   -6.7237    0.0000 C   0  0  0  0  0  0  0  0  0  0  0  0
    4.2785   -6.3113    0.0000 C   0  0  0  0  0  0  0  0  0  0  0  0
    4.2785   -5.4863    0.0000 C   0  0  0  0  0  0  0  0  0  0  0  0
    3.5640   -5.0737    0.0000 C   0  0  0  0  0  0  0  0  0  0  0  0
    4.9929   -6.7237    0.0000 C   0  0  0  0  0  0  0  0  0  0  0  0
    5.7074   -6.3113    0.0000 C   0  0  0  0  0  0  0  0  0  0  0  0
    5.7074   -5.4863    0.0000 C   0  0  0  0  0  0  0  0  0  0  0  0
    4.9929   -5.0737    0.0000 O   0  0  0  0  0  0  0  0  0  0  0  0
    6.4219   -5.0737    0.0000 C   0  0  0  0  0  0  0  0  0  0  0  0
    6.4219   -4.2488    0.0000 C   0  0  0  0  0  0  0  0  0  0  0  0
    7.1364   -5.4863    0.0000 C   0  0  0  0  0  0  0  0  0  0  0  0
    7.8508   -5.0737    0.0000 C   0  0  0  0  0  0  0  0  0  0  0  0
    7.8508   -4.2488    0.0000 C   0  0  0  0  0  0  0  0  0  0  0  0
    7.1364   -3.8363    0.0000 C   0  0  0  0  0  0  0  0  0  0  0  0
    2.1351   -5.0737    0.0000 O   0  0  0  0  0  0  0  0  0  0  0  0
    3.5640   -7.5488    0.0000 O   0  0  0  0  0  0  0  0  0  0  0  0
    4.9929   -7.5488    0.0000 O   0  0  0  0  0  0  0  0  0  0  0  0
    8.5653   -3.8363    0.0000 O   0  0  0  0  0  0  0  0  0  0  0  0
    7.1364   -3.0112    0.0000 O   0  0  0  0  0  0  0  0  0  0  0  0
    6.4219   -6.7237    0.0000 O   0  0  0  0  0  0  0  0  0  0  0  0
    6.9703   -6.9228    0.0000 O   0  0  0  0  0  0  0  0  0  0  0  0
    6.4318   -7.5478    0.0000 C   0  0  0  0  0  0  0  0  0  0  0  0
    7.2534   -7.4731    0.0000 C   0  0  0  0  0  0  0  0  0  0  0  0
    7.9951   -7.8447    0.0000 C   0  0  0  0  0  0  0  0  0  0  0  0
    8.5338   -7.2197    0.0000 C   0  0  0  0  0  0  0  0  0  0  0  0
    7.7121   -7.2944    0.0000 C   0  0  0  0  0  0  0  0  0  0  0  0
    6.4318   -8.3728    0.0000 H   0  0  0  0  0  0  0  0  0  0  0  0
    6.8409   -8.1875    0.0000 O   0  0  0  0  0  0  0  0  0  0  0  0
    8.7920   -7.6312    0.0000 O   0  0  0  0  0  0  0  0  0  0  0  0
    8.5338   -6.3947    0.0000 O   0  0  0  0  0  0  0  0  0  0  0  0
    8.1246   -6.5799    0.0000 C   0  0  0  0  0  0  0  0  0  0  0  0
    8.1246   -5.7549    0.0000 O   0  0  0  0  0  0  0  0  0  0  0  0
    8.8391   -5.3424    0.0000 C   0  0  0  0  0  0  0  0  0  0  0  0
    9.5536   -5.7549    0.0000 C   0  0  0  0  0  0  0  0  0  0  0  0
    8.8391   -4.5174    0.0000 O   0  0  0  0  0  0  0  0  0  0  0  0
   10.3786   -5.7549    0.0000 C   0  0  0  0  0  0  0  0  0  0  0  0
   11.0930   -6.1674    0.0000 C   0  0  0  0  0  0  0  0  0  0  0  0
   11.0930   -6.9924    0.0000 C   0  0  0  0  0  0  0  0  0  0  0  0
   11.8075   -7.4049    0.0000 C   0  0  0  0  0  0  0  0  0  0  0  0
   12.5220   -6.9924    0.0000 C   0  0  0  0  0  0  0  0  0  0  0  0
   12.5220   -6.1674    0.0000 C   0  0  0  0  0  0  0  0  0  0  0  0
   11.8075   -5.7549    0.0000 C   0  0  0  0  0  0  0  0  0  0  0  0
  1  2  2  0  0  0  0
  2  3  1  0  0  0  0
  3  4  2  0  0  0  0
  4  5  1  0  0  0  0
  5  6  2  0  0  0  0
  6  1  1  0  0  0  0
  4  7  1  0  0  0  0
  7  8  1  0  0  0  0
  8  9  2  0  0  0  0
  9 10  1  0  0  0  0
 10  5  1  0  0  0  0
  9 11  1  0  0  0  0
 11 12  1  0  0  0  0
 11 13  2  0  0  0  0
 13 14  1  0  0  0  0
 14 15  2  0  0  0  0
 15 16  1  0  0  0  0
 16 12  2  0  0  0  0
  1 17  1  0  0  0  0
  3 18  1  0  0  0  0
  7 19  2  0  0  0  0
 15 20  1  0  0  0  0
 16 21  1  0  0  0  0
  8 22  1  0  0  0  0
 23 24  1  0  0  0  0
 24 25  1  0  0  0  0
 25 26  1  0  0  0  0
 26 27  1  0  0  0  0
 27 28  1  0  0  0  0
 28 23  1  0  0  0  0
 22 24  1  0  0  0  0
 24 29  1  0  0  0  0
 25 30  1  0  0  0  0
 26 31  1  0  0  0  0
 27 32  1  0  0  0  0
 28 33  1  0  0  0  0
 33 34  1  0  0  0  0
 34 35  1  0  0  0  0
 35 36  1  0  0  0  0
 35 37  2  0  0  0  0
 36 38  2  0  0  0  0
 38 39  1  0  0  0  0
 39 40  2  0  0  0  0
 40 41  1  0  0  0  0
 41 42  2  0  0  0  0
 42 43  1  0  0  0  0
 43 44  2  0  0  0  0
 44 39  1  0  0  0  0
M  END
>  <cdx:fragmentId>
5

$$$$
