1514.cdx
  Mrv1902 05222410282D          

 25 27  0  0  0  0            999 V2000
    4.4789   -6.7444    0.0000 C   0  0  0  0  0  0  0  0  0  0  0  0
    4.4789   -7.5694    0.0000 C   0  0  0  0  0  0  0  0  0  0  0  0
    5.1934   -7.9819    0.0000 C   0  0  0  0  0  0  0  0  0  0  0  0
    5.9078   -7.5694    0.0000 C   0  0  0  0  0  0  0  0  0  0  0  0
    5.9078   -6.7444    0.0000 C   0  0  0  0  0  0  0  0  0  0  0  0
    5.1934   -6.3319    0.0000 C   0  0  0  0  0  0  0  0  0  0  0  0
    6.6223   -7.9819    0.0000 C   0  0  0  0  0  0  0  0  0  0  0  0
    7.3368   -7.5694    0.0000 C   0  0  1  0  0  0  0  0  0  0  0  0
    7.3368   -6.7444    0.0000 C   0  0  2  0  0  0  0  0  0  0  0  0
    6.6223   -6.3319    0.0000 O   0  0  0  0  0  0  0  0  0  0  0  0
    8.0513   -6.3319    0.0000 C   0  0  0  0  0  0  0  0  0  0  0  0
    8.0513   -5.5069    0.0000 C   0  0  0  0  0  0  0  0  0  0  0  0
    8.7657   -6.7444    0.0000 C   0  0  0  0  0  0  0  0  0  0  0  0
    9.4802   -6.3319    0.0000 C   0  0  0  0  0  0  0  0  0  0  0  0
    9.4802   -5.5069    0.0000 C   0  0  0  0  0  0  0  0  0  0  0  0
    8.7657   -5.0944    0.0000 C   0  0  0  0  0  0  0  0  0  0  0  0
    6.6223   -8.8069    0.0000 O   0  0  0  0  0  0  0  0  0  0  0  0
    8.7657   -4.2694    0.0000 C   0  0  0  0  0  0  0  0  0  0  0  0
    8.0513   -3.8569    0.0000 C   0  0  0  0  0  0  0  0  0  0  0  0
    8.0513   -3.0319    0.0000 C   0  0  0  0  0  0  0  0  0  0  0  0
    8.7657   -2.6194    0.0000 C   0  0  0  0  0  0  0  0  0  0  0  0
    7.3368   -2.6194    0.0000 C   0  0  0  0  0  0  0  0  0  0  0  0
    8.0513   -7.9819    0.0000 O   0  0  0  0  0  0  0  0  0  0  0  0
   10.1947   -5.0944    0.0000 O   0  0  0  0  0  0  0  0  0  0  0  0
    3.7644   -6.3319    0.0000 O   0  0  0  0  0  0  0  0  0  0  0  0
  1  2  2  0  0  0  0
  2  3  1  0  0  0  0
  3  4  2  0  0  0  0
  4  5  1  0  0  0  0
  5  6  2  0  0  0  0
  6  1  1  0  0  0  0
  4  7  1  0  0  0  0
  7  8  1  0  0  0  0
  8  9  1  0  0  0  0
  9 10  1  0  0  0  0
 10  5  1  0  0  0  0
  9 11  1  6  0  0  0
 11 12  1  0  0  0  0
 11 13  2  0  0  0  0
 13 14  1  0  0  0  0
 14 15  2  0  0  0  0
 15 16  1  0  0  0  0
 16 12  2  0  0  0  0
  7 17  2  0  0  0  0
 16 18  1  0  0  0  0
 18 19  1  0  0  0  0
 19 20  2  0  0  0  0
 20 21  1  0  0  0  0
 20 22  1  0  0  0  0
  8 23  1  1  0  0  0
 15 24  1  0  0  0  0
  1 25  1  0  0  0  0
M  END
>  <cdx:fragmentId>
5

$$$$
