15143.cdx
  Mrv1902 05222410262D          

 43 47  0  0  0  0            999 V2000
    4.1902   -5.7131    0.0000 C   0  0  0  0  0  0  0  0  0  0  0  0
    4.1902   -6.5381    0.0000 C   0  0  0  0  0  0  0  0  0  0  0  0
    4.9046   -6.9506    0.0000 C   0  0  0  0  0  0  0  0  0  0  0  0
    5.6191   -6.5381    0.0000 C   0  0  0  0  0  0  0  0  0  0  0  0
    5.6191   -5.7131    0.0000 C   0  0  0  0  0  0  0  0  0  0  0  0
    4.9046   -5.3006    0.0000 C   0  0  0  0  0  0  0  0  0  0  0  0
    6.3336   -6.9506    0.0000 C   0  0  0  0  0  0  0  0  0  0  0  0
    7.0480   -6.5381    0.0000 C   0  0  0  0  0  0  0  0  0  0  0  0
    7.0480   -5.7131    0.0000 C   0  0  0  0  0  0  0  0  0  0  0  0
    6.3336   -5.3006    0.0000 O   0  0  0  0  0  0  0  0  0  0  0  0
    7.7625   -5.3006    0.0000 C   0  0  0  0  0  0  0  0  0  0  0  0
    7.7625   -4.4756    0.0000 C   0  0  0  0  0  0  0  0  0  0  0  0
    8.4770   -5.7131    0.0000 C   0  0  0  0  0  0  0  0  0  0  0  0
    9.1915   -5.3006    0.0000 C   0  0  0  0  0  0  0  0  0  0  0  0
    9.1915   -4.4756    0.0000 C   0  0  0  0  0  0  0  0  0  0  0  0
    8.4770   -4.0631    0.0000 C   0  0  0  0  0  0  0  0  0  0  0  0
    3.4757   -5.3006    0.0000 O   0  0  0  0  0  0  0  0  0  0  0  0
    4.9046   -7.7756    0.0000 O   0  0  0  0  0  0  0  0  0  0  0  0
    6.3336   -7.7756    0.0000 O   0  0  0  0  0  0  0  0  0  0  0  0
    9.9059   -4.0631    0.0000 O   0  0  0  0  0  0  0  0  0  0  0  0
    8.4770   -3.2381    0.0000 O   0  0  0  0  0  0  0  0  0  0  0  0
    7.7625   -6.9506    0.0000 O   0  0  0  0  0  0  0  0  0  0  0  0
    8.3110   -7.1497    0.0000 O   0  0  0  0  0  0  0  0  0  0  0  0
    7.7724   -7.7747    0.0000 C   0  0  0  0  0  0  0  0  0  0  0  0
    8.5940   -7.6999    0.0000 C   0  0  0  0  0  0  0  0  0  0  0  0
    9.3358   -8.0716    0.0000 C   0  0  0  0  0  0  0  0  0  0  0  0
    9.8744   -7.4466    0.0000 C   0  0  0  0  0  0  0  0  0  0  0  0
    9.0527   -7.5213    0.0000 C   0  0  0  0  0  0  0  0  0  0  0  0
    7.7724   -8.5997    0.0000 H   0  0  0  0  0  0  0  0  0  0  0  0
    8.1815   -8.4144    0.0000 O   0  0  0  0  0  0  0  0  0  0  0  0
   10.1326   -7.8580    0.0000 O   0  0  0  0  0  0  0  0  0  0  0  0
    9.8744   -6.6216    0.0000 O   0  0  0  0  0  0  0  0  0  0  0  0
    9.4652   -6.8068    0.0000 C   0  0  0  0  0  0  0  0  0  0  0  0
    9.4652   -5.9818    0.0000 O   0  0  0  0  0  0  0  0  0  0  0  0
   10.1797   -5.5693    0.0000 C   0  0  0  0  0  0  0  0  0  0  0  0
   10.8942   -5.9818    0.0000 C   0  0  0  0  0  0  0  0  0  0  0  0
   10.8942   -6.8068    0.0000 C   0  0  0  0  0  0  0  0  0  0  0  0
   11.6087   -7.2193    0.0000 C   0  0  0  0  0  0  0  0  0  0  0  0
   12.3231   -6.8068    0.0000 C   0  0  0  0  0  0  0  0  0  0  0  0
   12.3231   -5.9818    0.0000 C   0  0  0  0  0  0  0  0  0  0  0  0
   11.6087   -5.5693    0.0000 C   0  0  0  0  0  0  0  0  0  0  0  0
   13.0376   -7.2193    0.0000 O   0  0  0  0  0  0  0  0  0  0  0  0
   10.1797   -4.7443    0.0000 O   0  0  0  0  0  0  0  0  0  0  0  0
  1  2  2  0  0  0  0
  2  3  1  0  0  0  0
  3  4  2  0  0  0  0
  4  5  1  0  0  0  0
  5  6  2  0  0  0  0
  6  1  1  0  0  0  0
  4  7  1  0  0  0  0
  7  8  1  0  0  0  0
  8  9  2  0  0  0  0
  9 10  1  0  0  0  0
 10  5  1  0  0  0  0
  9 11  1  0  0  0  0
 11 12  1  0  0  0  0
 11 13  2  0  0  0  0
 13 14  1  0  0  0  0
 14 15  2  0  0  0  0
 15 16  1  0  0  0  0
 16 12  2  0  0  0  0
  1 17  1  0  0  0  0
  3 18  1  0  0  0  0
  7 19  2  0  0  0  0
 15 20  1  0  0  0  0
 16 21  1  0  0  0  0
  8 22  1  0  0  0  0
 23 24  1  0  0  0  0
 24 25  1  0  0  0  0
 25 26  1  0  0  0  0
 26 27  1  0  0  0  0
 27 28  1  0  0  0  0
 28 23  1  0  0  0  0
 22 24  1  0  0  0  0
 24 29  1  0  0  0  0
 25 30  1  0  0  0  0
 26 31  1  0  0  0  0
 27 32  1  0  0  0  0
 28 33  1  0  0  0  0
 33 34  1  0  0  0  0
 34 35  1  0  0  0  0
 35 36  1  0  0  0  0
 36 37  2  0  0  0  0
 37 38  1  0  0  0  0
 38 39  2  0  0  0  0
 39 40  1  0  0  0  0
 40 41  2  0  0  0  0
 41 36  1  0  0  0  0
 39 42  1  0  0  0  0
 35 43  2  0  0  0  0
M  END
>  <cdx:fragmentId>
5

$$$$
