1515.cdx
  Mrv1902 05222410282D          

 23 25  0  0  0  0            999 V2000
    3.3239   -7.0125    0.0000 C   0  0  0  0  0  0  0  0  0  0  0  0
    3.3239   -7.8375    0.0000 C   0  0  0  0  0  0  0  0  0  0  0  0
    4.0384   -8.2500    0.0000 C   0  0  0  0  0  0  0  0  0  0  0  0
    4.7528   -7.8375    0.0000 C   0  0  0  0  0  0  0  0  0  0  0  0
    4.7528   -7.0125    0.0000 C   0  0  0  0  0  0  0  0  0  0  0  0
    4.0384   -6.6000    0.0000 C   0  0  0  0  0  0  0  0  0  0  0  0
    5.4673   -8.2500    0.0000 C   0  0  0  0  0  0  0  0  0  0  0  0
    6.1818   -7.8375    0.0000 C   0  0  1  0  0  0  0  0  0  0  0  0
    6.1818   -7.0125    0.0000 C   0  0  2  0  0  0  0  0  0  0  0  0
    5.4673   -6.6000    0.0000 O   0  0  0  0  0  0  0  0  0  0  0  0
    6.8963   -6.6000    0.0000 C   0  0  0  0  0  0  0  0  0  0  0  0
    6.8963   -5.7750    0.0000 C   0  0  0  0  0  0  0  0  0  0  0  0
    7.6107   -7.0125    0.0000 C   0  0  0  0  0  0  0  0  0  0  0  0
    8.3252   -6.6000    0.0000 C   0  0  0  0  0  0  0  0  0  0  0  0
    8.3252   -5.7750    0.0000 C   0  0  0  0  0  0  0  0  0  0  0  0
    7.6107   -5.3625    0.0000 C   0  0  0  0  0  0  0  0  0  0  0  0
    2.6094   -6.6000    0.0000 O   0  0  0  0  0  0  0  0  0  0  0  0
    4.0384   -9.0750    0.0000 O   0  0  0  0  0  0  0  0  0  0  0  0
    5.4673   -9.0750    0.0000 O   0  0  0  0  0  0  0  0  0  0  0  0
    6.1818   -5.3625    0.0000 O   0  0  0  0  0  0  0  0  0  0  0  0
    7.6107   -7.8375    0.0000 O   0  0  0  0  0  0  0  0  0  0  0  0
    6.1818   -6.1875    0.0000 H   0  0  0  0  0  0  0  0  0  0  0  0
    6.8963   -8.2500    0.0000 O   0  0  0  0  0  0  0  0  0  0  0  0
  1  2  1  0  0  0  0
  2  3  2  0  0  0  0
  3  4  1  0  0  0  0
  4  5  2  0  0  0  0
  5  6  1  0  0  0  0
  6  1  2  0  0  0  0
  4  7  1  0  0  0  0
  7  8  1  0  0  0  0
  8  9  1  0  0  0  0
  9 10  1  0  0  0  0
 10  5  1  0  0  0  0
  9 11  1  0  0  0  0
 11 12  1  0  0  0  0
 11 13  2  0  0  0  0
 13 14  1  0  0  0  0
 14 15  2  0  0  0  0
 15 16  1  0  0  0  0
 16 12  2  0  0  0  0
  1 17  1  0  0  0  0
  3 18  1  0  0  0  0
  7 19  2  0  0  0  0
 12 20  1  0  0  0  0
 13 21  1  0  0  0  0
  9 22  1  1  0  0  0
  8 23  1  1  0  0  0
M  END
>  <cdx:fragmentId>
5

$$$$
