102151597.cdx
  Mrv1902 05222410192D          

 77 85  0  0  0  0            999 V2000
    2.4590  -14.5648    0.0000 O   0  0  0  0  0  0  0  0  0  0  0  0
    1.7446  -14.9773    0.0000 C   0  0  2  0  0  0  0  0  0  0  0  0
    1.0301  -14.5648    0.0000 C   0  0  1  0  0  0  0  0  0  0  0  0
    1.0301  -13.7398    0.0000 C   0  0  1  0  0  0  0  0  0  0  0  0
    1.7446  -13.3273    0.0000 C   0  0  2  0  0  0  0  0  0  0  0  0
    2.4590  -13.7398    0.0000 C   0  0  2  0  0  0  0  0  0  0  0  0
    0.3156  -14.9773    0.0000 O   0  0  0  0  0  0  0  0  0  0  0  0
    0.3156  -13.3273    0.0000 O   0  0  0  0  0  0  0  0  0  0  0  0
    1.7446  -12.5023    0.0000 O   0  0  0  0  0  0  0  0  0  0  0  0
    3.1735  -13.3273    0.0000 C   0  0  0  0  0  0  0  0  0  0  0  0
    1.7446  -15.8023    0.0000 O   0  0  0  0  0  0  0  0  0  0  0  0
    3.3879  -17.5761    0.0000 O   0  0  0  0  0  0  0  0  0  0  0  0
    2.6734  -17.1636    0.0000 C   0  0  1  0  0  0  0  0  0  0  0  0
    2.6734  -16.3386    0.0000 C   0  0  2  0  0  0  0  0  0  0  0  0
    3.3879  -15.9261    0.0000 C   0  0  1  0  0  0  0  0  0  0  0  0
    4.1023  -16.3386    0.0000 C   0  0  2  0  0  0  0  0  0  0  0  0
    4.1023  -17.1636    0.0000 C   0  0  2  0  0  0  0  0  0  0  0  0
    4.8168  -17.5761    0.0000 O   0  0  0  0  0  0  0  0  0  0  0  0
    8.3892  -16.3386    0.0000 C   0  0  1  0  0  0  0  0  0  0  0  0
    9.1036  -15.9261    0.0000 C   0  0  2  0  0  0  0  0  0  0  0  0
    9.8882  -16.1810    0.0000 C   0  0  0  0  0  0  0  0  0  0  0  0
   10.3732  -15.5136    0.0000 C   0  0  2  0  0  0  0  0  0  0  0  0
   11.1578  -15.2586    0.0000 O   0  0  0  0  0  0  0  0  0  0  0  0
   11.1578  -14.4336    0.0000 C   0  0  0  0  0  0  0  0  0  0  0  0
   10.3732  -14.1787    0.0000 C   0  0  2  0  0  0  0  0  0  0  0  0
    9.8882  -14.8461    0.0000 C   0  0  2  0  0  0  0  0  0  0  0  0
    9.1036  -15.1011    0.0000 C   0  0  1  0  0  0  0  0  0  0  0  0
    8.3892  -14.6886    0.0000 C   0  0  0  0  0  0  0  0  0  0  0  0
    7.6747  -15.1011    0.0000 C   0  0  0  0  0  0  0  0  0  0  0  0
    7.6747  -15.9261    0.0000 C   0  0  2  0  0  0  0  0  0  0  0  0
    6.9602  -16.3386    0.0000 C   0  0  1  0  0  0  0  0  0  0  0  0
    6.2457  -15.9261    0.0000 C   0  0  0  0  0  0  0  0  0  0  0  0
    5.5313  -16.3386    0.0000 C   0  0  0  0  0  0  0  0  0  0  0  0
    5.5313  -17.1636    0.0000 C   0  0  1  0  0  0  0  0  0  0  0  0
    6.2457  -17.5761    0.0000 C   0  0  0  0  0  0  0  0  0  0  0  0
    6.9602  -17.1636    0.0000 C   0  0  0  0  0  0  0  0  0  0  0  0
    7.6747  -17.5761    0.0000 C   0  0  0  0  0  0  0  0  0  0  0  0
    8.3892  -17.1636    0.0000 C   0  0  0  0  0  0  0  0  0  0  0  0
   11.8252  -13.9487    0.0000 C   0  0  0  0  0  0  0  0  0  0  0  0
   12.5789  -14.2842    0.0000 C   0  0  0  0  0  0  0  0  0  0  0  0
   13.2463  -13.7993    0.0000 C   0  0  1  0  0  0  0  0  0  0  0  0
   14.0000  -14.1349    0.0000 C   0  0  0  0  0  0  0  0  0  0  0  0
   14.6675  -13.6500    0.0000 O   0  0  0  0  0  0  0  0  0  0  0  0
   16.0886  -13.5006    0.0000 O   0  0  0  0  0  0  0  0  0  0  0  0
   15.4211  -13.9855    0.0000 C   0  0  2  0  0  0  0  0  0  0  0  0
   15.5074  -14.8060    0.0000 C   0  0  1  0  0  0  0  0  0  0  0  0
   16.2610  -15.1416    0.0000 C   0  0  2  0  0  0  0  0  0  0  0  0
   16.9285  -14.6566    0.0000 C   0  0  1  0  0  0  0  0  0  0  0  0
   16.8423  -13.8362    0.0000 C   0  0  1  0  0  0  0  0  0  0  0  0
   17.5097  -13.3512    0.0000 C   0  0  0  0  0  0  0  0  0  0  0  0
   18.2634  -13.6868    0.0000 O   0  0  0  0  0  0  0  0  0  0  0  0
   17.6822  -14.9922    0.0000 O   0  0  0  0  0  0  0  0  0  0  0  0
   16.3473  -15.9620    0.0000 O   0  0  0  0  0  0  0  0  0  0  0  0
   14.8399  -15.2909    0.0000 O   0  0  0  0  0  0  0  0  0  0  0  0
   13.1601  -12.9788    0.0000 C   0  0  0  0  0  0  0  0  0  0  0  0
    6.9602  -15.5136    0.0000 C   0  0  0  0  0  0  0  0  0  0  0  0
    8.9604  -14.2886    0.0000 C   0  0  0  0  0  0  0  0  0  0  0  0
   10.1182  -13.3941    0.0000 C   0  0  0  0  0  0  0  0  0  0  0  0
    5.0311  -15.8023    0.0000 O   0  0  0  0  0  0  0  0  0  0  0  0
    4.3167  -14.5648    0.0000 O   0  0  0  0  0  0  0  0  0  0  0  0
    5.0311  -14.9773    0.0000 C   0  0  2  0  0  0  0  0  0  0  0  0
    5.7456  -14.5648    0.0000 C   0  0  1  0  0  0  0  0  0  0  0  0
    5.7456  -13.7398    0.0000 C   0  0  1  0  0  0  0  0  0  0  0  0
    5.0311  -13.3273    0.0000 C   0  0  2  0  0  0  0  0  0  0  0  0
    4.3167  -13.7398    0.0000 C   0  0  2  0  0  0  0  0  0  0  0  0
    3.6022  -13.3273    0.0000 C   0  0  0  0  0  0  0  0  0  0  0  0
    5.0311  -12.5023    0.0000 O   0  0  0  0  0  0  0  0  0  0  0  0
    6.4601  -13.3273    0.0000 O   0  0  0  0  0  0  0  0  0  0  0  0
    6.4601  -14.9773    0.0000 O   0  0  0  0  0  0  0  0  0  0  0  0
    1.9589  -17.5761    0.0000 C   0  0  0  0  0  0  0  0  0  0  0  0
    1.2444  -17.1636    0.0000 O   0  0  0  0  0  0  0  0  0  0  0  0
    3.3879  -15.1011    0.0000 O   0  0  0  0  0  0  0  0  0  0  0  0
    8.3892  -15.5136    0.0000 H   0  0  0  0  0  0  0  0  0  0  0  0
    9.1036  -16.7511    0.0000 H   0  0  0  0  0  0  0  0  0  0  0  0
   10.8581  -16.1810    0.0000 H   0  0  0  0  0  0  0  0  0  0  0  0
    9.5266  -14.1046    0.0000 H   0  0  0  0  0  0  0  0  0  0  0  0
    7.6747  -16.7511    0.0000 H   0  0  0  0  0  0  0  0  0  0  0  0
  1  2  1  0  0  0  0
  2  3  1  0  0  0  0
  3  4  1  0  0  0  0
  4  5  1  0  0  0  0
  5  6  1  0  0  0  0
  1  6  1  0  0  0  0
  3  7  1  6  0  0  0
  4  8  1  6  0  0  0
  5  9  1  1  0  0  0
  6 10  1  6  0  0  0
 12 13  1  0  0  0  0
 13 14  1  0  0  0  0
 14 15  1  0  0  0  0
 15 16  1  0  0  0  0
 16 17  1  0  0  0  0
 12 17  1  0  0  0  0
 19 20  1  0  0  0  0
 20 21  1  0  0  0  0
 21 22  1  0  0  0  0
 22 23  1  0  0  0  0
 23 24  1  0  0  0  0
 24 25  1  0  0  0  0
 25 26  1  0  0  0  0
 26 27  1  0  0  0  0
 27 28  1  0  0  0  0
 28 29  1  0  0  0  0
 29 30  1  0  0  0  0
 30 31  1  0  0  0  0
 31 32  1  0  0  0  0
 32 33  1  0  0  0  0
 33 34  1  0  0  0  0
 34 35  1  0  0  0  0
 35 36  1  0  0  0  0
 36 37  2  0  0  0  0
 37 38  1  0  0  0  0
 19 38  1  0  0  0  0
 19 30  1  0  0  0  0
 31 36  1  0  0  0  0
 20 27  1  0  0  0  0
 22 26  1  0  0  0  0
 39 40  1  0  0  0  0
 40 41  1  0  0  0  0
 41 42  1  0  0  0  0
 44 45  1  0  0  0  0
 45 46  1  0  0  0  0
 46 47  1  0  0  0  0
 47 48  1  0  0  0  0
 48 49  1  0  0  0  0
 44 49  1  0  0  0  0
 50 51  1  0  0  0  0
 49 50  1  6  0  0  0
 48 52  1  1  0  0  0
 47 53  1  6  0  0  0
 46 54  1  1  0  0  0
 45 43  1  6  0  0  0
 42 43  1  0  0  0  0
 41 55  1  6  0  0  0
 24 39  1  0  0  0  0
 31 56  1  1  0  0  0
 27 57  1  1  0  0  0
 25 58  1  6  0  0  0
 34 18  1  1  0  0  0
 17 18  1  6  0  0  0
 60 61  1  0  0  0  0
 61 62  1  0  0  0  0
 62 63  1  0  0  0  0
 63 64  1  0  0  0  0
 64 65  1  0  0  0  0
 60 65  1  0  0  0  0
 65 66  1  1  0  0  0
 64 67  1  6  0  0  0
 63 68  1  1  0  0  0
 62 69  1  1  0  0  0
 61 59  1  6  0  0  0
 16 59  1  1  0  0  0
 70 71  1  0  0  0  0
 13 70  1  6  0  0  0
 15 72  1  6  0  0  0
 14 11  1  1  0  0  0
  2 11  1  1  0  0  0
 19 73  1  1  0  0  0
 20 74  1  6  0  0  0
 22 75  1  6  0  0  0
 26 76  1  6  0  0  0
 30 77  1  6  0  0  0
M  END
>  <cdx:groupId>
21241

>  <cdx:fragmentId>
21041

$$$$
