quercetin-3-O-ﾥ￢-D-glucuronopyranside methyl ester.cdx
  Mrv1902 05222410192D          

 35 38  0  0  0  0            999 V2000
    4.0252   -6.7237    0.0000 C   0  0  0  0  0  0  0  0  0  0  0  0
    4.0252   -7.5488    0.0000 C   0  0  0  0  0  0  0  0  0  0  0  0
    4.7396   -7.9612    0.0000 C   0  0  0  0  0  0  0  0  0  0  0  0
    5.4541   -7.5488    0.0000 C   0  0  0  0  0  0  0  0  0  0  0  0
    5.4541   -6.7237    0.0000 C   0  0  0  0  0  0  0  0  0  0  0  0
    4.7396   -6.3113    0.0000 C   0  0  0  0  0  0  0  0  0  0  0  0
    6.1686   -7.9612    0.0000 C   0  0  0  0  0  0  0  0  0  0  0  0
    6.8830   -7.5488    0.0000 C   0  0  0  0  0  0  0  0  0  0  0  0
    6.8830   -6.7237    0.0000 C   0  0  0  0  0  0  0  0  0  0  0  0
    6.1686   -6.3113    0.0000 O   0  0  0  0  0  0  0  0  0  0  0  0
    7.5975   -6.3113    0.0000 C   0  0  0  0  0  0  0  0  0  0  0  0
    8.3120   -6.7237    0.0000 C   0  0  0  0  0  0  0  0  0  0  0  0
    9.0265   -6.3113    0.0000 C   0  0  0  0  0  0  0  0  0  0  0  0
    9.0265   -5.4863    0.0000 C   0  0  0  0  0  0  0  0  0  0  0  0
    8.3120   -5.0737    0.0000 C   0  0  0  0  0  0  0  0  0  0  0  0
    7.5975   -5.4863    0.0000 C   0  0  0  0  0  0  0  0  0  0  0  0
    9.7409   -5.0737    0.0000 O   0  0  0  0  0  0  0  0  0  0  0  0
    9.7409   -6.7237    0.0000 O   0  0  0  0  0  0  0  0  0  0  0  0
    3.3107   -6.3113    0.0000 O   0  0  0  0  0  0  0  0  0  0  0  0
    4.7396   -8.7862    0.0000 O   0  0  0  0  0  0  0  0  0  0  0  0
    6.1686   -8.7862    0.0000 O   0  0  0  0  0  0  0  0  0  0  0  0
    7.5975   -7.9612    0.0000 O   0  0  0  0  0  0  0  0  0  0  0  0
    7.3232  -10.2668    0.0000 C   0  0  0  0  0  0  0  0  0  0  0  0
    8.0869   -9.9549    0.0000 C   0  0  0  0  0  0  0  0  0  0  0  0
    7.9878   -9.1358    0.0000 C   0  0  0  0  0  0  0  0  0  0  0  0
    8.3023   -8.3782    0.0000 C   0  0  0  0  0  0  0  0  0  0  0  0
    7.5386   -8.6901    0.0000 C   0  0  0  0  0  0  0  0  0  0  0  0
    7.6376   -9.5092    0.0000 C   0  0  0  0  0  0  0  0  0  0  0  0
    8.3649   -8.7999    0.0000 O   0  0  0  0  0  0  0  0  0  0  0  0
    7.2945   -9.4194    0.0000 C   0  0  0  0  0  0  0  0  0  0  0  0
    6.7146  -10.0062    0.0000 O   0  0  0  0  0  0  0  0  0  0  0  0
    7.0763   -8.6238    0.0000 O   0  0  0  0  0  0  0  0  0  0  0  0
    6.2781   -8.4150    0.0000 C   0  0  0  0  0  0  0  0  0  0  0  0
    7.8734  -10.7517    0.0000 O   0  0  0  0  0  0  0  0  0  0  0  0
    7.3232  -11.0918    0.0000 O   0  0  0  0  0  0  0  0  0  0  0  0
  1  2  2  0  0  0  0
  2  3  1  0  0  0  0
  3  4  2  0  0  0  0
  4  5  1  0  0  0  0
  5  6  2  0  0  0  0
  6  1  1  0  0  0  0
  4  7  1  0  0  0  0
  7  8  1  0  0  0  0
  8  9  2  0  0  0  0
  9 10  1  0  0  0  0
 10  5  1  0  0  0  0
  9 11  1  0  0  0  0
 11 12  2  0  0  0  0
 12 13  1  0  0  0  0
 13 14  2  0  0  0  0
 14 15  1  0  0  0  0
 15 16  2  0  0  0  0
 16 11  1  0  0  0  0
 14 17  1  0  0  0  0
 13 18  1  0  0  0  0
  1 19  1  0  0  0  0
  3 20  1  0  0  0  0
  7 21  2  0  0  0  0
  8 22  1  0  0  0  0
 23 24  1  0  0  0  0
 24 25  1  0  0  0  0
 25 26  1  0  0  0  0
 26 27  1  0  0  0  0
 27 28  1  0  0  0  0
 28 23  1  0  0  0  0
 22 26  1  0  0  0  0
 25 29  1  0  0  0  0
 28 30  1  0  0  0  0
 24 34  1  0  0  0  0
 23 35  1  0  0  0  0
 30 31  2  0  0  0  0
 30 32  1  0  0  0  0
 32 33  1  0  0  0  0
M  STY  1   1 SUP
M  SAL   1  4  30  31  32  33
M  SBL   1  1  33
M  SMT   1 COOCH3
M  SAP   1  1  30  28  1
M  END
>  <cdx:fragmentId>
5

$$$$
