151874.cdx
  Mrv1902 05222410232D          

 34 38  0  0  0  0            999 V2000
   10.2939   -6.6187    0.0000 C   0  0  0  0  0  0  0  0  0  0  0  0
    9.5794   -6.2062    0.0000 C   0  0  0  0  0  0  0  0  0  0  0  0
    8.8649   -6.6187    0.0000 C   0  0  0  0  0  0  0  0  0  0  0  0
    8.1505   -6.2062    0.0000 C   0  0  0  0  0  0  0  0  0  0  0  0
    8.1505   -5.3812    0.0000 C   0  0  0  0  0  0  0  0  0  0  0  0
    8.8649   -4.9687    0.0000 C   0  0  0  0  0  0  0  0  0  0  0  0
    9.5794   -5.3812    0.0000 C   0  0  0  0  0  0  0  0  0  0  0  0
   10.2939   -7.4437    0.0000 O   0  0  0  0  0  0  0  0  0  0  0  0
   11.0084   -6.2062    0.0000 O   0  0  0  0  0  0  0  0  0  0  0  0
    8.8649   -7.4437    0.0000 O   0  0  0  0  0  0  0  0  0  0  0  0
    5.2926   -8.6812    0.0000 C   0  0  0  0  0  0  0  0  0  0  0  0
    5.2939   -7.8562    0.0000 O   0  0  0  0  0  0  0  0  0  0  0  0
    6.0084   -7.4437    0.0000 C   0  0  0  0  0  0  0  0  0  0  0  0
    6.7215   -7.8562    0.0000 C   0  0  0  0  0  0  0  0  0  0  0  0
    7.4360   -7.4437    0.0000 C   0  0  0  0  0  0  0  0  0  0  0  0
    8.1505   -7.8562    0.0000 C   0  0  0  0  0  0  0  0  0  0  0  0
    8.1505   -8.6812    0.0000 C   0  0  0  0  0  0  0  0  0  0  0  0
    7.4360   -9.0937    0.0000 C   0  0  0  0  0  0  0  0  0  0  0  0
    7.4360   -9.9187    0.0000 O   0  0  0  0  0  0  0  0  0  0  0  0
    6.7215  -10.3312    0.0000 C   0  0  0  0  0  0  0  0  0  0  0  0
    6.0071   -9.9187    0.0000 C   0  0  0  0  0  0  0  0  0  0  0  0
    5.2926  -10.3312    0.0000 C   0  0  0  0  0  0  0  0  0  0  0  0
    4.5781   -9.9187    0.0000 C   0  0  0  0  0  0  0  0  0  0  0  0
    4.5781   -9.0937    0.0000 C   0  0  0  0  0  0  0  0  0  0  0  0
    6.0071   -9.0937    0.0000 C   0  0  0  0  0  0  0  0  0  0  0  0
    6.7215   -8.6812    0.0000 C   0  0  0  0  0  0  0  0  0  0  0  0
    6.7215  -11.1562    0.0000 O   0  0  0  0  0  0  0  0  0  0  0  0
    6.0084   -6.6187    0.0000 O   0  0  0  0  0  0  0  0  0  0  0  0
    3.8636   -8.6812    0.0000 O   0  0  0  0  0  0  0  0  0  0  0  0
    3.8636  -10.3312    0.0000 O   0  0  0  0  0  0  0  0  0  0  0  0
    8.8649   -9.0937    0.0000 O   0  0  0  0  0  0  0  0  0  0  0  0
    8.8649   -4.1437    0.0000 O   0  0  0  0  0  0  0  0  0  0  0  0
    7.4360   -4.9687    0.0000 O   0  0  0  0  0  0  0  0  0  0  0  0
    7.4360   -6.6187    0.0000 O   0  0  0  0  0  0  0  0  0  0  0  0
  1  2  1  0  0  0  0
  2  3  1  0  0  0  0
  3  4  2  0  0  0  0
  4  5  1  0  0  0  0
  5  6  2  0  0  0  0
  6  7  1  0  0  0  0
  2  7  2  0  0  0  0
  1  8  2  0  0  0  0
  1  9  1  0  0  0  0
 11 12  1  0  0  0  0
 12 13  1  0  0  0  0
 13 14  1  0  0  0  0
 14 15  2  0  0  0  0
 15 16  1  0  0  0  0
 16 17  2  0  0  0  0
 17 18  1  0  0  0  0
 18 19  1  0  0  0  0
 19 20  1  0  0  0  0
 20 21  1  0  0  0  0
 21 22  2  0  0  0  0
 22 23  1  0  0  0  0
 23 24  2  0  0  0  0
 25 26  1  0  0  0  0
 11 24  1  0  0  0  0
 11 25  2  0  0  0  0
 26 18  2  0  0  0  0
 21 25  1  0  0  0  0
 14 26  1  0  0  0  0
 20 27  2  0  0  0  0
 13 28  2  0  0  0  0
 24 29  1  0  0  0  0
 23 30  1  0  0  0  0
 17 31  1  0  0  0  0
 10 16  1  0  0  0  0
  3 10  1  0  0  0  0
  6 32  1  0  0  0  0
  5 33  1  0  0  0  0
  4 34  1  0  0  0  0
M  END
>  <cdx:fragmentId>
41939

$$$$
