1518.cdx
  Mrv1902 05222410182D          

 25 27  0  0  0  0            999 V2000
    4.8845   -7.4112    0.0000 C   0  0  0  0  0  0  0  0  0  0  0  0
    4.8845   -8.2363    0.0000 C   0  0  0  0  0  0  0  0  0  0  0  0
    5.5990   -8.6487    0.0000 C   0  0  0  0  0  0  0  0  0  0  0  0
    6.3135   -8.2363    0.0000 C   0  0  0  0  0  0  0  0  0  0  0  0
    6.3135   -7.4112    0.0000 C   0  0  0  0  0  0  0  0  0  0  0  0
    5.5990   -6.9988    0.0000 C   0  0  0  0  0  0  0  0  0  0  0  0
    7.0279   -8.6487    0.0000 C   0  0  0  0  0  0  0  0  0  0  0  0
    7.7424   -8.2363    0.0000 C   0  0  2  0  0  0  0  0  0  0  0  0
    7.7424   -7.4112    0.0000 C   0  0  2  0  0  0  0  0  0  0  0  0
    7.0279   -6.9988    0.0000 O   0  0  0  0  0  0  0  0  0  0  0  0
    8.4569   -6.9988    0.0000 C   0  0  0  0  0  0  0  0  0  0  0  0
    8.4569   -6.1737    0.0000 C   0  0  0  0  0  0  0  0  0  0  0  0
    9.1714   -7.4112    0.0000 C   0  0  0  0  0  0  0  0  0  0  0  0
    9.8858   -6.9988    0.0000 C   0  0  0  0  0  0  0  0  0  0  0  0
    9.8858   -6.1737    0.0000 C   0  0  0  0  0  0  0  0  0  0  0  0
    9.1714   -5.7612    0.0000 C   0  0  0  0  0  0  0  0  0  0  0  0
    8.4569   -8.6487    0.0000 O   0  0  0  0  0  0  0  0  0  0  0  0
    5.5990   -9.4738    0.0000 O   0  0  0  0  0  0  0  0  0  0  0  0
    4.1701   -6.9988    0.0000 O   0  0  0  0  0  0  0  0  0  0  0  0
    9.1714   -4.9363    0.0000 O   0  0  0  0  0  0  0  0  0  0  0  0
   10.6003   -5.7612    0.0000 O   0  0  0  0  0  0  0  0  0  0  0  0
    8.4569   -4.5237    0.0000 C   0  0  0  0  0  0  0  0  0  0  0  0
   11.3148   -6.1737    0.0000 C   0  0  0  0  0  0  0  0  0  0  0  0
    3.4556   -7.4112    0.0000 C   0  0  0  0  0  0  0  0  0  0  0  0
    4.8845   -9.8863    0.0000 C   0  0  0  0  0  0  0  0  0  0  0  0
  1  2  2  0  0  0  0
  2  3  1  0  0  0  0
  3  4  2  0  0  0  0
  4  5  1  0  0  0  0
  5  6  2  0  0  0  0
  6  1  1  0  0  0  0
  4  7  1  0  0  0  0
  7  8  1  0  0  0  0
  8  9  1  0  0  0  0
  9 10  1  0  0  0  0
 10  5  1  0  0  0  0
  9 11  1  6  0  0  0
 11 12  1  0  0  0  0
 11 13  2  0  0  0  0
 13 14  1  0  0  0  0
 14 15  2  0  0  0  0
 15 16  1  0  0  0  0
 16 12  2  0  0  0  0
  8 17  1  6  0  0  0
  3 18  1  0  0  0  0
  1 19  1  0  0  0  0
 16 20  1  0  0  0  0
 15 21  1  0  0  0  0
 20 22  1  0  0  0  0
 21 23  1  0  0  0  0
 19 24  1  0  0  0  0
 18 25  1  0  0  0  0
M  END
>  <cdx:fragmentId>
5

$$$$
