1519.cdx
  Mrv1902 05222410182D          

 24 27  0  0  0  0            999 V2000
    4.8914   -7.2806    0.0000 C   0  0  0  0  0  0  0  0  0  0  0  0
    4.8914   -6.4556    0.0000 C   0  0  0  0  0  0  0  0  0  0  0  0
    5.6059   -6.0431    0.0000 C   0  0  0  0  0  0  0  0  0  0  0  0
    6.3203   -6.4556    0.0000 C   0  0  0  0  0  0  0  0  0  0  0  0
    6.3203   -7.2806    0.0000 C   0  0  0  0  0  0  0  0  0  0  0  0
    5.6059   -7.6931    0.0000 C   0  0  0  0  0  0  0  0  0  0  0  0
    7.0348   -6.0431    0.0000 O   0  0  0  0  0  0  0  0  0  0  0  0
    7.7493   -6.4556    0.0000 C   0  0  1  0  0  0  0  0  0  0  0  0
    7.7493   -7.2806    0.0000 C   0  0  1  0  0  0  0  0  0  0  0  0
    7.0348   -7.6931    0.0000 C   0  0  0  0  0  0  0  0  0  0  0  0
    8.4638   -6.0431    0.0000 C   0  0  0  0  0  0  0  0  0  0  0  0
    9.1782   -6.4556    0.0000 C   0  0  0  0  0  0  0  0  0  0  0  0
    8.4638   -5.2181    0.0000 C   0  0  0  0  0  0  0  0  0  0  0  0
    9.1782   -4.8056    0.0000 C   0  0  0  0  0  0  0  0  0  0  0  0
    9.8927   -5.2181    0.0000 C   0  0  0  0  0  0  0  0  0  0  0  0
    9.8927   -6.0431    0.0000 C   0  0  0  0  0  0  0  0  0  0  0  0
    8.4638   -7.6931    0.0000 O   0  0  0  0  0  0  0  0  0  0  0  0
   10.6773   -6.2981    0.0000 O   0  0  0  0  0  0  0  0  0  0  0  0
   11.1622   -5.6306    0.0000 C   0  0  0  0  0  0  0  0  0  0  0  0
   10.6773   -4.9632    0.0000 O   0  0  0  0  0  0  0  0  0  0  0  0
    4.1769   -6.0431    0.0000 O   0  0  0  0  0  0  0  0  0  0  0  0
    5.6059   -8.5181    0.0000 O   0  0  0  0  0  0  0  0  0  0  0  0
    6.3203   -8.9306    0.0000 C   0  0  0  0  0  0  0  0  0  0  0  0
    3.4625   -6.4556    0.0000 C   0  0  0  0  0  0  0  0  0  0  0  0
  1  2  2  0  0  0  0
  2  3  1  0  0  0  0
  3  4  2  0  0  0  0
  4  5  1  0  0  0  0
  5  6  2  0  0  0  0
  6  1  1  0  0  0  0
  4  7  1  0  0  0  0
  7  8  1  0  0  0  0
  8  9  1  0  0  0  0
  9 10  1  0  0  0  0
 10  5  1  0  0  0  0
  8 11  1  6  0  0  0
 11 12  1  0  0  0  0
 11 13  2  0  0  0  0
 13 14  1  0  0  0  0
 14 15  2  0  0  0  0
 15 16  1  0  0  0  0
 16 12  2  0  0  0  0
  9 17  1  6  0  0  0
 16 18  1  0  0  0  0
 18 19  1  0  0  0  0
 19 20  1  0  0  0  0
 20 15  1  0  0  0  0
  2 21  1  0  0  0  0
  6 22  1  0  0  0  0
 22 23  1  0  0  0  0
 24 21  1  0  0  0  0
M  END
>  <cdx:fragmentId>
5

$$$$
