1520.cdx
  Mrv1902 05222410202D          

 33 35  0  0  0  0            999 V2000
    4.1695   -7.3012    0.0000 C   0  0  0  0  0  0  0  0  0  0  0  0
    4.1695   -8.1263    0.0000 C   0  0  0  0  0  0  0  0  0  0  0  0
    4.8840   -8.5388    0.0000 C   0  0  0  0  0  0  0  0  0  0  0  0
    5.5985   -8.1263    0.0000 C   0  0  0  0  0  0  0  0  0  0  0  0
    5.5985   -7.3012    0.0000 C   0  0  0  0  0  0  0  0  0  0  0  0
    4.8840   -6.8888    0.0000 C   0  0  0  0  0  0  0  0  0  0  0  0
    6.3129   -8.5388    0.0000 C   0  0  0  0  0  0  0  0  0  0  0  0
    7.0274   -8.1263    0.0000 C   0  0  1  0  0  0  0  0  0  0  0  0
    7.0274   -7.3012    0.0000 C   0  0  0  0  0  0  0  0  0  0  0  0
    6.3129   -6.8888    0.0000 O   0  0  0  0  0  0  0  0  0  0  0  0
    7.7419   -8.5388    0.0000 O   0  0  0  0  0  0  0  0  0  0  0  0
    8.4564   -8.1263    0.0000 O   0  0  0  0  0  0  0  0  0  0  0  0
    8.4564   -7.3012    0.0000 C   0  0  0  0  0  0  0  0  0  0  0  0
    7.7419   -6.8888    0.0000 C   0  0  0  0  0  0  0  0  0  0  0  0
    9.1708   -6.8888    0.0000 C   0  0  0  0  0  0  0  0  0  0  0  0
    9.1708   -6.0638    0.0000 C   0  0  0  0  0  0  0  0  0  0  0  0
    8.4564   -5.6512    0.0000 C   0  0  0  0  0  0  0  0  0  0  0  0
    7.7419   -6.0638    0.0000 C   0  0  0  0  0  0  0  0  0  0  0  0
    4.8840   -9.3637    0.0000 O   0  0  0  0  0  0  0  0  0  0  0  0
    6.3129   -9.3637    0.0000 O   0  0  0  0  0  0  0  0  0  0  0  0
    4.8840   -6.0638    0.0000 C   0  0  0  0  0  0  0  0  0  0  0  0
    4.1695   -5.6512    0.0000 C   0  0  0  0  0  0  0  0  0  0  0  0
    3.4551   -6.0638    0.0000 C   0  0  0  0  0  0  0  0  0  0  0  0
    3.4551   -6.8888    0.0000 O   0  0  0  0  0  0  0  0  0  0  0  0
    2.7406   -5.6512    0.0000 C   0  0  0  0  0  0  0  0  0  0  0  0
    2.0261   -6.0638    0.0000 C   0  0  0  0  0  0  0  0  0  0  0  0
    2.0261   -6.8888    0.0000 C   0  0  0  0  0  0  0  0  0  0  0  0
    4.1695   -4.8263    0.0000 C   0  0  0  0  0  0  0  0  0  0  0  0
    3.4551   -4.4138    0.0000 C   0  0  0  0  0  0  0  0  0  0  0  0
    9.8853   -5.6512    0.0000 O   0  0  0  0  0  0  0  0  0  0  0  0
    4.8840   -4.4138    0.0000 C   0  0  0  0  0  0  0  0  0  0  0  0
    1.3116   -5.6512    0.0000 C   0  0  0  0  0  0  0  0  0  0  0  0
    1.2292   -6.2773    0.0000 O   0  0  0  0  0  0  0  0  0  0  0  0
  1  2  2  0  0  0  0
  2  3  1  0  0  0  0
  3  4  2  0  0  0  0
  4  5  1  0  0  0  0
  5  6  2  0  0  0  0
  6  1  1  0  0  0  0
  4  7  1  0  0  0  0
  7  8  1  0  0  0  0
  8  9  1  0  0  0  0
  9 10  1  0  0  0  0
 10  5  1  0  0  0  0
  8 11  1  1  0  0  0
 12 13  1  0  0  0  0
 13 14  2  0  0  0  0
 14  9  1  0  0  0  0
 13 15  1  0  0  0  0
 15 16  2  0  0  0  0
 16 17  1  0  0  0  0
 17 18  2  0  0  0  0
 18 14  1  0  0  0  0
  3 19  1  0  0  0  0
 20  7  2  0  0  0  0
  6 21  1  0  0  0  0
 21 22  1  0  0  0  0
 22 23  1  0  0  0  0
 24  1  1  0  0  0  0
 23 25  1  0  0  0  0
 25 26  1  0  0  0  0
 26 27  1  0  0  0  0
 22 28  1  0  0  0  0
 28 29  1  0  0  0  0
 16 30  1  0  0  0  0
 28 31  2  0  0  0  0
 26 32  1  0  0  0  0
 26 33  1  0  0  0  0
M  END
>  <cdx:fragmentId>
5

$$$$
