15208.cdx
  Mrv1902 05222410262D          

 33 36  0  0  0  0            999 V2000
    2.0684   -9.8478    0.0000 O   0  0  0  0  0  0  0  0  0  0  0  0
    2.7763  -11.0890    0.0000 O   0  0  0  0  0  0  0  0  0  0  0  0
    5.6341  -11.1041    0.0000 O   0  0  0  0  0  0  0  0  0  0  0  0
    4.2009  -11.9216    0.0000 O   0  0  0  0  0  0  0  0  0  0  0  0
    2.7850   -9.4391    0.0000 C   0  0  0  0  0  0  0  0  0  0  0  0
    4.2052  -11.0966    0.0000 C   0  0  1  0  0  0  0  0  0  0  0  0
    3.4929  -10.6803    0.0000 C   0  0  1  0  0  0  0  0  0  0  0  0
    3.4973   -9.8553    0.0000 C   0  0  2  0  0  0  0  0  0  0  0  0
    4.2139   -9.4466    0.0000 O   0  0  0  0  0  0  0  0  0  0  0  0
    4.9219  -10.6879    0.0000 C   0  0  2  0  0  0  0  0  0  0  0  0
    4.9262   -9.8629    0.0000 C   0  0  2  0  0  0  0  0  0  0  0  0
   12.0861   -8.2862    0.0000 O   0  0  0  0  0  0  0  0  0  0  0  0
   10.6662   -7.4458    0.0000 O   0  0  0  0  0  0  0  0  0  0  0  0
    8.4738  -11.9599    0.0000 O   0  0  0  0  0  0  0  0  0  0  0  0
    7.0449  -11.9444    0.0000 O   0  0  0  0  0  0  0  0  0  0  0  0
    5.6429   -9.4541    0.0000 O   0  0  0  0  0  0  0  0  0  0  0  0
    9.9383   -8.6755    0.0000 C   0  0  0  0  0  0  0  0  0  0  0  0
   10.6572   -8.2708    0.0000 C   0  0  0  0  0  0  0  0  0  0  0  0
   11.3672   -8.6910    0.0000 C   0  0  0  0  0  0  0  0  0  0  0  0
   11.3583   -9.5159    0.0000 C   0  0  0  0  0  0  0  0  0  0  0  0
    9.9294   -9.5005    0.0000 C   0  0  0  0  0  0  0  0  0  0  0  0
   10.6394   -9.9207    0.0000 C   0  0  0  0  0  0  0  0  0  0  0  0
    9.9116  -11.1504    0.0000 O   0  0  0  0  0  0  0  0  0  0  0  0
    8.5006   -9.4850    0.0000 O   0  0  0  0  0  0  0  0  0  0  0  0
    9.2105   -9.9052    0.0000 C   0  0  0  0  0  0  0  0  0  0  0  0
    9.2016  -10.7302    0.0000 C   0  0  0  0  0  0  0  0  0  0  0  0
    8.4827  -11.1349    0.0000 C   0  0  0  0  0  0  0  0  0  0  0  0
    6.3528   -9.8743    0.0000 C   0  0  0  0  0  0  0  0  0  0  0  0
    7.0717   -9.4696    0.0000 C   0  0  0  0  0  0  0  0  0  0  0  0
    7.7817   -9.8898    0.0000 C   0  0  0  0  0  0  0  0  0  0  0  0
    7.7728  -10.7147    0.0000 C   0  0  0  0  0  0  0  0  0  0  0  0
    7.0539  -11.1195    0.0000 C   0  0  0  0  0  0  0  0  0  0  0  0
    6.3439  -10.6993    0.0000 C   0  0  0  0  0  0  0  0  0  0  0  0
  5  1  1  0  0  0  0
  7  2  1  6  0  0  0
 10  3  1  6  0  0  0
  6  4  1  1  0  0  0
  8  5  1  1  0  0  0
  6 10  1  0  0  0  0
  7  6  1  0  0  0  0
  8  7  1  0  0  0  0
  9  8  1  0  0  0  0
 11  9  1  0  0  0  0
 11 10  1  0  0  0  0
 11 16  1  1  0  0  0
 19 12  1  0  0  0  0
 18 13  1  0  0  0  0
 27 14  2  0  0  0  0
 32 15  1  0  0  0  0
 28 16  1  0  0  0  0
 17 21  2  0  0  0  0
 18 17  1  0  0  0  0
 19 18  2  0  0  0  0
 20 19  1  0  0  0  0
 22 20  2  0  0  0  0
 21 25  1  0  0  0  0
 22 21  1  0  0  0  0
 26 23  1  0  0  0  0
 24 30  1  0  0  0  0
 25 24  1  0  0  0  0
 26 25  2  0  0  0  0
 27 26  1  0  0  0  0
 31 27  1  0  0  0  0
 28 33  2  0  0  0  0
 29 28  1  0  0  0  0
 30 29  2  0  0  0  0
 31 30  1  0  0  0  0
 32 31  2  0  0  0  0
 33 32  1  0  0  0  0
M  END
>  <cdx:fragmentId>
5

$$$$
