1521.cdx
  Mrv1902 05222410202D          

 21 23  0  0  0  0            999 V2000
    4.3139   -6.4350    0.0000 C   0  0  0  0  0  0  0  0  0  0  0  0
    4.3139   -7.2600    0.0000 C   0  0  0  0  0  0  0  0  0  0  0  0
    5.0284   -7.6725    0.0000 C   0  0  0  0  0  0  0  0  0  0  0  0
    5.7428   -7.2600    0.0000 C   0  0  0  0  0  0  0  0  0  0  0  0
    5.7428   -6.4350    0.0000 C   0  0  0  0  0  0  0  0  0  0  0  0
    5.0284   -6.0225    0.0000 C   0  0  0  0  0  0  0  0  0  0  0  0
    6.4573   -7.6725    0.0000 C   0  0  0  0  0  0  0  0  0  0  0  0
    7.1718   -7.2600    0.0000 C   0  0  1  0  0  0  0  0  0  0  0  0
    7.1718   -6.4350    0.0000 C   0  0  2  0  0  0  0  0  0  0  0  0
    6.4573   -6.0225    0.0000 O   0  0  0  0  0  0  0  0  0  0  0  0
    7.8863   -6.0225    0.0000 C   0  0  0  0  0  0  0  0  0  0  0  0
    8.6007   -6.4350    0.0000 C   0  0  0  0  0  0  0  0  0  0  0  0
    9.3152   -6.0225    0.0000 C   0  0  0  0  0  0  0  0  0  0  0  0
    9.3152   -5.1975    0.0000 C   0  0  0  0  0  0  0  0  0  0  0  0
    8.6007   -4.7850    0.0000 C   0  0  0  0  0  0  0  0  0  0  0  0
    7.8863   -5.1975    0.0000 C   0  0  0  0  0  0  0  0  0  0  0  0
    3.5994   -6.0225    0.0000 O   0  0  0  0  0  0  0  0  0  0  0  0
    2.8850   -5.6100    0.0000 C   0  0  0  0  0  0  0  0  0  0  0  0
    3.5994   -7.6725    0.0000 O   0  0  0  0  0  0  0  0  0  0  0  0
    6.4573   -8.4975    0.0000 O   0  0  0  0  0  0  0  0  0  0  0  0
    7.8863   -7.6725    0.0000 O   0  0  0  0  0  0  0  0  0  0  0  0
  1  2  2  0  0  0  0
  2  3  1  0  0  0  0
  3  4  2  0  0  0  0
  4  5  1  0  0  0  0
  5  6  2  0  0  0  0
  6  1  1  0  0  0  0
  4  7  1  0  0  0  0
  7  8  1  0  0  0  0
  8  9  1  0  0  0  0
  9 10  1  0  0  0  0
 10  5  1  0  0  0  0
  9 11  1  6  0  0  0
 11 12  2  0  0  0  0
 12 13  1  0  0  0  0
 13 14  2  0  0  0  0
 14 15  1  0  0  0  0
 15 16  2  0  0  0  0
 16 11  1  0  0  0  0
  1 17  1  0  0  0  0
  2 19  1  0  0  0  0
  7 20  2  0  0  0  0
  8 21  1  1  0  0  0
 17 18  1  0  0  0  0
M  STY  1   1 SUP
M  SAL   1  2  17  18
M  SBL   1  1  19
M  SMT   1 OCH3
M  SAP   1  1  17   1  1
M  END
>  <cdx:fragmentId>
5

$$$$
