152304.cdx
  Mrv1902 05222410202D          

 13 12  0  0  0  0            999 V2000
   17.2549  -13.0601    0.0000 C   0  0  0  0  0  0  0  0  0  0  0  0
   16.5405  -13.4726    0.0000 C   0  0  2  0  0  0  0  0  0  0  0  0
   16.5405  -14.2976    0.0000 O   0  0  0  0  0  0  0  0  0  0  0  0
   15.8260  -13.0601    0.0000 C   0  0  2  0  0  0  0  0  0  0  0  0
   15.8260  -12.2351    0.0000 O   0  0  0  0  0  0  0  0  0  0  0  0
   15.1115  -13.4726    0.0000 C   0  0  1  0  0  0  0  0  0  0  0  0
   15.1115  -14.2976    0.0000 O   0  0  0  0  0  0  0  0  0  0  0  0
   14.3970  -13.0601    0.0000 C   0  0  2  0  0  0  0  0  0  0  0  0
   14.3970  -12.2351    0.0000 O   0  0  0  0  0  0  0  0  0  0  0  0
   13.6826  -13.4726    0.0000 C   0  0  0  0  0  0  0  0  0  0  0  0
   12.9681  -13.0601    0.0000 O   0  0  0  0  0  0  0  0  0  0  0  0
   17.2549  -12.2351    0.0000 O   0  0  0  0  0  0  0  0  0  0  0  0
   17.9694  -13.4726    0.0000 O   0  0  0  0  0  0  0  0  0  0  0  0
  1  2  1  0  0  0  0
  2  3  1  6  0  0  0
  2  4  1  0  0  0  0
  4  5  1  1  0  0  0
  4  6  1  0  0  0  0
  6  7  1  1  0  0  0
  6  8  1  0  0  0  0
  8  9  1  1  0  0  0
  8 10  1  0  0  0  0
 10 11  1  0  0  0  0
  1 12  2  0  0  0  0
  1 13  1  0  0  0  0
M  END
>  <cdx:groupId>
1562

>  <cdx:fragmentId>
1527

$$$$
