15267.cdx
  Mrv1902 05222410232D          

 16 15  0  0  0  0            999 V2000
   11.1137   -1.6008    0.0000 C   0  0  0  0  0  0  0  0  0  0  0  0
   11.1137   -2.4258    0.0000 C   0  0  0  0  0  0  0  0  0  0  0  0
   10.3992   -2.8383    0.0000 C   0  0  0  0  0  0  0  0  0  0  0  0
    9.6848   -2.4258    0.0000 C   0  0  0  0  0  0  0  0  0  0  0  0
    8.9703   -2.8383    0.0000 C   0  0  0  0  0  0  0  0  0  0  0  0
    8.2558   -2.4258    0.0000 C   0  0  0  0  0  0  0  0  0  0  0  0
    7.5413   -2.8383    0.0000 C   0  0  0  0  0  0  0  0  0  0  0  0
    6.8269   -2.4258    0.0000 C   0  0  0  0  0  0  0  0  0  0  0  0
    6.1124   -2.8383    0.0000 C   0  0  0  0  0  0  0  0  0  0  0  0
    5.3979   -2.4258    0.0000 C   0  0  0  0  0  0  0  0  0  0  0  0
    4.6835   -2.8383    0.0000 C   0  0  0  0  0  0  0  0  0  0  0  0
    3.9690   -2.4258    0.0000 C   0  0  0  0  0  0  0  0  0  0  0  0
    3.2545   -2.8383    0.0000 C   0  0  0  0  0  0  0  0  0  0  0  0
    2.5400   -2.4258    0.0000 C   0  0  0  0  0  0  0  0  0  0  0  0
    1.8256   -2.8383    0.0000 C   0  0  0  0  0  0  0  0  0  0  0  0
   11.8282   -2.8383    0.0000 C   0  0  0  0  0  0  0  0  0  0  0  0
  1  2  1  0  0  0  0
  2  3  1  0  0  0  0
  3  4  1  0  0  0  0
  4  5  1  0  0  0  0
  5  6  1  0  0  0  0
  6  7  1  0  0  0  0
  7  8  1  0  0  0  0
  8  9  1  0  0  0  0
  9 10  1  0  0  0  0
 10 11  1  0  0  0  0
 11 12  1  0  0  0  0
 12 13  1  0  0  0  0
 13 14  1  0  0  0  0
 14 15  1  0  0  0  0
  2 16  1  0  0  0  0
M  END
>  <cdx:groupId>
49

>  <cdx:fragmentId>
5

$$$$
