15265.cdx
  Mrv1902 05222410222D          

 18 17  0  0  0  0            999 V2000
   12.3850   -2.3639    0.0000 C   0  0  0  0  0  0  0  0  0  0  0  0
   12.3850   -3.1889    0.0000 C   0  0  0  0  0  0  0  0  0  0  0  0
   11.6706   -3.6014    0.0000 C   0  0  0  0  0  0  0  0  0  0  0  0
   10.9561   -3.1889    0.0000 C   0  0  0  0  0  0  0  0  0  0  0  0
   10.2416   -3.6014    0.0000 C   0  0  0  0  0  0  0  0  0  0  0  0
    9.5272   -3.1889    0.0000 C   0  0  0  0  0  0  0  0  0  0  0  0
    8.8127   -3.6014    0.0000 C   0  0  0  0  0  0  0  0  0  0  0  0
    8.0982   -3.1889    0.0000 C   0  0  0  0  0  0  0  0  0  0  0  0
    7.3838   -3.6014    0.0000 C   0  0  0  0  0  0  0  0  0  0  0  0
    6.6693   -3.1889    0.0000 C   0  0  0  0  0  0  0  0  0  0  0  0
    5.9548   -3.6014    0.0000 C   0  0  0  0  0  0  0  0  0  0  0  0
    5.2403   -3.1889    0.0000 C   0  0  0  0  0  0  0  0  0  0  0  0
    4.5259   -3.6014    0.0000 C   0  0  0  0  0  0  0  0  0  0  0  0
    3.8114   -3.1889    0.0000 C   0  0  0  0  0  0  0  0  0  0  0  0
    3.0969   -3.6014    0.0000 C   0  0  0  0  0  0  0  0  0  0  0  0
    2.3825   -3.1889    0.0000 C   0  0  0  0  0  0  0  0  0  0  0  0
    1.6680   -3.6014    0.0000 C   0  0  0  0  0  0  0  0  0  0  0  0
   13.0995   -3.6014    0.0000 C   0  0  0  0  0  0  0  0  0  0  0  0
  1  2  1  0  0  0  0
  2  3  1  0  0  0  0
  3  4  1  0  0  0  0
  4  5  1  0  0  0  0
  5  6  1  0  0  0  0
  6  7  1  0  0  0  0
  7  8  1  0  0  0  0
  8  9  1  0  0  0  0
  9 10  1  0  0  0  0
 10 11  1  0  0  0  0
 11 12  1  0  0  0  0
 12 13  1  0  0  0  0
 13 14  1  0  0  0  0
 14 15  1  0  0  0  0
 15 16  1  0  0  0  0
 16 17  1  0  0  0  0
  2 18  1  0  0  0  0
M  END
>  <cdx:groupId>
55

>  <cdx:fragmentId>
5

$$$$
