15262.cdx
  Mrv1902 05222410212D          

 21 22  0  0  0  0            999 V2000
    6.2733   -8.5049    0.0000 C   0  0  0  0  0  0  0  0  0  0  0  0
    6.9878   -8.9174    0.0000 C   0  0  0  0  0  0  0  0  0  0  0  0
    6.9878   -9.7424    0.0000 C   0  0  0  0  0  0  0  0  0  0  0  0
    6.2733  -10.1549    0.0000 C   0  0  0  0  0  0  0  0  0  0  0  0
    5.5588   -9.7424    0.0000 C   0  0  0  0  0  0  0  0  0  0  0  0
    5.5588   -8.9174    0.0000 C   0  0  0  0  0  0  0  0  0  0  0  0
    7.7022   -8.5049    0.0000 O   0  0  0  0  0  0  0  0  0  0  0  0
    4.8443   -7.6799    0.0000 C   0  0  0  0  0  0  0  0  0  0  0  0
    5.5588   -7.2674    0.0000 C   0  0  0  0  0  0  0  0  0  0  0  0
    6.2733   -7.6799    0.0000 C   0  0  1  0  0  0  0  0  0  0  0  0
    9.8456   -6.4424    0.0000 C   0  0  0  0  0  0  0  0  0  0  0  0
    9.1312   -6.0299    0.0000 O   0  0  0  0  0  0  0  0  0  0  0  0
    5.5588   -6.4424    0.0000 C   0  0  0  0  0  0  0  0  0  0  0  0
    6.2733   -6.0299    0.0000 O   0  0  0  0  0  0  0  0  0  0  0  0
    9.1312   -7.6799    0.0000 O   0  0  0  0  0  0  0  0  0  0  0  0
    7.7022   -7.6799    0.0000 C   0  0  0  0  0  0  0  0  0  0  0  0
    6.9878   -7.2674    0.0000 C   0  0  0  0  0  0  0  0  0  0  0  0
    6.9878   -6.4424    0.0000 C   0  0  0  0  0  0  0  0  0  0  0  0
    7.7022   -6.0299    0.0000 C   0  0  0  0  0  0  0  0  0  0  0  0
    8.4167   -6.4424    0.0000 C   0  0  0  0  0  0  0  0  0  0  0  0
    8.4167   -7.2674    0.0000 C   0  0  0  0  0  0  0  0  0  0  0  0
 17 10  1  0  0  0  0
 10  1  1  0  0  0  0
  9  8  2  0  0  0  0
 10  9  1  1  0  0  0
 20 12  1  0  0  0  0
 12 11  1  0  0  0  0
 18 14  1  0  0  0  0
 14 13  1  0  0  0  0
 21 15  1  0  0  0  0
 21 16  2  0  0  0  0
 17 16  1  0  0  0  0
 18 17  2  0  0  0  0
 19 18  1  0  0  0  0
 20 19  2  0  0  0  0
 21 20  1  0  0  0  0
  1  2  1  0  0  0  0
  2  3  2  0  0  0  0
  3  4  1  0  0  0  0
  4  5  2  0  0  0  0
  5  6  1  0  0  0  0
  1  6  2  0  0  0  0
  2  7  1  0  0  0  0
M  END
>  <cdx:fragmentId>
5

$$$$
