15270.cdx
  Mrv1902 05222410222D          

 13 12  0  0  0  0            999 V2000
    3.8343   -7.4249    0.0000 C   0  0  0  0  0  0  0  0  0  0  0  0
    3.8346   -6.5999    0.0000 C   0  0  0  0  0  0  0  0  0  0  0  0
    4.5492   -6.1876    0.0000 C   0  0  0  0  0  0  0  0  0  0  0  0
    5.2635   -6.6004    0.0000 C   0  0  0  0  0  0  0  0  0  0  0  0
    5.9781   -6.1882    0.0000 C   0  0  0  0  0  0  0  0  0  0  0  0
    6.6925   -6.6009    0.0000 C   0  0  0  0  0  0  0  0  0  0  0  0
    7.4071   -6.1887    0.0000 C   0  0  0  0  0  0  0  0  0  0  0  0
    8.1214   -6.6015    0.0000 C   0  0  0  0  0  0  0  0  0  0  0  0
    8.8360   -6.1892    0.0000 C   0  0  0  0  0  0  0  0  0  0  0  0
    9.5503   -6.6020    0.0000 C   0  0  0  0  0  0  0  0  0  0  0  0
   10.2650   -6.1898    0.0000 C   0  0  0  0  0  0  0  0  0  0  0  0
   10.9793   -6.6025    0.0000 C   0  0  0  0  0  0  0  0  0  0  0  0
    3.1203   -6.1871    0.0000 C   0  0  0  0  0  0  0  0  0  0  0  0
  1  2  1  0  0  0  0
  2  3  1  0  0  0  0
  3  4  1  0  0  0  0
  4  5  1  0  0  0  0
  5  6  1  0  0  0  0
  6  7  1  0  0  0  0
  7  8  1  0  0  0  0
  8  9  1  0  0  0  0
  9 10  1  0  0  0  0
 10 11  1  0  0  0  0
 11 12  1  0  0  0  0
  2 13  1  0  0  0  0
M  END
>  <cdx:fragmentId>
5

$$$$
