15285.cdx
  Mrv1902 05222410262D          

 15 15  0  0  0  0            999 V2000
    6.1702   -6.1669    0.0000 C   0  0  0  0  0  0  0  0  0  0  0  0
    6.1702   -6.9919    0.0000 C   0  0  0  0  0  0  0  0  0  0  0  0
    6.8846   -7.4044    0.0000 C   0  0  0  0  0  0  0  0  0  0  0  0
    7.5991   -6.9919    0.0000 C   0  0  0  0  0  0  0  0  0  0  0  0
    7.5991   -6.1669    0.0000 C   0  0  0  0  0  0  0  0  0  0  0  0
    6.8846   -5.7544    0.0000 C   0  0  2  0  0  0  0  0  0  0  0  0
    6.8846   -8.2294    0.0000 C   0  0  0  0  0  0  0  0  0  0  0  0
    6.1702   -8.6419    0.0000 C   0  0  0  0  0  0  0  0  0  0  0  0
    7.5991   -8.6419    0.0000 C   0  0  0  0  0  0  0  0  0  0  0  0
    7.2971   -5.0399    0.0000 C   0  0  0  0  0  0  0  0  0  0  0  0
    8.1221   -5.0399    0.0000 C   0  0  0  0  0  0  0  0  0  0  0  0
    5.4557   -5.7544    0.0000 C   0  0  0  0  0  0  0  0  0  0  0  0
    5.4557   -4.9294    0.0000 C   0  0  0  0  0  0  0  0  0  0  0  0
    4.7412   -6.1669    0.0000 C   0  0  0  0  0  0  0  0  0  0  0  0
    6.4721   -5.0399    0.0000 C   0  0  0  0  0  0  0  0  0  0  0  0
  1  2  2  0  0  0  0
  2  3  1  0  0  0  0
  3  4  1  0  0  0  0
  4  5  1  0  0  0  0
  5  6  1  0  0  0  0
  6  1  1  0  0  0  0
  3  7  2  0  0  0  0
  7  8  1  0  0  0  0
  7  9  1  0  0  0  0
  6 10  1  0  0  0  0
 10 11  2  0  0  0  0
  1 12  1  0  0  0  0
 12 13  1  0  0  0  0
 12 14  1  0  0  0  0
  6 15  1  6  0  0  0
M  END
>  <cdx:fragmentId>
5

$$$$
