15300.cdx
  Mrv1902 05222410212D          

 12 13  0  0  0  0            999 V2000
    7.8925   -6.7100    0.0000 C   0  0  1  0  0  0  0  0  0  0  0  0
    6.3800   -6.8200    0.0000 C   0  0  0  0  0  0  0  0  0  0  0  0
    6.0500   -7.4800    0.0000 C   0  0  0  0  0  0  0  0  0  0  0  0
    6.7651   -7.8801    0.0000 C   0  0  1  0  0  0  0  0  0  0  0  0
    7.6725   -7.4250    0.0000 C   0  0  1  0  0  0  0  0  0  0  0  0
    8.7725   -7.2875    0.0000 C   0  0  0  0  0  0  0  0  0  0  0  0
    7.3150   -5.6925    0.0000 C   0  0  0  0  0  0  0  0  0  0  0  0
    9.5694   -7.0740    0.0000 C   0  0  0  0  0  0  0  0  0  0  0  0
    9.3559   -7.8709    0.0000 C   0  0  0  0  0  0  0  0  0  0  0  0
    8.1060   -5.9131    0.0000 H   0  0  0  0  0  0  0  0  0  0  0  0
    7.6725   -8.2500    0.0000 H   0  0  0  0  0  0  0  0  0  0  0  0
    6.7651   -8.7051    0.0000 C   0  0  0  0  0  0  0  0  0  0  0  0
  1  2  1  0  0  0  0
  2  3  1  0  0  0  0
  3  4  1  0  0  0  0
  4  5  1  0  0  0  0
  5  6  1  0  0  0  0
  1  6  1  0  0  0  0
  1  7  1  0  0  0  0
  5  7  1  0  0  0  0
  6  8  1  0  0  0  0
  6  9  1  0  0  0  0
  1 10  1  1  0  0  0
  5 11  1  1  0  0  0
  4 12  1  1  0  0  0
M  END
>  <cdx:fragmentId>
212950

$$$$
