1531.cdx
  Mrv1902 05222410182D          

  7  6  0  0  0  0            999 V2000
    3.9485   -5.1129    0.0000 C   0  0  0  0  0  0  0  0  0  0  0  0
    3.2340   -4.7004    0.0000 C   0  0  0  0  0  0  0  0  0  0  0  0
    2.5195   -5.1129    0.0000 C   0  0  0  0  0  0  0  0  0  0  0  0
    4.6629   -4.7004    0.0000 O   0  0  0  0  0  0  0  0  0  0  0  0
    1.8051   -4.7004    0.0000 O   0  0  0  0  0  0  0  0  0  0  0  0
    3.6465   -3.9859    0.0000 C   0  0  0  0  0  0  0  0  0  0  0  0
    2.8215   -3.9859    0.0000 N   0  0  0  0  0  0  0  0  0  0  0  0
  1  2  1  0  0  0  0
  2  3  1  0  0  0  0
  1  4  1  0  0  0  0
  3  5  1  0  0  0  0
  2  6  1  0  0  0  0
  2  7  1  0  0  0  0
M  END
>  <cdx:groupId>
22

>  <cdx:fragmentId>
5

$$$$
