15326.cdx
  Mrv1902 05222410252D          

 39 42  0  0  0  0            999 V2000
    8.8321   -7.2820    0.0000 O   0  0  0  0  0  0  0  0  0  0  0  0
   10.2654   -8.9119    0.0000 C   0  0  2  0  0  0  0  0  0  0  0  0
   10.9743   -8.4900    0.0000 C   0  0  2  0  0  0  0  0  0  0  0  0
   10.9635   -7.6651    0.0000 C   0  0  1  0  0  0  0  0  0  0  0  0
   10.2436   -7.2620    0.0000 C   0  0  2  0  0  0  0  0  0  0  0  0
    9.5347   -7.6839    0.0000 C   0  0  1  0  0  0  0  0  0  0  0  0
    9.5455   -8.5088    0.0000 O   0  0  0  0  0  0  0  0  0  0  0  0
   10.9961  -10.1399    0.0000 O   0  0  0  0  0  0  0  0  0  0  0  0
   11.6725   -7.2432    0.0000 O   0  0  0  0  0  0  0  0  0  0  0  0
   10.2328   -6.4371    0.0000 O   0  0  0  0  0  0  0  0  0  0  0  0
   11.6942   -8.8931    0.0000 O   0  0  0  0  0  0  0  0  0  0  0  0
   10.2762   -9.7368    0.0000 C   0  0  0  0  0  0  0  0  0  0  0  0
    8.1171   -7.6935    0.0000 C   0  0  0  0  0  0  0  0  0  0  0  0
    7.4037   -7.2791    0.0000 C   0  0  0  0  0  0  0  0  0  0  0  0
    6.6881   -7.6935    0.0000 C   0  0  0  0  0  0  0  0  0  0  0  0
    6.6881   -8.5185    0.0000 C   0  0  0  0  0  0  0  0  0  0  0  0
    7.4037   -8.9330    0.0000 C   0  0  0  0  0  0  0  0  0  0  0  0
    8.1171   -8.5185    0.0000 C   0  0  0  0  0  0  0  0  0  0  0  0
    5.9734   -8.9305    0.0000 C   0  0  0  0  0  0  0  0  0  0  0  0
    5.2592   -8.5175    0.0000 C   0  0  0  0  0  0  0  0  0  0  0  0
    4.5444   -8.9296    0.0000 C   0  0  0  0  0  0  0  0  0  0  0  0
    3.8305   -8.5161    0.0000 C   0  0  0  0  0  0  0  0  0  0  0  0
    3.1155   -8.9296    0.0000 C   0  0  0  0  0  0  0  0  0  0  0  0
    3.1155   -9.7546    0.0000 C   0  0  0  0  0  0  0  0  0  0  0  0
    3.8305  -10.1680    0.0000 C   0  0  0  0  0  0  0  0  0  0  0  0
    4.5444   -9.7546    0.0000 C   0  0  0  0  0  0  0  0  0  0  0  0
    3.8308  -10.9930    0.0000 O   0  0  0  0  0  0  0  0  0  0  0  0
    2.4009   -8.5173    0.0000 O   0  0  0  0  0  0  0  0  0  0  0  0
    9.5129   -6.0340    0.0000 C   0  0  0  0  0  0  0  0  0  0  0  0
    8.8039   -6.4559    0.0000 O   0  0  0  0  0  0  0  0  0  0  0  0
    9.5020   -5.2091    0.0000 C   0  0  0  0  0  0  0  0  0  0  0  0
   10.2191   -4.8012    0.0000 C   0  0  0  0  0  0  0  0  0  0  0  0
   10.2191   -3.9762    0.0000 C   0  0  0  0  0  0  0  0  0  0  0  0
    9.5020   -3.5591    0.0000 C   0  0  0  0  0  0  0  0  0  0  0  0
    8.7850   -3.9762    0.0000 C   0  0  0  0  0  0  0  0  0  0  0  0
    8.7850   -4.8012    0.0000 C   0  0  0  0  0  0  0  0  0  0  0  0
    8.0698   -3.5648    0.0000 O   0  0  0  0  0  0  0  0  0  0  0  0
    9.5020   -2.7341    0.0000 O   0  0  0  0  0  0  0  0  0  0  0  0
   10.9343   -3.5648    0.0000 O   0  0  0  0  0  0  0  0  0  0  0  0
  2  3  1  0  0  0  0
  3  4  1  0  0  0  0
  4  5  1  0  0  0  0
  5  6  1  0  0  0  0
  6  7  1  0  0  0  0
  7  2  1  0  0  0  0
  2 12  1  1  0  0  0
  4  9  1  1  0  0  0
  5 10  1  6  0  0  0
  3 11  1  6  0  0  0
  6  1  1  1  0  0  0
 12  8  1  0  0  0  0
  1 13  1  0  0  0  0
 13 14  2  0  0  0  0
 14 15  1  0  0  0  0
 15 16  2  0  0  0  0
 16 17  1  0  0  0  0
 17 18  2  0  0  0  0
 18 13  1  0  0  0  0
 16 19  1  0  0  0  0
 19 20  2  0  0  0  0
 20 21  1  0  0  0  0
 21 22  2  0  0  0  0
 22 23  1  0  0  0  0
 23 24  2  0  0  0  0
 24 25  1  0  0  0  0
 25 26  2  0  0  0  0
 26 21  1  0  0  0  0
 25 27  1  0  0  0  0
 23 28  1  0  0  0  0
 10 29  1  0  0  0  0
 29 30  2  0  0  0  0
 29 31  1  0  0  0  0
 31 32  2  0  0  0  0
 32 33  1  0  0  0  0
 33 34  2  0  0  0  0
 34 35  1  0  0  0  0
 35 36  2  0  0  0  0
 36 31  1  0  0  0  0
 35 37  1  0  0  0  0
 34 38  1  0  0  0  0
 33 39  1  0  0  0  0
M  END
>  <cdx:fragmentId>
5

$$$$
