15153216.cdx
  Mrv1902 05222410272D          

 14 15  0  0  0  0            999 V2000
    6.9578  -14.2304    0.0000 C   0  0  0  0  0  0  0  0  0  0  0  0
    6.2433  -14.6429    0.0000 C   0  0  0  0  0  0  0  0  0  0  0  0
    6.2433  -15.4679    0.0000 C   0  0  0  0  0  0  0  0  0  0  0  0
    6.9578  -15.8804    0.0000 C   0  0  0  0  0  0  0  0  0  0  0  0
    7.6722  -15.4679    0.0000 C   0  0  2  0  0  0  0  0  0  0  0  0
    8.3867  -15.8804    0.0000 C   0  0  0  0  0  0  0  0  0  0  0  0
    9.1012  -15.4679    0.0000 C   0  0  0  0  0  0  0  0  0  0  0  0
    9.1012  -14.6429    0.0000 C   0  0  0  0  0  0  0  0  0  0  0  0
    8.3867  -14.2304    0.0000 C   0  0  2  0  0  0  0  0  0  0  0  0
    7.6722  -14.6429    0.0000 C   0  0  0  0  0  0  0  0  0  0  0  0
    5.5288  -14.2304    0.0000 O   0  0  0  0  0  0  0  0  0  0  0  0
    8.7992  -13.5159    0.0000 C   0  0  0  0  0  0  0  0  0  0  0  0
    7.6722  -16.2929    0.0000 C   0  0  0  0  0  0  0  0  0  0  0  0
    7.9742  -13.5159    0.0000 O   0  0  0  0  0  0  0  0  0  0  0  0
  1  2  1  0  0  0  0
  2  3  1  0  0  0  0
  3  4  1  0  0  0  0
  4  5  1  0  0  0  0
  5  6  1  0  0  0  0
  6  7  1  0  0  0  0
  7  8  1  0  0  0  0
  8  9  1  0  0  0  0
  9 10  1  0  0  0  0
  1 10  2  0  0  0  0
  5 10  1  0  0  0  0
  2 11  2  0  0  0  0
  9 12  1  6  0  0  0
  5 13  1  6  0  0  0
  9 14  1  1  0  0  0
M  END
>  <cdx:groupId>
110954

>  <cdx:fragmentId>
110914

$$$$
