153311.cdx
  Mrv1902 05222410252D          

 24 27  0  0  0  0            999 V2000
    9.6834   -8.3201    0.0000 C   0  0  0  0  0  0  0  0  0  0  0  0
    9.9518   -7.6605    0.0000 C   0  0  0  0  0  0  0  0  0  0  0  0
    9.2625   -7.2566    0.0000 C   0  0  1  0  0  0  0  0  0  0  0  0
    8.1247   -7.3064    0.0000 C   0  0  0  0  0  0  0  0  0  0  0  0
    7.8199   -7.7485    0.0000 C   0  0  0  0  0  0  0  0  0  0  0  0
    8.2343   -8.1676    0.0000 C   0  0  0  0  0  0  0  0  0  0  0  0
    8.9927   -7.9148    0.0000 C   0  0  2  0  0  0  0  0  0  0  0  0
    8.9927   -6.4769    0.0000 N   0  0  0  0  0  0  0  0  0  0  0  0
    6.9981   -7.8210    0.0000 O   0  0  0  0  0  0  0  0  0  0  0  0
    6.5856   -8.5355    0.0000 C   0  0  0  0  0  0  0  0  0  0  0  0
    5.7606   -8.5355    0.0000 C   0  0  1  0  0  0  0  0  0  0  0  0
    6.9981   -9.2500    0.0000 O   0  0  0  0  0  0  0  0  0  0  0  0
    5.3481   -9.2500    0.0000 C   0  0  0  0  0  0  0  0  0  0  0  0
    5.3481   -7.8210    0.0000 C   0  0  0  0  0  0  0  0  0  0  0  0
    4.5231   -7.8210    0.0000 O   0  0  0  0  0  0  0  0  0  0  0  0
    4.5231   -9.2500    0.0000 C   0  0  0  0  0  0  0  0  0  0  0  0
    4.1106   -9.9645    0.0000 C   0  0  0  0  0  0  0  0  0  0  0  0
    4.5231  -10.6789    0.0000 C   0  0  0  0  0  0  0  0  0  0  0  0
    5.3481  -10.6789    0.0000 C   0  0  0  0  0  0  0  0  0  0  0  0
    5.7606   -9.9645    0.0000 C   0  0  0  0  0  0  0  0  0  0  0  0
    8.7792   -5.6801    0.0000 C   0  0  0  0  0  0  0  0  0  0  0  0
    8.9067   -8.7353    0.0000 H   0  0  0  0  0  0  0  0  0  0  0  0
    9.8459   -6.6732    0.0000 H   0  0  0  0  0  0  0  0  0  0  0  0
   10.3888   -8.2227    0.0000 O   0  0  0  0  0  0  0  0  0  0  0  0
  7  1  1  0  0  0  0
  2  3  1  0  0  0  0
  3  8  1  0  0  0  0
  3  4  1  0  0  0  0
  4  5  1  0  0  0  0
  6  5  1  0  0  0  0
  7  6  1  0  0  0  0
  7  8  1  0  0  0  0
  1  2  1  0  0  0  0
  5  9  1  0  0  0  0
  9 10  1  0  0  0  0
 10 11  1  0  0  0  0
 10 12  2  0  0  0  0
 11 13  1  0  0  0  0
 11 14  1  1  0  0  0
 14 15  1  0  0  0  0
 13 16  2  0  0  0  0
 16 17  1  0  0  0  0
 17 18  2  0  0  0  0
 18 19  1  0  0  0  0
 19 20  2  0  0  0  0
 20 13  1  0  0  0  0
  8 21  1  0  0  0  0
  7 22  1  1  0  0  0
  3 23  1  6  0  0  0
  1 24  1  0  0  0  0
 24  2  1  0  0  0  0
M  END
>  <cdx:fragmentId>
820

$$$$
