1534.cdx
  Mrv1902 05222410202D          

 33 36  0  0  0  0            999 V2000
    8.0645   -7.4747    0.0000 O   0  0  0  0  0  0  0  0  0  0  0  0
    7.3562   -9.5235    0.0000 C   0  0  2  0  0  0  0  0  0  0  0  0
    8.0680   -9.9406    0.0000 C   0  0  2  0  0  0  0  0  0  0  0  0
    8.7851   -9.5327    0.0000 C   0  0  1  0  0  0  0  0  0  0  0  0
    8.7904   -8.7077    0.0000 C   0  0  2  0  0  0  0  0  0  0  0  0
    8.0786   -8.2906    0.0000 C   0  0  1  0  0  0  0  0  0  0  0  0
    7.3615   -8.6985    0.0000 O   0  0  0  0  0  0  0  0  0  0  0  0
    9.5075   -8.2998    0.0000 O   0  0  0  0  0  0  0  0  0  0  0  0
    8.0626  -10.7655    0.0000 O   0  0  0  0  0  0  0  0  0  0  0  0
    9.4969   -9.9498    0.0000 O   0  0  0  0  0  0  0  0  0  0  0  0
    6.6390   -9.9314    0.0000 C   0  0  0  0  0  0  0  0  0  0  0  0
    6.6337  -10.7563    0.0000 O   0  0  0  0  0  0  0  0  0  0  0  0
    7.7625   -6.3478    0.0000 C   0  0  0  0  0  0  0  0  0  0  0  0
    6.9375   -7.7767    0.0000 C   0  0  0  0  0  0  0  0  0  0  0  0
    5.9211   -7.0622    0.0000 O   0  0  0  0  0  0  0  0  0  0  0  0
    7.3500   -7.0622    0.0000 C   0  0  0  0  0  0  0  0  0  0  0  0
    6.6355   -6.6497    0.0000 C   0  0  2  0  0  0  0  0  0  0  0  0
    6.6355   -5.8247    0.0000 C   0  0  0  0  0  0  0  0  0  0  0  0
    5.9211   -5.4122    0.0000 O   0  0  0  0  0  0  0  0  0  0  0  0
    3.0632   -2.9372    0.0000 O   0  0  0  0  0  0  0  0  0  0  0  0
    7.4202   -4.4297    0.0000 C   0  0  0  0  0  0  0  0  0  0  0  0
    7.9051   -3.7622    0.0000 C   0  0  0  0  0  0  0  0  0  0  0  0
    7.4202   -3.0948    0.0000 O   0  0  0  0  0  0  0  0  0  0  0  0
    5.9211   -4.5872    0.0000 C   0  0  0  0  0  0  0  0  0  0  0  0
    6.6355   -4.1747    0.0000 C   0  0  0  0  0  0  0  0  0  0  0  0
    6.6355   -3.3497    0.0000 C   0  0  0  0  0  0  0  0  0  0  0  0
    5.9211   -2.9372    0.0000 C   0  0  0  0  0  0  0  0  0  0  0  0
    4.4921   -4.5872    0.0000 C   0  0  0  0  0  0  0  0  0  0  0  0
    5.2066   -4.1747    0.0000 C   0  0  0  0  0  0  0  0  0  0  0  0
    5.2066   -3.3497    0.0000 C   0  0  0  0  0  0  0  0  0  0  0  0
    4.4921   -2.9372    0.0000 O   0  0  0  0  0  0  0  0  0  0  0  0
    3.7777   -3.3497    0.0000 C   0  0  0  0  0  0  0  0  0  0  0  0
    3.7777   -4.1747    0.0000 C   0  0  0  0  0  0  0  0  0  0  0  0
  2  3  1  0  0  0  0
  3  4  1  0  0  0  0
  4  5  1  0  0  0  0
  5  6  1  0  0  0  0
  6  7  1  0  0  0  0
  7  2  1  0  0  0  0
  5  8  1  6  0  0  0
  3  9  1  6  0  0  0
  4 10  1  1  0  0  0
  2 11  1  1  0  0  0
 11 12  1  0  0  0  0
 16 13  1  0  0  0  0
 16 14  1  0  0  0  0
 17 15  1  1  0  0  0
 16  1  1  0  0  0  0
  6  1  1  1  0  0  0
 17 16  1  0  0  0  0
 18 17  1  0  0  0  0
 19 18  1  0  0  0  0
 24 19  1  0  0  0  0
 32 20  2  0  0  0  0
 21 25  1  0  0  0  0
 22 21  2  0  0  0  0
 23 22  1  0  0  0  0
 26 23  1  0  0  0  0
 24 29  2  0  0  0  0
 25 24  1  0  0  0  0
 26 25  2  0  0  0  0
 27 26  1  0  0  0  0
 30 27  2  0  0  0  0
 28 33  2  0  0  0  0
 29 28  1  0  0  0  0
 30 29  1  0  0  0  0
 31 30  1  0  0  0  0
 32 31  1  0  0  0  0
 33 32  1  0  0  0  0
M  END
>  <cdx:fragmentId>
5

$$$$
