102153488.cdx
  Mrv1902 05222410242D          

 56 61  0  0  0  0            999 V2000
    9.5374  -13.5937    0.0000 C   0  0  0  0  0  0  0  0  0  0  0  0
    8.8229  -13.1812    0.0000 C   0  0  0  0  0  0  0  0  0  0  0  0
    8.8229  -12.3562    0.0000 C   0  0  0  0  0  0  0  0  0  0  0  0
    8.1084  -11.9437    0.0000 C   0  0  0  0  0  0  0  0  0  0  0  0
   10.2518  -13.1812    0.0000 O   0  0  0  0  0  0  0  0  0  0  0  0
    9.5374  -14.4187    0.0000 O   0  0  0  0  0  0  0  0  0  0  0  0
    8.1084  -13.5937    0.0000 C   0  0  0  0  0  0  0  0  0  0  0  0
    8.8229  -15.6562    0.0000 C   0  0  0  0  0  0  0  0  0  0  0  0
    8.1084  -16.0687    0.0000 C   0  0  0  0  0  0  0  0  0  0  0  0
    8.1084  -16.8937    0.0000 C   0  0  1  0  0  0  0  0  0  0  0  0
    8.8229  -17.3062    0.0000 C   0  0  0  0  0  0  0  0  0  0  0  0
    9.5374  -16.8937    0.0000 C   0  0  2  0  0  0  0  0  0  0  0  0
   10.2518  -17.3062    0.0000 C   0  0  0  0  0  0  0  0  0  0  0  0
   10.9663  -16.8937    0.0000 C   0  0  0  0  0  0  0  0  0  0  0  0
   10.9663  -16.0687    0.0000 C   0  0  1  0  0  0  0  0  0  0  0  0
   11.6808  -15.6562    0.0000 C   0  0  1  0  0  0  0  0  0  0  0  0
   12.4654  -15.9111    0.0000 C   0  0  0  0  0  0  0  0  0  0  0  0
   12.9503  -15.2437    0.0000 C   0  0  0  0  0  0  0  0  0  0  0  0
   12.4654  -14.5763    0.0000 C   0  0  1  0  0  0  0  0  0  0  0  0
   11.6808  -14.8312    0.0000 C   0  0  1  0  0  0  0  0  0  0  0  0
   10.9663  -14.4187    0.0000 C   0  0  1  0  0  0  0  0  0  0  0  0
   10.2518  -14.8312    0.0000 C   0  0  2  0  0  0  0  0  0  0  0  0
   10.2518  -15.6562    0.0000 C   0  0  2  0  0  0  0  0  0  0  0  0
    9.5374  -16.0687    0.0000 C   0  0  1  0  0  0  0  0  0  0  0  0
   11.7670  -14.0107    0.0000 C   0  0  0  0  0  0  0  0  0  0  0  0
    9.5374  -15.2437    0.0000 C   0  0  0  0  0  0  0  0  0  0  0  0
   11.6808  -16.4812    0.0000 O   0  0  0  0  0  0  0  0  0  0  0  0
   10.9663  -13.5937    0.0000 O   0  0  0  0  0  0  0  0  0  0  0  0
   10.9663  -15.2437    0.0000 O   0  0  0  0  0  0  0  0  0  0  0  0
    7.3939  -17.3062    0.0000 O   0  0  0  0  0  0  0  0  0  0  0  0
    6.6795  -16.0687    0.0000 O   0  0  0  0  0  0  0  0  0  0  0  0
    6.6795  -16.8937    0.0000 C   0  0  2  0  0  0  0  0  0  0  0  0
    5.9650  -17.3062    0.0000 C   0  0  0  0  0  0  0  0  0  0  0  0
    5.2505  -16.8937    0.0000 C   0  0  1  0  0  0  0  0  0  0  0  0
    5.2505  -16.0687    0.0000 C   0  0  1  0  0  0  0  0  0  0  0  0
    5.9650  -15.6562    0.0000 C   0  0  1  0  0  0  0  0  0  0  0  0
    5.9650  -14.8312    0.0000 C   0  0  0  0  0  0  0  0  0  0  0  0
    4.5361  -17.3062    0.0000 O   0  0  0  0  0  0  0  0  0  0  0  0
    4.5361  -18.1312    0.0000 C   0  0  0  0  0  0  0  0  0  0  0  0
    4.5361  -15.6562    0.0000 O   0  0  0  0  0  0  0  0  0  0  0  0
    3.8216  -16.8937    0.0000 O   0  0  0  0  0  0  0  0  0  0  0  0
    3.8216  -16.0687    0.0000 C   0  0  2  0  0  0  0  0  0  0  0  0
    3.1071  -15.6562    0.0000 C   0  0  1  0  0  0  0  0  0  0  0  0
    2.3927  -16.0687    0.0000 C   0  0  1  0  0  0  0  0  0  0  0  0
    2.3927  -16.8937    0.0000 C   0  0  1  0  0  0  0  0  0  0  0  0
    3.1071  -17.3062    0.0000 C   0  0  1  0  0  0  0  0  0  0  0  0
    3.1071  -18.1312    0.0000 C   0  0  0  0  0  0  0  0  0  0  0  0
    1.6782  -15.6562    0.0000 O   0  0  0  0  0  0  0  0  0  0  0  0
    0.9637  -16.0687    0.0000 C   0  0  0  0  0  0  0  0  0  0  0  0
    1.6782  -17.3062    0.0000 O   0  0  0  0  0  0  0  0  0  0  0  0
    3.1071  -14.8312    0.0000 O   0  0  0  0  0  0  0  0  0  0  0  0
   12.7203  -13.7916    0.0000 C   0  0  0  0  0  0  0  0  0  0  0  0
   12.1683  -13.1785    0.0000 O   0  0  0  0  0  0  0  0  0  0  0  0
   13.5273  -13.6201    0.0000 C   0  0  0  0  0  0  0  0  0  0  0  0
    9.5374  -17.7187    0.0000 H   0  0  0  0  0  0  0  0  0  0  0  0
   10.2518  -16.4812    0.0000 H   0  0  0  0  0  0  0  0  0  0  0  0
  1  2  1  0  0  0  0
  2  3  1  0  0  0  0
  3  4  1  0  0  0  0
  1  5  2  0  0  0  0
  1  6  1  0  0  0  0
  2  7  1  0  0  0  0
  8  9  1  0  0  0  0
  9 10  1  0  0  0  0
 10 11  1  0  0  0  0
 11 12  1  0  0  0  0
 12 13  1  0  0  0  0
 13 14  1  0  0  0  0
 14 15  1  0  0  0  0
 15 16  1  0  0  0  0
 16 17  1  0  0  0  0
 17 18  1  0  0  0  0
 18 19  1  0  0  0  0
 19 20  1  0  0  0  0
 16 20  1  0  0  0  0
 20 21  1  0  0  0  0
 21 22  1  0  0  0  0
 22 23  1  0  0  0  0
 15 23  1  0  0  0  0
 23 24  1  0  0  0  0
 12 24  1  0  0  0  0
  8 24  1  0  0  0  0
 20 25  1  1  0  0  0
 24 26  1  1  0  0  0
 16 27  1  1  0  0  0
 21 28  1  1  0  0  0
 15 29  1  1  0  0  0
 31 32  1  0  0  0  0
 32 33  1  0  0  0  0
 33 34  1  0  0  0  0
 34 35  1  0  0  0  0
 35 36  1  0  0  0  0
 31 36  1  0  0  0  0
 36 37  1  1  0  0  0
 38 39  1  0  0  0  0
 34 38  1  6  0  0  0
 41 42  1  0  0  0  0
 42 43  1  0  0  0  0
 43 44  1  0  0  0  0
 44 45  1  0  0  0  0
 45 46  1  0  0  0  0
 41 46  1  0  0  0  0
 46 47  1  6  0  0  0
 48 49  1  0  0  0  0
 44 48  1  1  0  0  0
 45 50  1  1  0  0  0
 43 51  1  1  0  0  0
 42 40  1  6  0  0  0
 35 40  1  6  0  0  0
 32 30  1  1  0  0  0
 10 30  1  1  0  0  0
 52 53  2  0  0  0  0
 52 54  1  0  0  0  0
 19 52  1  1  0  0  0
 22  6  1  6  0  0  0
 12 55  1  6  0  0  0
 23 56  1  6  0  0  0
M  END
>  <cdx:groupId>
21773

>  <cdx:fragmentId>
21617

$$$$
