102153486.cdx
  Mrv1902 05222410212D          

 47 52  0  0  0  0            999 V2000
    6.9653  -14.5868    0.0000 C   0  0  0  0  0  0  0  0  0  0  0  0
    6.2508  -14.1743    0.0000 C   0  0  0  0  0  0  0  0  0  0  0  0
    5.5363  -14.5868    0.0000 C   0  0  0  0  0  0  0  0  0  0  0  0
    4.8219  -14.1743    0.0000 C   0  0  0  0  0  0  0  0  0  0  0  0
    6.9653  -15.4118    0.0000 O   0  0  0  0  0  0  0  0  0  0  0  0
    7.6797  -14.1743    0.0000 O   0  0  0  0  0  0  0  0  0  0  0  0
    6.2508  -13.3493    0.0000 C   0  0  0  0  0  0  0  0  0  0  0  0
    9.5374  -16.0718    0.0000 C   0  0  2  0  0  0  0  0  0  0  0  0
   10.2518  -16.4843    0.0000 O   0  0  0  0  0  0  0  0  0  0  0  0
   10.2518  -15.6593    0.0000 C   0  0  1  0  0  0  0  0  0  0  0  0
   11.0365  -15.9142    0.0000 C   0  0  0  0  0  0  0  0  0  0  0  0
   11.5214  -15.2468    0.0000 C   0  0  0  0  0  0  0  0  0  0  0  0
   11.0365  -14.5794    0.0000 C   0  0  1  0  0  0  0  0  0  0  0  0
   10.2518  -14.8343    0.0000 C   0  0  1  0  0  0  0  0  0  0  0  0
    9.5374  -14.4218    0.0000 C   0  0  1  0  0  0  0  0  0  0  0  0
    8.8229  -14.8343    0.0000 C   0  0  2  0  0  0  0  0  0  0  0  0
    8.8229  -15.6593    0.0000 C   0  0  2  0  0  0  0  0  0  0  0  0
    8.1084  -16.0718    0.0000 C   0  0  1  0  0  0  0  0  0  0  0  0
    7.3939  -15.6593    0.0000 C   0  0  0  0  0  0  0  0  0  0  0  0
    6.6795  -16.0718    0.0000 C   0  0  0  0  0  0  0  0  0  0  0  0
    6.6795  -16.8968    0.0000 C   0  0  1  0  0  0  0  0  0  0  0  0
    7.3939  -17.3093    0.0000 C   0  0  0  0  0  0  0  0  0  0  0  0
    8.1084  -16.8968    0.0000 C   0  0  2  0  0  0  0  0  0  0  0  0
    8.8229  -17.3093    0.0000 C   0  0  0  0  0  0  0  0  0  0  0  0
    9.5374  -16.8968    0.0000 C   0  0  0  0  0  0  0  0  0  0  0  0
    8.1084  -15.2468    0.0000 C   0  0  0  0  0  0  0  0  0  0  0  0
   10.3381  -14.0138    0.0000 C   0  0  0  0  0  0  0  0  0  0  0  0
    5.9650  -17.3093    0.0000 O   0  0  0  0  0  0  0  0  0  0  0  0
    5.2505  -16.0718    0.0000 O   0  0  0  0  0  0  0  0  0  0  0  0
    5.2505  -16.8968    0.0000 C   0  0  2  0  0  0  0  0  0  0  0  0
    4.5361  -17.3093    0.0000 C   0  0  0  0  0  0  0  0  0  0  0  0
    3.8216  -16.8968    0.0000 C   0  0  1  0  0  0  0  0  0  0  0  0
    3.8216  -16.0718    0.0000 C   0  0  1  0  0  0  0  0  0  0  0  0
    4.5361  -15.6593    0.0000 C   0  0  1  0  0  0  0  0  0  0  0  0
    4.5361  -14.8343    0.0000 C   0  0  0  0  0  0  0  0  0  0  0  0
    3.1071  -15.6593    0.0000 O   0  0  0  0  0  0  0  0  0  0  0  0
    2.3927  -16.0718    0.0000 C   0  0  0  0  0  0  0  0  0  0  0  0
    3.1071  -17.3093    0.0000 O   0  0  0  0  0  0  0  0  0  0  0  0
    9.5374  -13.5968    0.0000 O   0  0  0  0  0  0  0  0  0  0  0  0
    8.8229  -13.1843    0.0000 C   0  0  0  0  0  0  0  0  0  0  0  0
    8.8229  -12.3593    0.0000 O   0  0  0  0  0  0  0  0  0  0  0  0
    8.1084  -13.5968    0.0000 C   0  0  0  0  0  0  0  0  0  0  0  0
   11.2914  -13.7947    0.0000 C   0  0  0  0  0  0  0  0  0  0  0  0
   10.7394  -13.1816    0.0000 O   0  0  0  0  0  0  0  0  0  0  0  0
   12.0984  -13.6232    0.0000 C   0  0  0  0  0  0  0  0  0  0  0  0
    8.8229  -16.4843    0.0000 H   0  0  0  0  0  0  0  0  0  0  0  0
    8.1084  -17.7218    0.0000 H   0  0  0  0  0  0  0  0  0  0  0  0
  1  2  1  0  0  0  0
  2  3  1  0  0  0  0
  3  4  1  0  0  0  0
  1  5  2  0  0  0  0
  1  6  1  0  0  0  0
  2  7  1  0  0  0  0
  8  9  1  1  0  0  0
 10  9  1  1  0  0  0
 10 11  1  0  0  0  0
 11 12  1  0  0  0  0
 12 13  1  0  0  0  0
 13 14  1  0  0  0  0
 14 15  1  0  0  0  0
 15 16  1  0  0  0  0
 16 17  1  0  0  0  0
 17 18  1  0  0  0  0
 18 19  1  0  0  0  0
 19 20  1  0  0  0  0
 20 21  1  0  0  0  0
 21 22  1  0  0  0  0
 22 23  1  0  0  0  0
 23 24  1  0  0  0  0
 24 25  1  0  0  0  0
  8 25  1  0  0  0  0
  8 17  1  0  0  0  0
 18 23  1  0  0  0  0
 10 14  1  0  0  0  0
  8 10  1  0  0  0  0
 18 26  1  1  0  0  0
 14 27  1  1  0  0  0
 29 30  1  0  0  0  0
 30 31  1  0  0  0  0
 31 32  1  0  0  0  0
 32 33  1  0  0  0  0
 33 34  1  0  0  0  0
 29 34  1  0  0  0  0
 34 35  1  1  0  0  0
 36 37  1  0  0  0  0
 33 36  1  6  0  0  0
 32 38  1  6  0  0  0
 30 28  1  1  0  0  0
 21 28  1  1  0  0  0
 40 41  2  0  0  0  0
 40 42  1  0  0  0  0
 39 40  1  0  0  0  0
 15 39  1  1  0  0  0
 43 44  2  0  0  0  0
 43 45  1  0  0  0  0
 13 43  1  1  0  0  0
 16  6  1  6  0  0  0
 17 46  1  6  0  0  0
 23 47  1  6  0  0  0
M  END
>  <cdx:groupId>
21405

>  <cdx:fragmentId>
21276

$$$$
