153441.cdx
  Mrv1902 05222410222D          

 23 25  0  0  0  0            999 V2000
    8.8362   -6.0903    0.0000 C   0  0  0  0  0  0  0  0  0  0  0  0
    8.8362   -6.9153    0.0000 C   0  0  0  0  0  0  0  0  0  0  0  0
    8.1217   -7.3278    0.0000 C   0  0  0  0  0  0  0  0  0  0  0  0
    8.1217   -8.1528    0.0000 O   0  0  0  0  0  0  0  0  0  0  0  0
    7.4072   -6.9153    0.0000 C   0  0  0  0  0  0  0  0  0  0  0  0
    6.6928   -7.3278    0.0000 C   0  0  0  0  0  0  0  0  0  0  0  0
    5.9783   -6.9153    0.0000 C   0  0  0  0  0  0  0  0  0  0  0  0
    5.9783   -6.0903    0.0000 C   0  0  0  0  0  0  0  0  0  0  0  0
    6.6928   -5.6778    0.0000 C   0  0  0  0  0  0  0  0  0  0  0  0
    7.4072   -6.0903    0.0000 C   0  0  0  0  0  0  0  0  0  0  0  0
    8.1217   -5.6778    0.0000 O   0  0  0  0  0  0  0  0  0  0  0  0
    9.5506   -5.6778    0.0000 C   0  0  0  0  0  0  0  0  0  0  0  0
    9.5506   -4.8528    0.0000 C   0  0  0  0  0  0  0  0  0  0  0  0
   10.2651   -4.4403    0.0000 C   0  0  0  0  0  0  0  0  0  0  0  0
   10.9796   -4.8528    0.0000 C   0  0  0  0  0  0  0  0  0  0  0  0
   10.9796   -5.6778    0.0000 C   0  0  0  0  0  0  0  0  0  0  0  0
   10.2651   -6.0903    0.0000 C   0  0  0  0  0  0  0  0  0  0  0  0
    5.2638   -5.6778    0.0000 O   0  0  0  0  0  0  0  0  0  0  0  0
    4.5493   -6.0903    0.0000 C   0  0  0  0  0  0  0  0  0  0  0  0
    5.2638   -7.3278    0.0000 O   0  0  0  0  0  0  0  0  0  0  0  0
    4.5493   -6.9153    0.0000 C   0  0  0  0  0  0  0  0  0  0  0  0
    6.6928   -4.8528    0.0000 O   0  0  0  0  0  0  0  0  0  0  0  0
    6.6928   -8.1528    0.0000 O   0  0  0  0  0  0  0  0  0  0  0  0
  1  2  2  0  0  0  0
  2  3  1  0  0  0  0
  3  4  2  0  0  0  0
  3  5  1  0  0  0  0
  5  6  1  0  0  0  0
  6  7  2  0  0  0  0
  7  8  1  0  0  0  0
  8  9  2  0  0  0  0
  9 10  1  0  0  0  0
  5 10  2  0  0  0  0
 10 11  1  0  0  0  0
  1 11  1  0  0  0  0
  1 12  1  0  0  0  0
 12 13  1  0  0  0  0
 13 14  2  0  0  0  0
 14 15  1  0  0  0  0
 15 16  2  0  0  0  0
 16 17  1  0  0  0  0
 12 17  2  0  0  0  0
 18 19  1  0  0  0  0
  8 18  1  0  0  0  0
 20 21  1  0  0  0  0
  7 20  1  0  0  0  0
  9 22  1  0  0  0  0
  6 23  1  0  0  0  0
M  END
>  <cdx:fragmentId>
1655

$$$$
