15352.cdx
  Mrv1902 05222410272D          

 34 37  0  0  0  0            999 V2000
    4.6485   -7.6353    0.0000 C   0  0  0  0  0  0  0  0  0  0  0  0
    5.3677   -8.0395    0.0000 C   0  0  0  0  0  0  0  0  0  0  0  0
    6.0774   -7.6188    0.0000 C   0  0  0  0  0  0  0  0  0  0  0  0
    6.0678   -6.7939    0.0000 C   0  0  0  0  0  0  0  0  0  0  0  0
    5.3486   -6.3897    0.0000 C   0  0  0  0  0  0  0  0  0  0  0  0
    4.6390   -6.8104    0.0000 C   0  0  0  0  0  0  0  0  0  0  0  0
    6.7966   -8.0230    0.0000 C   0  0  0  0  0  0  0  0  0  0  0  0
    7.5062   -7.6023    0.0000 C   0  0  0  0  0  0  0  0  0  0  0  0
    7.4967   -6.7773    0.0000 C   0  0  0  0  0  0  0  0  0  0  0  0
    6.7775   -6.3731    0.0000 O   0  0  0  0  0  0  0  0  0  0  0  0
    8.2254   -8.0065    0.0000 O   0  0  0  0  0  0  0  0  0  0  0  0
    8.9255   -6.7608    0.0000 C   0  0  0  0  0  0  0  0  0  0  0  0
    8.2063   -6.3566    0.0000 C   0  0  0  0  0  0  0  0  0  0  0  0
    9.6352   -6.3401    0.0000 C   0  0  0  0  0  0  0  0  0  0  0  0
    9.6256   -5.5151    0.0000 C   0  0  0  0  0  0  0  0  0  0  0  0
    8.9065   -5.1109    0.0000 C   0  0  0  0  0  0  0  0  0  0  0  0
    8.1968   -5.5317    0.0000 C   0  0  0  0  0  0  0  0  0  0  0  0
    6.8061   -8.8480    0.0000 O   0  0  0  0  0  0  0  0  0  0  0  0
    7.5253   -9.2522    0.0000 O   0  0  0  0  0  0  0  0  0  0  0  0
    8.2350   -8.8314    0.0000 C   0  0  2  0  0  0  0  0  0  0  0  0
    7.5348  -10.0771    0.0000 C   0  0  1  0  0  0  0  0  0  0  0  0
    8.2540  -10.4813    0.0000 C   0  0  2  0  0  0  0  0  0  0  0  0
    8.9637  -10.0606    0.0000 C   0  0  1  0  0  0  0  0  0  0  0  0
    8.9541   -9.2357    0.0000 C   0  0  1  0  0  0  0  0  0  0  0  0
    6.8252  -10.4979    0.0000 C   0  0  0  0  0  0  0  0  0  0  0  0
    6.8347  -11.3228    0.0000 O   0  0  0  0  0  0  0  0  0  0  0  0
    8.2636  -11.3063    0.0000 O   0  0  0  0  0  0  0  0  0  0  0  0
    3.9198   -6.4062    0.0000 O   0  0  0  0  0  0  0  0  0  0  0  0
    3.2101   -6.8269    0.0000 C   0  0  0  0  0  0  0  0  0  0  0  0
    8.8969   -4.2860    0.0000 O   0  0  0  0  0  0  0  0  0  0  0  0
   10.3353   -5.0944    0.0000 O   0  0  0  0  0  0  0  0  0  0  0  0
    9.6829  -10.4648    0.0000 O   0  0  0  0  0  0  0  0  0  0  0  0
    9.6638   -8.8149    0.0000 O   0  0  0  0  0  0  0  0  0  0  0  0
    5.3773   -8.8645    0.0000 O   0  0  0  0  0  0  0  0  0  0  0  0
  1  2  2  0  0  0  0
  2  3  1  0  0  0  0
  3  4  2  0  0  0  0
  4  5  1  0  0  0  0
  5  6  2  0  0  0  0
  6  1  1  0  0  0  0
  3  7  1  0  0  0  0
  7  8  1  0  0  0  0
  8  9  2  0  0  0  0
  9 10  1  0  0  0  0
 10  4  1  0  0  0  0
  8 11  1  0  0  0  0
 12 13  1  0  0  0  0
 13  9  1  0  0  0  0
 12 14  2  0  0  0  0
 14 15  1  0  0  0  0
 15 16  2  0  0  0  0
 16 17  1  0  0  0  0
 17 13  2  0  0  0  0
  7 18  2  0  0  0  0
 19 20  1  0  0  0  0
 20 11  1  1  0  0  0
 19 21  1  0  0  0  0
 21 22  1  0  0  0  0
 22 23  1  0  0  0  0
 23 24  1  0  0  0  0
 24 20  1  0  0  0  0
 21 25  1  1  0  0  0
 25 26  1  0  0  0  0
 22 27  1  6  0  0  0
  6 28  1  0  0  0  0
 28 29  1  0  0  0  0
 16 30  1  0  0  0  0
 15 31  1  0  0  0  0
 23 32  1  1  0  0  0
 24 33  1  6  0  0  0
  2 34  1  0  0  0  0
M  END
>  <cdx:fragmentId>
5

$$$$
