153611.cdx
  Mrv1902 05222410262D          

 40 43  0  0  0  0            999 V2000
    5.0188   -4.6266    0.0000 C   0  0  0  0  0  0  0  0  0  0  0  0
    4.3043   -4.2141    0.0000 C   0  0  0  0  0  0  0  0  0  0  0  0
    4.3043   -3.3891    0.0000 O   0  0  0  0  0  0  0  0  0  0  0  0
    3.5898   -4.6266    0.0000 C   0  0  0  0  0  0  0  0  0  0  0  0
    2.8753   -4.2141    0.0000 C   0  0  0  0  0  0  0  0  0  0  0  0
    2.1609   -4.6266    0.0000 C   0  0  0  0  0  0  0  0  0  0  0  0
    2.1609   -5.4516    0.0000 C   0  0  0  0  0  0  0  0  0  0  0  0
    2.8753   -5.8641    0.0000 C   0  0  0  0  0  0  0  0  0  0  0  0
    3.5898   -5.4516    0.0000 C   0  0  0  0  0  0  0  0  0  0  0  0
    5.7332   -4.2141    0.0000 C   0  0  0  0  0  0  0  0  0  0  0  0
    6.4477   -4.6266    0.0000 C   0  0  0  0  0  0  0  0  0  0  0  0
    7.1622   -4.2141    0.0000 C   0  0  0  0  0  0  0  0  0  0  0  0
    7.8766   -4.6266    0.0000 C   0  0  0  0  0  0  0  0  0  0  0  0
    7.8766   -5.4516    0.0000 C   0  0  0  0  0  0  0  0  0  0  0  0
    7.1622   -5.8641    0.0000 C   0  0  0  0  0  0  0  0  0  0  0  0
    6.4477   -5.4516    0.0000 C   0  0  0  0  0  0  0  0  0  0  0  0
    8.5911   -5.8641    0.0000 O   0  0  0  0  0  0  0  0  0  0  0  0
    1.4464   -5.8641    0.0000 O   0  0  0  0  0  0  0  0  0  0  0  0
    2.8753   -3.3891    0.0000 O   0  0  0  0  0  0  0  0  0  0  0  0
    8.5911   -6.6891    0.0000 C   0  0  2  0  0  0  0  0  0  0  0  0
    7.8766   -7.1016    0.0000 O   0  0  0  0  0  0  0  0  0  0  0  0
    7.8766   -7.9266    0.0000 C   0  0  1  0  0  0  0  0  0  0  0  0
    8.5911   -8.3391    0.0000 C   0  0  2  0  0  0  0  0  0  0  0  0
    9.3056   -7.9266    0.0000 C   0  0  1  0  0  0  0  0  0  0  0  0
    9.3056   -7.1016    0.0000 C   0  0  1  0  0  0  0  0  0  0  0  0
    7.1622   -8.3391    0.0000 C   0  0  0  0  0  0  0  0  0  0  0  0
   10.0201   -8.3391    0.0000 O   0  0  0  0  0  0  0  0  0  0  0  0
   10.0201   -6.6891    0.0000 O   0  0  0  0  0  0  0  0  0  0  0  0
    8.5911   -9.1641    0.0000 O   0  0  0  0  0  0  0  0  0  0  0  0
    7.1622   -9.1641    0.0000 O   0  0  0  0  0  0  0  0  0  0  0  0
   10.7293   -7.1104    0.0000 C   0  0  1  0  0  0  0  0  0  0  0  0
   11.4489   -6.7068    0.0000 C   0  0  1  0  0  0  0  0  0  0  0  0
   12.1582   -7.1282    0.0000 C   0  0  1  0  0  0  0  0  0  0  0  0
   12.1479   -7.9531    0.0000 C   0  0  2  0  0  0  0  0  0  0  0  0
   11.4284   -8.3567    0.0000 C   0  0  1  0  0  0  0  0  0  0  0  0
   10.7191   -7.9354    0.0000 O   0  0  0  0  0  0  0  0  0  0  0  0
   12.8572   -8.3744    0.0000 O   0  0  0  0  0  0  0  0  0  0  0  0
   11.4182   -9.1816    0.0000 C   0  0  0  0  0  0  0  0  0  0  0  0
   12.8777   -6.7245    0.0000 O   0  0  0  0  0  0  0  0  0  0  0  0
   11.4591   -5.8819    0.0000 O   0  0  0  0  0  0  0  0  0  0  0  0
  1  2  1  0  0  0  0
  2  3  2  0  0  0  0
  2  4  1  0  0  0  0
  4  5  1  0  0  0  0
  5  6  2  0  0  0  0
  6  7  1  0  0  0  0
  7  8  2  0  0  0  0
  8  9  1  0  0  0  0
  4  9  2  0  0  0  0
  1 10  2  0  0  0  0
 10 11  1  0  0  0  0
 11 12  1  0  0  0  0
 12 13  2  0  0  0  0
 13 14  1  0  0  0  0
 14 15  2  0  0  0  0
 15 16  1  0  0  0  0
 11 16  2  0  0  0  0
 14 17  1  0  0  0  0
  7 18  1  0  0  0  0
  5 19  1  0  0  0  0
 20 17  1  1  0  0  0
 20 21  1  0  0  0  0
 21 22  1  0  0  0  0
 22 23  1  0  0  0  0
 23 24  1  0  0  0  0
 24 25  1  0  0  0  0
 25 20  1  0  0  0  0
 22 26  1  1  0  0  0
 24 27  1  1  0  0  0
 25 28  1  6  0  0  0
 23 29  1  6  0  0  0
 26 30  1  0  0  0  0
 31 28  1  1  0  0  0
 31 32  1  0  0  0  0
 32 33  1  0  0  0  0
 33 34  1  0  0  0  0
 34 35  1  0  0  0  0
 35 36  1  0  0  0  0
 36 31  1  0  0  0  0
 34 37  1  1  0  0  0
 35 38  1  6  0  0  0
 33 39  1  6  0  0  0
 32 40  1  6  0  0  0
M  END
>  <cdx:fragmentId>
12738

$$$$
