15362.cdx
  Mrv1902 05222410192D          

 29 32  0  0  0  0            999 V2000
    3.0145   -6.4144    0.0000 C   0  0  0  0  0  0  0  0  0  0  0  0
    3.0145   -7.2394    0.0000 C   0  0  0  0  0  0  0  0  0  0  0  0
    3.7290   -7.6519    0.0000 C   0  0  0  0  0  0  0  0  0  0  0  0
    4.4435   -7.2394    0.0000 C   0  0  0  0  0  0  0  0  0  0  0  0
    4.4435   -6.4144    0.0000 C   0  0  0  0  0  0  0  0  0  0  0  0
    3.7290   -6.0019    0.0000 C   0  0  0  0  0  0  0  0  0  0  0  0
    5.1579   -7.6519    0.0000 C   0  0  0  0  0  0  0  0  0  0  0  0
    5.8724   -7.2394    0.0000 C   0  0  0  0  0  0  0  0  0  0  0  0
    5.8724   -6.4144    0.0000 C   0  0  0  0  0  0  0  0  0  0  0  0
    5.1579   -6.0019    0.0000 O   0  0  0  0  0  0  0  0  0  0  0  0
    6.5869   -6.0019    0.0000 C   0  0  0  0  0  0  0  0  0  0  0  0
    6.5869   -5.1769    0.0000 C   0  0  0  0  0  0  0  0  0  0  0  0
    7.3014   -6.4144    0.0000 C   0  0  0  0  0  0  0  0  0  0  0  0
    8.0158   -6.0019    0.0000 C   0  0  0  0  0  0  0  0  0  0  0  0
    8.0158   -5.1769    0.0000 C   0  0  0  0  0  0  0  0  0  0  0  0
    7.3014   -4.7644    0.0000 C   0  0  0  0  0  0  0  0  0  0  0  0
    5.1579   -8.4769    0.0000 O   0  0  0  0  0  0  0  0  0  0  0  0
    2.3001   -6.0019    0.0000 O   0  0  0  0  0  0  0  0  0  0  0  0
    8.7303   -4.7644    0.0000 O   0  0  0  0  0  0  0  0  0  0  0  0
   10.2939   -6.4581    0.0000 C   0  0  1  0  0  0  0  0  0  0  0  0
   11.0053   -6.0403    0.0000 C   0  0  1  0  0  0  0  0  0  0  0  0
   10.9992   -5.2153    0.0000 C   0  0  2  0  0  0  0  0  0  0  0  0
   10.2817   -4.8081    0.0000 C   0  0  2  0  0  0  0  0  0  0  0  0
    9.5703   -5.2259    0.0000 C   0  0  1  0  0  0  0  0  0  0  0  0
    9.5764   -6.0509    0.0000 O   0  0  0  0  0  0  0  0  0  0  0  0
   11.7228   -6.4475    0.0000 O   0  0  0  0  0  0  0  0  0  0  0  0
   10.2756   -3.9831    0.0000 O   0  0  0  0  0  0  0  0  0  0  0  0
   11.7106   -4.7975    0.0000 O   0  0  0  0  0  0  0  0  0  0  0  0
   10.3000   -7.2830    0.0000 C   0  0  0  0  0  0  0  0  0  0  0  0
  1  2  1  0  0  0  0
  2  3  2  0  0  0  0
  3  4  1  0  0  0  0
  4  5  2  0  0  0  0
  5  6  1  0  0  0  0
  6  1  2  0  0  0  0
  4  7  1  0  0  0  0
  7  8  1  0  0  0  0
  8  9  1  0  0  0  0
  9 10  1  0  0  0  0
 10  5  1  0  0  0  0
  9 11  1  0  0  0  0
 11 12  1  0  0  0  0
 11 13  2  0  0  0  0
 13 14  1  0  0  0  0
 14 15  2  0  0  0  0
 15 16  1  0  0  0  0
 16 12  2  0  0  0  0
  7 17  2  0  0  0  0
  1 18  1  0  0  0  0
 15 19  1  0  0  0  0
 20 21  1  0  0  0  0
 21 22  1  0  0  0  0
 22 23  1  0  0  0  0
 23 24  1  0  0  0  0
 24 25  1  0  0  0  0
 25 20  1  0  0  0  0
 21 26  1  1  0  0  0
 23 27  1  6  0  0  0
 22 28  1  6  0  0  0
 20 29  1  6  0  0  0
 24 19  1  1  0  0  0
M  END
>  <cdx:fragmentId>
5

$$$$
