15361.cdx
  Mrv1902 05222410182D          

 19 20  0  0  0  0            999 V2000
    7.3288   -3.7741    0.0000 C   0  0  0  0  0  0  0  0  0  0  0  0
    6.6143   -3.3616    0.0000 C   0  0  0  0  0  0  0  0  0  0  0  0
    6.6143   -2.5366    0.0000 O   0  0  0  0  0  0  0  0  0  0  0  0
    5.8998   -3.7741    0.0000 C   0  0  0  0  0  0  0  0  0  0  0  0
    5.1853   -3.3616    0.0000 C   0  0  0  0  0  0  0  0  0  0  0  0
    4.4709   -3.7741    0.0000 C   0  0  0  0  0  0  0  0  0  0  0  0
    4.4709   -4.5991    0.0000 C   0  0  0  0  0  0  0  0  0  0  0  0
    5.1853   -5.0116    0.0000 C   0  0  0  0  0  0  0  0  0  0  0  0
    5.8998   -4.5991    0.0000 C   0  0  0  0  0  0  0  0  0  0  0  0
    8.0432   -3.3616    0.0000 C   0  0  0  0  0  0  0  0  0  0  0  0
    8.7577   -3.7741    0.0000 C   0  0  0  0  0  0  0  0  0  0  0  0
    9.4722   -3.3616    0.0000 C   0  0  0  0  0  0  0  0  0  0  0  0
   10.1866   -3.7741    0.0000 C   0  0  0  0  0  0  0  0  0  0  0  0
   10.1866   -4.5991    0.0000 C   0  0  0  0  0  0  0  0  0  0  0  0
    9.4722   -5.0116    0.0000 C   0  0  0  0  0  0  0  0  0  0  0  0
    8.7577   -4.5991    0.0000 C   0  0  0  0  0  0  0  0  0  0  0  0
   10.9011   -5.0116    0.0000 O   0  0  0  0  0  0  0  0  0  0  0  0
    3.7564   -5.0116    0.0000 O   0  0  0  0  0  0  0  0  0  0  0  0
    5.1853   -2.5366    0.0000 O   0  0  0  0  0  0  0  0  0  0  0  0
  1  2  1  0  0  0  0
  2  3  2  0  0  0  0
  2  4  1  0  0  0  0
  4  5  1  0  0  0  0
  5  6  2  0  0  0  0
  6  7  1  0  0  0  0
  7  8  2  0  0  0  0
  8  9  1  0  0  0  0
  4  9  2  0  0  0  0
  1 10  2  0  0  0  0
 10 11  1  0  0  0  0
 11 12  1  0  0  0  0
 12 13  2  0  0  0  0
 13 14  1  0  0  0  0
 14 15  2  0  0  0  0
 15 16  1  0  0  0  0
 11 16  2  0  0  0  0
 14 17  1  0  0  0  0
  7 18  1  0  0  0  0
  5 19  1  0  0  0  0
M  END
>  <cdx:fragmentId>
12738

$$$$
