153845.cdx
  Mrv1902 05222410252D          

 18 19  0  0  0  0            999 V2000
    7.2090   -7.2864    0.0000 C   0  0  2  0  0  0  0  0  0  0  0  0
    6.4945   -7.6989    0.0000 C   0  0  0  0  0  0  0  0  0  0  0  0
    5.7801   -7.2864    0.0000 C   0  0  0  0  0  0  0  0  0  0  0  0
    5.7801   -6.4614    0.0000 C   0  0  0  0  0  0  0  0  0  0  0  0
    6.4945   -6.0489    0.0000 C   0  0  0  0  0  0  0  0  0  0  0  0
    7.2090   -6.4614    0.0000 C   0  0  2  0  0  0  0  0  0  0  0  0
    7.9235   -6.8739    0.0000 C   0  0  1  0  0  0  0  0  0  0  0  0
    5.0656   -7.6989    0.0000 O   0  0  0  0  0  0  0  0  0  0  0  0
    5.0656   -5.2239    0.0000 C   0  0  0  0  0  0  0  0  0  0  0  0
    5.0656   -6.0489    0.0000 C   0  0  0  0  0  0  0  0  0  0  0  0
    4.3511   -6.4614    0.0000 C   0  0  0  0  0  0  0  0  0  0  0  0
    8.7485   -6.8739    0.0000 C   0  0  0  0  0  0  0  0  0  0  0  0
    9.1610   -6.1594    0.0000 C   0  0  0  0  0  0  0  0  0  0  0  0
    9.9860   -6.1594    0.0000 C   0  0  0  0  0  0  0  0  0  0  0  0
   10.3985   -5.4449    0.0000 C   0  0  0  0  0  0  0  0  0  0  0  0
   10.3985   -6.8739    0.0000 O   0  0  0  0  0  0  0  0  0  0  0  0
    7.6215   -8.0009    0.0000 C   0  0  0  0  0  0  0  0  0  0  0  0
    7.6215   -5.7469    0.0000 H   0  0  0  0  0  0  0  0  0  0  0  0
  1  2  1  0  0  0  0
  2  3  1  0  0  0  0
  3  4  1  0  0  0  0
  4  5  1  0  0  0  0
  5  6  1  0  0  0  0
  6  7  1  0  0  0  0
  1  7  1  0  0  0  0
  1  6  1  0  0  0  0
  3  8  2  0  0  0  0
  9 10  1  0  0  0  0
 10 11  1  0  0  0  0
  4 10  2  0  0  0  0
 12 13  1  0  0  0  0
 13 14  1  0  0  0  0
 14 15  1  0  0  0  0
 14 16  2  0  0  0  0
  7 12  1  1  0  0  0
  1 17  1  1  0  0  0
  6 18  1  1  0  0  0
M  END
>  <cdx:groupId>
57

>  <cdx:fragmentId>
5

$$$$
