15394.cdx
  Mrv1902 05222410272D          

  6  5  0  0  0  0            999 V2000
    7.3109   -5.7713    0.0000 O   0  0  0  0  0  0  0  0  0  0  0  0
    8.7398   -4.9463    0.0000 C   0  0  0  0  0  0  0  0  0  0  0  0
    8.0253   -4.5338    0.0000 C   0  0  0  0  0  0  0  0  0  0  0  0
    7.3109   -4.9463    0.0000 C   0  0  0  0  0  0  0  0  0  0  0  0
    6.5964   -4.5338    0.0000 C   0  0  0  0  0  0  0  0  0  0  0  0
    5.8819   -4.9463    0.0000 C   0  0  0  0  0  0  0  0  0  0  0  0
  4  1  2  0  0  0  0
  3  2  1  0  0  0  0
  4  3  1  0  0  0  0
  5  4  1  0  0  0  0
  6  5  2  0  0  0  0
M  END
>  <cdx:fragmentId>
5

$$$$
