153940.cdx
  Mrv1902 05222410262D          

 69 77  0  0  0  0            999 V2000
   13.2531   -8.5134    0.0000 C   0  0  0  0  0  0  0  0  0  0  0  0
   13.2531   -9.3384    0.0000 C   0  0  2  0  0  0  0  0  0  0  0  0
   12.5387   -9.7509    0.0000 C   0  0  0  0  0  0  0  0  0  0  0  0
   11.8242   -9.3384    0.0000 C   0  0  1  0  0  0  0  0  0  0  0  0
   11.1097   -9.7509    0.0000 C   0  0  2  0  0  0  0  0  0  0  0  0
   11.1097  -10.5759    0.0000 C   0  0  0  0  0  0  0  0  0  0  0  0
   10.3952  -10.9884    0.0000 C   0  0  0  0  0  0  0  0  0  0  0  0
    9.6808  -10.5759    0.0000 C   0  0  1  0  0  0  0  0  0  0  0  0
    8.9663  -10.9884    0.0000 C   0  0  2  0  0  0  0  0  0  0  0  0
    8.2518  -10.5759    0.0000 C   0  0  2  0  0  0  0  0  0  0  0  0
    8.2518   -9.7509    0.0000 C   0  0  0  0  0  0  0  0  0  0  0  0
    8.9663   -9.3384    0.0000 C   0  0  0  0  0  0  0  0  0  0  0  0
    9.6808   -9.7509    0.0000 C   0  0  2  0  0  0  0  0  0  0  0  0
   10.3952   -9.3384    0.0000 C   0  0  1  0  0  0  0  0  0  0  0  0
   10.3952   -8.5134    0.0000 C   0  0  0  0  0  0  0  0  0  0  0  0
   11.1097   -8.1009    0.0000 C   0  0  0  0  0  0  0  0  0  0  0  0
   11.8242   -8.5134    0.0000 C   0  0  0  0  0  0  0  0  0  0  0  0
   12.5387   -8.1009    0.0000 C   0  0  2  0  0  0  0  0  0  0  0  0
   12.5387   -7.2759    0.0000 C   0  0  0  0  0  0  0  0  0  0  0  0
   13.2531   -6.8634    0.0000 C   0  0  0  0  0  0  0  0  0  0  0  0
   13.9676   -7.2759    0.0000 C   0  0  0  0  0  0  0  0  0  0  0  0
   13.9676   -8.1009    0.0000 C   0  0  0  0  0  0  0  0  0  0  0  0
   12.8406   -6.1489    0.0000 C   0  0  0  0  0  0  0  0  0  0  0  0
   13.6656   -6.1489    0.0000 C   0  0  0  0  0  0  0  0  0  0  0  0
    9.6808   -8.9259    0.0000 C   0  0  0  0  0  0  0  0  0  0  0  0
    8.5538  -11.7029    0.0000 C   0  0  0  0  0  0  0  0  0  0  0  0
   11.1097   -8.9259    0.0000 C   0  0  0  0  0  0  0  0  0  0  0  0
   11.8242  -10.1634    0.0000 C   0  0  0  0  0  0  0  0  0  0  0  0
    9.3788  -11.7029    0.0000 C   0  0  0  0  0  0  0  0  0  0  0  0
    8.9663  -12.4173    0.0000 O   0  0  0  0  0  0  0  0  0  0  0  0
   13.9676   -9.7509    0.0000 O   0  0  0  0  0  0  0  0  0  0  0  0
    9.6808  -11.4009    0.0000 H   0  0  0  0  0  0  0  0  0  0  0  0
   10.3952  -10.1634    0.0000 H   0  0  0  0  0  0  0  0  0  0  0  0
   12.5387   -8.9259    0.0000 H   0  0  0  0  0  0  0  0  0  0  0  0
    4.6795   -9.3384    0.0000 O   0  0  0  0  0  0  0  0  0  0  0  0
    7.5374  -10.9884    0.0000 O   0  0  0  0  0  0  0  0  0  0  0  0
    6.1084   -8.5134    0.0000 C   0  0  0  0  0  0  0  0  0  0  0  0
    6.9334  -13.2423    0.0000 O   0  0  0  0  0  0  0  0  0  0  0  0
    6.1084  -14.6713    0.0000 O   0  0  0  0  0  0  0  0  0  0  0  0
    4.4584  -14.6713    0.0000 O   0  0  0  0  0  0  0  0  0  0  0  0
    3.2209  -13.9568    0.0000 O   0  0  0  0  0  0  0  0  0  0  0  0
    3.6334  -13.2423    0.0000 C   0  0  0  0  0  0  0  0  0  0  0  0
    4.4584  -13.2423    0.0000 C   0  0  2  0  0  0  0  0  0  0  0  0
    4.8709  -13.9568    0.0000 C   0  0  2  0  0  0  0  0  0  0  0  0
    5.6959  -13.9568    0.0000 C   0  0  1  0  0  0  0  0  0  0  0  0
    6.1084  -13.2423    0.0000 C   0  0  2  0  0  0  0  0  0  0  0  0
    5.6959  -12.5279    0.0000 C   0  0  1  0  0  0  0  0  0  0  0  0
    4.8709  -12.5279    0.0000 O   0  0  0  0  0  0  0  0  0  0  0  0
    6.1084  -11.8134    0.0000 O   0  0  0  0  0  0  0  0  0  0  0  0
    6.1084   -9.3384    0.0000 C   0  0  2  0  0  0  0  0  0  0  0  0
    5.3940   -9.7509    0.0000 C   0  0  1  0  0  0  0  0  0  0  0  0
    5.3940  -10.5759    0.0000 C   0  0  1  0  0  0  0  0  0  0  0  0
    6.1084  -10.9884    0.0000 C   0  0  2  0  0  0  0  0  0  0  0  0
    6.8229  -10.5759    0.0000 C   0  0  1  0  0  0  0  0  0  0  0  0
    6.8229   -9.7509    0.0000 O   0  0  0  0  0  0  0  0  0  0  0  0
    4.6026  -11.1121    0.0000 O   0  0  0  0  0  0  0  0  0  0  0  0
    1.0551  -12.5411    0.0000 O   0  0  0  0  0  0  0  0  0  0  0  0
    1.8801  -12.5411    0.0000 C   0  0  0  0  0  0  0  0  0  0  0  0
    1.0551  -11.1121    0.0000 O   0  0  0  0  0  0  0  0  0  0  0  0
    1.8801   -9.6832    0.0000 O   0  0  0  0  0  0  0  0  0  0  0  0
    3.5301   -9.6832    0.0000 O   0  0  0  0  0  0  0  0  0  0  0  0
    2.2926  -11.8266    0.0000 C   0  0  2  0  0  0  0  0  0  0  0  0
    1.8801  -11.1121    0.0000 C   0  0  2  0  0  0  0  0  0  0  0  0
    2.2926  -10.3977    0.0000 C   0  0  1  0  0  0  0  0  0  0  0  0
    3.1176  -10.3977    0.0000 C   0  0  2  0  0  0  0  0  0  0  0  0
    3.5301  -11.1121    0.0000 C   0  0  1  0  0  0  0  0  0  0  0  0
    3.1176  -11.8266    0.0000 O   0  0  0  0  0  0  0  0  0  0  0  0
   11.8242   -7.6884    0.0000 O   0  0  0  0  0  0  0  0  0  0  0  0
   13.2531   -7.6884    0.0000 C   0  0  0  0  0  0  0  0  0  0  0  0
 66 56  1  6  0  0  0
 52 56  1  1  0  0  0
 51 35  1  1  0  0  0
 54 36  1  1  0  0  0
 50 37  1  1  0  0  0
 53 49  1  6  0  0  0
 47 49  1  1  0  0  0
 46 38  1  6  0  0  0
 45 39  1  1  0  0  0
 44 40  1  6  0  0  0
 43 42  1  1  0  0  0
 42 41  1  0  0  0  0
 48 43  1  0  0  0  0
 44 43  1  0  0  0  0
 45 44  1  0  0  0  0
 46 45  1  0  0  0  0
 47 46  1  0  0  0  0
 48 47  1  0  0  0  0
 55 50  1  0  0  0  0
 51 50  1  0  0  0  0
 52 51  1  0  0  0  0
 53 52  1  0  0  0  0
 54 53  1  0  0  0  0
 55 54  1  0  0  0  0
 62 58  1  6  0  0  0
 58 57  1  0  0  0  0
 63 59  1  1  0  0  0
 64 60  1  6  0  0  0
 65 61  1  1  0  0  0
 67 62  1  0  0  0  0
 63 62  1  0  0  0  0
 64 63  1  0  0  0  0
 65 64  1  0  0  0  0
 66 65  1  0  0  0  0
 67 66  1  0  0  0  0
  1  2  1  0  0  0  0
  2  3  1  0  0  0  0
  3  4  1  0  0  0  0
  4  5  1  0  0  0  0
  5  6  1  0  0  0  0
  6  7  1  0  0  0  0
  7  8  1  0  0  0  0
  8  9  1  0  0  0  0
  9 10  1  0  0  0  0
 10 11  1  0  0  0  0
 11 12  1  0  0  0  0
 12 13  1  0  0  0  0
 13 14  1  0  0  0  0
 14 15  1  0  0  0  0
 15 16  2  0  0  0  0
 16 17  1  0  0  0  0
 17 18  1  0  0  0  0
 18 19  1  0  0  0  0
 19 20  1  0  0  0  0
 20 21  1  0  0  0  0
 21 22  1  0  0  0  0
  1 22  1  0  0  0  0
  1 18  1  0  0  0  0
  4 17  1  0  0  0  0
  5 14  1  0  0  0  0
  8 13  1  0  0  0  0
 20 23  1  0  0  0  0
 20 24  1  0  0  0  0
 13 25  1  1  0  0  0
  9 26  1  1  0  0  0
  5 27  1  1  0  0  0
  4 28  1  6  0  0  0
 29 30  1  0  0  0  0
  9 29  1  6  0  0  0
  2 31  1  1  0  0  0
 10 36  1  1  0  0  0
  8 32  1  6  0  0  0
 14 33  1  6  0  0  0
 18 34  1  1  0  0  0
 17 68  1  0  0  0  0
  1 69  1  0  0  0  0
 69 68  1  0  0  0  0
M  END
>  <cdx:fragmentId>
69

$$$$
