154.cdx
  Mrv1902 05222410252D          

 20 22  0  0  0  0            999 V2000
    5.1266   -6.6534    0.0000 C   0  0  0  0  0  0  0  0  0  0  0  0
    5.1204   -7.4784    0.0000 C   0  0  0  0  0  0  0  0  0  0  0  0
    5.8318   -7.8962    0.0000 C   0  0  0  0  0  0  0  0  0  0  0  0
    6.5493   -7.4891    0.0000 C   0  0  0  0  0  0  0  0  0  0  0  0
    6.5555   -6.6641    0.0000 C   0  0  0  0  0  0  0  0  0  0  0  0
    5.8442   -6.2462    0.0000 C   0  0  0  0  0  0  0  0  0  0  0  0
    7.2607   -7.9069    0.0000 C   0  0  0  0  0  0  0  0  0  0  0  0
    7.9782   -7.4998    0.0000 C   0  0  0  0  0  0  0  0  0  0  0  0
    7.9844   -6.6748    0.0000 C   0  0  2  0  0  0  0  0  0  0  0  0
    7.2731   -6.2569    0.0000 O   0  0  0  0  0  0  0  0  0  0  0  0
    8.7020   -6.2676    0.0000 C   0  0  0  0  0  0  0  0  0  0  0  0
    9.4133   -6.6855    0.0000 C   0  0  0  0  0  0  0  0  0  0  0  0
   10.1309   -6.2783    0.0000 C   0  0  0  0  0  0  0  0  0  0  0  0
   10.1370   -5.4534    0.0000 C   0  0  0  0  0  0  0  0  0  0  0  0
    9.4257   -5.0355    0.0000 C   0  0  0  0  0  0  0  0  0  0  0  0
    8.7081   -5.4427    0.0000 C   0  0  0  0  0  0  0  0  0  0  0  0
    4.4153   -6.2356    0.0000 O   0  0  0  0  0  0  0  0  0  0  0  0
    5.8256   -8.7212    0.0000 O   0  0  0  0  0  0  0  0  0  0  0  0
    7.2545   -8.7319    0.0000 O   0  0  0  0  0  0  0  0  0  0  0  0
   10.8546   -5.0462    0.0000 O   0  0  0  0  0  0  0  0  0  0  0  0
  1  2  2  0  0  0  0
  2  3  1  0  0  0  0
  3  4  2  0  0  0  0
  4  5  1  0  0  0  0
  5  6  2  0  0  0  0
  6  1  1  0  0  0  0
  4  7  1  0  0  0  0
  7  8  1  0  0  0  0
  8  9  1  0  0  0  0
  9 10  1  0  0  0  0
 10  5  1  0  0  0  0
 11 12  2  0  0  0  0
 12 13  1  0  0  0  0
 13 14  2  0  0  0  0
 14 15  1  0  0  0  0
 15 16  2  0  0  0  0
 16 11  1  0  0  0  0
  1 17  1  0  0  0  0
  3 18  1  0  0  0  0
  7 19  2  0  0  0  0
  9 11  1  6  0  0  0
 14 20  1  0  0  0  0
M  END
>  <cdx:fragmentId>
5

$$$$
