15406.cdx
  Mrv1902 05222410182D          

 12 13  0  0  0  0            999 V2000
    8.0416   -6.7060    0.0000 O   0  0  0  0  0  0  0  0  0  0  0  0
    7.9674   -7.8549    0.0000 C   0  0  0  0  0  0  0  0  0  0  0  0
    7.5291   -8.4203    0.0000 C   0  0  0  0  0  0  0  0  0  0  0  0
    5.4125   -6.4885    0.0000 C   0  0  0  0  0  0  0  0  0  0  0  0
    6.8247   -8.3676    0.0000 H   0  0  0  0  0  0  0  0  0  0  0  0
    6.2727   -6.2423    0.0000 C   0  0  0  0  0  0  0  0  0  0  0  0
    5.9673   -7.0078    0.0000 C   0  0  2  0  0  0  0  0  0  0  0  0
    7.4827   -7.1153    0.0000 C   0  0  1  0  0  0  0  0  0  0  0  0
    5.2096   -7.3342    0.0000 C   0  0  0  0  0  0  0  0  0  0  0  0
    5.7216   -7.9811    0.0000 C   0  0  0  0  0  0  0  0  0  0  0  0
    6.4792   -7.6547    0.0000 C   0  0  1  0  0  0  0  0  0  0  0  0
    7.2985   -7.7521    0.0000 C   0  0  0  0  0  0  0  0  0  0  0  0
  8  1  1  6  0  0  0
 12  2  1  0  0  0  0
 12  3  1  0  0  0  0
  7  4  1  6  0  0  0
 11  5  1  1  0  0  0
  7  6  1  0  0  0  0
  9  7  1  0  0  0  0
  8  7  1  0  0  0  0
 12  8  1  0  0  0  0
 10  9  1  0  0  0  0
 11 10  1  0  0  0  0
 12 11  1  0  0  0  0
  6 11  1  0  0  0  0
M  END
>  <cdx:fragmentId>
849

$$$$
