15420.cdx
  Mrv1902 05222410272D          

 11 11  0  0  0  0            999 V2000
    6.9599  -10.5256    0.0000 C   0  0  0  0  0  0  0  0  0  0  0  0
    6.2453  -10.1132    0.0000 C   0  0  0  0  0  0  0  0  0  0  0  0
    6.2452   -9.2882    0.0000 C   0  0  0  0  0  0  0  0  0  0  0  0
    6.9597   -8.8756    0.0000 C   0  0  0  0  0  0  0  0  0  0  0  0
    7.6742   -9.2881    0.0000 C   0  0  0  0  0  0  0  0  0  0  0  0
    7.6743  -10.1131    0.0000 C   0  0  0  0  0  0  0  0  0  0  0  0
    6.9600  -11.3506    0.0000 O   0  0  0  0  0  0  0  0  0  0  0  0
    6.9596   -8.0506    0.0000 C   0  0  0  0  0  0  0  0  0  0  0  0
    7.6740   -7.6381    0.0000 C   0  0  0  0  0  0  0  0  0  0  0  0
    7.6739   -6.8131    0.0000 C   0  0  0  0  0  0  0  0  0  0  0  0
    8.3883   -6.4005    0.0000 C   0  0  0  0  0  0  0  0  0  0  0  0
  1  2  1  0  0  0  0
  2  3  2  0  0  0  0
  3  4  1  0  0  0  0
  4  5  2  0  0  0  0
  5  6  1  0  0  0  0
  1  6  2  0  0  0  0
  1  7  1  0  0  0  0
  8  9  1  0  0  0  0
  9 10  1  0  0  0  0
 10 11  1  0  0  0  0
  4  8  1  0  0  0  0
M  END
>  <cdx:fragmentId>
5

$$$$
