154373.cdx
  Mrv1902 05222410192D          

 13 13  0  0  0  0            999 V2000
    7.2636   -7.4168    0.0000 C   0  0  1  0  0  0  0  0  0  0  0  0
    7.1774   -6.5963    0.0000 C   0  0  1  0  0  0  0  0  0  0  0  0
    7.9311   -6.2608    0.0000 C   0  0  0  0  0  0  0  0  0  0  0  0
    8.4831   -6.8739    0.0000 C   0  0  0  0  0  0  0  0  0  0  0  0
    8.0706   -7.5884    0.0000 C   0  0  0  0  0  0  0  0  0  0  0  0
    6.6505   -7.9689    0.0000 O   0  0  0  0  0  0  0  0  0  0  0  0
    9.3036   -6.7876    0.0000 C   0  0  0  0  0  0  0  0  0  0  0  0
    9.7885   -7.4551    0.0000 O   0  0  0  0  0  0  0  0  0  0  0  0
    8.1026   -5.4538    0.0000 C   0  0  0  0  0  0  0  0  0  0  0  0
    8.8872   -5.1989    0.0000 O   0  0  0  0  0  0  0  0  0  0  0  0
    6.4629   -6.1838    0.0000 C   0  0  0  0  0  0  0  0  0  0  0  0
    5.7485   -6.5963    0.0000 C   0  0  0  0  0  0  0  0  0  0  0  0
    5.0340   -6.1838    0.0000 O   0  0  0  0  0  0  0  0  0  0  0  0
  1  2  1  0  0  0  0
  2  3  1  0  0  0  0
  3  4  2  0  0  0  0
  4  5  1  0  0  0  0
  1  5  1  0  0  0  0
  1  6  1  1  0  0  0
  7  8  1  0  0  0  0
  4  7  1  0  0  0  0
  9 10  1  0  0  0  0
  3  9  1  0  0  0  0
 11 12  1  0  0  0  0
 12 13  1  0  0  0  0
  2 11  1  6  0  0  0
M  END
>  <cdx:fragmentId>
1975

$$$$
