15448.cdx
  Mrv1902 05222410222D          

 29 28  0  0  0  0            999 V2000
    2.2484   -8.0503    0.0000 C   0  0  0  0  0  0  0  0  0  0  0  0
    2.9629   -8.4628    0.0000 C   0  0  0  0  0  0  0  0  0  0  0  0
    3.6773   -8.0503    0.0000 O   0  0  0  0  0  0  0  0  0  0  0  0
    4.3918   -9.2878    0.0000 O   0  0  0  0  0  0  0  0  0  0  0  0
   21.5391   -8.4628    0.0000 C   0  0  0  0  0  0  0  0  0  0  0  0
   20.8246   -8.0503    0.0000 C   0  0  0  0  0  0  0  0  0  0  0  0
   20.1102   -8.4628    0.0000 C   0  0  0  0  0  0  0  0  0  0  0  0
   19.3957   -8.0503    0.0000 C   0  0  0  0  0  0  0  0  0  0  0  0
   18.6812   -8.4628    0.0000 C   0  0  0  0  0  0  0  0  0  0  0  0
   17.9668   -8.0503    0.0000 C   0  0  0  0  0  0  0  0  0  0  0  0
   17.2523   -8.4628    0.0000 C   0  0  0  0  0  0  0  0  0  0  0  0
   16.5378   -8.0503    0.0000 C   0  0  0  0  0  0  0  0  0  0  0  0
   15.8233   -8.4628    0.0000 C   0  0  0  0  0  0  0  0  0  0  0  0
   15.1089   -8.0503    0.0000 C   0  0  0  0  0  0  0  0  0  0  0  0
   14.3944   -8.4628    0.0000 C   0  0  0  0  0  0  0  0  0  0  0  0
   13.6799   -8.0503    0.0000 C   0  0  0  0  0  0  0  0  0  0  0  0
   12.9655   -8.4628    0.0000 C   0  0  0  0  0  0  0  0  0  0  0  0
   12.2510   -8.0503    0.0000 C   0  0  0  0  0  0  0  0  0  0  0  0
   11.5365   -8.4628    0.0000 C   0  0  0  0  0  0  0  0  0  0  0  0
   10.8220   -8.0503    0.0000 C   0  0  0  0  0  0  0  0  0  0  0  0
   10.1076   -8.4628    0.0000 C   0  0  0  0  0  0  0  0  0  0  0  0
    9.3931   -8.0503    0.0000 C   0  0  0  0  0  0  0  0  0  0  0  0
    8.6786   -8.4628    0.0000 C   0  0  0  0  0  0  0  0  0  0  0  0
    7.9642   -8.0503    0.0000 C   0  0  0  0  0  0  0  0  0  0  0  0
    7.2497   -8.4628    0.0000 C   0  0  0  0  0  0  0  0  0  0  0  0
    6.5352   -8.0503    0.0000 C   0  0  0  0  0  0  0  0  0  0  0  0
    5.8208   -8.4628    0.0000 C   0  0  0  0  0  0  0  0  0  0  0  0
    5.1063   -8.0503    0.0000 C   0  0  0  0  0  0  0  0  0  0  0  0
    4.3918   -8.4628    0.0000 C   0  0  0  0  0  0  0  0  0  0  0  0
  3  2  1  0  0  0  0
  2  1  1  0  0  0  0
 29  3  1  0  0  0  0
 29  4  2  0  0  0  0
  6  5  1  0  0  0  0
  7  6  1  0  0  0  0
  8  7  1  0  0  0  0
  9  8  1  0  0  0  0
 10  9  1  0  0  0  0
 11 10  1  0  0  0  0
 12 11  1  0  0  0  0
 13 12  1  0  0  0  0
 14 13  1  0  0  0  0
 15 14  1  0  0  0  0
 16 15  1  0  0  0  0
 17 16  1  0  0  0  0
 18 17  1  0  0  0  0
 19 18  1  0  0  0  0
 20 19  1  0  0  0  0
 21 20  1  0  0  0  0
 22 21  1  0  0  0  0
 23 22  1  0  0  0  0
 24 23  1  0  0  0  0
 25 24  1  0  0  0  0
 26 25  1  0  0  0  0
 27 26  1  0  0  0  0
 28 27  1  0  0  0  0
 29 28  1  0  0  0  0
M  END
>  <cdx:fragmentId>
18080

$$$$
