1544.cdx
  Mrv1902 05222410212D          

 22 24  0  0  0  0            999 V2000
    3.6539   -7.3425    0.0000 C   0  0  0  0  0  0  0  0  0  0  0  0
    3.6539   -8.1675    0.0000 C   0  0  0  0  0  0  0  0  0  0  0  0
    4.3684   -8.5800    0.0000 C   0  0  0  0  0  0  0  0  0  0  0  0
    5.0828   -8.1675    0.0000 C   0  0  0  0  0  0  0  0  0  0  0  0
    5.0828   -7.3425    0.0000 C   0  0  0  0  0  0  0  0  0  0  0  0
    4.3684   -6.9300    0.0000 C   0  0  0  0  0  0  0  0  0  0  0  0
    5.7973   -8.5800    0.0000 C   0  0  0  0  0  0  0  0  0  0  0  0
    6.5118   -8.1675    0.0000 C   0  0  0  0  0  0  0  0  0  0  0  0
    6.5118   -7.3425    0.0000 C   0  0  2  0  0  0  0  0  0  0  0  0
    5.7973   -6.9300    0.0000 O   0  0  0  0  0  0  0  0  0  0  0  0
    7.2263   -6.9300    0.0000 C   0  0  0  0  0  0  0  0  0  0  0  0
    7.2263   -6.1050    0.0000 C   0  0  0  0  0  0  0  0  0  0  0  0
    7.9407   -7.3425    0.0000 C   0  0  0  0  0  0  0  0  0  0  0  0
    8.6552   -6.9300    0.0000 C   0  0  0  0  0  0  0  0  0  0  0  0
    8.6552   -6.1050    0.0000 C   0  0  0  0  0  0  0  0  0  0  0  0
    7.9407   -5.6925    0.0000 C   0  0  0  0  0  0  0  0  0  0  0  0
    6.5118   -5.6925    0.0000 O   0  0  0  0  0  0  0  0  0  0  0  0
    7.9407   -8.1675    0.0000 O   0  0  0  0  0  0  0  0  0  0  0  0
    5.7973   -9.4050    0.0000 O   0  0  0  0  0  0  0  0  0  0  0  0
    4.3684   -9.4050    0.0000 O   0  0  0  0  0  0  0  0  0  0  0  0
    2.9394   -6.9300    0.0000 O   0  0  0  0  0  0  0  0  0  0  0  0
    6.5118   -6.5175    0.0000 H   0  0  0  0  0  0  0  0  0  0  0  0
  1  2  2  0  0  0  0
  2  3  1  0  0  0  0
  3  4  2  0  0  0  0
  4  5  1  0  0  0  0
  5  6  2  0  0  0  0
  6  1  1  0  0  0  0
  4  7  1  0  0  0  0
  7  8  1  0  0  0  0
  8  9  1  0  0  0  0
  9 10  1  0  0  0  0
 10  5  1  0  0  0  0
  9 11  1  0  0  0  0
 11 12  1  0  0  0  0
 11 13  2  0  0  0  0
 13 14  1  0  0  0  0
 14 15  2  0  0  0  0
 15 16  1  0  0  0  0
 16 12  2  0  0  0  0
 12 17  1  0  0  0  0
 13 18  1  0  0  0  0
  7 19  2  0  0  0  0
  3 20  1  0  0  0  0
  1 21  1  0  0  0  0
  9 22  1  1  0  0  0
M  END
>  <cdx:fragmentId>
5

$$$$
