15450.cdx
  Mrv1902 05222410232D          

  9  8  0  0  0  0            999 V2000
    6.5619   -3.3746    0.0000 C   0  0  0  0  0  0  0  0  0  0  0  0
    5.8475   -2.9621    0.0000 C   0  0  0  0  0  0  0  0  0  0  0  0
    5.1330   -3.3746    0.0000 C   0  0  0  0  0  0  0  0  0  0  0  0
    4.4185   -2.9621    0.0000 C   0  0  0  0  0  0  0  0  0  0  0  0
    3.7041   -3.3746    0.0000 C   0  0  0  0  0  0  0  0  0  0  0  0
    2.9896   -2.9621    0.0000 C   0  0  0  0  0  0  0  0  0  0  0  0
    2.2751   -3.3746    0.0000 C   0  0  0  0  0  0  0  0  0  0  0  0
    7.2764   -2.9621    0.0000 O   0  0  0  0  0  0  0  0  0  0  0  0
    2.9896   -2.1371    0.0000 C   0  0  0  0  0  0  0  0  0  0  0  0
  1  2  1  0  0  0  0
  2  3  1  0  0  0  0
  3  4  1  0  0  0  0
  4  5  1  0  0  0  0
  5  6  1  0  0  0  0
  6  7  1  0  0  0  0
  1  8  1  0  0  0  0
  6  9  1  0  0  0  0
M  END
>  <cdx:groupId>
28

>  <cdx:fragmentId>
5

$$$$
