14154587.cdx
  Mrv1902 05222410262D          

 15 16  0  0  0  0            999 V2000
    9.2056  -13.9799    0.0000 C   0  0  0  0  0  0  0  0  0  0  0  0
    8.4911  -13.5674    0.0000 C   0  0  0  0  0  0  0  0  0  0  0  0
    9.2056  -14.8049    0.0000 O   0  0  0  0  0  0  0  0  0  0  0  0
    9.9200  -13.5674    0.0000 O   0  0  0  0  0  0  0  0  0  0  0  0
    7.7766  -13.9799    0.0000 C   0  0  0  0  0  0  0  0  0  0  0  0
    7.7766  -14.8049    0.0000 C   0  0  0  0  0  0  0  0  0  0  0  0
    7.0622  -15.2174    0.0000 C   0  0  0  0  0  0  0  0  0  0  0  0
    6.3477  -14.8049    0.0000 C   0  0  0  0  0  0  0  0  0  0  0  0
    6.3477  -13.9799    0.0000 C   0  0  0  0  0  0  0  0  0  0  0  0
    7.0622  -13.5674    0.0000 C   0  0  0  0  0  0  0  0  0  0  0  0
    5.6332  -15.2174    0.0000 N   0  0  0  0  0  0  0  0  0  0  0  0
    5.5470  -16.0379    0.0000 C   0  0  0  0  0  0  0  0  0  0  0  0
    4.7400  -16.2094    0.0000 C   0  0  0  0  0  0  0  0  0  0  0  0
    4.3275  -15.4949    0.0000 C   0  0  0  0  0  0  0  0  0  0  0  0
    4.8795  -14.8819    0.0000 C   0  0  0  0  0  0  0  0  0  0  0  0
  1  2  1  0  0  0  0
  1  3  2  0  0  0  0
  1  4  1  0  0  0  0
  5  6  1  0  0  0  0
  6  7  2  0  0  0  0
  7  8  1  0  0  0  0
  8  9  2  0  0  0  0
  9 10  1  0  0  0  0
  5 10  2  0  0  0  0
 11 12  1  0  0  0  0
 12 13  1  0  0  0  0
 13 14  1  0  0  0  0
 14 15  1  0  0  0  0
 11 15  1  0  0  0  0
  8 11  1  0  0  0  0
  2  5  1  0  0  0  0
M  END
>  <cdx:groupId>
102381

>  <cdx:fragmentId>
102346

$$$$
