15456.cdx
  Mrv1902 05222410252D          

 37 39  0  0  0  0            999 V2000
    3.9220   -4.6200    0.0000 C   0  0  0  0  0  0  0  0  0  0  0  0
    3.9220   -5.4450    0.0000 C   0  0  0  0  0  0  0  0  0  0  0  0
    4.6365   -5.8575    0.0000 C   0  0  0  0  0  0  0  0  0  0  0  0
    5.3510   -5.4450    0.0000 C   0  0  0  0  0  0  0  0  0  0  0  0
    5.3510   -4.6200    0.0000 C   0  0  0  0  0  0  0  0  0  0  0  0
    4.6365   -4.2075    0.0000 C   0  0  0  0  0  0  0  0  0  0  0  0
    6.0654   -6.6825    0.0000 C   0  0  0  0  0  0  0  0  0  0  0  0
    6.0654   -5.8575    0.0000 C   0  0  0  0  0  0  0  0  0  0  0  0
    6.7799   -7.9200    0.0000 O   0  0  0  0  0  0  0  0  0  0  0  0
    6.7799   -7.0950    0.0000 C   0  0  0  0  0  0  0  0  0  0  0  0
    7.4944   -9.1575    0.0000 C   0  0  0  0  0  0  0  0  0  0  0  0
    7.4944   -8.3325    0.0000 C   0  0  2  0  0  0  0  0  0  0  0  0
    8.2089  -10.3950    0.0000 C   0  0  0  0  0  0  0  0  0  0  0  0
    8.2089   -9.5700    0.0000 C   0  0  0  0  0  0  0  0  0  0  0  0
    7.4944  -11.6325    0.0000 O   0  0  0  0  0  0  0  0  0  0  0  0
    8.2089  -12.0450    0.0000 C   0  0  2  0  0  0  0  0  0  0  0  0
    8.9233  -11.6325    0.0000 O   0  0  0  0  0  0  0  0  0  0  0  0
    8.9233  -10.8075    0.0000 C   0  0  0  0  0  0  0  0  0  0  0  0
    9.6378  -10.3950    0.0000 C   0  0  0  0  0  0  0  0  0  0  0  0
    9.6378   -9.5700    0.0000 C   0  0  0  0  0  0  0  0  0  0  0  0
    8.9233   -9.1575    0.0000 C   0  0  0  0  0  0  0  0  0  0  0  0
    6.7799  -12.0450    0.0000 C   0  0  2  0  0  0  0  0  0  0  0  0
    6.7799  -12.8700    0.0000 C   0  0  1  0  0  0  0  0  0  0  0  0
    7.4944  -13.2825    0.0000 C   0  0  2  0  0  0  0  0  0  0  0  0
    8.2089  -12.8700    0.0000 C   0  0  2  0  0  0  0  0  0  0  0  0
    6.0654  -11.6325    0.0000 C   0  0  0  0  0  0  0  0  0  0  0  0
    5.3510  -12.0450    0.0000 O   0  0  0  0  0  0  0  0  0  0  0  0
    6.0654  -13.2825    0.0000 O   0  0  0  0  0  0  0  0  0  0  0  0
    4.6365   -3.3825    0.0000 O   0  0  0  0  0  0  0  0  0  0  0  0
    3.2076   -4.2075    0.0000 O   0  0  0  0  0  0  0  0  0  0  0  0
    7.4944   -6.6825    0.0000 O   0  0  0  0  0  0  0  0  0  0  0  0
    8.2089   -7.9200    0.0000 C   0  0  0  0  0  0  0  0  0  0  0  0
    8.2089   -7.0950    0.0000 O   0  0  0  0  0  0  0  0  0  0  0  0
    9.0057   -8.1335    0.0000 O   0  0  0  0  0  0  0  0  0  0  0  0
   10.3523  -10.8075    0.0000 O   0  0  0  0  0  0  0  0  0  0  0  0
    8.9233  -13.2825    0.0000 O   0  0  0  0  0  0  0  0  0  0  0  0
    7.4944  -14.1075    0.0000 O   0  0  0  0  0  0  0  0  0  0  0  0
  1  2  1  0  0  0  0
  2  3  2  0  0  0  0
  3  4  1  0  0  0  0
  4  5  2  0  0  0  0
  5  6  1  0  0  0  0
  6  1  2  0  0  0  0
  7  8  2  0  0  0  0
  8  4  1  0  0  0  0
  9 10  1  0  0  0  0
 10  7  1  0  0  0  0
 11 12  1  0  0  0  0
 12  9  1  1  0  0  0
 13 14  2  0  0  0  0
 14 11  1  0  0  0  0
 15 16  1  0  0  0  0
 16 17  1  6  0  0  0
 17 18  1  0  0  0  0
 18 13  1  0  0  0  0
 18 19  2  0  0  0  0
 19 20  1  0  0  0  0
 20 21  2  0  0  0  0
 21 14  1  0  0  0  0
 15 22  1  0  0  0  0
 22 23  1  0  0  0  0
 23 24  1  0  0  0  0
 24 25  1  0  0  0  0
 25 16  1  0  0  0  0
 22 26  1  6  0  0  0
 26 27  1  0  0  0  0
 23 28  1  1  0  0  0
  6 29  1  0  0  0  0
  1 30  1  0  0  0  0
 10 31  2  0  0  0  0
 12 32  1  0  0  0  0
 32 33  1  0  0  0  0
 32 34  2  0  0  0  0
 19 35  1  0  0  0  0
 25 36  1  1  0  0  0
 24 37  1  6  0  0  0
M  END
>  <cdx:fragmentId>
5

$$$$
