1545.cdx
  Mrv1902 05222410212D          

 41 45  0  0  0  0            999 V2000
   12.4330   -5.3613    0.0000 O   0  0  0  0  0  0  0  0  0  0  0  0
    8.8693   -9.0821    0.0000 O   0  0  0  0  0  0  0  0  0  0  0  0
    7.4404   -9.0854    0.0000 O   0  0  0  0  0  0  0  0  0  0  0  0
    6.0057   -6.6137    0.0000 O   0  0  0  0  0  0  0  0  0  0  0  0
   10.2906   -5.7788    0.0000 C   0  0  0  0  0  0  0  0  0  0  0  0
   11.0041   -5.3646    0.0000 C   0  0  0  0  0  0  0  0  0  0  0  0
   11.7195   -5.7754    0.0000 C   0  0  0  0  0  0  0  0  0  0  0  0
   11.7214   -6.6004    0.0000 C   0  0  0  0  0  0  0  0  0  0  0  0
   11.0079   -7.0146    0.0000 C   0  0  0  0  0  0  0  0  0  0  0  0
   10.2925   -6.6038    0.0000 C   0  0  0  0  0  0  0  0  0  0  0  0
    8.8636   -6.6071    0.0000 O   0  0  0  0  0  0  0  0  0  0  0  0
    9.5790   -7.0179    0.0000 C   0  0  1  0  0  0  0  0  0  0  0  0
    9.5809   -7.8429    0.0000 C   0  0  0  0  0  0  0  0  0  0  0  0
    8.8674   -8.2571    0.0000 C   0  0  0  0  0  0  0  0  0  0  0  0
    7.4346   -6.6104    0.0000 C   0  0  0  0  0  0  0  0  0  0  0  0
    8.1501   -7.0213    0.0000 C   0  0  0  0  0  0  0  0  0  0  0  0
    8.1520   -7.8463    0.0000 C   0  0  0  0  0  0  0  0  0  0  0  0
    7.4385   -8.2604    0.0000 C   0  0  0  0  0  0  0  0  0  0  0  0
    6.7230   -7.8496    0.0000 C   0  0  0  0  0  0  0  0  0  0  0  0
    6.7211   -7.0246    0.0000 C   0  0  0  0  0  0  0  0  0  0  0  0
    6.0104   -5.7888    0.0000 C   0  0  2  0  0  0  0  0  0  0  0  0
    6.7272   -5.3803    0.0000 O   0  0  0  0  0  0  0  0  0  0  0  0
    6.7319   -4.5554    0.0000 C   0  0  1  0  0  0  0  0  0  0  0  0
    6.0198   -4.1388    0.0000 C   0  0  2  0  0  0  0  0  0  0  0  0
    5.3030   -4.5472    0.0000 C   0  0  1  0  0  0  0  0  0  0  0  0
    5.2983   -5.3722    0.0000 C   0  0  1  0  0  0  0  0  0  0  0  0
    7.4487   -4.1469    0.0000 C   0  0  0  0  0  0  0  0  0  0  0  0
    4.5909   -4.1306    0.0000 O   0  0  0  0  0  0  0  0  0  0  0  0
    6.0245   -3.3138    0.0000 O   0  0  0  0  0  0  0  0  0  0  0  0
    4.5815   -5.7806    0.0000 O   0  0  0  0  0  0  0  0  0  0  0  0
    3.8657   -5.3704    0.0000 C   0  0  1  0  0  0  0  0  0  0  0  0
    3.1525   -5.7852    0.0000 C   0  0  1  0  0  0  0  0  0  0  0  0
    2.4367   -5.3750    0.0000 C   0  0  1  0  0  0  0  0  0  0  0  0
    2.4341   -4.5500    0.0000 C   0  0  2  0  0  0  0  0  0  0  0  0
    3.1472   -4.1352    0.0000 C   0  0  1  0  0  0  0  0  0  0  0  0
    3.8630   -4.5454    0.0000 O   0  0  0  0  0  0  0  0  0  0  0  0
    3.1446   -3.3102    0.0000 C   0  0  0  0  0  0  0  0  0  0  0  0
    3.1552   -6.6102    0.0000 O   0  0  0  0  0  0  0  0  0  0  0  0
    1.7236   -5.7898    0.0000 O   0  0  0  0  0  0  0  0  0  0  0  0
    1.7183   -4.1398    0.0000 O   0  0  0  0  0  0  0  0  0  0  0  0
    7.4534   -3.3219    0.0000 O   0  0  0  0  0  0  0  0  0  0  0  0
  7  1  1  0  0  0  0
 12 10  1  6  0  0  0
 14  2  2  0  0  0  0
 18  3  1  0  0  0  0
 20  4  1  0  0  0  0
  5 10  1  0  0  0  0
  6  5  2  0  0  0  0
  7  6  1  0  0  0  0
  8  7  2  0  0  0  0
  9  8  1  0  0  0  0
 10  9  2  0  0  0  0
 11 16  1  0  0  0  0
 12 11  1  0  0  0  0
 13 12  1  0  0  0  0
 14 13  1  0  0  0  0
 17 14  1  0  0  0  0
 15 20  1  0  0  0  0
 16 15  2  0  0  0  0
 17 16  1  0  0  0  0
 18 17  2  0  0  0  0
 19 18  1  0  0  0  0
 20 19  2  0  0  0  0
 21  4  1  1  0  0  0
 21 22  1  0  0  0  0
 22 23  1  0  0  0  0
 23 24  1  0  0  0  0
 24 25  1  0  0  0  0
 25 26  1  0  0  0  0
 26 21  1  0  0  0  0
 23 27  1  1  0  0  0
 25 28  1  1  0  0  0
 24 29  1  6  0  0  0
 26 30  1  6  0  0  0
 31 30  1  1  0  0  0
 31 32  1  0  0  0  0
 32 33  1  0  0  0  0
 33 34  1  0  0  0  0
 34 35  1  0  0  0  0
 35 36  1  0  0  0  0
 36 31  1  0  0  0  0
 35 37  1  6  0  0  0
 32 38  1  6  0  0  0
 33 39  1  6  0  0  0
 34 40  1  1  0  0  0
 27 41  1  0  0  0  0
M  END
>  <cdx:fragmentId>
5

$$$$
