15454.cdx
  Mrv1902 05222410252D          

 26 27  0  0  0  0            999 V2000
    8.1532   -5.6403    0.0000 O   0  0  0  0  0  0  0  0  0  0  0  0
    7.4388   -5.2278    0.0000 C   0  0  0  0  0  0  0  0  0  0  0  0
    6.7243   -5.6403    0.0000 C   0  0  0  0  0  0  0  0  0  0  0  0
    6.0098   -5.2278    0.0000 C   0  0  0  0  0  0  0  0  0  0  0  0
    7.4388   -4.4028    0.0000 O   0  0  0  0  0  0  0  0  0  0  0  0
    5.2953   -5.6403    0.0000 C   0  0  0  0  0  0  0  0  0  0  0  0
    4.5809   -5.2278    0.0000 C   0  0  0  0  0  0  0  0  0  0  0  0
    3.8664   -5.6403    0.0000 C   0  0  0  0  0  0  0  0  0  0  0  0
    3.8664   -6.4653    0.0000 C   0  0  0  0  0  0  0  0  0  0  0  0
    4.5809   -6.8778    0.0000 C   0  0  0  0  0  0  0  0  0  0  0  0
    5.2953   -6.4653    0.0000 C   0  0  0  0  0  0  0  0  0  0  0  0
    3.1520   -6.8778    0.0000 O   0  0  0  0  0  0  0  0  0  0  0  0
    3.1520   -5.2278    0.0000 O   0  0  0  0  0  0  0  0  0  0  0  0
   12.4400   -3.9901    0.0000 O   0  0  0  0  0  0  0  0  0  0  0  0
   11.0111   -5.6402    0.0000 C   0  0  0  0  0  0  0  0  0  0  0  0
   11.7256   -5.2277    0.0000 C   0  0  0  0  0  0  0  0  0  0  0  0
   11.7255   -4.4026    0.0000 C   0  0  0  0  0  0  0  0  0  0  0  0
   11.0111   -3.9902    0.0000 C   0  0  0  0  0  0  0  0  0  0  0  0
   10.2966   -4.4027    0.0000 C   0  0  0  0  0  0  0  0  0  0  0  0
   10.2966   -5.2277    0.0000 C   0  0  0  0  0  0  0  0  0  0  0  0
    9.5821   -3.9903    0.0000 O   0  0  0  0  0  0  0  0  0  0  0  0
    8.1532   -3.9903    0.0000 O   0  0  0  0  0  0  0  0  0  0  0  0
    9.5822   -5.6402    0.0000 C   0  0  0  0  0  0  0  0  0  0  0  0
    8.8677   -5.2278    0.0000 C   0  0  2  0  0  0  0  0  0  0  0  0
    8.8677   -4.4028    0.0000 C   0  0  0  0  0  0  0  0  0  0  0  0
   12.4401   -5.6402    0.0000 O   0  0  0  0  0  0  0  0  0  0  0  0
 23 20  1  0  0  0  0
 17 14  1  0  0  0  0
 20 15  2  0  0  0  0
 16 15  1  0  0  0  0
 17 16  2  0  0  0  0
 18 17  1  0  0  0  0
 19 18  2  0  0  0  0
 20 19  1  0  0  0  0
 25 21  1  0  0  0  0
 25 22  2  0  0  0  0
 24 23  1  0  0  0  0
 25 24  1  0  0  0  0
  2  3  1  0  0  0  0
  3  4  2  0  0  0  0
  2  5  2  0  0  0  0
  6  7  1  0  0  0  0
  7  8  2  0  0  0  0
  8  9  1  0  0  0  0
  9 10  2  0  0  0  0
 10 11  1  0  0  0  0
  6 11  2  0  0  0  0
  9 12  1  0  0  0  0
  8 13  1  0  0  0  0
  4  6  1  0  0  0  0
  1  2  1  0  0  0  0
 24  1  1  1  0  0  0
 16 26  1  0  0  0  0
M  END
>  <cdx:fragmentId>
2999

$$$$
