15460.cdx
  Mrv1902 05222410222D          

 37 39  0  0  0  0            999 V2000
    3.9220   -4.6200    0.0000 C   0  0  0  0  0  0  0  0  0  0  0  0
    3.9220   -5.4450    0.0000 C   0  0  0  0  0  0  0  0  0  0  0  0
    4.6365   -5.8575    0.0000 C   0  0  0  0  0  0  0  0  0  0  0  0
    5.3510   -5.4450    0.0000 C   0  0  0  0  0  0  0  0  0  0  0  0
    5.3510   -4.6200    0.0000 C   0  0  0  0  0  0  0  0  0  0  0  0
    4.6365   -4.2075    0.0000 C   0  0  0  0  0  0  0  0  0  0  0  0
    6.0654   -6.6825    0.0000 C   0  0  0  0  0  0  0  0  0  0  0  0
    6.0654   -5.8575    0.0000 C   0  0  0  0  0  0  0  0  0  0  0  0
    6.7799   -7.9200    0.0000 O   0  0  0  0  0  0  0  0  0  0  0  0
    6.7799   -7.0950    0.0000 C   0  0  0  0  0  0  0  0  0  0  0  0
    7.4944   -9.1575    0.0000 C   0  0  0  0  0  0  0  0  0  0  0  0
    7.4944   -8.3325    0.0000 C   0  0  2  0  0  0  0  0  0  0  0  0
    8.2089  -10.3950    0.0000 C   0  0  0  0  0  0  0  0  0  0  0  0
    8.2089   -9.5700    0.0000 C   0  0  0  0  0  0  0  0  0  0  0  0
    9.7566  -12.1240    0.0000 C   0  0  1  0  0  0  0  0  0  0  0  0
   10.4709  -11.7112    0.0000 C   0  0  2  0  0  0  0  0  0  0  0  0
   10.4706  -10.8862    0.0000 O   0  0  0  0  0  0  0  0  0  0  0  0
    8.9233  -10.8075    0.0000 C   0  0  0  0  0  0  0  0  0  0  0  0
    9.6378  -10.3950    0.0000 C   0  0  0  0  0  0  0  0  0  0  0  0
    9.6378   -9.5700    0.0000 C   0  0  0  0  0  0  0  0  0  0  0  0
    8.9233   -9.1575    0.0000 C   0  0  0  0  0  0  0  0  0  0  0  0
    9.7569  -12.9490    0.0000 C   0  0  2  0  0  0  0  0  0  0  0  0
   10.4715  -13.3612    0.0000 C   0  0  1  0  0  0  0  0  0  0  0  0
   11.1859  -12.9485    0.0000 C   0  0  2  0  0  0  0  0  0  0  0  0
   11.1855  -12.1235    0.0000 O   0  0  0  0  0  0  0  0  0  0  0  0
    9.0426  -13.3618    0.0000 O   0  0  0  0  0  0  0  0  0  0  0  0
   10.4719  -14.1862    0.0000 O   0  0  0  0  0  0  0  0  0  0  0  0
    4.6365   -3.3825    0.0000 O   0  0  0  0  0  0  0  0  0  0  0  0
    3.2076   -4.2075    0.0000 O   0  0  0  0  0  0  0  0  0  0  0  0
    7.4944   -6.6825    0.0000 O   0  0  0  0  0  0  0  0  0  0  0  0
    8.2089   -7.9200    0.0000 C   0  0  0  0  0  0  0  0  0  0  0  0
    8.2089   -7.0950    0.0000 O   0  0  0  0  0  0  0  0  0  0  0  0
    9.0057   -8.1335    0.0000 O   0  0  0  0  0  0  0  0  0  0  0  0
   11.9005  -13.3607    0.0000 C   0  0  0  0  0  0  0  0  0  0  0  0
   10.3523   -9.1575    0.0000 O   0  0  0  0  0  0  0  0  0  0  0  0
   12.6150  -12.9482    0.0000 O   0  0  0  0  0  0  0  0  0  0  0  0
    9.0421  -11.7115    0.0000 O   0  0  0  0  0  0  0  0  0  0  0  0
  1  2  1  0  0  0  0
  2  3  2  0  0  0  0
  3  4  1  0  0  0  0
  4  5  2  0  0  0  0
  5  6  1  0  0  0  0
  6  1  2  0  0  0  0
  7  8  2  0  0  0  0
  8  4  1  0  0  0  0
  9 10  1  0  0  0  0
 10  7  1  0  0  0  0
 11 12  1  0  0  0  0
 12  9  1  1  0  0  0
 13 14  2  0  0  0  0
 14 11  1  0  0  0  0
 15 16  1  0  0  0  0
 16 17  1  6  0  0  0
 18 13  1  0  0  0  0
 18 19  2  0  0  0  0
 19 20  1  0  0  0  0
 20 21  2  0  0  0  0
 21 14  1  0  0  0  0
 15 22  1  0  0  0  0
 22 23  1  0  0  0  0
 23 24  1  0  0  0  0
 24 25  1  0  0  0  0
 25 16  1  0  0  0  0
 22 26  1  6  0  0  0
 23 27  1  1  0  0  0
  6 28  1  0  0  0  0
  1 29  1  0  0  0  0
 10 30  2  0  0  0  0
 12 31  1  0  0  0  0
 31 32  1  0  0  0  0
 31 33  2  0  0  0  0
 24 34  1  6  0  0  0
 20 35  1  0  0  0  0
 19 17  1  0  0  0  0
 34 36  1  0  0  0  0
 15 37  1  1  0  0  0
M  END
>  <cdx:fragmentId>
5

$$$$
