15466.cdx
  Mrv1902 05222410212D          

 45 48  0  0  0  0            999 V2000
    3.4350   -9.2664    0.0000 O   0  0  0  0  0  0  0  0  0  0  0  0
    2.0061   -8.4414    0.0000 O   0  0  0  0  0  0  0  0  0  0  0  0
    3.4350   -5.9664    0.0000 C   0  0  0  0  0  0  0  0  0  0  0  0
    2.0061   -6.7914    0.0000 O   0  0  0  0  0  0  0  0  0  0  0  0
    3.4350   -8.4414    0.0000 C   0  0  2  0  0  0  0  0  0  0  0  0
    2.7206   -8.0289    0.0000 C   0  0  1  0  0  0  0  0  0  0  0  0
    2.7206   -7.2039    0.0000 C   0  0  2  0  0  0  0  0  0  0  0  0
    3.4350   -6.7914    0.0000 C   0  0  1  0  0  0  0  0  0  0  0  0
    4.1495   -7.2039    0.0000 O   0  0  0  0  0  0  0  0  0  0  0  0
    4.1495   -8.0289    0.0000 C   0  0  1  0  0  0  0  0  0  0  0  0
    4.8640   -8.4414    0.0000 O   0  0  0  0  0  0  0  0  0  0  0  0
    9.8653   -7.2039    0.0000 O   0  0  0  0  0  0  0  0  0  0  0  0
   12.7231   -9.6789    0.0000 O   0  0  0  0  0  0  0  0  0  0  0  0
   12.7231   -8.0289    0.0000 O   0  0  0  0  0  0  0  0  0  0  0  0
    7.0074  -10.5039    0.0000 O   0  0  0  0  0  0  0  0  0  0  0  0
    5.5784   -8.0289    0.0000 C   0  0  0  0  0  0  0  0  0  0  0  0
    5.5784   -9.6789    0.0000 O   0  0  0  0  0  0  0  0  0  0  0  0
    7.0074   -8.0289    0.0000 O   0  0  0  0  0  0  0  0  0  0  0  0
    6.2929   -8.4414    0.0000 C   0  0  1  0  0  0  0  0  0  0  0  0
    6.2929   -9.2664    0.0000 C   0  0  2  0  0  0  0  0  0  0  0  0
    7.0074   -9.6789    0.0000 C   0  0  1  0  0  0  0  0  0  0  0  0
    8.4363   -8.0289    0.0000 O   0  0  0  0  0  0  0  0  0  0  0  0
    7.7219   -8.4414    0.0000 C   0  0  1  0  0  0  0  0  0  0  0  0
    7.7219   -9.2664    0.0000 C   0  0  2  0  0  0  0  0  0  0  0  0
    8.4363   -9.6789    0.0000 O   0  0  0  0  0  0  0  0  0  0  0  0
    9.8653   -8.0289    0.0000 C   0  0  1  0  0  0  0  0  0  0  0  0
    9.1508   -8.4414    0.0000 C   0  0  0  0  0  0  0  0  0  0  0  0
   11.2942   -8.0289    0.0000 C   0  0  0  0  0  0  0  0  0  0  0  0
   10.5797   -8.4414    0.0000 C   0  0  0  0  0  0  0  0  0  0  0  0
   10.5797   -9.2664    0.0000 C   0  0  0  0  0  0  0  0  0  0  0  0
   11.2942   -9.6789    0.0000 C   0  0  0  0  0  0  0  0  0  0  0  0
   12.0087   -9.2664    0.0000 C   0  0  0  0  0  0  0  0  0  0  0  0
   12.0087   -8.4414    0.0000 C   0  0  0  0  0  0  0  0  0  0  0  0
    5.5784  -10.5039    0.0000 C   0  0  0  0  0  0  0  0  0  0  0  0
    4.8640  -10.9164    0.0000 C   0  0  0  0  0  0  0  0  0  0  0  0
    6.2929  -10.9164    0.0000 O   0  0  0  0  0  0  0  0  0  0  0  0
    4.8640  -11.7414    0.0000 C   0  0  0  0  0  0  0  0  0  0  0  0
    4.1495  -12.1539    0.0000 C   0  0  0  0  0  0  0  0  0  0  0  0
    3.4350  -11.7414    0.0000 C   0  0  0  0  0  0  0  0  0  0  0  0
    2.7206  -12.1539    0.0000 C   0  0  0  0  0  0  0  0  0  0  0  0
    2.7206  -12.9789    0.0000 C   0  0  0  0  0  0  0  0  0  0  0  0
    3.4350  -13.3914    0.0000 C   0  0  0  0  0  0  0  0  0  0  0  0
    4.1495  -12.9789    0.0000 C   0  0  0  0  0  0  0  0  0  0  0  0
    2.0061  -13.3914    0.0000 O   0  0  0  0  0  0  0  0  0  0  0  0
    2.0061  -11.7414    0.0000 O   0  0  0  0  0  0  0  0  0  0  0  0
  5  1  1  6  0  0  0
  6  2  1  6  0  0  0
  8  3  1  6  0  0  0
  7  4  1  1  0  0  0
  5 10  1  0  0  0  0
  6  5  1  0  0  0  0
  7  6  1  0  0  0  0
  8  7  1  0  0  0  0
  9  8  1  0  0  0  0
 10  9  1  0  0  0  0
 10 11  1  1  0  0  0
 16 11  1  0  0  0  0
 26 12  1  6  0  0  0
 32 13  1  0  0  0  0
 33 14  1  0  0  0  0
 21 15  1  1  0  0  0
 19 16  1  1  0  0  0
 20 17  1  6  0  0  0
 18 23  1  0  0  0  0
 19 18  1  0  0  0  0
 20 19  1  0  0  0  0
 21 20  1  0  0  0  0
 24 21  1  0  0  0  0
 22 27  1  0  0  0  0
 23 22  1  1  0  0  0
 24 23  1  0  0  0  0
 24 25  1  6  0  0  0
 26 29  1  0  0  0  0
 27 26  1  0  0  0  0
 28 33  1  0  0  0  0
 29 28  2  0  0  0  0
 30 29  1  0  0  0  0
 31 30  2  0  0  0  0
 32 31  1  0  0  0  0
 33 32  2  0  0  0  0
 17 34  1  0  0  0  0
 34 35  1  0  0  0  0
 34 36  2  0  0  0  0
 35 37  2  0  0  0  0
 37 38  1  0  0  0  0
 38 39  2  0  0  0  0
 39 40  1  0  0  0  0
 40 41  2  0  0  0  0
 41 42  1  0  0  0  0
 42 43  2  0  0  0  0
 43 38  1  0  0  0  0
 41 44  1  0  0  0  0
 40 45  1  0  0  0  0
M  END
>  <cdx:fragmentId>
176

$$$$
