15470.cdx
  Mrv1902 05222410212D          

 53 58  0  0  0  0            999 V2000
    9.5704   -6.5931    0.0000 O   0  0  0  0  0  0  0  0  0  0  0  0
    8.8560   -7.0056    0.0000 C   0  0  1  0  0  0  0  0  0  0  0  0
    8.8560   -7.8306    0.0000 C   0  0  2  0  0  0  0  0  0  0  0  0
    9.5704   -8.2431    0.0000 O   0  0  0  0  0  0  0  0  0  0  0  0
    8.1415   -6.5931    0.0000 O   0  0  0  0  0  0  0  0  0  0  0  0
    7.4270   -7.0056    0.0000 C   0  0  1  0  0  0  0  0  0  0  0  0
    7.4270   -7.8306    0.0000 C   0  0  2  0  0  0  0  0  0  0  0  0
    8.1415   -8.2431    0.0000 C   0  0  2  0  0  0  0  0  0  0  0  0
    5.9981   -7.0056    0.0000 O   0  0  0  0  0  0  0  0  0  0  0  0
    5.2836   -6.5931    0.0000 C   0  0  2  0  0  0  0  0  0  0  0  0
    5.2836   -5.7681    0.0000 O   0  0  0  0  0  0  0  0  0  0  0  0
    4.5691   -5.3556    0.0000 C   0  0  1  0  0  0  0  0  0  0  0  0
    7.4270   -4.5306    0.0000 C   0  0  0  0  0  0  0  0  0  0  0  0
    8.1415   -4.1181    0.0000 O   0  0  0  0  0  0  0  0  0  0  0  0
   13.8572   -4.1181    0.0000 C   0  0  0  0  0  0  0  0  0  0  0  0
   12.4283   -6.5931    0.0000 O   0  0  0  0  0  0  0  0  0  0  0  0
   10.9994   -6.5931    0.0000 O   0  0  0  0  0  0  0  0  0  0  0  0
    3.8547   -5.7681    0.0000 C   0  0  2  0  0  0  0  0  0  0  0  0
    3.8547   -6.5931    0.0000 C   0  0  1  0  0  0  0  0  0  0  0  0
    4.5691   -7.0056    0.0000 C   0  0  1  0  0  0  0  0  0  0  0  0
    1.7112   -7.8306    0.0000 O   0  0  0  0  0  0  0  0  0  0  0  0
    3.1402  -10.3056    0.0000 O   0  0  0  0  0  0  0  0  0  0  0  0
    1.7112   -9.4806    0.0000 O   0  0  0  0  0  0  0  0  0  0  0  0
    4.5691  -10.3056    0.0000 O   0  0  0  0  0  0  0  0  0  0  0  0
    4.5691   -9.4806    0.0000 C   0  0  0  0  0  0  0  0  0  0  0  0
    4.5691   -4.5306    0.0000 C   0  0  0  0  0  0  0  0  0  0  0  0
    3.8547   -4.1181    0.0000 O   0  0  0  0  0  0  0  0  0  0  0  0
    2.4257   -8.2431    0.0000 C   0  0  2  0  0  0  0  0  0  0  0  0
    2.4257   -9.0681    0.0000 C   0  0  2  0  0  0  0  0  0  0  0  0
    3.1402   -9.4806    0.0000 C   0  0  1  0  0  0  0  0  0  0  0  0
    3.8547   -9.0681    0.0000 C   0  0  2  0  0  0  0  0  0  0  0  0
    8.1415   -9.0681    0.0000 O   0  0  0  0  0  0  0  0  0  0  0  0
    3.8547   -8.2431    0.0000 O   0  0  0  0  0  0  0  0  0  0  0  0
    3.1402   -7.8306    0.0000 C   0  0  1  0  0  0  0  0  0  0  0  0
    3.1402   -7.0056    0.0000 O   0  0  0  0  0  0  0  0  0  0  0  0
    3.1402   -5.3556    0.0000 O   0  0  0  0  0  0  0  0  0  0  0  0
    4.5691   -7.8306    0.0000 O   0  0  0  0  0  0  0  0  0  0  0  0
    6.7125   -6.5931    0.0000 C   0  0  0  0  0  0  0  0  0  0  0  0
    6.7125   -8.2431    0.0000 O   0  0  0  0  0  0  0  0  0  0  0  0
   12.4283   -5.7681    0.0000 C   0  0  0  0  0  0  0  0  0  0  0  0
   13.1428   -5.3556    0.0000 C   0  0  0  0  0  0  0  0  0  0  0  0
   13.1428   -4.5306    0.0000 C   0  0  0  0  0  0  0  0  0  0  0  0
   12.4283   -4.1181    0.0000 O   0  0  0  0  0  0  0  0  0  0  0  0
   10.9994   -5.7681    0.0000 C   0  0  0  0  0  0  0  0  0  0  0  0
   11.7138   -5.3556    0.0000 C   0  0  0  0  0  0  0  0  0  0  0  0
   11.7138   -4.5306    0.0000 C   0  0  0  0  0  0  0  0  0  0  0  0
   10.9994   -4.1181    0.0000 C   0  0  0  0  0  0  0  0  0  0  0  0
    9.5704   -5.7681    0.0000 C   0  0  0  0  0  0  0  0  0  0  0  0
   10.2849   -5.3556    0.0000 C   0  0  0  0  0  0  0  0  0  0  0  0
   10.2849   -4.5306    0.0000 C   0  0  0  0  0  0  0  0  0  0  0  0
    9.5704   -4.1181    0.0000 C   0  0  0  0  0  0  0  0  0  0  0  0
    8.8560   -4.5306    0.0000 C   0  0  0  0  0  0  0  0  0  0  0  0
    8.8560   -5.3556    0.0000 C   0  0  0  0  0  0  0  0  0  0  0  0
  2  1  1  1  0  0  0
  2  3  1  0  0  0  0
  3  4  1  6  0  0  0
  2  5  1  0  0  0  0
  5  6  1  0  0  0  0
  6  7  1  0  0  0  0
  7  8  1  0  0  0  0
  8  3  1  0  0  0  0
  6 38  1  1  0  0  0
 10  9  1  1  0  0  0
 14 13  1  0  0  0  0
 52 14  1  0  0  0  0
 42 15  1  0  0  0  0
 40 16  2  0  0  0  0
 44 17  1  0  0  0  0
 10 11  1  0  0  0  0
 11 12  1  0  0  0  0
 12 18  1  0  0  0  0
 18 19  1  0  0  0  0
 19 20  1  0  0  0  0
 20 10  1  0  0  0  0
 28 21  1  1  0  0  0
 19 35  1  1  0  0  0
 30 22  1  1  0  0  0
 29 23  1  6  0  0  0
 25 24  1  0  0  0  0
 31 25  1  6  0  0  0
 28 34  1  0  0  0  0
 29 28  1  0  0  0  0
 30 29  1  0  0  0  0
 31 30  1  0  0  0  0
 12 26  1  1  0  0  0
 26 27  1  0  0  0  0
 33 31  1  0  0  0  0
 34 33  1  0  0  0  0
  8 32  1  1  0  0  0
 34 35  1  6  0  0  0
 18 36  1  6  0  0  0
 38  9  1  0  0  0  0
 48  1  1  0  0  0  0
 20 37  1  6  0  0  0
  7 39  1  6  0  0  0
 40 45  1  0  0  0  0
 41 40  1  0  0  0  0
 42 41  2  0  0  0  0
 43 42  1  0  0  0  0
 46 43  1  0  0  0  0
 44 49  1  0  0  0  0
 45 44  2  0  0  0  0
 46 45  1  0  0  0  0
 47 46  2  0  0  0  0
 50 47  1  0  0  0  0
 48 53  2  0  0  0  0
 49 48  1  0  0  0  0
 50 49  2  0  0  0  0
 51 50  1  0  0  0  0
 52 51  2  0  0  0  0
 53 52  1  0  0  0  0
M  END
>  <cdx:fragmentId>
5

$$$$
