15473.cdx
  Mrv1902 05222410212D          

 64 70  0  0  0  0            999 V2000
   13.5834  -11.4091    0.0000 O   0  0  0  0  0  0  0  0  0  0  0  0
   11.4177  -11.8112    0.0000 C   0  0  2  0  0  0  0  0  0  0  0  0
   11.4154  -12.6362    0.0000 C   0  0  2  0  0  0  0  0  0  0  0  0
   12.1287  -13.0507    0.0000 C   0  0  1  0  0  0  0  0  0  0  0  0
   12.8443  -12.6402    0.0000 C   0  0  2  0  0  0  0  0  0  0  0  0
   12.8466  -11.8152    0.0000 C   0  0  1  0  0  0  0  0  0  0  0  0
   12.1333  -11.4007    0.0000 O   0  0  0  0  0  0  0  0  0  0  0  0
   10.7044  -11.3967    0.0000 C   0  0  0  0  0  0  0  0  0  0  0  0
   12.1264  -13.8757    0.0000 O   0  0  0  0  0  0  0  0  0  0  0  0
   13.5576  -13.0547    0.0000 O   0  0  0  0  0  0  0  0  0  0  0  0
   10.6998  -13.0467    0.0000 O   0  0  0  0  0  0  0  0  0  0  0  0
    9.9888  -11.8072    0.0000 O   0  0  0  0  0  0  0  0  0  0  0  0
    9.2755  -11.3926    0.0000 C   0  0  2  0  0  0  0  0  0  0  0  0
    9.2780  -10.5676    0.0000 O   0  0  0  0  0  0  0  0  0  0  0  0
    8.5648  -10.1529    0.0000 C   0  0  1  0  0  0  0  0  0  0  0  0
    7.8491  -10.5633    0.0000 C   0  0  2  0  0  0  0  0  0  0  0  0
    7.8466  -11.3883    0.0000 C   0  0  1  0  0  0  0  0  0  0  0  0
    8.5598  -11.8029    0.0000 C   0  0  1  0  0  0  0  0  0  0  0  0
    7.1309  -11.7987    0.0000 O   0  0  0  0  0  0  0  0  0  0  0  0
    8.5673   -9.3280    0.0000 C   0  0  0  0  0  0  0  0  0  0  0  0
    8.5573  -12.6279    0.0000 O   0  0  0  0  0  0  0  0  0  0  0  0
    7.1358  -10.1487    0.0000 O   0  0  0  0  0  0  0  0  0  0  0  0
    7.8540   -8.9133    0.0000 O   0  0  0  0  0  0  0  0  0  0  0  0
    7.8560   -8.0883    0.0000 C   0  0  2  0  0  0  0  0  0  0  0  0
    8.5714   -7.6775    0.0000 O   0  0  0  0  0  0  0  0  0  0  0  0
    8.5733   -6.8525    0.0000 C   0  0  1  0  0  0  0  0  0  0  0  0
    7.8598   -6.4383    0.0000 C   0  0  2  0  0  0  0  0  0  0  0  0
    7.1444   -6.8491    0.0000 C   0  0  1  0  0  0  0  0  0  0  0  0
    7.1425   -7.6741    0.0000 C   0  0  1  0  0  0  0  0  0  0  0  0
    9.2888   -6.4417    0.0000 C   0  0  0  0  0  0  0  0  0  0  0  0
    6.4309   -6.4350    0.0000 O   0  0  0  0  0  0  0  0  0  0  0  0
    6.4270   -8.0850    0.0000 O   0  0  0  0  0  0  0  0  0  0  0  0
    7.8618   -5.6133    0.0000 O   0  0  0  0  0  0  0  0  0  0  0  0
    9.2907   -5.6167    0.0000 O   0  0  0  0  0  0  0  0  0  0  0  0
    6.4329   -5.6100    0.0000 C   0  0  2  0  0  0  0  0  0  0  0  0
    7.1483   -5.1991    0.0000 O   0  0  0  0  0  0  0  0  0  0  0  0
    7.1502   -4.3741    0.0000 C   0  0  1  0  0  0  0  0  0  0  0  0
    6.4367   -3.9600    0.0000 C   0  0  2  0  0  0  0  0  0  0  0  0
    5.7213   -4.3708    0.0000 C   0  0  1  0  0  0  0  0  0  0  0  0
    5.7194   -5.1958    0.0000 C   0  0  1  0  0  0  0  0  0  0  0  0
    7.8657   -3.9633    0.0000 C   0  0  0  0  0  0  0  0  0  0  0  0
    5.0078   -3.9566    0.0000 O   0  0  0  0  0  0  0  0  0  0  0  0
    7.8676   -3.1383    0.0000 O   0  0  0  0  0  0  0  0  0  0  0  0
    5.0039   -5.6066    0.0000 O   0  0  0  0  0  0  0  0  0  0  0  0
    6.4387   -3.1350    0.0000 O   0  0  0  0  0  0  0  0  0  0  0  0
   17.8702   -8.9341    0.0000 C   0  0  0  0  0  0  0  0  0  0  0  0
   16.4413  -11.4091    0.0000 O   0  0  0  0  0  0  0  0  0  0  0  0
   15.0123  -11.4091    0.0000 O   0  0  0  0  0  0  0  0  0  0  0  0
   12.1544   -8.9341    0.0000 O   0  0  0  0  0  0  0  0  0  0  0  0
   16.4413  -10.5841    0.0000 C   0  0  0  0  0  0  0  0  0  0  0  0
   17.1557  -10.1716    0.0000 C   0  0  0  0  0  0  0  0  0  0  0  0
   17.1557   -9.3466    0.0000 C   0  0  0  0  0  0  0  0  0  0  0  0
   16.4413   -8.9341    0.0000 O   0  0  0  0  0  0  0  0  0  0  0  0
   15.0123  -10.5841    0.0000 C   0  0  0  0  0  0  0  0  0  0  0  0
   15.7268  -10.1716    0.0000 C   0  0  0  0  0  0  0  0  0  0  0  0
   15.7268   -9.3466    0.0000 C   0  0  0  0  0  0  0  0  0  0  0  0
   15.0123   -8.9341    0.0000 C   0  0  0  0  0  0  0  0  0  0  0  0
   13.5834  -10.5841    0.0000 C   0  0  0  0  0  0  0  0  0  0  0  0
   14.2978  -10.1716    0.0000 C   0  0  0  0  0  0  0  0  0  0  0  0
   14.2978   -9.3466    0.0000 C   0  0  0  0  0  0  0  0  0  0  0  0
   13.5834   -8.9341    0.0000 C   0  0  0  0  0  0  0  0  0  0  0  0
   12.8689   -9.3466    0.0000 C   0  0  0  0  0  0  0  0  0  0  0  0
   12.8689  -10.1716    0.0000 C   0  0  0  0  0  0  0  0  0  0  0  0
   12.1544   -8.1091    0.0000 C   0  0  0  0  0  0  0  0  0  0  0  0
  2  3  1  0  0  0  0
  3  4  1  0  0  0  0
  4  5  1  0  0  0  0
  5  6  1  0  0  0  0
  6  7  1  0  0  0  0
  7  2  1  0  0  0  0
  2  8  1  1  0  0  0
  4  9  1  1  0  0  0
  5 10  1  6  0  0  0
  3 11  1  6  0  0  0
  8 12  1  0  0  0  0
 13 12  1  1  0  0  0
 13 14  1  0  0  0  0
 14 15  1  0  0  0  0
 15 16  1  0  0  0  0
 16 17  1  0  0  0  0
 17 18  1  0  0  0  0
 18 13  1  0  0  0  0
 17 19  1  1  0  0  0
 15 20  1  1  0  0  0
 18 21  1  6  0  0  0
 16 22  1  6  0  0  0
 20 23  1  0  0  0  0
 24 23  1  1  0  0  0
 24 25  1  0  0  0  0
 25 26  1  0  0  0  0
 26 27  1  0  0  0  0
 27 28  1  0  0  0  0
 28 29  1  0  0  0  0
 29 24  1  0  0  0  0
 26 30  1  1  0  0  0
 28 31  1  1  0  0  0
 29 32  1  6  0  0  0
 27 33  1  6  0  0  0
 30 34  1  0  0  0  0
 35 31  1  1  0  0  0
 35 36  1  0  0  0  0
 36 37  1  0  0  0  0
 37 38  1  0  0  0  0
 38 39  1  0  0  0  0
 39 40  1  0  0  0  0
 40 35  1  0  0  0  0
 37 41  1  1  0  0  0
 39 42  1  1  0  0  0
 41 43  1  0  0  0  0
 40 44  1  6  0  0  0
 38 45  1  6  0  0  0
 58  1  1  0  0  0  0
  6  1  1  1  0  0  0
 52 46  1  0  0  0  0
 50 47  2  0  0  0  0
 54 48  1  0  0  0  0
 62 49  1  0  0  0  0
 50 55  1  0  0  0  0
 51 50  1  0  0  0  0
 52 51  2  0  0  0  0
 53 52  1  0  0  0  0
 56 53  1  0  0  0  0
 54 59  1  0  0  0  0
 55 54  2  0  0  0  0
 56 55  1  0  0  0  0
 57 56  2  0  0  0  0
 60 57  1  0  0  0  0
 58 63  2  0  0  0  0
 59 58  1  0  0  0  0
 60 59  2  0  0  0  0
 61 60  1  0  0  0  0
 62 61  2  0  0  0  0
 63 62  1  0  0  0  0
 49 64  1  0  0  0  0
M  END
>  <cdx:fragmentId>
59

$$$$
