S-(1-propen)-1-yl)-L-cysteine.cdx
  Mrv1902 05222410232D          

 10  9  0  0  0  0            999 V2000
    7.4457   -7.6519    0.0000 C   0  0  0  0  0  0  0  0  0  0  0  0
    6.7313   -7.2394    0.0000 S   0  0  0  0  0  0  0  0  0  0  0  0
    6.0168   -7.6519    0.0000 C   0  0  0  0  0  0  0  0  0  0  0  0
    5.3023   -7.2394    0.0000 C   0  0  1  0  0  0  0  0  0  0  0  0
    4.5878   -7.6519    0.0000 C   0  0  0  0  0  0  0  0  0  0  0  0
    3.8734   -7.2394    0.0000 O   0  0  0  0  0  0  0  0  0  0  0  0
    4.5878   -8.4769    0.0000 O   0  0  0  0  0  0  0  0  0  0  0  0
    5.3023   -6.4144    0.0000 N   0  0  0  0  0  0  0  0  0  0  0  0
    8.1602   -7.2394    0.0000 C   0  0  0  0  0  0  0  0  0  0  0  0
    8.8747   -7.6519    0.0000 C   0  0  0  0  0  0  0  0  0  0  0  0
  2  1  1  0  0  0  0
  3  2  1  0  0  0  0
  4  3  1  0  0  0  0
  5  4  1  0  0  0  0
  6  5  1  0  0  0  0
  5  7  2  0  0  0  0
  4  8  1  1  0  0  0
  1  9  2  0  0  0  0
  9 10  1  4  0  0  0
M  END
>  <cdx:fragmentId>
3

$$$$
