155.cdx
  Mrv1902 05222410262D          

 22 24  0  0  0  0            999 V2000
    4.6302   -7.7413    0.0000 C   0  0  0  0  0  0  0  0  0  0  0  0
    4.6302   -8.5663    0.0000 C   0  0  0  0  0  0  0  0  0  0  0  0
    5.3446   -8.9788    0.0000 C   0  0  0  0  0  0  0  0  0  0  0  0
    6.0591   -8.5663    0.0000 C   0  0  0  0  0  0  0  0  0  0  0  0
    6.0591   -7.7413    0.0000 C   0  0  0  0  0  0  0  0  0  0  0  0
    5.3446   -7.3287    0.0000 C   0  0  0  0  0  0  0  0  0  0  0  0
    6.7736   -8.9788    0.0000 C   0  0  0  0  0  0  0  0  0  0  0  0
    7.4880   -8.5663    0.0000 C   0  0  0  0  0  0  0  0  0  0  0  0
    7.4880   -7.7413    0.0000 C   0  0  2  0  0  0  0  0  0  0  0  0
    6.7736   -7.3287    0.0000 O   0  0  0  0  0  0  0  0  0  0  0  0
    8.2025   -7.3287    0.0000 C   0  0  0  0  0  0  0  0  0  0  0  0
    8.9170   -7.7413    0.0000 C   0  0  0  0  0  0  0  0  0  0  0  0
    9.6315   -7.3287    0.0000 C   0  0  0  0  0  0  0  0  0  0  0  0
    9.6315   -6.5038    0.0000 C   0  0  0  0  0  0  0  0  0  0  0  0
    8.9170   -6.0912    0.0000 C   0  0  0  0  0  0  0  0  0  0  0  0
    8.2025   -6.5038    0.0000 C   0  0  0  0  0  0  0  0  0  0  0  0
    3.9157   -7.3287    0.0000 O   0  0  0  0  0  0  0  0  0  0  0  0
    5.3446   -9.8038    0.0000 O   0  0  0  0  0  0  0  0  0  0  0  0
    6.7736   -9.8038    0.0000 O   0  0  0  0  0  0  0  0  0  0  0  0
   10.3459   -6.0912    0.0000 O   0  0  0  0  0  0  0  0  0  0  0  0
    8.9170   -5.2663    0.0000 O   0  0  0  0  0  0  0  0  0  0  0  0
   11.0604   -6.5037    0.0000 C   0  0  0  0  0  0  0  0  0  0  0  0
  1  2  2  0  0  0  0
  2  3  1  0  0  0  0
  3  4  2  0  0  0  0
  4  5  1  0  0  0  0
  5  6  2  0  0  0  0
  6  1  1  0  0  0  0
  4  7  1  0  0  0  0
  7  8  1  0  0  0  0
  8  9  1  0  0  0  0
  9 10  1  0  0  0  0
 10  5  1  0  0  0  0
 11 12  2  0  0  0  0
 12 13  1  0  0  0  0
 13 14  2  0  0  0  0
 14 15  1  0  0  0  0
 15 16  2  0  0  0  0
 16 11  1  0  0  0  0
  1 17  1  0  0  0  0
  3 18  1  0  0  0  0
  7 19  2  0  0  0  0
  9 11  1  6  0  0  0
 14 20  1  0  0  0  0
 15 21  1  0  0  0  0
 20 22  1  0  0  0  0
M  END
>  <cdx:fragmentId>
5

$$$$
