155094.cdx
  Mrv1902 05222410182D          

 25 27  0  0  0  0            999 V2000
    8.7459   -6.5426    0.0000 C   0  0  0  0  0  0  0  0  0  0  0  0
    8.7459   -7.3676    0.0000 C   0  0  0  0  0  0  0  0  0  0  0  0
    8.0314   -7.7801    0.0000 C   0  0  0  0  0  0  0  0  0  0  0  0
    8.0314   -8.6051    0.0000 O   0  0  0  0  0  0  0  0  0  0  0  0
    7.3170   -7.3676    0.0000 C   0  0  0  0  0  0  0  0  0  0  0  0
    6.6025   -7.7801    0.0000 C   0  0  0  0  0  0  0  0  0  0  0  0
    6.6025   -8.6051    0.0000 O   0  0  0  0  0  0  0  0  0  0  0  0
    5.8880   -7.3676    0.0000 C   0  0  0  0  0  0  0  0  0  0  0  0
    5.8880   -6.5426    0.0000 C   0  0  0  0  0  0  0  0  0  0  0  0
    5.1735   -6.1301    0.0000 O   0  0  0  0  0  0  0  0  0  0  0  0
    6.6025   -6.1301    0.0000 C   0  0  0  0  0  0  0  0  0  0  0  0
    7.3170   -6.5426    0.0000 C   0  0  0  0  0  0  0  0  0  0  0  0
    8.0314   -6.1301    0.0000 O   0  0  0  0  0  0  0  0  0  0  0  0
    9.4604   -6.1301    0.0000 C   0  0  0  0  0  0  0  0  0  0  0  0
    9.4604   -5.3051    0.0000 C   0  0  0  0  0  0  0  0  0  0  0  0
   10.1748   -4.8926    0.0000 C   0  0  0  0  0  0  0  0  0  0  0  0
   10.8893   -5.3051    0.0000 C   0  0  0  0  0  0  0  0  0  0  0  0
   11.6038   -4.8926    0.0000 O   0  0  0  0  0  0  0  0  0  0  0  0
   10.8893   -6.1301    0.0000 C   0  0  0  0  0  0  0  0  0  0  0  0
   10.1748   -6.5426    0.0000 C   0  0  0  0  0  0  0  0  0  0  0  0
    5.1735   -7.7801    0.0000 C   0  0  0  0  0  0  0  0  0  0  0  0
    4.4591   -7.3676    0.0000 C   0  0  0  0  0  0  0  0  0  0  0  0
    3.7446   -7.7801    0.0000 C   0  0  0  0  0  0  0  0  0  0  0  0
    3.7446   -8.6051    0.0000 C   0  0  0  0  0  0  0  0  0  0  0  0
    3.0301   -7.3676    0.0000 C   0  0  0  0  0  0  0  0  0  0  0  0
  1  2  1  0  0  0  0
  2  3  1  0  0  0  0
  3  4  2  0  0  0  0
  3  5  1  0  0  0  0
  5  6  1  0  0  0  0
  6  7  1  0  0  0  0
  6  8  2  0  0  0  0
  8  9  1  0  0  0  0
  9 10  1  0  0  0  0
  9 11  2  0  0  0  0
 11 12  1  0  0  0  0
  5 12  2  0  0  0  0
 12 13  1  0  0  0  0
  1 13  1  0  0  0  0
  1 14  1  0  0  0  0
 14 15  1  0  0  0  0
 15 16  2  0  0  0  0
 16 17  1  0  0  0  0
 17 18  1  0  0  0  0
 17 19  2  0  0  0  0
 19 20  1  0  0  0  0
 14 20  2  0  0  0  0
 21 22  1  0  0  0  0
 22 23  2  0  0  0  0
 23 24  1  0  0  0  0
 23 25  1  0  0  0  0
  8 21  1  0  0  0  0
M  END
>  <cdx:fragmentId>
2142

$$$$
