155008.cdx
  Mrv1902 05222410212D          

 13 13  0  0  0  0            999 V2000
    5.8337   -7.2567    0.0000 C   0  0  0  0  0  0  0  0  0  0  0  0
    6.5482   -6.8442    0.0000 C   0  0  1  0  0  0  0  0  0  0  0  0
    6.5482   -6.0192    0.0000 C   0  0  0  0  0  0  0  0  0  0  0  0
    5.1192   -6.8442    0.0000 O   0  0  0  0  0  0  0  0  0  0  0  0
    8.0163   -6.9212    0.0000 O   0  0  0  0  0  0  0  0  0  0  0  0
    7.2627   -7.2567    0.0000 C   0  0  1  0  0  0  0  0  0  0  0  0
    7.3489   -8.0772    0.0000 C   0  0  0  0  0  0  0  0  0  0  0  0
    8.1559   -8.2488    0.0000 C   0  0  0  0  0  0  0  0  0  0  0  0
    8.5684   -7.5343    0.0000 C   0  0  1  0  0  0  0  0  0  0  0  0
    9.3653   -7.3208    0.0000 C   0  0  0  0  0  0  0  0  0  0  0  0
    9.1517   -8.1176    0.0000 C   0  0  0  0  0  0  0  0  0  0  0  0
    9.5788   -6.5239    0.0000 C   0  0  0  0  0  0  0  0  0  0  0  0
    7.2627   -6.4317    0.0000 H   0  0  0  0  0  0  0  0  0  0  0  0
  1  2  1  0  0  0  0
  2  3  1  1  0  0  0
  1  4  2  0  0  0  0
  5  6  1  0  0  0  0
  6  7  1  0  0  0  0
  7  8  1  0  0  0  0
  8  9  1  0  0  0  0
  5  9  1  0  0  0  0
  9 10  1  0  0  0  0
  9 11  1  1  0  0  0
  2  6  1  0  0  0  0
 10 12  2  0  0  0  0
  6 13  1  6  0  0  0
M  END
>  <cdx:fragmentId>
2027

$$$$
