155011.cdx
  Mrv1902 05222410252D          

 24 26  0  0  0  0            999 V2000
    5.9746   -6.9635    0.0000 O   0  0  0  0  0  0  0  0  0  0  0  0
    4.5457   -9.4385    0.0000 O   0  0  0  0  0  0  0  0  0  0  0  0
   10.2614   -7.7885    0.0000 O   0  0  0  0  0  0  0  0  0  0  0  0
    3.8312   -8.2010    0.0000 C   0  0  0  0  0  0  0  0  0  0  0  0
    4.5457   -7.7885    0.0000 O   0  0  0  0  0  0  0  0  0  0  0  0
    9.5470   -6.5510    0.0000 C   0  0  0  0  0  0  0  0  0  0  0  0
    8.8325   -6.9635    0.0000 O   0  0  0  0  0  0  0  0  0  0  0  0
   10.2614   -9.4385    0.0000 C   0  0  0  0  0  0  0  0  0  0  0  0
    7.4035  -10.2635    0.0000 O   0  0  0  0  0  0  0  0  0  0  0  0
    7.4035   -6.9635    0.0000 O   0  0  0  0  0  0  0  0  0  0  0  0
    6.6891   -8.2010    0.0000 C   0  0  0  0  0  0  0  0  0  0  0  0
    7.4035   -7.7885    0.0000 C   0  0  0  0  0  0  0  0  0  0  0  0
    8.1180   -8.2010    0.0000 C   0  0  0  0  0  0  0  0  0  0  0  0
    8.8325   -7.7885    0.0000 C   0  0  0  0  0  0  0  0  0  0  0  0
    9.5470   -8.2010    0.0000 C   0  0  0  0  0  0  0  0  0  0  0  0
    9.5470   -9.0260    0.0000 C   0  0  0  0  0  0  0  0  0  0  0  0
    8.8325   -9.4385    0.0000 C   0  0  0  0  0  0  0  0  0  0  0  0
    8.1180   -9.0260    0.0000 C   0  0  0  0  0  0  0  0  0  0  0  0
    7.4035   -9.4385    0.0000 C   0  0  0  0  0  0  0  0  0  0  0  0
    6.6891   -9.0260    0.0000 C   0  0  0  0  0  0  0  0  0  0  0  0
    5.9746   -9.4385    0.0000 C   0  0  0  0  0  0  0  0  0  0  0  0
    5.2601   -9.0260    0.0000 C   0  0  0  0  0  0  0  0  0  0  0  0
    5.2601   -8.2010    0.0000 C   0  0  0  0  0  0  0  0  0  0  0  0
    5.9746   -7.7885    0.0000 C   0  0  0  0  0  0  0  0  0  0  0  0
 24  1  1  0  0  0  0
 22  2  1  0  0  0  0
 15  3  1  0  0  0  0
 23  5  1  0  0  0  0
  5  4  1  0  0  0  0
 14  7  1  0  0  0  0
  7  6  1  0  0  0  0
 16  8  1  0  0  0  0
 19  9  2  0  0  0  0
 12 10  2  0  0  0  0
 24 11  2  0  0  0  0
 20 11  1  0  0  0  0
 12 11  1  0  0  0  0
 13 12  1  0  0  0  0
 18 13  2  0  0  0  0
 14 13  1  0  0  0  0
 15 14  2  0  0  0  0
 16 15  1  0  0  0  0
 17 16  2  0  0  0  0
 18 17  1  0  0  0  0
 19 18  1  0  0  0  0
 20 19  1  0  0  0  0
 21 20  2  0  0  0  0
 22 21  1  0  0  0  0
 23 22  2  0  0  0  0
 24 23  1  0  0  0  0
M  END
>  <cdx:fragmentId>
5

$$$$
