155076.cdx
  Mrv1902 05222410262D          

 25 26  0  0  0  0            999 V2000
    8.3133   -9.5646    0.0000 C   0  0  0  0  0  0  0  0  0  0  0  0
    9.5501   -8.8490    0.0000 O   0  0  0  0  0  0  0  0  0  0  0  0
    7.9001   -8.8505    0.0000 O   0  0  0  0  0  0  0  0  0  0  0  0
    7.0751   -8.8513    0.0000 C   0  0  0  0  0  0  0  0  0  0  0  0
    6.6620   -8.1373    0.0000 C   0  0  0  0  0  0  0  0  0  0  0  0
    5.8370   -8.1381    0.0000 C   0  0  0  0  0  0  0  0  0  0  0  0
    6.6633   -9.5662    0.0000 O   0  0  0  0  0  0  0  0  0  0  0  0
    5.4238   -7.4240    0.0000 C   0  0  0  0  0  0  0  0  0  0  0  0
    4.5988   -7.4248    0.0000 C   0  0  0  0  0  0  0  0  0  0  0  0
    4.1856   -6.7107    0.0000 C   0  0  0  0  0  0  0  0  0  0  0  0
    4.5974   -5.9959    0.0000 C   0  0  0  0  0  0  0  0  0  0  0  0
    5.4224   -5.9951    0.0000 C   0  0  0  0  0  0  0  0  0  0  0  0
    5.8356   -6.7091    0.0000 C   0  0  0  0  0  0  0  0  0  0  0  0
    4.1842   -5.2818    0.0000 O   0  0  0  0  0  0  0  0  0  0  0  0
    3.3606   -6.7115    0.0000 O   0  0  0  0  0  0  0  0  0  0  0  0
    8.3120   -8.1357    0.0000 O   0  0  0  0  0  0  0  0  0  0  0  0
    8.7251   -8.8497    0.0000 C   0  0  0  0  0  0  0  0  0  0  0  0
    6.8860  -11.2160    0.0000 O   0  0  0  0  0  0  0  0  0  0  0  0
    8.3157  -12.0396    0.0000 O   0  0  0  0  0  0  0  0  0  0  0  0
    9.7439  -11.2132    0.0000 O   0  0  0  0  0  0  0  0  0  0  0  0
    9.0282   -9.9764    0.0000 C   0  0  0  0  0  0  0  0  0  0  0  0
    9.0290  -10.8014    0.0000 C   0  0  2  0  0  0  0  0  0  0  0  0
    8.3149  -11.2146    0.0000 C   0  0  0  0  0  0  0  0  0  0  0  0
    7.6001  -10.8028    0.0000 C   0  0  1  0  0  0  0  0  0  0  0  0
    7.5993   -9.9778    0.0000 C   0  0  0  0  0  0  0  0  0  0  0  0
 17  2  1  0  0  0  0
 17 16  2  0  0  0  0
 24 18  1  6  0  0  0
 23 19  1  0  0  0  0
 22 20  1  1  0  0  0
  1 21  1  0  0  0  0
 22 21  1  0  0  0  0
 23 22  1  0  0  0  0
 24 23  1  0  0  0  0
 25 24  1  0  0  0  0
  1 25  1  0  0  0  0
  1 17  1  0  0  0  0
  4  5  1  0  0  0  0
  5  6  2  0  0  0  0
  4  7  2  0  0  0  0
  8  9  1  0  0  0  0
  9 10  2  0  0  0  0
 10 11  1  0  0  0  0
 11 12  2  0  0  0  0
 12 13  1  0  0  0  0
  8 13  2  0  0  0  0
 11 14  1  0  0  0  0
 10 15  1  0  0  0  0
  6  8  1  0  0  0  0
  3  4  1  0  0  0  0
  1  3  1  0  0  0  0
M  END
>  <cdx:fragmentId>
23317

$$$$
