15500.cdx
  Mrv1902 05222410222D          

 45 49  0  0  0  0            999 V2000
    5.7545   -7.2188    0.0000 C   0  0  0  0  0  0  0  0  0  0  0  0
    5.7545   -8.0437    0.0000 C   0  0  0  0  0  0  0  0  0  0  0  0
    6.4690   -8.4563    0.0000 C   0  0  0  0  0  0  0  0  0  0  0  0
    7.1834   -8.0437    0.0000 C   0  0  0  0  0  0  0  0  0  0  0  0
    7.1834   -7.2188    0.0000 C   0  0  0  0  0  0  0  0  0  0  0  0
    6.4690   -6.8062    0.0000 C   0  0  0  0  0  0  0  0  0  0  0  0
    8.6124   -8.0437    0.0000 O   0  0  0  0  0  0  0  0  0  0  0  0
    7.8979   -6.8062    0.0000 O   0  0  0  0  0  0  0  0  0  0  0  0
    8.6124  -12.9937    0.0000 O   0  0  0  0  0  0  0  0  0  0  0  0
    7.8979  -11.7562    0.0000 C   0  0  0  0  0  0  0  0  0  0  0  0
    8.6124  -12.1687    0.0000 C   0  0  0  0  0  0  0  0  0  0  0  0
    9.3268  -11.7562    0.0000 C   0  0  0  0  0  0  0  0  0  0  0  0
    9.3268  -10.9313    0.0000 C   0  0  0  0  0  0  0  0  0  0  0  0
    7.8979  -10.9313    0.0000 C   0  0  0  0  0  0  0  0  0  0  0  0
    8.6124  -10.5188    0.0000 C   0  0  0  0  0  0  0  0  0  0  0  0
    7.1834   -6.3937    0.0000 H   0  0  0  0  0  0  0  0  0  0  0  0
    5.0400   -4.3313    0.0000 O   0  0  0  0  0  0  0  0  0  0  0  0
    7.8979   -4.3313    0.0000 C   0  0  0  0  0  0  0  0  0  0  0  0
    7.8979   -3.5062    0.0000 O   0  0  0  0  0  0  0  0  0  0  0  0
    6.4690   -3.5062    0.0000 O   0  0  0  0  0  0  0  0  0  0  0  0
    7.1834   -5.5687    0.0000 O   0  0  0  0  0  0  0  0  0  0  0  0
    7.1834   -4.7438    0.0000 C   0  0  1  0  0  0  0  0  0  0  0  0
    6.4690   -4.3313    0.0000 C   0  0  2  0  0  0  0  0  0  0  0  0
    5.7545   -4.7438    0.0000 C   0  0  1  0  0  0  0  0  0  0  0  0
    8.6124   -9.6937    0.0000 C   0  0  0  0  0  0  0  0  0  0  0  0
    7.8979   -9.2812    0.0000 C   0  0  0  0  0  0  0  0  0  0  0  0
    7.8979   -8.4563    0.0000 C   0  0  0  0  0  0  0  0  0  0  0  0
    6.4690   -9.2813    0.0000 O   0  0  0  0  0  0  0  0  0  0  0  0
    5.7545   -6.3937    0.0000 O   0  0  0  0  0  0  0  0  0  0  0  0
    6.4690   -5.9813    0.0000 C   0  0  2  0  0  0  0  0  0  0  0  0
    5.7545   -5.5687    0.0000 C   0  0  2  0  0  0  0  0  0  0  0  0
    5.0400   -5.9813    0.0000 O   0  0  0  0  0  0  0  0  0  0  0  0
    4.9699   -6.9638    0.0000 O   0  0  0  0  0  0  0  0  0  0  0  0
    4.4849   -7.6313    0.0000 C   0  0  2  0  0  0  0  0  0  0  0  0
    4.9699   -8.2987    0.0000 C   0  0  2  0  0  0  0  0  0  0  0  0
    3.6645   -7.7175    0.0000 C   0  0  1  0  0  0  0  0  0  0  0  0
    3.3289   -8.4712    0.0000 C   0  0  2  0  0  0  0  0  0  0  0  0
    3.8138   -9.1386    0.0000 C   0  0  1  0  0  0  0  0  0  0  0  0
    4.6343   -9.0524    0.0000 O   0  0  0  0  0  0  0  0  0  0  0  0
    3.4783   -9.8923    0.0000 C   0  0  0  0  0  0  0  0  0  0  0  0
    3.1795   -7.0500    0.0000 O   0  0  0  0  0  0  0  0  0  0  0  0
    2.5084   -8.5574    0.0000 O   0  0  0  0  0  0  0  0  0  0  0  0
    2.6814  -10.1058    0.0000 O   0  0  0  0  0  0  0  0  0  0  0  0
    5.3824   -9.0132    0.0000 H   0  0  0  0  0  0  0  0  0  0  0  0
    4.2714   -6.8344    0.0000 H   0  0  0  0  0  0  0  0  0  0  0  0
  1  2  2  0  0  0  0
  2  3  1  0  0  0  0
  3  4  1  0  0  0  0
  4  5  2  0  0  0  0
  5  6  1  0  0  0  0
  6  1  1  0  0  0  0
 27  7  2  0  0  0  0
  4 27  1  0  0  0  0
 11  9  1  0  0  0  0
  8  5  1  0  0  0  0
 10 14  2  0  0  0  0
 11 10  1  0  0  0  0
 12 11  2  0  0  0  0
 13 12  1  0  0  0  0
 15 13  2  0  0  0  0
 15 14  1  0  0  0  0
 25 15  1  0  0  0  0
 26 25  2  0  0  0  0
 30 16  1  6  0  0  0
 24 17  1  1  0  0  0
 22 18  1  1  0  0  0
 30  6  1  0  0  0  0
 19 18  1  0  0  0  0
 23 20  1  6  0  0  0
 21 30  1  0  0  0  0
 22 21  1  0  0  0  0
 23 22  1  0  0  0  0
 24 23  1  0  0  0  0
 31 24  1  0  0  0  0
 31 30  1  0  0  0  0
 27 26  1  0  0  0  0
  3 28  2  0  0  0  0
  6 29  1  0  0  0  0
 31 32  1  6  0  0  0
  1 33  1  0  0  0  0
 33 34  1  0  0  0  0
 34 35  1  0  0  0  0
 35  2  1  0  0  0  0
 34 36  1  0  0  0  0
 36 37  1  0  0  0  0
 37 38  1  0  0  0  0
 38 39  1  0  0  0  0
 39 35  1  0  0  0  0
 38 40  1  1  0  0  0
 36 41  1  1  0  0  0
 37 42  1  6  0  0  0
 40 43  1  0  0  0  0
 35 44  1  6  0  0  0
 34 45  1  1  0  0  0
M  END
>  <cdx:fragmentId>
5

$$$$
