1550.cdx
  Mrv1902 05222410212D          

 32 35  0  0  0  0            999 V2000
    5.7164   -7.7550    0.0000 C   0  0  0  0  0  0  0  0  0  0  0  0
    5.7164   -8.5800    0.0000 C   0  0  0  0  0  0  0  0  0  0  0  0
    6.4309   -8.9925    0.0000 C   0  0  0  0  0  0  0  0  0  0  0  0
    7.1453   -8.5800    0.0000 C   0  0  0  0  0  0  0  0  0  0  0  0
    7.1453   -7.7550    0.0000 C   0  0  0  0  0  0  0  0  0  0  0  0
    6.4309   -7.3425    0.0000 C   0  0  0  0  0  0  0  0  0  0  0  0
    7.8598   -8.9925    0.0000 C   0  0  0  0  0  0  0  0  0  0  0  0
    8.5743   -8.5800    0.0000 C   0  0  0  0  0  0  0  0  0  0  0  0
    8.5743   -7.7550    0.0000 C   0  0  0  0  0  0  0  0  0  0  0  0
    7.8598   -7.3425    0.0000 O   0  0  0  0  0  0  0  0  0  0  0  0
    9.2888   -7.3425    0.0000 C   0  0  0  0  0  0  0  0  0  0  0  0
    9.2888   -6.5175    0.0000 C   0  0  0  0  0  0  0  0  0  0  0  0
   10.0032   -7.7550    0.0000 C   0  0  0  0  0  0  0  0  0  0  0  0
   10.7177   -7.3425    0.0000 C   0  0  0  0  0  0  0  0  0  0  0  0
   10.7177   -6.5175    0.0000 C   0  0  0  0  0  0  0  0  0  0  0  0
   10.0032   -6.1050    0.0000 C   0  0  0  0  0  0  0  0  0  0  0  0
    7.8598   -9.8175    0.0000 O   0  0  0  0  0  0  0  0  0  0  0  0
    6.4309   -9.8175    0.0000 O   0  0  0  0  0  0  0  0  0  0  0  0
    5.0019   -7.3425    0.0000 O   0  0  0  0  0  0  0  0  0  0  0  0
    8.5743   -6.1050    0.0000 O   0  0  0  0  0  0  0  0  0  0  0  0
   10.0032   -8.5800    0.0000 O   0  0  0  0  0  0  0  0  0  0  0  0
   10.3904  -10.7383    0.0000 C   0  0  2  0  0  0  0  0  0  0  0  0
   11.2151  -10.7595    0.0000 C   0  0  2  0  0  0  0  0  0  0  0  0
   11.6459  -10.0559    0.0000 C   0  0  1  0  0  0  0  0  0  0  0  0
   11.2519   -9.3311    0.0000 C   0  0  2  0  0  0  0  0  0  0  0  0
   10.4272   -9.3098    0.0000 C   0  0  1  0  0  0  0  0  0  0  0  0
    9.9964  -10.0134    0.0000 O   0  0  0  0  0  0  0  0  0  0  0  0
    9.9596  -11.4419    0.0000 C   0  0  0  0  0  0  0  0  0  0  0  0
   12.4706  -10.0772    0.0000 O   0  0  0  0  0  0  0  0  0  0  0  0
   11.6827   -8.6275    0.0000 O   0  0  0  0  0  0  0  0  0  0  0  0
   11.6090  -11.4844    0.0000 O   0  0  0  0  0  0  0  0  0  0  0  0
   10.3535  -12.1667    0.0000 O   0  0  0  0  0  0  0  0  0  0  0  0
  1  2  2  0  0  0  0
  2  3  1  0  0  0  0
  3  4  2  0  0  0  0
  4  5  1  0  0  0  0
  5  6  2  0  0  0  0
  6  1  1  0  0  0  0
  4  7  1  0  0  0  0
  7  8  1  0  0  0  0
  8  9  2  0  0  0  0
  9 10  1  0  0  0  0
 10  5  1  0  0  0  0
  9 11  1  0  0  0  0
 11 12  1  0  0  0  0
 11 13  2  0  0  0  0
 13 14  1  0  0  0  0
 14 15  2  0  0  0  0
 15 16  1  0  0  0  0
 16 12  2  0  0  0  0
  7 17  2  0  0  0  0
  3 18  1  0  0  0  0
  1 19  1  0  0  0  0
 12 20  1  0  0  0  0
 13 21  1  0  0  0  0
 22 23  1  0  0  0  0
 23 24  1  0  0  0  0
 24 25  1  0  0  0  0
 25 26  1  0  0  0  0
 26 27  1  0  0  0  0
 27 22  1  0  0  0  0
 22 28  1  1  0  0  0
 24 29  1  1  0  0  0
 25 30  1  6  0  0  0
 23 31  1  6  0  0  0
 28 32  1  0  0  0  0
 26 21  1  1  0  0  0
M  END
>  <cdx:fragmentId>
5

$$$$
