15512.cdx
  Mrv1902 05222410212D          

 60 66  0  0  0  0            999 V2000
    1.5502   -7.0331    0.0000 C   0  0  1  0  0  0  0  0  0  0  0  0
    1.5502   -7.8581    0.0000 C   0  0  1  0  0  0  0  0  0  0  0  0
    2.2646   -8.2706    0.0000 C   0  0  2  0  0  0  0  0  0  0  0  0
    2.9791   -7.8581    0.0000 C   0  0  1  0  0  0  0  0  0  0  0  0
    2.9791   -7.0331    0.0000 O   0  0  0  0  0  0  0  0  0  0  0  0
    2.2646   -6.6206    0.0000 C   0  0  2  0  0  0  0  0  0  0  0  0
    3.6936   -8.2706    0.0000 O   0  0  0  0  0  0  0  0  0  0  0  0
    4.4080   -7.8581    0.0000 C   0  0  1  0  0  0  0  0  0  0  0  0
    4.4080   -7.0331    0.0000 C   0  0  1  0  0  0  0  0  0  0  0  0
    3.6936   -6.6206    0.0000 O   0  0  0  0  0  0  0  0  0  0  0  0
    5.1225   -8.2706    0.0000 C   0  0  2  0  0  0  0  0  0  0  0  0
    5.8370   -7.8581    0.0000 C   0  0  1  0  0  0  0  0  0  0  0  0
    5.8370   -7.0331    0.0000 O   0  0  0  0  0  0  0  0  0  0  0  0
    5.1225   -6.6206    0.0000 C   0  0  2  0  0  0  0  0  0  0  0  0
    6.5515   -8.2706    0.0000 O   0  0  0  0  0  0  0  0  0  0  0  0
    7.2659   -7.8581    0.0000 C   0  0  1  0  0  0  0  0  0  0  0  0
    7.2659   -7.0331    0.0000 C   0  0  0  0  0  0  0  0  0  0  0  0
    7.9804   -8.2706    0.0000 C   0  0  1  0  0  0  0  0  0  0  0  0
    8.6949   -7.8581    0.0000 C   0  0  1  0  0  0  0  0  0  0  0  0
    8.6949   -7.0331    0.0000 C   0  0  2  0  0  0  0  0  0  0  0  0
    7.9804   -6.6206    0.0000 C   0  0  0  0  0  0  0  0  0  0  0  0
    9.4093   -8.2706    0.0000 C   0  0  0  0  0  0  0  0  0  0  0  0
   10.1238   -7.8581    0.0000 C   0  0  0  0  0  0  0  0  0  0  0  0
   10.1238   -7.0331    0.0000 C   0  0  2  0  0  0  0  0  0  0  0  0
    9.4093   -6.6206    0.0000 C   0  0  2  0  0  0  0  0  0  0  0  0
   10.8383   -6.6206    0.0000 C   0  0  1  0  0  0  0  0  0  0  0  0
   10.8383   -5.7956    0.0000 C   0  0  0  0  0  0  0  0  0  0  0  0
   10.1238   -5.3831    0.0000 C   0  0  0  0  0  0  0  0  0  0  0  0
    9.4093   -5.7956    0.0000 C   0  0  1  0  0  0  0  0  0  0  0  0
   11.5527   -7.0331    0.0000 C   0  0  0  0  0  0  0  0  0  0  0  0
   12.2672   -6.6206    0.0000 C   0  0  1  0  0  0  0  0  0  0  0  0
   12.2672   -5.7956    0.0000 C   0  0  2  0  0  0  0  0  0  0  0  0
   11.5527   -5.3831    0.0000 C   0  0  1  0  0  0  0  0  0  0  0  0
   12.9817   -5.3831    0.0000 C   0  0  0  0  0  0  0  0  0  0  0  0
   12.9817   -4.5581    0.0000 C   0  0  0  0  0  0  0  0  0  0  0  0
   12.2672   -4.1456    0.0000 C   0  0  1  0  0  0  0  0  0  0  0  0
   11.5527   -4.5581    0.0000 C   0  0  0  0  0  0  0  0  0  0  0  0
    2.9791   -5.3831    0.0000 O   0  0  0  0  0  0  0  0  0  0  0  0
    2.2646   -5.7956    0.0000 C   0  0  0  0  0  0  0  0  0  0  0  0
    8.6949   -5.3831    0.0000 O   0  0  0  0  0  0  0  0  0  0  0  0
    7.9804   -5.7956    0.0000 C   0  0  0  0  0  0  0  0  0  0  0  0
    0.8357   -8.2706    0.0000 O   0  0  0  0  0  0  0  0  0  0  0  0
    5.1225   -5.7956    0.0000 C   0  0  0  0  0  0  0  0  0  0  0  0
    7.5679   -8.9851    0.0000 C   0  0  0  0  0  0  0  0  0  0  0  0
    8.6949   -6.2081    0.0000 C   0  0  0  0  0  0  0  0  0  0  0  0
   10.1238   -6.2081    0.0000 C   0  0  0  0  0  0  0  0  0  0  0  0
   11.5527   -6.2081    0.0000 H   0  0  0  0  0  0  0  0  0  0  0  0
   12.9817   -7.0331    0.0000 O   0  0  0  0  0  0  0  0  0  0  0  0
   12.9817   -6.2081    0.0000 C   0  0  0  0  0  0  0  0  0  0  0  0
   11.8547   -3.4312    0.0000 C   0  0  0  0  0  0  0  0  0  0  0  0
    0.8357   -6.6206    0.0000 O   0  0  0  0  0  0  0  0  0  0  0  0
    2.2646   -9.0956    0.0000 O   0  0  0  0  0  0  0  0  0  0  0  0
    5.1225   -9.0956    0.0000 O   0  0  0  0  0  0  0  0  0  0  0  0
    8.3929   -8.9851    0.0000 C   0  0  0  0  0  0  0  0  0  0  0  0
    8.6949   -8.6831    0.0000 H   0  0  0  0  0  0  0  0  0  0  0  0
    9.4093   -7.4456    0.0000 H   0  0  0  0  0  0  0  0  0  0  0  0
   10.8383   -7.4456    0.0000 C   0  0  0  0  0  0  0  0  0  0  0  0
   12.6797   -3.4312    0.0000 C   0  0  0  0  0  0  0  0  0  0  0  0
    7.9804   -9.6996    0.0000 O   0  0  0  0  0  0  0  0  0  0  0  0
   13.6962   -5.7956    0.0000 O   0  0  0  0  0  0  0  0  0  0  0  0
  1  2  1  0  0  0  0
  2  3  1  0  0  0  0
  3  4  1  0  0  0  0
  4  5  1  0  0  0  0
  5  6  1  0  0  0  0
  6  1  1  0  0  0  0
  4  7  1  1  0  0  0
  8  7  1  1  0  0  0
  8  9  1  0  0  0  0
  9 10  1  1  0  0  0
  8 11  1  0  0  0  0
 11 12  1  0  0  0  0
 12 13  1  0  0  0  0
 13 14  1  0  0  0  0
 14  9  1  0  0  0  0
 12 15  1  1  0  0  0
 16 15  1  1  0  0  0
 16 17  1  0  0  0  0
 16 18  1  0  0  0  0
 18 19  1  0  0  0  0
 19 20  1  0  0  0  0
 20 21  1  0  0  0  0
 21 17  1  0  0  0  0
 19 22  1  0  0  0  0
 22 23  1  0  0  0  0
 23 24  1  0  0  0  0
 24 25  1  0  0  0  0
 25 20  1  0  0  0  0
 24 26  1  0  0  0  0
 26 27  1  0  0  0  0
 27 28  2  0  0  0  0
 28 29  1  0  0  0  0
 29 25  1  0  0  0  0
 26 30  1  0  0  0  0
 30 31  1  0  0  0  0
 31 32  1  0  0  0  0
 32 33  1  0  0  0  0
 33 27  1  0  0  0  0
 32 34  1  0  0  0  0
 34 35  1  0  0  0  0
 35 36  1  0  0  0  0
 36 37  1  0  0  0  0
 37 33  1  0  0  0  0
 38 39  1  0  0  0  0
  6 39  1  1  0  0  0
 29 40  1  6  0  0  0
 40 41  1  0  0  0  0
  2 42  1  1  0  0  0
 14 43  1  1  0  0  0
 18 44  1  1  0  0  0
 20 45  1  1  0  0  0
 24 46  1  1  0  0  0
 33 47  1  1  0  0  0
 31 48  1  1  0  0  0
 32 49  1  1  0  0  0
 36 50  1  1  0  0  0
  1 51  1  6  0  0  0
  3 52  1  6  0  0  0
 11 53  1  6  0  0  0
 18 54  1  6  0  0  0
 19 55  1  6  0  0  0
 25 56  1  6  0  0  0
 26 57  1  6  0  0  0
 36 58  1  6  0  0  0
 54 59  1  0  0  0  0
 49 60  1  0  0  0  0
M  END
>  <cdx:fragmentId>
5

$$$$
