155173.cdx
  Mrv1902 05222410252D          

 20 21  0  0  0  0            999 V2000
    9.2897   -8.5150    0.0000 O   0  0  0  0  0  0  0  0  0  0  0  0
    8.5051   -8.2600    0.0000 C   0  0  1  0  0  0  0  0  0  0  0  0
    8.5051   -7.4350    0.0000 C   0  0  1  0  0  0  0  0  0  0  0  0
    9.2897   -7.1801    0.0000 C   0  0  0  0  0  0  0  0  0  0  0  0
    9.7747   -7.8475    0.0000 C   0  0  0  0  0  0  0  0  0  0  0  0
    7.8601   -6.9206    0.0000 C   0  0  0  0  0  0  0  0  0  0  0  0
    7.0558   -7.1042    0.0000 C   0  0  0  0  0  0  0  0  0  0  0  0
    6.6978   -7.8475    0.0000 C   0  0  0  0  0  0  0  0  0  0  0  0
    7.0558   -8.5908    0.0000 C   0  0  2  0  0  0  0  0  0  0  0  0
    7.8601   -8.7744    0.0000 C   0  0  0  0  0  0  0  0  0  0  0  0
   10.5997   -7.8475    0.0000 O   0  0  0  0  0  0  0  0  0  0  0  0
    4.2228   -7.8475    0.0000 O   0  0  0  0  0  0  0  0  0  0  0  0
    9.5447   -6.3955    0.0000 C   0  0  0  0  0  0  0  0  0  0  0  0
    6.5414   -9.2358    0.0000 C   0  0  0  0  0  0  0  0  0  0  0  0
    8.6524   -6.6233    0.0000 H   0  0  0  0  0  0  0  0  0  0  0  0
    8.6524   -9.0718    0.0000 H   0  0  0  0  0  0  0  0  0  0  0  0
    4.2228   -6.4186    0.0000 C   0  0  0  0  0  0  0  0  0  0  0  0
    4.6353   -7.1331    0.0000 C   0  0  0  0  0  0  0  0  0  0  0  0
    5.4603   -7.1331    0.0000 C   0  0  0  0  0  0  0  0  0  0  0  0
    5.8728   -7.8475    0.0000 C   0  0  0  0  0  0  0  0  0  0  0  0
 18 12  2  0  0  0  0
 18 17  1  0  0  0  0
 19 18  1  0  0  0  0
 20 19  1  0  0  0  0
  1  2  1  0  0  0  0
  2  3  1  0  0  0  0
  3  4  1  0  0  0  0
  4  5  1  0  0  0  0
  1  5  1  0  0  0  0
  6  7  1  0  0  0  0
  7  8  2  0  0  0  0
  8  9  1  0  0  0  0
  9 10  1  0  0  0  0
 10  2  1  0  0  0  0
  6  3  1  0  0  0  0
  5 11  2  0  0  0  0
  8 20  1  0  0  0  0
  4 13  2  0  0  0  0
  9 14  1  6  0  0  0
  3 15  1  1  0  0  0
  2 16  1  1  0  0  0
M  END
>  <cdx:groupId>
2333

>  <cdx:fragmentId>
2275

$$$$
