155248.cdx
  Mrv1902 05222410262D          

 23 25  0  0  0  0            999 V2000
    5.8533   -7.3747    0.0000 O   0  0  0  0  0  0  0  0  0  0  0  0
    5.0506   -7.1362    0.0000 C   0  0  0  0  0  0  0  0  0  0  0  0
    6.3287   -6.7005    0.0000 C   0  0  0  0  0  0  0  0  0  0  0  0
    5.0428   -6.3015    0.0000 C   0  0  0  0  0  0  0  0  0  0  0  0
    4.3379   -7.5689    0.0000 C   0  0  0  0  0  0  0  0  0  0  0  0
    7.1532   -6.6761    0.0000 C   0  0  0  0  0  0  0  0  0  0  0  0
    5.8296   -6.0280    0.0000 C   0  0  0  0  0  0  0  0  0  0  0  0
    4.3225   -5.8996    0.0000 C   0  0  0  0  0  0  0  0  0  0  0  0
    3.6175   -7.1670    0.0000 C   0  0  0  0  0  0  0  0  0  0  0  0
    7.5860   -7.3888    0.0000 C   0  0  0  0  0  0  0  0  0  0  0  0
    7.5551   -5.9558    0.0000 C   0  0  0  0  0  0  0  0  0  0  0  0
    3.6098   -6.3323    0.0000 C   0  0  0  0  0  0  0  0  0  0  0  0
    2.9048   -7.5997    0.0000 O   0  0  0  0  0  0  0  0  0  0  0  0
    8.4105   -7.3646    0.0000 C   0  0  0  0  0  0  0  0  0  0  0  0
    8.3797   -5.9314    0.0000 C   0  0  0  0  0  0  0  0  0  0  0  0
    8.8433   -8.0773    0.0000 O   0  0  0  0  0  0  0  0  0  0  0  0
    8.8124   -6.6441    0.0000 C   0  0  0  0  0  0  0  0  0  0  0  0
    8.7817   -5.2110    0.0000 O   0  0  0  0  0  0  0  0  0  0  0  0
    9.6371   -6.6198    0.0000 C   0  0  0  0  0  0  0  0  0  0  0  0
   10.0390   -5.8994    0.0000 C   0  0  0  0  0  0  0  0  0  0  0  0
   10.8636   -5.8751    0.0000 C   0  0  0  0  0  0  0  0  0  0  0  0
   11.2655   -5.1547    0.0000 C   0  0  0  0  0  0  0  0  0  0  0  0
   11.2963   -6.5878    0.0000 C   0  0  0  0  0  0  0  0  0  0  0  0
  1  2  1  0  0  0  0
  1  3  1  0  0  0  0
  2  4  2  0  0  0  0
  2  5  1  0  0  0  0
  3  6  1  0  0  0  0
  3  7  2  0  0  0  0
  4  8  1  0  0  0  0
  5  9  2  0  0  0  0
  6 10  2  0  0  0  0
  6 11  1  0  0  0  0
  8 12  2  0  0  0  0
  9 13  1  0  0  0  0
 10 14  1  0  0  0  0
 11 15  2  0  0  0  0
 14 16  1  0  0  0  0
 14 17  2  0  0  0  0
 15 18  1  0  0  0  0
 17 19  1  0  0  0  0
 19 20  1  0  0  0  0
 20 21  2  0  0  0  0
 21 22  1  0  0  0  0
 21 23  1  0  0  0  0
  4  7  1  0  0  0  0
  9 12  1  0  0  0  0
 15 17  1  0  0  0  0
M  END
>  <cdx:fragmentId>
2338

$$$$
