15525.cdx
  Mrv1902 05222410232D          

 68 76  0  0  0  0            999 V2000
    7.0845  -10.7289    0.0000 O   0  0  0  0  0  0  0  0  0  0  0  0
    7.7990  -10.3164    0.0000 C   0  0  2  0  0  0  0  0  0  0  0  0
    8.5135  -10.7289    0.0000 C   0  0  1  0  0  0  0  0  0  0  0  0
    9.2279  -10.3164    0.0000 C   0  0  1  0  0  0  0  0  0  0  0  0
    9.2279   -9.4914    0.0000 C   0  0  2  0  0  0  0  0  0  0  0  0
    8.5135   -9.0789    0.0000 C   0  0  0  0  0  0  0  0  0  0  0  0
    7.7990   -9.4914    0.0000 C   0  0  0  0  0  0  0  0  0  0  0  0
    9.9424  -10.7289    0.0000 C   0  0  0  0  0  0  0  0  0  0  0  0
   10.6569  -10.3164    0.0000 C   0  0  0  0  0  0  0  0  0  0  0  0
   10.6569   -9.4914    0.0000 C   0  0  2  0  0  0  0  0  0  0  0  0
    9.9424   -9.0789    0.0000 C   0  0  2  0  0  0  0  0  0  0  0  0
   11.3714   -9.0789    0.0000 C   0  0  1  0  0  0  0  0  0  0  0  0
   11.3714   -8.2539    0.0000 C   0  0  0  0  0  0  0  0  0  0  0  0
   10.6569   -7.8414    0.0000 C   0  0  0  0  0  0  0  0  0  0  0  0
    9.9424   -8.2539    0.0000 C   0  0  0  0  0  0  0  0  0  0  0  0
   12.0858   -9.4914    0.0000 C   0  0  0  0  0  0  0  0  0  0  0  0
   12.8003   -9.0789    0.0000 C   0  0  1  0  0  0  0  0  0  0  0  0
   12.8003   -8.2539    0.0000 C   0  0  0  0  0  0  0  0  0  0  0  0
   12.0858   -7.8414    0.0000 C   0  0  1  0  0  0  0  0  0  0  0  0
   13.5148   -7.8414    0.0000 C   0  0  0  0  0  0  0  0  0  0  0  0
   13.5148   -7.0164    0.0000 C   0  0  0  0  0  0  0  0  0  0  0  0
   12.8003   -6.6039    0.0000 C   0  0  1  0  0  0  0  0  0  0  0  0
   12.0858   -7.0164    0.0000 C   0  0  0  0  0  0  0  0  0  0  0  0
    8.1010  -11.4434    0.0000 C   0  0  0  0  0  0  0  0  0  0  0  0
    9.2279   -8.6664    0.0000 C   0  0  0  0  0  0  0  0  0  0  0  0
   10.6569   -8.6664    0.0000 C   0  0  0  0  0  0  0  0  0  0  0  0
   13.5148   -9.4914    0.0000 O   0  0  0  0  0  0  0  0  0  0  0  0
   12.3878   -5.8895    0.0000 C   0  0  0  0  0  0  0  0  0  0  0  0
    8.9260  -11.4434    0.0000 C   0  0  0  0  0  0  0  0  0  0  0  0
   11.3714   -9.9039    0.0000 C   0  0  0  0  0  0  0  0  0  0  0  0
   13.2128   -5.8895    0.0000 C   0  0  0  0  0  0  0  0  0  0  0  0
   11.3714   -7.4289    0.0000 O   0  0  0  0  0  0  0  0  0  0  0  0
   12.8003   -7.4289    0.0000 C   0  0  0  0  0  0  0  0  0  0  0  0
    5.6673   -9.0793    0.0000 C   0  0  2  0  0  0  0  0  0  0  0  0
    4.9523   -9.4909    0.0000 C   0  0  2  0  0  0  0  0  0  0  0  0
    4.9513  -10.3159    0.0000 C   0  0  1  0  0  0  0  0  0  0  0  0
    5.6653  -10.7293    0.0000 C   0  0  2  0  0  0  0  0  0  0  0  0
    6.3803  -10.3176    0.0000 C   0  0  1  0  0  0  0  0  0  0  0  0
    6.3813   -9.4926    0.0000 O   0  0  0  0  0  0  0  0  0  0  0  0
    5.6683   -8.2543    0.0000 C   0  0  0  0  0  0  0  0  0  0  0  0
    4.2364  -10.7275    0.0000 O   0  0  0  0  0  0  0  0  0  0  0  0
    4.2384   -9.0775    0.0000 O   0  0  0  0  0  0  0  0  0  0  0  0
    5.6643  -11.5543    0.0000 O   0  0  0  0  0  0  0  0  0  0  0  0
    4.9543   -7.8409    0.0000 O   0  0  0  0  0  0  0  0  0  0  0  0
    5.6693   -5.7893    0.0000 C   0  0  2  0  0  0  0  0  0  0  0  0
    4.9561   -5.3746    0.0000 C   0  0  2  0  0  0  0  0  0  0  0  0
    4.2404   -5.7849    0.0000 C   0  0  1  0  0  0  0  0  0  0  0  0
    4.2379   -6.6099    0.0000 C   0  0  2  0  0  0  0  0  0  0  0  0
    4.9511   -7.0246    0.0000 C   0  0  1  0  0  0  0  0  0  0  0  0
    5.6668   -6.6143    0.0000 O   0  0  0  0  0  0  0  0  0  0  0  0
    6.3851   -5.3790    0.0000 C   0  0  0  0  0  0  0  0  0  0  0  0
    3.5272   -5.3703    0.0000 O   0  0  0  0  0  0  0  0  0  0  0  0
    4.9586   -4.5496    0.0000 O   0  0  0  0  0  0  0  0  0  0  0  0
    3.5222   -7.0202    0.0000 O   0  0  0  0  0  0  0  0  0  0  0  0
    6.3876   -4.5540    0.0000 O   0  0  0  0  0  0  0  0  0  0  0  0
    2.1809   -8.3805    0.0000 C   0  0  1  0  0  0  0  0  0  0  0  0
    1.7733   -9.0977    0.0000 C   0  0  1  0  0  0  0  0  0  0  0  0
    2.1906   -9.8094    0.0000 C   0  0  2  0  0  0  0  0  0  0  0  0
    3.0155   -9.8038    0.0000 C   0  0  2  0  0  0  0  0  0  0  0  0
    3.4232   -9.0866    0.0000 C   0  0  1  0  0  0  0  0  0  0  0  0
    3.0059   -8.3749    0.0000 O   0  0  0  0  0  0  0  0  0  0  0  0
    3.4328  -10.5155    0.0000 O   0  0  0  0  0  0  0  0  0  0  0  0
    1.7829  -10.5266    0.0000 O   0  0  0  0  0  0  0  0  0  0  0  0
    1.7636   -7.6688    0.0000 C   0  0  0  0  0  0  0  0  0  0  0  0
    0.9483   -9.1033    0.0000 O   0  0  0  0  0  0  0  0  0  0  0  0
    9.2279  -11.1414    0.0000 H   0  0  0  0  0  0  0  0  0  0  0  0
    9.9424   -9.9039    0.0000 H   0  0  0  0  0  0  0  0  0  0  0  0
   12.0858   -8.6664    0.0000 H   0  0  0  0  0  0  0  0  0  0  0  0
  2  1  1  1  0  0  0
  2  3  1  0  0  0  0
  3  4  1  0  0  0  0
  4  5  1  0  0  0  0
  5  6  1  0  0  0  0
  6  7  1  0  0  0  0
  7  2  1  0  0  0  0
  4  8  1  0  0  0  0
  8  9  1  0  0  0  0
  9 10  1  0  0  0  0
 10 11  1  0  0  0  0
 11  5  1  0  0  0  0
 10 12  1  0  0  0  0
 12 13  1  0  0  0  0
 13 14  1  0  0  0  0
 14 15  2  0  0  0  0
 15 11  1  0  0  0  0
 12 16  1  0  0  0  0
 16 17  1  0  0  0  0
 17 18  1  0  0  0  0
 18 19  1  0  0  0  0
 19 13  1  0  0  0  0
 18 20  1  0  0  0  0
 20 21  1  0  0  0  0
 21 22  1  0  0  0  0
 22 23  1  0  0  0  0
 23 19  1  0  0  0  0
  3 24  1  1  0  0  0
  5 25  1  1  0  0  0
 10 26  1  1  0  0  0
 17 27  1  1  0  0  0
 22 28  1  1  0  0  0
  3 29  1  6  0  0  0
 12 30  1  6  0  0  0
 22 31  1  6  0  0  0
 13 32  1  0  0  0  0
 18 33  1  0  0  0  0
 33 32  1  0  0  0  0
 34 35  1  0  0  0  0
 35 36  1  0  0  0  0
 36 37  1  0  0  0  0
 37 38  1  0  0  0  0
 38 39  1  0  0  0  0
 39 34  1  0  0  0  0
 34 40  1  1  0  0  0
 36 41  1  1  0  0  0
 35 42  1  6  0  0  0
 37 43  1  6  0  0  0
 40 44  1  0  0  0  0
 45 46  1  0  0  0  0
 46 47  1  0  0  0  0
 47 48  1  0  0  0  0
 48 49  1  0  0  0  0
 49 50  1  0  0  0  0
 50 45  1  0  0  0  0
 45 51  1  1  0  0  0
 47 52  1  1  0  0  0
 46 53  1  6  0  0  0
 48 54  1  6  0  0  0
 51 55  1  0  0  0  0
 49 44  1  1  0  0  0
 56 57  1  0  0  0  0
 57 58  1  0  0  0  0
 58 59  1  0  0  0  0
 59 60  1  0  0  0  0
 60 61  1  0  0  0  0
 61 56  1  0  0  0  0
 59 62  1  6  0  0  0
 58 63  1  6  0  0  0
 56 64  1  6  0  0  0
 57 65  1  1  0  0  0
 60 42  1  1  0  0  0
 38  1  1  1  0  0  0
  4 66  1  6  0  0  0
 11 67  1  6  0  0  0
 19 68  1  1  0  0  0
M  END
>  <cdx:fragmentId>
424

$$$$
