155332.cdx
  Mrv1902 05222410192D          

 36 37  0  0  0  0            999 V2000
    6.6603   -7.1200    0.0000 C   0  0  0  0  0  0  0  0  0  0  0  0
    6.2425   -7.8314    0.0000 C   0  0  0  0  0  0  0  0  0  0  0  0
    6.6498   -8.5489    0.0000 C   0  0  0  0  0  0  0  0  0  0  0  0
    7.4747   -8.5550    0.0000 C   0  0  0  0  0  0  0  0  0  0  0  0
    7.8925   -7.8436    0.0000 C   0  0  0  0  0  0  0  0  0  0  0  0
    7.4852   -7.1261    0.0000 C   0  0  0  0  0  0  0  0  0  0  0  0
    8.7175   -7.8496    0.0000 O   0  0  0  0  0  0  0  0  0  0  0  0
    9.1352   -7.1382    0.0000 C   0  0  2  0  0  0  0  0  0  0  0  0
    9.9602   -7.1473    0.0000 O   0  0  0  0  0  0  0  0  0  0  0  0
   10.3805   -6.4374    0.0000 C   0  0  1  0  0  0  0  0  0  0  0  0
    9.9602   -5.7185    0.0000 C   0  0  2  0  0  0  0  0  0  0  0  0
    9.1352   -5.7185    0.0000 C   0  0  1  0  0  0  0  0  0  0  0  0
    8.7149   -6.4374    0.0000 C   0  0  1  0  0  0  0  0  0  0  0  0
   11.2055   -6.4397    0.0000 C   0  0  0  0  0  0  0  0  0  0  0  0
    8.7247   -5.0029    0.0000 O   0  0  0  0  0  0  0  0  0  0  0  0
   10.3707   -5.0029    0.0000 O   0  0  0  0  0  0  0  0  0  0  0  0
    7.8899   -6.4421    0.0000 O   0  0  0  0  0  0  0  0  0  0  0  0
   11.6200   -5.7264    0.0000 O   0  0  0  0  0  0  0  0  0  0  0  0
    5.4175   -7.8254    0.0000 C   0  0  0  0  0  0  0  0  0  0  0  0
    4.9998   -8.5368    0.0000 O   0  0  0  0  0  0  0  0  0  0  0  0
    4.1748   -8.5307    0.0000 C   0  0  0  0  0  0  0  0  0  0  0  0
    3.7571   -9.2421    0.0000 C   0  0  1  0  0  0  0  0  0  0  0  0
    3.7676   -7.8132    0.0000 O   0  0  0  0  0  0  0  0  0  0  0  0
    4.4715   -9.6546    0.0000 O   0  0  0  0  0  0  0  0  0  0  0  0
    3.0426   -8.8296    0.0000 C   0  0  0  0  0  0  0  0  0  0  0  0
    3.3446   -9.9566    0.0000 C   0  0  0  0  0  0  0  0  0  0  0  0
    2.3281   -9.2421    0.0000 C   0  0  0  0  0  0  0  0  0  0  0  0
    1.6137   -8.8296    0.0000 C   0  0  0  0  0  0  0  0  0  0  0  0
    2.3281  -10.0671    0.0000 C   0  0  0  0  0  0  0  0  0  0  0  0
    3.7571  -10.6710    0.0000 C   0  0  0  0  0  0  0  0  0  0  0  0
    3.3446  -11.3855    0.0000 O   0  0  0  0  0  0  0  0  0  0  0  0
    4.5821  -10.6710    0.0000 O   0  0  0  0  0  0  0  0  0  0  0  0
    4.9946  -11.3855    0.0000 C   0  0  0  0  0  0  0  0  0  0  0  0
    5.8196  -11.3855    0.0000 C   0  0  0  0  0  0  0  0  0  0  0  0
    6.2321  -12.1000    0.0000 C   0  0  0  0  0  0  0  0  0  0  0  0
    7.0571  -12.1000    0.0000 C   0  0  0  0  0  0  0  0  0  0  0  0
  1  2  2  0  0  0  0
  2  3  1  0  0  0  0
  3  4  2  0  0  0  0
  4  5  1  0  0  0  0
  5  6  2  0  0  0  0
  6  1  1  0  0  0  0
  5  7  1  0  0  0  0
  8  7  1  1  0  0  0
  8  9  1  0  0  0  0
  9 10  1  0  0  0  0
 10 11  1  0  0  0  0
 11 12  1  0  0  0  0
 12 13  1  0  0  0  0
 13  8  1  0  0  0  0
 10 14  1  1  0  0  0
 12 15  1  1  0  0  0
 11 16  1  6  0  0  0
 13 17  1  6  0  0  0
 14 18  1  0  0  0  0
  2 19  1  0  0  0  0
 19 20  1  0  0  0  0
 20 21  1  0  0  0  0
 21 22  1  0  0  0  0
 21 23  2  0  0  0  0
 22 24  1  1  0  0  0
 22 25  1  1  0  0  0
 22 26  1  0  0  0  0
 25 27  1  0  0  0  0
 27 28  1  0  0  0  0
 27 29  1  0  0  0  0
 26 30  1  0  0  0  0
 30 31  2  0  0  0  0
 30 32  1  0  0  0  0
 32 33  1  0  0  0  0
 33 34  1  0  0  0  0
 34 35  1  0  0  0  0
 35 36  1  0  0  0  0
M  END
>  <cdx:fragmentId>
147179

$$$$
