155331.cdx
  Mrv1902 05222410202D          

 27 30  0  0  0  0            999 V2000
    8.1499   -6.4911    0.0000 H   0  0  0  0  0  0  0  0  0  0  0  0
    8.8234   -6.5610    0.0000 O   0  0  0  0  0  0  0  0  0  0  0  0
    8.4090   -7.2744    0.0000 C   0  0  1  0  0  0  0  0  0  0  0  0
    8.9595   -7.8889    0.0000 C   0  0  0  0  0  0  0  0  0  0  0  0
    9.7140   -7.5553    0.0000 C   0  0  1  0  0  0  0  0  0  0  0  0
    9.6299   -6.7346    0.0000 C   0  0  0  0  0  0  0  0  0  0  0  0
    4.6882   -7.3901    0.0000 C   0  0  0  0  0  0  0  0  0  0  0  0
   10.2444   -6.1841    0.0000 O   0  0  0  0  0  0  0  0  0  0  0  0
   10.4274   -7.9696    0.0000 C   0  0  0  0  0  0  0  0  0  0  0  0
    6.2834   -7.0776    0.0000 C   0  0  0  0  0  0  0  0  0  0  0  0
    7.0379   -6.7440    0.0000 C   0  0  0  0  0  0  0  0  0  0  0  0
    7.5883   -7.3585    0.0000 C   0  0  2  0  0  0  0  0  0  0  0  0
    7.1740   -8.0719    0.0000 N   0  0  0  0  0  0  0  0  0  0  0  0
    7.5411   -8.8107    0.0000 C   0  0  0  0  0  0  0  0  0  0  0  0
    7.1924   -9.5584    0.0000 C   0  0  0  0  0  0  0  0  0  0  0  0
    6.3904   -9.7519    0.0000 C   0  0  0  0  0  0  0  0  0  0  0  0
    5.7391   -9.2455    0.0000 C   0  0  1  0  0  0  0  0  0  0  0  0
    4.9577   -9.5102    0.0000 O   0  0  0  0  0  0  0  0  0  0  0  0
    4.4645   -8.8488    0.0000 C   0  0  0  0  0  0  0  0  0  0  0  0
    4.9412   -8.1754    0.0000 C   0  0  2  0  0  0  0  0  0  0  0  0
    5.7289   -8.4206    0.0000 C   0  0  2  0  0  0  0  0  0  0  0  0
    6.3675   -7.8983    0.0000 C   0  0  2  0  0  0  0  0  0  0  0  0
    3.6396   -8.8590    0.0000 O   0  0  0  0  0  0  0  0  0  0  0  0
    5.5154   -7.6237    0.0000 H   0  0  0  0  0  0  0  0  0  0  0  0
    5.7493  -10.0705    0.0000 H   0  0  0  0  0  0  0  0  0  0  0  0
    5.7841   -7.3149    0.0000 H   0  0  0  0  0  0  0  0  0  0  0  0
    7.5408   -6.5349    0.0000 H   0  0  0  0  0  0  0  0  0  0  0  0
 20  7  1  1  0  0  0
 12  3  1  0  0  0  0
  3  1  1  6  0  0  0
 21 17  1  0  0  0  0
 22 13  1  0  0  0  0
 22 10  1  0  0  0  0
 11 10  1  0  0  0  0
 12 11  1  0  0  0  0
 13 12  1  0  0  0  0
 14 13  1  0  0  0  0
 15 14  1  0  0  0  0
 16 15  1  0  0  0  0
 17 16  1  0  0  0  0
 18 17  1  0  0  0  0
 19 18  1  0  0  0  0
 20 19  1  0  0  0  0
 21 20  1  0  0  0  0
 22 21  1  0  0  0  0
  2  3  1  0  0  0  0
  3  4  1  0  0  0  0
  4  5  1  0  0  0  0
  5  6  1  0  0  0  0
  2  6  1  0  0  0  0
 19 23  2  0  0  0  0
 21 24  1  1  0  0  0
 17 25  1  6  0  0  0
 22 26  1  1  0  0  0
 12 27  1  6  0  0  0
  6  8  2  0  0  0  0
  5  9  1  1  0  0  0
M  END
>  <cdx:fragmentId>
2467

$$$$
