155381.cdx
  Mrv1902 05222410212D          

 26 28  0  0  0  0            999 V2000
   16.9406  -12.5228    0.0000 C   0  0  0  0  0  0  0  0  0  0  0  0
   17.6551  -12.9353    0.0000 C   0  0  0  0  0  0  0  0  0  0  0  0
   17.6551  -13.7603    0.0000 C   0  0  0  0  0  0  0  0  0  0  0  0
   16.9406  -14.1728    0.0000 C   0  0  0  0  0  0  0  0  0  0  0  0
   16.2262  -13.7603    0.0000 C   0  0  0  0  0  0  0  0  0  0  0  0
   15.5117  -14.1728    0.0000 C   0  0  0  0  0  0  0  0  0  0  0  0
   14.7972  -13.7603    0.0000 C   0  0  0  0  0  0  0  0  0  0  0  0
   14.0828  -14.1728    0.0000 C   0  0  0  0  0  0  0  0  0  0  0  0
   13.3683  -13.7603    0.0000 C   0  0  0  0  0  0  0  0  0  0  0  0
   13.3683  -12.9353    0.0000 C   0  0  0  0  0  0  0  0  0  0  0  0
   14.0828  -12.5228    0.0000 C   0  0  0  0  0  0  0  0  0  0  0  0
   14.7972  -12.9353    0.0000 C   0  0  0  0  0  0  0  0  0  0  0  0
   15.5117  -12.5228    0.0000 C   0  0  0  0  0  0  0  0  0  0  0  0
   16.2262  -12.9353    0.0000 C   0  0  0  0  0  0  0  0  0  0  0  0
   15.5117  -11.6978    0.0000 O   0  0  0  0  0  0  0  0  0  0  0  0
   15.5117  -14.9978    0.0000 O   0  0  0  0  0  0  0  0  0  0  0  0
   18.3696  -14.1728    0.0000 C   0  0  0  0  0  0  0  0  0  0  0  0
   14.0828  -11.6978    0.0000 O   0  0  0  0  0  0  0  0  0  0  0  0
   13.3683  -11.2853    0.0000 C   0  0  0  0  0  0  0  0  0  0  0  0
   12.6538  -12.5228    0.0000 O   0  0  0  0  0  0  0  0  0  0  0  0
   11.9393  -12.9353    0.0000 C   0  0  0  0  0  0  0  0  0  0  0  0
   12.6538  -14.1728    0.0000 O   0  0  0  0  0  0  0  0  0  0  0  0
   11.9393  -13.7603    0.0000 C   0  0  0  0  0  0  0  0  0  0  0  0
   16.9406  -11.6978    0.0000 O   0  0  0  0  0  0  0  0  0  0  0  0
   17.6551  -11.2853    0.0000 C   0  0  0  0  0  0  0  0  0  0  0  0
   18.3696  -12.5228    0.0000 O   0  0  0  0  0  0  0  0  0  0  0  0
  1  2  1  0  0  0  0
  2  3  2  0  0  0  0
  3  4  1  0  0  0  0
  4  5  2  0  0  0  0
  5  6  1  0  0  0  0
  6  7  1  0  0  0  0
  7  8  1  0  0  0  0
  8  9  2  0  0  0  0
  9 10  1  0  0  0  0
 10 11  2  0  0  0  0
 11 12  1  0  0  0  0
  7 12  2  0  0  0  0
 12 13  1  0  0  0  0
 13 14  1  0  0  0  0
  5 14  1  0  0  0  0
  1 14  2  0  0  0  0
 13 15  2  0  0  0  0
  6 16  2  0  0  0  0
  3 17  1  0  0  0  0
 18 19  1  0  0  0  0
 11 18  1  0  0  0  0
 20 21  1  0  0  0  0
 10 20  1  0  0  0  0
 22 23  1  0  0  0  0
  9 22  1  0  0  0  0
 24 25  1  0  0  0  0
  1 24  1  0  0  0  0
  2 26  1  0  0  0  0
M  END
>  <cdx:groupId>
2700

>  <cdx:fragmentId>
2623

$$$$
