155380.cdx
  Mrv1902 05222410202D          

 25 27  0  0  0  0            999 V2000
   14.7972  -12.9553    0.0000 C   0  0  0  0  0  0  0  0  0  0  0  0
   14.7972  -13.7803    0.0000 C   0  0  0  0  0  0  0  0  0  0  0  0
   15.5117  -14.1928    0.0000 C   0  0  0  0  0  0  0  0  0  0  0  0
   16.2262  -13.7803    0.0000 C   0  0  0  0  0  0  0  0  0  0  0  0
   16.2262  -12.9553    0.0000 C   0  0  0  0  0  0  0  0  0  0  0  0
   15.5117  -12.5428    0.0000 C   0  0  0  0  0  0  0  0  0  0  0  0
   15.5117  -11.7178    0.0000 O   0  0  0  0  0  0  0  0  0  0  0  0
   15.5117  -15.0178    0.0000 O   0  0  0  0  0  0  0  0  0  0  0  0
   16.9406  -14.1928    0.0000 C   0  0  0  0  0  0  0  0  0  0  0  0
   17.6551  -13.7803    0.0000 C   0  0  0  0  0  0  0  0  0  0  0  0
   17.6551  -12.9553    0.0000 C   0  0  0  0  0  0  0  0  0  0  0  0
   16.9406  -12.5428    0.0000 C   0  0  0  0  0  0  0  0  0  0  0  0
   14.0828  -12.5428    0.0000 C   0  0  0  0  0  0  0  0  0  0  0  0
   13.3683  -12.9553    0.0000 C   0  0  0  0  0  0  0  0  0  0  0  0
   13.3683  -13.7803    0.0000 C   0  0  0  0  0  0  0  0  0  0  0  0
   14.0828  -14.1928    0.0000 C   0  0  0  0  0  0  0  0  0  0  0  0
   14.0828  -15.0178    0.0000 O   0  0  0  0  0  0  0  0  0  0  0  0
   12.6538  -14.1928    0.0000 O   0  0  0  0  0  0  0  0  0  0  0  0
   11.9393  -13.7803    0.0000 C   0  0  0  0  0  0  0  0  0  0  0  0
   12.6538  -12.5428    0.0000 O   0  0  0  0  0  0  0  0  0  0  0  0
   11.9393  -12.9553    0.0000 C   0  0  0  0  0  0  0  0  0  0  0  0
   18.3696  -12.5428    0.0000 C   0  0  0  0  0  0  0  0  0  0  0  0
   18.3696  -14.1928    0.0000 O   0  0  0  0  0  0  0  0  0  0  0  0
   16.9406  -15.0178    0.0000 O   0  0  0  0  0  0  0  0  0  0  0  0
   17.6551  -15.4303    0.0000 C   0  0  0  0  0  0  0  0  0  0  0  0
  1  2  2  0  0  0  0
  2  3  1  0  0  0  0
  3  4  1  0  0  0  0
  4  5  2  0  0  0  0
  5  6  1  0  0  0  0
  6  1  1  0  0  0  0
  6  7  2  0  0  0  0
  3  8  2  0  0  0  0
  4  9  1  0  0  0  0
  9 10  2  0  0  0  0
 10 11  1  0  0  0  0
 11 12  2  0  0  0  0
 12  5  1  0  0  0  0
  1 13  1  0  0  0  0
 13 14  2  0  0  0  0
 14 15  1  0  0  0  0
 15 16  2  0  0  0  0
 16  2  1  0  0  0  0
 16 17  1  0  0  0  0
 15 18  1  0  0  0  0
 18 19  1  0  0  0  0
 14 20  1  0  0  0  0
 20 21  1  0  0  0  0
 11 22  1  0  0  0  0
 10 23  1  0  0  0  0
  9 24  1  0  0  0  0
 24 25  1  0  0  0  0
M  END
>  <cdx:fragmentId>
2561

$$$$
