1554.cdx
  Mrv1902 05222410222D          

 20 22  0  0  0  0            999 V2000
    5.2695   -7.3150    0.0000 C   0  0  0  0  0  0  0  0  0  0  0  0
    5.2695   -8.1400    0.0000 C   0  0  0  0  0  0  0  0  0  0  0  0
    5.9840   -8.5525    0.0000 C   0  0  0  0  0  0  0  0  0  0  0  0
    6.6985   -8.1400    0.0000 C   0  0  0  0  0  0  0  0  0  0  0  0
    6.6985   -7.3150    0.0000 C   0  0  0  0  0  0  0  0  0  0  0  0
    5.9840   -6.9025    0.0000 C   0  0  0  0  0  0  0  0  0  0  0  0
    7.4129   -8.5525    0.0000 C   0  0  0  0  0  0  0  0  0  0  0  0
    8.1274   -8.1400    0.0000 C   0  0  0  0  0  0  0  0  0  0  0  0
    8.1274   -7.3150    0.0000 C   0  0  2  0  0  0  0  0  0  0  0  0
    7.4129   -6.9025    0.0000 O   0  0  0  0  0  0  0  0  0  0  0  0
    8.8419   -6.9025    0.0000 C   0  0  0  0  0  0  0  0  0  0  0  0
    8.8419   -6.0775    0.0000 C   0  0  0  0  0  0  0  0  0  0  0  0
    9.5564   -7.3150    0.0000 C   0  0  0  0  0  0  0  0  0  0  0  0
   10.2708   -6.9025    0.0000 C   0  0  0  0  0  0  0  0  0  0  0  0
   10.2708   -6.0775    0.0000 C   0  0  0  0  0  0  0  0  0  0  0  0
    9.5564   -5.6650    0.0000 C   0  0  0  0  0  0  0  0  0  0  0  0
    4.5551   -6.9025    0.0000 O   0  0  0  0  0  0  0  0  0  0  0  0
    5.9840   -9.3775    0.0000 O   0  0  0  0  0  0  0  0  0  0  0  0
    4.5551   -8.5525    0.0000 C   0  0  0  0  0  0  0  0  0  0  0  0
    6.6985   -9.7900    0.0000 C   0  0  0  0  0  0  0  0  0  0  0  0
  1  2  2  0  0  0  0
  2  3  1  0  0  0  0
  3  4  2  0  0  0  0
  4  5  1  0  0  0  0
  5  6  2  0  0  0  0
  6  1  1  0  0  0  0
  4  7  1  0  0  0  0
  7  8  1  0  0  0  0
  8  9  1  0  0  0  0
  9 10  1  0  0  0  0
 10  5  1  0  0  0  0
  9 11  1  6  0  0  0
 11 12  1  0  0  0  0
 11 13  2  0  0  0  0
 13 14  1  0  0  0  0
 14 15  2  0  0  0  0
 15 16  1  0  0  0  0
 16 12  2  0  0  0  0
  1 17  1  0  0  0  0
  3 18  1  0  0  0  0
  2 19  1  0  0  0  0
 18 20  1  0  0  0  0
M  END
>  <cdx:fragmentId>
5

$$$$
