15549.cdx
  Mrv1902 05222410192D          

 67 74  0  0  0  0            999 V2000
    4.7222   -7.2547    0.0000 O   0  0  0  0  0  0  0  0  0  0  0  0
    4.0078   -7.6672    0.0000 C   0  0  2  0  0  0  0  0  0  0  0  0
    3.2933   -7.2547    0.0000 C   0  0  1  0  0  0  0  0  0  0  0  0
    3.2933   -6.4297    0.0000 C   0  0  1  0  0  0  0  0  0  0  0  0
    4.0078   -6.0172    0.0000 C   0  0  2  0  0  0  0  0  0  0  0  0
    4.7222   -6.4297    0.0000 C   0  0  2  0  0  0  0  0  0  0  0  0
    2.5788   -7.6672    0.0000 O   0  0  0  0  0  0  0  0  0  0  0  0
    2.5788   -6.0172    0.0000 O   0  0  0  0  0  0  0  0  0  0  0  0
    4.0078   -5.1922    0.0000 O   0  0  0  0  0  0  0  0  0  0  0  0
    5.4367   -6.0172    0.0000 C   0  0  0  0  0  0  0  0  0  0  0  0
    4.0078   -8.4922    0.0000 O   0  0  0  0  0  0  0  0  0  0  0  0
    5.4367  -10.1422    0.0000 O   0  0  0  0  0  0  0  0  0  0  0  0
    4.7222   -9.7297    0.0000 C   0  0  1  0  0  0  0  0  0  0  0  0
    4.7222   -8.9047    0.0000 C   0  0  2  0  0  0  0  0  0  0  0  0
    5.4367   -8.4922    0.0000 C   0  0  1  0  0  0  0  0  0  0  0  0
    6.1512   -8.9047    0.0000 C   0  0  2  0  0  0  0  0  0  0  0  0
    6.1512   -9.7297    0.0000 C   0  0  2  0  0  0  0  0  0  0  0  0
    4.0078  -10.1422    0.0000 C   0  0  0  0  0  0  0  0  0  0  0  0
    3.2933   -9.7297    0.0000 O   0  0  0  0  0  0  0  0  0  0  0  0
    1.8644   -9.7297    0.0000 O   0  0  0  0  0  0  0  0  0  0  0  0
    2.5788  -10.1422    0.0000 C   0  0  2  0  0  0  0  0  0  0  0  0
    2.5788  -10.9672    0.0000 C   0  0  1  0  0  0  0  0  0  0  0  0
    1.8644  -11.3797    0.0000 C   0  0  2  0  0  0  0  0  0  0  0  0
    1.1499  -10.9672    0.0000 C   0  0  1  0  0  0  0  0  0  0  0  0
    1.1499  -10.1422    0.0000 C   0  0  1  0  0  0  0  0  0  0  0  0
    0.4354   -9.7297    0.0000 C   0  0  0  0  0  0  0  0  0  0  0  0
    0.4354  -11.3797    0.0000 O   0  0  0  0  0  0  0  0  0  0  0  0
    1.8644  -12.2047    0.0000 O   0  0  0  0  0  0  0  0  0  0  0  0
    3.2933  -11.3797    0.0000 O   0  0  0  0  0  0  0  0  0  0  0  0
    6.8656   -8.4922    0.0000 O   0  0  0  0  0  0  0  0  0  0  0  0
    5.4367   -7.6672    0.0000 O   0  0  0  0  0  0  0  0  0  0  0  0
    6.8656  -10.1422    0.0000 O   0  0  0  0  0  0  0  0  0  0  0  0
    8.2946   -8.4922    0.0000 C   0  0  0  0  0  0  0  0  0  0  0  0
    7.5801   -8.9047    0.0000 C   0  0  0  0  0  0  0  0  0  0  0  0
    7.5801   -9.7297    0.0000 C   0  0  1  0  0  0  0  0  0  0  0  0
    8.2946  -10.1422    0.0000 C   0  0  2  0  0  0  0  0  0  0  0  0
    9.0091   -9.7297    0.0000 C   0  0  2  0  0  0  0  0  0  0  0  0
    9.7235  -10.1422    0.0000 C   0  0  0  0  0  0  0  0  0  0  0  0
   10.4380   -9.7297    0.0000 C   0  0  0  0  0  0  0  0  0  0  0  0
   10.4380   -8.9047    0.0000 C   0  0  1  0  0  0  0  0  0  0  0  0
   11.1525   -8.4922    0.0000 C   0  0  2  0  0  0  0  0  0  0  0  0
   11.8669   -8.9047    0.0000 C   0  0  0  0  0  0  0  0  0  0  0  0
   12.5814   -8.4922    0.0000 C   0  0  1  0  0  0  0  0  0  0  0  0
   12.5814   -7.6672    0.0000 C   0  0  1  0  0  0  0  0  0  0  0  0
   13.2959   -7.2547    0.0000 C   0  0  0  0  0  0  0  0  0  0  0  0
   13.2959   -6.4297    0.0000 C   0  0  0  0  0  0  0  0  0  0  0  0
   12.5814   -6.0172    0.0000 C   0  0  1  0  0  0  0  0  0  0  0  0
   11.8669   -6.4297    0.0000 C   0  0  0  0  0  0  0  0  0  0  0  0
   11.8669   -7.2547    0.0000 C   0  0  0  0  0  0  0  0  0  0  0  0
   11.1525   -7.6672    0.0000 C   0  0  0  0  0  0  0  0  0  0  0  0
   10.4380   -7.2547    0.0000 C   0  0  0  0  0  0  0  0  0  0  0  0
    9.7235   -7.6672    0.0000 C   0  0  0  0  0  0  0  0  0  0  0  0
    9.7235   -8.4922    0.0000 C   0  0  2  0  0  0  0  0  0  0  0  0
    9.0091   -8.9047    0.0000 C   0  0  1  0  0  0  0  0  0  0  0  0
    9.0091   -8.0797    0.0000 C   0  0  0  0  0  0  0  0  0  0  0  0
   12.1689   -5.3028    0.0000 C   0  0  0  0  0  0  0  0  0  0  0  0
   12.9939   -5.3028    0.0000 C   0  0  0  0  0  0  0  0  0  0  0  0
   11.1525   -9.3172    0.0000 C   0  0  0  0  0  0  0  0  0  0  0  0
   10.4380   -8.0797    0.0000 C   0  0  0  0  0  0  0  0  0  0  0  0
    8.7071  -10.8567    0.0000 C   0  0  0  0  0  0  0  0  0  0  0  0
    7.8821  -10.8567    0.0000 C   0  0  0  0  0  0  0  0  0  0  0  0
   13.2959   -8.0797    0.0000 C   0  0  0  0  0  0  0  0  0  0  0  0
   14.0104   -7.6672    0.0000 O   0  0  0  0  0  0  0  0  0  0  0  0
   13.2959   -8.9047    0.0000 O   0  0  0  0  0  0  0  0  0  0  0  0
    0.4354   -8.9047    0.0000 O   0  0  0  0  0  0  0  0  0  0  0  0
    9.0091  -10.5547    0.0000 H   0  0  0  0  0  0  0  0  0  0  0  0
    9.7235   -9.3172    0.0000 H   0  0  0  0  0  0  0  0  0  0  0  0
  1  2  1  0  0  0  0
  2  3  1  0  0  0  0
  3  4  1  0  0  0  0
  4  5  1  0  0  0  0
  5  6  1  0  0  0  0
  1  6  1  0  0  0  0
  3  7  1  6  0  0  0
  4  8  1  6  0  0  0
  5  9  1  1  0  0  0
  6 10  1  6  0  0  0
 12 13  1  0  0  0  0
 13 14  1  0  0  0  0
 14 15  1  0  0  0  0
 15 16  1  0  0  0  0
 16 17  1  0  0  0  0
 12 17  1  0  0  0  0
 20 21  1  0  0  0  0
 21 22  1  0  0  0  0
 22 23  1  0  0  0  0
 23 24  1  0  0  0  0
 24 25  1  0  0  0  0
 20 25  1  0  0  0  0
 25 26  1  1  0  0  0
 24 27  1  6  0  0  0
 23 28  1  1  0  0  0
 22 29  1  6  0  0  0
 21 19  1  1  0  0  0
 18 19  1  0  0  0  0
 13 18  1  6  0  0  0
 16 30  1  1  0  0  0
 15 31  1  6  0  0  0
 33 34  1  0  0  0  0
 34 35  1  0  0  0  0
 35 36  1  0  0  0  0
 36 37  1  0  0  0  0
 37 38  1  0  0  0  0
 38 39  1  0  0  0  0
 39 40  1  0  0  0  0
 40 41  1  0  0  0  0
 41 42  1  0  0  0  0
 42 43  1  0  0  0  0
 43 44  1  0  0  0  0
 44 45  1  0  0  0  0
 45 46  1  0  0  0  0
 46 47  1  0  0  0  0
 47 48  1  0  0  0  0
 48 49  1  0  0  0  0
 44 49  1  0  0  0  0
 49 50  2  0  0  0  0
 41 50  1  0  0  0  0
 50 51  1  0  0  0  0
 51 52  2  0  0  0  0
 52 53  1  0  0  0  0
 40 53  1  0  0  0  0
 53 54  1  0  0  0  0
 37 54  1  0  0  0  0
 33 54  1  0  0  0  0
 54 55  1  1  0  0  0
 47 56  1  1  0  0  0
 47 57  1  6  0  0  0
 41 58  1  6  0  0  0
 40 59  1  1  0  0  0
 36 60  1  6  0  0  0
 36 61  1  1  0  0  0
 62 63  1  0  0  0  0
 44 62  1  1  0  0  0
 43 64  1  1  0  0  0
 35 32  1  1  0  0  0
 17 32  1  6  0  0  0
 14 11  1  1  0  0  0
  2 11  1  1  0  0  0
 26 65  1  0  0  0  0
 37 66  1  6  0  0  0
 53 67  1  6  0  0  0
M  END
>  <cdx:fragmentId>
71

$$$$
