155551.cdx
  Mrv1902 05222410202D          

 39 46  0  0  0  0            999 V2000
    8.6103  -11.1030    0.0000 C   0  0  0  0  0  0  0  0  0  0  0  0
    9.3949  -10.8480    0.0000 C   0  0  0  0  0  0  0  0  0  0  0  0
    9.8798  -11.5155    0.0000 O   0  0  0  0  0  0  0  0  0  0  0  0
    9.3949  -12.1829    0.0000 C   0  0  0  0  0  0  0  0  0  0  0  0
    8.6103  -11.9280    0.0000 C   0  0  0  0  0  0  0  0  0  0  0  0
    8.0269  -12.5113    0.0000 C   0  0  0  0  0  0  0  0  0  0  0  0
    7.2019  -12.5113    0.0000 C   0  0  0  0  0  0  0  0  0  0  0  0
    6.6185  -11.9280    0.0000 C   0  0  0  0  0  0  0  0  0  0  0  0
    5.9041  -12.3405    0.0000 C   0  0  0  0  0  0  0  0  0  0  0  0
    5.9041  -13.1655    0.0000 C   0  0  0  0  0  0  0  0  0  0  0  0
    5.1896  -13.5780    0.0000 C   0  0  0  0  0  0  0  0  0  0  0  0
    4.4751  -13.1655    0.0000 C   0  0  0  0  0  0  0  0  0  0  0  0
    4.4751  -12.3405    0.0000 C   0  0  0  0  0  0  0  0  0  0  0  0
    5.1896  -11.9280    0.0000 C   0  0  0  0  0  0  0  0  0  0  0  0
    5.1896  -11.1030    0.0000 C   0  0  0  0  0  0  0  0  0  0  0  0
    5.9041  -10.6905    0.0000 C   0  0  0  0  0  0  0  0  0  0  0  0
    6.6185  -11.1030    0.0000 C   0  0  0  0  0  0  0  0  0  0  0  0
    7.2019  -10.5196    0.0000 C   0  0  0  0  0  0  0  0  0  0  0  0
    6.7327   -9.3658    0.0000 O   0  0  0  0  0  0  0  0  0  0  0  0
    7.3089   -8.7752    0.0000 C   0  0  0  0  0  0  0  0  0  0  0  0
    8.1299   -8.8575    0.0000 C   0  0  0  0  0  0  0  0  0  0  0  0
    9.1191   -8.4396    0.0000 C   0  0  0  0  0  0  0  0  0  0  0  0
    9.9737   -9.0875    0.0000 O   0  0  0  0  0  0  0  0  0  0  0  0
    9.8365  -10.1512    0.0000 C   0  0  0  0  0  0  0  0  0  0  0  0
    9.3967   -9.4531    0.0000 C   0  0  0  0  0  0  0  0  0  0  0  0
    8.5775   -9.5507    0.0000 C   0  0  0  0  0  0  0  0  0  0  0  0
    8.3146  -10.3328    0.0000 C   0  0  0  0  0  0  0  0  0  0  0  0
    8.0269  -10.5196    0.0000 O   0  0  0  0  0  0  0  0  0  0  0  0
    7.5392  -10.6149    0.0000 C   0  0  0  0  0  0  0  0  0  0  0  0
    9.6498  -12.9675    0.0000 O   0  0  0  0  0  0  0  0  0  0  0  0
    6.6185  -13.5780    0.0000 O   0  0  0  0  0  0  0  0  0  0  0  0
    9.2215   -7.6210    0.0000 O   0  0  0  0  0  0  0  0  0  0  0  0
    7.5392  -11.4399    0.0000 O   0  0  0  0  0  0  0  0  0  0  0  0
    8.8869   -9.0148    0.0000 C   0  0  0  0  0  0  0  0  0  0  0  0
    6.6185  -12.7530    0.0000 C   0  0  0  0  0  0  0  0  0  0  0  0
   10.2199  -10.8480    0.0000 C   0  0  0  0  0  0  0  0  0  0  0  0
    4.4751  -10.6905    0.0000 O   0  0  0  0  0  0  0  0  0  0  0  0
    8.8029  -12.7302    0.0000 O   0  0  0  0  0  0  0  0  0  0  0  0
    4.4751  -11.5155    0.0000 Cl  0  0  0  0  0  0  0  0  0  0  0  0
  1  2  1  0  0  0  0
  2  3  1  0  0  0  0
  3  4  1  0  0  0  0
  4  5  1  0  0  0  0
  5  6  1  0  0  0  0
  6  7  1  0  0  0  0
  7  8  1  0  0  0  0
  8  9  1  0  0  0  0
  9 10  1  0  0  0  0
 10 11  1  0  0  0  0
 11 12  2  0  0  0  0
 12 13  1  0  0  0  0
 13 14  1  0  0  0  0
 14 15  1  0  0  0  0
 15 16  1  0  0  0  0
 16 17  1  0  0  0  0
 17 18  1  0  0  0  0
 18 19  1  0  0  0  0
 19 20  1  0  0  0  0
 20 21  1  0  0  0  0
 21 22  1  0  0  0  0
 22 23  1  0  0  0  0
 23 24  1  0  0  0  0
 24 25  1  0  0  0  0
 25 26  1  0  0  0  0
 26 27  1  0  0  0  0
  1 27  1  0  0  0  0
  1 28  1  0  0  0  0
 18 28  1  0  0  0  0
 27 29  1  0  0  0  0
 18 29  1  0  0  0  0
  1  5  1  0  0  0  0
  2 24  1  0  0  0  0
  8 17  1  0  0  0  0
  9 14  1  0  0  0  0
 21 26  1  0  0  0  0
  4 30  2  0  0  0  0
 10 31  2  0  0  0  0
 22 32  2  0  0  0  0
 29 33  2  0  0  0  0
 26 34  1  0  0  0  0
  9 35  1  0  0  0  0
  2 36  1  0  0  0  0
 15 37  1  0  0  0  0
  5 38  1  0  0  0  0
 14 39  1  0  0  0  0
M  END
>  <cdx:fragmentId>
3976

$$$$
