155692.cdx
  Mrv1902 05222410182D          

 44 48  0  0  0  0            999 V2000
   10.7089   -6.1106    0.0000 C   0  0  0  0  0  0  0  0  0  0  0  0
   10.7089   -6.9356    0.0000 C   0  0  0  0  0  0  0  0  0  0  0  0
   11.4233   -7.3481    0.0000 C   0  0  0  0  0  0  0  0  0  0  0  0
   12.1378   -6.9356    0.0000 C   0  0  0  0  0  0  0  0  0  0  0  0
   12.1378   -6.1106    0.0000 C   0  0  0  0  0  0  0  0  0  0  0  0
   11.4233   -5.6981    0.0000 C   0  0  0  0  0  0  0  0  0  0  0  0
   12.8523   -5.6981    0.0000 O   0  0  0  0  0  0  0  0  0  0  0  0
    9.9944   -7.3481    0.0000 C   0  0  0  0  0  0  0  0  0  0  0  0
    9.2799   -6.9356    0.0000 O   0  0  0  0  0  0  0  0  0  0  0  0
    8.5654   -7.3481    0.0000 C   0  0  0  0  0  0  0  0  0  0  0  0
    8.5654   -8.1731    0.0000 C   0  0  0  0  0  0  0  0  0  0  0  0
    9.2799   -8.5856    0.0000 C   0  0  0  0  0  0  0  0  0  0  0  0
    9.9944   -8.1731    0.0000 C   0  0  0  0  0  0  0  0  0  0  0  0
    7.8510   -6.9356    0.0000 C   0  0  0  0  0  0  0  0  0  0  0  0
    7.1365   -7.3481    0.0000 C   0  0  0  0  0  0  0  0  0  0  0  0
    7.1365   -8.1731    0.0000 C   0  0  0  0  0  0  0  0  0  0  0  0
    7.8510   -8.5856    0.0000 C   0  0  0  0  0  0  0  0  0  0  0  0
    9.2799   -9.4106    0.0000 O   0  0  0  0  0  0  0  0  0  0  0  0
    7.8510   -9.4106    0.0000 O   0  0  0  0  0  0  0  0  0  0  0  0
    6.4221   -6.9356    0.0000 O   0  0  0  0  0  0  0  0  0  0  0  0
    6.4221   -6.1106    0.0000 C   0  0  0  0  0  0  0  0  0  0  0  0
    3.5643   -8.6122    0.0000 O   0  0  0  0  0  0  0  0  0  0  0  0
    4.2749   -8.1930    0.0000 C   0  0  0  0  0  0  0  0  0  0  0  0
    4.2902   -9.8430    0.0000 O   0  0  0  0  0  0  0  0  0  0  0  0
    5.7267  -10.6547    0.0000 O   0  0  0  0  0  0  0  0  0  0  0  0
    6.4221   -7.7606    0.0000 H   0  0  0  0  0  0  0  0  0  0  0  0
    5.7497  -13.1296    0.0000 O   0  0  0  0  0  0  0  0  0  0  0  0
    5.7420  -12.3046    0.0000 C   0  0  0  0  0  0  0  0  0  0  0  0
    7.1785  -13.1163    0.0000 O   0  0  0  0  0  0  0  0  0  0  0  0
    8.5998  -12.2781    0.0000 O   0  0  0  0  0  0  0  0  0  0  0  0
    8.5845  -10.6282    0.0000 O   0  0  0  0  0  0  0  0  0  0  0  0
    6.4450  -11.0605    0.0000 O   0  0  0  0  0  0  0  0  0  0  0  0
    6.4526  -11.8855    0.0000 C   0  0  1  0  0  0  0  0  0  0  0  0
    7.1709  -12.2914    0.0000 C   0  0  2  0  0  0  0  0  0  0  0  0
    7.8815  -11.8723    0.0000 C   0  0  1  0  0  0  0  0  0  0  0  0
    7.8739  -11.0473    0.0000 C   0  0  2  0  0  0  0  0  0  0  0  0
    7.1556  -10.6415    0.0000 C   0  0  2  0  0  0  0  0  0  0  0  0
    7.1480   -9.8165    0.0000 O   0  0  0  0  0  0  0  0  0  0  0  0
    5.7038   -8.1798    0.0000 O   0  0  0  0  0  0  0  0  0  0  0  0
    4.9932   -8.5989    0.0000 C   0  0  1  0  0  0  0  0  0  0  0  0
    5.0008   -9.4239    0.0000 C   0  0  2  0  0  0  0  0  0  0  0  0
    5.7191   -9.8297    0.0000 C   0  0  1  0  0  0  0  0  0  0  0  0
    6.4297   -9.4106    0.0000 C   0  0  2  0  0  0  0  0  0  0  0  0
    6.4221   -8.5856    0.0000 C   0  0  2  0  0  0  0  0  0  0  0  0
 23 22  1  0  0  0  0
 40 23  1  1  0  0  0
 41 24  1  6  0  0  0
 42 25  1  1  0  0  0
 44 26  1  6  0  0  0
 28 27  1  0  0  0  0
 33 28  1  1  0  0  0
 34 29  1  6  0  0  0
 35 30  1  1  0  0  0
 36 31  1  6  0  0  0
 32 37  1  0  0  0  0
 33 32  1  0  0  0  0
 34 33  1  0  0  0  0
 35 34  1  0  0  0  0
 36 35  1  0  0  0  0
 37 36  1  0  0  0  0
 37 38  1  1  0  0  0
 43 38  1  6  0  0  0
 39 44  1  0  0  0  0
 40 39  1  0  0  0  0
 41 40  1  0  0  0  0
 42 41  1  0  0  0  0
 43 42  1  0  0  0  0
  1  2  2  0  0  0  0
  2  3  1  0  0  0  0
  3  4  2  0  0  0  0
  4  5  1  0  0  0  0
  5  6  2  0  0  0  0
  6  1  1  0  0  0  0
  5  7  1  0  0  0  0
  2  8  1  0  0  0  0
  8  9  1  0  0  0  0
  9 10  1  0  0  0  0
 10 11  1  0  0  0  0
 11 12  1  0  0  0  0
 12 13  1  0  0  0  0
 13  8  2  0  0  0  0
 10 14  2  0  0  0  0
 14 15  1  0  0  0  0
 15 16  2  0  0  0  0
 16 17  1  0  0  0  0
 17 11  2  0  0  0  0
 12 18  2  0  0  0  0
 17 19  1  0  0  0  0
 15 20  1  0  0  0  0
 20 21  1  0  0  0  0
 16 44  1  0  0  0  0
 44 43  1  0  0  0  0
M  END
>  <cdx:fragmentId>
2830

$$$$
