1556.cdx
  Mrv1902 05222410222D          

 19 21  0  0  0  0            999 V2000
    3.9220   -7.6725    0.0000 C   0  0  0  0  0  0  0  0  0  0  0  0
    3.9220   -8.4975    0.0000 C   0  0  0  0  0  0  0  0  0  0  0  0
    4.6365   -8.9100    0.0000 C   0  0  0  0  0  0  0  0  0  0  0  0
    5.3510   -8.4975    0.0000 C   0  0  0  0  0  0  0  0  0  0  0  0
    5.3510   -7.6725    0.0000 C   0  0  0  0  0  0  0  0  0  0  0  0
    4.6365   -7.2600    0.0000 C   0  0  0  0  0  0  0  0  0  0  0  0
    6.0654   -8.9100    0.0000 C   0  0  0  0  0  0  0  0  0  0  0  0
    6.7799   -8.4975    0.0000 C   0  0  0  0  0  0  0  0  0  0  0  0
    6.7799   -7.6725    0.0000 C   0  0  2  0  0  0  0  0  0  0  0  0
    6.0654   -7.2600    0.0000 O   0  0  0  0  0  0  0  0  0  0  0  0
    7.4944   -7.2600    0.0000 C   0  0  0  0  0  0  0  0  0  0  0  0
    7.4944   -6.4350    0.0000 C   0  0  0  0  0  0  0  0  0  0  0  0
    8.2089   -7.6725    0.0000 C   0  0  0  0  0  0  0  0  0  0  0  0
    8.9233   -7.2600    0.0000 C   0  0  0  0  0  0  0  0  0  0  0  0
    8.9233   -6.4350    0.0000 C   0  0  0  0  0  0  0  0  0  0  0  0
    8.2089   -6.0225    0.0000 C   0  0  0  0  0  0  0  0  0  0  0  0
    3.2076   -7.2600    0.0000 O   0  0  0  0  0  0  0  0  0  0  0  0
    4.6365   -9.7350    0.0000 O   0  0  0  0  0  0  0  0  0  0  0  0
    5.3510  -10.1475    0.0000 C   0  0  0  0  0  0  0  0  0  0  0  0
  1  2  2  0  0  0  0
  2  3  1  0  0  0  0
  3  4  2  0  0  0  0
  4  5  1  0  0  0  0
  5  6  2  0  0  0  0
  6  1  1  0  0  0  0
  4  7  1  0  0  0  0
  7  8  1  0  0  0  0
  8  9  1  0  0  0  0
  9 10  1  0  0  0  0
 10  5  1  0  0  0  0
  9 11  1  6  0  0  0
 11 12  1  0  0  0  0
 11 13  2  0  0  0  0
 13 14  1  0  0  0  0
 14 15  2  0  0  0  0
 15 16  1  0  0  0  0
 16 12  2  0  0  0  0
  1 17  1  0  0  0  0
  3 18  1  0  0  0  0
 18 19  1  0  0  0  0
M  END
>  <cdx:fragmentId>
5

$$$$
