15574.cdx
  Mrv1902 05222410192D          

 10  9  0  0  0  0            999 V2000
    9.7785   -5.3449    0.0000 C   0  0  0  0  0  0  0  0  0  0  0  0
    9.0641   -5.7574    0.0000 C   0  0  0  0  0  0  0  0  0  0  0  0
    8.3496   -5.3449    0.0000 C   0  0  0  0  0  0  0  0  0  0  0  0
    7.6351   -5.7574    0.0000 C   0  0  0  0  0  0  0  0  0  0  0  0
    6.9206   -5.3449    0.0000 C   0  0  0  0  0  0  0  0  0  0  0  0
    6.2062   -5.7574    0.0000 C   0  0  0  0  0  0  0  0  0  0  0  0
    5.4917   -5.3449    0.0000 O   0  0  0  0  0  0  0  0  0  0  0  0
    4.7772   -6.5824    0.0000 O   0  0  0  0  0  0  0  0  0  0  0  0
    4.0628   -5.3449    0.0000 C   0  0  0  0  0  0  0  0  0  0  0  0
    4.7772   -5.7574    0.0000 C   0  0  0  0  0  0  0  0  0  0  0  0
  7  6  1  0  0  0  0
  2  1  1  0  0  0  0
  3  2  1  0  0  0  0
  4  3  2  0  0  0  0
  5  4  1  0  0  0  0
  6  5  1  0  0  0  0
 10  7  1  0  0  0  0
 10  8  2  0  0  0  0
 10  9  1  0  0  0  0
M  END
>  <cdx:fragmentId>
7683

$$$$
