15580.cdx
  Mrv1902 05222410282D          

 27 28  0  0  0  0            999 V2000
    2.4577   -6.8062    0.0000 C   0  0  0  0  0  0  0  0  0  0  0  0
    2.4577   -7.6313    0.0000 C   0  0  0  0  0  0  0  0  0  0  0  0
    3.1721   -8.0437    0.0000 C   0  0  0  0  0  0  0  0  0  0  0  0
    3.8866   -7.6313    0.0000 C   0  0  0  0  0  0  0  0  0  0  0  0
    3.8866   -6.8062    0.0000 C   0  0  0  0  0  0  0  0  0  0  0  0
    3.1721   -6.3937    0.0000 C   0  0  0  0  0  0  0  0  0  0  0  0
    5.3155   -7.6313    0.0000 O   0  0  0  0  0  0  0  0  0  0  0  0
    5.3155   -6.8062    0.0000 C   0  0  0  0  0  0  0  0  0  0  0  0
    4.6011   -6.3937    0.0000 C   0  0  0  0  0  0  0  0  0  0  0  0
    6.7445   -6.8062    0.0000 O   0  0  0  0  0  0  0  0  0  0  0  0
    6.0300   -6.3937    0.0000 C   0  0  0  0  0  0  0  0  0  0  0  0
    8.1734   -6.8062    0.0000 C   0  0  0  0  0  0  0  0  0  0  0  0
    7.4590   -6.3937    0.0000 C   0  0  0  0  0  0  0  0  0  0  0  0
    9.6024   -6.8062    0.0000 C   0  0  0  0  0  0  0  0  0  0  0  0
    8.8879   -6.3937    0.0000 C   0  0  0  0  0  0  0  0  0  0  0  0
   10.3168   -6.3937    0.0000 C   0  0  0  0  0  0  0  0  0  0  0  0
   10.3168   -5.5687    0.0000 C   0  0  0  0  0  0  0  0  0  0  0  0
    9.6024   -5.1563    0.0000 C   0  0  0  0  0  0  0  0  0  0  0  0
    8.8879   -5.5687    0.0000 C   0  0  0  0  0  0  0  0  0  0  0  0
    1.7432   -6.3937    0.0000 O   0  0  0  0  0  0  0  0  0  0  0  0
    1.7432   -8.0437    0.0000 O   0  0  0  0  0  0  0  0  0  0  0  0
    6.0300   -5.5687    0.0000 O   0  0  0  0  0  0  0  0  0  0  0  0
    7.4590   -5.5687    0.0000 C   0  0  0  0  0  0  0  0  0  0  0  0
   11.0313   -5.1563    0.0000 O   0  0  0  0  0  0  0  0  0  0  0  0
   11.0313   -6.8062    0.0000 O   0  0  0  0  0  0  0  0  0  0  0  0
    6.7445   -5.1563    0.0000 O   0  0  0  0  0  0  0  0  0  0  0  0
    8.1734   -5.1562    0.0000 O   0  0  0  0  0  0  0  0  0  0  0  0
  1  2  2  0  0  0  0
  2  3  1  0  0  0  0
  3  4  2  0  0  0  0
  4  5  1  0  0  0  0
  5  6  2  0  0  0  0
  6  1  1  0  0  0  0
  7  8  1  0  0  0  0
  8  9  1  0  0  0  0
  9  5  1  0  0  0  0
 10 11  1  0  0  0  0
 11  8  1  0  0  0  0
 12 13  1  0  0  0  0
 13 10  1  0  0  0  0
 14 15  2  0  0  0  0
 15 12  1  0  0  0  0
 14 16  1  0  0  0  0
 16 17  2  0  0  0  0
 17 18  1  0  0  0  0
 18 19  2  0  0  0  0
 19 15  1  0  0  0  0
  1 20  1  0  0  0  0
  2 21  1  0  0  0  0
 11 22  2  0  0  0  0
 13 23  1  0  0  0  0
 17 24  1  0  0  0  0
 16 25  1  0  0  0  0
 23 26  2  0  0  0  0
 23 27  1  0  0  0  0
M  END
>  <cdx:fragmentId>
5

$$$$
