15586.cdx
  Mrv1902 05222410272D          

 25 28  0  0  0  0            999 V2000
    5.8235   -6.7512    0.0000 O   0  0  0  0  0  0  0  0  0  0  0  0
    5.8235   -7.5762    0.0000 C   0  0  0  0  0  0  0  0  0  0  0  0
    6.4685   -8.0906    0.0000 C   0  0  0  0  0  0  0  0  0  0  0  0
    7.2728   -7.9070    0.0000 C   0  0  0  0  0  0  0  0  0  0  0  0
    7.6307   -7.1638    0.0000 C   0  0  0  0  0  0  0  0  0  0  0  0
    7.2728   -6.4205    0.0000 C   0  0  0  0  0  0  0  0  0  0  0  0
    6.4685   -6.2369    0.0000 C   0  0  0  0  0  0  0  0  0  0  0  0
    7.8339   -5.8157    0.0000 C   0  0  0  0  0  0  0  0  0  0  0  0
    7.5908   -5.0273    0.0000 C   0  0  0  0  0  0  0  0  0  0  0  0
    6.7864   -4.8438    0.0000 C   0  0  0  0  0  0  0  0  0  0  0  0
    6.2253   -5.4485    0.0000 C   0  0  0  0  0  0  0  0  0  0  0  0
    5.0555   -7.8777    0.0000 C   0  0  0  0  0  0  0  0  0  0  0  0
    4.9325   -8.6934    0.0000 C   0  0  0  0  0  0  0  0  0  0  0  0
    5.5775   -9.2078    0.0000 C   0  0  0  0  0  0  0  0  0  0  0  0
    6.3455   -8.9064    0.0000 C   0  0  0  0  0  0  0  0  0  0  0  0
    5.4210   -5.2649    0.0000 O   0  0  0  0  0  0  0  0  0  0  0  0
    4.4105   -7.3633    0.0000 O   0  0  0  0  0  0  0  0  0  0  0  0
    8.6075   -5.8300    0.0000 C   0  0  0  0  0  0  0  0  0  0  0  0
    8.4700   -7.2050    0.0000 C   0  0  0  0  0  0  0  0  0  0  0  0
    8.9375   -6.5450    0.0000 C   0  0  0  0  0  0  0  0  0  0  0  0
    4.1646   -8.9948    0.0000 O   0  0  0  0  0  0  0  0  0  0  0  0
    9.7583   -6.6281    0.0000 C   0  0  0  0  0  0  0  0  0  0  0  0
   10.2407   -5.9588    0.0000 O   0  0  0  0  0  0  0  0  0  0  0  0
   10.0967   -7.3805    0.0000 O   0  0  0  0  0  0  0  0  0  0  0  0
    8.8308   -7.9469    0.0000 O   0  0  0  0  0  0  0  0  0  0  0  0
  1  2  1  0  0  0  0
  2  3  2  0  0  0  0
  3  4  1  0  0  0  0
  4  5  2  0  0  0  0
  5  6  1  0  0  0  0
  6  7  2  0  0  0  0
  7  1  1  0  0  0  0
  6  8  1  0  0  0  0
  8  9  2  0  0  0  0
  9 10  1  0  0  0  0
 10 11  2  0  0  0  0
 11  7  1  0  0  0  0
  2 12  1  0  0  0  0
 12 13  2  0  0  0  0
 13 14  1  0  0  0  0
 14 15  2  0  0  0  0
 15  3  1  0  0  0  0
 11 16  1  0  0  0  0
 12 17  1  0  0  0  0
  8 18  1  0  0  0  0
  5 19  1  0  0  0  0
 18 20  1  0  0  0  0
 19 20  1  0  0  0  0
 13 21  1  0  0  0  0
 20 22  1  0  0  0  0
 22 23  1  0  0  0  0
 22 24  2  0  0  0  0
 19 25  2  0  0  0  0
M  END
>  <cdx:fragmentId>
5

$$$$
