155902.cdx
  Mrv1902 05222410182D          

 11 12  0  0  0  0            999 V2000
    8.9398   -7.4196    0.0000 C   0  0  0  0  0  0  0  0  0  0  0  0
    7.2940   -7.4244    0.0000 C   0  0  0  0  0  0  0  0  0  0  0  0
    7.3085   -4.2906    0.0000 C   0  0  0  0  0  0  0  0  0  0  0  0
    6.2981   -4.8740    0.0000 C   0  0  0  0  0  0  0  0  0  0  0  0
    7.0950   -5.0875    0.0000 C   0  0  0  0  0  0  0  0  0  0  0  0
    7.5075   -6.6275    0.0000 C   0  0  0  0  0  0  0  0  0  0  0  0
    6.5450   -6.9025    0.0000 C   0  0  0  0  0  0  0  0  0  0  0  0
    6.4900   -6.0775    0.0000 C   0  0  0  0  0  0  0  0  0  0  0  0
    7.5625   -5.8025    0.0000 C   0  0  0  0  0  0  0  0  0  0  0  0
    8.3497   -6.0113    0.0000 C   0  0  0  0  0  0  0  0  0  0  0  0
    8.3564   -6.8363    0.0000 C   0  0  0  0  0  0  0  0  0  0  0  0
 11  1  1  0  0  0  0
  6  2  1  0  0  0  0
  5  3  1  0  0  0  0
  5  4  1  0  0  0  0
  9  5  1  0  0  0  0
  6  5  1  0  0  0  0
 11  6  1  0  0  0  0
  7  6  1  0  0  0  0
  8  7  1  0  0  0  0
  9  8  1  0  0  0  0
 10  9  1  0  0  0  0
 11 10  2  0  0  0  0
M  END
>  <cdx:fragmentId>
2932

$$$$
