15594.cdx
  Mrv1902 05222410282D          

 15 16  0  0  0  0            999 V2000
    6.1902   -5.1390    0.0000 C   0  0  0  0  0  0  0  0  0  0  0  0
    5.4948   -8.0311    0.0000 C   0  0  0  0  0  0  0  0  0  0  0  0
    9.0589   -6.7701    0.0000 C   0  0  0  0  0  0  0  0  0  0  0  0
    8.3472   -7.1873    0.0000 C   0  0  0  0  0  0  0  0  0  0  0  0
    8.3526   -8.0123    0.0000 C   0  0  0  0  0  0  0  0  0  0  0  0
    6.2011   -6.7889    0.0000 C   0  0  0  0  0  0  0  0  0  0  0  0
    5.4894   -7.2061    0.0000 C   0  0  0  0  0  0  0  0  0  0  0  0
    4.7722   -6.7983    0.0000 C   0  0  0  0  0  0  0  0  0  0  0  0
    4.7667   -5.9734    0.0000 C   0  0  0  0  0  0  0  0  0  0  0  0
    5.4785   -5.5562    0.0000 C   0  0  0  0  0  0  0  0  0  0  0  0
    6.1957   -5.9639    0.0000 C   0  0  0  0  0  0  0  0  0  0  0  0
    6.9074   -5.5467    0.0000 C   0  0  0  0  0  0  0  0  0  0  0  0
    7.6246   -5.9545    0.0000 C   0  0  0  0  0  0  0  0  0  0  0  0
    7.6300   -6.7795    0.0000 C   0  0  0  0  0  0  0  0  0  0  0  0
    6.9183   -7.1967    0.0000 C   0  0  0  0  0  0  0  0  0  0  0  0
 11  1  1  0  0  0  0
  7  2  1  0  0  0  0
 14  4  1  0  0  0  0
  4  3  1  0  0  0  0
  5  4  2  0  0  0  0
 11  6  1  0  0  0  0
 15  6  1  0  0  0  0
  7  6  2  0  0  0  0
  8  7  1  0  0  0  0
  9  8  2  0  0  0  0
 10  9  1  0  0  0  0
 11 10  1  0  0  0  0
 12 11  1  0  0  0  0
 13 12  1  0  0  0  0
 14 13  1  0  0  0  0
 15 14  1  0  0  0  0
M  END
>  <cdx:fragmentId>
205422

$$$$
