155976.cdx
  Mrv1902 05222410212D          

 24 26  0  0  0  0            999 V2000
    8.1579   -5.9848    0.0000 C   0  0  0  0  0  0  0  0  0  0  0  0
    8.5629   -5.2661    0.0000 C   0  0  0  0  0  0  0  0  0  0  0  0
    9.3879   -5.2575    0.0000 C   0  0  0  0  0  0  0  0  0  0  0  0
    9.8078   -5.9676    0.0000 C   0  0  0  0  0  0  0  0  0  0  0  0
    9.4028   -6.6863    0.0000 C   0  0  0  0  0  0  0  0  0  0  0  0
    8.5778   -6.6949    0.0000 C   0  0  0  0  0  0  0  0  0  0  0  0
    8.5331   -2.4084    0.0000 C   0  0  0  0  0  0  0  0  0  0  0  0
    9.7929   -4.5387    0.0000 O   0  0  0  0  0  0  0  0  0  0  0  0
   10.6178   -4.5301    0.0000 C   0  0  0  0  0  0  0  0  0  0  0  0
    9.8227   -7.3964    0.0000 O   0  0  0  0  0  0  0  0  0  0  0  0
    7.3031   -3.1357    0.0000 C   0  0  0  0  0  0  0  0  0  0  0  0
    8.1280   -3.1271    0.0000 C   0  0  0  0  0  0  0  0  0  0  0  0
    8.5480   -3.8372    0.0000 C   0  0  0  0  0  0  0  0  0  0  0  0
    8.1430   -4.5560    0.0000 C   0  0  0  0  0  0  0  0  0  0  0  0
    3.9288   -6.8541    0.0000 O   0  0  0  0  0  0  0  0  0  0  0  0
    6.0678   -6.4192    0.0000 C   0  0  0  0  0  0  0  0  0  0  0  0
    5.3577   -6.8391    0.0000 C   0  0  0  0  0  0  0  0  0  0  0  0
    4.6389   -6.4341    0.0000 C   0  0  0  0  0  0  0  0  0  0  0  0
    4.6303   -5.6092    0.0000 C   0  0  0  0  0  0  0  0  0  0  0  0
    5.3404   -5.1892    0.0000 C   0  0  0  0  0  0  0  0  0  0  0  0
    6.0592   -5.5942    0.0000 C   0  0  0  0  0  0  0  0  0  0  0  0
    6.8411   -5.3311    0.0000 C   0  0  0  0  0  0  0  0  0  0  0  0
    7.3329   -5.9934    0.0000 C   0  0  0  0  0  0  0  0  0  0  0  0
    6.8550   -6.6659    0.0000 O   0  0  0  0  0  0  0  0  0  0  0  0
 23  1  1  0  0  0  0
 12  7  1  0  0  0  0
 12 11  1  0  0  0  0
 13 12  2  0  0  0  0
 14 13  1  0  0  0  0
 18 15  1  0  0  0  0
 24 16  1  0  0  0  0
 21 16  2  0  0  0  0
 17 16  1  0  0  0  0
 18 17  2  0  0  0  0
 19 18  1  0  0  0  0
 20 19  2  0  0  0  0
 21 20  1  0  0  0  0
 22 21  1  0  0  0  0
 23 22  2  0  0  0  0
 24 23  1  0  0  0  0
  1  2  1  0  0  0  0
  2  3  2  0  0  0  0
  3  4  1  0  0  0  0
  4  5  2  0  0  0  0
  5  6  1  0  0  0  0
  1  6  2  0  0  0  0
  2 14  1  0  0  0  0
  8  9  1  0  0  0  0
  3  8  1  0  0  0  0
  5 10  1  0  0  0  0
M  END
>  <cdx:fragmentId>
2989

$$$$
