156055.cdx
  Mrv1902 05222410252D          

 40 44  0  0  0  0            999 V2000
   14.4838  -13.6560    0.0000 N   0  0  0  0  0  0  0  0  0  0  0  0
   13.7693  -14.0685    0.0000 C   0  0  0  0  0  0  0  0  0  0  0  0
   13.0549  -13.6560    0.0000 C   0  0  0  0  0  0  0  0  0  0  0  0
   12.3404  -14.0685    0.0000 C   0  0  0  0  0  0  0  0  0  0  0  0
   11.6259  -13.6560    0.0000 C   0  0  0  0  0  0  0  0  0  0  0  0
   11.6259  -12.8310    0.0000 N   0  0  0  0  0  0  0  0  0  0  0  0
   12.3404  -12.4185    0.0000 C   0  0  0  0  0  0  0  0  0  0  0  0
   12.3404  -11.5935    0.0000 C   0  0  0  0  0  0  0  0  0  0  0  0
   13.0549  -11.1810    0.0000 C   0  0  0  0  0  0  0  0  0  0  0  0
   13.7693  -11.5935    0.0000 N   0  0  0  0  0  0  0  0  0  0  0  0
   14.4838  -11.1810    0.0000 C   0  0  2  0  0  0  0  0  0  0  0  0
   15.1983  -11.5935    0.0000 C   0  0  0  0  0  0  0  0  0  0  0  0
   15.1983  -12.4185    0.0000 C   0  0  0  0  0  0  0  0  0  0  0  0
   15.9128  -12.8310    0.0000 C   0  0  0  0  0  0  0  0  0  0  0  0
   16.6268  -12.4178    0.0000 C   0  0  0  0  0  0  0  0  0  0  0  0
   17.1406  -13.0646    0.0000 O   0  0  0  0  0  0  0  0  0  0  0  0
   16.7285  -13.7793    0.0000 C   0  0  2  0  0  0  0  0  0  0  0  0
   15.9128  -13.6560    0.0000 C   0  0  2  0  0  0  0  0  0  0  0  0
   15.1983  -14.0685    0.0000 C   0  0  0  0  0  0  0  0  0  0  0  0
   15.9443  -14.8674    0.0000 C   0  0  0  0  0  0  0  0  0  0  0  0
   17.8382  -14.7499    0.0000 C   0  0  0  0  0  0  0  0  0  0  0  0
   19.1377  -13.3672    0.0000 C   0  0  0  0  0  0  0  0  0  0  0  0
   19.1377  -11.4697    0.0000 N   0  0  0  0  0  0  0  0  0  0  0  0
   17.8382  -10.0870    0.0000 C   0  0  0  0  0  0  0  0  0  0  0  0
   15.9443   -9.9695    0.0000 C   0  0  0  0  0  0  0  0  0  0  0  0
   16.6265  -11.5928    0.0000 C   0  0  0  0  0  0  0  0  0  0  0  0
   15.9122  -11.1800    0.0000 C   0  0  0  0  0  0  0  0  0  0  0  0
   15.1983  -14.8935    0.0000 O   0  0  0  0  0  0  0  0  0  0  0  0
   18.2507   -9.3726    0.0000 O   0  0  0  0  0  0  0  0  0  0  0  0
   17.4429  -15.0168    0.0000 C   0  0  0  0  0  0  0  0  0  0  0  0
   18.2679  -15.0168    0.0000 C   0  0  0  0  0  0  0  0  0  0  0  0
   18.6804  -15.7312    0.0000 C   0  0  0  0  0  0  0  0  0  0  0  0
   18.2679  -16.4457    0.0000 C   0  0  0  0  0  0  0  0  0  0  0  0
   17.4429  -16.4457    0.0000 C   0  0  0  0  0  0  0  0  0  0  0  0
   17.0304  -15.7312    0.0000 C   0  0  0  0  0  0  0  0  0  0  0  0
   19.5054  -15.7312    0.0000 O   0  0  0  0  0  0  0  0  0  0  0  0
   19.9179  -15.0168    0.0000 C   0  0  0  0  0  0  0  0  0  0  0  0
   18.6804  -17.1602    0.0000 O   0  0  0  0  0  0  0  0  0  0  0  0
   14.0713  -10.4665    0.0000 H   0  0  0  0  0  0  0  0  0  0  0  0
   16.0659  -14.4666    0.0000 H   0  0  0  0  0  0  0  0  0  0  0  0
  1  2  1  0  0  0  0
  2  3  1  0  0  0  0
  3  4  1  0  0  0  0
  4  5  1  0  0  0  0
  5  6  1  0  0  0  0
  6  7  1  0  0  0  0
  7  8  1  0  0  0  0
  8  9  1  0  0  0  0
  9 10  1  0  0  0  0
 10 11  1  0  0  0  0
 11 12  1  6  0  0  0
 12 13  2  0  0  0  0
 13 14  1  0  0  0  0
 14 15  2  0  0  0  0
 15 16  1  0  0  0  0
 16 17  1  0  0  0  0
 17 18  1  0  0  0  0
 18 19  1  0  0  0  0
 20 21  1  0  0  0  0
 21 22  1  0  0  0  0
 22 23  1  0  0  0  0
 23 24  1  0  0  0  0
 24 25  1  0  0  0  0
 26 27  2  0  0  0  0
  1 19  1  0  0  0  0
  1 20  1  0  0  0  0
 25 11  1  0  0  0  0
 14 18  1  0  0  0  0
 15 26  1  0  0  0  0
 27 12  1  0  0  0  0
 19 28  2  0  0  0  0
 24 29  2  0  0  0  0
 30 31  1  0  0  0  0
 31 32  2  0  0  0  0
 32 33  1  0  0  0  0
 33 34  2  0  0  0  0
 34 35  1  0  0  0  0
 30 35  2  0  0  0  0
 36 37  1  0  0  0  0
 32 36  1  0  0  0  0
 33 38  1  0  0  0  0
 17 30  1  1  0  0  0
 11 39  1  0  0  0  0
 18 40  1  1  0  0  0
M  END
>  <cdx:groupId>
3172

>  <cdx:fragmentId>
3051

$$$$
