156073.cdx
  Mrv1902 05222410212D          

 43 46  0  0  0  0            999 V2000
   17.1046  -14.9921    0.0000 C   0  0  0  0  0  0  0  0  0  0  0  0
   17.1046  -15.8171    0.0000 C   0  0  0  0  0  0  0  0  0  0  0  0
   17.8190  -16.2296    0.0000 C   0  0  0  0  0  0  0  0  0  0  0  0
   18.5335  -15.8171    0.0000 C   0  0  0  0  0  0  0  0  0  0  0  0
   18.5335  -14.9921    0.0000 C   0  0  0  0  0  0  0  0  0  0  0  0
   17.8190  -14.5796    0.0000 C   0  0  0  0  0  0  0  0  0  0  0  0
   16.3901  -14.5796    0.0000 O   0  0  0  0  0  0  0  0  0  0  0  0
   15.6756  -14.9921    0.0000 C   0  0  2  0  0  0  0  0  0  0  0  0
   17.8190  -13.7546    0.0000 C   0  0  0  0  0  0  0  0  0  0  0  0
   18.5335  -13.3421    0.0000 O   0  0  0  0  0  0  0  0  0  0  0  0
   18.5335  -12.5171    0.0000 C   0  0  0  0  0  0  0  0  0  0  0  0
   19.2480  -12.1046    0.0000 O   0  0  0  0  0  0  0  0  0  0  0  0
   17.8190  -12.1046    0.0000 C   0  0  0  0  0  0  0  0  0  0  0  0
   17.8190  -11.2796    0.0000 C   0  0  0  0  0  0  0  0  0  0  0  0
   17.1046  -10.8671    0.0000 C   0  0  0  0  0  0  0  0  0  0  0  0
   16.3901  -11.2796    0.0000 C   0  0  0  0  0  0  0  0  0  0  0  0
   16.3901  -12.1046    0.0000 C   0  0  0  0  0  0  0  0  0  0  0  0
   17.1046  -12.5171    0.0000 C   0  0  0  0  0  0  0  0  0  0  0  0
   18.5335  -10.8671    0.0000 O   0  0  0  0  0  0  0  0  0  0  0  0
   17.1046  -10.0421    0.0000 O   0  0  0  0  0  0  0  0  0  0  0  0
   17.8190   -9.6296    0.0000 C   0  0  0  0  0  0  0  0  0  0  0  0
   15.6756  -10.8671    0.0000 O   0  0  0  0  0  0  0  0  0  0  0  0
   14.9612  -11.2796    0.0000 C   0  0  2  0  0  0  0  0  0  0  0  0
   14.2467  -10.8671    0.0000 O   0  0  0  0  0  0  0  0  0  0  0  0
   13.5322  -11.2796    0.0000 C   0  0  1  0  0  0  0  0  0  0  0  0
   13.5322  -12.1046    0.0000 C   0  0  2  0  0  0  0  0  0  0  0  0
   14.2467  -12.5171    0.0000 C   0  0  1  0  0  0  0  0  0  0  0  0
   14.9612  -12.1046    0.0000 C   0  0  1  0  0  0  0  0  0  0  0  0
   14.9612  -14.5796    0.0000 O   0  0  0  0  0  0  0  0  0  0  0  0
   14.2467  -14.9921    0.0000 C   0  0  1  0  0  0  0  0  0  0  0  0
   14.2467  -15.8171    0.0000 C   0  0  2  0  0  0  0  0  0  0  0  0
   14.9612  -16.2296    0.0000 C   0  0  1  0  0  0  0  0  0  0  0  0
   15.6756  -15.8171    0.0000 C   0  0  0  0  0  0  0  0  0  0  0  0
   12.8177  -10.8671    0.0000 C   0  0  0  0  0  0  0  0  0  0  0  0
   12.1033  -11.2796    0.0000 O   0  0  0  0  0  0  0  0  0  0  0  0
   12.8177  -12.5171    0.0000 O   0  0  0  0  0  0  0  0  0  0  0  0
   14.2467  -13.3421    0.0000 O   0  0  0  0  0  0  0  0  0  0  0  0
   15.6756  -12.5171    0.0000 O   0  0  0  0  0  0  0  0  0  0  0  0
   13.5322  -14.5796    0.0000 C   0  0  0  0  0  0  0  0  0  0  0  0
   12.8177  -14.9921    0.0000 O   0  0  0  0  0  0  0  0  0  0  0  0
   13.5322  -16.2296    0.0000 O   0  0  0  0  0  0  0  0  0  0  0  0
   14.9612  -17.0546    0.0000 O   0  0  0  0  0  0  0  0  0  0  0  0
   16.3901  -16.2296    0.0000 O   0  0  0  0  0  0  0  0  0  0  0  0
  1  2  2  0  0  0  0
  2  3  1  0  0  0  0
  3  4  2  0  0  0  0
  4  5  1  0  0  0  0
  5  6  2  0  0  0  0
  6  1  1  0  0  0  0
  1  7  1  0  0  0  0
  8  7  1  1  0  0  0
  6  9  1  0  0  0  0
  9 10  1  0  0  0  0
 10 11  1  0  0  0  0
 11 12  2  0  0  0  0
 11 13  1  0  0  0  0
 13 14  1  0  0  0  0
 14 15  2  0  0  0  0
 15 16  1  0  0  0  0
 16 17  2  0  0  0  0
 17 18  1  0  0  0  0
 18 13  2  0  0  0  0
 14 19  1  0  0  0  0
 15 20  1  0  0  0  0
 20 21  1  0  0  0  0
 16 22  1  0  0  0  0
 23 22  1  1  0  0  0
 23 24  1  0  0  0  0
 24 25  1  0  0  0  0
 25 26  1  0  0  0  0
 26 27  1  0  0  0  0
 27 28  1  0  0  0  0
 28 23  1  0  0  0  0
  8 29  1  0  0  0  0
 29 30  1  0  0  0  0
 30 31  1  0  0  0  0
 31 32  1  0  0  0  0
 32 33  1  0  0  0  0
 33  8  1  0  0  0  0
 25 34  1  1  0  0  0
 34 35  1  0  0  0  0
 26 36  1  6  0  0  0
 27 37  1  1  0  0  0
 28 38  1  6  0  0  0
 30 39  1  1  0  0  0
 39 40  1  0  0  0  0
 31 41  1  6  0  0  0
 32 42  1  1  0  0  0
 33 43  1  0  0  0  0
M  END
>  <cdx:fragmentId>
3180

$$$$
