15605.cdx
  Mrv1902 05222410182D          

 15 14  0  0  0  0            999 V2000
    2.4394   -3.3077    0.0000 C   0  0  0  0  0  0  0  0  0  0  0  0
    1.7249   -3.7202    0.0000 C   0  0  0  0  0  0  0  0  0  0  0  0
    2.4394   -2.4827    0.0000 O   0  0  0  0  0  0  0  0  0  0  0  0
    3.1539   -3.7202    0.0000 O   0  0  0  0  0  0  0  0  0  0  0  0
    3.8684   -3.3077    0.0000 C   0  0  0  0  0  0  0  0  0  0  0  0
    4.5828   -3.7202    0.0000 C   0  0  0  0  0  0  0  0  0  0  0  0
    5.2973   -3.3077    0.0000 C   0  0  0  0  0  0  0  0  0  0  0  0
    6.0118   -3.7202    0.0000 C   0  0  0  0  0  0  0  0  0  0  0  0
    6.7262   -3.3077    0.0000 C   0  0  0  0  0  0  0  0  0  0  0  0
    7.4407   -3.7202    0.0000 C   0  0  0  0  0  0  0  0  0  0  0  0
    8.1552   -3.3077    0.0000 C   0  0  0  0  0  0  0  0  0  0  0  0
    8.8696   -3.7202    0.0000 C   0  0  0  0  0  0  0  0  0  0  0  0
    9.5841   -3.3077    0.0000 C   0  0  0  0  0  0  0  0  0  0  0  0
   10.2986   -3.7202    0.0000 C   0  0  0  0  0  0  0  0  0  0  0  0
   11.0131   -3.3077    0.0000 C   0  0  0  0  0  0  0  0  0  0  0  0
  1  2  1  0  0  0  0
  1  3  2  0  0  0  0
  1  4  1  0  0  0  0
  5  6  1  0  0  0  0
  6  7  1  0  0  0  0
  7  8  1  0  0  0  0
  8  9  1  0  0  0  0
  9 10  1  0  0  0  0
 10 11  1  0  0  0  0
 11 12  1  0  0  0  0
 12 13  1  0  0  0  0
 13 14  1  0  0  0  0
 14 15  1  0  0  0  0
  4  5  1  0  0  0  0
M  END
>  <cdx:groupId>
46

>  <cdx:fragmentId>
13

$$$$
