15603.cdx
  Mrv1902 05222410192D          

 52 58  0  0  0  0            999 V2000
    9.4331   -5.1950    0.0000 O   0  0  0  0  0  0  0  0  0  0  0  0
    5.8427   -7.2041    0.0000 C   0  0  1  0  0  0  0  0  0  0  0  0
    5.8304   -8.0290    0.0000 C   0  0  0  0  0  0  0  0  0  0  0  0
    5.1099   -8.4308    0.0000 C   0  0  0  0  0  0  0  0  0  0  0  0
    4.4016   -8.0078    0.0000 C   0  0  0  0  0  0  0  0  0  0  0  0
    4.4139   -7.1828    0.0000 C   0  0  2  0  0  0  0  0  0  0  0  0
    5.1345   -6.7810    0.0000 C   0  0  2  0  0  0  0  0  0  0  0  0
    5.0976   -9.2558    0.0000 C   0  0  0  0  0  0  0  0  0  0  0  0
    3.7057   -6.7598    0.0000 C   0  0  0  0  0  0  0  0  0  0  0  0
    2.9851   -7.1616    0.0000 C   0  0  0  0  0  0  0  0  0  0  0  0
    2.2769   -6.7385    0.0000 C   0  0  0  0  0  0  0  0  0  0  0  0
    2.2892   -5.9136    0.0000 C   0  0  0  0  0  0  0  0  0  0  0  0
    3.0097   -5.5118    0.0000 C   0  0  0  0  0  0  0  0  0  0  0  0
    3.7180   -5.9348    0.0000 C   0  0  0  0  0  0  0  0  0  0  0  0
    1.5809   -5.4905    0.0000 O   0  0  0  0  0  0  0  0  0  0  0  0
    2.9729   -7.9865    0.0000 O   0  0  0  0  0  0  0  0  0  0  0  0
    5.1541   -5.4612    0.0000 C   0  0  0  0  0  0  0  0  0  0  0  0
    4.4459   -5.0381    0.0000 C   0  0  0  0  0  0  0  0  0  0  0  0
    4.4582   -4.2132    0.0000 C   0  0  0  0  0  0  0  0  0  0  0  0
    3.7499   -3.7901    0.0000 C   0  0  0  0  0  0  0  0  0  0  0  0
    3.0294   -4.1919    0.0000 C   0  0  0  0  0  0  0  0  0  0  0  0
    3.0171   -5.0168    0.0000 C   0  0  0  0  0  0  0  0  0  0  0  0
    3.7253   -5.4399    0.0000 C   0  0  0  0  0  0  0  0  0  0  0  0
    5.8747   -5.0594    0.0000 O   0  0  0  0  0  0  0  0  0  0  0  0
    2.3211   -3.7688    0.0000 O   0  0  0  0  0  0  0  0  0  0  0  0
    5.1787   -3.8114    0.0000 O   0  0  0  0  0  0  0  0  0  0  0  0
    7.2592   -8.0503    0.0000 O   0  0  0  0  0  0  0  0  0  0  0  0
    5.8673   -5.5543    0.0000 O   0  0  0  0  0  0  0  0  0  0  0  0
   12.6865   -5.5547    0.0000 O   0  0  0  0  0  0  0  0  0  0  0  0
    8.6880   -8.0716    0.0000 O   0  0  0  0  0  0  0  0  0  0  0  0
   10.6964   -6.4513    0.0000 C   0  0  0  0  0  0  0  0  0  0  0  0
   11.5180   -6.3773    0.0000 C   0  0  0  0  0  0  0  0  0  0  0  0
   11.8648   -5.6287    0.0000 C   0  0  0  0  0  0  0  0  0  0  0  0
   11.3899   -4.9541    0.0000 C   0  0  0  0  0  0  0  0  0  0  0  0
   10.5682   -5.0281    0.0000 C   0  0  0  0  0  0  0  0  0  0  0  0
   10.2214   -5.7767    0.0000 C   0  0  0  0  0  0  0  0  0  0  0  0
   10.2016   -7.1115    0.0000 O   0  0  0  0  0  0  0  0  0  0  0  0
    8.7249   -5.5969    0.0000 O   0  0  0  0  0  0  0  0  0  0  0  0
    8.0043   -5.9987    0.0000 C   0  0  0  0  0  0  0  0  0  0  0  0
    7.2961   -5.5756    0.0000 C   0  0  0  0  0  0  0  0  0  0  0  0
    6.5755   -5.9774    0.0000 C   0  0  0  0  0  0  0  0  0  0  0  0
    6.5632   -6.8023    0.0000 C   0  0  0  0  0  0  0  0  0  0  0  0
    7.2715   -7.2254    0.0000 C   0  0  0  0  0  0  0  0  0  0  0  0
    7.9920   -6.8236    0.0000 C   0  0  0  0  0  0  0  0  0  0  0  0
    8.7003   -7.2467    0.0000 C   0  0  0  0  0  0  0  0  0  0  0  0
    9.4208   -6.8449    0.0000 C   0  0  0  0  0  0  0  0  0  0  0  0
    9.4331   -6.0200    0.0000 C   0  0  0  0  0  0  0  0  0  0  0  0
    9.4948   -7.6665    0.0000 C   0  0  0  0  0  0  0  0  0  0  0  0
   10.2157   -8.0677    0.0000 C   0  0  0  0  0  0  0  0  0  0  0  0
   10.2287   -8.8926    0.0000 C   0  0  0  0  0  0  0  0  0  0  0  0
   10.9496   -9.2938    0.0000 C   0  0  0  0  0  0  0  0  0  0  0  0
    9.5208   -9.3163    0.0000 C   0  0  0  0  0  0  0  0  0  0  0  0
 47  1  1  0  0  0  0
  2 42  1  1  0  0  0
  2  3  1  0  0  0  0
  3  4  2  0  0  0  0
 43 27  1  0  0  0  0
 41 28  1  0  0  0  0
 33 29  1  0  0  0  0
 45 30  2  0  0  0  0
 37 46  1  0  0  0  0
 36 47  1  0  0  0  0
 37 31  1  0  0  0  0
 36 31  2  0  0  0  0
 32 31  1  0  0  0  0
 33 32  2  0  0  0  0
 34 33  1  0  0  0  0
 35 34  2  0  0  0  0
 36 35  1  0  0  0  0
 47 38  1  0  0  0  0
 39 38  1  0  0  0  0
 44 39  2  0  0  0  0
 40 39  1  0  0  0  0
 41 40  2  0  0  0  0
 42 41  1  0  0  0  0
 43 42  2  0  0  0  0
 44 43  1  0  0  0  0
 45 44  1  0  0  0  0
 46 45  1  0  0  0  0
 47 46  1  0  0  0  0
  4  5  1  0  0  0  0
  5  6  1  0  0  0  0
  6  7  1  0  0  0  0
  2  7  1  0  0  0  0
  4  8  1  0  0  0  0
  9 10  1  0  0  0  0
 10 11  2  0  0  0  0
 11 12  1  0  0  0  0
 12 13  2  0  0  0  0
 13 14  1  0  0  0  0
  9 14  2  0  0  0  0
 12 15  1  0  0  0  0
 10 16  1  0  0  0  0
  6  9  1  1  0  0  0
 17 18  1  0  0  0  0
 18 19  1  0  0  0  0
 19 20  2  0  0  0  0
 20 21  1  0  0  0  0
 21 22  2  0  0  0  0
 22 23  1  0  0  0  0
 18 23  2  0  0  0  0
 17 24  2  0  0  0  0
 21 25  1  0  0  0  0
 19 26  1  0  0  0  0
  7 17  1  6  0  0  0
 46 48  1  0  0  0  0
 48 49  1  0  0  0  0
 49 50  2  0  0  0  0
 50 51  1  0  0  0  0
 50 52  1  0  0  0  0
M  END
>  <cdx:fragmentId>
181

$$$$
