15609.cdx
  Mrv1902 05222410282D          

 20 19  0  0  0  0            999 V2000
   12.3025   -3.3489    0.0000 C   0  0  0  0  0  0  0  0  0  0  0  0
   11.5881   -3.7614    0.0000 C   0  0  0  0  0  0  0  0  0  0  0  0
   10.8736   -3.3489    0.0000 C   0  0  0  0  0  0  0  0  0  0  0  0
   10.1591   -3.7614    0.0000 C   0  0  0  0  0  0  0  0  0  0  0  0
    9.4447   -3.3489    0.0000 C   0  0  0  0  0  0  0  0  0  0  0  0
    8.7302   -3.7614    0.0000 C   0  0  0  0  0  0  0  0  0  0  0  0
    8.0157   -3.3489    0.0000 C   0  0  0  0  0  0  0  0  0  0  0  0
    7.3012   -3.7614    0.0000 C   0  0  0  0  0  0  0  0  0  0  0  0
    6.5868   -3.3489    0.0000 C   0  0  0  0  0  0  0  0  0  0  0  0
    5.8723   -3.7614    0.0000 C   0  0  0  0  0  0  0  0  0  0  0  0
    5.1578   -3.3489    0.0000 C   0  0  0  0  0  0  0  0  0  0  0  0
    4.4434   -3.7614    0.0000 C   0  0  0  0  0  0  0  0  0  0  0  0
    3.7289   -3.3489    0.0000 C   0  0  0  0  0  0  0  0  0  0  0  0
    3.0144   -3.7614    0.0000 C   0  0  0  0  0  0  0  0  0  0  0  0
    2.3000   -3.3489    0.0000 C   0  0  0  0  0  0  0  0  0  0  0  0
    1.5855   -3.7614    0.0000 C   0  0  0  0  0  0  0  0  0  0  0  0
    0.8710   -3.3489    0.0000 C   0  0  0  0  0  0  0  0  0  0  0  0
   12.3025   -2.5239    0.0000 O   0  0  0  0  0  0  0  0  0  0  0  0
   13.0170   -3.7614    0.0000 O   0  0  0  0  0  0  0  0  0  0  0  0
   13.7315   -3.3489    0.0000 C   0  0  0  0  0  0  0  0  0  0  0  0
  1  2  1  0  0  0  0
  2  3  1  0  0  0  0
  3  4  1  0  0  0  0
  4  5  1  0  0  0  0
  5  6  1  0  0  0  0
  6  7  1  0  0  0  0
  7  8  1  0  0  0  0
  8  9  1  0  0  0  0
  9 10  1  0  0  0  0
 10 11  1  0  0  0  0
 11 12  1  0  0  0  0
 12 13  1  0  0  0  0
 13 14  1  0  0  0  0
 14 15  1  0  0  0  0
 15 16  1  0  0  0  0
 16 17  1  0  0  0  0
  1 18  2  0  0  0  0
  1 19  1  0  0  0  0
 19 20  1  0  0  0  0
M  END
>  <cdx:groupId>
61

>  <cdx:fragmentId>
5

$$$$
