15606.cdx
  Mrv1902 05222410192D          

 12 11  0  0  0  0            999 V2000
    2.8379   -3.2252    0.0000 C   0  0  0  0  0  0  0  0  0  0  0  0
    3.5524   -3.6377    0.0000 O   0  0  0  0  0  0  0  0  0  0  0  0
    4.2668   -2.4002    0.0000 O   0  0  0  0  0  0  0  0  0  0  0  0
    9.9826   -3.2252    0.0000 C   0  0  0  0  0  0  0  0  0  0  0  0
    9.2681   -3.6377    0.0000 C   0  0  0  0  0  0  0  0  0  0  0  0
    8.5537   -3.2252    0.0000 C   0  0  0  0  0  0  0  0  0  0  0  0
    7.8392   -3.6377    0.0000 C   0  0  0  0  0  0  0  0  0  0  0  0
    7.1247   -3.2252    0.0000 C   0  0  0  0  0  0  0  0  0  0  0  0
    6.4102   -3.6377    0.0000 C   0  0  0  0  0  0  0  0  0  0  0  0
    5.6958   -3.2252    0.0000 C   0  0  0  0  0  0  0  0  0  0  0  0
    4.9813   -3.6377    0.0000 C   0  0  0  0  0  0  0  0  0  0  0  0
    4.2668   -3.2252    0.0000 C   0  0  0  0  0  0  0  0  0  0  0  0
  2  1  1  0  0  0  0
 12  2  1  0  0  0  0
 12  3  2  0  0  0  0
  5  4  1  0  0  0  0
  6  5  1  0  0  0  0
  7  6  1  0  0  0  0
  8  7  1  0  0  0  0
  9  8  1  0  0  0  0
 10  9  1  0  0  0  0
 11 10  1  0  0  0  0
 12 11  1  0  0  0  0
M  END
>  <cdx:groupId>
37

>  <cdx:fragmentId>
5

$$$$
