15600.cdx
  Mrv1902 05222410202D          

 10  9  0  0  0  0            999 V2000
    2.5805   -2.7844    0.0000 C   0  0  0  0  0  0  0  0  0  0  0  0
    3.2950   -2.3719    0.0000 C   0  0  0  0  0  0  0  0  0  0  0  0
    4.0094   -2.7844    0.0000 C   0  0  0  0  0  0  0  0  0  0  0  0
    4.7239   -2.3719    0.0000 C   0  0  0  0  0  0  0  0  0  0  0  0
    5.4384   -2.7844    0.0000 C   0  0  0  0  0  0  0  0  0  0  0  0
    6.1529   -2.3719    0.0000 C   0  0  0  0  0  0  0  0  0  0  0  0
    6.8673   -2.7844    0.0000 C   0  0  0  0  0  0  0  0  0  0  0  0
    7.5818   -2.3719    0.0000 C   0  0  0  0  0  0  0  0  0  0  0  0
    8.2963   -2.7844    0.0000 C   0  0  0  0  0  0  0  0  0  0  0  0
    9.0107   -2.3719    0.0000 C   0  0  0  0  0  0  0  0  0  0  0  0
  1  2  1  0  0  0  0
  2  3  1  0  0  0  0
  3  4  1  0  0  0  0
  4  5  1  0  0  0  0
  5  6  1  0  0  0  0
  6  7  1  0  0  0  0
  7  8  1  0  0  0  0
  8  9  1  0  0  0  0
  9 10  1  0  0  0  0
M  END
>  <cdx:groupId>
31

>  <cdx:fragmentId>
5

$$$$
