15608.cdx
  Mrv1902 05222410282D          

 16 15  0  0  0  0            999 V2000
    2.4100   -8.0171    0.0000 C   0  0  0  0  0  0  0  0  0  0  0  0
    3.1244   -8.4296    0.0000 O   0  0  0  0  0  0  0  0  0  0  0  0
    3.8389   -7.1921    0.0000 O   0  0  0  0  0  0  0  0  0  0  0  0
   12.4125   -8.0171    0.0000 C   0  0  0  0  0  0  0  0  0  0  0  0
   11.6981   -8.4296    0.0000 C   0  0  0  0  0  0  0  0  0  0  0  0
   10.9836   -8.0171    0.0000 C   0  0  0  0  0  0  0  0  0  0  0  0
   10.2691   -8.4296    0.0000 C   0  0  0  0  0  0  0  0  0  0  0  0
    9.5547   -8.0171    0.0000 C   0  0  0  0  0  0  0  0  0  0  0  0
    8.8402   -8.4296    0.0000 C   0  0  0  0  0  0  0  0  0  0  0  0
    8.1257   -8.0171    0.0000 C   0  0  0  0  0  0  0  0  0  0  0  0
    7.4112   -8.4296    0.0000 C   0  0  0  0  0  0  0  0  0  0  0  0
    6.6968   -8.0171    0.0000 C   0  0  0  0  0  0  0  0  0  0  0  0
    5.9823   -8.4296    0.0000 C   0  0  0  0  0  0  0  0  0  0  0  0
    5.2678   -8.0171    0.0000 C   0  0  0  0  0  0  0  0  0  0  0  0
    4.5534   -8.4296    0.0000 C   0  0  0  0  0  0  0  0  0  0  0  0
    3.8389   -8.0171    0.0000 C   0  0  0  0  0  0  0  0  0  0  0  0
  2  1  1  0  0  0  0
 16  2  1  0  0  0  0
 16  3  2  0  0  0  0
  5  4  1  0  0  0  0
  6  5  1  0  0  0  0
  7  6  1  0  0  0  0
  8  7  1  0  0  0  0
  9  8  1  0  0  0  0
 10  9  1  0  0  0  0
 11 10  1  0  0  0  0
 12 11  1  0  0  0  0
 13 12  1  0  0  0  0
 14 13  1  0  0  0  0
 15 14  1  0  0  0  0
 16 15  1  0  0  0  0
M  END
>  <cdx:fragmentId>
5

$$$$
