15612.cdx
  Mrv1902 05222410192D          

 15 14  0  0  0  0            999 V2000
   10.2279   -4.8477    0.0000 C   0  0  0  0  0  0  0  0  0  0  0  0
    9.5134   -4.4352    0.0000 C   0  0  0  0  0  0  0  0  0  0  0  0
    8.7989   -4.8477    0.0000 C   0  0  0  0  0  0  0  0  0  0  0  0
    8.0845   -4.4352    0.0000 C   0  0  0  0  0  0  0  0  0  0  0  0
    7.3700   -4.8477    0.0000 C   0  0  0  0  0  0  0  0  0  0  0  0
    6.6555   -4.4352    0.0000 C   0  0  0  0  0  0  0  0  0  0  0  0
    5.9411   -4.8477    0.0000 C   0  0  0  0  0  0  0  0  0  0  0  0
    5.2266   -4.4352    0.0000 C   0  0  0  0  0  0  0  0  0  0  0  0
    4.5121   -4.8477    0.0000 C   0  0  0  0  0  0  0  0  0  0  0  0
   10.2279   -5.6727    0.0000 O   0  0  0  0  0  0  0  0  0  0  0  0
   10.9424   -4.4352    0.0000 O   0  0  0  0  0  0  0  0  0  0  0  0
    4.5121   -5.6727    0.0000 O   0  0  0  0  0  0  0  0  0  0  0  0
    3.7976   -4.4352    0.0000 O   0  0  0  0  0  0  0  0  0  0  0  0
   11.6568   -4.8477    0.0000 C   0  0  0  0  0  0  0  0  0  0  0  0
    3.0832   -4.8477    0.0000 C   0  0  0  0  0  0  0  0  0  0  0  0
  1  2  1  0  0  0  0
  2  3  1  0  0  0  0
  3  4  1  0  0  0  0
  4  5  1  0  0  0  0
  5  6  1  0  0  0  0
  6  7  1  0  0  0  0
  7  8  1  0  0  0  0
  8  9  1  0  0  0  0
  1 10  2  0  0  0  0
  1 11  1  0  0  0  0
  9 12  2  0  0  0  0
  9 13  1  0  0  0  0
 11 14  1  0  0  0  0
 13 15  1  0  0  0  0
M  END
>  <cdx:fragmentId>
5

$$$$
