15638.cdx
  Mrv1902 05222410182D          

 17 19  0  0  0  0            999 V2000
    6.1724   -6.8269    0.0000 C   0  0  1  0  0  0  0  0  0  0  0  0
    6.1724   -7.6519    0.0000 C   0  0  0  0  0  0  0  0  0  0  0  0
    6.8174   -8.1663    0.0000 C   0  0  0  0  0  0  0  0  0  0  0  0
    7.6218   -7.9827    0.0000 C   0  0  1  0  0  0  0  0  0  0  0  0
    7.9797   -7.2394    0.0000 C   0  0  0  0  0  0  0  0  0  0  0  0
    7.6218   -6.4961    0.0000 C   0  0  0  0  0  0  0  0  0  0  0  0
    6.8174   -6.3125    0.0000 C   0  0  1  0  0  0  0  0  0  0  0  0
    6.6039   -5.5156    0.0000 C   0  0  0  0  0  0  0  0  0  0  0  0
    5.3878   -6.5719    0.0000 C   0  0  0  0  0  0  0  0  0  0  0  0
    4.9029   -7.2394    0.0000 C   0  0  0  0  0  0  0  0  0  0  0  0
    5.3878   -7.9068    0.0000 C   0  0  0  0  0  0  0  0  0  0  0  0
    7.0724   -7.1435    0.0000 C   0  0  0  0  0  0  0  0  0  0  0  0
    7.0178   -6.6560    0.0000 C   0  0  0  0  0  0  0  0  0  0  0  0
    6.6541   -7.4794    0.0000 C   0  0  0  0  0  0  0  0  0  0  0  0
    4.0779   -7.2394    0.0000 O   0  0  0  0  0  0  0  0  0  0  0  0
    5.1743   -8.7037    0.0000 C   0  0  0  0  0  0  0  0  0  0  0  0
    6.6039   -8.9631    0.0000 O   0  0  0  0  0  0  0  0  0  0  0  0
  1  2  1  0  0  0  0
  2  3  1  0  0  0  0
  3  4  1  0  0  0  0
  4  5  1  0  0  0  0
  5  6  1  0  0  0  0
  6  7  1  0  0  0  0
  7  1  1  0  0  0  0
  7  8  1  6  0  0  0
  1  9  1  0  0  0  0
  9 10  1  0  0  0  0
 10 11  1  0  0  0  0
 11  2  2  0  0  0  0
  1 12  1  1  0  0  0
  4 12  1  1  0  0  0
 12 13  1  0  0  0  0
 12 14  1  0  0  0  0
 10 15  2  0  0  0  0
 11 16  1  0  0  0  0
  3 17  2  0  0  0  0
M  END
>  <cdx:fragmentId>
5

$$$$
