15644.cdx
  Mrv1902 05222410242D          

 28 32  0  0  0  0            999 V2000
    8.5888   -6.0264    0.0000 C   0  0  0  0  0  0  0  0  0  0  0  0
    7.7639   -6.0371    0.0000 C   0  0  0  0  0  0  0  0  0  0  0  0
    7.1881   -6.6280    0.0000 C   0  0  0  0  0  0  0  0  0  0  0  0
    7.1988   -7.4529    0.0000 C   0  0  0  0  0  0  0  0  0  0  0  0
    7.7897   -8.0286    0.0000 C   0  0  0  0  0  0  0  0  0  0  0  0
    8.6146   -8.0180    0.0000 C   0  0  0  0  0  0  0  0  0  0  0  0
    9.1903   -7.4271    0.0000 C   0  0  2  0  0  0  0  0  0  0  0  0
    9.1797   -6.6022    0.0000 C   0  0  1  0  0  0  0  0  0  0  0  0
    9.8887   -6.1804    0.0000 C   0  0  0  0  0  0  0  0  0  0  0  0
    9.9101   -7.8303    0.0000 C   0  0  0  0  0  0  0  0  0  0  0  0
    7.5400   -5.2430    0.0000 C   0  0  0  0  0  0  0  0  0  0  0  0
    6.7404   -5.0398    0.0000 C   0  0  0  0  0  0  0  0  0  0  0  0
    6.1647   -5.6307    0.0000 C   0  0  0  0  0  0  0  0  0  0  0  0
    6.3885   -6.4248    0.0000 C   0  0  0  0  0  0  0  0  0  0  0  0
    6.4047   -7.6767    0.0000 C   0  0  0  0  0  0  0  0  0  0  0  0
    6.2015   -8.4763    0.0000 C   0  0  0  0  0  0  0  0  0  0  0  0
    6.7924   -9.0521    0.0000 C   0  0  0  0  0  0  0  0  0  0  0  0
    7.5865   -8.8282    0.0000 C   0  0  0  0  0  0  0  0  0  0  0  0
    6.3564   -4.3097    0.0000 O   0  0  0  0  0  0  0  0  0  0  0  0
    5.5433   -4.4493    0.0000 C   0  0  0  0  0  0  0  0  0  0  0  0
    5.4248   -5.2657    0.0000 O   0  0  0  0  0  0  0  0  0  0  0  0
    5.4714   -8.8603    0.0000 O   0  0  0  0  0  0  0  0  0  0  0  0
    5.6110   -9.6734    0.0000 C   0  0  0  0  0  0  0  0  0  0  0  0
    6.4274   -9.7919    0.0000 O   0  0  0  0  0  0  0  0  0  0  0  0
    5.6794   -6.8465    0.0000 O   0  0  0  0  0  0  0  0  0  0  0  0
    4.9597   -6.4433    0.0000 C   0  0  0  0  0  0  0  0  0  0  0  0
    5.6850   -7.2735    0.0000 O   0  0  0  0  0  0  0  0  0  0  0  0
    4.9575   -7.6626    0.0000 C   0  0  0  0  0  0  0  0  0  0  0  0
  1  2  1  0  0  0  0
  2  3  2  0  0  0  0
  3  4  1  0  0  0  0
  4  5  2  0  0  0  0
  5  6  1  0  0  0  0
  6  7  1  0  0  0  0
  7  8  1  0  0  0  0
  8  1  1  0  0  0  0
  8  9  1  6  0  0  0
  7 10  1  6  0  0  0
  2 11  1  0  0  0  0
 11 12  2  0  0  0  0
 12 13  1  0  0  0  0
 13 14  2  0  0  0  0
 14  3  1  0  0  0  0
  4 15  1  0  0  0  0
 15 16  2  0  0  0  0
 16 17  1  0  0  0  0
 17 18  2  0  0  0  0
 18  5  1  0  0  0  0
 12 19  1  0  0  0  0
 19 20  1  0  0  0  0
 20 21  1  0  0  0  0
 21 13  1  0  0  0  0
 16 22  1  0  0  0  0
 22 23  1  0  0  0  0
 23 24  1  0  0  0  0
 24 17  1  0  0  0  0
 14 25  1  0  0  0  0
 25 26  1  0  0  0  0
 15 27  1  0  0  0  0
 27 28  1  0  0  0  0
M  END
>  <cdx:fragmentId>
5

$$$$
