1564.cdx
  Mrv1902 05222410242D          

 31 33  0  0  0  0            999 V2000
    4.3758   -6.8062    0.0000 C   0  0  0  0  0  0  0  0  0  0  0  0
    4.3758   -7.6313    0.0000 C   0  0  0  0  0  0  0  0  0  0  0  0
    5.0902   -8.0437    0.0000 C   0  0  0  0  0  0  0  0  0  0  0  0
    5.8047   -7.6313    0.0000 C   0  0  0  0  0  0  0  0  0  0  0  0
    5.8047   -6.8062    0.0000 C   0  0  0  0  0  0  0  0  0  0  0  0
    5.0902   -6.3937    0.0000 C   0  0  0  0  0  0  0  0  0  0  0  0
    6.5192   -8.0437    0.0000 C   0  0  0  0  0  0  0  0  0  0  0  0
    7.2337   -7.6313    0.0000 C   0  0  0  0  0  0  0  0  0  0  0  0
    7.2337   -6.8062    0.0000 C   0  0  2  0  0  0  0  0  0  0  0  0
    6.5192   -6.3937    0.0000 O   0  0  0  0  0  0  0  0  0  0  0  0
    8.6626   -7.6313    0.0000 O   0  0  0  0  0  0  0  0  0  0  0  0
    8.6626   -6.8062    0.0000 C   0  0  0  0  0  0  0  0  0  0  0  0
    7.9481   -6.3937    0.0000 C   0  0  0  0  0  0  0  0  0  0  0  0
    9.3771   -6.3937    0.0000 C   0  0  0  0  0  0  0  0  0  0  0  0
    9.3771   -5.5687    0.0000 C   0  0  0  0  0  0  0  0  0  0  0  0
    8.6626   -5.1563    0.0000 C   0  0  0  0  0  0  0  0  0  0  0  0
    7.9481   -5.5687    0.0000 C   0  0  0  0  0  0  0  0  0  0  0  0
    5.0902   -8.8688    0.0000 O   0  0  0  0  0  0  0  0  0  0  0  0
    6.5192   -8.8688    0.0000 O   0  0  0  0  0  0  0  0  0  0  0  0
    5.0902   -5.5687    0.0000 C   0  0  0  0  0  0  0  0  0  0  0  0
    4.3758   -5.1563    0.0000 C   0  0  1  0  0  0  0  0  0  0  0  0
    3.6613   -5.5687    0.0000 C   0  0  0  0  0  0  0  0  0  0  0  0
    3.6613   -6.3937    0.0000 O   0  0  0  0  0  0  0  0  0  0  0  0
    2.9468   -5.1563    0.0000 C   0  0  0  0  0  0  0  0  0  0  0  0
    2.2324   -5.5687    0.0000 C   0  0  0  0  0  0  0  0  0  0  0  0
    2.2324   -6.3937    0.0000 C   0  0  0  0  0  0  0  0  0  0  0  0
    4.3758   -4.3313    0.0000 C   0  0  0  0  0  0  0  0  0  0  0  0
    3.6613   -3.9188    0.0000 C   0  0  0  0  0  0  0  0  0  0  0  0
    5.0902   -3.9188    0.0000 C   0  0  0  0  0  0  0  0  0  0  0  0
    1.5179   -5.1563    0.0000 C   0  0  0  0  0  0  0  0  0  0  0  0
   10.0915   -5.1563    0.0000 O   0  0  0  0  0  0  0  0  0  0  0  0
  1  2  2  0  0  0  0
  2  3  1  0  0  0  0
  3  4  2  0  0  0  0
  4  5  1  0  0  0  0
  5  6  2  0  0  0  0
  6  1  1  0  0  0  0
  4  7  1  0  0  0  0
  7  8  1  0  0  0  0
  8  9  1  0  0  0  0
  9 10  1  0  0  0  0
 10  5  1  0  0  0  0
 11 12  1  0  0  0  0
 12 13  1  0  0  0  0
  9 13  1  6  0  0  0
 12 14  2  0  0  0  0
 14 15  1  0  0  0  0
 15 16  2  0  0  0  0
 16 17  1  0  0  0  0
 17 13  2  0  0  0  0
  3 18  1  0  0  0  0
 19  7  2  0  0  0  0
  6 20  1  0  0  0  0
 20 21  1  0  0  0  0
 21 22  1  0  0  0  0
 23  1  1  0  0  0  0
 22 24  1  0  0  0  0
 24 25  2  0  0  0  0
 25 26  1  0  0  0  0
 21 27  1  1  0  0  0
 27 28  1  0  0  0  0
 27 29  2  0  0  0  0
 25 30  1  0  0  0  0
 15 31  1  0  0  0  0
M  END
>  <cdx:fragmentId>
5

$$$$
