15653.cdx
  Mrv1902 05222410232D          

 10 10  0  0  0  0            999 V2000
    4.7462   -2.7431    0.0000 C   0  0  0  0  0  0  0  0  0  0  0  0
    4.7462   -3.5681    0.0000 C   0  0  0  0  0  0  0  0  0  0  0  0
    4.0318   -3.9806    0.0000 C   0  0  0  0  0  0  0  0  0  0  0  0
    3.3173   -3.5681    0.0000 C   0  0  0  0  0  0  0  0  0  0  0  0
    3.3173   -2.7431    0.0000 C   0  0  0  0  0  0  0  0  0  0  0  0
    4.0318   -2.3306    0.0000 C   0  0  0  0  0  0  0  0  0  0  0  0
    2.6028   -3.9806    0.0000 C   0  0  0  0  0  0  0  0  0  0  0  0
    5.4607   -2.3306    0.0000 C   0  0  0  0  0  0  0  0  0  0  0  0
    5.4607   -3.9806    0.0000 C   0  0  0  0  0  0  0  0  0  0  0  0
    6.1752   -3.5681    0.0000 C   0  0  0  0  0  0  0  0  0  0  0  0
  1  2  1  0  0  0  0
  2  3  2  0  0  0  0
  3  4  1  0  0  0  0
  4  5  2  0  0  0  0
  5  6  1  0  0  0  0
  1  6  2  0  0  0  0
  4  7  1  0  0  0  0
  1  8  1  0  0  0  0
  9 10  1  0  0  0  0
  2  9  1  0  0  0  0
M  END
>  <cdx:groupId>
32

>  <cdx:fragmentId>
5

$$$$
