156517.cdx
  Mrv1902 05222410212D          

 25 27  0  0  0  0            999 V2000
    4.5780   -6.3840    0.0000 C   0  0  0  0  0  0  0  0  0  0  0  0
    5.1969   -5.8385    0.0000 C   0  0  0  0  0  0  0  0  0  0  0  0
    5.9788   -6.1017    0.0000 C   0  0  0  0  0  0  0  0  0  0  0  0
    6.1418   -6.9104    0.0000 C   0  0  0  0  0  0  0  0  0  0  0  0
    5.5229   -7.4559    0.0000 C   0  0  0  0  0  0  0  0  0  0  0  0
    4.7410   -7.1928    0.0000 C   0  0  0  0  0  0  0  0  0  0  0  0
    3.7961   -6.1209    0.0000 O   0  0  0  0  0  0  0  0  0  0  0  0
    5.0338   -5.0298    0.0000 O   0  0  0  0  0  0  0  0  0  0  0  0
    4.2519   -4.7666    0.0000 C   0  0  0  0  0  0  0  0  0  0  0  0
   11.4075   -6.2009    0.0000 O   0  0  0  0  0  0  0  0  0  0  0  0
   11.8348   -7.5645    0.0000 C   0  0  0  0  0  0  0  0  0  0  0  0
   11.0475   -7.8111    0.0000 O   0  0  0  0  0  0  0  0  0  0  0  0
    9.2258   -6.1358    0.0000 C   0  0  0  0  0  0  0  0  0  0  0  0
   10.0130   -5.8891    0.0000 C   0  0  0  0  0  0  0  0  0  0  0  0
   10.6203   -6.4476    0.0000 C   0  0  0  0  0  0  0  0  0  0  0  0
   10.4403   -7.2527    0.0000 C   0  0  0  0  0  0  0  0  0  0  0  0
    9.6530   -7.4994    0.0000 C   0  0  0  0  0  0  0  0  0  0  0  0
    9.0458   -6.9409    0.0000 C   0  0  0  0  0  0  0  0  0  0  0  0
    6.6785   -8.6231    0.0000 C   0  0  0  0  0  0  0  0  0  0  0  0
    8.4732   -8.6420    0.0000 C   0  0  0  0  0  0  0  0  0  0  0  0
    8.2585   -7.1876    0.0000 C   0  0  1  0  0  0  0  0  0  0  0  0
    7.9953   -7.9695    0.0000 C   0  0  1  0  0  0  0  0  0  0  0  0
    7.1704   -7.9608    0.0000 C   0  0  1  0  0  0  0  0  0  0  0  0
    6.9237   -7.1736    0.0000 C   0  0  2  0  0  0  0  0  0  0  0  0
    7.5962   -6.6957    0.0000 O   0  0  0  0  0  0  0  0  0  0  0  0
 24  4  1  1  0  0  0
 21 18  1  1  0  0  0
 15 10  1  0  0  0  0
 16 12  1  0  0  0  0
 12 11  1  0  0  0  0
 18 13  2  0  0  0  0
 14 13  1  0  0  0  0
 15 14  2  0  0  0  0
 16 15  1  0  0  0  0
 17 16  2  0  0  0  0
 18 17  1  0  0  0  0
 23 19  1  6  0  0  0
 22 20  1  6  0  0  0
 25 21  1  0  0  0  0
 22 21  1  0  0  0  0
 23 22  1  0  0  0  0
 24 23  1  0  0  0  0
 25 24  1  0  0  0  0
  1  2  1  0  0  0  0
  2  3  2  0  0  0  0
  3  4  1  0  0  0  0
  4  5  2  0  0  0  0
  5  6  1  0  0  0  0
  1  6  2  0  0  0  0
  1  7  1  0  0  0  0
  8  9  1  0  0  0  0
  2  8  1  0  0  0  0
M  END
>  <cdx:fragmentId>
3426

$$$$
