15660.cdx
  Mrv1902 05222410222D          

 34 37  0  0  0  0            999 V2000
    8.5833   -6.2906    0.0000 C   0  0  0  0  0  0  0  0  0  0  0  0
    8.5833   -7.1156    0.0000 C   0  0  0  0  0  0  0  0  0  0  0  0
    9.2977   -7.5281    0.0000 C   0  0  0  0  0  0  0  0  0  0  0  0
   10.0122   -7.1156    0.0000 C   0  0  0  0  0  0  0  0  0  0  0  0
   10.0122   -6.2906    0.0000 C   0  0  0  0  0  0  0  0  0  0  0  0
    9.2977   -5.8781    0.0000 C   0  0  0  0  0  0  0  0  0  0  0  0
   10.7267   -7.5281    0.0000 O   0  0  0  0  0  0  0  0  0  0  0  0
   11.4412   -7.1156    0.0000 C   0  0  0  0  0  0  0  0  0  0  0  0
   11.4412   -6.2906    0.0000 C   0  0  0  0  0  0  0  0  0  0  0  0
   10.7267   -5.8781    0.0000 C   0  0  0  0  0  0  0  0  0  0  0  0
    7.8688   -5.8781    0.0000 O   0  0  0  0  0  0  0  0  0  0  0  0
    7.8688   -5.0531    0.0000 C   0  0  0  0  0  0  0  0  0  0  0  0
    7.8688   -7.5281    0.0000 O   0  0  0  0  0  0  0  0  0  0  0  0
   12.1556   -7.5281    0.0000 O   0  0  0  0  0  0  0  0  0  0  0  0
    5.7164   -7.9406    0.0000 C   0  0  2  0  0  0  0  0  0  0  0  0
    5.7164   -8.7656    0.0000 C   0  0  2  0  0  0  0  0  0  0  0  0
    6.4309   -9.1781    0.0000 C   0  0  1  0  0  0  0  0  0  0  0  0
    7.1453   -8.7656    0.0000 C   0  0  2  0  0  0  0  0  0  0  0  0
    7.1453   -7.9406    0.0000 C   0  0  1  0  0  0  0  0  0  0  0  0
    6.4309   -7.5281    0.0000 O   0  0  0  0  0  0  0  0  0  0  0  0
    5.0019   -7.5281    0.0000 C   0  0  0  0  0  0  0  0  0  0  0  0
    6.4309  -10.0031    0.0000 O   0  0  0  0  0  0  0  0  0  0  0  0
    4.2875   -7.9406    0.0000 O   0  0  0  0  0  0  0  0  0  0  0  0
    5.0019   -9.1781    0.0000 O   0  0  0  0  0  0  0  0  0  0  0  0
    7.8598   -9.1781    0.0000 O   0  0  0  0  0  0  0  0  0  0  0  0
    2.8424   -6.3075    0.0000 C   0  0  0  0  0  0  0  0  0  0  0  0
    2.1278   -6.7198    0.0000 C   0  0  2  0  0  0  0  0  0  0  0  0
    2.1275   -7.5448    0.0000 C   0  0  1  0  0  0  0  0  0  0  0  0
    2.8419   -7.9575    0.0000 C   0  0  2  0  0  0  0  0  0  0  0  0
    3.5565   -7.5453    0.0000 C   0  0  1  0  0  0  0  0  0  0  0  0
    3.5568   -6.7203    0.0000 O   0  0  0  0  0  0  0  0  0  0  0  0
    1.4129   -7.9571    0.0000 O   0  0  0  0  0  0  0  0  0  0  0  0
    2.8416   -8.7825    0.0000 O   0  0  0  0  0  0  0  0  0  0  0  0
    1.4135   -6.3071    0.0000 O   0  0  0  0  0  0  0  0  0  0  0  0
  1  2  2  0  0  0  0
  2  3  1  0  0  0  0
  3  4  2  0  0  0  0
  4  5  1  0  0  0  0
  5  6  2  0  0  0  0
  6  1  1  0  0  0  0
  4  7  1  0  0  0  0
  7  8  1  0  0  0  0
  8  9  1  0  0  0  0
  9 10  2  0  0  0  0
 10  5  1  0  0  0  0
  1 11  1  0  0  0  0
 11 12  1  0  0  0  0
  2 13  1  0  0  0  0
  8 14  2  0  0  0  0
 15 16  1  0  0  0  0
 16 17  1  0  0  0  0
 17 18  1  0  0  0  0
 18 19  1  0  0  0  0
 19 20  1  0  0  0  0
 20 15  1  0  0  0  0
 15 21  1  1  0  0  0
 17 22  1  1  0  0  0
 21 23  1  0  0  0  0
 16 24  1  6  0  0  0
 18 25  1  6  0  0  0
 26 27  1  0  0  0  0
 27 28  1  0  0  0  0
 28 29  1  0  0  0  0
 29 30  1  0  0  0  0
 30 31  1  0  0  0  0
 31 26  1  0  0  0  0
 28 32  1  1  0  0  0
 29 33  1  6  0  0  0
 27 34  1  6  0  0  0
 30 23  1  1  0  0  0
 19 13  1  1  0  0  0
M  END
>  <cdx:fragmentId>
45

$$$$
