1566.cdx
  Mrv1902 05222410232D          

 33 36  0  0  0  0            999 V2000
    4.3331   -6.2181    0.0000 C   0  0  0  0  0  0  0  0  0  0  0  0
    5.0437   -6.6373    0.0000 C   0  0  0  0  0  0  0  0  0  0  0  0
    5.7620   -6.2315    0.0000 C   0  0  0  0  0  0  0  0  0  0  0  0
    5.7698   -5.4066    0.0000 C   0  0  0  0  0  0  0  0  0  0  0  0
    5.0592   -4.9874    0.0000 C   0  0  0  0  0  0  0  0  0  0  0  0
    4.3409   -5.3931    0.0000 C   0  0  0  0  0  0  0  0  0  0  0  0
    6.4726   -6.6507    0.0000 C   0  0  0  0  0  0  0  0  0  0  0  0
    7.1909   -6.2449    0.0000 C   0  0  2  0  0  0  0  0  0  0  0  0
    7.1986   -5.4200    0.0000 C   0  0  1  0  0  0  0  0  0  0  0  0
    6.4881   -5.0008    0.0000 O   0  0  0  0  0  0  0  0  0  0  0  0
    6.4648   -7.4757    0.0000 O   0  0  0  0  0  0  0  0  0  0  0  0
    7.1754   -7.8949    0.0000 O   0  0  0  0  0  0  0  0  0  0  0  0
    7.8937   -7.4891    0.0000 C   0  0  1  0  0  0  0  0  0  0  0  0
    7.9014   -6.6641    0.0000 O   0  0  0  0  0  0  0  0  0  0  0  0
    7.1676   -8.7198    0.0000 C   0  0  1  0  0  0  0  0  0  0  0  0
    7.8782   -9.1390    0.0000 C   0  0  2  0  0  0  0  0  0  0  0  0
    8.5965   -8.7332    0.0000 C   0  0  1  0  0  0  0  0  0  0  0  0
    8.6043   -7.9083    0.0000 C   0  0  1  0  0  0  0  0  0  0  0  0
    7.9169   -5.0142    0.0000 C   0  0  0  0  0  0  0  0  0  0  0  0
    7.9247   -4.1892    0.0000 C   0  0  0  0  0  0  0  0  0  0  0  0
    8.6275   -5.4334    0.0000 C   0  0  0  0  0  0  0  0  0  0  0  0
    9.3458   -5.0276    0.0000 C   0  0  0  0  0  0  0  0  0  0  0  0
    9.3536   -4.2027    0.0000 C   0  0  0  0  0  0  0  0  0  0  0  0
    8.6430   -3.7835    0.0000 C   0  0  0  0  0  0  0  0  0  0  0  0
    5.0359   -7.4623    0.0000 O   0  0  0  0  0  0  0  0  0  0  0  0
    3.6303   -4.9739    0.0000 O   0  0  0  0  0  0  0  0  0  0  0  0
    8.6508   -2.9585    0.0000 O   0  0  0  0  0  0  0  0  0  0  0  0
   10.0719   -3.7969    0.0000 O   0  0  0  0  0  0  0  0  0  0  0  0
    6.4493   -9.1256    0.0000 C   0  0  0  0  0  0  0  0  0  0  0  0
    6.4416   -9.9506    0.0000 O   0  0  0  0  0  0  0  0  0  0  0  0
    9.3071   -9.1524    0.0000 O   0  0  0  0  0  0  0  0  0  0  0  0
    9.3226   -7.5025    0.0000 O   0  0  0  0  0  0  0  0  0  0  0  0
    7.8705   -9.9640    0.0000 O   0  0  0  0  0  0  0  0  0  0  0  0
  1  2  1  0  0  0  0
  2  3  2  0  0  0  0
  3  4  1  0  0  0  0
  4  5  2  0  0  0  0
  5  6  1  0  0  0  0
  6  1  2  0  0  0  0
  3  7  1  0  0  0  0
  7  8  1  0  0  0  0
  8  9  1  0  0  0  0
  9 10  1  0  0  0  0
 10  4  1  0  0  0  0
  7 11  2  0  0  0  0
 12 13  1  0  0  0  0
 13 14  1  1  0  0  0
  8 14  1  6  0  0  0
 12 15  1  0  0  0  0
 15 16  1  0  0  0  0
 16 17  1  0  0  0  0
 17 18  1  0  0  0  0
 18 13  1  0  0  0  0
  9 19  1  1  0  0  0
 19 20  2  0  0  0  0
 19 21  1  0  0  0  0
 21 22  2  0  0  0  0
 22 23  1  0  0  0  0
 23 24  2  0  0  0  0
 24 20  1  0  0  0  0
  2 25  1  0  0  0  0
  6 26  1  0  0  0  0
 24 27  1  0  0  0  0
 23 28  1  0  0  0  0
 15 29  1  1  0  0  0
 29 30  1  0  0  0  0
 17 31  1  1  0  0  0
 18 32  1  6  0  0  0
 16 33  1  6  0  0  0
M  END
>  <cdx:fragmentId>
5

$$$$
