15676.cdx
  Mrv1902 05222410232D          

  8  7  0  0  0  0            999 V2000
    4.5287   -8.1575    0.0000 C   0  0  0  0  0  0  0  0  0  0  0  0
    5.2460   -7.7501    0.0000 C   0  0  0  0  0  0  0  0  0  0  0  0
    5.9576   -8.1676    0.0000 C   0  0  0  0  0  0  0  0  0  0  0  0
    5.9518   -8.9926    0.0000 C   0  0  0  0  0  0  0  0  0  0  0  0
    6.6750   -7.7601    0.0000 S   0  0  0  0  0  0  0  0  0  0  0  0
    7.3865   -8.1776    0.0000 S   0  0  0  0  0  0  0  0  0  0  0  0
    8.1039   -7.7702    0.0000 C   0  0  0  0  0  0  0  0  0  0  0  0
    8.8154   -8.1877    0.0000 C   0  0  0  0  0  0  0  0  0  0  0  0
  1  2  1  0  0  0  0
  2  3  1  0  0  0  0
  3  4  1  0  0  0  0
  3  5  1  0  0  0  0
  5  6  1  0  0  0  0
  6  7  1  0  0  0  0
  7  8  1  0  0  0  0
M  END
>  <cdx:fragmentId>
3

$$$$
