15677.cdx
  Mrv1902 05222410232D          

  7  6  0  0  0  0            999 V2000
    8.7574   -6.0154    0.0000 C   0  0  0  0  0  0  0  0  0  0  0  0
    6.6140   -7.2529    0.0000 C   0  0  0  0  0  0  0  0  0  0  0  0
    5.1851   -6.4279    0.0000 C   0  0  0  0  0  0  0  0  0  0  0  0
    5.8995   -6.0154    0.0000 C   0  0  0  0  0  0  0  0  0  0  0  0
    6.6140   -6.4279    0.0000 C   0  0  0  0  0  0  0  0  0  0  0  0
    8.0430   -6.4279    0.0000 S   0  0  0  0  0  0  0  0  0  0  0  0
    7.3285   -6.0154    0.0000 S   0  0  0  0  0  0  0  0  0  0  0  0
  6  1  1  0  0  0  0
  7  5  1  0  0  0  0
  5  2  1  0  0  0  0
  4  3  1  0  0  0  0
  5  4  1  0  0  0  0
  7  6  1  0  0  0  0
M  END
>  <cdx:fragmentId>
27341

$$$$
