15675.cdx
  Mrv1902 05222410222D          

 10  9  0  0  0  0            999 V2000
    6.7697   -6.6435    0.0000 S   0  0  0  0  0  0  0  0  0  0  0  0
    7.4840   -6.2306    0.0000 C   0  0  0  0  0  0  0  0  0  0  0  0
    8.1987   -6.6427    0.0000 C   0  0  0  0  0  0  0  0  0  0  0  0
    8.1992   -7.4677    0.0000 C   0  0  0  0  0  0  0  0  0  0  0  0
    8.9139   -7.8798    0.0000 C   0  0  0  0  0  0  0  0  0  0  0  0
    6.0550   -6.2315    0.0000 S   0  0  0  0  0  0  0  0  0  0  0  0
    5.3408   -6.6444    0.0000 C   0  0  0  0  0  0  0  0  0  0  0  0
    4.6261   -6.2323    0.0000 C   0  0  0  0  0  0  0  0  0  0  0  0
    5.3413   -7.4694    0.0000 C   0  0  0  0  0  0  0  0  0  0  0  0
    3.9119   -6.6453    0.0000 C   0  0  0  0  0  0  0  0  0  0  0  0
  1  2  1  0  0  0  0
  2  3  2  0  0  0  0
  3  4  1  0  0  0  0
  4  5  1  0  0  0  0
  1  6  1  0  0  0  0
  6  7  1  0  0  0  0
  7  8  1  0  0  0  0
  7  9  1  0  0  0  0
  8 10  1  0  0  0  0
M  END
>  <cdx:fragmentId>
24

$$$$
