15678.cdx
  Mrv1902 05222410242D          

 10  9  0  0  0  0            999 V2000
    4.1019   -7.2100    0.0000 C   0  0  0  0  0  0  0  0  0  0  0  0
    4.8170   -6.7986    0.0000 C   0  0  0  0  0  0  0  0  0  0  0  0
    5.5308   -7.2123    0.0000 C   0  0  0  0  0  0  0  0  0  0  0  0
    5.5295   -8.0373    0.0000 C   0  0  0  0  0  0  0  0  0  0  0  0
    6.2459   -6.8009    0.0000 S   0  0  0  0  0  0  0  0  0  0  0  0
    6.9597   -7.2146    0.0000 S   0  0  0  0  0  0  0  0  0  0  0  0
    7.6749   -6.8033    0.0000 C   0  0  0  0  0  0  0  0  0  0  0  0
    8.3887   -7.2169    0.0000 C   0  0  0  0  0  0  0  0  0  0  0  0
    9.1038   -6.8056    0.0000 C   0  0  0  0  0  0  0  0  0  0  0  0
    9.8176   -7.2192    0.0000 C   0  0  0  0  0  0  0  0  0  0  0  0
  1  2  1  0  0  0  0
  2  3  1  0  0  0  0
  3  4  1  0  0  0  0
  3  5  1  0  0  0  0
  5  6  1  0  0  0  0
  6  7  1  0  0  0  0
  7  8  2  0  0  0  0
  8  9  1  0  0  0  0
  9 10  1  0  0  0  0
M  END
>  <cdx:fragmentId>
3

$$$$
