15689.cdx
  Mrv1902 05222410232D          

 35 38  0  0  0  0            999 V2000
    5.0065  -11.1072    0.0000 C   0  0  0  0  0  0  0  0  0  0  0  0
    6.4354   -9.4572    0.0000 C   0  0  0  0  0  0  0  0  0  0  0  0
    6.4354   -8.6322    0.0000 C   0  0  0  0  0  0  0  0  0  0  0  0
    5.7210   -8.2197    0.0000 C   0  0  0  0  0  0  0  0  0  0  0  0
    5.0065   -8.6322    0.0000 C   0  0  0  0  0  0  0  0  0  0  0  0
    5.0065   -9.4572    0.0000 C   0  0  0  0  0  0  0  0  0  0  0  0
    5.7210   -9.8697    0.0000 C   0  0  0  0  0  0  0  0  0  0  0  0
    4.2920   -8.2197    0.0000 O   0  0  0  0  0  0  0  0  0  0  0  0
    3.5776   -8.6322    0.0000 C   0  0  0  0  0  0  0  0  0  0  0  0
    3.5776   -9.4572    0.0000 C   0  0  0  0  0  0  0  0  0  0  0  0
    4.2920   -9.8697    0.0000 C   0  0  0  0  0  0  0  0  0  0  0  0
    7.2201   -9.7122    0.0000 C   0  0  0  0  0  0  0  0  0  0  0  0
    7.7050   -9.0447    0.0000 C   0  0  0  0  0  0  0  0  0  0  0  0
    7.2201   -8.3773    0.0000 O   0  0  0  0  0  0  0  0  0  0  0  0
    2.8631   -8.2197    0.0000 O   0  0  0  0  0  0  0  0  0  0  0  0
    5.7210  -10.6947    0.0000 O   0  0  0  0  0  0  0  0  0  0  0  0
    5.7210   -7.3947    0.0000 O   0  0  0  0  0  0  0  0  0  0  0  0
    6.4354   -6.9822    0.0000 C   0  0  0  0  0  0  0  0  0  0  0  0
    6.4354   -6.1572    0.0000 C   0  0  0  0  0  0  0  0  0  0  0  0
    5.7210   -5.7447    0.0000 O   0  0  0  0  0  0  0  0  0  0  0  0
    7.1499   -5.7447    0.0000 C   0  0  0  0  0  0  0  0  0  0  0  0
    6.4354   -5.3322    0.0000 C   0  0  0  0  0  0  0  0  0  0  0  0
    7.8644   -6.1572    0.0000 O   0  0  0  0  0  0  0  0  0  0  0  0
    7.1499   -4.9197    0.0000 C   0  0  0  0  0  0  0  0  0  0  0  0
   10.0587   -5.7553    0.0000 C   0  0  2  0  0  0  0  0  0  0  0  0
   10.0501   -4.9304    0.0000 C   0  0  2  0  0  0  0  0  0  0  0  0
    9.3314   -4.5253    0.0000 C   0  0  1  0  0  0  0  0  0  0  0  0
    8.6213   -4.9452    0.0000 C   0  0  2  0  0  0  0  0  0  0  0  0
    8.6298   -5.7701    0.0000 C   0  0  1  0  0  0  0  0  0  0  0  0
    9.3485   -6.1752    0.0000 O   0  0  0  0  0  0  0  0  0  0  0  0
   10.7774   -6.1604    0.0000 C   0  0  0  0  0  0  0  0  0  0  0  0
    9.3229   -3.7003    0.0000 O   0  0  0  0  0  0  0  0  0  0  0  0
    7.9025   -4.5401    0.0000 O   0  0  0  0  0  0  0  0  0  0  0  0
   10.7603   -4.5105    0.0000 O   0  0  0  0  0  0  0  0  0  0  0  0
   11.4875   -5.7405    0.0000 O   0  0  0  0  0  0  0  0  0  0  0  0
 16  1  1  0  0  0  0
  2  3  2  0  0  0  0
  3  4  1  0  0  0  0
  4  5  2  0  0  0  0
  5  6  1  0  0  0  0
  6  7  2  0  0  0  0
  7  2  1  0  0  0  0
  5  8  1  0  0  0  0
  8  9  1  0  0  0  0
  9 10  1  0  0  0  0
 10 11  2  0  0  0  0
 11  6  1  0  0  0  0
  2 12  1  0  0  0  0
 12 13  2  0  0  0  0
 13 14  1  0  0  0  0
 14  3  1  0  0  0  0
  9 15  2  0  0  0  0
  7 16  1  0  0  0  0
  4 17  1  0  0  0  0
 17 18  1  0  0  0  0
 18 19  1  0  0  0  0
 19 20  1  0  0  0  0
 19 21  1  0  0  0  0
 19 22  1  0  0  0  0
 21 23  1  0  0  0  0
 21 24  1  0  0  0  0
 25 26  1  0  0  0  0
 26 27  1  0  0  0  0
 27 28  1  0  0  0  0
 28 29  1  0  0  0  0
 29 30  1  0  0  0  0
 30 25  1  0  0  0  0
 25 31  1  1  0  0  0
 27 32  1  1  0  0  0
 28 33  1  6  0  0  0
 26 34  1  6  0  0  0
 31 35  1  0  0  0  0
 29 23  1  1  0  0  0
M  END
>  <cdx:fragmentId>
5

$$$$
