15684.cdx
  Mrv1902 05222410232D          

 28 29  0  0  0  0            999 V2000
   10.4856   -6.3087    0.0000 C   0  0  0  0  0  0  0  0  0  0  0  0
    3.3369   -8.7933    0.0000 O   0  0  0  0  0  0  0  0  0  0  0  0
    6.9094   -7.5349    0.0000 C   0  0  2  0  0  0  0  0  0  0  0  0
    6.1962   -7.1201    0.0000 O   0  0  0  0  0  0  0  0  0  0  0  0
    7.6251   -7.1246    0.0000 C   0  0  1  0  0  0  0  0  0  0  0  0
    4.0586  -10.0266    0.0000 O   0  0  0  0  0  0  0  0  0  0  0  0
    4.7706   -9.6099    0.0000 C   0  0  2  0  0  0  0  0  0  0  0  0
    4.7658   -8.7849    0.0000 C   0  0  1  0  0  0  0  0  0  0  0  0
    4.0489   -8.3766    0.0000 C   0  0  0  0  0  0  0  0  0  0  0  0
    7.6278   -6.2997    0.0000 C   0  0  1  0  0  0  0  0  0  0  0  0
    6.9146   -5.8849    0.0000 C   0  0  0  0  0  0  0  0  0  0  0  0
    6.1988   -6.2951    0.0000 C   0  0  0  0  0  0  0  0  0  0  0  0
    8.3383   -7.5394    0.0000 C   0  0  0  0  0  0  0  0  0  0  0  0
    9.0541   -7.1292    0.0000 O   0  0  0  0  0  0  0  0  0  0  0  0
    8.3435   -5.8894    0.0000 C   0  0  0  0  0  0  0  0  0  0  0  0
    7.6330   -4.6497    0.0000 O   0  0  0  0  0  0  0  0  0  0  0  0
    6.9172   -5.0599    0.0000 C   0  0  0  0  0  0  0  0  0  0  0  0
    6.2041   -4.6451    0.0000 O   0  0  0  0  0  0  0  0  0  0  0  0
    9.0567   -6.3042    0.0000 C   0  0  0  0  0  0  0  0  0  0  0  0
    9.7725   -5.8940    0.0000 O   0  0  0  0  0  0  0  0  0  0  0  0
    8.3357   -8.3644    0.0000 C   0  0  0  0  0  0  0  0  0  0  0  0
    5.4875  -10.0182    0.0000 C   0  0  1  0  0  0  0  0  0  0  0  0
    6.1995   -9.6015    0.0000 C   0  0  2  0  0  0  0  0  0  0  0  0
    6.1947   -8.7765    0.0000 C   0  0  1  0  0  0  0  0  0  0  0  0
    5.4778   -8.3682    0.0000 O   0  0  0  0  0  0  0  0  0  0  0  0
    5.4923  -10.8432    0.0000 O   0  0  0  0  0  0  0  0  0  0  0  0
    6.9164  -10.0098    0.0000 O   0  0  0  0  0  0  0  0  0  0  0  0
    6.9067   -8.3599    0.0000 O   0  0  0  0  0  0  0  0  0  0  0  0
 20  1  1  0  0  0  0
  3 28  1  6  0  0  0
  3  4  1  0  0  0  0
  3  5  1  0  0  0  0
  5 10  1  0  0  0  0
 10 11  1  0  0  0  0
 11 12  2  0  0  0  0
 12  4  1  0  0  0  0
 19 14  2  0  0  0  0
  5 13  1  1  0  0  0
 20 19  1  0  0  0  0
 19 15  1  0  0  0  0
 10 15  1  1  0  0  0
 16 17  2  0  0  0  0
 17 11  1  0  0  0  0
 18 17  1  0  0  0  0
  7  6  1  6  0  0  0
 13 21  2  0  0  0  0
  7  8  1  0  0  0  0
  8  9  1  1  0  0  0
  9  2  1  0  0  0  0
  7 22  1  0  0  0  0
 22 23  1  0  0  0  0
 23 24  1  0  0  0  0
 24 25  1  0  0  0  0
 25  8  1  0  0  0  0
 24 28  1  1  0  0  0
 22 26  1  1  0  0  0
 23 27  1  6  0  0  0
M  END
>  <cdx:fragmentId>
5

$$$$
