15692.cdx
  Mrv1902 05222410242D          

 35 38  0  0  0  0            999 V2000
    6.5082  -10.7284    0.0000 C   0  0  0  0  0  0  0  0  0  0  0  0
    6.5082   -9.9034    0.0000 C   0  0  0  0  0  0  0  0  0  0  0  0
    5.7938   -9.4909    0.0000 C   0  0  0  0  0  0  0  0  0  0  0  0
    5.0793   -9.9034    0.0000 C   0  0  0  0  0  0  0  0  0  0  0  0
    5.0793  -10.7284    0.0000 C   0  0  0  0  0  0  0  0  0  0  0  0
    5.7938  -11.1409    0.0000 C   0  0  0  0  0  0  0  0  0  0  0  0
    4.3648   -9.4909    0.0000 O   0  0  0  0  0  0  0  0  0  0  0  0
    3.6503   -9.9034    0.0000 C   0  0  0  0  0  0  0  0  0  0  0  0
    3.6503  -10.7284    0.0000 C   0  0  0  0  0  0  0  0  0  0  0  0
    4.3648  -11.1409    0.0000 C   0  0  0  0  0  0  0  0  0  0  0  0
    7.2928  -10.9834    0.0000 C   0  0  0  0  0  0  0  0  0  0  0  0
    7.7778  -10.3159    0.0000 C   0  0  0  0  0  0  0  0  0  0  0  0
    7.2928   -9.6485    0.0000 O   0  0  0  0  0  0  0  0  0  0  0  0
    2.9359   -9.4909    0.0000 O   0  0  0  0  0  0  0  0  0  0  0  0
    5.7938  -11.9659    0.0000 O   0  0  0  0  0  0  0  0  0  0  0  0
    5.7938   -8.6659    0.0000 O   0  0  0  0  0  0  0  0  0  0  0  0
    5.0793   -8.2534    0.0000 C   0  0  0  0  0  0  0  0  0  0  0  0
    5.0793   -7.4284    0.0000 C   0  0  0  0  0  0  0  0  0  0  0  0
    5.7799   -7.0637    0.0000 O   0  0  0  0  0  0  0  0  0  0  0  0
    4.3648   -7.0159    0.0000 C   0  0  0  0  0  0  0  0  0  0  0  0
    3.6503   -6.6034    0.0000 O   0  0  0  0  0  0  0  0  0  0  0  0
    3.5679   -7.2295    0.0000 C   0  0  0  0  0  0  0  0  0  0  0  0
    4.3648   -6.1909    0.0000 C   0  0  0  0  0  0  0  0  0  0  0  0
    7.9815   -7.7603    0.0000 C   0  0  2  0  0  0  0  0  0  0  0  0
    8.3843   -7.0403    0.0000 C   0  0  2  0  0  0  0  0  0  0  0  0
    7.9623   -6.3315    0.0000 C   0  0  1  0  0  0  0  0  0  0  0  0
    7.1373   -6.3426    0.0000 C   0  0  2  0  0  0  0  0  0  0  0  0
    6.7345   -7.0625    0.0000 C   0  0  1  0  0  0  0  0  0  0  0  0
    7.1566   -7.7714    0.0000 O   0  0  0  0  0  0  0  0  0  0  0  0
    8.4036   -8.4692    0.0000 C   0  0  0  0  0  0  0  0  0  0  0  0
    8.3651   -5.6115    0.0000 O   0  0  0  0  0  0  0  0  0  0  0  0
    6.7153   -5.6337    0.0000 O   0  0  0  0  0  0  0  0  0  0  0  0
    9.2093   -7.0292    0.0000 O   0  0  0  0  0  0  0  0  0  0  0  0
    9.2285   -8.4580    0.0000 O   0  0  0  0  0  0  0  0  0  0  0  0
    6.5082  -12.3784    0.0000 C   0  0  0  0  0  0  0  0  0  0  0  0
  1  2  2  0  0  0  0
  2  3  1  0  0  0  0
  3  4  2  0  0  0  0
  4  5  1  0  0  0  0
  5  6  2  0  0  0  0
  6  1  1  0  0  0  0
  4  7  1  0  0  0  0
  7  8  1  0  0  0  0
  8  9  1  0  0  0  0
  9 10  2  0  0  0  0
 10  5  1  0  0  0  0
  1 11  1  0  0  0  0
 11 12  2  0  0  0  0
 12 13  1  0  0  0  0
 13  2  1  0  0  0  0
  8 14  2  0  0  0  0
  6 15  1  0  0  0  0
  3 16  1  0  0  0  0
 16 17  1  0  0  0  0
 17 18  1  0  0  0  0
 18 19  1  0  0  0  0
 18 20  1  0  0  0  0
 20 21  1  0  0  0  0
 20 22  1  0  0  0  0
 20 23  1  0  0  0  0
 24 25  1  0  0  0  0
 25 26  1  0  0  0  0
 26 27  1  0  0  0  0
 27 28  1  0  0  0  0
 28 29  1  0  0  0  0
 29 24  1  0  0  0  0
 24 30  1  1  0  0  0
 26 31  1  1  0  0  0
 27 32  1  6  0  0  0
 25 33  1  6  0  0  0
 30 34  1  0  0  0  0
 28 19  1  1  0  0  0
 15 35  1  0  0  0  0
M  END
>  <cdx:fragmentId>
5

$$$$
