15691.cdx
  Mrv1902 05222410232D          

 33 36  0  0  0  0            999 V2000
    5.3102   -6.4572    0.0000 C   0  0  0  0  0  0  0  0  0  0  0  0
    5.3102   -7.2822    0.0000 C   0  0  0  0  0  0  0  0  0  0  0  0
    6.0246   -7.6947    0.0000 C   0  0  0  0  0  0  0  0  0  0  0  0
    6.7391   -7.2822    0.0000 C   0  0  0  0  0  0  0  0  0  0  0  0
    7.4536   -7.6947    0.0000 C   0  0  0  0  0  0  0  0  0  0  0  0
    8.1681   -7.2822    0.0000 C   0  0  0  0  0  0  0  0  0  0  0  0
    8.1681   -6.4572    0.0000 C   0  0  0  0  0  0  0  0  0  0  0  0
    7.4536   -6.0447    0.0000 C   0  0  0  0  0  0  0  0  0  0  0  0
    6.7391   -6.4572    0.0000 C   0  0  0  0  0  0  0  0  0  0  0  0
    6.0246   -6.0447    0.0000 O   0  0  0  0  0  0  0  0  0  0  0  0
    8.9527   -6.2023    0.0000 O   0  0  0  0  0  0  0  0  0  0  0  0
    8.9527   -7.5372    0.0000 C   0  0  0  0  0  0  0  0  0  0  0  0
    9.4376   -6.8697    0.0000 C   0  0  0  0  0  0  0  0  0  0  0  0
    4.5957   -6.0447    0.0000 O   0  0  0  0  0  0  0  0  0  0  0  0
    7.4536   -8.5197    0.0000 O   0  0  0  0  0  0  0  0  0  0  0  0
    8.1681   -8.9322    0.0000 C   0  0  0  0  0  0  0  0  0  0  0  0
    8.1681   -9.7572    0.0000 C   0  0  2  0  0  0  0  0  0  0  0  0
    8.8825  -10.1697    0.0000 C   0  0  0  0  0  0  0  0  0  0  0  0
    8.8825  -10.9947    0.0000 C   0  0  0  0  0  0  0  0  0  0  0  0
    9.5970   -9.7572    0.0000 C   0  0  0  0  0  0  0  0  0  0  0  0
    9.5970  -10.5822    0.0000 O   0  0  0  0  0  0  0  0  0  0  0  0
    7.4536  -10.1697    0.0000 O   0  0  0  0  0  0  0  0  0  0  0  0
    6.6286  -10.1738    0.0000 C   0  0  2  0  0  0  0  0  0  0  0  0
    6.2126   -9.4614    0.0000 O   0  0  0  0  0  0  0  0  0  0  0  0
    5.3876   -9.4655    0.0000 C   0  0  1  0  0  0  0  0  0  0  0  0
    4.9786  -10.1820    0.0000 C   0  0  2  0  0  0  0  0  0  0  0  0
    5.3946  -10.8944    0.0000 C   0  0  1  0  0  0  0  0  0  0  0  0
    6.2196  -10.8903    0.0000 C   0  0  1  0  0  0  0  0  0  0  0  0
    4.9716   -8.7530    0.0000 C   0  0  0  0  0  0  0  0  0  0  0  0
    4.9857  -11.6109    0.0000 O   0  0  0  0  0  0  0  0  0  0  0  0
    4.1536  -10.1860    0.0000 O   0  0  0  0  0  0  0  0  0  0  0  0
    6.6357  -11.6027    0.0000 O   0  0  0  0  0  0  0  0  0  0  0  0
    4.1466   -8.7530    0.0000 O   0  0  0  0  0  0  0  0  0  0  0  0
  1  2  1  0  0  0  0
  2  3  2  0  0  0  0
  3  4  1  0  0  0  0
  4  5  2  0  0  0  0
  5  6  1  0  0  0  0
  6  7  2  0  0  0  0
  7  8  1  0  0  0  0
  8  9  2  0  0  0  0
  4  9  1  0  0  0  0
  9 10  1  0  0  0  0
  1 10  1  0  0  0  0
 12 13  2  0  0  0  0
 11 13  1  0  0  0  0
 12  6  1  0  0  0  0
 11  7  1  0  0  0  0
  1 14  2  0  0  0  0
 16 17  1  0  0  0  0
 17 18  1  0  0  0  0
 18 19  1  0  0  0  0
 15 16  1  0  0  0  0
 18 20  1  0  0  0  0
 18 21  1  0  0  0  0
 17 22  1  6  0  0  0
  5 15  1  0  0  0  0
 23 22  1  1  0  0  0
 23 24  1  0  0  0  0
 24 25  1  0  0  0  0
 25 26  1  0  0  0  0
 26 27  1  0  0  0  0
 27 28  1  0  0  0  0
 28 23  1  0  0  0  0
 25 29  1  1  0  0  0
 27 30  1  1  0  0  0
 26 31  1  6  0  0  0
 28 32  1  6  0  0  0
 29 33  1  0  0  0  0
M  END
>  <cdx:fragmentId>
5

$$$$
