156993.cdx
  Mrv1902 05222410192D          

 24 26  0  0  0  0            999 V2000
    8.4512   -6.8176    0.0000 C   0  0  0  0  0  0  0  0  0  0  0  0
    8.4512   -7.6426    0.0000 C   0  0  0  0  0  0  0  0  0  0  0  0
    7.7367   -8.0551    0.0000 C   0  0  0  0  0  0  0  0  0  0  0  0
    7.7367   -8.8801    0.0000 O   0  0  0  0  0  0  0  0  0  0  0  0
    7.0222   -7.6426    0.0000 C   0  0  0  0  0  0  0  0  0  0  0  0
    6.3078   -8.0551    0.0000 C   0  0  0  0  0  0  0  0  0  0  0  0
    5.5933   -7.6426    0.0000 C   0  0  0  0  0  0  0  0  0  0  0  0
    5.5933   -6.8176    0.0000 C   0  0  0  0  0  0  0  0  0  0  0  0
    6.3078   -6.4051    0.0000 C   0  0  0  0  0  0  0  0  0  0  0  0
    7.0222   -6.8176    0.0000 C   0  0  0  0  0  0  0  0  0  0  0  0
    7.7367   -6.4051    0.0000 O   0  0  0  0  0  0  0  0  0  0  0  0
    4.8788   -6.4051    0.0000 O   0  0  0  0  0  0  0  0  0  0  0  0
    4.1643   -6.8176    0.0000 C   0  0  0  0  0  0  0  0  0  0  0  0
    4.8788   -8.0551    0.0000 O   0  0  0  0  0  0  0  0  0  0  0  0
    4.1643   -7.6426    0.0000 C   0  0  0  0  0  0  0  0  0  0  0  0
    6.3078   -5.5801    0.0000 O   0  0  0  0  0  0  0  0  0  0  0  0
    6.3078   -8.8801    0.0000 O   0  0  0  0  0  0  0  0  0  0  0  0
    9.8801   -7.6426    0.0000 O   0  0  0  0  0  0  0  0  0  0  0  0
    9.1656   -5.5801    0.0000 C   0  0  0  0  0  0  0  0  0  0  0  0
    9.8801   -5.1676    0.0000 C   0  0  0  0  0  0  0  0  0  0  0  0
   10.5946   -5.5801    0.0000 C   0  0  0  0  0  0  0  0  0  0  0  0
   10.5946   -6.4051    0.0000 C   0  0  0  0  0  0  0  0  0  0  0  0
    9.8801   -6.8176    0.0000 C   0  0  0  0  0  0  0  0  0  0  0  0
    9.1656   -6.4051    0.0000 C   0  0  0  0  0  0  0  0  0  0  0  0
 23 18  1  0  0  0  0
 24 19  2  0  0  0  0
 20 19  1  0  0  0  0
 21 20  2  0  0  0  0
 22 21  1  0  0  0  0
 23 22  2  0  0  0  0
 24 23  1  0  0  0  0
  1  2  2  0  0  0  0
  2  3  1  0  0  0  0
  3  4  2  0  0  0  0
  3  5  1  0  0  0  0
  5  6  1  0  0  0  0
  6  7  2  0  0  0  0
  7  8  1  0  0  0  0
  8  9  2  0  0  0  0
  9 10  1  0  0  0  0
  5 10  2  0  0  0  0
 10 11  1  0  0  0  0
  1 11  1  0  0  0  0
  1 24  1  0  0  0  0
 12 13  1  0  0  0  0
  8 12  1  0  0  0  0
 14 15  1  0  0  0  0
  7 14  1  0  0  0  0
  9 16  1  0  0  0  0
  6 17  1  0  0  0  0
M  END
>  <cdx:fragmentId>
3719

$$$$
