157.cdx
  Mrv1902 05222410242D          

 20 22  0  0  0  0            999 V2000
    4.0025   -7.7049    0.0000 C   0  0  0  0  0  0  0  0  0  0  0  0
    3.9937   -6.8800    0.0000 C   0  0  0  0  0  0  0  0  0  0  0  0
    4.7037   -6.4599    0.0000 C   0  0  0  0  0  0  0  0  0  0  0  0
    5.4226   -6.8647    0.0000 C   0  0  0  0  0  0  0  0  0  0  0  0
    5.4314   -7.6897    0.0000 C   0  0  0  0  0  0  0  0  0  0  0  0
    4.7214   -8.1098    0.0000 C   0  0  0  0  0  0  0  0  0  0  0  0
    6.1326   -6.4446    0.0000 O   0  0  0  0  0  0  0  0  0  0  0  0
    6.8514   -6.8494    0.0000 C   0  0  0  0  0  0  0  0  0  0  0  0
    6.8603   -7.6744    0.0000 C   0  0  0  0  0  0  0  0  0  0  0  0
    6.1503   -8.0945    0.0000 C   0  0  0  0  0  0  0  0  0  0  0  0
    7.5791   -8.0792    0.0000 C   0  0  0  0  0  0  0  0  0  0  0  0
    8.2891   -7.6591    0.0000 C   0  0  0  0  0  0  0  0  0  0  0  0
    9.0080   -8.0639    0.0000 C   0  0  0  0  0  0  0  0  0  0  0  0
    9.0168   -8.8889    0.0000 C   0  0  0  0  0  0  0  0  0  0  0  0
    8.3068   -9.3090    0.0000 C   0  0  0  0  0  0  0  0  0  0  0  0
    7.5879   -8.9042    0.0000 C   0  0  0  0  0  0  0  0  0  0  0  0
    4.7302   -8.9347    0.0000 O   0  0  0  0  0  0  0  0  0  0  0  0
    3.2749   -6.4752    0.0000 O   0  0  0  0  0  0  0  0  0  0  0  0
    9.7356   -9.2937    0.0000 O   0  0  0  0  0  0  0  0  0  0  0  0
    6.1591   -8.9194    0.0000 O   0  0  0  0  0  0  0  0  0  0  0  0
  1  2  2  0  0  0  0
  2  3  1  0  0  0  0
  3  4  2  0  0  0  0
  4  5  1  0  0  0  0
  5  6  2  0  0  0  0
  6  1  1  0  0  0  0
  4  7  1  0  0  0  0
  7  8  1  0  0  0  0
  8  9  2  0  0  0  0
  9 10  1  0  0  0  0
 10  5  1  0  0  0  0
  9 11  1  0  0  0  0
 11 12  2  0  0  0  0
 12 13  1  0  0  0  0
 13 14  2  0  0  0  0
 14 15  1  0  0  0  0
 15 16  2  0  0  0  0
 16 11  1  0  0  0  0
  6 17  1  0  0  0  0
  2 18  1  0  0  0  0
 14 19  1  0  0  0  0
 10 20  2  0  0  0  0
M  END
>  <cdx:fragmentId>
5

$$$$
