157085.cdx
  Mrv1902 05222410182D          

 32 35  0  0  0  0            999 V2000
    7.4890   -5.2896    0.0000 C   0  0  1  0  0  0  0  0  0  0  0  0
    8.3084   -5.3857    0.0000 C   0  0  0  0  0  0  0  0  0  0  0  0
    8.8013   -4.7241    0.0000 C   0  0  0  0  0  0  0  0  0  0  0  0
    7.7105   -9.3223    0.0000 C   0  0  1  0  0  0  0  0  0  0  0  0
    7.6267  -10.1430    0.0000 O   0  0  0  0  0  0  0  0  0  0  0  0
    8.3814  -10.4764    0.0000 C   0  0  0  0  0  0  0  0  0  0  0  0
    8.9316   -9.8616    0.0000 C   0  0  0  0  0  0  0  0  0  0  0  0
    8.5170   -9.1484    0.0000 C   0  0  0  0  0  0  0  0  0  0  0  0
    8.5674  -11.2801    0.0000 O   0  0  0  0  0  0  0  0  0  0  0  0
    9.7523   -9.9454    0.0000 C   0  0  0  0  0  0  0  0  0  0  0  0
    8.8503   -8.3937    0.0000 O   0  0  0  0  0  0  0  0  0  0  0  0
    9.6705   -8.3050    0.0000 C   0  0  0  0  0  0  0  0  0  0  0  0
    7.5325   -7.5067    0.0000 H   0  0  0  0  0  0  0  0  0  0  0  0
    6.3368   -8.0320    0.0000 H   0  0  0  0  0  0  0  0  0  0  0  0
    6.5707  -10.2509    0.0000 O   0  0  0  0  0  0  0  0  0  0  0  0
    7.0798   -8.9141    0.0000 O   0  0  0  0  0  0  0  0  0  0  0  0
    7.1625   -4.5320    0.0000 O   0  0  0  0  0  0  0  0  0  0  0  0
    5.6700   -8.6869    0.0000 C   0  0  0  0  0  0  0  0  0  0  0  0
    6.0103   -7.2743    0.0000 C   0  0  0  0  0  0  0  0  0  0  0  0
    5.6838   -6.5167    0.0000 C   0  0  0  0  0  0  0  0  0  0  0  0
    6.1767   -5.8551    0.0000 C   0  0  0  0  0  0  0  0  0  0  0  0
    6.9961   -5.9512    0.0000 C   0  0  1  0  0  0  0  0  0  0  0  0
    7.3226   -6.7088    0.0000 N   0  0  0  0  0  0  0  0  0  0  0  0
    8.1471   -6.6817    0.0000 C   0  0  0  0  0  0  0  0  0  0  0  0
    8.6825   -7.3094    0.0000 C   0  0  0  0  0  0  0  0  0  0  0  0
    8.5254   -8.1194    0.0000 C   0  0  0  0  0  0  0  0  0  0  0  0
    7.7943   -8.5016    0.0000 C   0  0  2  0  0  0  0  0  0  0  0  0
    6.9041   -9.4962    0.0000 C   0  0  1  0  0  0  0  0  0  0  0  0
    6.4894   -8.7830    0.0000 C   0  0  2  0  0  0  0  0  0  0  0  0
    7.0396   -8.1683    0.0000 C   0  0  2  0  0  0  0  0  0  0  0  0
    6.8297   -7.3704    0.0000 C   0  0  2  0  0  0  0  0  0  0  0  0
    7.8155   -6.0473    0.0000 H   0  0  0  0  0  0  0  0  0  0  0  0
 30 13  1  1  0  0  0
 31 14  1  1  0  0  0
 28 15  1  1  0  0  0
 27 16  1  6  0  0  0
 22  1  1  0  0  0  0
 29 18  1  1  0  0  0
 30 27  1  0  0  0  0
 31 23  1  0  0  0  0
 31 19  1  0  0  0  0
 20 19  1  0  0  0  0
 21 20  1  0  0  0  0
 22 21  1  0  0  0  0
 23 22  1  0  0  0  0
 24 23  1  0  0  0  0
 25 24  1  0  0  0  0
 26 25  1  0  0  0  0
 27 26  1  0  0  0  0
  4 27  1  0  0  0  0
 28  4  1  0  0  0  0
 29 28  1  0  0  0  0
 30 29  1  0  0  0  0
 31 30  1  0  0  0  0
  1  2  1  0  0  0  0
  2  3  1  0  0  0  0
  1 17  1  6  0  0  0
  5  6  1  0  0  0  0
  6  7  1  0  0  0  0
  7  8  2  0  0  0  0
  4  5  1  6  0  0  0
  4  8  1  0  0  0  0
  6  9  2  0  0  0  0
  7 10  1  0  0  0  0
 11 12  1  0  0  0  0
  8 11  1  0  0  0  0
 22 32  1  1  0  0  0
M  END
>  <cdx:fragmentId>
21787

$$$$
