15712.cdx
  Mrv1902 05222410212D          

 14 14  0  0  0  0            999 V2000
   10.5677   -6.0912    0.0000 C   0  0  0  0  0  0  0  0  0  0  0  0
    9.8532   -6.5037    0.0000 C   0  0  0  0  0  0  0  0  0  0  0  0
    9.1387   -6.0912    0.0000 C   0  0  0  0  0  0  0  0  0  0  0  0
    8.4243   -6.5038    0.0000 C   0  0  0  0  0  0  0  0  0  0  0  0
    7.7098   -6.0912    0.0000 C   0  0  0  0  0  0  0  0  0  0  0  0
    6.9953   -6.5038    0.0000 C   0  0  0  0  0  0  0  0  0  0  0  0
    6.2808   -6.0912    0.0000 C   0  0  0  0  0  0  0  0  0  0  0  0
    5.5664   -6.5038    0.0000 C   0  0  0  0  0  0  0  0  0  0  0  0
    4.1374   -6.5038    0.0000 C   0  0  0  0  0  0  0  0  0  0  0  0
    3.4230   -6.0912    0.0000 C   0  0  0  0  0  0  0  0  0  0  0  0
    3.4230   -5.2662    0.0000 C   0  0  0  0  0  0  0  0  0  0  0  0
    4.1374   -4.8538    0.0000 C   0  0  0  0  0  0  0  0  0  0  0  0
    4.8519   -5.2663    0.0000 C   0  0  0  0  0  0  0  0  0  0  0  0
    4.8519   -6.0912    0.0000 C   0  0  0  0  0  0  0  0  0  0  0  0
 14  8  1  0  0  0  0
  2  1  1  0  0  0  0
  3  2  1  0  0  0  0
  4  3  1  0  0  0  0
  5  4  1  0  0  0  0
  6  5  1  0  0  0  0
  7  6  1  0  0  0  0
  8  7  1  0  0  0  0
 14  9  1  0  0  0  0
 10  9  1  0  0  0  0
 11 10  1  0  0  0  0
 12 11  1  0  0  0  0
 13 12  1  0  0  0  0
 14 13  1  0  0  0  0
M  END
>  <cdx:fragmentId>
17

$$$$
