15718.cdx
  Mrv1902 05222410242D          

 26 29  0  0  0  0            999 V2000
    3.2414   -8.0437    0.0000 C   0  0  0  0  0  0  0  0  0  0  0  0
    3.2414   -8.8688    0.0000 C   0  0  0  0  0  0  0  0  0  0  0  0
    3.9559   -9.2813    0.0000 C   0  0  0  0  0  0  0  0  0  0  0  0
    4.6703   -8.8688    0.0000 C   0  0  0  0  0  0  0  0  0  0  0  0
    4.6703   -8.0437    0.0000 C   0  0  0  0  0  0  0  0  0  0  0  0
    3.9559   -7.6313    0.0000 C   0  0  0  0  0  0  0  0  0  0  0  0
    5.3848   -9.2813    0.0000 O   0  0  0  0  0  0  0  0  0  0  0  0
    6.0993   -8.8688    0.0000 C   0  0  0  0  0  0  0  0  0  0  0  0
    6.0993   -8.0437    0.0000 C   0  0  0  0  0  0  0  0  0  0  0  0
    5.3848   -7.6313    0.0000 C   0  0  0  0  0  0  0  0  0  0  0  0
    6.8138   -7.6313    0.0000 C   0  0  0  0  0  0  0  0  0  0  0  0
    6.8138   -6.8062    0.0000 C   0  0  0  0  0  0  0  0  0  0  0  0
    7.5282   -8.0437    0.0000 C   0  0  0  0  0  0  0  0  0  0  0  0
    8.2427   -7.6313    0.0000 C   0  0  0  0  0  0  0  0  0  0  0  0
    8.2427   -6.8062    0.0000 C   0  0  0  0  0  0  0  0  0  0  0  0
    7.5282   -6.3937    0.0000 C   0  0  0  0  0  0  0  0  0  0  0  0
    8.9572   -8.0437    0.0000 C   0  0  0  0  0  0  0  0  0  0  0  0
    9.6716   -7.6313    0.0000 C   0  0  0  0  0  0  0  0  0  0  0  0
    9.6716   -6.8062    0.0000 C   0  0  0  0  0  0  0  0  0  0  0  0
    8.9572   -6.3937    0.0000 O   0  0  0  0  0  0  0  0  0  0  0  0
    3.9559   -6.8062    0.0000 O   0  0  0  0  0  0  0  0  0  0  0  0
    2.5269   -9.2813    0.0000 O   0  0  0  0  0  0  0  0  0  0  0  0
    5.3848   -6.8062    0.0000 O   0  0  0  0  0  0  0  0  0  0  0  0
    7.5282   -5.5687    0.0000 O   0  0  0  0  0  0  0  0  0  0  0  0
   10.0841   -6.0918    0.0000 C   0  0  0  0  0  0  0  0  0  0  0  0
   10.4685   -7.0198    0.0000 C   0  0  0  0  0  0  0  0  0  0  0  0
  1  2  2  0  0  0  0
  2  3  1  0  0  0  0
  3  4  2  0  0  0  0
  4  5  1  0  0  0  0
  5  6  2  0  0  0  0
  6  1  1  0  0  0  0
  4  7  1  0  0  0  0
  7  8  1  0  0  0  0
  8  9  2  0  0  0  0
  9 10  1  0  0  0  0
 10  5  1  0  0  0  0
  9 11  1  0  0  0  0
 11 12  1  0  0  0  0
 11 13  2  0  0  0  0
 13 14  1  0  0  0  0
 14 15  2  0  0  0  0
 15 16  1  0  0  0  0
 16 12  2  0  0  0  0
 14 17  1  0  0  0  0
 17 18  2  0  0  0  0
 18 19  1  0  0  0  0
 19 20  1  0  0  0  0
 20 15  1  0  0  0  0
  6 21  1  0  0  0  0
  2 22  1  0  0  0  0
 10 23  2  0  0  0  0
 16 24  1  0  0  0  0
 19 25  1  0  0  0  0
 19 26  1  0  0  0  0
M  END
>  <cdx:fragmentId>
5

$$$$
