157143.cdx
  Mrv1902 05222410222D          

 43 48  0  0  0  0            999 V2000
    8.0865   -7.2187    0.0000 O   0  0  0  0  0  0  0  0  0  0  0  0
    7.6740   -7.9332    0.0000 C   0  0  0  0  0  0  0  0  0  0  0  0
    8.0865   -8.6476    0.0000 C   0  0  0  0  0  0  0  0  0  0  0  0
    8.9115   -8.6476    0.0000 C   0  0  1  0  0  0  0  0  0  0  0  0
    9.3240   -7.9332    0.0000 C   0  0  1  0  0  0  0  0  0  0  0  0
    8.6640   -6.7900    0.0000 C   0  0  0  0  0  0  0  0  0  0  0  0
    9.0765   -6.0756    0.0000 C   0  0  0  0  0  0  0  0  0  0  0  0
    8.6640   -5.3611    0.0000 C   0  0  0  0  0  0  0  0  0  0  0  0
    7.8390   -5.3611    0.0000 O   0  0  0  0  0  0  0  0  0  0  0  0
    9.0765   -4.6466    0.0000 C   0  0  0  0  0  0  0  0  0  0  0  0
    9.9015   -4.6466    0.0000 C   0  0  0  0  0  0  0  0  0  0  0  0
   10.3140   -3.9322    0.0000 O   0  0  0  0  0  0  0  0  0  0  0  0
   10.3140   -5.3611    0.0000 C   0  0  0  0  0  0  0  0  0  0  0  0
    9.9015   -6.0756    0.0000 C   0  0  0  0  0  0  0  0  0  0  0  0
    7.8390   -6.7900    0.0000 O   0  0  0  0  0  0  0  0  0  0  0  0
   10.1490   -7.9332    0.0000 C   0  0  2  0  0  0  0  0  0  0  0  0
   10.5615   -7.2187    0.0000 C   0  0  0  0  0  0  0  0  0  0  0  0
   10.1490   -6.5042    0.0000 C   0  0  0  0  0  0  0  0  0  0  0  0
   10.5615   -5.7898    0.0000 C   0  0  0  0  0  0  0  0  0  0  0  0
   11.3865   -5.7898    0.0000 C   0  0  0  0  0  0  0  0  0  0  0  0
   11.7990   -5.0753    0.0000 O   0  0  0  0  0  0  0  0  0  0  0  0
   11.7990   -6.5042    0.0000 C   0  0  0  0  0  0  0  0  0  0  0  0
   11.3865   -7.2187    0.0000 C   0  0  0  0  0  0  0  0  0  0  0  0
   11.7990   -7.9332    0.0000 O   0  0  0  0  0  0  0  0  0  0  0  0
   10.5615   -8.6476    0.0000 C   0  0  0  0  0  0  0  0  0  0  0  0
   10.1490   -9.3622    0.0000 C   0  0  0  0  0  0  0  0  0  0  0  0
   10.5615  -10.0766    0.0000 C   0  0  0  0  0  0  0  0  0  0  0  0
    9.3240   -9.3622    0.0000 C   0  0  0  0  0  0  0  0  0  0  0  0
    7.6740   -9.3622    0.0000 C   0  0  0  0  0  0  0  0  0  0  0  0
    8.0865  -10.0766    0.0000 O   0  0  0  0  0  0  0  0  0  0  0  0
    6.8490   -9.3622    0.0000 C   0  0  0  0  0  0  0  0  0  0  0  0
    6.4365   -8.6476    0.0000 C   0  0  0  0  0  0  0  0  0  0  0  0
    6.8490   -7.9332    0.0000 C   0  0  0  0  0  0  0  0  0  0  0  0
    5.1266   -9.3151    0.0000 O   0  0  0  0  0  0  0  0  0  0  0  0
    3.6275   -7.8226    0.0000 C   0  0  0  0  0  0  0  0  0  0  0  0
    2.9130   -8.2351    0.0000 C   0  0  0  0  0  0  0  0  0  0  0  0
    2.1985   -9.4726    0.0000 O   0  0  0  0  0  0  0  0  0  0  0  0
    2.9130   -9.0601    0.0000 C   0  0  0  0  0  0  0  0  0  0  0  0
    3.6275   -9.4726    0.0000 C   0  0  0  0  0  0  0  0  0  0  0  0
    4.3419   -9.0601    0.0000 C   0  0  0  0  0  0  0  0  0  0  0  0
    4.3419   -8.2351    0.0000 C   0  0  0  0  0  0  0  0  0  0  0  0
    5.1266   -7.9802    0.0000 C   0  0  0  0  0  0  0  0  0  0  0  0
    5.6115   -8.6476    0.0000 C   0  0  0  0  0  0  0  0  0  0  0  0
 43 34  1  0  0  0  0
 40 34  1  0  0  0  0
 41 35  1  0  0  0  0
 36 35  2  0  0  0  0
 38 36  1  0  0  0  0
 38 37  1  0  0  0  0
 39 38  2  0  0  0  0
 40 39  1  0  0  0  0
 41 40  2  0  0  0  0
 42 41  1  0  0  0  0
  1  2  1  0  0  0  0
  2  3  2  0  0  0  0
  4  3  1  1  0  0  0
  4  5  1  0  0  0  0
  5  6  1  1  0  0  0
  6  7  1  0  0  0  0
  7  8  2  0  0  0  0
  8  9  1  0  0  0  0
  8 10  1  0  0  0  0
 10 11  2  0  0  0  0
 11 12  1  0  0  0  0
 11 13  1  0  0  0  0
 13 14  2  0  0  0  0
  7 14  1  0  0  0  0
  6 15  2  0  0  0  0
  5 16  1  0  0  0  0
 16 17  1  6  0  0  0
 17 18  2  0  0  0  0
 18 19  1  0  0  0  0
 19 20  2  0  0  0  0
 20 21  1  0  0  0  0
 20 22  1  0  0  0  0
 22 23  2  0  0  0  0
 17 23  1  0  0  0  0
 23 24  1  0  0  0  0
 16 25  1  0  0  0  0
 25 26  1  0  0  0  0
 26 27  1  0  0  0  0
 26 28  2  0  0  0  0
  4 28  1  0  0  0  0
  3 29  1  0  0  0  0
 29 30  1  0  0  0  0
 29 31  2  0  0  0  0
 31 32  1  0  0  0  0
 32 43  1  0  0  0  0
 43 42  2  0  0  0  0
 32 33  2  0  0  0  0
  2 33  1  0  0  0  0
M  END
>  <cdx:fragmentId>
3797

$$$$
