15733.cdx
  Mrv1902 05222410242D          

 30 34  0  0  0  0            999 V2000
    5.6558   -9.0467    0.0000 C   0  0  0  0  0  0  0  0  0  0  0  0
    5.0989   -8.7438    0.0000 C   0  0  0  0  0  0  0  0  0  0  0  0
    7.8603   -6.5704    0.0000 C   0  0  0  0  0  0  0  0  0  0  0  0
    7.8405   -9.3341    0.0000 O   0  0  0  0  0  0  0  0  0  0  0  0
    7.7685  -10.8683    0.0000 C   0  0  0  0  0  0  0  0  0  0  0  0
    7.3611  -10.1509    0.0000 C   0  0  0  0  0  0  0  0  0  0  0  0
    4.7878  -11.3833    0.0000 O   0  0  0  0  0  0  0  0  0  0  0  0
    7.4427   -7.2819    0.0000 C   0  0  0  0  0  0  0  0  0  0  0  0
    7.9228   -7.9528    0.0000 O   0  0  0  0  0  0  0  0  0  0  0  0
    7.4331   -8.6167    0.0000 C   0  0  0  0  0  0  0  0  0  0  0  0
    6.5362  -10.1449    0.0000 C   0  0  0  0  0  0  0  0  0  0  0  0
    6.1952  -10.8962    0.0000 O   0  0  0  0  0  0  0  0  0  0  0  0
    5.3754  -10.8041    0.0000 C   0  0  0  0  0  0  0  0  0  0  0  0
    5.2274   -7.5210    0.0000 C   0  0  0  0  0  0  0  0  0  0  0  0
    5.9448   -7.1136    0.0000 C   0  0  0  0  0  0  0  0  0  0  0  0
    6.6563   -7.5312    0.0000 C   0  0  0  0  0  0  0  0  0  0  0  0
    6.6504   -8.3562    0.0000 C   0  0  0  0  0  0  0  0  0  0  0  0
    4.5040   -8.7533    0.0000 C   0  0  1  0  0  0  0  0  0  0  0  0
    5.2214   -8.3460    0.0000 C   0  0  1  0  0  0  0  0  0  0  0  0
    5.9329   -8.7636    0.0000 C   0  0  1  0  0  0  0  0  0  0  0  0
    5.9270   -9.5885    0.0000 C   0  0  2  0  0  0  0  0  0  0  0  0
    5.2096   -9.9959    0.0000 C   0  0  0  0  0  0  0  0  0  0  0  0
    4.4981   -9.5783    0.0000 C   0  0  0  0  0  0  0  0  0  0  0  0
    8.5935  -10.8742    0.0000 C   0  0  0  0  0  0  0  0  0  0  0  0
    9.0009  -11.5916    0.0000 C   0  0  0  0  0  0  0  0  0  0  0  0
    7.4632   -4.4241    0.0000 C   0  0  0  0  0  0  0  0  0  0  0  0
    7.8705   -5.1415    0.0000 C   0  0  0  0  0  0  0  0  0  0  0  0
    7.4529   -5.8530    0.0000 C   0  0  0  0  0  0  0  0  0  0  0  0
    4.5070   -7.9335    0.0000 H   0  0  0  0  0  0  0  0  0  0  0  0
    6.6474   -9.1761    0.0000 H   0  0  0  0  0  0  0  0  0  0  0  0
  2  1  1  0  0  0  0
 21  1  1  1  0  0  0
 18  2  1  1  0  0  0
  8  3  2  0  0  0  0
 10  4  2  0  0  0  0
  6  5  1  0  0  0  0
 11  6  2  0  0  0  0
 13  7  2  0  0  0  0
  8 16  1  0  0  0  0
  9  8  1  0  0  0  0
 10  9  1  0  0  0  0
 17 10  1  0  0  0  0
 11 21  1  0  0  0  0
 12 11  1  0  0  0  0
 13 12  1  0  0  0  0
 22 13  1  0  0  0  0
 14 19  1  0  0  0  0
 15 14  1  0  0  0  0
 16 15  1  0  0  0  0
 17 16  2  0  0  0  0
 20 17  1  0  0  0  0
 18 23  1  0  0  0  0
 19 18  1  0  0  0  0
 20 19  1  0  0  0  0
 21 20  1  0  0  0  0
 22 21  1  0  0  0  0
 23 22  2  0  0  0  0
  5 24  1  0  0  0  0
 24 25  1  0  0  0  0
 27 26  1  0  0  0  0
  3 28  1  0  0  0  0
 28 27  1  0  0  0  0
 19 29  1  1  0  0  0
 20 30  1  1  0  0  0
M  END
>  <cdx:fragmentId>
5

$$$$
