15731.cdx
  Mrv1902 05222410242D          

 19 20  0  0  0  0            999 V2000
    9.6765   -4.2266    0.0000 C   0  0  0  0  0  0  0  0  0  0  0  0
    8.8695   -4.3981    0.0000 C   0  0  0  0  0  0  0  0  0  0  0  0
    8.6146   -5.1827    0.0000 C   0  0  0  0  0  0  0  0  0  0  0  0
    7.8076   -5.3542    0.0000 C   0  0  0  0  0  0  0  0  0  0  0  0
    7.5527   -6.1389    0.0000 C   0  0  0  0  0  0  0  0  0  0  0  0
    6.7680   -6.3938    0.0000 C   0  0  0  0  0  0  0  0  0  0  0  0
    6.7680   -7.2188    0.0000 C   0  0  0  0  0  0  0  0  0  0  0  0
    6.0536   -7.6313    0.0000 C   0  0  2  0  0  0  0  0  0  0  0  0
    5.3391   -7.2188    0.0000 C   0  0  2  0  0  0  0  0  0  0  0  0
    5.3391   -6.3938    0.0000 C   0  0  0  0  0  0  0  0  0  0  0  0
    6.0536   -5.9813    0.0000 C   0  0  0  0  0  0  0  0  0  0  0  0
    4.6246   -7.6313    0.0000 O   0  0  0  0  0  0  0  0  0  0  0  0
    6.0536   -8.4563    0.0000 O   0  0  0  0  0  0  0  0  0  0  0  0
    7.5527   -7.4737    0.0000 C   0  0  0  0  0  0  0  0  0  0  0  0
    7.8076   -8.2584    0.0000 O   0  0  0  0  0  0  0  0  0  0  0  0
    8.0376   -6.8063    0.0000 O   0  0  0  0  0  0  0  0  0  0  0  0
    6.7680   -8.8688    0.0000 C   0  0  0  0  0  0  0  0  0  0  0  0
    6.7680   -9.6938    0.0000 O   0  0  0  0  0  0  0  0  0  0  0  0
    7.4825   -8.4563    0.0000 C   0  0  0  0  0  0  0  0  0  0  0  0
  1  2  1  0  0  0  0
  2  3  1  0  0  0  0
  3  4  1  0  0  0  0
  4  5  2  0  0  0  0
  5  6  1  0  0  0  0
  6  7  2  0  0  0  0
  7  8  1  0  0  0  0
  8  9  1  0  0  0  0
  9 10  1  0  0  0  0
 10 11  1  0  0  0  0
  6 11  1  0  0  0  0
  9 12  1  1  0  0  0
  8 13  1  1  0  0  0
  7 14  1  0  0  0  0
 14 15  2  0  0  0  0
 14 16  1  0  0  0  0
  5 16  1  0  0  0  0
 13 17  1  0  0  0  0
 17 18  2  0  0  0  0
 17 19  1  0  0  0  0
M  END
>  <cdx:fragmentId>
19026

$$$$
