1575.cdx
  Mrv1902 05222410252D          

 13 14  0  0  0  0            999 V2000
    4.0177   -7.1849    0.0000 C   0  0  0  0  0  0  0  0  0  0  0  0
    3.6052   -7.8994    0.0000 C   0  0  0  0  0  0  0  0  0  0  0  0
    4.0177   -8.6138    0.0000 C   0  0  0  0  0  0  0  0  0  0  0  0
    4.8427   -8.6138    0.0000 C   0  0  0  0  0  0  0  0  0  0  0  0
    5.2552   -7.8994    0.0000 C   0  0  0  0  0  0  0  0  0  0  0  0
    4.8427   -7.1849    0.0000 C   0  0  0  0  0  0  0  0  0  0  0  0
    6.0802   -7.8994    0.0000 C   0  0  2  0  0  0  0  0  0  0  0  0
    6.5652   -8.5668    0.0000 C   0  0  1  0  0  0  0  0  0  0  0  0
    7.3498   -8.3119    0.0000 N   0  0  0  0  0  0  0  0  0  0  0  0
    7.3498   -7.4869    0.0000 C   0  0  1  0  0  0  0  0  0  0  0  0
    6.5652   -7.2319    0.0000 O   0  0  0  0  0  0  0  0  0  0  0  0
    8.0643   -7.0744    0.0000 C   0  0  0  0  0  0  0  0  0  0  0  0
    6.3516   -9.3637    0.0000 C   0  0  0  0  0  0  0  0  0  0  0  0
  1  2  2  0  0  0  0
  2  3  1  0  0  0  0
  3  4  2  0  0  0  0
  4  5  1  0  0  0  0
  5  6  2  0  0  0  0
  6  1  1  0  0  0  0
  7  5  1  1  0  0  0
  7  8  1  0  0  0  0
  8  9  1  0  0  0  0
  9 10  1  0  0  0  0
 10 11  1  0  0  0  0
 11  7  1  0  0  0  0
 10 12  1  1  0  0  0
  8 13  1  1  0  0  0
M  END
>  <cdx:fragmentId>
5

$$$$
