15772.cdx
  Mrv1902 05222410192D          

 46 48  0  0  0  0            999 V2000
    4.9489  -10.4153    0.0000 O   0  0  0  0  0  0  0  0  0  0  0  0
    5.8449   -8.4776    0.0000 O   0  0  0  0  0  0  0  0  0  0  0  0
    5.1778   -8.9630    0.0000 C   0  0  1  0  0  0  0  0  0  0  0  0
    5.4333   -9.7475    0.0000 C   0  0  2  0  0  0  0  0  0  0  0  0
    6.2583   -9.7469    0.0000 C   0  0  1  0  0  0  0  0  0  0  0  0
    6.5127   -8.9621    0.0000 C   0  0  1  0  0  0  0  0  0  0  0  0
    7.2971   -8.7066    0.0000 C   0  0  0  0  0  0  0  0  0  0  0  0
    8.0083   -9.1247    0.0000 O   0  0  0  0  0  0  0  0  0  0  0  0
    6.7437  -10.4140    0.0000 O   0  0  0  0  0  0  0  0  0  0  0  0
    4.3631   -9.0927    0.0000 C   0  0  0  0  0  0  0  0  0  0  0  0
    4.5991   -8.3751    0.0000 O   0  0  0  0  0  0  0  0  0  0  0  0
    4.6056   -7.5501    0.0000 C   0  0  1  0  0  0  0  0  0  0  0  0
    5.3233   -7.1433    0.0000 O   0  0  0  0  0  0  0  0  0  0  0  0
    5.3299   -6.3183    0.0000 C   0  0  1  0  0  0  0  0  0  0  0  0
    4.6187   -5.9002    0.0000 C   0  0  2  0  0  0  0  0  0  0  0  0
    3.9010   -6.3070    0.0000 C   0  0  1  0  0  0  0  0  0  0  0  0
    3.8944   -7.1320    0.0000 C   0  0  1  0  0  0  0  0  0  0  0  0
    3.1767   -7.5388    0.0000 O   0  0  0  0  0  0  0  0  0  0  0  0
    3.8434   -8.4519    0.0000 O   0  0  0  0  0  0  0  0  0  0  0  0
    6.4087  -11.1679    0.0000 C   0  0  0  0  0  0  0  0  0  0  0  0
    6.8941  -11.8350    0.0000 O   0  0  0  0  0  0  0  0  0  0  0  0
    5.5883  -11.2547    0.0000 C   0  0  0  0  0  0  0  0  0  0  0  0
    1.7609   -5.8775    0.0000 C   0  0  0  0  0  0  0  0  0  0  0  0
    2.4655   -7.1206    0.0000 O   0  0  0  0  0  0  0  0  0  0  0  0
    2.4721   -6.2957    0.0000 C   0  0  0  0  0  0  0  0  0  0  0  0
    3.1898   -5.8888    0.0000 O   0  0  0  0  0  0  0  0  0  0  0  0
    7.4830   -5.0978    0.0000 O   0  0  0  0  0  0  0  0  0  0  0  0
    6.7783   -3.8547    0.0000 C   0  0  0  0  0  0  0  0  0  0  0  0
    6.7718   -4.6797    0.0000 C   0  0  0  0  0  0  0  0  0  0  0  0
    6.0541   -5.0865    0.0000 O   0  0  0  0  0  0  0  0  0  0  0  0
    6.0476   -5.9115    0.0000 C   0  0  0  0  0  0  0  0  0  0  0  0
    3.9206   -3.8321    0.0000 O   0  0  0  0  0  0  0  0  0  0  0  0
    3.1963   -5.0639    0.0000 C   0  0  0  0  0  0  0  0  0  0  0  0
    3.9140   -4.6570    0.0000 C   0  0  0  0  0  0  0  0  0  0  0  0
    4.6252   -5.0752    0.0000 O   0  0  0  0  0  0  0  0  0  0  0  0
    8.7260   -8.7179    0.0000 C   0  0  0  0  0  0  0  0  0  0  0  0
    9.4372   -9.1360    0.0000 C   0  0  0  0  0  0  0  0  0  0  0  0
    8.7325   -7.8929    0.0000 O   0  0  0  0  0  0  0  0  0  0  0  0
   10.1549   -8.7292    0.0000 C   0  0  0  0  0  0  0  0  0  0  0  0
   10.8661   -9.1474    0.0000 C   0  0  0  0  0  0  0  0  0  0  0  0
   10.8596   -9.9723    0.0000 C   0  0  0  0  0  0  0  0  0  0  0  0
   11.5707  -10.3905    0.0000 C   0  0  0  0  0  0  0  0  0  0  0  0
   12.2885   -9.9837    0.0000 C   0  0  0  0  0  0  0  0  0  0  0  0
   12.2950   -9.1587    0.0000 C   0  0  0  0  0  0  0  0  0  0  0  0
   11.5838   -8.7405    0.0000 C   0  0  0  0  0  0  0  0  0  0  0  0
   12.9996  -10.4018    0.0000 O   0  0  0  0  0  0  0  0  0  0  0  0
  2  3  1  0  0  0  0
  3  4  1  0  0  0  0
  4  5  1  0  0  0  0
  5  6  1  0  0  0  0
  2  6  1  0  0  0  0
  7  8  1  0  0  0  0
  6  7  1  6  0  0  0
  5  9  1  1  0  0  0
  4  1  1  6  0  0  0
  3 10  1  0  0  0  0
  3 11  1  6  0  0  0
 12 11  1  6  0  0  0
 12 13  1  0  0  0  0
 13 14  1  0  0  0  0
 14 15  1  0  0  0  0
 15 16  1  0  0  0  0
 16 17  1  0  0  0  0
 17 12  1  0  0  0  0
 29 27  2  0  0  0  0
 14 31  1  1  0  0  0
 25 23  1  0  0  0  0
 16 26  1  1  0  0  0
 17 18  1  6  0  0  0
 34 32  2  0  0  0  0
 15 35  1  6  0  0  0
 10 19  1  0  0  0  0
  9 20  1  0  0  0  0
 20 21  2  0  0  0  0
 20 22  1  0  0  0  0
 25 24  2  0  0  0  0
 26 25  1  0  0  0  0
 29 28  1  0  0  0  0
 30 29  1  0  0  0  0
 31 30  1  0  0  0  0
 34 33  1  0  0  0  0
 35 34  1  0  0  0  0
  8 36  1  0  0  0  0
 36 37  1  0  0  0  0
 36 38  2  0  0  0  0
 37 39  2  0  0  0  0
 39 40  1  0  0  0  0
 40 41  2  0  0  0  0
 41 42  1  0  0  0  0
 42 43  2  0  0  0  0
 43 44  1  0  0  0  0
 44 45  2  0  0  0  0
 45 40  1  0  0  0  0
 43 46  1  0  0  0  0
M  END
>  <cdx:fragmentId>
204591

$$$$
