15771.cdx
  Mrv1902 05222410182D          

 33 35  0  0  0  0            999 V2000
    2.5402   -6.8475    0.0000 C   0  0  0  0  0  0  0  0  0  0  0  0
    2.5402   -7.6725    0.0000 C   0  0  0  0  0  0  0  0  0  0  0  0
    3.2546   -8.0850    0.0000 C   0  0  0  0  0  0  0  0  0  0  0  0
    3.9691   -7.6725    0.0000 C   0  0  0  0  0  0  0  0  0  0  0  0
    3.9691   -6.8475    0.0000 C   0  0  0  0  0  0  0  0  0  0  0  0
    3.2546   -6.4350    0.0000 C   0  0  0  0  0  0  0  0  0  0  0  0
    4.6836   -6.4350    0.0000 C   0  0  0  0  0  0  0  0  0  0  0  0
    5.3980   -6.8475    0.0000 C   0  0  0  0  0  0  0  0  0  0  0  0
    6.1125   -6.4350    0.0000 C   0  0  0  0  0  0  0  0  0  0  0  0
    6.8270   -6.8475    0.0000 O   0  0  0  0  0  0  0  0  0  0  0  0
    7.5415   -6.4350    0.0000 C   0  0  0  0  0  0  0  0  0  0  0  0
    6.1125   -5.6100    0.0000 O   0  0  0  0  0  0  0  0  0  0  0  0
    8.2559   -6.8475    0.0000 C   0  0  2  0  0  0  0  0  0  0  0  0
    8.2559   -7.6725    0.0000 C   0  0  2  0  0  0  0  0  0  0  0  0
    8.9704   -8.0850    0.0000 C   0  0  1  0  0  0  0  0  0  0  0  0
    9.6849   -7.6725    0.0000 C   0  0  2  0  0  0  0  0  0  0  0  0
    9.6849   -6.8475    0.0000 C   0  0  2  0  0  0  0  0  0  0  0  0
    8.9704   -6.4350    0.0000 O   0  0  0  0  0  0  0  0  0  0  0  0
    8.9704   -8.9100    0.0000 O   0  0  0  0  0  0  0  0  0  0  0  0
    7.5415   -8.0850    0.0000 O   0  0  0  0  0  0  0  0  0  0  0  0
   10.3993   -8.0850    0.0000 O   0  0  0  0  0  0  0  0  0  0  0  0
   10.3993   -6.4350    0.0000 O   0  0  0  0  0  0  0  0  0  0  0  0
   10.3993   -5.6100    0.0000 C   0  0  1  0  0  0  0  0  0  0  0  0
   10.8493   -4.9185    0.0000 C   0  0  2  0  0  0  0  0  0  0  0  0
   10.3307   -4.2769    0.0000 C   0  0  1  0  0  0  0  0  0  0  0  0
    9.5602   -4.5719    0.0000 C   0  0  2  0  0  0  0  0  0  0  0  0
    9.6026   -5.3958    0.0000 O   0  0  0  0  0  0  0  0  0  0  0  0
    8.8068   -4.2356    0.0000 C   0  0  0  0  0  0  0  0  0  0  0  0
   11.6698   -4.8330    0.0000 O   0  0  0  0  0  0  0  0  0  0  0  0
   10.4604   -3.4622    0.0000 O   0  0  0  0  0  0  0  0  0  0  0  0
    8.5933   -3.4387    0.0000 O   0  0  0  0  0  0  0  0  0  0  0  0
   11.1138   -6.0225    0.0000 C   0  0  0  0  0  0  0  0  0  0  0  0
   11.8283   -5.6100    0.0000 O   0  0  0  0  0  0  0  0  0  0  0  0
  1  2  2  0  0  0  0
  2  3  1  0  0  0  0
  3  4  2  0  0  0  0
  4  5  1  0  0  0  0
  5  6  2  0  0  0  0
  6  1  1  0  0  0  0
  5  7  1  0  0  0  0
  7  8  2  0  0  0  0
  8  9  1  0  0  0  0
  9 10  1  0  0  0  0
 10 11  1  0  0  0  0
  9 12  2  0  0  0  0
 13 11  1  1  0  0  0
 13 14  1  0  0  0  0
 14 15  1  0  0  0  0
 15 16  1  0  0  0  0
 16 17  1  0  0  0  0
 17 18  1  0  0  0  0
 18 13  1  0  0  0  0
 15 19  1  1  0  0  0
 14 20  1  6  0  0  0
 16 21  1  6  0  0  0
 17 22  1  6  0  0  0
 23 22  1  6  0  0  0
 23 24  1  0  0  0  0
 24 25  1  0  0  0  0
 25 26  1  0  0  0  0
 26 27  1  0  0  0  0
 27 23  1  0  0  0  0
 26 28  1  6  0  0  0
 24 29  1  6  0  0  0
 25 30  1  1  0  0  0
 28 31  1  0  0  0  0
 23 32  1  0  0  0  0
 32 33  1  0  0  0  0
M  END
>  <cdx:fragmentId>
5

$$$$
