15776.cdx
  Mrv1902 05222410192D          

 31 32  0  0  0  0            999 V2000
    3.4655   -9.7075    0.0000 C   0  0  0  0  0  0  0  0  0  0  0  0
    3.4655  -10.5325    0.0000 C   0  0  0  0  0  0  0  0  0  0  0  0
    4.1800  -10.9450    0.0000 C   0  0  0  0  0  0  0  0  0  0  0  0
    4.8945  -10.5325    0.0000 C   0  0  0  0  0  0  0  0  0  0  0  0
    4.8945   -9.7075    0.0000 C   0  0  0  0  0  0  0  0  0  0  0  0
    4.1800   -9.2950    0.0000 C   0  0  0  0  0  0  0  0  0  0  0  0
    4.1800  -11.7700    0.0000 O   0  0  0  0  0  0  0  0  0  0  0  0
    5.6089  -10.9450    0.0000 O   0  0  0  0  0  0  0  0  0  0  0  0
    6.3234  -10.5325    0.0000 C   0  0  0  0  0  0  0  0  0  0  0  0
    4.1800   -8.4700    0.0000 C   0  0  2  0  0  0  0  0  0  0  0  0
    3.4655   -8.0575    0.0000 O   0  0  0  0  0  0  0  0  0  0  0  0
    4.8945   -8.0575    0.0000 C   0  0  1  0  0  0  0  0  0  0  0  0
    5.6089   -8.4700    0.0000 C   0  0  0  0  0  0  0  0  0  0  0  0
    4.8945   -7.2325    0.0000 O   0  0  0  0  0  0  0  0  0  0  0  0
    5.6089   -9.2950    0.0000 O   0  0  0  0  0  0  0  0  0  0  0  0
    5.6089   -6.8200    0.0000 C   0  0  0  0  0  0  0  0  0  0  0  0
    6.3234   -7.2325    0.0000 C   0  0  0  0  0  0  0  0  0  0  0  0
    7.0379   -6.8200    0.0000 C   0  0  0  0  0  0  0  0  0  0  0  0
    7.0379   -5.9950    0.0000 C   0  0  0  0  0  0  0  0  0  0  0  0
    6.3234   -5.5825    0.0000 C   0  0  0  0  0  0  0  0  0  0  0  0
    5.6089   -5.9950    0.0000 C   0  0  0  0  0  0  0  0  0  0  0  0
    4.8945   -5.5825    0.0000 O   0  0  0  0  0  0  0  0  0  0  0  0
    4.1800   -5.9950    0.0000 C   0  0  0  0  0  0  0  0  0  0  0  0
    6.3234   -8.0575    0.0000 O   0  0  0  0  0  0  0  0  0  0  0  0
    7.0379   -8.4700    0.0000 C   0  0  0  0  0  0  0  0  0  0  0  0
    7.7524   -5.5825    0.0000 C   0  0  2  0  0  0  0  0  0  0  0  0
    8.4668   -5.9950    0.0000 C   0  0  1  0  0  0  0  0  0  0  0  0
    9.1813   -5.5825    0.0000 O   0  0  0  0  0  0  0  0  0  0  0  0
    7.7524   -4.7575    0.0000 O   0  0  0  0  0  0  0  0  0  0  0  0
    8.4668   -6.8200    0.0000 C   0  0  0  0  0  0  0  0  0  0  0  0
    9.1813   -7.2325    0.0000 O   0  0  0  0  0  0  0  0  0  0  0  0
  1  2  2  0  0  0  0
  2  3  1  0  0  0  0
  3  4  2  0  0  0  0
  4  5  1  0  0  0  0
  5  6  2  0  0  0  0
  6  1  1  0  0  0  0
  3  7  1  0  0  0  0
  4  8  1  0  0  0  0
  8  9  1  0  0  0  0
  6 10  1  0  0  0  0
 10 11  1  6  0  0  0
 10 12  1  0  0  0  0
 12 13  1  0  0  0  0
 12 14  1  6  0  0  0
 13 15  1  0  0  0  0
 14 16  1  0  0  0  0
 16 17  2  0  0  0  0
 17 18  1  0  0  0  0
 18 19  2  0  0  0  0
 19 20  1  0  0  0  0
 20 21  2  0  0  0  0
 21 16  1  0  0  0  0
 21 22  1  0  0  0  0
 22 23  1  0  0  0  0
 17 24  1  0  0  0  0
 24 25  1  0  0  0  0
 19 26  1  0  0  0  0
 26 27  1  0  0  0  0
 27 28  1  1  0  0  0
 26 29  1  1  0  0  0
 27 30  1  0  0  0  0
 30 31  1  0  0  0  0
M  END
>  <cdx:fragmentId>
204952

$$$$
