15780.cdx
  Mrv1902 05222410272D          

 35 39  0  0  0  0            999 V2000
    2.3133   -7.0950    0.0000 C   0  0  0  0  0  0  0  0  0  0  0  0
    2.3133   -7.9200    0.0000 C   0  0  0  0  0  0  0  0  0  0  0  0
    3.0277   -8.3325    0.0000 C   0  0  0  0  0  0  0  0  0  0  0  0
    3.7422   -7.9200    0.0000 C   0  0  0  0  0  0  0  0  0  0  0  0
    3.7422   -7.0950    0.0000 C   0  0  0  0  0  0  0  0  0  0  0  0
    3.0277   -6.6825    0.0000 C   0  0  0  0  0  0  0  0  0  0  0  0
    4.4567   -8.3325    0.0000 C   0  0  0  0  0  0  0  0  0  0  0  0
    5.1712   -7.9200    0.0000 C   0  0  1  0  0  0  0  0  0  0  0  0
    5.1712   -7.0950    0.0000 C   0  0  0  0  0  0  0  0  0  0  0  0
    4.4567   -6.6825    0.0000 O   0  0  0  0  0  0  0  0  0  0  0  0
    5.8856   -6.6825    0.0000 C   0  0  0  0  0  0  0  0  0  0  0  0
    5.8856   -5.8575    0.0000 C   0  0  0  0  0  0  0  0  0  0  0  0
    6.6001   -7.0950    0.0000 C   0  0  0  0  0  0  0  0  0  0  0  0
    7.3146   -6.6825    0.0000 C   0  0  0  0  0  0  0  0  0  0  0  0
    7.3146   -5.8575    0.0000 C   0  0  0  0  0  0  0  0  0  0  0  0
    6.6001   -5.4450    0.0000 C   0  0  0  0  0  0  0  0  0  0  0  0
    8.0992   -6.9374    0.0000 C   0  0  0  0  0  0  0  0  0  0  0  0
    8.5841   -6.2700    0.0000 C   0  0  1  0  0  0  0  0  0  0  0  0
    8.0992   -5.6026    0.0000 O   0  0  0  0  0  0  0  0  0  0  0  0
    9.4091   -6.2700    0.0000 C   0  0  0  0  0  0  0  0  0  0  0  0
    9.8216   -6.9845    0.0000 C   0  0  0  0  0  0  0  0  0  0  0  0
   10.6466   -6.9845    0.0000 C   0  0  0  0  0  0  0  0  0  0  0  0
   11.0591   -6.2700    0.0000 C   0  0  0  0  0  0  0  0  0  0  0  0
   10.6466   -5.5555    0.0000 C   0  0  0  0  0  0  0  0  0  0  0  0
    9.8216   -5.5555    0.0000 C   0  0  0  0  0  0  0  0  0  0  0  0
    1.5988   -6.6825    0.0000 O   0  0  0  0  0  0  0  0  0  0  0  0
    3.0277   -9.1575    0.0000 O   0  0  0  0  0  0  0  0  0  0  0  0
    4.4567   -9.1575    0.0000 O   0  0  0  0  0  0  0  0  0  0  0  0
    8.3127   -7.7343    0.0000 C   0  0  0  0  0  0  0  0  0  0  0  0
    8.5262   -8.5312    0.0000 O   0  0  0  0  0  0  0  0  0  0  0  0
   11.0591   -4.8411    0.0000 O   0  0  0  0  0  0  0  0  0  0  0  0
   11.8841   -6.2700    0.0000 O   0  0  0  0  0  0  0  0  0  0  0  0
    5.8856   -8.3325    0.0000 O   0  0  0  0  0  0  0  0  0  0  0  0
    6.6001   -4.6200    0.0000 O   0  0  0  0  0  0  0  0  0  0  0  0
   11.4716   -4.1266    0.0000 C   0  0  0  0  0  0  0  0  0  0  0  0
  1  2  1  0  0  0  0
  2  3  2  0  0  0  0
  3  4  1  0  0  0  0
  4  5  2  0  0  0  0
  5  6  1  0  0  0  0
  6  1  2  0  0  0  0
  4  7  1  0  0  0  0
  7  8  1  0  0  0  0
  8  9  1  0  0  0  0
  9 10  1  0  0  0  0
 10  5  1  0  0  0  0
  9 11  1  0  0  0  0
 11 12  1  0  0  0  0
 11 13  2  0  0  0  0
 13 14  1  0  0  0  0
 14 15  2  0  0  0  0
 15 16  1  0  0  0  0
 16 12  2  0  0  0  0
 14 17  1  0  0  0  0
 17 18  1  0  0  0  0
 18 19  1  0  0  0  0
 19 15  1  0  0  0  0
 18 20  1  1  0  0  0
 20 21  2  0  0  0  0
 21 22  1  0  0  0  0
 22 23  2  0  0  0  0
 23 24  1  0  0  0  0
 24 25  2  0  0  0  0
 25 20  1  0  0  0  0
  1 26  1  0  0  0  0
  3 27  1  0  0  0  0
  7 28  2  0  0  0  0
 17 29  1  0  0  0  0
 24 31  1  0  0  0  0
 23 32  1  0  0  0  0
  8 33  1  1  0  0  0
 16 34  1  0  0  0  0
 29 30  1  0  0  0  0
 31 35  1  0  0  0  0
M  STY  2   1 SUP   2 SUP
M  SAL   1  2  29  30
M  SBL   1  1  33
M  SMT   1 CH2OH
M  SAP   1  1  29  17  1
M  SAL   2  2  31  35
M  SBL   2  1  34
M  SMT   2 OCH3
M  SAP   2  1  31  24  1
M  END
>  <cdx:fragmentId>
5

$$$$
