15782.cdx
  Mrv1902 05222410282D          

 35 39  0  0  0  0            999 V2000
    2.4783   -5.8575    0.0000 C   0  0  0  0  0  0  0  0  0  0  0  0
    2.4783   -6.6825    0.0000 C   0  0  0  0  0  0  0  0  0  0  0  0
    3.1927   -7.0950    0.0000 C   0  0  0  0  0  0  0  0  0  0  0  0
    3.9072   -6.6825    0.0000 C   0  0  0  0  0  0  0  0  0  0  0  0
    3.9072   -5.8575    0.0000 C   0  0  0  0  0  0  0  0  0  0  0  0
    3.1927   -5.4450    0.0000 C   0  0  0  0  0  0  0  0  0  0  0  0
    4.6217   -7.0950    0.0000 O   0  0  0  0  0  0  0  0  0  0  0  0
    5.3362   -6.6825    0.0000 C   0  0  1  0  0  0  0  0  0  0  0  0
    5.3362   -5.8575    0.0000 C   0  0  2  0  0  0  0  0  0  0  0  0
    4.6217   -5.4450    0.0000 C   0  0  0  0  0  0  0  0  0  0  0  0
    6.0506   -7.0950    0.0000 C   0  0  0  0  0  0  0  0  0  0  0  0
    6.7651   -6.6825    0.0000 C   0  0  0  0  0  0  0  0  0  0  0  0
    6.0506   -7.9200    0.0000 C   0  0  0  0  0  0  0  0  0  0  0  0
    6.7651   -8.3325    0.0000 C   0  0  0  0  0  0  0  0  0  0  0  0
    7.4796   -7.9200    0.0000 C   0  0  0  0  0  0  0  0  0  0  0  0
    7.4796   -7.0950    0.0000 C   0  0  0  0  0  0  0  0  0  0  0  0
    8.2642   -8.1749    0.0000 O   0  0  0  0  0  0  0  0  0  0  0  0
    8.7491   -7.5075    0.0000 C   0  0  2  0  0  0  0  0  0  0  0  0
    8.2642   -6.8401    0.0000 C   0  0  2  0  0  0  0  0  0  0  0  0
    9.5741   -7.5075    0.0000 C   0  0  0  0  0  0  0  0  0  0  0  0
    9.9866   -8.2220    0.0000 C   0  0  0  0  0  0  0  0  0  0  0  0
   10.8116   -8.2220    0.0000 C   0  0  0  0  0  0  0  0  0  0  0  0
   11.2241   -7.5075    0.0000 C   0  0  0  0  0  0  0  0  0  0  0  0
   10.8116   -6.7930    0.0000 C   0  0  0  0  0  0  0  0  0  0  0  0
    9.9866   -6.7930    0.0000 C   0  0  0  0  0  0  0  0  0  0  0  0
    3.1927   -4.6200    0.0000 O   0  0  0  0  0  0  0  0  0  0  0  0
    1.7638   -7.0950    0.0000 O   0  0  0  0  0  0  0  0  0  0  0  0
    4.6217   -4.6200    0.0000 O   0  0  0  0  0  0  0  0  0  0  0  0
    6.7651   -9.1575    0.0000 O   0  0  0  0  0  0  0  0  0  0  0  0
   12.0491   -7.5075    0.0000 O   0  0  0  0  0  0  0  0  0  0  0  0
   11.2241   -8.9364    0.0000 O   0  0  0  0  0  0  0  0  0  0  0  0
   10.8116   -9.6509    0.0000 C   0  0  0  0  0  0  0  0  0  0  0  0
    8.6767   -6.1256    0.0000 C   0  0  0  0  0  0  0  0  0  0  0  0
    8.2642   -5.4111    0.0000 O   0  0  0  0  0  0  0  0  0  0  0  0
    6.0506   -5.4450    0.0000 O   0  0  0  0  0  0  0  0  0  0  0  0
  1  2  2  0  0  0  0
  2  3  1  0  0  0  0
  3  4  2  0  0  0  0
  4  5  1  0  0  0  0
  5  6  2  0  0  0  0
  6  1  1  0  0  0  0
  4  7  1  0  0  0  0
  7  8  1  0  0  0  0
  8  9  1  0  0  0  0
  9 10  1  0  0  0  0
 10  5  1  0  0  0  0
  8 11  1  1  0  0  0
 11 12  2  0  0  0  0
 11 13  1  0  0  0  0
 13 14  2  0  0  0  0
 14 15  1  0  0  0  0
 15 16  2  0  0  0  0
 16 12  1  0  0  0  0
 15 17  1  0  0  0  0
 17 18  1  0  0  0  0
 18 19  1  0  0  0  0
 19 16  1  0  0  0  0
 18 20  1  6  0  0  0
 20 21  2  0  0  0  0
 21 22  1  0  0  0  0
 22 23  2  0  0  0  0
 23 24  1  0  0  0  0
 24 25  2  0  0  0  0
 25 20  1  0  0  0  0
  6 26  1  0  0  0  0
  2 27  1  0  0  0  0
 10 28  2  0  0  0  0
 14 29  1  0  0  0  0
 23 30  1  0  0  0  0
 22 31  1  0  0  0  0
 31 32  1  0  0  0  0
 19 33  1  1  0  0  0
 33 34  1  0  0  0  0
  9 35  1  6  0  0  0
M  END
>  <cdx:fragmentId>
5

$$$$
