15781.cdx
  Mrv1902 05222410272D          

 14 14  0  0  0  0            999 V2000
    4.2396   -4.0777    0.0000 C   0  0  0  0  0  0  0  0  0  0  0  0
    4.9541   -3.6652    0.0000 O   0  0  0  0  0  0  0  0  0  0  0  0
    4.2396   -4.9027    0.0000 C   0  0  0  0  0  0  0  0  0  0  0  0
    4.9541   -5.3152    0.0000 O   0  0  0  0  0  0  0  0  0  0  0  0
    7.0975   -4.9027    0.0000 C   0  0  0  0  0  0  0  0  0  0  0  0
    6.3830   -5.3152    0.0000 C   0  0  0  0  0  0  0  0  0  0  0  0
    5.6685   -4.9027    0.0000 C   0  0  0  0  0  0  0  0  0  0  0  0
    5.6685   -4.0777    0.0000 C   0  0  0  0  0  0  0  0  0  0  0  0
    6.3830   -3.6652    0.0000 C   0  0  0  0  0  0  0  0  0  0  0  0
    7.0975   -4.0777    0.0000 C   0  0  0  0  0  0  0  0  0  0  0  0
    7.8120   -2.8402    0.0000 O   0  0  0  0  0  0  0  0  0  0  0  0
    9.2409   -3.6652    0.0000 C   0  0  0  0  0  0  0  0  0  0  0  0
    8.5264   -4.0777    0.0000 C   0  0  0  0  0  0  0  0  0  0  0  0
    7.8120   -3.6652    0.0000 C   0  0  0  0  0  0  0  0  0  0  0  0
  8  2  1  0  0  0  0
  2  1  1  0  0  0  0
  7  4  1  0  0  0  0
  4  3  1  0  0  0  0
 14 10  1  0  0  0  0
 14 11  2  0  0  0  0
 10  5  2  0  0  0  0
  6  5  1  0  0  0  0
  7  6  2  0  0  0  0
  8  7  1  0  0  0  0
  9  8  2  0  0  0  0
 10  9  1  0  0  0  0
 13 12  1  0  0  0  0
 14 13  1  0  0  0  0
M  END
>  <cdx:fragmentId>
13

$$$$
