15797.cdx
  Mrv1902 05222410282D          

 32 32  0  0  0  0            999 V2000
    6.2762  -13.9134    0.0000 C   0  0  0  0  0  0  0  0  0  0  0  0
    6.2762  -14.5734    0.0000 C   0  0  0  0  0  0  0  0  0  0  0  0
    6.8478  -14.9034    0.0000 C   0  0  0  0  0  0  0  0  0  0  0  0
    7.4194  -14.5734    0.0000 C   0  0  0  0  0  0  0  0  0  0  0  0
    7.4194  -13.9134    0.0000 C   0  0  0  0  0  0  0  0  0  0  0  0
    6.8478  -15.5634    0.0000 O   0  0  0  0  0  0  0  0  0  0  0  0
    5.7047  -14.9034    0.0000 O   0  0  0  0  0  0  0  0  0  0  0  0
    5.1331  -14.5734    0.0000 C   0  0  0  0  0  0  0  0  0  0  0  0
    7.9910  -14.9034    0.0000 O   0  0  0  0  0  0  0  0  0  0  0  0
    8.5625  -14.5734    0.0000 C   0  0  0  0  0  0  0  0  0  0  0  0
    7.1778   -2.0635    0.0000 C   0  0  0  0  0  0  0  0  0  0  0  0
    6.8478   -2.6350    0.0000 C   0  0  0  0  0  0  0  0  0  0  0  0
    7.1778   -3.2066    0.0000 C   0  0  0  0  0  0  0  0  0  0  0  0
    6.8478   -3.7782    0.0000 C   0  0  0  0  0  0  0  0  0  0  0  0
    7.1778   -4.3498    0.0000 C   0  0  0  0  0  0  0  0  0  0  0  0
    6.8478   -4.9213    0.0000 C   0  0  0  0  0  0  0  0  0  0  0  0
    7.1778   -5.4929    0.0000 C   0  0  0  0  0  0  0  0  0  0  0  0
    6.8478   -6.0645    0.0000 C   0  0  0  0  0  0  0  0  0  0  0  0
    7.1778   -6.6361    0.0000 C   0  0  0  0  0  0  0  0  0  0  0  0
    6.8478   -7.2076    0.0000 C   0  0  0  0  0  0  0  0  0  0  0  0
    7.1778   -7.7792    0.0000 C   0  0  0  0  0  0  0  0  0  0  0  0
    6.8478   -8.3508    0.0000 C   0  0  0  0  0  0  0  0  0  0  0  0
    7.1778   -8.9224    0.0000 C   0  0  0  0  0  0  0  0  0  0  0  0
    6.8478   -9.4939    0.0000 C   0  0  0  0  0  0  0  0  0  0  0  0
    7.1778  -10.0655    0.0000 C   0  0  0  0  0  0  0  0  0  0  0  0
    6.8478  -10.6371    0.0000 C   0  0  0  0  0  0  0  0  0  0  0  0
    7.1778  -11.2087    0.0000 O   0  0  0  0  0  0  0  0  0  0  0  0
    6.8478  -11.7803    0.0000 C   0  0  0  0  0  0  0  0  0  0  0  0
    7.1778  -12.3518    0.0000 C   0  0  0  0  0  0  0  0  0  0  0  0
    6.8478  -12.9234    0.0000 C   0  0  0  0  0  0  0  0  0  0  0  0
    6.8478  -13.5834    0.0000 C   0  0  0  0  0  0  0  0  0  0  0  0
    6.3322  -11.7803    0.0000 O   0  0  0  0  0  0  0  0  0  0  0  0
 12 11  1  0  0  0  0
  1  2  2  0  0  0  0
  2  3  1  0  0  0  0
  3  4  2  0  0  0  0
  4  5  1  0  0  0  0
  5 31  2  0  0  0  0
 31  1  1  0  0  0  0
  3  6  1  0  0  0  0
  2  7  1  0  0  0  0
  7  8  1  0  0  0  0
  4  9  1  0  0  0  0
  9 10  1  0  0  0  0
 13 12  1  0  0  0  0
 14 13  1  0  0  0  0
 15 14  1  0  0  0  0
 16 15  1  0  0  0  0
 17 16  1  0  0  0  0
 18 17  1  0  0  0  0
 19 18  1  0  0  0  0
 20 19  1  0  0  0  0
 21 20  1  0  0  0  0
 22 21  1  0  0  0  0
 23 22  1  0  0  0  0
 24 23  1  0  0  0  0
 25 24  1  0  0  0  0
 26 25  1  0  0  0  0
 27 26  1  0  0  0  0
 28 27  1  0  0  0  0
 29 28  1  0  0  0  0
 30 29  2  0  0  0  0
 31 30  1  0  0  0  0
 28 32  2  0  0  0  0
M  END
>  <cdx:fragmentId>
5

$$$$
