158.cdx
  Mrv1902 05222410202D          

  9  9  0  0  0  0            999 V2000
    5.8718   -4.1800    0.0000 C   0  0  0  0  0  0  0  0  0  0  0  0
    5.8718   -5.0050    0.0000 C   0  0  0  0  0  0  0  0  0  0  0  0
    6.5863   -5.4175    0.0000 N   0  0  0  0  0  0  0  0  0  0  0  0
    7.3007   -5.0050    0.0000 C   0  0  0  0  0  0  0  0  0  0  0  0
    7.3007   -4.1800    0.0000 C   0  0  0  0  0  0  0  0  0  0  0  0
    6.5863   -3.7675    0.0000 C   0  0  0  0  0  0  0  0  0  0  0  0
    8.0152   -3.7675    0.0000 C   0  0  0  0  0  0  0  0  0  0  0  0
    8.7297   -4.1800    0.0000 O   0  0  0  0  0  0  0  0  0  0  0  0
    8.0152   -2.9425    0.0000 O   0  0  0  0  0  0  0  0  0  0  0  0
  1  2  2  0  0  0  0
  2  3  1  0  0  0  0
  3  4  2  0  0  0  0
  4  5  1  0  0  0  0
  5  6  2  0  0  0  0
  6  1  1  0  0  0  0
  5  7  1  0  0  0  0
  7  8  1  0  0  0  0
  7  9  2  0  0  0  0
M  END
>  <cdx:fragmentId>
29

$$$$
