15807.cdx
  Mrv1902 05222410282D          

 11 12  0  0  0  0            999 V2000
    8.3654   -5.0116    0.0000 C   0  0  0  0  0  0  0  0  0  0  0  0
    7.8805   -5.6790    0.0000 N   0  0  0  0  0  0  0  0  0  0  0  0
    7.0959   -5.4241    0.0000 C   0  0  0  0  0  0  0  0  0  0  0  0
    7.0959   -4.5991    0.0000 C   0  0  0  0  0  0  0  0  0  0  0  0
    7.8805   -4.3441    0.0000 N   0  0  0  0  0  0  0  0  0  0  0  0
    6.3814   -5.8366    0.0000 C   0  0  0  0  0  0  0  0  0  0  0  0
    5.6669   -5.4241    0.0000 C   0  0  0  0  0  0  0  0  0  0  0  0
    5.6669   -4.5991    0.0000 C   0  0  0  0  0  0  0  0  0  0  0  0
    6.3814   -4.1866    0.0000 C   0  0  0  0  0  0  0  0  0  0  0  0
    9.1904   -5.0116    0.0000 C   0  0  0  0  0  0  0  0  0  0  0  0
    9.6029   -4.2971    0.0000 C   0  0  0  0  0  0  0  0  0  0  0  0
  1  2  2  0  0  0  0
  2  3  1  0  0  0  0
  3  4  1  0  0  0  0
  4  5  1  0  0  0  0
  1  5  1  0  0  0  0
  6  7  1  0  0  0  0
  7  8  2  0  0  0  0
  8  9  1  0  0  0  0
  9  4  2  0  0  0  0
  6  3  2  0  0  0  0
 10 11  1  0  0  0  0
  1 10  1  0  0  0  0
M  END
>  <cdx:fragmentId>
5

$$$$
