158096.cdx
  Mrv1902 05222410232D          

 33 36  0  0  0  0            999 V2000
    5.4095  -11.4029    0.0000 C   0  0  0  0  0  0  0  0  0  0  0  0
    4.6950  -10.9904    0.0000 C   0  0  0  0  0  0  0  0  0  0  0  0
    4.6950  -10.1654    0.0000 C   0  0  0  0  0  0  0  0  0  0  0  0
    5.4095   -9.7529    0.0000 C   0  0  0  0  0  0  0  0  0  0  0  0
    6.1239  -10.1654    0.0000 C   0  0  0  0  0  0  0  0  0  0  0  0
    6.8384   -9.7529    0.0000 C   0  0  2  0  0  0  0  0  0  0  0  0
    7.5529  -10.1654    0.0000 C   0  0  0  0  0  0  0  0  0  0  0  0
    8.2674   -9.7529    0.0000 C   0  0  0  0  0  0  0  0  0  0  0  0
    8.9818  -10.1654    0.0000 C   0  0  0  0  0  0  0  0  0  0  0  0
    8.9818  -10.9904    0.0000 C   0  0  0  0  0  0  0  0  0  0  0  0
    8.2674  -11.4029    0.0000 C   0  0  0  0  0  0  0  0  0  0  0  0
    7.5529  -10.9904    0.0000 C   0  0  0  0  0  0  0  0  0  0  0  0
    6.8384  -11.4029    0.0000 C   0  0  0  0  0  0  0  0  0  0  0  0
    6.1239  -10.9904    0.0000 C   0  0  0  0  0  0  0  0  0  0  0  0
    6.8384  -12.2279    0.0000 O   0  0  0  0  0  0  0  0  0  0  0  0
    7.5529   -9.3404    0.0000 H   0  0  0  0  0  0  0  0  0  0  0  0
    7.5529   -8.5154    0.0000 O   0  0  0  0  0  0  0  0  0  0  0  0
    6.8384   -8.9279    0.0000 C   0  0  2  0  0  0  0  0  0  0  0  0
    6.1239   -8.5154    0.0000 C   0  0  1  0  0  0  0  0  0  0  0  0
    6.1239   -7.6904    0.0000 C   0  0  2  0  0  0  0  0  0  0  0  0
    6.8384   -7.2779    0.0000 C   0  0  1  0  0  0  0  0  0  0  0  0
    7.5529   -7.6904    0.0000 C   0  0  1  0  0  0  0  0  0  0  0  0
    8.2674   -7.2779    0.0000 C   0  0  0  0  0  0  0  0  0  0  0  0
    8.2674   -6.4529    0.0000 O   0  0  0  0  0  0  0  0  0  0  0  0
    6.8384   -6.4529    0.0000 O   0  0  0  0  0  0  0  0  0  0  0  0
    9.6963   -9.7529    0.0000 C   0  0  0  0  0  0  0  0  0  0  0  0
   10.4108  -10.1654    0.0000 O   0  0  0  0  0  0  0  0  0  0  0  0
    8.2674  -12.2279    0.0000 O   0  0  0  0  0  0  0  0  0  0  0  0
    3.9805  -11.4029    0.0000 O   0  0  0  0  0  0  0  0  0  0  0  0
    5.4095  -12.2279    0.0000 O   0  0  0  0  0  0  0  0  0  0  0  0
    5.4095   -7.2779    0.0000 O   0  0  0  0  0  0  0  0  0  0  0  0
    5.4095   -8.9279    0.0000 O   0  0  0  0  0  0  0  0  0  0  0  0
    6.1239   -9.3404    0.0000 H   0  0  0  0  0  0  0  0  0  0  0  0
 18 16  1  6  0  0  0
  1  2  1  0  0  0  0
  2  3  2  0  0  0  0
  3  4  1  0  0  0  0
  4  5  2  0  0  0  0
  6  5  1  0  0  0  0
  6  7  1  0  0  0  0
  7  8  1  0  0  0  0
  8  9  2  0  0  0  0
  9 10  1  0  0  0  0
 10 11  2  0  0  0  0
 11 12  1  0  0  0  0
  7 12  2  0  0  0  0
 12 13  1  0  0  0  0
 13 14  1  0  0  0  0
  5 14  1  0  0  0  0
  1 14  2  0  0  0  0
 13 15  2  0  0  0  0
 18 17  1  0  0  0  0
 18 19  1  0  0  0  0
 19 20  1  0  0  0  0
 20 21  1  0  0  0  0
 21 22  1  0  0  0  0
 17 22  1  0  0  0  0
 23 24  1  0  0  0  0
 22 23  1  1  0  0  0
 21 25  1  6  0  0  0
  6 18  1  0  0  0  0
 26 27  1  0  0  0  0
  9 26  1  0  0  0  0
 11 28  1  0  0  0  0
  2 29  1  0  0  0  0
  1 30  1  0  0  0  0
 20 31  1  1  0  0  0
 19 32  1  6  0  0  0
  6 33  1  6  0  0  0
M  END
>  <cdx:fragmentId>
5

$$$$
