15801.cdx
  Mrv1902 05222410272D          

 25 24  0  0  0  0            999 V2000
    7.6212   -6.9510    0.0000 O   0  0  0  0  0  0  0  0  0  0  0  0
    5.4721   -8.1787    0.0000 C   0  0  0  0  0  0  0  0  0  0  0  0
    5.4684   -9.0037    0.0000 C   0  0  0  0  0  0  0  0  0  0  0  0
    4.7520   -9.4130    0.0000 C   0  0  0  0  0  0  0  0  0  0  0  0
    4.0395   -8.9972    0.0000 C   0  0  0  0  0  0  0  0  0  0  0  0
    4.0432   -8.1722    0.0000 C   0  0  0  0  0  0  0  0  0  0  0  0
    4.7596   -7.7630    0.0000 C   0  0  0  0  0  0  0  0  0  0  0  0
    3.3306   -7.7565    0.0000 O   0  0  0  0  0  0  0  0  0  0  0  0
    4.7483  -10.2380    0.0000 O   0  0  0  0  0  0  0  0  0  0  0  0
    3.3231   -9.4065    0.0000 O   0  0  0  0  0  0  0  0  0  0  0  0
    6.1885   -7.7695    0.0000 C   0  0  0  0  0  0  0  0  0  0  0  0
    6.9011   -8.1852    0.0000 C   0  0  0  0  0  0  0  0  0  0  0  0
    7.6174   -7.7760    0.0000 C   0  0  0  0  0  0  0  0  0  0  0  0
    8.3300   -8.1917    0.0000 O   0  0  0  0  0  0  0  0  0  0  0  0
    9.0463   -7.7825    0.0000 C   0  0  0  0  0  0  0  0  0  0  0  0
    9.7589   -8.1983    0.0000 C   0  0  0  0  0  0  0  0  0  0  0  0
   11.1916   -7.3798    0.0000 C   0  0  0  0  0  0  0  0  0  0  0  0
   10.4753   -7.7890    0.0000 N   0  3  0  0  0  0  0  0  0  0  0  0
   10.8845   -8.5054    0.0000 C   0  0  0  0  0  0  0  0  0  0  0  0
   10.0660   -7.0727    0.0000 C   0  0  0  0  0  0  0  0  0  0  0  0
    3.3344   -6.9315    0.0000 C   0  0  0  0  0  0  0  0  0  0  0  0
    5.4609  -10.6537    0.0000 C   0  0  0  0  0  0  0  0  0  0  0  0
    7.8468   -9.3508    0.0000 S   0  5  0  0  0  0  0  0  0  0  0  0
    8.6718   -9.3508    0.0000 C   0  0  0  0  0  0  0  0  0  0  0  0
    9.4968   -9.3508    0.0000 N   0  0  0  0  0  0  0  0  0  0  0  0
 18 16  1  0  0  0  0
 15 14  1  0  0  0  0
 14 13  1  0  0  0  0
 13  1  2  0  0  0  0
 12 11  2  0  0  0  0
 13 12  1  0  0  0  0
 16 15  1  0  0  0  0
 18 17  1  0  0  0  0
  2  3  1  0  0  0  0
  3  4  2  0  0  0  0
  4  5  1  0  0  0  0
  5  6  2  0  0  0  0
  6  7  1  0  0  0  0
  2  7  2  0  0  0  0
  6  8  1  0  0  0  0
  4  9  1  0  0  0  0
  5 10  1  0  0  0  0
 11  2  1  0  0  0  0
 18 19  1  0  0  0  0
 18 20  1  0  0  0  0
  8 21  1  0  0  0  0
  9 22  1  0  0  0  0
 23 24  1  0  0  0  0
 24 25  3  0  0  0  0
M  CHG  2  18   1  23  -1
M  END
>  <cdx:fragmentId>
94

$$$$
