15814.cdx
  Mrv1902 05222410272D          

 32 35  0  0  0  0            999 V2000
    3.5920   -5.4863    0.0000 C   0  0  2  0  0  0  0  0  0  0  0  0
    3.5920   -6.3113    0.0000 C   0  0  2  0  0  0  0  0  0  0  0  0
    4.3065   -6.7237    0.0000 C   0  0  1  0  0  0  0  0  0  0  0  0
    5.0210   -6.3113    0.0000 C   0  0  2  0  0  0  0  0  0  0  0  0
    5.0210   -5.4863    0.0000 C   0  0  1  0  0  0  0  0  0  0  0  0
    4.3065   -5.0737    0.0000 O   0  0  0  0  0  0  0  0  0  0  0  0
    5.7354   -6.7237    0.0000 O   0  0  0  0  0  0  0  0  0  0  0  0
    6.4499   -6.3113    0.0000 C   0  0  0  0  0  0  0  0  0  0  0  0
    6.4499   -5.4863    0.0000 C   0  0  0  0  0  0  0  0  0  0  0  0
    5.7354   -5.0737    0.0000 O   0  0  0  0  0  0  0  0  0  0  0  0
    7.1644   -6.7237    0.0000 C   0  0  0  0  0  0  0  0  0  0  0  0
    7.8789   -6.3113    0.0000 C   0  0  0  0  0  0  0  0  0  0  0  0
    7.8789   -5.4863    0.0000 C   0  0  0  0  0  0  0  0  0  0  0  0
    7.1644   -5.0737    0.0000 C   0  0  0  0  0  0  0  0  0  0  0  0
    8.5933   -6.7237    0.0000 C   0  0  0  0  0  0  0  0  0  0  0  0
    9.3078   -6.3113    0.0000 C   0  0  0  0  0  0  0  0  0  0  0  0
    9.3078   -5.4863    0.0000 C   0  0  0  0  0  0  0  0  0  0  0  0
    8.5933   -5.0737    0.0000 O   0  0  0  0  0  0  0  0  0  0  0  0
   10.0223   -6.7237    0.0000 C   0  0  0  0  0  0  0  0  0  0  0  0
   10.7367   -6.3113    0.0000 C   0  0  0  0  0  0  0  0  0  0  0  0
   10.0223   -7.5488    0.0000 C   0  0  0  0  0  0  0  0  0  0  0  0
   10.7367   -7.9612    0.0000 C   0  0  0  0  0  0  0  0  0  0  0  0
   11.4512   -7.5488    0.0000 C   0  0  0  0  0  0  0  0  0  0  0  0
   11.4512   -6.7237    0.0000 C   0  0  0  0  0  0  0  0  0  0  0  0
    2.8776   -5.0737    0.0000 C   0  0  0  0  0  0  0  0  0  0  0  0
    2.1631   -5.4863    0.0000 O   0  0  0  0  0  0  0  0  0  0  0  0
    8.5933   -7.5488    0.0000 O   0  0  0  0  0  0  0  0  0  0  0  0
   12.1657   -7.9612    0.0000 O   0  0  0  0  0  0  0  0  0  0  0  0
   12.8802   -7.5488    0.0000 C   0  0  0  0  0  0  0  0  0  0  0  0
    4.3065   -7.5488    0.0000 O   0  0  0  0  0  0  0  0  0  0  0  0
    2.8776   -6.7237    0.0000 O   0  0  0  0  0  0  0  0  0  0  0  0
    7.1644   -7.5488    0.0000 O   0  0  0  0  0  0  0  0  0  0  0  0
  1  2  1  0  0  0  0
  2  3  1  0  0  0  0
  3  4  1  0  0  0  0
  4  5  1  0  0  0  0
  5  6  1  0  0  0  0
  6  1  1  0  0  0  0
  4  7  1  6  0  0  0
  8  9  2  0  0  0  0
  9 10  1  0  0  0  0
  5 10  1  1  0  0  0
  8 11  1  0  0  0  0
 11 12  2  0  0  0  0
 12 13  1  0  0  0  0
 13 14  2  0  0  0  0
 14  9  1  0  0  0  0
 12 15  1  0  0  0  0
 15 16  1  0  0  0  0
 16 17  2  0  0  0  0
 17 18  1  0  0  0  0
 18 13  1  0  0  0  0
 16 19  1  0  0  0  0
 19 20  1  0  0  0  0
 19 21  2  0  0  0  0
 21 22  1  0  0  0  0
 22 23  2  0  0  0  0
 23 24  1  0  0  0  0
 24 20  2  0  0  0  0
  1 25  1  1  0  0  0
 25 26  1  0  0  0  0
 15 27  2  0  0  0  0
 23 28  1  0  0  0  0
 28 29  1  0  0  0  0
  3 30  1  1  0  0  0
  2 31  1  6  0  0  0
 11 32  1  0  0  0  0
M  END
>  <cdx:fragmentId>
5

$$$$
