15816.cdx
  Mrv1902 05222410262D          

 15 14  0  0  0  0            999 V2000
   10.2136   -3.3489    0.0000 C   0  0  0  0  0  0  0  0  0  0  0  0
    9.4991   -3.7614    0.0000 C   0  0  0  0  0  0  0  0  0  0  0  0
    8.7847   -3.3489    0.0000 C   0  0  0  0  0  0  0  0  0  0  0  0
    8.0702   -3.7614    0.0000 C   0  0  0  0  0  0  0  0  0  0  0  0
    7.3557   -3.3489    0.0000 C   0  0  0  0  0  0  0  0  0  0  0  0
    6.6413   -3.7614    0.0000 C   0  0  0  0  0  0  0  0  0  0  0  0
    5.9268   -3.3489    0.0000 C   0  0  0  0  0  0  0  0  0  0  0  0
    5.2123   -3.7614    0.0000 C   0  0  0  0  0  0  0  0  0  0  0  0
    4.4978   -3.3489    0.0000 C   0  0  0  0  0  0  0  0  0  0  0  0
    3.7834   -3.7614    0.0000 C   0  0  0  0  0  0  0  0  0  0  0  0
    3.0689   -3.3489    0.0000 C   0  0  0  0  0  0  0  0  0  0  0  0
   10.2136   -2.5239    0.0000 O   0  0  0  0  0  0  0  0  0  0  0  0
   10.9281   -3.7614    0.0000 O   0  0  0  0  0  0  0  0  0  0  0  0
    3.0689   -2.5239    0.0000 O   0  0  0  0  0  0  0  0  0  0  0  0
    2.3544   -3.7614    0.0000 O   0  0  0  0  0  0  0  0  0  0  0  0
  1  2  1  0  0  0  0
  2  3  1  0  0  0  0
  3  4  1  0  0  0  0
  4  5  1  0  0  0  0
  5  6  1  0  0  0  0
  6  7  1  0  0  0  0
  7  8  1  0  0  0  0
  8  9  1  0  0  0  0
  9 10  1  0  0  0  0
 10 11  1  0  0  0  0
  1 12  2  0  0  0  0
  1 13  1  0  0  0  0
 11 14  2  0  0  0  0
 11 15  1  0  0  0  0
M  END
>  <cdx:groupId>
46

>  <cdx:fragmentId>
5

$$$$
