1582.cdx
  Mrv1902 05222410222D          

  7  6  0  0  0  0            999 V2000
    4.2859   -6.2700    0.0000 O   0  0  0  0  0  0  0  0  0  0  0  0
    5.0003   -6.6825    0.0000 C   0  0  0  0  0  0  0  0  0  0  0  0
    5.0003   -7.5075    0.0000 C   0  0  0  0  0  0  0  0  0  0  0  0
    5.7148   -7.9200    0.0000 C   0  0  0  0  0  0  0  0  0  0  0  0
    6.4293   -7.5075    0.0000 C   0  0  0  0  0  0  0  0  0  0  0  0
    7.1438   -7.9200    0.0000 C   0  0  0  0  0  0  0  0  0  0  0  0
    7.8582   -7.5075    0.0000 C   0  0  0  0  0  0  0  0  0  0  0  0
  1  2  2  0  0  0  0
  2  3  1  0  0  0  0
  3  4  2  0  0  0  0
  4  5  1  0  0  0  0
  5  6  1  0  0  0  0
  6  7  1  0  0  0  0
M  END
>  <cdx:fragmentId>
3

$$$$
