158277.cdx
  Mrv1902 05222410202D          

 41 47  0  0  0  0            999 V2000
    7.5436   -7.2744    0.0000 C   0  0  1  0  0  0  0  0  0  0  0  0
    7.2598   -6.4998    0.0000 C   0  0  2  0  0  0  0  0  0  0  0  0
    6.4470   -6.3582    0.0000 C   0  0  1  0  0  0  0  0  0  0  0  0
    5.9181   -6.9913    0.0000 C   0  0  2  0  0  0  0  0  0  0  0  0
    6.2019   -7.7660    0.0000 C   0  0  1  0  0  0  0  0  0  0  0  0
    7.0147   -7.9075    0.0000 C   0  0  1  0  0  0  0  0  0  0  0  0
    8.3680   -7.2438    0.0000 O   0  0  0  0  0  0  0  0  0  0  0  0
    8.5937   -6.4503    0.0000 C   0  0  0  0  0  0  0  0  0  0  0  0
    7.9088   -5.9904    0.0000 O   0  0  0  0  0  0  0  0  0  0  0  0
    5.5845   -8.3132    0.0000 C   0  0  1  0  0  0  0  0  0  0  0  0
    5.6274   -9.1371    0.0000 C   0  0  2  0  0  0  0  0  0  0  0  0
    6.2982   -9.6172    0.0000 C   0  0  1  0  0  0  0  0  0  0  0  0
    7.0919   -9.3921    0.0000 C   0  0  2  0  0  0  0  0  0  0  0  0
    7.4108   -8.6312    0.0000 C   0  0  1  0  0  0  0  0  0  0  0  0
    4.7877   -8.0994    0.0000 C   0  0  0  0  0  0  0  0  0  0  0  0
    4.3381   -8.7911    0.0000 C   0  0  0  0  0  0  0  0  0  0  0  0
    4.8528   -9.4209    0.0000 C   0  0  0  0  0  0  0  0  0  0  0  0
    4.6350  -10.2166    0.0000 O   0  0  0  0  0  0  0  0  0  0  0  0
    3.5143   -8.8360    0.0000 C   0  0  0  0  0  0  0  0  0  0  0  0
    7.9103   -9.2878    0.0000 O   0  0  0  0  0  0  0  0  0  0  0  0
    9.3684   -6.1665    0.0000 C   0  0  0  0  0  0  0  0  0  0  0  0
    6.1632   -5.5836    0.0000 O   0  0  0  0  0  0  0  0  0  0  0  0
    5.3504   -5.4421    0.0000 C   0  0  0  0  0  0  0  0  0  0  0  0
    5.0666   -4.6674    0.0000 C   0  0  0  0  0  0  0  0  0  0  0  0
    4.8215   -6.0752    0.0000 O   0  0  0  0  0  0  0  0  0  0  0  0
    6.7190   -7.1079    0.0000 O   0  0  0  0  0  0  0  0  0  0  0  0
    5.1053   -6.8498    0.0000 C   0  0  0  0  0  0  0  0  0  0  0  0
    7.8274   -8.0490    0.0000 H   0  0  0  0  0  0  0  0  0  0  0  0
    7.2571  -10.2004    0.0000 C   0  0  0  0  0  0  0  0  0  0  0  0
    6.1567  -10.4300    0.0000 O   0  0  0  0  0  0  0  0  0  0  0  0
    5.4858   -9.9499    0.0000 O   0  0  0  0  0  0  0  0  0  0  0  0
    5.3007   -7.5386    0.0000 H   0  0  0  0  0  0  0  0  0  0  0  0
    8.0397  -10.4615    0.0000 O   0  0  0  0  0  0  0  0  0  0  0  0
   10.0015   -6.6954    0.0000 C   0  0  0  0  0  0  0  0  0  0  0  0
   10.7761   -6.4116    0.0000 C   0  0  0  0  0  0  0  0  0  0  0  0
   10.9177   -5.5988    0.0000 C   0  0  0  0  0  0  0  0  0  0  0  0
   10.2845   -5.0699    0.0000 C   0  0  0  0  0  0  0  0  0  0  0  0
    9.5099   -5.3537    0.0000 C   0  0  0  0  0  0  0  0  0  0  0  0
    7.2598   -5.6748    0.0000 C   0  0  0  0  0  0  0  0  0  0  0  0
    6.5453   -5.2623    0.0000 C   0  0  0  0  0  0  0  0  0  0  0  0
    7.9742   -5.2623    0.0000 C   0  0  0  0  0  0  0  0  0  0  0  0
  1  2  1  0  0  0  0
  2  3  1  0  0  0  0
  3  4  1  0  0  0  0
  4  5  1  0  0  0  0
  5  6  1  0  0  0  0
  7  8  1  0  0  0  0
  8  9  1  0  0  0  0
  2  9  1  6  0  0  0
  5 10  1  0  0  0  0
 10 11  1  0  0  0  0
 11 12  1  0  0  0  0
 12 13  1  0  0  0  0
 13 14  1  0  0  0  0
 14  6  1  0  0  0  0
 10 15  1  0  0  0  0
 15 16  2  0  0  0  0
 16 17  1  0  0  0  0
 17 11  1  0  0  0  0
 17 18  2  0  0  0  0
 16 19  1  0  0  0  0
 13 20  1  6  0  0  0
 14 20  1  6  0  0  0
  8 21  1  0  0  0  0
  3 22  1  1  0  0  0
 22 23  1  0  0  0  0
 23 24  1  0  0  0  0
 23 25  2  0  0  0  0
  8 26  1  0  0  0  0
  5 26  1  6  0  0  0
  1  7  1  6  0  0  0
  1  6  1  0  0  0  0
  4 27  1  6  0  0  0
  6 28  1  1  0  0  0
 13 29  1  0  0  0  0
 12 30  1  1  0  0  0
 11 31  1  1  0  0  0
 10 32  1  6  0  0  0
 29 33  1  0  0  0  0
 21 34  2  0  0  0  0
 34 35  1  0  0  0  0
 35 36  2  0  0  0  0
 36 37  1  0  0  0  0
 37 38  2  0  0  0  0
 38 21  1  0  0  0  0
  2 39  1  0  0  0  0
 39 40  1  0  0  0  0
 39 41  2  0  0  0  0
M  END
>  <cdx:fragmentId>
5

$$$$
