158311.cdx
  Mrv1902 05222410222D          

 26 28  0  0  0  0            999 V2000
    7.5529   -7.1005    0.0000 O   0  0  0  0  0  0  0  0  0  0  0  0
   10.4108   -7.1005    0.0000 O   0  0  0  0  0  0  0  0  0  0  0  0
   11.1252   -8.3380    0.0000 C   0  0  0  0  0  0  0  0  0  0  0  0
   10.4108   -8.7505    0.0000 O   0  0  0  0  0  0  0  0  0  0  0  0
    8.9818   -8.7505    0.0000 C   0  0  0  0  0  0  0  0  0  0  0  0
    9.6963   -8.3380    0.0000 C   0  0  0  0  0  0  0  0  0  0  0  0
    9.6963   -7.5130    0.0000 C   0  0  0  0  0  0  0  0  0  0  0  0
    8.9818   -7.1005    0.0000 C   0  0  0  0  0  0  0  0  0  0  0  0
    8.2674   -7.5130    0.0000 C   0  0  0  0  0  0  0  0  0  0  0  0
    8.2674   -8.3380    0.0000 C   0  0  0  0  0  0  0  0  0  0  0  0
    5.4095  -10.8130    0.0000 O   0  0  0  0  0  0  0  0  0  0  0  0
    3.2661   -9.5755    0.0000 C   0  0  0  0  0  0  0  0  0  0  0  0
    3.9805   -9.9880    0.0000 O   0  0  0  0  0  0  0  0  0  0  0  0
    3.2661   -8.7505    0.0000 C   0  0  0  0  0  0  0  0  0  0  0  0
    3.9805   -8.3380    0.0000 O   0  0  0  0  0  0  0  0  0  0  0  0
    6.8384  -10.8130    0.0000 O   0  0  0  0  0  0  0  0  0  0  0  0
    6.8384   -8.3380    0.0000 O   0  0  0  0  0  0  0  0  0  0  0  0
    6.1239   -8.7505    0.0000 C   0  0  0  0  0  0  0  0  0  0  0  0
    5.4095   -8.3380    0.0000 C   0  0  0  0  0  0  0  0  0  0  0  0
    4.6950   -8.7505    0.0000 C   0  0  0  0  0  0  0  0  0  0  0  0
    4.6950   -9.5755    0.0000 C   0  0  0  0  0  0  0  0  0  0  0  0
    5.4095   -9.9880    0.0000 C   0  0  0  0  0  0  0  0  0  0  0  0
    6.1239   -9.5755    0.0000 C   0  0  0  0  0  0  0  0  0  0  0  0
    6.8384   -9.9880    0.0000 C   0  0  0  0  0  0  0  0  0  0  0  0
    7.5529   -9.5755    0.0000 C   0  0  0  0  0  0  0  0  0  0  0  0
    7.5529   -8.7505    0.0000 C   0  0  0  0  0  0  0  0  0  0  0  0
 26 10  1  0  0  0  0
  9  1  1  0  0  0  0
  7  2  1  0  0  0  0
  6  4  1  0  0  0  0
  4  3  1  0  0  0  0
 10  5  2  0  0  0  0
  6  5  1  0  0  0  0
  7  6  2  0  0  0  0
  8  7  1  0  0  0  0
  9  8  2  0  0  0  0
 10  9  1  0  0  0  0
 22 11  1  0  0  0  0
 21 13  1  0  0  0  0
 13 12  1  0  0  0  0
 20 15  1  0  0  0  0
 15 14  1  0  0  0  0
 24 16  2  0  0  0  0
 26 17  1  0  0  0  0
 18 17  1  0  0  0  0
 23 18  2  0  0  0  0
 19 18  1  0  0  0  0
 20 19  2  0  0  0  0
 21 20  1  0  0  0  0
 22 21  2  0  0  0  0
 23 22  1  0  0  0  0
 24 23  1  0  0  0  0
 25 24  1  0  0  0  0
 26 25  2  0  0  0  0
M  END
>  <cdx:fragmentId>
5

$$$$
