15835.cdx
  Mrv1902 05222410192D          

 27 28  0  0  0  0            999 V2000
    2.1277   -7.4456    0.0000 C   0  0  0  0  0  0  0  0  0  0  0  0
    2.1277   -8.2706    0.0000 C   0  0  0  0  0  0  0  0  0  0  0  0
    2.8421   -8.6831    0.0000 C   0  0  0  0  0  0  0  0  0  0  0  0
    3.5566   -8.2706    0.0000 C   0  0  0  0  0  0  0  0  0  0  0  0
    3.5566   -7.4456    0.0000 C   0  0  0  0  0  0  0  0  0  0  0  0
    2.8421   -7.0331    0.0000 C   0  0  0  0  0  0  0  0  0  0  0  0
    1.4132   -8.6831    0.0000 O   0  0  0  0  0  0  0  0  0  0  0  0
    4.2711   -7.0331    0.0000 C   0  0  0  0  0  0  0  0  0  0  0  0
    4.9855   -7.4456    0.0000 C   0  0  0  0  0  0  0  0  0  0  0  0
    5.7000   -7.0331    0.0000 C   0  0  0  0  0  0  0  0  0  0  0  0
    6.4145   -7.4456    0.0000 C   0  0  0  0  0  0  0  0  0  0  0  0
    7.1290   -7.0331    0.0000 C   0  0  2  0  0  0  0  0  0  0  0  0
    7.8434   -7.4456    0.0000 C   0  0  0  0  0  0  0  0  0  0  0  0
    8.5579   -7.0331    0.0000 C   0  0  0  0  0  0  0  0  0  0  0  0
    9.2724   -7.4456    0.0000 C   0  0  0  0  0  0  0  0  0  0  0  0
    9.2724   -8.2706    0.0000 C   0  0  0  0  0  0  0  0  0  0  0  0
    9.9868   -8.6831    0.0000 C   0  0  0  0  0  0  0  0  0  0  0  0
   10.7013   -8.2706    0.0000 C   0  0  0  0  0  0  0  0  0  0  0  0
   10.7013   -7.4456    0.0000 C   0  0  0  0  0  0  0  0  0  0  0  0
    9.9868   -7.0331    0.0000 C   0  0  0  0  0  0  0  0  0  0  0  0
   11.4158   -8.6831    0.0000 O   0  0  0  0  0  0  0  0  0  0  0  0
    4.2711   -6.2081    0.0000 O   0  0  0  0  0  0  0  0  0  0  0  0
    7.1290   -6.2081    0.0000 S   0  0  0  0  0  0  0  0  0  0  0  0
    7.9539   -6.2081    0.0000 O   0  0  0  0  0  0  0  0  0  0  0  0
    6.3040   -6.2081    0.0000 O   0  0  0  0  0  0  0  0  0  0  0  0
    7.1290   -5.3831    0.0000 O   0  0  0  0  0  0  0  0  0  0  0  0
    7.1290   -4.5581    0.0000 Na  0  0  0  0  0  0  0  0  0  0  0  0
  1  2  2  0  0  0  0
  2  3  1  0  0  0  0
  3  4  2  0  0  0  0
  4  5  1  0  0  0  0
  5  6  2  0  0  0  0
  6  1  1  0  0  0  0
  2  7  1  0  0  0  0
  5  8  1  0  0  0  0
  8  9  1  0  0  0  0
  9 10  2  0  0  0  0
 10 11  1  0  0  0  0
 11 12  1  0  0  0  0
 12 13  1  0  0  0  0
 13 14  1  0  0  0  0
 14 15  1  0  0  0  0
 15 16  2  0  0  0  0
 16 17  1  0  0  0  0
 17 18  2  0  0  0  0
 18 19  1  0  0  0  0
 19 20  2  0  0  0  0
 20 15  1  0  0  0  0
 18 21  1  0  0  0  0
  8 22  1  0  0  0  0
 12 23  1  1  0  0  0
 23 24  2  0  0  0  0
 23 25  2  0  0  0  0
 23 26  1  0  0  0  0
 26 27  1  0  0  0  0
M  STY  1   1 SUP
M  SAL   1  2  26  27
M  SBL   1  1  27
M  SMT   1 ONa
M  SAP   1  1  26  23  1
M  END
>  <cdx:fragmentId>
5

$$$$
