15841.cdx
  Mrv1902 05222410212D          

 31 34  0  0  0  0            999 V2000
   10.9447   -7.9860    0.0000 C   0  0  0  0  0  0  0  0  0  0  0  0
   10.3316   -8.5381    0.0000 H   0  0  0  0  0  0  0  0  0  0  0  0
    8.2368   -7.3287    0.0000 H   0  0  0  0  0  0  0  0  0  0  0  0
    8.1057   -9.9746    0.0000 C   0  0  0  0  0  0  0  0  0  0  0  0
   10.2247   -6.3044    0.0000 O   0  0  0  0  0  0  0  0  0  0  0  0
    7.3913   -7.0871    0.0000 C   0  0  0  0  0  0  0  0  0  0  0  0
   10.1478   -7.7725    0.0000 C   0  0  2  0  0  0  0  0  0  0  0  0
    9.8122   -7.0188    0.0000 C   0  0  0  0  0  0  0  0  0  0  0  0
    8.9917   -7.1051    0.0000 O   0  0  0  0  0  0  0  0  0  0  0  0
    8.8202   -9.5621    0.0000 C   0  0  0  0  0  0  0  0  0  0  0  0
    9.5347   -9.1496    0.0000 C   0  0  0  0  0  0  0  0  0  0  0  0
    9.5347   -8.3246    0.0000 C   0  0  2  0  0  0  0  0  0  0  0  0
    8.8202   -7.9121    0.0000 C   0  0  1  0  0  0  0  0  0  0  0  0
    6.6768   -9.1496    0.0000 C   0  0  0  0  0  0  0  0  0  0  0  0
    7.3913   -9.5621    0.0000 C   0  0  0  0  0  0  0  0  0  0  0  0
    8.1057   -9.1496    0.0000 C   0  0  2  0  0  0  0  0  0  0  0  0
    8.1057   -8.3246    0.0000 C   0  0  0  0  0  0  0  0  0  0  0  0
    7.3913   -7.9121    0.0000 C   0  0  0  0  0  0  0  0  0  0  0  0
    6.6768   -8.3246    0.0000 C   0  0  1  0  0  0  0  0  0  0  0  0
    2.3900   -8.3246    0.0000 O   0  0  0  0  0  0  0  0  0  0  0  0
    5.9623   -9.5621    0.0000 O   0  0  0  0  0  0  0  0  0  0  0  0
    3.1044   -9.5621    0.0000 O   0  0  0  0  0  0  0  0  0  0  0  0
    5.9623   -7.9121    0.0000 O   0  0  0  0  0  0  0  0  0  0  0  0
    3.1044   -7.9121    0.0000 C   0  0  0  0  0  0  0  0  0  0  0  0
    4.5334  -10.3871    0.0000 O   0  0  0  0  0  0  0  0  0  0  0  0
    4.5334   -9.5621    0.0000 C   0  0  2  0  0  0  0  0  0  0  0  0
    5.2478   -9.1496    0.0000 C   0  0  2  0  0  0  0  0  0  0  0  0
    5.2478   -8.3246    0.0000 C   0  0  1  0  0  0  0  0  0  0  0  0
    4.5334   -7.9121    0.0000 O   0  0  0  0  0  0  0  0  0  0  0  0
    3.8189   -8.3246    0.0000 C   0  0  1  0  0  0  0  0  0  0  0  0
    3.8189   -9.1496    0.0000 C   0  0  1  0  0  0  0  0  0  0  0  0
  7  1  1  1  0  0  0
 12  2  1  1  0  0  0
 13  3  1  6  0  0  0
 16  4  1  6  0  0  0
  8  5  2  0  0  0  0
 18  6  1  0  0  0  0
  7 12  1  0  0  0  0
  8  7  1  0  0  0  0
  9  8  1  0  0  0  0
 13  9  1  0  0  0  0
 10 16  1  0  0  0  0
 11 10  1  0  0  0  0
 12 11  1  0  0  0  0
 13 12  1  0  0  0  0
 17 13  1  0  0  0  0
 14 19  1  0  0  0  0
 15 14  1  0  0  0  0
 16 15  1  0  0  0  0
 17 16  1  0  0  0  0
 18 17  2  0  0  0  0
 19 18  1  0  0  0  0
 19 23  1  6  0  0  0
 24 20  1  0  0  0  0
 27 21  1  6  0  0  0
 31 22  1  6  0  0  0
 28 23  1  1  0  0  0
 30 24  1  1  0  0  0
 26 25  1  1  0  0  0
 26 31  1  0  0  0  0
 27 26  1  0  0  0  0
 28 27  1  0  0  0  0
 29 28  1  0  0  0  0
 30 29  1  0  0  0  0
 31 30  1  0  0  0  0
M  END
>  <cdx:fragmentId>
5

$$$$
