15850.cdx
  Mrv1902 05222410232D          

 25 27  0  0  0  0            999 V2000
    4.7058   -7.3631    0.0000 C   0  0  0  0  0  0  0  0  0  0  0  0
    4.7058   -8.1881    0.0000 C   0  0  0  0  0  0  0  0  0  0  0  0
    5.4202   -8.6006    0.0000 C   0  0  0  0  0  0  0  0  0  0  0  0
    6.1347   -8.1881    0.0000 C   0  0  0  0  0  0  0  0  0  0  0  0
    6.1347   -7.3631    0.0000 C   0  0  0  0  0  0  0  0  0  0  0  0
    5.4202   -6.9506    0.0000 C   0  0  0  0  0  0  0  0  0  0  0  0
    6.8492   -8.6006    0.0000 O   0  0  0  0  0  0  0  0  0  0  0  0
    7.5637   -8.1881    0.0000 C   0  0  1  0  0  0  0  0  0  0  0  0
    7.5637   -7.3631    0.0000 C   0  0  0  0  0  0  0  0  0  0  0  0
    6.8492   -6.9506    0.0000 C   0  0  0  0  0  0  0  0  0  0  0  0
    8.2781   -8.6006    0.0000 C   0  0  0  0  0  0  0  0  0  0  0  0
    8.9926   -8.1881    0.0000 C   0  0  0  0  0  0  0  0  0  0  0  0
    8.2781   -9.4256    0.0000 C   0  0  0  0  0  0  0  0  0  0  0  0
    8.9926   -9.8381    0.0000 C   0  0  0  0  0  0  0  0  0  0  0  0
    9.7071   -9.4256    0.0000 C   0  0  0  0  0  0  0  0  0  0  0  0
    9.7071   -8.6006    0.0000 C   0  0  0  0  0  0  0  0  0  0  0  0
    3.9913   -8.6006    0.0000 O   0  0  0  0  0  0  0  0  0  0  0  0
    4.7058   -9.8381    0.0000 C   0  0  0  0  0  0  0  0  0  0  0  0
    5.4202   -9.4256    0.0000 C   0  0  0  0  0  0  0  0  0  0  0  0
    5.4202   -6.1256    0.0000 O   0  0  0  0  0  0  0  0  0  0  0  0
    6.8492   -6.1256    0.0000 O   0  0  0  0  0  0  0  0  0  0  0  0
   10.4215   -9.8381    0.0000 O   0  0  0  0  0  0  0  0  0  0  0  0
    4.7058  -10.6631    0.0000 C   0  0  0  0  0  0  0  0  0  0  0  0
    3.9913  -11.0756    0.0000 C   0  0  0  0  0  0  0  0  0  0  0  0
    5.4202  -11.0756    0.0000 C   0  0  0  0  0  0  0  0  0  0  0  0
  1  2  2  0  0  0  0
  2  3  1  0  0  0  0
  3  4  2  0  0  0  0
  4  5  1  0  0  0  0
  5  6  2  0  0  0  0
  6  1  1  0  0  0  0
  4  7  1  0  0  0  0
  7  8  1  0  0  0  0
  8  9  1  0  0  0  0
  9 10  1  0  0  0  0
 10  5  1  0  0  0  0
  8 11  1  1  0  0  0
 11 12  1  0  0  0  0
 11 13  2  0  0  0  0
 13 14  1  0  0  0  0
 14 15  2  0  0  0  0
 15 16  1  0  0  0  0
 16 12  2  0  0  0  0
  2 17  1  0  0  0  0
 18 19  1  0  0  0  0
 19  3  1  0  0  0  0
  6 20  1  0  0  0  0
 10 21  2  0  0  0  0
 15 22  1  0  0  0  0
 18 23  2  0  0  0  0
 23 24  1  0  0  0  0
 23 25  1  0  0  0  0
M  END
>  <cdx:fragmentId>
5

$$$$
