15865.cdx
  Mrv1902 05222410252D          

 11 10  0  0  0  0            999 V2000
    6.8405   -7.1551    0.0000 N   0  0  0  0  0  0  0  0  0  0  0  0
    6.1462  -10.8715    0.0000 C   0  0  0  0  0  0  0  0  0  0  0  0
    6.1417  -10.0465    0.0000 C   0  0  0  0  0  0  0  0  0  0  0  0
    6.8540   -9.6301    0.0000 C   0  0  0  0  0  0  0  0  0  0  0  0
    6.1328   -8.3965    0.0000 O   0  0  0  0  0  0  0  0  0  0  0  0
    6.8495   -8.8051    0.0000 S   0  0  0  0  0  0  0  0  0  0  0  0
    8.2649   -6.3224    0.0000 O   0  0  0  0  0  0  0  0  0  0  0  0
    8.9861   -7.5560    0.0000 O   0  0  0  0  0  0  0  0  0  0  0  0
    7.5617   -8.3887    0.0000 C   0  0  0  0  0  0  0  0  0  0  0  0
    7.5572   -7.5637    0.0000 C   0  0  1  0  0  0  0  0  0  0  0  0
    8.2694   -7.1474    0.0000 C   0  0  0  0  0  0  0  0  0  0  0  0
 10  1  1  6  0  0  0
  9  6  1  0  0  0  0
  6  4  1  0  0  0  0
  3  2  1  0  0  0  0
  4  3  1  0  0  0  0
  6  5  2  0  0  0  0
 11  7  1  0  0  0  0
 11  8  2  0  0  0  0
 10  9  1  0  0  0  0
 11 10  1  0  0  0  0
M  END
>  <cdx:fragmentId>
40

$$$$
