158748.cdx
  Mrv1902 05222410202D          

 47 50  0  0  0  0            999 V2000
    3.3805   -8.5564    0.0000 C   0  0  0  0  0  0  0  0  0  0  0  0
    2.6662   -8.1435    0.0000 C   0  0  0  0  0  0  0  0  0  0  0  0
    1.9515   -8.5555    0.0000 C   0  0  0  0  0  0  0  0  0  0  0  0
    1.9510   -9.3805    0.0000 C   0  0  0  0  0  0  0  0  0  0  0  0
    2.6653   -9.7935    0.0000 C   0  0  0  0  0  0  0  0  0  0  0  0
    3.3800   -9.3814    0.0000 C   0  0  0  0  0  0  0  0  0  0  0  0
    1.2363   -9.7926    0.0000 O   0  0  0  0  0  0  0  0  0  0  0  0
    0.5221   -9.3797    0.0000 C   0  0  0  0  0  0  0  0  0  0  0  0
    1.2373   -8.1426    0.0000 O   0  0  0  0  0  0  0  0  0  0  0  0
    7.6668   -9.3840    0.0000 O   0  0  0  0  0  0  0  0  0  0  0  0
    6.2379   -9.3831    0.0000 O   0  0  0  0  0  0  0  0  0  0  0  0
    6.9521   -9.7961    0.0000 C   0  0  2  0  0  0  0  0  0  0  0  0
    6.9516  -10.6211    0.0000 C   0  0  1  0  0  0  0  0  0  0  0  0
    6.2369  -11.0331    0.0000 C   0  0  1  0  0  0  0  0  0  0  0  0
    5.5226  -10.6202    0.0000 C   0  0  2  0  0  0  0  0  0  0  0  0
    5.5231   -9.7952    0.0000 C   0  0  2  0  0  0  0  0  0  0  0  0
    4.8089   -9.3823    0.0000 C   0  0  0  0  0  0  0  0  0  0  0  0
    4.8079  -11.0323    0.0000 O   0  0  0  0  0  0  0  0  0  0  0  0
    6.2364  -11.8581    0.0000 O   0  0  0  0  0  0  0  0  0  0  0  0
    7.6658  -11.0340    0.0000 O   0  0  0  0  0  0  0  0  0  0  0  0
    9.8115   -7.3228    0.0000 C   0  0  0  0  0  0  0  0  0  0  0  0
   10.5262   -6.9107    0.0000 C   0  0  0  0  0  0  0  0  0  0  0  0
   11.2404   -7.3236    0.0000 C   0  0  0  0  0  0  0  0  0  0  0  0
    9.8110   -8.1478    0.0000 O   0  0  0  0  0  0  0  0  0  0  0  0
    9.0972   -6.9098    0.0000 O   0  0  0  0  0  0  0  0  0  0  0  0
   11.9551   -6.9116    0.0000 C   0  0  0  0  0  0  0  0  0  0  0  0
   12.6693   -7.3245    0.0000 C   0  0  0  0  0  0  0  0  0  0  0  0
   13.3841   -6.9124    0.0000 C   0  0  0  0  0  0  0  0  0  0  0  0
   13.3846   -6.0874    0.0000 C   0  0  0  0  0  0  0  0  0  0  0  0
   12.6703   -5.6745    0.0000 C   0  0  0  0  0  0  0  0  0  0  0  0
   11.9556   -6.0866    0.0000 C   0  0  0  0  0  0  0  0  0  0  0  0
   14.0993   -5.6753    0.0000 O   0  0  0  0  0  0  0  0  0  0  0  0
   14.0983   -7.3253    0.0000 O   0  0  0  0  0  0  0  0  0  0  0  0
    9.0962   -8.5598    0.0000 O   0  0  0  0  0  0  0  0  0  0  0  0
    5.5246   -7.3202    0.0000 O   0  0  0  0  0  0  0  0  0  0  0  0
    4.0952   -8.1443    0.0000 C   0  0  0  0  0  0  0  0  0  0  0  0
    4.8094   -8.5573    0.0000 C   0  0  0  0  0  0  0  0  0  0  0  0
    5.5241   -8.1452    0.0000 C   0  0  0  0  0  0  0  0  0  0  0  0
    6.2384   -8.5581    0.0000 O   0  0  0  0  0  0  0  0  0  0  0  0
    6.2398   -6.0831    0.0000 O   0  0  0  0  0  0  0  0  0  0  0  0
    6.2393   -6.9081    0.0000 C   0  0  0  0  0  0  0  0  0  0  0  0
    6.9536   -7.3211    0.0000 C   0  0  2  0  0  0  0  0  0  0  0  0
    6.9531   -8.1461    0.0000 C   0  0  2  0  0  0  0  0  0  0  0  0
    7.6673   -8.5590    0.0000 C   0  0  1  0  0  0  0  0  0  0  0  0
    8.3820   -8.1469    0.0000 C   0  0  2  0  0  0  0  0  0  0  0  0
    8.3825   -7.3219    0.0000 C   0  0  1  0  0  0  0  0  0  0  0  0
    7.6683   -6.9090    0.0000 O   0  0  0  0  0  0  0  0  0  0  0  0
 46 25  1  1  0  0  0
 45 34  1  6  0  0  0
 43 39  1  6  0  0  0
 39 38  1  0  0  0  0
 36  1  1  0  0  0  0
 38 35  2  0  0  0  0
 37 36  2  0  0  0  0
 38 37  1  0  0  0  0
 42 41  1  1  0  0  0
 41 40  1  0  0  0  0
 44 10  1  1  0  0  0
 47 42  1  0  0  0  0
 43 42  1  0  0  0  0
 44 43  1  0  0  0  0
 45 44  1  0  0  0  0
 46 45  1  0  0  0  0
 47 46  1  0  0  0  0
  1  2  1  0  0  0  0
  2  3  2  0  0  0  0
  3  4  1  0  0  0  0
  4  5  2  0  0  0  0
  5  6  1  0  0  0  0
  1  6  2  0  0  0  0
  7  8  1  0  0  0  0
  4  7  1  0  0  0  0
  3  9  1  0  0  0  0
 11 12  1  0  0  0  0
 12 13  1  0  0  0  0
 13 14  1  0  0  0  0
 14 15  1  0  0  0  0
 15 16  1  0  0  0  0
 11 16  1  0  0  0  0
 16 17  1  6  0  0  0
 15 18  1  1  0  0  0
 14 19  1  6  0  0  0
 13 20  1  6  0  0  0
 12 10  1  1  0  0  0
 21 22  1  0  0  0  0
 22 23  1  0  0  0  0
 21 24  2  0  0  0  0
 21 25  1  0  0  0  0
 26 27  1  0  0  0  0
 27 28  2  0  0  0  0
 28 29  1  0  0  0  0
 29 30  2  0  0  0  0
 30 31  1  0  0  0  0
 26 31  2  0  0  0  0
 29 32  1  0  0  0  0
 28 33  1  0  0  0  0
 23 26  1  0  0  0  0
M  END
>  <cdx:fragmentId>
21929

$$$$
