15884.cdx
  Mrv1902 05222410222D          

 13 13  0  0  0  0            999 V2000
    7.3381   -7.8581    0.0000 C   0  0  0  0  0  0  0  0  0  0  0  0
    6.6236   -7.4456    0.0000 C   0  0  0  0  0  0  0  0  0  0  0  0
    5.9092   -7.8581    0.0000 C   0  0  0  0  0  0  0  0  0  0  0  0
    5.9092   -8.6831    0.0000 C   0  0  0  0  0  0  0  0  0  0  0  0
    6.6236   -9.0956    0.0000 C   0  0  0  0  0  0  0  0  0  0  0  0
    7.3381   -8.6831    0.0000 C   0  0  0  0  0  0  0  0  0  0  0  0
    8.0526   -7.4456    0.0000 O   0  0  0  0  0  0  0  0  0  0  0  0
    5.1947   -9.0956    0.0000 C   0  0  0  0  0  0  0  0  0  0  0  0
    6.6236   -6.6206    0.0000 C   0  0  0  0  0  0  0  0  0  0  0  0
    8.0526   -9.0956    0.0000 C   0  0  0  0  0  0  0  0  0  0  0  0
    8.7671   -9.5081    0.0000 C   0  0  0  0  0  0  0  0  0  0  0  0
    8.4651   -8.3812    0.0000 C   0  0  0  0  0  0  0  0  0  0  0  0
    7.6401   -9.8101    0.0000 C   0  0  0  0  0  0  0  0  0  0  0  0
  1  2  1  0  0  0  0
  2  3  2  0  0  0  0
  3  4  1  0  0  0  0
  4  5  2  0  0  0  0
  5  6  1  0  0  0  0
  1  6  2  0  0  0  0
  1  7  1  0  0  0  0
  4  8  1  0  0  0  0
  2  9  1  0  0  0  0
 10 11  1  0  0  0  0
  6 10  1  0  0  0  0
 10 12  1  0  0  0  0
 10 13  1  0  0  0  0
M  END
>  <cdx:fragmentId>
5

$$$$
