158845.cdx
  Mrv1902 05222410222D          

 33 35  0  0  0  0            999 V2000
    4.1849   -8.0987    0.0000 C   0  0  2  0  0  0  0  0  0  0  0  0
    4.1849   -8.9238    0.0000 C   0  0  2  0  0  0  0  0  0  0  0  0
    4.8994   -9.3362    0.0000 C   0  0  1  0  0  0  0  0  0  0  0  0
    5.6139   -8.9238    0.0000 C   0  0  2  0  0  0  0  0  0  0  0  0
    5.6139   -8.0987    0.0000 C   0  0  1  0  0  0  0  0  0  0  0  0
    4.8994   -7.6863    0.0000 O   0  0  0  0  0  0  0  0  0  0  0  0
    6.3283   -9.3362    0.0000 O   0  0  0  0  0  0  0  0  0  0  0  0
    6.3283   -4.3862    0.0000 O   0  0  0  0  0  0  0  0  0  0  0  0
    9.1862   -7.6863    0.0000 O   0  0  0  0  0  0  0  0  0  0  0  0
    9.1862   -6.8613    0.0000 C   0  0  0  0  0  0  0  0  0  0  0  0
    8.4718   -6.4487    0.0000 O   0  0  0  0  0  0  0  0  0  0  0  0
   10.6152   -7.6863    0.0000 O   0  0  0  0  0  0  0  0  0  0  0  0
   10.6152   -6.8613    0.0000 C   0  0  0  0  0  0  0  0  0  0  0  0
    9.9007   -6.4487    0.0000 C   0  0  0  0  0  0  0  0  0  0  0  0
   11.3296   -6.4487    0.0000 C   0  0  0  0  0  0  0  0  0  0  0  0
   11.3296   -5.6238    0.0000 C   0  0  0  0  0  0  0  0  0  0  0  0
   10.6152   -5.2113    0.0000 C   0  0  0  0  0  0  0  0  0  0  0  0
    9.9007   -5.6238    0.0000 C   0  0  0  0  0  0  0  0  0  0  0  0
    9.1862   -5.2113    0.0000 O   0  0  0  0  0  0  0  0  0  0  0  0
    9.1862   -4.3862    0.0000 C   0  0  0  0  0  0  0  0  0  0  0  0
    7.7573   -6.8613    0.0000 C   0  0  0  0  0  0  0  0  0  0  0  0
   11.3296   -8.0987    0.0000 C   0  0  0  0  0  0  0  0  0  0  0  0
    7.0428   -6.4487    0.0000 C   0  0  0  0  0  0  0  0  0  0  0  0
    7.0428   -5.6238    0.0000 C   0  0  0  0  0  0  0  0  0  0  0  0
    6.3283   -5.2113    0.0000 C   0  0  0  0  0  0  0  0  0  0  0  0
    5.6139   -5.6238    0.0000 C   0  0  0  0  0  0  0  0  0  0  0  0
    6.3283   -7.6863    0.0000 O   0  0  0  0  0  0  0  0  0  0  0  0
    6.3283   -6.8613    0.0000 C   0  0  0  0  0  0  0  0  0  0  0  0
    5.6139   -6.4487    0.0000 C   0  0  0  0  0  0  0  0  0  0  0  0
    3.4705   -7.6863    0.0000 C   0  0  0  0  0  0  0  0  0  0  0  0
    2.7560   -8.0987    0.0000 O   0  0  0  0  0  0  0  0  0  0  0  0
    4.8994  -10.1612    0.0000 O   0  0  0  0  0  0  0  0  0  0  0  0
    3.4705   -9.3362    0.0000 O   0  0  0  0  0  0  0  0  0  0  0  0
  1  2  1  0  0  0  0
  2  3  1  0  0  0  0
  3  4  1  0  0  0  0
  4  5  1  0  0  0  0
  5  6  1  0  0  0  0
  6  1  1  0  0  0  0
 25  8  1  0  0  0  0
  4  7  1  6  0  0  0
  5 27  1  1  0  0  0
  9 10  2  0  0  0  0
 10 11  1  0  0  0  0
 12 13  1  0  0  0  0
 13 14  2  0  0  0  0
 14 10  1  0  0  0  0
 13 15  1  0  0  0  0
 15 16  2  0  0  0  0
 16 17  1  0  0  0  0
 17 18  2  0  0  0  0
 18 14  1  0  0  0  0
 21 23  1  0  0  0  0
 11 21  1  0  0  0  0
 18 19  1  0  0  0  0
 19 20  1  0  0  0  0
 12 22  1  0  0  0  0
 23 28  1  0  0  0  0
 24 23  2  0  0  0  0
 25 24  1  0  0  0  0
 26 25  2  0  0  0  0
 29 26  1  0  0  0  0
 28 27  1  0  0  0  0
 29 28  2  0  0  0  0
  1 30  1  1  0  0  0
 30 31  1  0  0  0  0
  3 32  1  1  0  0  0
  2 33  1  6  0  0  0
M  END
>  <cdx:fragmentId>
5

$$$$
