1588.cdx
  Mrv1902 05222410252D          

 22 21  0  0  0  0            999 V2000
    1.5773   -9.2263    0.0000 C   0  0  0  0  0  0  0  0  0  0  0  0
    0.8628   -9.6387    0.0000 C   0  0  0  0  0  0  0  0  0  0  0  0
    2.2917   -9.6387    0.0000 C   0  0  0  0  0  0  0  0  0  0  0  0
   10.9759   -7.5762    0.0000 C   0  0  0  0  0  0  0  0  0  0  0  0
   10.2614   -7.9888    0.0000 C   0  0  0  0  0  0  0  0  0  0  0  0
    9.5470   -8.4013    0.0000 C   0  0  0  0  0  0  0  0  0  0  0  0
    8.8325   -8.8138    0.0000 C   0  0  0  0  0  0  0  0  0  0  0  0
    8.1180   -9.2263    0.0000 C   0  0  0  0  0  0  0  0  0  0  0  0
    7.4035   -9.6387    0.0000 C   0  0  0  0  0  0  0  0  0  0  0  0
    6.5785   -9.6387    0.0000 C   0  0  0  0  0  0  0  0  0  0  0  0
    5.8641   -9.2263    0.0000 C   0  0  0  0  0  0  0  0  0  0  0  0
    5.1496   -9.6387    0.0000 C   0  0  0  0  0  0  0  0  0  0  0  0
    4.4351   -9.2263    0.0000 C   0  0  0  0  0  0  0  0  0  0  0  0
    3.7207   -9.6387    0.0000 C   0  0  0  0  0  0  0  0  0  0  0  0
    3.0062   -9.2263    0.0000 C   0  0  0  0  0  0  0  0  0  0  0  0
    3.0062   -8.4013    0.0000 O   0  0  0  0  0  0  0  0  0  0  0  0
   11.6904   -7.9888    0.0000 C   0  0  0  0  0  0  0  0  0  0  0  0
   12.4048   -7.5762    0.0000 C   0  0  0  0  0  0  0  0  0  0  0  0
   13.1193   -7.9888    0.0000 O   0  0  0  0  0  0  0  0  0  0  0  0
    2.2917   -7.9888    0.0000 C   0  0  0  0  0  0  0  0  0  0  0  0
    2.2917   -7.1638    0.0000 O   0  0  0  0  0  0  0  0  0  0  0  0
    1.5773   -8.4013    0.0000 C   0  0  0  0  0  0  0  0  0  0  0  0
  1  2  1  0  0  0  0
  1  3  1  0  0  0  0
  4  5  1  0  0  0  0
  5  6  3  0  0  0  0
  6  7  1  0  0  0  0
  7  8  3  0  0  0  0
  8  9  1  0  0  0  0
  9 10  2  0  0  0  0
 10 11  1  0  0  0  0
 11 12  2  0  0  0  0
 12 13  1  0  0  0  0
 13 14  1  0  0  0  0
 14 15  1  0  0  0  0
 15 16  1  0  0  0  0
  3 15  1  0  0  0  0
  4 17  2  0  0  0  0
 17 18  1  0  0  0  0
 18 19  1  0  0  0  0
 16 20  1  0  0  0  0
 20 21  2  0  0  0  0
 20 22  1  0  0  0  0
M  END
>  <cdx:fragmentId>
13

$$$$
