158975.cdx
  Mrv1902 05222410272D          

 20 22  0  0  0  0            999 V2000
    4.7409  -10.1257    0.0000 C   0  0  0  0  0  0  0  0  0  0  0  0
    5.4547   -9.7120    0.0000 O   0  0  0  0  0  0  0  0  0  0  0  0
    6.1678   -8.4721    0.0000 C   0  0  0  0  0  0  0  0  0  0  0  0
    6.8823   -8.8846    0.0000 O   0  0  0  0  0  0  0  0  0  0  0  0
   10.4539   -8.4661    0.0000 O   0  0  0  0  0  0  0  0  0  0  0  0
    5.4575  -11.3620    0.0000 O   0  0  0  0  0  0  0  0  0  0  0  0
    7.6002  -10.9459    0.0000 C   0  0  0  0  0  0  0  0  0  0  0  0
    8.3154  -11.3572    0.0000 C   0  0  0  0  0  0  0  0  0  0  0  0
    9.0292  -10.9435    0.0000 C   0  0  0  0  0  0  0  0  0  0  0  0
    9.0278  -10.1185    0.0000 C   0  0  0  0  0  0  0  0  0  0  0  0
    9.7415   -9.7048    0.0000 C   0  0  0  0  0  0  0  0  0  0  0  0
    9.7401   -8.8798    0.0000 C   0  0  0  0  0  0  0  0  0  0  0  0
    9.0250   -8.4685    0.0000 C   0  0  0  0  0  0  0  0  0  0  0  0
    8.3112   -8.8822    0.0000 C   0  0  0  0  0  0  0  0  0  0  0  0
    8.3126   -9.7072    0.0000 C   0  0  0  0  0  0  0  0  0  0  0  0
    7.5988  -10.1209    0.0000 C   0  0  0  0  0  0  0  0  0  0  0  0
    6.8837   -9.7096    0.0000 C   0  0  0  0  0  0  0  0  0  0  0  0
    6.1699  -10.1233    0.0000 C   0  0  0  0  0  0  0  0  0  0  0  0
    6.1713  -10.9483    0.0000 C   0  0  0  0  0  0  0  0  0  0  0  0
    6.8864  -11.3596    0.0000 C   0  0  0  0  0  0  0  0  0  0  0  0
 18  2  1  0  0  0  0
  2  1  1  0  0  0  0
 17  4  1  0  0  0  0
  4  3  1  0  0  0  0
 12  5  1  0  0  0  0
 19  6  1  0  0  0  0
 16  7  1  0  0  0  0
 20  7  2  0  0  0  0
  8  7  1  0  0  0  0
  9  8  2  0  0  0  0
 10  9  1  0  0  0  0
 15 10  1  0  0  0  0
 11 10  2  0  0  0  0
 12 11  1  0  0  0  0
 13 12  2  0  0  0  0
 14 13  1  0  0  0  0
 15 14  2  0  0  0  0
 16 15  1  0  0  0  0
 17 16  2  0  0  0  0
 18 17  1  0  0  0  0
 19 18  2  0  0  0  0
 20 19  1  0  0  0  0
M  END
>  <cdx:fragmentId>
5

$$$$
