15895.cdx
  Mrv1902 05222410212D          

 45 49  0  0  0  0            999 V2000
    4.9361   -7.4556    0.0000 C   0  0  0  0  0  0  0  0  0  0  0  0
    4.9361   -8.2806    0.0000 C   0  0  1  0  0  0  0  0  0  0  0  0
    5.6506   -8.6931    0.0000 C   0  0  0  0  0  0  0  0  0  0  0  0
    6.3651   -8.2806    0.0000 C   0  0  1  0  0  0  0  0  0  0  0  0
    6.3651   -7.4556    0.0000 C   0  0  2  0  0  0  0  0  0  0  0  0
    5.6506   -7.0431    0.0000 C   0  0  0  0  0  0  0  0  0  0  0  0
    7.0795   -8.6931    0.0000 C   0  0  0  0  0  0  0  0  0  0  0  0
    7.7940   -8.2806    0.0000 C   0  0  0  0  0  0  0  0  0  0  0  0
    7.7940   -7.4556    0.0000 C   0  0  0  0  0  0  0  0  0  0  0  0
    7.0795   -7.0431    0.0000 C   0  0  2  0  0  0  0  0  0  0  0  0
    8.5085   -7.0431    0.0000 C   0  0  1  0  0  0  0  0  0  0  0  0
    8.5085   -6.2181    0.0000 C   0  0  2  0  0  0  0  0  0  0  0  0
    7.7940   -5.8056    0.0000 C   0  0  0  0  0  0  0  0  0  0  0  0
    7.0795   -6.2181    0.0000 C   0  0  0  0  0  0  0  0  0  0  0  0
    9.2931   -7.2981    0.0000 C   0  0  0  0  0  0  0  0  0  0  0  0
    9.7780   -6.6306    0.0000 C   0  0  0  0  0  0  0  0  0  0  0  0
    9.2931   -5.9632    0.0000 C   0  0  2  0  0  0  0  0  0  0  0  0
    9.5066   -5.1663    0.0000 C   0  0  1  0  0  0  0  0  0  0  0  0
   10.3035   -4.9528    0.0000 C   0  0  0  0  0  0  0  0  0  0  0  0
    4.2217   -8.6931    0.0000 O   0  0  0  0  0  0  0  0  0  0  0  0
    6.3651   -6.6306    0.0000 C   0  0  0  0  0  0  0  0  0  0  0  0
    8.5085   -5.3931    0.0000 C   0  0  0  0  0  0  0  0  0  0  0  0
    8.9233   -4.5830    0.0000 C   0  0  0  0  0  0  0  0  0  0  0  0
   10.5171   -4.1559    0.0000 C   0  0  0  0  0  0  0  0  0  0  0  0
   11.3025   -3.9325    0.0000 C   0  0  2  0  0  0  0  0  0  0  0  0
   11.5160   -3.1356    0.0000 C   0  0  0  0  0  0  0  0  0  0  0  0
   12.3129   -2.9221    0.0000 C   0  0  0  0  0  0  0  0  0  0  0  0
   10.9327   -2.5522    0.0000 C   0  0  0  0  0  0  0  0  0  0  0  0
   11.8859   -4.5159    0.0000 C   0  0  0  0  0  0  0  0  0  0  0  0
   12.6828   -4.3023    0.0000 C   0  0  0  0  0  0  0  0  0  0  0  0
    7.0795   -7.8681    0.0000 H   0  0  0  0  0  0  0  0  0  0  0  0
    8.5085   -7.8681    0.0000 H   0  0  0  0  0  0  0  0  0  0  0  0
   10.0900   -5.7497    0.0000 H   0  0  0  0  0  0  0  0  0  0  0  0
    6.3651   -9.1056    0.0000 H   0  0  0  0  0  0  0  0  0  0  0  0
    3.5072   -8.2806    0.0000 C   0  0  2  0  0  0  0  0  0  0  0  0
    3.5072   -7.4556    0.0000 O   0  0  0  0  0  0  0  0  0  0  0  0
    2.7927   -7.0431    0.0000 C   0  0  1  0  0  0  0  0  0  0  0  0
    2.0782   -7.4556    0.0000 C   0  0  2  0  0  0  0  0  0  0  0  0
    2.0782   -8.2806    0.0000 C   0  0  1  0  0  0  0  0  0  0  0  0
    2.7927   -8.6931    0.0000 C   0  0  1  0  0  0  0  0  0  0  0  0
    2.7927   -6.2181    0.0000 C   0  0  0  0  0  0  0  0  0  0  0  0
    1.3638   -8.6931    0.0000 O   0  0  0  0  0  0  0  0  0  0  0  0
    2.7927   -9.5181    0.0000 O   0  0  0  0  0  0  0  0  0  0  0  0
    1.3638   -7.0431    0.0000 O   0  0  0  0  0  0  0  0  0  0  0  0
    2.0782   -5.8056    0.0000 O   0  0  0  0  0  0  0  0  0  0  0  0
  1  2  1  0  0  0  0
  2  3  1  0  0  0  0
  3  4  1  0  0  0  0
  4  5  1  0  0  0  0
  5  6  1  0  0  0  0
  6  1  1  0  0  0  0
  4  7  1  0  0  0  0
  7  8  1  0  0  0  0
  8  9  2  0  0  0  0
  9 10  1  0  0  0  0
 10  5  1  0  0  0  0
  9 11  1  0  0  0  0
 11 12  1  0  0  0  0
 12 13  1  0  0  0  0
 13 14  1  0  0  0  0
 14 10  1  0  0  0  0
 11 15  1  0  0  0  0
 15 16  1  0  0  0  0
 16 17  1  0  0  0  0
 17 12  1  0  0  0  0
 17 18  1  0  0  0  0
 18 19  1  0  0  0  0
  2 20  1  1  0  0  0
  5 21  1  1  0  0  0
 12 22  1  1  0  0  0
 18 23  1  6  0  0  0
 19 24  1  0  0  0  0
 25 24  1  6  0  0  0
 25 26  1  0  0  0  0
 26 27  1  0  0  0  0
 26 28  1  0  0  0  0
 25 29  1  0  0  0  0
 29 30  1  0  0  0  0
 10 31  1  6  0  0  0
 11 32  1  6  0  0  0
 17 33  1  6  0  0  0
  4 34  1  6  0  0  0
 35 20  1  1  0  0  0
 35 36  1  0  0  0  0
 36 37  1  0  0  0  0
 37 38  1  0  0  0  0
 38 39  1  0  0  0  0
 39 40  1  0  0  0  0
 40 35  1  0  0  0  0
 37 41  1  1  0  0  0
 39 42  1  1  0  0  0
 40 43  1  6  0  0  0
 38 44  1  6  0  0  0
 41 45  1  0  0  0  0
M  END
>  <cdx:fragmentId>
122

$$$$
