159.cdx
  Mrv1902 05222410212D          

 38 38  0  0  0  0            999 V2000
    1.5295   -7.0744    0.0000 C   0  0  0  0  0  0  0  0  0  0  0  0
    1.5295   -7.8994    0.0000 C   0  0  0  0  0  0  0  0  0  0  0  0
    2.2440   -8.3119    0.0000 C   0  0  0  0  0  0  0  0  0  0  0  0
    2.9585   -7.8994    0.0000 C   0  0  0  0  0  0  0  0  0  0  0  0
    2.9585   -7.0744    0.0000 C   0  0  0  0  0  0  0  0  0  0  0  0
    2.2440   -6.6619    0.0000 C   0  0  0  0  0  0  0  0  0  0  0  0
    3.6729   -6.6619    0.0000 C   0  0  0  0  0  0  0  0  0  0  0  0
    4.3874   -7.0744    0.0000 C   0  0  0  0  0  0  0  0  0  0  0  0
    5.1019   -6.6619    0.0000 C   0  0  0  0  0  0  0  0  0  0  0  0
    5.8164   -7.0744    0.0000 O   0  0  0  0  0  0  0  0  0  0  0  0
    6.5308   -6.6619    0.0000 C   0  0  0  0  0  0  0  0  0  0  0  0
    7.2453   -7.0744    0.0000 C   0  0  3  0  0  0  0  0  0  0  0  0
    7.9598   -6.6619    0.0000 C   0  0  0  0  0  0  0  0  0  0  0  0
    8.6742   -7.0744    0.0000 O   0  0  0  0  0  0  0  0  0  0  0  0
    9.3887   -6.6619    0.0000 C   0  0  0  0  0  0  0  0  0  0  0  0
   10.1032   -7.0744    0.0000 C   0  0  0  0  0  0  0  0  0  0  0  0
   10.8177   -6.6619    0.0000 C   0  0  3  0  0  0  0  0  0  0  0  0
   11.5321   -7.0744    0.0000 C   0  0  0  0  0  0  0  0  0  0  0  0
    7.2453   -7.8994    0.0000 O   0  0  0  0  0  0  0  0  0  0  0  0
    5.1019   -5.8369    0.0000 O   0  0  0  0  0  0  0  0  0  0  0  0
    9.3887   -5.8369    0.0000 O   0  0  0  0  0  0  0  0  0  0  0  0
    7.9598   -8.3119    0.0000 C   0  0  0  0  0  0  0  0  0  0  0  0
    8.6742   -7.8994    0.0000 O   0  0  0  0  0  0  0  0  0  0  0  0
    7.9598   -9.1369    0.0000 C   0  0  0  0  0  0  0  0  0  0  0  0
   12.2466   -6.6619    0.0000 C   0  0  0  0  0  0  0  0  0  0  0  0
   12.9611   -7.0744    0.0000 C   0  0  0  0  0  0  0  0  0  0  0  0
   12.9611   -7.8994    0.0000 C   0  0  0  0  0  0  0  0  0  0  0  0
   12.2466   -8.3119    0.0000 C   0  0  0  0  0  0  0  0  0  0  0  0
   12.2466   -9.1369    0.0000 C   0  0  0  0  0  0  0  0  0  0  0  0
   12.9611   -9.5494    0.0000 C   0  0  0  0  0  0  0  0  0  0  0  0
   12.9611  -10.3744    0.0000 C   0  0  0  0  0  0  0  0  0  0  0  0
   12.2466  -10.7869    0.0000 C   0  0  0  0  0  0  0  0  0  0  0  0
   11.5321  -10.3744    0.0000 C   0  0  0  0  0  0  0  0  0  0  0  0
   10.8177  -10.7869    0.0000 C   0  0  0  0  0  0  0  0  0  0  0  0
   10.1032  -10.3744    0.0000 C   0  0  0  0  0  0  0  0  0  0  0  0
    9.3887  -10.7869    0.0000 C   0  0  0  0  0  0  0  0  0  0  0  0
    8.6742  -10.3744    0.0000 O   0  0  0  0  0  0  0  0  0  0  0  0
   10.8177   -5.8369    0.0000 O   0  0  0  0  0  0  0  0  0  0  0  0
  1  2  2  0  0  0  0
  2  3  1  0  0  0  0
  3  4  2  0  0  0  0
  4  5  1  0  0  0  0
  5  6  2  0  0  0  0
  6  1  1  0  0  0  0
  5  7  1  0  0  0  0
  7  8  2  0  0  0  0
  8  9  1  0  0  0  0
  9 10  1  0  0  0  0
 10 11  1  0  0  0  0
 11 12  1  0  0  0  0
 12 13  1  0  0  0  0
 13 14  1  0  0  0  0
 14 15  1  0  0  0  0
 15 16  1  0  0  0  0
 16 17  1  0  0  0  0
 17 18  1  0  0  0  0
 12 19  1  4  0  0  0
  9 20  2  0  0  0  0
 15 21  2  0  0  0  0
 19 22  1  0  0  0  0
 22 23  2  0  0  0  0
 22 24  1  0  0  0  0
 18 25  1  0  0  0  0
 25 26  1  0  0  0  0
 26 27  1  0  0  0  0
 27 28  1  0  0  0  0
 28 29  1  0  0  0  0
 29 30  1  0  0  0  0
 30 31  1  0  0  0  0
 31 32  1  0  0  0  0
 32 33  1  0  0  0  0
 33 34  1  0  0  0  0
 34 35  1  0  0  0  0
 35 36  1  0  0  0  0
 36 37  1  0  0  0  0
 17 38  1  4  0  0  0
M  END
>  <cdx:fragmentId>
5

$$$$
