21159022.cdx
  Mrv1902 05222410212D          

 15 16  0  0  0  0            999 V2000
   10.0189  -13.0986    0.0000 C   0  0  0  0  0  0  0  0  0  0  0  0
    9.5491  -12.4204    0.0000 C   0  0  0  0  0  0  0  0  0  0  0  0
    8.7269  -12.4883    0.0000 C   0  0  0  0  0  0  0  0  0  0  0  0
    8.3745  -13.2342    0.0000 C   0  0  0  0  0  0  0  0  0  0  0  0
    7.5523  -13.3020    0.0000 C   0  0  0  0  0  0  0  0  0  0  0  0
    7.1999  -14.0480    0.0000 C   0  0  0  0  0  0  0  0  0  0  0  0
    7.6697  -14.7261    0.0000 C   0  0  0  0  0  0  0  0  0  0  0  0
    8.4919  -14.6583    0.0000 C   0  0  0  0  0  0  0  0  0  0  0  0
    8.8443  -13.9124    0.0000 C   0  0  0  0  0  0  0  0  0  0  0  0
    9.6665  -13.8446    0.0000 C   0  0  0  0  0  0  0  0  0  0  0  0
   10.4887  -13.7767    0.0000 C   0  0  0  0  0  0  0  0  0  0  0  0
   11.3137  -13.7767    0.0000 C   0  0  0  0  0  0  0  0  0  0  0  0
   10.9012  -14.4912    0.0000 C   0  0  0  0  0  0  0  0  0  0  0  0
    7.2572  -15.4406    0.0000 C   0  0  0  0  0  0  0  0  0  0  0  0
    8.3144  -11.7738    0.0000 C   0  0  0  0  0  0  0  0  0  0  0  0
  1  2  1  0  0  0  0
  2  3  2  0  0  0  0
  3  4  1  0  0  0  0
  4  5  1  0  0  0  0
  5  6  1  0  0  0  0
  6  7  2  0  0  0  0
  7  8  1  0  0  0  0
  8  9  1  0  0  0  0
  9 10  1  0  0  0  0
 10 11  1  0  0  0  0
  1 11  1  0  0  0  0
  1 10  1  0  0  0  0
 11 12  1  0  0  0  0
 11 13  1  0  0  0  0
  7 14  1  0  0  0  0
  3 15  1  0  0  0  0
M  END
>  <cdx:fragmentId>
53852

$$$$
