15914.cdx
  Mrv1902 05222410242D          

 34 37  0  0  0  0            999 V2000
    4.9538  -11.4187    0.0000 C   0  0  0  0  0  0  0  0  0  0  0  0
    4.2394  -11.8312    0.0000 C   0  0  0  0  0  0  0  0  0  0  0  0
    4.2394  -12.6562    0.0000 C   0  0  1  0  0  0  0  0  0  0  0  0
    4.9538  -13.0687    0.0000 C   0  0  0  0  0  0  0  0  0  0  0  0
    5.6683  -12.6562    0.0000 C   0  0  2  0  0  0  0  0  0  0  0  0
    6.3828  -13.0687    0.0000 C   0  0  0  0  0  0  0  0  0  0  0  0
    7.0972  -12.6562    0.0000 C   0  0  0  0  0  0  0  0  0  0  0  0
    7.0972  -11.8312    0.0000 C   0  0  0  0  0  0  0  0  0  0  0  0
    7.8117  -11.4187    0.0000 C   0  0  2  0  0  0  0  0  0  0  0  0
    8.5963  -11.6737    0.0000 C   0  0  0  0  0  0  0  0  0  0  0  0
    9.0813  -11.0062    0.0000 C   0  0  0  0  0  0  0  0  0  0  0  0
    8.5963  -10.3388    0.0000 C   0  0  1  0  0  0  0  0  0  0  0  0
    7.8117  -10.5937    0.0000 C   0  0  1  0  0  0  0  0  0  0  0  0
    7.0972  -10.1812    0.0000 C   0  0  0  0  0  0  0  0  0  0  0  0
    6.3828  -10.5937    0.0000 C   0  0  0  0  0  0  0  0  0  0  0  0
    6.3828  -11.4187    0.0000 C   0  0  2  0  0  0  0  0  0  0  0  0
    5.6683  -11.8312    0.0000 C   0  0  1  0  0  0  0  0  0  0  0  0
    3.5249  -13.0687    0.0000 O   0  0  0  0  0  0  0  0  0  0  0  0
    7.8117   -9.7687    0.0000 C   0  0  0  0  0  0  0  0  0  0  0  0
    5.6683  -11.0062    0.0000 C   0  0  0  0  0  0  0  0  0  0  0  0
    8.2679   -8.9708    0.0000 C   0  0  0  0  0  0  0  0  0  0  0  0
    8.8513   -9.5542    0.0000 C   0  0  2  0  0  0  0  0  0  0  0  0
    9.6582   -9.3826    0.0000 C   0  0  0  0  0  0  0  0  0  0  0  0
    9.9132   -8.5980    0.0000 C   0  0  0  0  0  0  0  0  0  0  0  0
   10.7202   -8.4265    0.0000 C   0  0  2  0  0  0  0  0  0  0  0  0
   10.9337   -7.6296    0.0000 C   0  0  0  0  0  0  0  0  0  0  0  0
   10.3503   -7.0462    0.0000 C   0  0  0  0  0  0  0  0  0  0  0  0
   11.7306   -7.4161    0.0000 C   0  0  0  0  0  0  0  0  0  0  0  0
   11.3035   -9.0099    0.0000 C   0  0  0  0  0  0  0  0  0  0  0  0
   12.1004   -8.7963    0.0000 C   0  0  0  0  0  0  0  0  0  0  0  0
    5.6683  -13.4812    0.0000 H   0  0  0  0  0  0  0  0  0  0  0  0
    6.3828  -12.2437    0.0000 H   0  0  0  0  0  0  0  0  0  0  0  0
    7.8117  -12.2437    0.0000 H   0  0  0  0  0  0  0  0  0  0  0  0
    9.3810  -10.0839    0.0000 H   0  0  0  0  0  0  0  0  0  0  0  0
  1  2  1  0  0  0  0
  2  3  1  0  0  0  0
  3  4  1  0  0  0  0
  4  5  1  0  0  0  0
  5  6  1  0  0  0  0
  6  7  1  0  0  0  0
  7  8  2  0  0  0  0
  8  9  1  0  0  0  0
  9 10  1  0  0  0  0
 10 11  1  0  0  0  0
 12 11  1  0  0  0  0
 12 13  1  0  0  0  0
  9 13  1  0  0  0  0
 13 14  1  0  0  0  0
 14 15  1  0  0  0  0
 15 16  1  0  0  0  0
  8 16  1  0  0  0  0
 16 17  1  0  0  0  0
  5 17  1  0  0  0  0
  1 17  1  0  0  0  0
  3 18  1  1  0  0  0
 13 19  1  1  0  0  0
 17 20  1  1  0  0  0
 22 21  1  6  0  0  0
 22 23  1  0  0  0  0
 23 24  2  0  0  0  0
 24 25  1  0  0  0  0
 25 26  1  0  0  0  0
 26 27  1  0  0  0  0
 26 28  1  0  0  0  0
 29 30  1  0  0  0  0
 25 29  1  6  0  0  0
 12 22  1  0  0  0  0
  5 31  1  6  0  0  0
 16 32  1  6  0  0  0
  9 33  1  6  0  0  0
 12 34  1  6  0  0  0
M  END
>  <cdx:fragmentId>
49131

$$$$
