159287.cdx
  Mrv1902 05222410202D          

 24 26  0  0  0  0            999 V2000
   15.7830  -13.5541    0.0000 C   0  0  0  0  0  0  0  0  0  0  0  0
   15.7830  -14.3791    0.0000 C   0  0  0  0  0  0  0  0  0  0  0  0
   16.4975  -14.7916    0.0000 O   0  0  0  0  0  0  0  0  0  0  0  0
   15.0686  -14.7916    0.0000 C   0  0  0  0  0  0  0  0  0  0  0  0
   14.3541  -14.3791    0.0000 C   0  0  0  0  0  0  0  0  0  0  0  0
   13.6396  -14.7916    0.0000 C   0  0  0  0  0  0  0  0  0  0  0  0
   13.6396  -15.6166    0.0000 O   0  0  0  0  0  0  0  0  0  0  0  0
   12.9252  -14.3791    0.0000 C   0  0  0  0  0  0  0  0  0  0  0  0
   12.9252  -13.5541    0.0000 C   0  0  0  0  0  0  0  0  0  0  0  0
   12.2107  -13.1416    0.0000 O   0  0  0  0  0  0  0  0  0  0  0  0
   13.6396  -13.1416    0.0000 C   0  0  0  0  0  0  0  0  0  0  0  0
   14.3541  -13.5541    0.0000 C   0  0  0  0  0  0  0  0  0  0  0  0
   15.0686  -13.1416    0.0000 O   0  3  0  0  0  0  0  0  0  0  0  0
   16.4975  -13.1416    0.0000 C   0  0  0  0  0  0  0  0  0  0  0  0
   17.2120  -13.5541    0.0000 C   0  0  0  0  0  0  0  0  0  0  0  0
   17.9265  -13.1416    0.0000 C   0  0  0  0  0  0  0  0  0  0  0  0
   18.6409  -13.5541    0.0000 O   0  0  0  0  0  0  0  0  0  0  0  0
   19.3554  -13.1416    0.0000 C   0  0  0  0  0  0  0  0  0  0  0  0
   17.9265  -12.3166    0.0000 C   0  0  0  0  0  0  0  0  0  0  0  0
   18.6409  -11.9041    0.0000 O   0  0  0  0  0  0  0  0  0  0  0  0
   17.2120  -11.9041    0.0000 C   0  0  0  0  0  0  0  0  0  0  0  0
   17.2120  -11.0791    0.0000 O   0  0  0  0  0  0  0  0  0  0  0  0
   17.9265  -10.6666    0.0000 C   0  0  0  0  0  0  0  0  0  0  0  0
   16.4975  -12.3166    0.0000 C   0  0  0  0  0  0  0  0  0  0  0  0
  1  2  2  0  0  0  0
  2  3  1  0  0  0  0
  2  4  1  0  0  0  0
  4  5  2  0  0  0  0
  5  6  1  0  0  0  0
  6  7  1  0  0  0  0
  6  8  2  0  0  0  0
  8  9  1  0  0  0  0
  9 10  1  0  0  0  0
  9 11  2  0  0  0  0
 11 12  1  0  0  0  0
  5 12  1  0  0  0  0
 12 13  2  0  0  0  0
  1 13  1  0  0  0  0
  1 14  1  0  0  0  0
 14 15  1  0  0  0  0
 15 16  2  0  0  0  0
 16 17  1  0  0  0  0
 17 18  1  0  0  0  0
 16 19  1  0  0  0  0
 19 20  1  0  0  0  0
 19 21  2  0  0  0  0
 21 22  1  0  0  0  0
 22 23  1  0  0  0  0
 21 24  1  0  0  0  0
 14 24  2  0  0  0  0
M  CHG  1  13   1
M  END
>  <cdx:groupId>
4673

>  <cdx:fragmentId>
4602

$$$$
