15934.cdx
  Mrv1902 05222410202D          

 22 24  0  0  0  0            999 V2000
   10.5040   -3.9050    0.0000 O   0  0  0  0  0  0  0  0  0  0  0  0
    9.0751   -3.0800    0.0000 O   0  0  0  0  0  0  0  0  0  0  0  0
    9.0751   -5.5550    0.0000 C   0  0  0  0  0  0  0  0  0  0  0  0
    9.7896   -5.1425    0.0000 C   0  0  0  0  0  0  0  0  0  0  0  0
    9.7896   -4.3175    0.0000 C   0  0  0  0  0  0  0  0  0  0  0  0
    9.0751   -3.9050    0.0000 C   0  0  0  0  0  0  0  0  0  0  0  0
    8.3606   -4.3175    0.0000 C   0  0  0  0  0  0  0  0  0  0  0  0
    8.3606   -5.1425    0.0000 C   0  0  0  0  0  0  0  0  0  0  0  0
    6.9317   -7.6175    0.0000 O   0  0  0  0  0  0  0  0  0  0  0  0
    4.0738   -5.1425    0.0000 O   0  0  0  0  0  0  0  0  0  0  0  0
    4.0738   -7.6175    0.0000 C   0  0  0  0  0  0  0  0  0  0  0  0
    4.0738   -6.7925    0.0000 O   0  0  0  0  0  0  0  0  0  0  0  0
    6.9317   -6.7925    0.0000 C   0  0  0  0  0  0  0  0  0  0  0  0
    7.6462   -6.3800    0.0000 C   0  0  0  0  0  0  0  0  0  0  0  0
    7.6462   -5.5550    0.0000 C   0  0  0  0  0  0  0  0  0  0  0  0
    6.9317   -5.1425    0.0000 O   0  0  0  0  0  0  0  0  0  0  0  0
    5.5027   -6.7925    0.0000 C   0  0  0  0  0  0  0  0  0  0  0  0
    6.2172   -6.3800    0.0000 C   0  0  0  0  0  0  0  0  0  0  0  0
    6.2172   -5.5550    0.0000 C   0  0  0  0  0  0  0  0  0  0  0  0
    5.5027   -5.1425    0.0000 C   0  0  0  0  0  0  0  0  0  0  0  0
    4.7883   -5.5550    0.0000 C   0  0  0  0  0  0  0  0  0  0  0  0
    4.7883   -6.3800    0.0000 C   0  0  0  0  0  0  0  0  0  0  0  0
  5  1  1  0  0  0  0
  6  2  1  0  0  0  0
  3  8  1  0  0  0  0
  4  3  2  0  0  0  0
  5  4  1  0  0  0  0
  6  5  2  0  0  0  0
  7  6  1  0  0  0  0
  8  7  2  0  0  0  0
 15  8  1  0  0  0  0
 13  9  2  0  0  0  0
 21 10  1  0  0  0  0
 12 11  1  0  0  0  0
 22 12  1  0  0  0  0
 13 18  1  0  0  0  0
 14 13  1  0  0  0  0
 15 14  1  0  0  0  0
 16 15  1  0  0  0  0
 19 16  1  0  0  0  0
 17 22  1  0  0  0  0
 18 17  2  0  0  0  0
 19 18  1  0  0  0  0
 20 19  2  0  0  0  0
 21 20  1  0  0  0  0
 22 21  2  0  0  0  0
M  END
>  <cdx:fragmentId>
5

$$$$
