15931.cdx
  Mrv1902 05222410222D          

 30 36  0  0  0  0            999 V2000
    4.4170   -7.9406    0.0000 N   0  0  0  0  0  0  0  0  0  0  0  0
    4.4170   -8.7656    0.0000 C   0  0  0  0  0  0  0  0  0  0  0  0
    5.1315   -9.1781    0.0000 C   0  0  0  0  0  0  0  0  0  0  0  0
    5.8460   -8.7656    0.0000 C   0  0  1  0  0  0  0  0  0  0  0  0
    5.8460   -7.9406    0.0000 C   0  0  1  0  0  0  0  0  0  0  0  0
    5.1315   -7.5281    0.0000 C   0  0  1  0  0  0  0  0  0  0  0  0
    6.4910   -9.2800    0.0000 O   0  0  0  0  0  0  0  0  0  0  0  0
    7.2953   -9.0964    0.0000 C   0  0  0  0  0  0  0  0  0  0  0  0
    7.6533   -8.3531    0.0000 C   0  0  0  0  0  0  0  0  0  0  0  0
    7.2953   -7.6098    0.0000 C   0  0  0  0  0  0  0  0  0  0  0  0
    6.4910   -7.4262    0.0000 C   0  0  2  0  0  0  0  0  0  0  0  0
    3.7026   -7.5281    0.0000 C   0  0  0  0  0  0  0  0  0  0  0  0
    3.7026   -6.7031    0.0000 C   0  0  0  0  0  0  0  0  0  0  0  0
    5.1315   -6.7031    0.0000 C   0  0  2  0  0  0  0  0  0  0  0  0
    2.9881   -6.2906    0.0000 C   0  0  0  0  0  0  0  0  0  0  0  0
    2.2736   -6.7031    0.0000 C   0  0  0  0  0  0  0  0  0  0  0  0
    2.2736   -7.5281    0.0000 C   0  0  0  0  0  0  0  0  0  0  0  0
    2.9881   -7.9406    0.0000 C   0  0  0  0  0  0  0  0  0  0  0  0
    5.8460   -6.2906    0.0000 C   0  0  2  0  0  0  0  0  0  0  0  0
    6.5604   -6.7031    0.0000 C   0  0  0  0  0  0  0  0  0  0  0  0
    5.6744   -5.4837    0.0000 N   0  0  0  0  0  0  0  0  0  0  0  0
    4.8540   -5.3974    0.0000 C   0  0  0  0  0  0  0  0  0  0  0  0
    4.5184   -6.1511    0.0000 C   0  0  0  0  0  0  0  0  0  0  0  0
    6.5604   -8.3531    0.0000 H   0  0  0  0  0  0  0  0  0  0  0  0
    5.8460   -9.5906    0.0000 H   0  0  0  0  0  0  0  0  0  0  0  0
    6.5604   -5.8781    0.0000 H   0  0  0  0  0  0  0  0  0  0  0  0
    7.2055   -7.0137    0.0000 H   0  0  0  0  0  0  0  0  0  0  0  0
    5.1315   -8.3531    0.0000 H   0  0  0  0  0  0  0  0  0  0  0  0
    3.7026   -9.1781    0.0000 O   0  0  0  0  0  0  0  0  0  0  0  0
    7.3657   -6.2262    0.0000 C   0  0  0  0  0  0  0  0  0  0  0  0
  1  2  1  0  0  0  0
  2  3  1  0  0  0  0
  3  4  1  0  0  0  0
  4  5  1  0  0  0  0
  5  6  1  0  0  0  0
  6  1  1  0  0  0  0
  4  7  1  0  0  0  0
  7  8  1  0  0  0  0
  8  9  1  0  0  0  0
  9 10  2  0  0  0  0
 10 11  1  0  0  0  0
 11  5  1  0  0  0  0
  1 12  1  0  0  0  0
 12 13  2  0  0  0  0
  6 14  1  0  0  0  0
 14 13  1  6  0  0  0
 13 15  1  0  0  0  0
 15 16  2  0  0  0  0
 16 17  1  0  0  0  0
 17 18  2  0  0  0  0
 18 12  1  0  0  0  0
 14 19  1  0  0  0  0
 19 20  1  0  0  0  0
 20 11  1  0  0  0  0
 19 21  1  0  0  0  0
 21 22  1  0  0  0  0
 22 23  1  0  0  0  0
 23 14  1  0  0  0  0
  5 24  1  6  0  0  0
  4 25  1  6  0  0  0
 19 26  1  6  0  0  0
 11 27  1  6  0  0  0
  6 28  1  1  0  0  0
  2 29  2  0  0  0  0
 21 30  1  0  0  0  0
 10 30  1  0  0  0  0
M  END
>  <cdx:fragmentId>
5

$$$$
