159490.cdx
  Mrv1902 05222410182D          

 34 38  0  0  0  0            999 V2000
    4.7594   -9.8782    0.0000 C   0  0  0  0  0  0  0  0  0  0  0  0
    4.7594  -10.7032    0.0000 C   0  0  2  0  0  0  0  0  0  0  0  0
    5.4739  -11.1157    0.0000 C   0  0  0  0  0  0  0  0  0  0  0  0
    6.1884  -10.7032    0.0000 C   0  0  1  0  0  0  0  0  0  0  0  0
    6.1884   -9.8782    0.0000 C   0  0  2  0  0  0  0  0  0  0  0  0
    5.4739   -9.4657    0.0000 C   0  0  0  0  0  0  0  0  0  0  0  0
    6.9028  -11.1157    0.0000 C   0  0  0  0  0  0  0  0  0  0  0  0
    7.6173  -10.7032    0.0000 C   0  0  0  0  0  0  0  0  0  0  0  0
    7.6173   -9.8782    0.0000 C   0  0  0  0  0  0  0  0  0  0  0  0
    6.9028   -9.4657    0.0000 C   0  0  0  0  0  0  0  0  0  0  0  0
    8.3318   -9.4657    0.0000 C   0  0  2  0  0  0  0  0  0  0  0  0
    8.3318   -8.6407    0.0000 C   0  0  1  0  0  0  0  0  0  0  0  0
    7.6173   -8.2282    0.0000 C   0  0  0  0  0  0  0  0  0  0  0  0
    6.9028   -8.6407    0.0000 C   0  0  0  0  0  0  0  0  0  0  0  0
    9.0462   -9.8782    0.0000 C   0  0  0  0  0  0  0  0  0  0  0  0
    9.7607   -9.4657    0.0000 C   0  0  0  0  0  0  0  0  0  0  0  0
    9.7607   -8.6407    0.0000 C   0  0  2  0  0  0  0  0  0  0  0  0
    9.0462   -8.2282    0.0000 C   0  0  1  0  0  0  0  0  0  0  0  0
   10.4752   -8.2282    0.0000 C   0  0  0  0  0  0  0  0  0  0  0  0
   10.4752   -7.4032    0.0000 C   0  0  0  0  0  0  0  0  0  0  0  0
    9.7607   -6.9907    0.0000 C   0  0  2  0  0  0  0  0  0  0  0  0
    9.0462   -7.4032    0.0000 C   0  0  0  0  0  0  0  0  0  0  0  0
   10.1732   -6.2762    0.0000 C   0  0  0  0  0  0  0  0  0  0  0  0
    5.8864  -11.8301    0.0000 C   0  0  0  0  0  0  0  0  0  0  0  0
    5.0614  -11.8301    0.0000 C   0  0  0  0  0  0  0  0  0  0  0  0
    6.1884   -9.0532    0.0000 C   0  0  0  0  0  0  0  0  0  0  0  0
    8.3318  -10.2907    0.0000 C   0  0  0  0  0  0  0  0  0  0  0  0
    9.0462   -9.0532    0.0000 H   0  0  0  0  0  0  0  0  0  0  0  0
    9.7607   -7.8157    0.0000 C   0  0  0  0  0  0  0  0  0  0  0  0
    9.3482   -6.2762    0.0000 C   0  0  0  0  0  0  0  0  0  0  0  0
    8.3318   -7.8157    0.0000 C   0  0  0  0  0  0  0  0  0  0  0  0
    6.1884  -11.5282    0.0000 H   0  0  0  0  0  0  0  0  0  0  0  0
    4.0450  -11.1157    0.0000 O   0  0  0  0  0  0  0  0  0  0  0  0
    9.7607   -5.5617    0.0000 O   0  0  0  0  0  0  0  0  0  0  0  0
  1  2  1  0  0  0  0
  2  3  1  0  0  0  0
  3  4  1  0  0  0  0
  4  5  1  0  0  0  0
  5  6  1  0  0  0  0
  6  1  1  0  0  0  0
  4  7  1  0  0  0  0
  7  8  1  0  0  0  0
  8  9  2  0  0  0  0
  9 10  1  0  0  0  0
 10  5  1  0  0  0  0
  9 11  1  0  0  0  0
 11 12  1  0  0  0  0
 12 13  1  0  0  0  0
 13 14  1  0  0  0  0
 14 10  2  0  0  0  0
 11 15  1  0  0  0  0
 15 16  1  0  0  0  0
 16 17  1  0  0  0  0
 17 18  1  0  0  0  0
 18 12  1  0  0  0  0
 17 19  1  0  0  0  0
 19 20  1  0  0  0  0
 20 21  1  0  0  0  0
 21 22  1  0  0  0  0
 22 18  1  0  0  0  0
 21 23  1  0  0  0  0
  3 24  1  0  0  0  0
  3 25  1  0  0  0  0
  5 26  1  1  0  0  0
 11 27  1  1  0  0  0
 18 28  1  1  0  0  0
 17 29  1  1  0  0  0
 21 30  1  1  0  0  0
 12 31  1  6  0  0  0
  4 32  1  6  0  0  0
  2 33  1  6  0  0  0
 23 34  1  0  0  0  0
M  END
>  <cdx:fragmentId>
4767

$$$$
