15943.cdx
  Mrv1902 05222410182D          

 25 27  0  0  0  0            999 V2000
   10.2418   -6.8854    0.0000 C   0  0  0  0  0  0  0  0  0  0  0  0
   10.7616   -6.2447    0.0000 C   0  0  0  0  0  0  0  0  0  0  0  0
   10.5368   -7.6558    0.0000 O   0  0  0  0  0  0  0  0  0  0  0  0
    9.4271   -6.7556    0.0000 O   0  0  0  0  0  0  0  0  0  0  0  0
    7.4553   -7.7149    0.0000 C   0  0  1  0  0  0  0  0  0  0  0  0
    6.6728   -7.4534    0.0000 C   0  0  0  0  0  0  0  0  0  0  0  0
    6.1823   -8.1168    0.0000 C   0  0  1  0  0  0  0  0  0  0  0  0
    6.6616   -8.7882    0.0000 C   0  0  0  0  0  0  0  0  0  0  0  0
    7.4484   -8.5399    0.0000 C   0  0  0  0  0  0  0  0  0  0  0  0
    8.0890   -9.0596    0.0000 C   0  0  2  0  0  0  0  0  0  0  0  0
    8.8949   -8.8828    0.0000 C   0  0  1  0  0  0  0  0  0  0  0  0
    9.2590   -8.1425    0.0000 C   0  0  0  0  0  0  0  0  0  0  0  0
    8.9073   -7.3963    0.0000 C   0  0  1  0  0  0  0  0  0  0  0  0
    8.1046   -7.2059    0.0000 C   0  0  1  0  0  0  0  0  0  0  0  0
    8.5126   -7.8843    0.0000 C   0  0  0  0  0  0  0  0  0  0  0  0
    8.6428   -7.0696    0.0000 C   0  0  0  0  0  0  0  0  0  0  0  0
    9.2832   -7.5896    0.0000 C   0  0  0  0  0  0  0  0  0  0  0  0
    7.9277   -6.4001    0.0000 C   0  0  0  0  0  0  0  0  0  0  0  0
    6.4001   -9.5707    0.0000 C   0  0  0  0  0  0  0  0  0  0  0  0
    7.8987   -9.8624    0.0000 O   0  0  0  0  0  0  0  0  0  0  0  0
    5.3573   -8.1098    0.0000 O   0  0  0  0  0  0  0  0  0  0  0  0
    4.9389   -8.8208    0.0000 C   0  0  0  0  0  0  0  0  0  0  0  0
    5.3454   -9.5387    0.0000 O   0  0  0  0  0  0  0  0  0  0  0  0
    4.1139   -8.8139    0.0000 C   0  0  0  0  0  0  0  0  0  0  0  0
    9.4038   -9.5321    0.0000 H   0  0  0  0  0  0  0  0  0  0  0  0
  1  2  1  0  0  0  0
  1  3  2  0  0  0  0
  1  4  1  0  0  0  0
  5  6  1  1  0  0  0
  6  7  1  0  0  0  0
  7  8  1  0  0  0  0
  8  9  2  0  0  0  0
  9 10  1  0  0  0  0
 10 11  1  0  0  0  0
 11 12  1  0  0  0  0
 12 13  1  0  0  0  0
 13 14  1  0  0  0  0
  5 14  1  0  0  0  0
  5 15  1  0  0  0  0
 11 15  1  0  0  0  0
  5  9  1  0  0  0  0
 15 16  1  0  0  0  0
 15 17  1  0  0  0  0
 14 18  1  6  0  0  0
  8 19  1  0  0  0  0
 10 20  1  6  0  0  0
 22 23  2  0  0  0  0
 22 24  1  0  0  0  0
 21 22  1  0  0  0  0
  7 21  1  1  0  0  0
 13  4  1  1  0  0  0
 11 25  1  1  0  0  0
M  END
>  <cdx:fragmentId>
894

$$$$
