15956.cdx
  Mrv1902 05222410182D          

 26 28  0  0  0  0            999 V2000
    6.6445   -6.8269    0.0000 C   0  0  0  0  0  0  0  0  0  0  0  0
    6.6445   -7.6519    0.0000 O   0  0  0  0  0  0  0  0  0  0  0  0
    7.3590   -8.0644    0.0000 C   0  0  2  0  0  0  0  0  0  0  0  0
    8.0735   -7.6519    0.0000 C   0  0  1  0  0  0  0  0  0  0  0  0
    8.0735   -6.8269    0.0000 C   0  0  1  0  0  0  0  0  0  0  0  0
    7.3590   -6.4144    0.0000 C   0  0  0  0  0  0  0  0  0  0  0  0
    8.7879   -6.4144    0.0000 C   0  0  0  0  0  0  0  0  0  0  0  0
    8.7879   -5.5894    0.0000 C   0  0  0  0  0  0  0  0  0  0  0  0
    8.0735   -5.1769    0.0000 O   0  0  0  0  0  0  0  0  0  0  0  0
    7.3590   -5.5894    0.0000 C   0  0  0  0  0  0  0  0  0  0  0  0
    5.9301   -8.8894    0.0000 O   0  0  0  0  0  0  0  0  0  0  0  0
    6.6445   -9.3019    0.0000 C   0  0  1  0  0  0  0  0  0  0  0  0
    7.3590   -8.8894    0.0000 O   0  0  0  0  0  0  0  0  0  0  0  0
    5.2156   -9.3019    0.0000 C   0  0  1  0  0  0  0  0  0  0  0  0
    5.2156  -10.1269    0.0000 C   0  0  2  0  0  0  0  0  0  0  0  0
    5.9301  -10.5394    0.0000 C   0  0  1  0  0  0  0  0  0  0  0  0
    6.6445  -10.1269    0.0000 C   0  0  1  0  0  0  0  0  0  0  0  0
    6.6445   -5.1769    0.0000 O   0  0  0  0  0  0  0  0  0  0  0  0
    8.7879   -8.0644    0.0000 C   0  0  0  0  0  0  0  0  0  0  0  0
    8.7879   -8.8894    0.0000 C   0  0  0  0  0  0  0  0  0  0  0  0
    4.5011   -8.8894    0.0000 C   0  0  0  0  0  0  0  0  0  0  0  0
    3.7866   -9.3019    0.0000 O   0  0  0  0  0  0  0  0  0  0  0  0
    5.9301  -11.3644    0.0000 O   0  0  0  0  0  0  0  0  0  0  0  0
    4.5011  -10.5394    0.0000 O   0  0  0  0  0  0  0  0  0  0  0  0
    7.3590  -10.5394    0.0000 O   0  0  0  0  0  0  0  0  0  0  0  0
    8.7879   -7.2394    0.0000 O   0  0  0  0  0  0  0  0  0  0  0  0
  1  2  1  0  0  0  0
  2  3  1  0  0  0  0
  3  4  1  0  0  0  0
  4  5  1  0  0  0  0
  5  6  1  0  0  0  0
  6  1  2  0  0  0  0
  5  7  1  0  0  0  0
  7  8  1  0  0  0  0
  8  9  1  0  0  0  0
  9 10  1  0  0  0  0
 10  6  1  0  0  0  0
 11 12  1  0  0  0  0
 12 13  1  1  0  0  0
  3 13  1  6  0  0  0
 11 14  1  0  0  0  0
 14 15  1  0  0  0  0
 15 16  1  0  0  0  0
 16 17  1  0  0  0  0
 17 12  1  0  0  0  0
 10 18  2  0  0  0  0
  4 19  1  1  0  0  0
 19 20  2  0  0  0  0
 14 21  1  1  0  0  0
 21 22  1  0  0  0  0
 16 23  1  1  0  0  0
 15 24  1  6  0  0  0
 17 25  1  6  0  0  0
  5 26  1  6  0  0  0
M  END
>  <cdx:fragmentId>
5

$$$$
