15952.cdx
  Mrv1902 05222410202D          

 47 51  0  0  0  0            999 V2000
    1.8830  -10.0469    0.0000 C   0  0  0  0  0  0  0  0  0  0  0  0
    2.5969  -10.4603    0.0000 C   0  0  0  0  0  0  0  0  0  0  0  0
    3.3119  -10.0488    0.0000 C   0  0  0  0  0  0  0  0  0  0  0  0
    3.3130   -9.2238    0.0000 C   0  0  0  0  0  0  0  0  0  0  0  0
    2.5991   -8.8103    0.0000 C   0  0  0  0  0  0  0  0  0  0  0  0
    1.8841   -9.2219    0.0000 C   0  0  0  0  0  0  0  0  0  0  0  0
    1.1680  -10.4585    0.0000 O   0  0  0  0  0  0  0  0  0  0  0  0
    1.1701   -8.8085    0.0000 O   0  0  0  0  0  0  0  0  0  0  0  0
    4.0280   -8.8122    0.0000 C   0  0  0  0  0  0  0  0  0  0  0  0
    4.7419   -9.2256    0.0000 C   0  0  0  0  0  0  0  0  0  0  0  0
    5.4569   -8.8140    0.0000 C   0  0  0  0  0  0  0  0  0  0  0  0
    6.1709   -9.2275    0.0000 O   0  0  0  0  0  0  0  0  0  0  0  0
    5.4580   -7.9890    0.0000 O   0  0  0  0  0  0  0  0  0  0  0  0
    6.8859   -8.8159    0.0000 C   0  0  1  0  0  0  0  0  0  0  0  0
    7.5998   -9.2293    0.0000 C   0  0  1  0  0  0  0  0  0  0  0  0
    8.3148   -8.8178    0.0000 C   0  0  2  0  0  0  0  0  0  0  0  0
    8.3159   -7.9928    0.0000 C   0  0  1  0  0  0  0  0  0  0  0  0
    7.6020   -7.5793    0.0000 O   0  0  0  0  0  0  0  0  0  0  0  0
    6.8870   -7.9909    0.0000 C   0  0  2  0  0  0  0  0  0  0  0  0
    9.0288   -9.2312    0.0000 O   0  0  0  0  0  0  0  0  0  0  0  0
    9.7438   -8.8196    0.0000 C   0  0  0  0  0  0  0  0  0  0  0  0
    9.7448   -7.9946    0.0000 C   0  0  0  0  0  0  0  0  0  0  0  0
    9.0309   -7.5812    0.0000 O   0  0  0  0  0  0  0  0  0  0  0  0
   10.4577   -9.2330    0.0000 C   0  0  0  0  0  0  0  0  0  0  0  0
   10.4561  -10.0580    0.0000 C   0  0  0  0  0  0  0  0  0  0  0  0
   11.1698  -10.4719    0.0000 C   0  0  0  0  0  0  0  0  0  0  0  0
   11.8850  -10.0580    0.0000 C   0  0  0  0  0  0  0  0  0  0  0  0
   11.8850   -9.2330    0.0000 C   0  0  0  0  0  0  0  0  0  0  0  0
   11.1698   -8.8191    0.0000 C   0  0  0  0  0  0  0  0  0  0  0  0
   12.5997  -10.4702    0.0000 O   0  0  0  0  0  0  0  0  0  0  0  0
   12.5997   -8.8209    0.0000 O   0  0  0  0  0  0  0  0  0  0  0  0
    7.5987  -10.0543    0.0000 O   0  0  0  0  0  0  0  0  0  0  0  0
    6.1730   -7.5775    0.0000 C   0  0  0  0  0  0  0  0  0  0  0  0
    6.1730   -6.7525    0.0000 O   0  0  0  0  0  0  0  0  0  0  0  0
    8.3170   -7.1678    0.0000 H   0  0  0  0  0  0  0  0  0  0  0  0
    8.3138   -9.6428    0.0000 H   0  0  0  0  0  0  0  0  0  0  0  0
    5.4585   -6.3400    0.0000 C   0  0  0  0  0  0  0  0  0  0  0  0
    5.4585   -5.5150    0.0000 O   0  0  0  0  0  0  0  0  0  0  0  0
    4.7441   -6.7525    0.0000 C   0  0  0  0  0  0  0  0  0  0  0  0
    4.0296   -6.3400    0.0000 C   0  0  0  0  0  0  0  0  0  0  0  0
    3.3151   -6.7525    0.0000 C   0  0  0  0  0  0  0  0  0  0  0  0
    2.6007   -6.3400    0.0000 C   0  0  0  0  0  0  0  0  0  0  0  0
    1.8862   -6.7525    0.0000 C   0  0  0  0  0  0  0  0  0  0  0  0
    1.8862   -7.5775    0.0000 C   0  0  0  0  0  0  0  0  0  0  0  0
    2.6007   -7.9900    0.0000 C   0  0  0  0  0  0  0  0  0  0  0  0
    3.3151   -7.5775    0.0000 C   0  0  0  0  0  0  0  0  0  0  0  0
    1.1717   -7.9900    0.0000 O   0  0  0  0  0  0  0  0  0  0  0  0
  1  2  2  0  0  0  0
  2  3  1  0  0  0  0
  3  4  2  0  0  0  0
  4  5  1  0  0  0  0
  5  6  2  0  0  0  0
  6  1  1  0  0  0  0
  1  7  1  0  0  0  0
  6  8  1  0  0  0  0
  4  9  1  0  0  0  0
  9 10  2  0  0  0  0
 10 11  1  0  0  0  0
 11 12  1  0  0  0  0
 11 13  2  0  0  0  0
 14 12  1  6  0  0  0
 14 15  1  0  0  0  0
 15 16  1  0  0  0  0
 16 17  1  0  0  0  0
 17 18  1  0  0  0  0
 18 19  1  0  0  0  0
 19 14  1  0  0  0  0
 16 20  1  0  0  0  0
 20 21  1  0  0  0  0
 21 22  1  0  0  0  0
 22 23  1  0  0  0  0
 23 17  1  0  0  0  0
 21 24  1  0  0  0  0
 24 25  2  0  0  0  0
 25 26  1  0  0  0  0
 26 27  2  0  0  0  0
 27 28  1  0  0  0  0
 28 29  2  0  0  0  0
 29 24  1  0  0  0  0
 27 30  1  0  0  0  0
 28 31  1  0  0  0  0
 15 32  1  1  0  0  0
 19 33  1  1  0  0  0
 33 34  1  0  0  0  0
 17 35  1  6  0  0  0
 16 36  1  1  0  0  0
 34 37  1  0  0  0  0
 37 38  2  0  0  0  0
 37 39  1  0  0  0  0
 39 40  2  0  0  0  0
 40 41  1  0  0  0  0
 41 42  2  0  0  0  0
 42 43  1  0  0  0  0
 43 44  2  0  0  0  0
 44 45  1  0  0  0  0
 45 46  2  0  0  0  0
 46 41  1  0  0  0  0
 44 47  1  0  0  0  0
M  END
>  <cdx:fragmentId>
216

$$$$
