159650.cdx
  Mrv1902 05222410182D          

 17 19  0  0  0  0            999 V2000
    6.2321   -8.4067    0.0000 N   0  0  0  0  0  0  0  0  0  0  0  0
    5.5188   -7.9922    0.0000 C   0  0  0  0  0  0  0  0  0  0  0  0
    5.5210   -7.1672    0.0000 C   0  0  0  0  0  0  0  0  0  0  0  0
    6.2365   -6.7566    0.0000 C   0  0  0  0  0  0  0  0  0  0  0  0
    6.9499   -7.1711    0.0000 C   0  0  0  0  0  0  0  0  0  0  0  0
    7.6655   -6.7605    0.0000 C   0  0  0  0  0  0  0  0  0  0  0  0
    8.3789   -7.1749    0.0000 C   0  0  0  0  0  0  0  0  0  0  0  0
    8.3767   -7.9999    0.0000 C   0  0  0  0  0  0  0  0  0  0  0  0
    7.6611   -8.4105    0.0000 C   0  0  0  0  0  0  0  0  0  0  0  0
    6.9477   -7.9961    0.0000 C   0  0  0  0  0  0  0  0  0  0  0  0
    4.7335   -8.2451    0.0000 O   0  0  0  0  0  0  0  0  0  0  0  0
    4.7370   -6.9102    0.0000 C   0  0  0  0  0  0  0  0  0  0  0  0
    4.2503   -7.5764    0.0000 C   0  0  0  0  0  0  0  0  0  0  0  0
    6.2387   -5.9316    0.0000 O   0  0  0  0  0  0  0  0  0  0  0  0
    9.0944   -6.7643    0.0000 O   0  0  0  0  0  0  0  0  0  0  0  0
    5.5254   -5.5172    0.0000 C   0  0  0  0  0  0  0  0  0  0  0  0
    9.8078   -7.1787    0.0000 C   0  0  0  0  0  0  0  0  0  0  0  0
  1  2  2  0  0  0  0
  2  3  1  0  0  0  0
  3  4  2  0  0  0  0
  4  5  1  0  0  0  0
  5  6  2  0  0  0  0
  6  7  1  0  0  0  0
  7  8  2  0  0  0  0
  8  9  1  0  0  0  0
  9 10  2  0  0  0  0
  1 10  1  0  0  0  0
  5 10  1  0  0  0  0
 12 13  2  0  0  0  0
 11 13  1  0  0  0  0
 11  2  1  0  0  0  0
 12  3  1  0  0  0  0
  4 14  1  0  0  0  0
  7 15  1  0  0  0  0
 14 16  1  0  0  0  0
 15 17  1  0  0  0  0
M  END
>  <cdx:fragmentId>
4831

$$$$
