15966.cdx
  Mrv1902 05222410282D          

 15 15  0  0  0  0            999 V2000
    6.0395   -6.7031    0.0000 C   0  0  0  0  0  0  0  0  0  0  0  0
    6.0395   -7.5281    0.0000 C   0  0  0  0  0  0  0  0  0  0  0  0
    6.7540   -7.9406    0.0000 C   0  0  0  0  0  0  0  0  0  0  0  0
    7.4685   -7.5281    0.0000 C   0  0  0  0  0  0  0  0  0  0  0  0
    7.4685   -6.7031    0.0000 C   0  0  0  0  0  0  0  0  0  0  0  0
    6.7540   -6.2906    0.0000 C   0  0  0  0  0  0  0  0  0  0  0  0
    7.4685   -5.0531    0.0000 C   0  0  0  0  0  0  0  0  0  0  0  0
    6.7540   -5.4656    0.0000 C   0  0  0  0  0  0  0  0  0  0  0  0
    8.1829   -3.8156    0.0000 O   0  0  0  0  0  0  0  0  0  0  0  0
    7.4685   -4.2281    0.0000 C   0  0  0  0  0  0  0  0  0  0  0  0
    8.1829   -7.9406    0.0000 O   0  0  0  0  0  0  0  0  0  0  0  0
    8.8974   -7.5281    0.0000 C   0  0  0  0  0  0  0  0  0  0  0  0
    4.6106   -7.5281    0.0000 C   0  0  0  0  0  0  0  0  0  0  0  0
    5.3251   -7.9406    0.0000 O   0  0  0  0  0  0  0  0  0  0  0  0
    6.7540   -8.7656    0.0000 O   0  0  0  0  0  0  0  0  0  0  0  0
  1  2  2  0  0  0  0
  2  3  1  0  0  0  0
  3  4  2  0  0  0  0
  4  5  1  0  0  0  0
  5  6  2  0  0  0  0
  6  1  1  0  0  0  0
  7  8  2  0  0  0  0
  8  6  1  0  0  0  0
  9 10  1  0  0  0  0
 10  7  1  0  0  0  0
  4 11  1  0  0  0  0
 11 12  1  0  0  0  0
 13 14  1  0  0  0  0
 14  2  1  0  0  0  0
 15  3  1  0  0  0  0
M  END
>  <cdx:fragmentId>
5

$$$$
