15961.cdx
  Mrv1902 05222410262D          

 31 34  0  0  0  0            999 V2000
    3.2827   -9.4050    0.0000 C   0  0  2  0  0  0  0  0  0  0  0  0
    3.2827  -10.2300    0.0000 C   0  0  2  0  0  0  0  0  0  0  0  0
    3.9971  -10.6425    0.0000 C   0  0  1  0  0  0  0  0  0  0  0  0
    4.7116  -10.2300    0.0000 C   0  0  2  0  0  0  0  0  0  0  0  0
    4.7116   -9.4050    0.0000 C   0  0  1  0  0  0  0  0  0  0  0  0
    3.9971   -8.9925    0.0000 O   0  0  0  0  0  0  0  0  0  0  0  0
    5.4261   -8.9925    0.0000 O   0  0  0  0  0  0  0  0  0  0  0  0
    5.4261   -8.1675    0.0000 C   0  0  0  0  0  0  0  0  0  0  0  0
    4.7116   -7.7550    0.0000 C   0  0  0  0  0  0  0  0  0  0  0  0
    6.1405   -7.7550    0.0000 C   0  0  0  0  0  0  0  0  0  0  0  0
    6.1405   -6.9300    0.0000 C   0  0  0  0  0  0  0  0  0  0  0  0
    5.4261   -6.5175    0.0000 C   0  0  0  0  0  0  0  0  0  0  0  0
    4.7116   -6.9300    0.0000 C   0  0  0  0  0  0  0  0  0  0  0  0
    6.8550   -8.1675    0.0000 C   0  0  0  0  0  0  0  0  0  0  0  0
    7.5695   -7.7550    0.0000 C   0  0  0  0  0  0  0  0  0  0  0  0
    7.5695   -6.9300    0.0000 C   0  0  0  0  0  0  0  0  0  0  0  0
    6.8550   -6.5175    0.0000 O   0  0  0  0  0  0  0  0  0  0  0  0
    8.2840   -8.1675    0.0000 C   0  0  0  0  0  0  0  0  0  0  0  0
    8.9984   -7.7550    0.0000 C   0  0  0  0  0  0  0  0  0  0  0  0
    8.9984   -6.9300    0.0000 C   0  0  0  0  0  0  0  0  0  0  0  0
    8.2840   -6.5175    0.0000 C   0  0  0  0  0  0  0  0  0  0  0  0
    2.5682   -8.9925    0.0000 C   0  0  0  0  0  0  0  0  0  0  0  0
    1.8537   -9.4050    0.0000 O   0  0  0  0  0  0  0  0  0  0  0  0
    5.4261   -5.6925    0.0000 O   0  0  0  0  0  0  0  0  0  0  0  0
    6.8550   -8.9925    0.0000 O   0  0  0  0  0  0  0  0  0  0  0  0
    8.2840   -8.9925    0.0000 O   0  0  0  0  0  0  0  0  0  0  0  0
    9.7129   -6.5175    0.0000 O   0  0  0  0  0  0  0  0  0  0  0  0
   10.4274   -6.9300    0.0000 C   0  0  0  0  0  0  0  0  0  0  0  0
    3.9971  -11.4675    0.0000 O   0  0  0  0  0  0  0  0  0  0  0  0
    2.5682  -10.6425    0.0000 O   0  0  0  0  0  0  0  0  0  0  0  0
    5.4261  -10.6425    0.0000 O   0  0  0  0  0  0  0  0  0  0  0  0
  1  2  1  0  0  0  0
  2  3  1  0  0  0  0
  3  4  1  0  0  0  0
  4  5  1  0  0  0  0
  5  6  1  0  0  0  0
  6  1  1  0  0  0  0
  5  7  1  1  0  0  0
  7  8  1  0  0  0  0
  8  9  1  0  0  0  0
  8 10  2  0  0  0  0
 10 11  1  0  0  0  0
 11 12  2  0  0  0  0
 12 13  1  0  0  0  0
 13  9  2  0  0  0  0
 10 14  1  0  0  0  0
 14 15  1  0  0  0  0
 15 16  1  0  0  0  0
 16 17  1  0  0  0  0
 17 11  1  0  0  0  0
 15 18  2  0  0  0  0
 18 19  1  0  0  0  0
 19 20  2  0  0  0  0
 20 21  1  0  0  0  0
 21 16  2  0  0  0  0
  1 22  1  1  0  0  0
 22 23  1  0  0  0  0
 12 24  1  0  0  0  0
 14 25  2  0  0  0  0
 18 26  1  0  0  0  0
 20 27  1  0  0  0  0
 27 28  1  0  0  0  0
  3 29  1  1  0  0  0
  2 30  1  6  0  0  0
  4 31  1  6  0  0  0
M  END
>  <cdx:fragmentId>
5

$$$$
