1597.cdx
  Mrv1902 05222410222D          

 10  9  0  0  0  0            999 V2000
    9.3004   -8.5181    0.0000 C   0  0  0  0  0  0  0  0  0  0  0  0
    8.5859   -8.9306    0.0000 C   0  0  0  0  0  0  0  0  0  0  0  0
    7.8715   -8.5181    0.0000 C   0  0  0  0  0  0  0  0  0  0  0  0
    7.1570   -8.9306    0.0000 C   0  0  0  0  0  0  0  0  0  0  0  0
    6.4425   -8.5181    0.0000 C   0  0  0  0  0  0  0  0  0  0  0  0
    5.7280   -8.9306    0.0000 C   0  0  0  0  0  0  0  0  0  0  0  0
    5.0136   -8.5181    0.0000 C   0  0  0  0  0  0  0  0  0  0  0  0
    4.2991   -8.9306    0.0000 C   0  0  0  0  0  0  0  0  0  0  0  0
    3.5846   -8.5181    0.0000 C   0  0  0  0  0  0  0  0  0  0  0  0
    4.2991   -9.7556    0.0000 O   0  0  0  0  0  0  0  0  0  0  0  0
  1  2  1  0  0  0  0
  2  3  1  0  0  0  0
  3  4  1  0  0  0  0
  4  5  1  0  0  0  0
  5  6  1  0  0  0  0
  6  7  2  0  0  0  0
  7  8  1  0  0  0  0
  8  9  1  0  0  0  0
  8 10  2  0  0  0  0
M  END
>  <cdx:fragmentId>
3

$$$$
