1598.cdx
  Mrv1902 05222410232D          

 14 13  0  0  0  0            999 V2000
   10.0948   -6.9188    0.0000 C   0  0  0  0  0  0  0  0  0  0  0  0
    9.3803   -6.5063    0.0000 C   0  0  0  0  0  0  0  0  0  0  0  0
    8.6658   -6.9188    0.0000 C   0  0  0  0  0  0  0  0  0  0  0  0
    7.9514   -6.5063    0.0000 C   0  0  0  0  0  0  0  0  0  0  0  0
    7.2369   -6.9188    0.0000 C   0  0  0  0  0  0  0  0  0  0  0  0
    6.5224   -6.5063    0.0000 C   0  0  0  0  0  0  0  0  0  0  0  0
    5.8080   -6.9188    0.0000 C   0  0  0  0  0  0  0  0  0  0  0  0
    5.0935   -6.5063    0.0000 C   0  0  0  0  0  0  0  0  0  0  0  0
    5.0935   -5.6813    0.0000 C   0  0  0  0  0  0  0  0  0  0  0  0
    9.3803   -5.6813    0.0000 O   0  0  0  0  0  0  0  0  0  0  0  0
    4.3790   -6.9188    0.0000 C   0  0  0  0  0  0  0  0  0  0  0  0
    5.8080   -7.7438    0.0000 C   0  0  0  0  0  0  0  0  0  0  0  0
    5.0935   -8.1563    0.0000 C   0  0  0  0  0  0  0  0  0  0  0  0
    6.5224   -8.1563    0.0000 C   0  0  0  0  0  0  0  0  0  0  0  0
  1  2  1  0  0  0  0
  2  3  1  0  0  0  0
  3  4  2  0  0  0  0
  4  5  1  0  0  0  0
  5  6  2  0  0  0  0
  6  7  1  0  0  0  0
  7  8  2  0  0  0  0
  8  9  1  0  0  0  0
  2 10  2  0  0  0  0
  8 11  1  0  0  0  0
 12 13  1  0  0  0  0
 12 14  1  0  0  0  0
  7 12  1  0  0  0  0
M  END
>  <cdx:fragmentId>
5

$$$$
