159846.cdx
  Mrv1902 05222410282D          

 16 17  0  0  0  0            999 V2000
    7.3442  -11.9808    0.0000 C   0  0  0  0  0  0  0  0  0  0  0  0
    6.6288  -11.5698    0.0000 C   0  0  0  0  0  0  0  0  0  0  0  0
    6.6271  -10.7448    0.0000 C   0  0  0  0  0  0  0  0  0  0  0  0
    7.3407  -10.3308    0.0000 C   0  0  0  0  0  0  0  0  0  0  0  0
    8.0560  -10.7417    0.0000 C   0  0  0  0  0  0  0  0  0  0  0  0
    8.0578  -11.5668    0.0000 O   0  0  0  0  0  0  0  0  0  0  0  0
    7.3389   -9.5058    0.0000 C   0  0  0  0  0  0  0  0  0  0  0  0
    9.4815   -9.0888    0.0000 C   0  0  0  0  0  0  0  0  0  0  0  0
    5.8419  -10.4915    0.0000 C   0  0  0  0  0  0  0  0  0  0  0  0
    5.3584  -11.1600    0.0000 C   0  0  0  0  0  0  0  0  0  0  0  0
    5.8448  -11.8264    0.0000 C   0  0  0  0  0  0  0  0  0  0  0  0
    5.5915  -12.6115    0.0000 C   0  0  0  0  0  0  0  0  0  0  0  0
    4.7849  -12.7848    0.0000 O   0  0  0  0  0  0  0  0  0  0  0  0
    8.7696  -10.3278    0.0000 O   0  0  0  0  0  0  0  0  0  0  0  0
    8.7679   -9.5028    0.0000 C   0  0  0  0  0  0  0  0  0  0  0  0
    8.0525   -9.0918    0.0000 O   0  0  0  0  0  0  0  0  0  0  0  0
 15  8  1  0  0  0  0
 15 14  2  0  0  0  0
 16 15  1  0  0  0  0
  1  2  2  0  0  0  0
  2  3  1  0  0  0  0
  3  4  1  0  0  0  0
  4  5  2  0  0  0  0
  5  6  1  0  0  0  0
  1  6  1  0  0  0  0
  4  7  1  0  0  0  0
  7 16  1  0  0  0  0
  3  9  2  0  0  0  0
  9 10  1  0  0  0  0
 10 11  2  0  0  0  0
  2 11  1  0  0  0  0
 11 12  1  0  0  0  0
 12 13  2  0  0  0  0
M  END
>  <cdx:fragmentId>
4874

$$$$
