15980.cdx
  Mrv1902 05222410182D          

 54 59  0  0  0  0            999 V2000
   10.0537   -4.6034    0.0000 O   0  0  0  0  0  0  0  0  0  0  0  0
    9.5017   -3.9903    0.0000 C   0  0  2  0  0  0  0  0  0  0  0  0
    9.7566   -3.2057    0.0000 C   0  0  1  0  0  0  0  0  0  0  0  0
   10.5636   -3.0342    0.0000 C   0  0  2  0  0  0  0  0  0  0  0  0
   11.1156   -3.6473    0.0000 C   0  0  1  0  0  0  0  0  0  0  0  0
   10.8607   -4.4319    0.0000 C   0  0  1  0  0  0  0  0  0  0  0  0
    9.2046   -2.5926    0.0000 O   0  0  0  0  0  0  0  0  0  0  0  0
   10.8185   -2.2496    0.0000 O   0  0  0  0  0  0  0  0  0  0  0  0
   11.9226   -3.4758    0.0000 O   0  0  0  0  0  0  0  0  0  0  0  0
   11.4127   -5.0450    0.0000 C   0  0  0  0  0  0  0  0  0  0  0  0
   12.2197   -4.8735    0.0000 O   0  0  0  0  0  0  0  0  0  0  0  0
    8.6947   -4.1619    0.0000 O   0  0  0  0  0  0  0  0  0  0  0  0
    8.4398   -4.9465    0.0000 C   0  0  0  0  0  0  0  0  0  0  0  0
    8.9918   -5.5596    0.0000 C   0  0  0  0  0  0  0  0  0  0  0  0
    8.7369   -6.3442    0.0000 C   0  0  0  0  0  0  0  0  0  0  0  0
    7.9299   -6.5157    0.0000 C   0  0  0  0  0  0  0  0  0  0  0  0
    7.3779   -5.9026    0.0000 C   0  0  0  0  0  0  0  0  0  0  0  0
    7.6328   -5.1180    0.0000 C   0  0  0  0  0  0  0  0  0  0  0  0
    7.0808   -4.5049    0.0000 O   0  0  0  0  0  0  0  0  0  0  0  0
    6.2738   -4.6764    0.0000 C   0  0  0  0  0  0  0  0  0  0  0  0
    9.7988   -5.3881    0.0000 O   0  0  0  0  0  0  0  0  0  0  0  0
   10.3508   -6.0011    0.0000 C   0  0  0  0  0  0  0  0  0  0  0  0
    8.1599   -7.9678    0.0000 O   0  0  0  0  0  0  0  0  0  0  0  0
    7.6750   -8.6352    0.0000 C   0  0  0  0  0  0  0  0  0  0  0  0
    6.8903   -8.3803    0.0000 C   0  0  2  0  0  0  0  0  0  0  0  0
    6.8903   -7.5553    0.0000 C   0  0  2  0  0  0  0  0  0  0  0  0
    7.6750   -7.3004    0.0000 C   0  0  2  0  0  0  0  0  0  0  0  0
    5.6208   -7.9678    0.0000 O   0  0  0  0  0  0  0  0  0  0  0  0
    6.1057   -8.6352    0.0000 C   0  0  1  0  0  0  0  0  0  0  0  0
    6.1057   -7.3004    0.0000 C   0  0  0  0  0  0  0  0  0  0  0  0
    5.8508   -9.4199    0.0000 C   0  0  0  0  0  0  0  0  0  0  0  0
    6.4028  -10.0329    0.0000 C   0  0  0  0  0  0  0  0  0  0  0  0
    6.1479  -10.8176    0.0000 C   0  0  0  0  0  0  0  0  0  0  0  0
    5.3409  -10.9891    0.0000 C   0  0  0  0  0  0  0  0  0  0  0  0
    4.7889  -10.3760    0.0000 C   0  0  0  0  0  0  0  0  0  0  0  0
    5.0438   -9.5914    0.0000 C   0  0  0  0  0  0  0  0  0  0  0  0
    5.0860  -11.7737    0.0000 O   0  0  0  0  0  0  0  0  0  0  0  0
    3.7269  -11.3321    0.0000 O   0  0  0  0  0  0  0  0  0  0  0  0
    4.2790  -11.9452    0.0000 C   0  0  2  0  0  0  0  0  0  0  0  0
    4.0240  -12.7299    0.0000 C   0  0  1  0  0  0  0  0  0  0  0  0
    3.2171  -12.9014    0.0000 C   0  0  2  0  0  0  0  0  0  0  0  0
    2.6650  -12.2883    0.0000 C   0  0  1  0  0  0  0  0  0  0  0  0
    2.9200  -11.5037    0.0000 C   0  0  1  0  0  0  0  0  0  0  0  0
    2.3679  -10.8906    0.0000 C   0  0  0  0  0  0  0  0  0  0  0  0
    1.5610  -11.0621    0.0000 O   0  0  0  0  0  0  0  0  0  0  0  0
    1.8581  -12.4598    0.0000 O   0  0  0  0  0  0  0  0  0  0  0  0
    2.9621  -13.6860    0.0000 O   0  0  0  0  0  0  0  0  0  0  0  0
    4.5761  -13.3430    0.0000 O   0  0  0  0  0  0  0  0  0  0  0  0
    3.9819  -10.5475    0.0000 O   0  0  0  0  0  0  0  0  0  0  0  0
    3.3985   -9.9642    0.0000 C   0  0  0  0  0  0  0  0  0  0  0  0
    6.6999  -11.4307    0.0000 O   0  0  0  0  0  0  0  0  0  0  0  0
    7.5069  -11.2591    0.0000 C   0  0  0  0  0  0  0  0  0  0  0  0
    6.8903   -6.7303    0.0000 H   0  0  0  0  0  0  0  0  0  0  0  0
    6.8903   -9.2053    0.0000 H   0  0  0  0  0  0  0  0  0  0  0  0
  1  2  1  0  0  0  0
  2  3  1  0  0  0  0
  3  4  1  0  0  0  0
  4  5  1  0  0  0  0
  5  6  1  0  0  0  0
  1  6  1  0  0  0  0
  3  7  1  6  0  0  0
  4  8  1  1  0  0  0
  5  9  1  6  0  0  0
 10 11  1  0  0  0  0
  6 10  1  1  0  0  0
 13 14  1  0  0  0  0
 14 15  2  0  0  0  0
 15 16  1  0  0  0  0
 16 17  2  0  0  0  0
 17 18  1  0  0  0  0
 13 18  2  0  0  0  0
 12 13  1  0  0  0  0
 19 20  1  0  0  0  0
 18 19  1  0  0  0  0
 21 22  1  0  0  0  0
 14 21  1  0  0  0  0
 23 24  1  0  0  0  0
 24 25  1  0  0  0  0
 25 26  1  0  0  0  0
 26 27  1  0  0  0  0
 23 27  1  0  0  0  0
 28 29  1  0  0  0  0
 28 30  1  0  0  0  0
 25 29  1  0  0  0  0
 26 30  1  0  0  0  0
 31 32  1  0  0  0  0
 32 33  2  0  0  0  0
 33 34  1  0  0  0  0
 34 35  2  0  0  0  0
 35 36  1  0  0  0  0
 31 36  2  0  0  0  0
 38 39  1  0  0  0  0
 39 40  1  0  0  0  0
 40 41  1  0  0  0  0
 41 42  1  0  0  0  0
 42 43  1  0  0  0  0
 38 43  1  0  0  0  0
 44 45  1  0  0  0  0
 43 44  1  1  0  0  0
 42 46  1  6  0  0  0
 41 47  1  1  0  0  0
 40 48  1  6  0  0  0
 39 37  1  1  0  0  0
 34 37  1  0  0  0  0
 49 50  1  0  0  0  0
 35 49  1  0  0  0  0
 51 52  1  0  0  0  0
 33 51  1  0  0  0  0
 29 31  1  6  0  0  0
 27 16  1  6  0  0  0
  2 12  1  1  0  0  0
 26 53  1  6  0  0  0
 25 54  1  6  0  0  0
M  END
>  <cdx:fragmentId>
56874

$$$$
