1599.cdx
  Mrv1902 05222410232D          

  9  8  0  0  0  0            999 V2000
    9.6963   -9.0897    0.0000 C   0  0  0  0  0  0  0  0  0  0  0  0
    8.9818   -8.6772    0.0000 C   0  0  0  0  0  0  0  0  0  0  0  0
    8.2674   -9.0897    0.0000 C   0  0  0  0  0  0  0  0  0  0  0  0
    7.5529   -8.6772    0.0000 C   0  0  0  0  0  0  0  0  0  0  0  0
    6.8384   -9.0897    0.0000 C   0  0  0  0  0  0  0  0  0  0  0  0
    6.1239   -8.6772    0.0000 C   0  0  0  0  0  0  0  0  0  0  0  0
    5.4095   -9.0897    0.0000 C   0  0  0  0  0  0  0  0  0  0  0  0
    4.6950   -8.6772    0.0000 C   0  0  0  0  0  0  0  0  0  0  0  0
    8.9818   -7.8522    0.0000 O   0  0  0  0  0  0  0  0  0  0  0  0
  1  2  1  0  0  0  0
  2  3  1  0  0  0  0
  3  4  2  0  0  0  0
  4  5  1  0  0  0  0
  5  6  2  0  0  0  0
  6  7  1  0  0  0  0
  7  8  1  0  0  0  0
  2  9  2  0  0  0  0
M  END
>  <cdx:fragmentId>
5

$$$$
