15997.cdx
  Mrv1902 05222410182D          

 37 39  0  0  0  0            999 V2000
    7.6450   -8.6075    0.0000 C   0  0  0  0  0  0  0  0  0  0  0  0
    8.3595   -8.1950    0.0000 C   0  0  0  0  0  0  0  0  0  0  0  0
    7.6450   -9.4325    0.0000 C   0  0  0  0  0  0  0  0  0  0  0  0
    8.3595   -7.3700    0.0000 C   0  0  0  0  0  0  0  0  0  0  0  0
    9.0739   -6.9575    0.0000 O   0  0  0  0  0  0  0  0  0  0  0  0
    6.9305   -9.8450    0.0000 C   0  0  0  0  0  0  0  0  0  0  0  0
    6.9305  -10.6700    0.0000 C   0  0  0  0  0  0  0  0  0  0  0  0
    7.6450  -11.0825    0.0000 C   0  0  0  0  0  0  0  0  0  0  0  0
    8.3595  -10.6700    0.0000 C   0  0  0  0  0  0  0  0  0  0  0  0
    8.3595   -9.8450    0.0000 C   0  0  0  0  0  0  0  0  0  0  0  0
    7.6450  -11.9075    0.0000 O   0  0  0  0  0  0  0  0  0  0  0  0
    6.2161  -11.0825    0.0000 O   0  0  0  0  0  0  0  0  0  0  0  0
    9.0739  -11.0825    0.0000 O   0  0  0  0  0  0  0  0  0  0  0  0
    5.5016  -10.6700    0.0000 C   0  0  0  0  0  0  0  0  0  0  0  0
    9.7884  -10.6700    0.0000 C   0  0  0  0  0  0  0  0  0  0  0  0
    6.9305  -12.3200    0.0000 C   0  0  2  0  0  0  0  0  0  0  0  0
    6.2161  -11.9075    0.0000 O   0  0  0  0  0  0  0  0  0  0  0  0
    5.5016  -12.3200    0.0000 C   0  0  1  0  0  0  0  0  0  0  0  0
    5.5016  -13.1450    0.0000 C   0  0  2  0  0  0  0  0  0  0  0  0
    6.2161  -13.5575    0.0000 C   0  0  1  0  0  0  0  0  0  0  0  0
    6.9305  -13.1450    0.0000 C   0  0  1  0  0  0  0  0  0  0  0  0
    4.7871  -11.9075    0.0000 C   0  0  0  0  0  0  0  0  0  0  0  0
    6.2161  -14.3825    0.0000 O   0  0  0  0  0  0  0  0  0  0  0  0
    7.6450  -13.5575    0.0000 O   0  0  0  0  0  0  0  0  0  0  0  0
    4.7871  -13.5575    0.0000 O   0  0  0  0  0  0  0  0  0  0  0  0
    4.0726  -12.3200    0.0000 O   0  0  0  0  0  0  0  0  0  0  0  0
    4.0759  -13.9756    0.0000 C   0  0  2  0  0  0  0  0  0  0  0  0
    3.3582  -13.5687    0.0000 O   0  0  0  0  0  0  0  0  0  0  0  0
    2.6470  -13.9868    0.0000 C   0  0  1  0  0  0  0  0  0  0  0  0
    2.6535  -14.8118    0.0000 C   0  0  2  0  0  0  0  0  0  0  0  0
    3.3712  -15.2187    0.0000 C   0  0  1  0  0  0  0  0  0  0  0  0
    4.0824  -14.8006    0.0000 C   0  0  1  0  0  0  0  0  0  0  0  0
    1.9293  -13.5800    0.0000 C   0  0  0  0  0  0  0  0  0  0  0  0
    3.3777  -16.0437    0.0000 O   0  0  0  0  0  0  0  0  0  0  0  0
    4.8001  -15.2074    0.0000 O   0  0  0  0  0  0  0  0  0  0  0  0
    1.9423  -15.2299    0.0000 O   0  0  0  0  0  0  0  0  0  0  0  0
    1.2181  -13.9981    0.0000 O   0  0  0  0  0  0  0  0  0  0  0  0
  1  2  2  0  0  0  0
  1  3  1  0  0  0  0
  2  4  1  0  0  0  0
  4  5  1  0  0  0  0
  3  6  2  0  0  0  0
  6  7  1  0  0  0  0
  7  8  2  0  0  0  0
  8  9  1  0  0  0  0
  9 10  2  0  0  0  0
 10  3  1  0  0  0  0
  8 11  1  0  0  0  0
  7 12  1  0  0  0  0
  9 13  1  0  0  0  0
 12 14  1  0  0  0  0
 13 15  1  0  0  0  0
 16 11  1  1  0  0  0
 16 17  1  0  0  0  0
 17 18  1  0  0  0  0
 18 19  1  0  0  0  0
 19 20  1  0  0  0  0
 20 21  1  0  0  0  0
 21 16  1  0  0  0  0
 18 22  1  1  0  0  0
 20 23  1  1  0  0  0
 21 24  1  6  0  0  0
 19 25  1  6  0  0  0
 22 26  1  0  0  0  0
 27 25  1  1  0  0  0
 27 28  1  0  0  0  0
 28 29  1  0  0  0  0
 29 30  1  0  0  0  0
 30 31  1  0  0  0  0
 31 32  1  0  0  0  0
 32 27  1  0  0  0  0
 29 33  1  1  0  0  0
 31 34  1  1  0  0  0
 32 35  1  6  0  0  0
 30 36  1  6  0  0  0
 33 37  1  0  0  0  0
M  END
>  <cdx:fragmentId>
14036

$$$$
