11160025.cdx
  Mrv1902 05222410272D          

 15 16  0  0  0  0            999 V2000
    7.2401  -13.1838    0.0000 C   0  0  0  0  0  0  0  0  0  0  0  0
    6.5256  -12.7713    0.0000 C   0  0  0  0  0  0  0  0  0  0  0  0
    6.5256  -11.9463    0.0000 C   0  0  2  0  0  0  0  0  0  0  0  0
    7.2401  -11.5338    0.0000 C   0  0  0  0  0  0  0  0  0  0  0  0
    7.9545  -11.9463    0.0000 C   0  0  2  0  0  0  0  0  0  0  0  0
    8.6690  -11.5338    0.0000 C   0  0  1  0  0  0  0  0  0  0  0  0
    9.3835  -11.9463    0.0000 C   0  0  0  0  0  0  0  0  0  0  0  0
    9.3835  -12.7713    0.0000 C   0  0  0  0  0  0  0  0  0  0  0  0
    8.6690  -13.1838    0.0000 C   0  0  0  0  0  0  0  0  0  0  0  0
    7.9545  -12.7713    0.0000 C   0  0  0  0  0  0  0  0  0  0  0  0
    5.8111  -10.7088    0.0000 C   0  0  0  0  0  0  0  0  0  0  0  0
    5.8111  -11.5338    0.0000 C   0  0  0  0  0  0  0  0  0  0  0  0
    5.0966  -11.9463    0.0000 C   0  0  0  0  0  0  0  0  0  0  0  0
    8.6690  -10.7088    0.0000 C   0  0  0  0  0  0  0  0  0  0  0  0
    7.9545  -11.1213    0.0000 C   0  0  0  0  0  0  0  0  0  0  0  0
  1  2  1  0  0  0  0
  2  3  1  0  0  0  0
  3  4  1  0  0  0  0
  4  5  1  0  0  0  0
  5  6  1  0  0  0  0
  6  7  1  0  0  0  0
  7  8  1  0  0  0  0
  8  9  1  0  0  0  0
  9 10  2  0  0  0  0
  1 10  1  0  0  0  0
  5 10  1  0  0  0  0
 11 12  2  0  0  0  0
 12 13  1  0  0  0  0
  3 12  1  1  0  0  0
  6 14  1  6  0  0  0
  5 15  1  1  0  0  0
M  END
>  <cdx:groupId>
67136

>  <cdx:fragmentId>
67093

$$$$
