160006.cdx
  Mrv1902 05222410182D          

 41 45  0  0  0  0            999 V2000
    9.4881  -11.1127    0.0000 C   0  0  0  0  0  0  0  0  0  0  0  0
    5.9158   -9.0502    0.0000 H   0  0  0  0  0  0  0  0  0  0  0  0
    5.2013   -7.8127    0.0000 H   0  0  0  0  0  0  0  0  0  0  0  0
    6.6302   -7.8127    0.0000 H   0  0  0  0  0  0  0  0  0  0  0  0
    8.0592  -10.2877    0.0000 H   0  0  0  0  0  0  0  0  0  0  0  0
    3.0579   -8.2252    0.0000 O   0  0  0  0  0  0  0  0  0  0  0  0
    5.2013  -11.1127    0.0000 O   0  0  0  0  0  0  0  0  0  0  0  0
    6.6302  -11.9377    0.0000 O   0  0  0  0  0  0  0  0  0  0  0  0
    4.4868   -7.4002    0.0000 C   0  0  0  0  0  0  0  0  0  0  0  0
    5.2013  -10.2877    0.0000 C   0  0  0  0  0  0  0  0  0  0  0  0
   10.9176   -8.6387    0.0000 C   0  0  0  0  0  0  0  0  0  0  0  0
    9.4887   -8.6387    0.0000 O   0  0  0  0  0  0  0  0  0  0  0  0
   11.6321   -9.8762    0.0000 C   0  0  0  0  0  0  0  0  0  0  0  0
   10.9176   -9.4637    0.0000 C   0  0  0  0  0  0  0  0  0  0  0  0
   10.2031   -9.8762    0.0000 C   0  0  0  0  0  0  0  0  0  0  0  0
    9.4887   -9.4637    0.0000 C   0  0  0  0  0  0  0  0  0  0  0  0
    8.7742   -9.8762    0.0000 O   0  0  0  0  0  0  0  0  0  0  0  0
    8.7739   -8.2262    0.0000 O   0  0  0  0  0  0  0  0  0  0  0  0
    3.0579   -9.8752    0.0000 O   0  0  0  0  0  0  0  0  0  0  0  0
    8.7737  -10.7002    0.0000 O   0  0  0  0  0  0  0  0  0  0  0  0
    8.0592  -11.9377    0.0000 O   0  0  0  0  0  0  0  0  0  0  0  0
    8.0592  -11.1127    0.0000 C   0  0  0  0  0  0  0  0  0  0  0  0
    6.3250  -10.0696    0.0000 C   0  0  0  0  0  0  0  0  0  0  0  0
    6.6653  -10.6591    0.0000 O   0  0  0  0  0  0  0  0  0  0  0  0
    7.3447  -10.7002    0.0000 C   0  0  1  0  0  0  0  0  0  0  0  0
    6.6302  -11.1127    0.0000 C   0  0  2  0  0  0  0  0  0  0  0  0
    5.9158  -10.7002    0.0000 C   0  0  1  0  0  0  0  0  0  0  0  0
    5.9158   -9.8752    0.0000 C   0  0  2  0  0  0  0  0  0  0  0  0
    5.2013   -9.4627    0.0000 C   0  0  2  0  0  0  0  0  0  0  0  0
    4.4868   -9.8752    0.0000 C   0  0  0  0  0  0  0  0  0  0  0  0
    3.7724   -9.4627    0.0000 C   0  0  0  0  0  0  0  0  0  0  0  0
    3.7724   -8.6377    0.0000 C   0  0  0  0  0  0  0  0  0  0  0  0
    4.4868   -8.2252    0.0000 C   0  0  0  0  0  0  0  0  0  0  0  0
    5.2013   -8.6377    0.0000 C   0  0  2  0  0  0  0  0  0  0  0  0
    5.9158   -8.2252    0.0000 C   0  0  0  0  0  0  0  0  0  0  0  0
    6.6302   -8.6377    0.0000 C   0  0  1  0  0  0  0  0  0  0  0  0
    7.3451   -8.2260    0.0000 O   0  0  0  0  0  0  0  0  0  0  0  0
    8.0595   -8.6387    0.0000 C   0  0  0  0  0  0  0  0  0  0  0  0
    8.0597   -9.4637    0.0000 C   0  0  1  0  0  0  0  0  0  0  0  0
    7.3447   -9.8752    0.0000 C   0  0  2  0  0  0  0  0  0  0  0  0
    6.6302   -9.4627    0.0000 C   0  0  2  0  0  0  0  0  0  0  0  0
 20  1  1  0  0  0  0
 28  2  1  1  0  0  0
 34  3  1  1  0  0  0
 36  4  1  6  0  0  0
 40  5  1  6  0  0  0
 32  6  1  0  0  0  0
 27  7  1  6  0  0  0
 26  8  1  1  0  0  0
 33  9  1  0  0  0  0
 29 10  1  6  0  0  0
 39 17  1  6  0  0  0
 14 11  1  0  0  0  0
 17 16  1  0  0  0  0
 16 12  2  0  0  0  0
 14 13  1  0  0  0  0
 15 14  1  0  0  0  0
 16 15  1  0  0  0  0
 38 18  2  0  0  0  0
 31 19  2  0  0  0  0
 25 22  1  0  0  0  0
 22 20  1  0  0  0  0
 22 21  2  0  0  0  0
 41 36  1  0  0  0  0
 34 29  1  0  0  0  0
 40 25  1  0  0  0  0
 41 28  1  0  0  0  0
 41 23  1  6  0  0  0
 24 23  1  0  0  0  0
 25 24  1  6  0  0  0
 26 25  1  0  0  0  0
 27 26  1  0  0  0  0
 28 27  1  0  0  0  0
 29 28  1  0  0  0  0
 30 29  1  0  0  0  0
 31 30  1  0  0  0  0
 32 31  1  0  0  0  0
 33 32  2  0  0  0  0
 34 33  1  0  0  0  0
 35 34  1  0  0  0  0
 36 35  1  0  0  0  0
 37 36  1  0  0  0  0
 38 37  1  0  0  0  0
 39 38  1  0  0  0  0
 40 39  1  0  0  0  0
 41 40  1  0  0  0  0
M  END
>  <cdx:fragmentId>
5

$$$$
