160142.cdx
  Mrv1902 05222410282D          

 21 23  0  0  0  0            999 V2000
    6.4538   -7.9536    0.0000 C   0  0  0  0  0  0  0  0  0  0  0  0
    6.4538   -8.7787    0.0000 C   0  0  0  0  0  0  0  0  0  0  0  0
    7.1684   -9.1912    0.0000 C   0  0  0  0  0  0  0  0  0  0  0  0
    7.8828   -8.7787    0.0000 C   0  0  0  0  0  0  0  0  0  0  0  0
    7.8828   -7.9536    0.0000 C   0  0  0  0  0  0  0  0  0  0  0  0
    7.1684   -7.5411    0.0000 C   0  0  0  0  0  0  0  0  0  0  0  0
    5.7393   -7.5411    0.0000 C   0  0  0  0  0  0  0  0  0  0  0  0
    5.0249   -7.9536    0.0000 C   0  0  0  0  0  0  0  0  0  0  0  0
    5.0249   -8.7787    0.0000 C   0  0  0  0  0  0  0  0  0  0  0  0
    5.7393   -9.1912    0.0000 C   0  0  0  0  0  0  0  0  0  0  0  0
    8.5973   -7.5411    0.0000 C   0  0  0  0  0  0  0  0  0  0  0  0
    8.5973   -6.7161    0.0000 C   0  0  0  0  0  0  0  0  0  0  0  0
    7.8828   -6.3037    0.0000 C   0  0  0  0  0  0  0  0  0  0  0  0
    7.1684   -6.7161    0.0000 C   0  0  0  0  0  0  0  0  0  0  0  0
    5.3268   -9.9057    0.0000 C   0  0  0  0  0  0  0  0  0  0  0  0
    6.1518   -9.9057    0.0000 C   0  0  0  0  0  0  0  0  0  0  0  0
    6.4538   -6.3037    0.0000 O   0  0  0  0  0  0  0  0  0  0  0  0
    7.8828   -5.4787    0.0000 O   0  0  0  0  0  0  0  0  0  0  0  0
    9.3117   -6.3037    0.0000 C   0  0  0  0  0  0  0  0  0  0  0  0
   10.0262   -6.7161    0.0000 C   0  0  0  0  0  0  0  0  0  0  0  0
    9.3117   -5.4787    0.0000 C   0  0  0  0  0  0  0  0  0  0  0  0
  1  2  2  0  0  0  0
  2  3  1  0  0  0  0
  3  4  2  0  0  0  0
  4  5  1  0  0  0  0
  5  6  2  0  0  0  0
  6  1  1  0  0  0  0
  1  7  1  0  0  0  0
  7  8  1  0  0  0  0
  8  9  1  0  0  0  0
  9 10  1  0  0  0  0
 10  2  1  0  0  0  0
  5 11  1  0  0  0  0
 11 12  2  0  0  0  0
 12 13  1  0  0  0  0
 13 14  1  0  0  0  0
 14  6  1  0  0  0  0
 10 15  1  0  0  0  0
 10 16  1  0  0  0  0
 14 17  2  0  0  0  0
 13 18  2  0  0  0  0
 12 19  1  0  0  0  0
 19 20  1  0  0  0  0
 19 21  1  0  0  0  0
M  END
>  <cdx:fragmentId>
5013

$$$$
