160190.cdx
  Mrv1902 05222410262D          

 28 30  0  0  0  0            999 V2000
   10.1104  -14.4287    0.0000 C   0  0  0  0  0  0  0  0  0  0  0  0
   10.1104  -15.2537    0.0000 C   0  0  0  0  0  0  0  0  0  0  0  0
    9.3959  -15.6662    0.0000 C   0  0  0  0  0  0  0  0  0  0  0  0
    8.6814  -15.2537    0.0000 C   0  0  0  0  0  0  0  0  0  0  0  0
    7.9669  -15.6662    0.0000 C   0  0  0  0  0  0  0  0  0  0  0  0
    7.2525  -15.2537    0.0000 C   0  0  0  0  0  0  0  0  0  0  0  0
    7.2525  -14.4287    0.0000 C   0  0  0  0  0  0  0  0  0  0  0  0
    7.9669  -14.0162    0.0000 C   0  0  0  0  0  0  0  0  0  0  0  0
    8.6814  -14.4287    0.0000 C   0  0  0  0  0  0  0  0  0  0  0  0
    9.3959  -14.0162    0.0000 O   0  0  0  0  0  0  0  0  0  0  0  0
    9.3959  -16.4912    0.0000 O   0  0  0  0  0  0  0  0  0  0  0  0
    8.6814  -12.7787    0.0000 O   0  0  0  0  0  0  0  0  0  0  0  0
    7.9669  -13.1912    0.0000 C   0  0  2  0  0  0  0  0  0  0  0  0
    7.2525  -12.7787    0.0000 C   0  0  1  0  0  0  0  0  0  0  0  0
    7.2525  -11.9537    0.0000 C   0  0  2  0  0  0  0  0  0  0  0  0
    7.9669  -11.5412    0.0000 C   0  0  1  0  0  0  0  0  0  0  0  0
    8.6814  -11.9537    0.0000 C   0  0  1  0  0  0  0  0  0  0  0  0
    9.3959  -11.5412    0.0000 C   0  0  0  0  0  0  0  0  0  0  0  0
   10.1104  -11.9537    0.0000 O   0  0  0  0  0  0  0  0  0  0  0  0
    7.9669  -10.7162    0.0000 O   0  0  0  0  0  0  0  0  0  0  0  0
    6.5380  -11.5412    0.0000 O   0  0  0  0  0  0  0  0  0  0  0  0
    6.5380  -13.1912    0.0000 O   0  0  0  0  0  0  0  0  0  0  0  0
   10.8248  -14.0162    0.0000 C   0  0  0  0  0  0  0  0  0  0  0  0
   11.5393  -14.4287    0.0000 C   0  0  0  0  0  0  0  0  0  0  0  0
   12.2538  -14.0162    0.0000 C   0  0  0  0  0  0  0  0  0  0  0  0
   11.5393  -15.2537    0.0000 O   0  0  0  0  0  0  0  0  0  0  0  0
    7.9669  -16.4912    0.0000 C   0  0  0  0  0  0  0  0  0  0  0  0
    6.5380  -14.0162    0.0000 O   0  0  0  0  0  0  0  0  0  0  0  0
  1  2  2  0  0  0  0
  2  3  1  0  0  0  0
  3  4  1  0  0  0  0
  4  5  1  0  0  0  0
  5  6  2  0  0  0  0
  6  7  1  0  0  0  0
  7  8  2  0  0  0  0
  8  9  1  0  0  0  0
  4  9  2  0  0  0  0
  9 10  1  0  0  0  0
  1 10  1  0  0  0  0
  3 11  2  0  0  0  0
 12 13  1  0  0  0  0
 13 14  1  0  0  0  0
 14 15  1  0  0  0  0
 15 16  1  0  0  0  0
 16 17  1  0  0  0  0
 12 17  1  0  0  0  0
 18 19  1  0  0  0  0
 17 18  1  1  0  0  0
 16 20  1  6  0  0  0
 15 21  1  1  0  0  0
 14 22  1  6  0  0  0
 13  8  1  1  0  0  0
 23 24  1  0  0  0  0
 24 25  1  0  0  0  0
 24 26  2  0  0  0  0
  1 23  1  0  0  0  0
  5 27  1  0  0  0  0
  7 28  1  0  0  0  0
M  END
>  <cdx:fragmentId>
11751

$$$$
