160153.cdx
  Mrv1902 05222410262D          

 21 23  0  0  0  0            999 V2000
    7.7663   -9.1307    0.0000 H   0  0  0  0  0  0  0  0  0  0  0  0
    7.0500   -7.8943    0.0000 H   0  0  0  0  0  0  0  0  0  0  0  0
    6.9673  -10.3649    0.0000 H   0  0  0  0  0  0  0  0  0  0  0  0
    7.3503   -6.7669    0.0000 O   0  0  0  0  0  0  0  0  0  0  0  0
    9.1952   -9.1287    0.0000 C   0  0  0  0  0  0  0  0  0  0  0  0
    6.9389   -7.4819    0.0000 C   0  0  0  0  0  0  0  0  0  0  0  0
    6.0143  -10.5853    0.0000 C   0  0  0  0  0  0  0  0  0  0  0  0
    4.9573   -9.1348    0.0000 O   0  0  0  0  0  0  0  0  0  0  0  0
    9.1940   -8.3037    0.0000 C   0  0  0  0  0  0  0  0  0  0  0  0
    9.1928   -7.4787    0.0000 C   0  0  0  0  0  0  0  0  0  0  0  0
    8.4777   -7.0672    0.0000 C   0  0  0  0  0  0  0  0  0  0  0  0
    7.7639   -7.4807    0.0000 C   0  0  2  0  0  0  0  0  0  0  0  0
    7.0512   -8.7193    0.0000 C   0  0  2  0  0  0  0  0  0  0  0  0
    7.7651   -8.3057    0.0000 C   0  0  2  0  0  0  0  0  0  0  0  0
    8.4801   -8.7172    0.0000 C   0  0  2  0  0  0  0  0  0  0  0  0
    8.4813   -9.5422    0.0000 C   0  0  0  0  0  0  0  0  0  0  0  0
    7.7675   -9.9557    0.0000 C   0  0  0  0  0  0  0  0  0  0  0  0
    7.0524   -9.5443    0.0000 C   0  0  1  0  0  0  0  0  0  0  0  0
    6.2681   -9.8003    0.0000 C   0  0  0  0  0  0  0  0  0  0  0  0
    5.7823   -9.1336    0.0000 C   0  0  0  0  0  0  0  0  0  0  0  0
    6.2662   -8.4655    0.0000 O   0  0  0  0  0  0  0  0  0  0  0  0
 13  1  1  1  0  0  0
 14  2  1  6  0  0  0
 18  3  1  6  0  0  0
 12  4  1  6  0  0  0
 15  5  1  1  0  0  0
 12  6  1  1  0  0  0
 19  7  2  0  0  0  0
 20  8  2  0  0  0  0
 12 14  1  0  0  0  0
  9 15  1  0  0  0  0
 10  9  1  0  0  0  0
 11 10  1  0  0  0  0
 12 11  1  0  0  0  0
 21 13  1  0  0  0  0
 18 13  1  0  0  0  0
 14 13  1  0  0  0  0
 15 14  1  0  0  0  0
 16 15  1  0  0  0  0
 17 16  1  0  0  0  0
 18 17  1  0  0  0  0
 19 18  1  0  0  0  0
 20 19  1  0  0  0  0
 21 20  1  0  0  0  0
M  END
>  <cdx:fragmentId>
5

$$$$
