160270.cdx
  Mrv1902 05222410212D          

 37 43  0  0  0  0            999 V2000
    7.7320   -7.2597    0.0000 C   0  0  0  0  0  0  0  0  0  0  0  0
    7.0176   -7.6722    0.0000 C   0  0  0  0  0  0  0  0  0  0  0  0
    6.3031   -7.2597    0.0000 C   0  0  0  0  0  0  0  0  0  0  0  0
    6.3031   -6.4347    0.0000 O   0  0  0  0  0  0  0  0  0  0  0  0
    5.5886   -6.0222    0.0000 C   0  0  1  0  0  0  0  0  0  0  0  0
    4.8742   -6.4347    0.0000 C   0  0  0  0  0  0  0  0  0  0  0  0
    4.8742   -7.2597    0.0000 C   0  0  0  0  0  0  0  0  0  0  0  0
    5.5886   -7.6722    0.0000 C   0  0  0  0  0  0  0  0  0  0  0  0
    5.5886   -8.4972    0.0000 C   0  0  0  0  0  0  0  0  0  0  0  0
    6.3031   -8.9097    0.0000 C   0  0  0  0  0  0  0  0  0  0  0  0
    7.0176   -8.4972    0.0000 C   0  0  0  0  0  0  0  0  0  0  0  0
    7.7320   -8.9097    0.0000 O   0  0  0  0  0  0  0  0  0  0  0  0
    8.4465   -8.4972    0.0000 C   0  0  0  0  0  0  0  0  0  0  0  0
    9.1610   -8.9097    0.0000 C   0  0  0  0  0  0  0  0  0  0  0  0
    9.8755   -8.4972    0.0000 C   0  0  0  0  0  0  0  0  0  0  0  0
    9.8755   -7.6722    0.0000 C   0  0  0  0  0  0  0  0  0  0  0  0
    9.1610   -7.2597    0.0000 C   0  0  0  0  0  0  0  0  0  0  0  0
    9.1621   -6.4347    0.0000 O   0  0  0  0  0  0  0  0  0  0  0  0
    8.4475   -6.0224    0.0000 C   0  0  0  0  0  0  0  0  0  0  0  0
    7.7329   -6.4347    0.0000 C   0  0  0  0  0  0  0  0  0  0  0  0
    8.4465   -7.6722    0.0000 C   0  0  0  0  0  0  0  0  0  0  0  0
   10.5899   -8.9097    0.0000 O   0  0  0  0  0  0  0  0  0  0  0  0
    8.4475   -5.1974    0.0000 C   0  0  0  0  0  0  0  0  0  0  0  0
    7.7330   -4.7849    0.0000 C   0  0  0  0  0  0  0  0  0  0  0  0
    7.7330   -3.9599    0.0000 C   0  0  0  0  0  0  0  0  0  0  0  0
    8.4475   -3.5474    0.0000 C   0  0  0  0  0  0  0  0  0  0  0  0
    9.1619   -3.9599    0.0000 C   0  0  0  0  0  0  0  0  0  0  0  0
    9.1619   -4.7849    0.0000 C   0  0  0  0  0  0  0  0  0  0  0  0
    5.5886   -5.1972    0.0000 C   0  0  0  0  0  0  0  0  0  0  0  0
    4.8742   -4.7847    0.0000 C   0  0  0  0  0  0  0  0  0  0  0  0
    4.8742   -3.9597    0.0000 C   0  0  0  0  0  0  0  0  0  0  0  0
    5.5886   -3.5472    0.0000 C   0  0  0  0  0  0  0  0  0  0  0  0
    6.3031   -3.9597    0.0000 C   0  0  0  0  0  0  0  0  0  0  0  0
    6.3031   -4.7847    0.0000 C   0  0  0  0  0  0  0  0  0  0  0  0
    9.1610   -9.7347    0.0000 C   0  0  0  0  0  0  0  0  0  0  0  0
    4.8742   -8.9097    0.0000 O   0  0  0  0  0  0  0  0  0  0  0  0
    4.1597   -8.4972    0.0000 C   0  0  0  0  0  0  0  0  0  0  0  0
  1  2  1  0  0  0  0
  2  3  2  0  0  0  0
  3  4  1  0  0  0  0
  4  5  1  0  0  0  0
  5  6  1  0  0  0  0
  6  7  1  0  0  0  0
  7  8  1  0  0  0  0
  8  9  2  0  0  0  0
  9 10  1  0  0  0  0
 10 11  2  0  0  0  0
 11 12  1  0  0  0  0
 12 13  1  0  0  0  0
 13 14  2  0  0  0  0
 14 15  1  0  0  0  0
 15 16  1  0  0  0  0
 16 17  2  0  0  0  0
 17 18  1  0  0  0  0
 18 19  1  0  0  0  0
 19 20  2  0  0  0  0
  1 20  1  0  0  0  0
  1 21  2  0  0  0  0
 21 13  1  0  0  0  0
  2 11  1  0  0  0  0
  3  8  1  0  0  0  0
 17 21  1  0  0  0  0
 15 22  2  0  0  0  0
 23 24  1  0  0  0  0
 24 25  2  0  0  0  0
 25 26  1  0  0  0  0
 26 27  2  0  0  0  0
 27 28  1  0  0  0  0
 23 28  2  0  0  0  0
 19 23  1  0  0  0  0
 29 30  1  0  0  0  0
 30 31  2  0  0  0  0
 31 32  1  0  0  0  0
 32 33  2  0  0  0  0
 33 34  1  0  0  0  0
 29 34  2  0  0  0  0
  5 29  1  1  0  0  0
 14 35  1  0  0  0  0
 36 37  1  0  0  0  0
  9 36  1  0  0  0  0
M  END
>  <cdx:groupId>
119

>  <cdx:fragmentId>
5

$$$$
