160220.cdx
  Mrv1902 05222410282D          

 27 31  0  0  0  0            999 V2000
    6.9647   -8.4282    0.0000 C   0  0  2  0  0  0  0  0  0  0  0  0
    7.2375   -9.2067    0.0000 C   0  0  0  0  0  0  0  0  0  0  0  0
    8.0623   -9.1878    0.0000 C   0  0  0  0  0  0  0  0  0  0  0  0
    8.2992   -8.3975    0.0000 C   0  0  2  0  0  0  0  0  0  0  0  0
    7.6208   -7.9280    0.0000 N   0  0  0  0  0  0  0  0  0  0  0  0
    7.6389   -7.1032    0.0000 C   0  0  0  0  0  0  0  0  0  0  0  0
    7.0053   -6.5748    0.0000 C   0  0  1  0  0  0  0  0  0  0  0  0
    6.1972   -6.7407    0.0000 C   0  0  0  0  0  0  0  0  0  0  0  0
    5.8230   -7.4760    0.0000 C   0  0  0  0  0  0  0  0  0  0  0  0
    6.6000   -7.4525    0.0000 O   0  0  0  0  0  0  0  0  0  0  0  0
    7.2065   -5.7747    0.0000 H   0  0  0  0  0  0  0  0  0  0  0  0
    5.6132  -10.2893    0.0000 C   0  0  0  0  0  0  0  0  0  0  0  0
    4.2348   -9.1397    0.0000 O   0  0  0  0  0  0  0  0  0  0  0  0
    6.3666   -9.0269    0.0000 C   0  0  0  0  0  0  0  0  0  0  0  0
    5.6682   -9.4661    0.0000 C   0  0  2  0  0  0  0  0  0  0  0  0
    5.0347   -8.9377    0.0000 C   0  0  0  0  0  0  0  0  0  0  0  0
    5.3414   -8.1719    0.0000 O   0  0  0  0  0  0  0  0  0  0  0  0
   11.2026   -8.3309    0.0000 C   0  0  0  0  0  0  0  0  0  0  0  0
   10.6089   -6.6371    0.0000 O   0  0  0  0  0  0  0  0  0  0  0  0
   10.1394   -7.3154    0.0000 C   0  0  0  0  0  0  0  0  0  0  0  0
   10.4123   -8.0940    0.0000 C   0  0  2  0  0  0  0  0  0  0  0  0
    9.7561   -8.5941    0.0000 C   0  0  0  0  0  0  0  0  0  0  0  0
    9.0778   -8.1246    0.0000 C   0  0  2  0  0  0  0  0  0  0  0  0
    9.3146   -7.3344    0.0000 O   0  0  0  0  0  0  0  0  0  0  0  0
    6.1646   -8.2270    0.0000 C   0  0  2  0  0  0  0  0  0  0  0  0
    8.2992   -7.5725    0.0000 H   0  0  0  0  0  0  0  0  0  0  0  0
    8.6653   -7.4102    0.0000 H   0  0  0  0  0  0  0  0  0  0  0  0
 15 12  1  1  0  0  0
 16 13  2  0  0  0  0
 25 14  1  0  0  0  0
 25 17  1  6  0  0  0
 15 14  1  0  0  0  0
 16 15  1  0  0  0  0
 21 18  1  1  0  0  0
 20 19  2  0  0  0  0
 24 20  1  0  0  0  0
 21 20  1  0  0  0  0
 22 21  1  0  0  0  0
 23 22  1  0  0  0  0
 23 24  1  0  0  0  0
 17 16  1  0  0  0  0
  1  2  1  1  0  0  0
  2  3  1  0  0  0  0
  4  3  1  0  0  0  0
  4  5  1  0  0  0  0
  5  6  1  0  0  0  0
  6  7  1  0  0  0  0
  7  8  1  0  0  0  0
  8  9  1  0  0  0  0
  9 25  1  0  0  0  0
  1 25  1  0  0  0  0
  1 10  1  0  0  0  0
  7 10  1  0  0  0  0
  1  5  1  0  0  0  0
  4 23  1  0  0  0  0
  7 11  1  1  0  0  0
  4 26  1  1  0  0  0
 23 27  1  6  0  0  0
M  END
>  <cdx:fragmentId>
233658

$$$$
