16037.cdx
  Mrv1902 05222410222D          

 38 42  0  0  0  0            999 V2000
    7.0654  -10.9418    0.0000 H   0  0  0  0  0  0  0  0  0  0  0  0
    6.7625  -11.2428    0.0000 C   0  0  0  0  0  0  0  0  0  0  0  0
    5.9375  -11.2402    0.0000 C   0  0  0  0  0  0  0  0  0  0  0  0
   11.3600   -8.4803    0.0000 C   0  0  0  0  0  0  0  0  0  0  0  0
   10.6546   -5.5905    0.0000 C   0  0  0  0  0  0  0  0  0  0  0  0
    9.2231   -6.4110    0.0000 C   0  0  0  0  0  0  0  0  0  0  0  0
    4.9233  -10.5225    0.0000 O   0  0  0  0  0  0  0  0  0  0  0  0
    7.0706   -9.2918    0.0000 C   0  0  2  0  0  0  0  0  0  0  0  0
    7.7864   -8.8815    0.0000 C   0  0  1  0  0  0  0  0  0  0  0  0
    7.7890   -8.0565    0.0000 C   0  0  0  0  0  0  0  0  0  0  0  0
    8.5047   -7.6463    0.0000 C   0  0  0  0  0  0  0  0  0  0  0  0
    9.2179   -8.0610    0.0000 C   0  0  2  0  0  0  0  0  0  0  0  0
    9.9337   -7.6508    0.0000 C   0  0  1  0  0  0  0  0  0  0  0  0
    9.9363   -6.8258    0.0000 C   0  0  1  0  0  0  0  0  0  0  0  0
   10.6520   -6.4155    0.0000 C   0  0  0  0  0  0  0  0  0  0  0  0
   11.3652   -6.8303    0.0000 C   0  0  0  0  0  0  0  0  0  0  0  0
   11.3626   -7.6553    0.0000 C   0  0  0  0  0  0  0  0  0  0  0  0
   10.6468   -8.0655    0.0000 C   0  0  1  0  0  0  0  0  0  0  0  0
   10.6442   -8.8905    0.0000 C   0  0  0  0  0  0  0  0  0  0  0  0
    9.9285   -9.3008    0.0000 C   0  0  0  0  0  0  0  0  0  0  0  0
    9.2153   -8.8860    0.0000 C   0  0  1  0  0  0  0  0  0  0  0  0
    8.4995   -9.2963    0.0000 C   0  0  2  0  0  0  0  0  0  0  0  0
    8.4969  -10.1213    0.0000 C   0  0  0  0  0  0  0  0  0  0  0  0
    7.7812  -10.5315    0.0000 C   0  0  0  0  0  0  0  0  0  0  0  0
    7.0680  -10.1168    0.0000 C   0  0  1  0  0  0  0  0  0  0  0  0
    6.3522  -10.5270    0.0000 C   0  0  0  0  0  0  0  0  0  0  0  0
    5.6391  -10.1123    0.0000 C   0  0  2  0  0  0  0  0  0  0  0  0
    5.6417   -9.2873    0.0000 C   0  0  0  0  0  0  0  0  0  0  0  0
    6.3574   -8.8770    0.0000 C   0  0  0  0  0  0  0  0  0  0  0  0
    7.0732   -8.4668    0.0000 C   0  0  0  0  0  0  0  0  0  0  0  0
    7.7864   -9.7065    0.0000 H   0  0  0  0  0  0  0  0  0  0  0  0
    8.4995   -8.4713    0.0000 C   0  0  0  0  0  0  0  0  0  0  0  0
    9.2153   -9.7110    0.0000 C   0  0  0  0  0  0  0  0  0  0  0  0
    9.2205   -7.2360    0.0000 H   0  0  0  0  0  0  0  0  0  0  0  0
    9.9337   -8.4758    0.0000 H   0  0  0  0  0  0  0  0  0  0  0  0
    4.2101  -10.1078    0.0000 C   0  0  0  0  0  0  0  0  0  0  0  0
    3.4944  -10.5181    0.0000 C   0  0  0  0  0  0  0  0  0  0  0  0
    4.2127   -9.2828    0.0000 O   0  0  0  0  0  0  0  0  0  0  0  0
 25  1  1  6  0  0  0
 26  2  1  0  0  0  0
 26  3  1  0  0  0  0
 18  4  1  1  0  0  0
 15  5  2  0  0  0  0
 14  6  1  6  0  0  0
 27  7  1  1  0  0  0
 29  8  1  0  0  0  0
 25  8  1  0  0  0  0
  9  8  1  0  0  0  0
 22  9  1  0  0  0  0
 10  9  1  0  0  0  0
 11 10  1  0  0  0  0
 12 11  1  0  0  0  0
 21 12  1  0  0  0  0
 13 12  1  0  0  0  0
 18 13  1  0  0  0  0
 14 13  1  0  0  0  0
 15 14  1  0  0  0  0
 16 15  1  0  0  0  0
 17 16  1  0  0  0  0
 18 17  1  0  0  0  0
 19 18  1  0  0  0  0
 20 19  1  0  0  0  0
 21 20  1  0  0  0  0
 22 21  1  0  0  0  0
 23 22  1  0  0  0  0
 24 23  1  0  0  0  0
 25 24  1  0  0  0  0
 26 25  1  0  0  0  0
 27 26  1  0  0  0  0
 28 27  1  0  0  0  0
 29 28  1  0  0  0  0
  8 30  1  1  0  0  0
  9 31  1  6  0  0  0
 22 32  1  1  0  0  0
 21 33  1  6  0  0  0
 12 34  1  1  0  0  0
 13 35  1  6  0  0  0
  7 36  1  0  0  0  0
 36 37  1  0  0  0  0
 36 38  2  0  0  0  0
M  END
>  <cdx:fragmentId>
5

$$$$
