16038.cdx
  Mrv1902 05222410232D          

 18 20  0  0  0  0            999 V2000
    6.3333   -7.6639    0.0000 C   0  0  0  0  0  0  0  0  0  0  0  0
    6.3369   -8.4889    0.0000 C   0  0  0  0  0  0  0  0  0  0  0  0
    6.9842   -9.0004    0.0000 C   0  0  0  0  0  0  0  0  0  0  0  0
    7.7877   -8.8134    0.0000 C   0  0  0  0  0  0  0  0  0  0  0  0
    8.1424   -8.0685    0.0000 C   0  0  0  0  0  0  0  0  0  0  0  0
    7.7812   -7.3268    0.0000 C   0  0  0  0  0  0  0  0  0  0  0  0
    6.9761   -7.1467    0.0000 C   0  0  0  0  0  0  0  0  0  0  0  0
    5.5476   -7.4124    0.0000 C   0  0  0  0  0  0  0  0  0  0  0  0
    5.0656   -8.0819    0.0000 C   0  0  0  0  0  0  0  0  0  0  0  0
    5.5534   -8.7472    0.0000 C   0  0  0  0  0  0  0  0  0  0  0  0
    8.3865   -9.3809    0.0000 C   0  0  0  0  0  0  0  0  0  0  0  0
    9.1113   -8.9868    0.0000 C   0  0  0  0  0  0  0  0  0  0  0  0
    8.9604   -8.1757    0.0000 O   0  0  0  0  0  0  0  0  0  0  0  0
    9.8561   -9.3415    0.0000 O   0  0  0  0  0  0  0  0  0  0  0  0
    8.2793  -10.1989    0.0000 C   0  0  0  0  0  0  0  0  0  0  0  0
    5.2893   -6.6289    0.0000 O   0  0  0  0  0  0  0  0  0  0  0  0
    5.3019   -9.5330    0.0000 C   0  0  0  0  0  0  0  0  0  0  0  0
    6.7890   -6.3432    0.0000 C   0  0  0  0  0  0  0  0  0  0  0  0
  1  2  1  0  0  0  0
  2  3  2  0  0  0  0
  3  4  1  0  0  0  0
  4  5  1  0  0  0  0
  5  6  2  0  0  0  0
  6  7  1  0  0  0  0
  7  1  2  0  0  0  0
  1  8  1  0  0  0  0
  8  9  1  0  0  0  0
  9 10  2  0  0  0  0
 10  2  1  0  0  0  0
  4 11  2  0  0  0  0
 11 12  1  0  0  0  0
 12 13  1  0  0  0  0
 13  5  1  0  0  0  0
 12 14  2  0  0  0  0
 11 15  1  0  0  0  0
  8 16  2  0  0  0  0
 10 17  1  0  0  0  0
  7 18  1  0  0  0  0
M  END
>  <cdx:fragmentId>
178

$$$$
