160476.cdx
  Mrv1902 05222410212D          

 21 23  0  0  0  0            999 V2000
    8.3932   -6.7019    0.0000 C   0  0  0  0  0  0  0  0  0  0  0  0
    9.1077   -7.1144    0.0000 C   0  0  0  0  0  0  0  0  0  0  0  0
    9.1077   -7.9394    0.0000 C   0  0  0  0  0  0  0  0  0  0  0  0
    8.3932   -8.3519    0.0000 C   0  0  0  0  0  0  0  0  0  0  0  0
    7.6787   -7.9394    0.0000 C   0  0  0  0  0  0  0  0  0  0  0  0
    6.9643   -8.3519    0.0000 C   0  0  0  0  0  0  0  0  0  0  0  0
    6.9643   -9.1769    0.0000 O   0  0  0  0  0  0  0  0  0  0  0  0
    6.2498   -7.9394    0.0000 C   0  0  0  0  0  0  0  0  0  0  0  0
    5.5353   -8.3519    0.0000 C   0  0  0  0  0  0  0  0  0  0  0  0
    4.8209   -7.9394    0.0000 C   0  0  0  0  0  0  0  0  0  0  0  0
    4.8209   -7.1144    0.0000 C   0  0  0  0  0  0  0  0  0  0  0  0
    5.5353   -6.7019    0.0000 C   0  0  0  0  0  0  0  0  0  0  0  0
    6.2498   -7.1144    0.0000 C   0  0  0  0  0  0  0  0  0  0  0  0
    6.9643   -6.7019    0.0000 C   0  0  0  0  0  0  0  0  0  0  0  0
    6.9643   -5.8769    0.0000 O   0  0  0  0  0  0  0  0  0  0  0  0
    7.6787   -7.1144    0.0000 C   0  0  0  0  0  0  0  0  0  0  0  0
    9.8221   -6.7019    0.0000 C   0  0  0  0  0  0  0  0  0  0  0  0
    9.8221   -5.8769    0.0000 O   0  0  0  0  0  0  0  0  0  0  0  0
   10.5366   -7.1144    0.0000 O   0  0  0  0  0  0  0  0  0  0  0  0
    9.8221   -8.3519    0.0000 O   0  0  0  0  0  0  0  0  0  0  0  0
    8.3932   -5.8769    0.0000 O   0  0  0  0  0  0  0  0  0  0  0  0
  1  2  1  0  0  0  0
  2  3  2  0  0  0  0
  3  4  1  0  0  0  0
  4  5  2  0  0  0  0
  5  6  1  0  0  0  0
  6  7  2  0  0  0  0
  6  8  1  0  0  0  0
  8  9  1  0  0  0  0
  9 10  2  0  0  0  0
 10 11  1  0  0  0  0
 11 12  2  0  0  0  0
 12 13  1  0  0  0  0
  8 13  2  0  0  0  0
 13 14  1  0  0  0  0
 14 15  2  0  0  0  0
 14 16  1  0  0  0  0
  5 16  1  0  0  0  0
  1 16  2  0  0  0  0
 17 18  2  0  0  0  0
 17 19  1  0  0  0  0
  2 17  1  0  0  0  0
  3 20  1  0  0  0  0
  1 21  1  0  0  0  0
M  END
>  <cdx:fragmentId>
5378

$$$$
