16041.cdx
  Mrv1902 05222410192D          

 16 17  0  0  0  0            999 V2000
    6.1627   -5.6862    0.0000 C   0  0  0  0  0  0  0  0  0  0  0  0
    5.7502   -6.4006    0.0000 C   0  0  0  0  0  0  0  0  0  0  0  0
    6.1627   -7.1151    0.0000 C   0  0  0  0  0  0  0  0  0  0  0  0
    6.9877   -7.1151    0.0000 C   0  0  0  0  0  0  0  0  0  0  0  0
    7.4002   -6.4006    0.0000 C   0  0  2  0  0  0  0  0  0  0  0  0
    6.9877   -5.6862    0.0000 C   0  0  0  0  0  0  0  0  0  0  0  0
    7.8852   -7.0681    0.0000 C   0  0  1  0  0  0  0  0  0  0  0  0
    8.6698   -6.8131    0.0000 C   0  0  0  0  0  0  0  0  0  0  0  0
    8.6698   -5.9881    0.0000 C   0  0  0  0  0  0  0  0  0  0  0  0
    7.8852   -5.7332    0.0000 C   0  0  2  0  0  0  0  0  0  0  0  0
    7.6716   -4.9363    0.0000 C   0  0  0  0  0  0  0  0  0  0  0  0
    7.6716   -7.8650    0.0000 C   0  0  0  0  0  0  0  0  0  0  0  0
    4.9252   -6.4006    0.0000 C   0  0  0  0  0  0  0  0  0  0  0  0
    5.7502   -7.8296    0.0000 O   0  0  0  0  0  0  0  0  0  0  0  0
    6.8748   -8.0785    0.0000 C   0  0  0  0  0  0  0  0  0  0  0  0
    8.0841   -8.5794    0.0000 C   0  0  0  0  0  0  0  0  0  0  0  0
  1  2  2  0  0  0  0
  2  3  1  0  0  0  0
  3  4  1  0  0  0  0
  5  4  1  1  0  0  0
  5  6  1  6  0  0  0
  6  1  1  0  0  0  0
  5  7  1  0  0  0  0
  7  8  1  0  0  0  0
  8  9  2  0  0  0  0
  9 10  1  0  0  0  0
 10  5  1  0  0  0  0
 10 11  1  1  0  0  0
  7 12  1  1  0  0  0
  2 13  1  0  0  0  0
  3 14  2  0  0  0  0
 12 15  1  0  0  0  0
 12 16  1  0  0  0  0
M  END
>  <cdx:fragmentId>
5

$$$$
