160482.cdx
  Mrv1902 05222410242D          

 33 36  0  0  0  0            999 V2000
    4.8768   -7.5951    0.0000 C   0  0  0  0  0  0  0  0  0  0  0  0
    4.1624   -8.0076    0.0000 C   0  0  0  0  0  0  0  0  0  0  0  0
    4.1624   -8.8326    0.0000 C   0  0  1  0  0  0  0  0  0  0  0  0
    4.8768   -9.2451    0.0000 C   0  0  2  0  0  0  0  0  0  0  0  0
    5.5913   -8.8326    0.0000 C   0  0  2  0  0  0  0  0  0  0  0  0
    6.3058   -9.2451    0.0000 C   0  0  0  0  0  0  0  0  0  0  0  0
    7.0203   -8.8326    0.0000 C   0  0  0  0  0  0  0  0  0  0  0  0
    7.0203   -8.0076    0.0000 C   0  0  0  0  0  0  0  0  0  0  0  0
    7.7347   -7.5951    0.0000 C   0  0  2  0  0  0  0  0  0  0  0  0
    8.5194   -7.8500    0.0000 C   0  0  0  0  0  0  0  0  0  0  0  0
    9.0043   -7.1826    0.0000 C   0  0  0  0  0  0  0  0  0  0  0  0
    8.5194   -6.5151    0.0000 C   0  0  1  0  0  0  0  0  0  0  0  0
    7.7347   -6.7701    0.0000 C   0  0  1  0  0  0  0  0  0  0  0  0
    7.0203   -6.3576    0.0000 C   0  0  0  0  0  0  0  0  0  0  0  0
    6.3058   -6.7701    0.0000 C   0  0  0  0  0  0  0  0  0  0  0  0
    6.3058   -7.5951    0.0000 C   0  0  2  0  0  0  0  0  0  0  0  0
    5.5913   -8.0076    0.0000 C   0  0  1  0  0  0  0  0  0  0  0  0
    3.4479   -9.2451    0.0000 O   0  0  0  0  0  0  0  0  0  0  0  0
    8.2223   -5.1174    0.0000 C   0  0  0  0  0  0  0  0  0  0  0  0
    8.7743   -5.7305    0.0000 C   0  0  2  0  0  0  0  0  0  0  0  0
    9.5813   -5.5590    0.0000 C   0  0  0  0  0  0  0  0  0  0  0  0
    9.8362   -4.7744    0.0000 C   0  0  0  0  0  0  0  0  0  0  0  0
   10.6432   -4.6028    0.0000 C   0  0  0  0  0  0  0  0  0  0  0  0
   10.8981   -3.8182    0.0000 C   0  0  0  0  0  0  0  0  0  0  0  0
   10.3461   -3.2051    0.0000 C   0  0  0  0  0  0  0  0  0  0  0  0
   11.7051   -3.6467    0.0000 C   0  0  0  0  0  0  0  0  0  0  0  0
    7.7347   -5.9451    0.0000 C   0  0  0  0  0  0  0  0  0  0  0  0
    5.5913   -7.1826    0.0000 C   0  0  0  0  0  0  0  0  0  0  0  0
    4.8768  -10.0701    0.0000 C   0  0  0  0  0  0  0  0  0  0  0  0
    5.5913   -9.6576    0.0000 H   0  0  0  0  0  0  0  0  0  0  0  0
    6.3058   -8.4201    0.0000 H   0  0  0  0  0  0  0  0  0  0  0  0
    7.7347   -8.4201    0.0000 H   0  0  0  0  0  0  0  0  0  0  0  0
    9.3040   -6.2602    0.0000 H   0  0  0  0  0  0  0  0  0  0  0  0
  1  2  1  0  0  0  0
  2  3  1  0  0  0  0
  3  4  1  0  0  0  0
  4  5  1  0  0  0  0
  5  6  1  0  0  0  0
  6  7  1  0  0  0  0
  7  8  2  0  0  0  0
  8  9  1  0  0  0  0
  9 10  1  0  0  0  0
 10 11  1  0  0  0  0
 12 11  1  0  0  0  0
 12 13  1  0  0  0  0
  9 13  1  0  0  0  0
 13 14  1  0  0  0  0
 14 15  1  0  0  0  0
 15 16  1  0  0  0  0
  8 16  1  0  0  0  0
 16 17  1  0  0  0  0
  5 17  1  0  0  0  0
  1 17  1  0  0  0  0
  3 18  1  1  0  0  0
 20 19  1  6  0  0  0
 20 21  1  0  0  0  0
 21 22  1  0  0  0  0
 22 23  1  0  0  0  0
 23 24  1  0  0  0  0
 24 25  1  0  0  0  0
 24 26  1  0  0  0  0
 12 20  1  0  0  0  0
 13 27  1  1  0  0  0
 17 28  1  1  0  0  0
  4 29  1  6  0  0  0
  5 30  1  6  0  0  0
 16 31  1  6  0  0  0
  9 32  1  6  0  0  0
 12 33  1  6  0  0  0
M  END
>  <cdx:fragmentId>
5

$$$$
