160478.cdx
  Mrv1902 05222410262D          

 15 16  0  0  0  0            999 V2000
   16.1832  -12.6419    0.0000 C   0  0  0  0  0  0  0  0  0  0  0  0
   16.8977  -13.0544    0.0000 C   0  0  0  0  0  0  0  0  0  0  0  0
   16.8977  -13.8794    0.0000 C   0  0  0  0  0  0  0  0  0  0  0  0
   16.1832  -14.2919    0.0000 C   0  0  0  0  0  0  0  0  0  0  0  0
   15.4688  -13.8794    0.0000 C   0  0  0  0  0  0  0  0  0  0  0  0
   14.7543  -14.2919    0.0000 C   0  0  0  0  0  0  0  0  0  0  0  0
   14.0398  -13.8794    0.0000 C   0  0  0  0  0  0  0  0  0  0  0  0
   14.0398  -13.0544    0.0000 C   0  0  0  0  0  0  0  0  0  0  0  0
   14.7543  -12.6419    0.0000 C   0  0  0  0  0  0  0  0  0  0  0  0
   15.4688  -13.0544    0.0000 C   0  0  0  0  0  0  0  0  0  0  0  0
   16.1832  -15.1169    0.0000 O   0  0  0  0  0  0  0  0  0  0  0  0
   16.1832  -11.8169    0.0000 O   0  0  0  0  0  0  0  0  0  0  0  0
   13.3253  -12.6419    0.0000 O   0  0  0  0  0  0  0  0  0  0  0  0
   14.7543  -15.1169    0.0000 O   0  0  0  0  0  0  0  0  0  0  0  0
   17.6122  -12.6419    0.0000 O   0  0  0  0  0  0  0  0  0  0  0  0
  1  2  1  0  0  0  0
  2  3  2  0  0  0  0
  3  4  1  0  0  0  0
  4  5  1  0  0  0  0
  5  6  1  0  0  0  0
  6  7  2  0  0  0  0
  7  8  1  0  0  0  0
  8  9  2  0  0  0  0
  9 10  1  0  0  0  0
  1 10  1  0  0  0  0
  5 10  2  0  0  0  0
  4 11  2  0  0  0  0
  1 12  2  0  0  0  0
  8 13  1  0  0  0  0
  6 14  1  0  0  0  0
  2 15  1  0  0  0  0
M  END
>  <cdx:fragmentId>
5430

$$$$
