16042.cdx
  Mrv1902 05222410202D          

 22 23  0  0  0  0            999 V2000
    6.5616   -7.4915    0.0000 O   0  0  0  0  0  0  0  0  0  0  0  0
    5.1376   -9.9579    0.0000 O   0  0  0  0  0  0  0  0  0  0  0  0
    5.8496   -7.9025    0.0000 C   0  0  0  0  0  0  0  0  0  0  0  0
    5.8496   -8.7247    0.0000 C   0  0  0  0  0  0  0  0  0  0  0  0
    5.1376   -9.1357    0.0000 C   0  0  0  0  0  0  0  0  0  0  0  0
    4.4256   -8.7247    0.0000 C   0  0  0  0  0  0  0  0  0  0  0  0
    4.4256   -7.9025    0.0000 C   0  0  0  0  0  0  0  0  0  0  0  0
    5.1376   -7.4915    0.0000 C   0  0  0  0  0  0  0  0  0  0  0  0
    5.1376   -6.6693    0.0000 C   0  0  0  0  0  0  0  0  0  0  0  0
    5.8496   -6.2583    0.0000 C   0  0  0  0  0  0  0  0  0  0  0  0
    6.5616   -6.6693    0.0000 C   0  0  0  0  0  0  0  0  0  0  0  0
    7.2736   -6.2583    0.0000 N   0  0  0  0  0  0  0  0  0  0  0  0
    7.9856   -6.6693    0.0000 C   0  0  0  0  0  0  0  0  0  0  0  0
   11.5455   -7.9025    0.0000 O   0  0  0  0  0  0  0  0  0  0  0  0
    9.4095   -7.4915    0.0000 C   0  0  0  0  0  0  0  0  0  0  0  0
   10.1215   -7.9025    0.0000 C   0  0  0  0  0  0  0  0  0  0  0  0
   10.8335   -7.4915    0.0000 C   0  0  0  0  0  0  0  0  0  0  0  0
   10.8335   -6.6693    0.0000 C   0  0  0  0  0  0  0  0  0  0  0  0
   10.1215   -6.2583    0.0000 C   0  0  0  0  0  0  0  0  0  0  0  0
    9.4095   -6.6693    0.0000 C   0  0  0  0  0  0  0  0  0  0  0  0
    8.6976   -5.4361    0.0000 O   0  0  0  0  0  0  0  0  0  0  0  0
    8.6976   -6.2583    0.0000 C   0  0  0  0  0  0  0  0  0  0  0  0
 12 11  1  0  0  0  0
 11  1  2  0  0  0  0
  5  2  1  0  0  0  0
  8  3  2  0  0  0  0
  4  3  1  0  0  0  0
  5  4  2  0  0  0  0
  6  5  1  0  0  0  0
  7  6  2  0  0  0  0
  8  7  1  0  0  0  0
  9  8  1  0  0  0  0
 10  9  2  0  0  0  0
 11 10  1  0  0  0  0
 13 12  1  0  0  0  0
 22 13  1  0  0  0  0
 17 14  1  0  0  0  0
 15 20  1  0  0  0  0
 16 15  2  0  0  0  0
 17 16  1  0  0  0  0
 18 17  2  0  0  0  0
 19 18  1  0  0  0  0
 20 19  2  0  0  0  0
 22 20  1  0  0  0  0
 22 21  1  0  0  0  0
M  END
>  <cdx:fragmentId>
2977

$$$$
