16043.cdx
  Mrv1902 05222410202D          

 22 23  0  0  0  0            999 V2000
    5.1376   -6.2583    0.0000 C   0  0  0  0  0  0  0  0  0  0  0  0
    4.4256   -6.6693    0.0000 C   0  0  0  0  0  0  0  0  0  0  0  0
    3.7136   -6.2583    0.0000 C   0  0  0  0  0  0  0  0  0  0  0  0
    3.0016   -6.6693    0.0000 C   0  0  0  0  0  0  0  0  0  0  0  0
    3.0016   -7.4915    0.0000 C   0  0  0  0  0  0  0  0  0  0  0  0
    3.7136   -7.9025    0.0000 C   0  0  0  0  0  0  0  0  0  0  0  0
    4.4256   -7.4915    0.0000 C   0  0  0  0  0  0  0  0  0  0  0  0
    2.2896   -7.9025    0.0000 O   0  0  0  0  0  0  0  0  0  0  0  0
    6.5616   -5.4361    0.0000 O   0  0  0  0  0  0  0  0  0  0  0  0
    5.8496   -6.6693    0.0000 C   0  0  0  0  0  0  0  0  0  0  0  0
    6.5616   -6.2583    0.0000 C   0  0  0  0  0  0  0  0  0  0  0  0
    7.2736   -6.6693    0.0000 N   0  0  0  0  0  0  0  0  0  0  0  0
    7.9856   -6.2583    0.0000 C   0  0  0  0  0  0  0  0  0  0  0  0
   11.5455   -5.0251    0.0000 O   0  0  0  0  0  0  0  0  0  0  0  0
    9.4095   -5.4361    0.0000 C   0  0  0  0  0  0  0  0  0  0  0  0
   10.1215   -5.0251    0.0000 C   0  0  0  0  0  0  0  0  0  0  0  0
   10.8335   -5.4361    0.0000 C   0  0  0  0  0  0  0  0  0  0  0  0
   10.8335   -6.2583    0.0000 C   0  0  0  0  0  0  0  0  0  0  0  0
   10.1215   -6.6693    0.0000 C   0  0  0  0  0  0  0  0  0  0  0  0
    9.4095   -6.2583    0.0000 C   0  0  0  0  0  0  0  0  0  0  0  0
    8.6976   -7.4915    0.0000 O   0  0  0  0  0  0  0  0  0  0  0  0
    8.6976   -6.6693    0.0000 C   0  0  0  0  0  0  0  0  0  0  0  0
 12 11  1  0  0  0  0
 11  9  2  0  0  0  0
 10  1  2  0  0  0  0
 11 10  1  0  0  0  0
 13 12  1  0  0  0  0
 22 13  1  0  0  0  0
  1  2  1  0  0  0  0
  2  3  1  0  0  0  0
  3  4  2  0  0  0  0
  4  5  1  0  0  0  0
  5  6  2  0  0  0  0
  6  7  1  0  0  0  0
  2  7  2  0  0  0  0
  5  8  1  0  0  0  0
 17 14  1  0  0  0  0
 15 20  1  0  0  0  0
 16 15  2  0  0  0  0
 17 16  1  0  0  0  0
 18 17  2  0  0  0  0
 19 18  1  0  0  0  0
 20 19  2  0  0  0  0
 22 20  1  0  0  0  0
 22 21  1  0  0  0  0
M  END
>  <cdx:fragmentId>
2977

$$$$
