160474.cdx
  Mrv1902 05222410212D          

 21 23  0  0  0  0            999 V2000
   15.8732  -12.7233    0.0000 C   0  0  0  0  0  0  0  0  0  0  0  0
   16.5877  -13.1358    0.0000 C   0  0  0  0  0  0  0  0  0  0  0  0
   16.5877  -13.9608    0.0000 C   0  0  0  0  0  0  0  0  0  0  0  0
   15.8732  -14.3733    0.0000 C   0  0  0  0  0  0  0  0  0  0  0  0
   15.1587  -13.9608    0.0000 C   0  0  0  0  0  0  0  0  0  0  0  0
   14.4443  -14.3733    0.0000 C   0  0  0  0  0  0  0  0  0  0  0  0
   14.4443  -15.1983    0.0000 O   0  0  0  0  0  0  0  0  0  0  0  0
   13.7298  -13.9608    0.0000 C   0  0  0  0  0  0  0  0  0  0  0  0
   13.0153  -14.3733    0.0000 C   0  0  0  0  0  0  0  0  0  0  0  0
   12.3009  -13.9608    0.0000 C   0  0  0  0  0  0  0  0  0  0  0  0
   12.3009  -13.1358    0.0000 C   0  0  0  0  0  0  0  0  0  0  0  0
   13.0153  -12.7233    0.0000 C   0  0  0  0  0  0  0  0  0  0  0  0
   13.7298  -13.1358    0.0000 C   0  0  0  0  0  0  0  0  0  0  0  0
   14.4443  -12.7233    0.0000 C   0  0  0  0  0  0  0  0  0  0  0  0
   14.4443  -11.8983    0.0000 O   0  0  0  0  0  0  0  0  0  0  0  0
   15.1587  -13.1358    0.0000 C   0  0  0  0  0  0  0  0  0  0  0  0
   17.3021  -12.7233    0.0000 C   0  0  0  0  0  0  0  0  0  0  0  0
   18.0166  -13.1358    0.0000 O   0  0  0  0  0  0  0  0  0  0  0  0
   17.3021  -14.3733    0.0000 O   0  0  0  0  0  0  0  0  0  0  0  0
   15.8732  -11.8983    0.0000 O   0  0  0  0  0  0  0  0  0  0  0  0
   16.5877  -11.4858    0.0000 C   0  0  0  0  0  0  0  0  0  0  0  0
  1  2  1  0  0  0  0
  2  3  2  0  0  0  0
  3  4  1  0  0  0  0
  4  5  2  0  0  0  0
  5  6  1  0  0  0  0
  6  7  2  0  0  0  0
  6  8  1  0  0  0  0
  8  9  1  0  0  0  0
  9 10  2  0  0  0  0
 10 11  1  0  0  0  0
 11 12  2  0  0  0  0
 12 13  1  0  0  0  0
  8 13  2  0  0  0  0
 13 14  1  0  0  0  0
 14 15  2  0  0  0  0
 14 16  1  0  0  0  0
  5 16  1  0  0  0  0
  1 16  2  0  0  0  0
 17 18  1  0  0  0  0
  2 17  1  0  0  0  0
  3 19  1  0  0  0  0
  1 20  1  0  0  0  0
 20 21  1  0  0  0  0
M  END
>  <cdx:fragmentId>
5327

$$$$
