16046.cdx
  Mrv1902 05222410182D          

 17 17  0  0  0  0            999 V2000
    6.1564   -6.2769    0.0000 C   0  0  0  0  0  0  0  0  0  0  0  0
    6.1564   -7.1019    0.0000 C   0  0  0  0  0  0  0  0  0  0  0  0
    6.8709   -7.5144    0.0000 C   0  0  0  0  0  0  0  0  0  0  0  0
    7.5853   -7.1019    0.0000 C   0  0  0  0  0  0  0  0  0  0  0  0
    7.5853   -6.2769    0.0000 C   0  0  0  0  0  0  0  0  0  0  0  0
    6.8709   -5.8644    0.0000 C   0  0  0  0  0  0  0  0  0  0  0  0
    5.4419   -7.5144    0.0000 O   0  0  0  0  0  0  0  0  0  0  0  0
    6.8709   -8.3394    0.0000 O   0  0  0  0  0  0  0  0  0  0  0  0
    6.8709   -5.0394    0.0000 O   0  0  0  0  0  0  0  0  0  0  0  0
    8.2998   -5.8644    0.0000 C   0  0  0  0  0  0  0  0  0  0  0  0
    9.0143   -6.2769    0.0000 C   0  0  1  0  0  0  0  0  0  0  0  0
    8.2998   -5.0394    0.0000 O   0  0  0  0  0  0  0  0  0  0  0  0
    9.7288   -5.8644    0.0000 C   0  0  0  0  0  0  0  0  0  0  0  0
    9.0143   -7.1019    0.0000 O   0  0  0  0  0  0  0  0  0  0  0  0
    6.1564   -4.6269    0.0000 C   0  0  0  0  0  0  0  0  0  0  0  0
    4.7275   -7.1019    0.0000 C   0  0  0  0  0  0  0  0  0  0  0  0
    6.1564   -8.7519    0.0000 C   0  0  0  0  0  0  0  0  0  0  0  0
  1  2  2  0  0  0  0
  2  3  1  0  0  0  0
  3  4  2  0  0  0  0
  4  5  1  0  0  0  0
  5  6  2  0  0  0  0
  6  1  1  0  0  0  0
  2  7  1  0  0  0  0
  3  8  1  0  0  0  0
  6  9  1  0  0  0  0
  5 10  1  0  0  0  0
 10 11  1  0  0  0  0
 10 12  2  0  0  0  0
 11 13  1  0  0  0  0
 11 14  1  1  0  0  0
  9 15  1  0  0  0  0
  7 16  1  0  0  0  0
  8 17  1  0  0  0  0
M  END
>  <cdx:fragmentId>
5

$$$$
