160511.cdx
  Mrv1902 05222410232D          

 16 17  0  0  0  0            999 V2000
   16.3423  -14.1796    0.0000 N   0  0  0  0  0  0  0  0  0  0  0  0
   16.3423  -13.3545    0.0000 C   0  0  2  0  0  0  0  0  0  0  0  0
   17.0573  -12.9145    0.0000 C   0  0  0  0  0  0  0  0  0  0  0  0
   15.6273  -12.9421    0.0000 C   0  0  0  0  0  0  0  0  0  0  0  0
   14.9123  -13.3821    0.0000 C   0  0  0  0  0  0  0  0  0  0  0  0
   14.8298  -14.2071    0.0000 C   0  0  0  0  0  0  0  0  0  0  0  0
   14.0598  -14.3721    0.0000 N   0  0  0  0  0  0  0  0  0  0  0  0
   13.5923  -13.6570    0.0000 C   0  0  0  0  0  0  0  0  0  0  0  0
   12.7948  -13.4920    0.0000 C   0  0  0  0  0  0  0  0  0  0  0  0
   12.5473  -12.7221    0.0000 C   0  0  0  0  0  0  0  0  0  0  0  0
   13.0698  -12.1170    0.0000 C   0  0  0  0  0  0  0  0  0  0  0  0
   13.8673  -12.2821    0.0000 C   0  0  0  0  0  0  0  0  0  0  0  0
   14.1423  -13.0245    0.0000 C   0  0  0  0  0  0  0  0  0  0  0  0
   17.0573  -12.0895    0.0000 O   0  0  0  0  0  0  0  0  0  0  0  0
   17.7723  -13.2996    0.0000 O   0  0  0  0  0  0  0  0  0  0  0  0
   17.0568  -14.5920    0.0000 C   0  0  0  0  0  0  0  0  0  0  0  0
  2  1  1  1  0  0  0
  2  3  1  0  0  0  0
  2  4  1  0  0  0  0
  4  5  1  0  0  0  0
  5  6  2  0  0  0  0
  6  7  1  0  0  0  0
  7  8  1  0  0  0  0
  8  9  2  0  0  0  0
  9 10  1  0  0  0  0
 10 11  2  0  0  0  0
 11 12  1  0  0  0  0
 12 13  2  0  0  0  0
  5 13  1  0  0  0  0
  8 13  1  0  0  0  0
  3 14  2  0  0  0  0
  3 15  1  0  0  0  0
  1 16  1  0  0  0  0
M  END
>  <cdx:fragmentId>
5626

$$$$
