160544.cdx
  Mrv1902 05222410272D          

 21 24  0  0  0  0            999 V2000
    5.5341   -6.3581    0.0000 C   0  0  0  0  0  0  0  0  0  0  0  0
    5.5341   -7.1831    0.0000 C   0  0  0  0  0  0  0  0  0  0  0  0
    6.2486   -7.5956    0.0000 C   0  0  0  0  0  0  0  0  0  0  0  0
    6.9631   -7.1831    0.0000 C   0  0  0  0  0  0  0  0  0  0  0  0
    7.6776   -7.5956    0.0000 C   0  0  0  0  0  0  0  0  0  0  0  0
    8.3920   -7.1831    0.0000 C   0  0  0  0  0  0  0  0  0  0  0  0
    8.3920   -6.3581    0.0000 C   0  0  0  0  0  0  0  0  0  0  0  0
    7.6776   -5.9456    0.0000 C   0  0  0  0  0  0  0  0  0  0  0  0
    6.9631   -6.3581    0.0000 C   0  0  0  0  0  0  0  0  0  0  0  0
    6.2486   -5.9456    0.0000 O   0  0  0  0  0  0  0  0  0  0  0  0
    9.1767   -6.1031    0.0000 O   0  0  0  0  0  0  0  0  0  0  0  0
    9.1767   -7.4380    0.0000 C   0  0  0  0  0  0  0  0  0  0  0  0
    9.6616   -6.7706    0.0000 C   0  0  0  0  0  0  0  0  0  0  0  0
    4.8197   -5.9456    0.0000 O   0  0  0  0  0  0  0  0  0  0  0  0
    7.6776   -8.4206    0.0000 O   0  0  0  0  0  0  0  0  0  0  0  0
    8.3920   -8.8331    0.0000 C   0  0  0  0  0  0  0  0  0  0  0  0
    7.9795  -10.3725    0.0000 O   0  0  0  0  0  0  0  0  0  0  0  0
    8.3920   -9.6581    0.0000 C   0  0  0  0  0  0  0  0  0  0  0  0
    8.8045  -10.3725    0.0000 C   0  0  0  0  0  0  0  0  0  0  0  0
    9.6295  -10.3725    0.0000 C   0  0  0  0  0  0  0  0  0  0  0  0
    9.2170  -11.0870    0.0000 C   0  0  0  0  0  0  0  0  0  0  0  0
  1  2  1  0  0  0  0
  2  3  2  0  0  0  0
  3  4  1  0  0  0  0
  4  5  2  0  0  0  0
  5  6  1  0  0  0  0
  6  7  2  0  0  0  0
  7  8  1  0  0  0  0
  8  9  2  0  0  0  0
  4  9  1  0  0  0  0
  9 10  1  0  0  0  0
  1 10  1  0  0  0  0
 12 13  2  0  0  0  0
 11 13  1  0  0  0  0
 12  6  1  0  0  0  0
 11  7  1  0  0  0  0
  1 14  2  0  0  0  0
 15 16  1  0  0  0  0
 17 18  1  0  0  0  0
 18 19  1  0  0  0  0
 17 19  1  0  0  0  0
 19 20  1  0  0  0  0
 19 21  1  0  0  0  0
 16 18  1  0  0  0  0
  5 15  1  0  0  0  0
M  END
>  <cdx:fragmentId>
5

$$$$
