160510.cdx
  Mrv1902 05222410222D          

 14 16  0  0  0  0            999 V2000
   15.3747  -12.6641    0.0000 N   0  0  0  0  0  0  0  0  0  0  0  0
   16.0422  -13.1491    0.0000 C   0  0  0  0  0  0  0  0  0  0  0  0
   16.8491  -12.9775    0.0000 C   0  0  0  0  0  0  0  0  0  0  0  0
   17.1041  -12.1929    0.0000 C   0  0  0  0  0  0  0  0  0  0  0  0
   17.4012  -13.5906    0.0000 N   0  0  0  0  0  0  0  0  0  0  0  0
   17.1462  -14.3752    0.0000 C   0  0  0  0  0  0  0  0  0  0  0  0
   16.3392  -14.5468    0.0000 C   0  0  0  0  0  0  0  0  0  0  0  0
   15.7872  -13.9337    0.0000 C   0  0  0  0  0  0  0  0  0  0  0  0
   14.9622  -13.9337    0.0000 C   0  0  0  0  0  0  0  0  0  0  0  0
   14.4102  -14.5468    0.0000 C   0  0  0  0  0  0  0  0  0  0  0  0
   13.6032  -14.3752    0.0000 C   0  0  0  0  0  0  0  0  0  0  0  0
   13.3483  -13.5906    0.0000 C   0  0  0  0  0  0  0  0  0  0  0  0
   13.9003  -12.9775    0.0000 C   0  0  0  0  0  0  0  0  0  0  0  0
   14.7073  -13.1491    0.0000 C   0  0  0  0  0  0  0  0  0  0  0  0
  1  2  1  0  0  0  0
  2  3  1  0  0  0  0
  3  4  1  0  0  0  0
  3  5  2  0  0  0  0
  5  6  1  0  0  0  0
  6  7  2  0  0  0  0
  7  8  1  0  0  0  0
  2  8  2  0  0  0  0
  8  9  1  0  0  0  0
  9 10  1  0  0  0  0
 10 11  2  0  0  0  0
 11 12  1  0  0  0  0
 12 13  2  0  0  0  0
 13 14  1  0  0  0  0
  9 14  2  0  0  0  0
  1 14  1  0  0  0  0
M  END
>  <cdx:groupId>
5622

>  <cdx:fragmentId>
5581

$$$$
