160597.cdx
  Mrv1902 05222410272D          

 21 25  0  0  0  0            999 V2000
    8.8953   -8.5877    0.0000 N   0  0  0  0  0  0  0  0  0  0  0  0
    9.6097   -8.1750    0.0000 C   0  0  0  0  0  0  0  0  0  0  0  0
    9.6099   -7.3500    0.0000 C   0  0  0  0  0  0  0  0  0  0  0  0
    8.8949   -6.9384    0.0000 C   0  0  0  0  0  0  0  0  0  0  0  0
    8.1805   -7.3509    0.0000 C   0  0  0  0  0  0  0  0  0  0  0  0
    7.4660   -6.9384    0.0000 C   0  0  0  0  0  0  0  0  0  0  0  0
    6.7515   -7.3509    0.0000 C   0  0  0  0  0  0  0  0  0  0  0  0
    6.7515   -8.1759    0.0000 C   0  0  0  0  0  0  0  0  0  0  0  0
    7.4660   -8.5884    0.0000 C   0  0  0  0  0  0  0  0  0  0  0  0
    8.1805   -8.1759    0.0000 C   0  0  1  0  0  0  0  0  0  0  0  0
    8.0089   -4.8939    0.0000 O   0  0  0  0  0  0  0  0  0  0  0  0
    7.1884   -4.8077    0.0000 C   0  0  0  0  0  0  0  0  0  0  0  0
    6.8529   -5.5613    0.0000 O   0  0  0  0  0  0  0  0  0  0  0  0
    7.4660   -6.1134    0.0000 C   0  0  0  0  0  0  0  0  0  0  0  0
    8.1805   -5.7009    0.0000 C   0  0  0  0  0  0  0  0  0  0  0  0
    8.8949   -6.1134    0.0000 C   0  0  0  0  0  0  0  0  0  0  0  0
    6.0370   -8.5884    0.0000 C   0  0  0  0  0  0  0  0  0  0  0  0
    5.3226   -8.1759    0.0000 C   0  0  0  0  0  0  0  0  0  0  0  0
    5.3226   -7.3509    0.0000 C   0  0  0  0  0  0  0  0  0  0  0  0
    6.0370   -6.9384    0.0000 C   0  0  0  0  0  0  0  0  0  0  0  0
    8.1805   -9.0009    0.0000 H   0  0  0  0  0  0  0  0  0  0  0  0
  1  2  1  0  0  0  0
  2  3  1  0  0  0  0
  3  4  1  0  0  0  0
  4  5  1  0  0  0  0
  5  6  2  0  0  0  0
  6  7  1  0  0  0  0
  7  8  1  0  0  0  0
  8  9  1  0  0  0  0
  9 10  1  0  0  0  0
  1 10  1  0  0  0  0
  5 10  1  0  0  0  0
 11 12  1  0  0  0  0
 12 13  1  0  0  0  0
 13 14  1  0  0  0  0
 14 15  2  0  0  0  0
 11 15  1  0  0  0  0
 15 16  1  0  0  0  0
  4 16  2  0  0  0  0
  6 14  1  0  0  0  0
 17 18  1  0  0  0  0
 18 19  2  0  0  0  0
 19 20  1  0  0  0  0
  7 20  2  0  0  0  0
  8 17  2  0  0  0  0
 10 21  1  1  0  0  0
M  END
>  <cdx:fragmentId>
5755

$$$$
