160500.cdx
  Mrv1902 05222410212D          

 25 28  0  0  0  0            999 V2000
    6.0605   -7.3517    0.0000 C   0  0  0  0  0  0  0  0  0  0  0  0
    6.0605   -8.1767    0.0000 C   0  0  0  0  0  0  0  0  0  0  0  0
    6.7750   -8.5892    0.0000 C   0  0  0  0  0  0  0  0  0  0  0  0
    7.4895   -8.1767    0.0000 C   0  0  0  0  0  0  0  0  0  0  0  0
    7.4895   -7.3517    0.0000 C   0  0  0  0  0  0  0  0  0  0  0  0
    6.7750   -6.9392    0.0000 C   0  0  0  0  0  0  0  0  0  0  0  0
    8.2039   -8.5892    0.0000 C   0  0  0  0  0  0  0  0  0  0  0  0
    8.9184   -8.1767    0.0000 C   0  0  1  0  0  0  0  0  0  0  0  0
    8.9184   -7.3517    0.0000 C   0  0  0  0  0  0  0  0  0  0  0  0
    8.2039   -6.9392    0.0000 C   0  0  0  0  0  0  0  0  0  0  0  0
    9.6329   -8.5892    0.0000 N   0  0  0  0  0  0  0  0  0  0  0  0
   10.3473   -8.1767    0.0000 C   0  0  0  0  0  0  0  0  0  0  0  0
   10.3473   -7.3517    0.0000 C   0  0  0  0  0  0  0  0  0  0  0  0
    9.6329   -6.9392    0.0000 C   0  0  0  0  0  0  0  0  0  0  0  0
    9.6329   -6.1142    0.0000 C   0  0  0  0  0  0  0  0  0  0  0  0
    8.9184   -5.7017    0.0000 C   0  0  0  0  0  0  0  0  0  0  0  0
    8.2039   -6.1142    0.0000 C   0  0  0  0  0  0  0  0  0  0  0  0
    5.3460   -6.9392    0.0000 O   0  0  0  0  0  0  0  0  0  0  0  0
    4.6316   -7.3517    0.0000 C   0  0  0  0  0  0  0  0  0  0  0  0
    6.7750   -6.1142    0.0000 O   0  0  0  0  0  0  0  0  0  0  0  0
    7.4895   -5.7017    0.0000 O   0  0  0  0  0  0  0  0  0  0  0  0
    8.9184   -4.8767    0.0000 O   0  0  0  0  0  0  0  0  0  0  0  0
    8.2039   -4.4642    0.0000 C   0  0  0  0  0  0  0  0  0  0  0  0
    9.6329   -9.4142    0.0000 C   0  0  0  0  0  0  0  0  0  0  0  0
    8.9184   -9.0017    0.0000 H   0  0  0  0  0  0  0  0  0  0  0  0
  1  2  2  0  0  0  0
  2  3  1  0  0  0  0
  3  4  2  0  0  0  0
  4  5  1  0  0  0  0
  5  6  2  0  0  0  0
  6  1  1  0  0  0  0
  4  7  1  0  0  0  0
  7  8  1  0  0  0  0
  8  9  1  0  0  0  0
  9 10  2  0  0  0  0
 10  5  1  0  0  0  0
  8 11  1  0  0  0  0
 11 12  1  0  0  0  0
 12 13  1  0  0  0  0
 13 14  1  0  0  0  0
 14  9  1  0  0  0  0
 14 15  2  0  0  0  0
 15 16  1  0  0  0  0
 16 17  2  0  0  0  0
 17 10  1  0  0  0  0
  1 18  1  0  0  0  0
 18 19  1  0  0  0  0
  6 20  1  0  0  0  0
 17 21  1  0  0  0  0
 16 22  1  0  0  0  0
 22 23  1  0  0  0  0
 11 24  1  0  0  0  0
  8 25  1  6  0  0  0
M  END
>  <cdx:fragmentId>
5517

$$$$
