16054.cdx
  Mrv1902 05222410192D          

 10 11  0  0  0  0            999 V2000
    8.1887   -5.2814    0.0000 N   0  0  0  0  0  0  0  0  0  0  0  0
    8.6737   -4.6139    0.0000 C   0  0  0  0  0  0  0  0  0  0  0  0
    8.1887   -3.9465    0.0000 C   0  0  0  0  0  0  0  0  0  0  0  0
    7.4041   -4.2014    0.0000 C   0  0  0  0  0  0  0  0  0  0  0  0
    6.6896   -3.7889    0.0000 C   0  0  0  0  0  0  0  0  0  0  0  0
    5.9752   -4.2014    0.0000 C   0  0  0  0  0  0  0  0  0  0  0  0
    5.9752   -5.0264    0.0000 C   0  0  0  0  0  0  0  0  0  0  0  0
    6.6896   -5.4389    0.0000 C   0  0  0  0  0  0  0  0  0  0  0  0
    7.4041   -5.0264    0.0000 C   0  0  0  0  0  0  0  0  0  0  0  0
    5.2607   -3.7889    0.0000 O   0  0  0  0  0  0  0  0  0  0  0  0
  1  2  1  0  0  0  0
  2  3  2  0  0  0  0
  3  4  1  0  0  0  0
  4  5  1  0  0  0  0
  5  6  2  0  0  0  0
  6  7  1  0  0  0  0
  7  8  2  0  0  0  0
  8  9  1  0  0  0  0
  1  9  1  0  0  0  0
  4  9  2  0  0  0  0
  6 10  1  0  0  0  0
M  END
>  <cdx:fragmentId>
5

$$$$
