160710.cdx
  Mrv1902 05222410222D          

 16 17  0  0  0  0            999 V2000
    7.2012   -7.4543    0.0000 C   0  0  1  0  0  0  0  0  0  0  0  0
    6.4845   -7.0456    0.0000 C   0  0  0  0  0  0  0  0  0  0  0  0
    5.7723   -7.4619    0.0000 C   0  0  0  0  0  0  0  0  0  0  0  0
    5.7767   -8.2869    0.0000 C   0  0  0  0  0  0  0  0  0  0  0  0
    6.4934   -8.6955    0.0000 C   0  0  0  0  0  0  0  0  0  0  0  0
    7.2056   -8.2792    0.0000 C   0  0  1  0  0  0  0  0  0  0  0  0
    8.2507   -9.3132    0.0000 O   0  0  0  0  0  0  0  0  0  0  0  0
    7.9916   -8.5300    0.0000 C   0  0  0  0  0  0  0  0  0  0  0  0
    8.4729   -7.8600    0.0000 O   0  0  0  0  0  0  0  0  0  0  0  0
    7.9845   -7.1951    0.0000 C   0  0  1  0  0  0  0  0  0  0  0  0
    8.2352   -6.4092    0.0000 C   0  0  0  0  0  0  0  0  0  0  0  0
    9.0412   -6.2334    0.0000 C   0  0  0  0  0  0  0  0  0  0  0  0
    9.2919   -5.4474    0.0000 C   0  0  0  0  0  0  0  0  0  0  0  0
   10.0980   -5.2716    0.0000 C   0  0  0  0  0  0  0  0  0  0  0  0
    7.1968   -6.6293    0.0000 H   0  0  0  0  0  0  0  0  0  0  0  0
    7.2100   -9.1042    0.0000 H   0  0  0  0  0  0  0  0  0  0  0  0
  6  1  1  0  0  0  0
 10  1  1  0  0  0  0
  1  2  1  0  0  0  0
  3  2  1  0  0  0  0
  4  3  1  0  0  0  0
  5  4  2  0  0  0  0
  6  5  1  0  0  0  0
  8  6  1  0  0  0  0
  8  7  2  0  0  0  0
  9  8  1  0  0  0  0
 10  9  1  0  0  0  0
 10 11  1  6  0  0  0
 12 11  1  0  0  0  0
 13 12  1  0  0  0  0
 14 13  1  0  0  0  0
  1 15  1  1  0  0  0
  6 16  1  1  0  0  0
M  END
>  <cdx:fragmentId>
5874

$$$$
