160712.cdx
  Mrv1902 05222410222D          

 20 22  0  0  0  0            999 V2000
    8.0687   -5.8414    0.0000 C   0  0  0  0  0  0  0  0  0  0  0  0
    8.7831   -6.2539    0.0000 C   0  0  0  0  0  0  0  0  0  0  0  0
    8.7831   -7.0789    0.0000 C   0  0  0  0  0  0  0  0  0  0  0  0
    8.0687   -7.4914    0.0000 C   0  0  0  0  0  0  0  0  0  0  0  0
    7.3542   -7.0789    0.0000 C   0  0  0  0  0  0  0  0  0  0  0  0
    6.6397   -7.4914    0.0000 C   0  0  0  0  0  0  0  0  0  0  0  0
    5.9253   -7.0789    0.0000 C   0  0  0  0  0  0  0  0  0  0  0  0
    5.2108   -7.4914    0.0000 C   0  0  0  0  0  0  0  0  0  0  0  0
    4.4963   -7.0789    0.0000 C   0  0  0  0  0  0  0  0  0  0  0  0
    4.4963   -6.2539    0.0000 C   0  0  0  0  0  0  0  0  0  0  0  0
    5.2108   -5.8414    0.0000 C   0  0  0  0  0  0  0  0  0  0  0  0
    5.9253   -6.2539    0.0000 C   0  0  0  0  0  0  0  0  0  0  0  0
    6.6397   -5.8414    0.0000 C   0  0  0  0  0  0  0  0  0  0  0  0
    7.3542   -6.2539    0.0000 C   0  0  0  0  0  0  0  0  0  0  0  0
    9.4976   -5.8414    0.0000 C   0  0  0  0  0  0  0  0  0  0  0  0
   10.2121   -6.2539    0.0000 O   0  0  0  0  0  0  0  0  0  0  0  0
    6.6397   -8.3164    0.0000 O   0  0  0  0  0  0  0  0  0  0  0  0
    6.6397   -5.0164    0.0000 O   0  0  0  0  0  0  0  0  0  0  0  0
    9.4976   -7.4914    0.0000 O   0  0  0  0  0  0  0  0  0  0  0  0
    8.0687   -5.0164    0.0000 O   0  0  0  0  0  0  0  0  0  0  0  0
  1  2  1  0  0  0  0
  2  3  2  0  0  0  0
  3  4  1  0  0  0  0
  4  5  2  0  0  0  0
  5  6  1  0  0  0  0
  6  7  1  0  0  0  0
  7  8  1  0  0  0  0
  8  9  2  0  0  0  0
  9 10  1  0  0  0  0
 10 11  2  0  0  0  0
 11 12  1  0  0  0  0
  7 12  2  0  0  0  0
 12 13  1  0  0  0  0
 13 14  1  0  0  0  0
  5 14  1  0  0  0  0
  1 14  2  0  0  0  0
 15 16  2  0  0  0  0
  2 15  1  0  0  0  0
  6 17  2  0  0  0  0
 13 18  2  0  0  0  0
  3 19  1  0  0  0  0
  1 20  1  0  0  0  0
M  END
>  <cdx:fragmentId>
5911

$$$$
