1607.cdx
  Mrv1902 05222410242D          

 23 24  0  0  0  0            999 V2000
    2.2308   -5.9194    0.0000 C   0  0  0  0  0  0  0  0  0  0  0  0
    2.2308   -6.7444    0.0000 C   0  0  0  0  0  0  0  0  0  0  0  0
    2.9452   -7.1569    0.0000 C   0  0  0  0  0  0  0  0  0  0  0  0
    3.6597   -6.7444    0.0000 C   0  0  0  0  0  0  0  0  0  0  0  0
    3.6597   -5.9194    0.0000 C   0  0  0  0  0  0  0  0  0  0  0  0
    2.9452   -5.5069    0.0000 C   0  0  0  0  0  0  0  0  0  0  0  0
    4.3742   -5.5069    0.0000 C   0  0  0  0  0  0  0  0  0  0  0  0
    5.0887   -5.9194    0.0000 C   0  0  0  0  0  0  0  0  0  0  0  0
    5.8031   -5.5069    0.0000 C   0  0  1  0  0  0  0  0  0  0  0  0
    6.5176   -5.9194    0.0000 C   0  0  0  0  0  0  0  0  0  0  0  0
    7.2321   -5.5069    0.0000 C   0  0  0  0  0  0  0  0  0  0  0  0
    7.9465   -5.9194    0.0000 C   0  0  0  0  0  0  0  0  0  0  0  0
    8.6610   -5.5069    0.0000 C   0  0  0  0  0  0  0  0  0  0  0  0
    9.3755   -5.9194    0.0000 C   0  0  0  0  0  0  0  0  0  0  0  0
    9.3755   -6.7444    0.0000 C   0  0  0  0  0  0  0  0  0  0  0  0
   10.0900   -7.1569    0.0000 C   0  0  0  0  0  0  0  0  0  0  0  0
   10.8044   -6.7444    0.0000 C   0  0  0  0  0  0  0  0  0  0  0  0
   10.8044   -5.9194    0.0000 C   0  0  0  0  0  0  0  0  0  0  0  0
   10.0900   -5.5069    0.0000 C   0  0  0  0  0  0  0  0  0  0  0  0
    1.5163   -5.5069    0.0000 O   0  0  0  0  0  0  0  0  0  0  0  0
    1.5163   -7.1569    0.0000 O   0  0  0  0  0  0  0  0  0  0  0  0
   11.5189   -7.1569    0.0000 O   0  0  0  0  0  0  0  0  0  0  0  0
    5.8031   -4.6819    0.0000 O   0  0  0  0  0  0  0  0  0  0  0  0
  1  2  2  0  0  0  0
  2  3  1  0  0  0  0
  3  4  2  0  0  0  0
  4  5  1  0  0  0  0
  5  6  2  0  0  0  0
  6  1  1  0  0  0  0
  5  7  1  0  0  0  0
  7  8  1  0  0  0  0
  8  9  1  0  0  0  0
  9 10  1  0  0  0  0
 10 11  1  0  0  0  0
 11 12  1  0  0  0  0
 12 13  2  0  0  0  0
 13 14  1  0  0  0  0
 14 15  2  0  0  0  0
 15 16  1  0  0  0  0
 16 17  2  0  0  0  0
 17 18  1  0  0  0  0
 18 19  2  0  0  0  0
 19 14  1  0  0  0  0
  1 20  1  0  0  0  0
  2 21  1  0  0  0  0
 17 22  1  0  0  0  0
  9 23  1  6  0  0  0
M  END
>  <cdx:fragmentId>
5

$$$$
