160705.cdx
  Mrv1902 05222410222D          

 28 32  0  0  0  0            999 V2000
   12.7120  -14.6256    0.0000 C   0  0  0  0  0  0  0  0  0  0  0  0
   13.4264  -15.0381    0.0000 O   0  0  0  0  0  0  0  0  0  0  0  0
   14.1409  -14.6256    0.0000 C   0  0  0  0  0  0  0  0  0  0  0  0
   14.1409  -13.8006    0.0000 C   0  0  0  0  0  0  0  0  0  0  0  0
   14.8554  -13.3881    0.0000 C   0  0  0  0  0  0  0  0  0  0  0  0
   15.5698  -13.8006    0.0000 C   0  0  0  0  0  0  0  0  0  0  0  0
   15.5698  -14.6256    0.0000 C   0  0  0  0  0  0  0  0  0  0  0  0
   16.2843  -15.0381    0.0000 O   0  0  0  0  0  0  0  0  0  0  0  0
   16.9988  -14.6256    0.0000 C   0  0  0  0  0  0  0  0  0  0  0  0
   14.8554  -15.0381    0.0000 C   0  0  0  0  0  0  0  0  0  0  0  0
   14.8554  -15.8631    0.0000 O   0  0  0  0  0  0  0  0  0  0  0  0
   14.8554  -12.5631    0.0000 C   0  0  0  0  0  0  0  0  0  0  0  0
   14.1409  -12.1506    0.0000 C   0  0  0  0  0  0  0  0  0  0  0  0
   14.1409  -11.3256    0.0000 C   0  0  0  0  0  0  0  0  0  0  0  0
   13.3563  -11.0707    0.0000 C   0  0  0  0  0  0  0  0  0  0  0  0
   12.8714  -11.7381    0.0000 O   0  0  0  0  0  0  0  0  0  0  0  0
   13.3563  -12.4055    0.0000 C   0  0  0  0  0  0  0  0  0  0  0  0
   13.1014  -13.1902    0.0000 O   0  0  0  0  0  0  0  0  0  0  0  0
   14.8554  -10.9131    0.0000 C   0  0  0  0  0  0  0  0  0  0  0  0
   15.5698  -11.3256    0.0000 C   0  0  0  0  0  0  0  0  0  0  0  0
   16.2843  -10.9131    0.0000 C   0  0  0  0  0  0  0  0  0  0  0  0
   16.9988  -11.3256    0.0000 C   0  0  0  0  0  0  0  0  0  0  0  0
   16.9988  -12.1506    0.0000 C   0  0  0  0  0  0  0  0  0  0  0  0
   17.7834  -12.4055    0.0000 O   0  0  0  0  0  0  0  0  0  0  0  0
   18.2683  -11.7381    0.0000 C   0  0  0  0  0  0  0  0  0  0  0  0
   17.7834  -11.0707    0.0000 O   0  0  0  0  0  0  0  0  0  0  0  0
   16.2843  -12.5631    0.0000 C   0  0  0  0  0  0  0  0  0  0  0  0
   15.5698  -12.1506    0.0000 C   0  0  0  0  0  0  0  0  0  0  0  0
  1  2  1  0  0  0  0
  2  3  1  0  0  0  0
  3  4  2  0  0  0  0
  4  5  1  0  0  0  0
  5  6  2  0  0  0  0
  6  7  1  0  0  0  0
  7  8  1  0  0  0  0
  8  9  1  0  0  0  0
  7 10  2  0  0  0  0
  3 10  1  0  0  0  0
 10 11  1  0  0  0  0
  5 12  1  0  0  0  0
 12 13  1  0  0  0  0
 13 14  1  0  0  0  0
 14 15  1  0  0  0  0
 15 16  1  0  0  0  0
 16 17  1  0  0  0  0
 13 17  1  0  0  0  0
 17 18  2  0  0  0  0
 14 19  1  0  0  0  0
 19 20  1  0  0  0  0
 20 21  2  0  0  0  0
 21 22  1  0  0  0  0
 22 23  2  0  0  0  0
 23 24  1  0  0  0  0
 24 25  1  0  0  0  0
 25 26  1  0  0  0  0
 22 26  1  0  0  0  0
 23 27  1  0  0  0  0
 27 28  2  0  0  0  0
 12 28  1  0  0  0  0
 20 28  1  0  0  0  0
M  END
>  <cdx:fragmentId>
5808

$$$$
