160817.cdx
  Mrv1902 05222410282D          

 18 20  0  0  0  0            999 V2000
    8.4323   -6.6389    0.0000 C   0  0  0  0  0  0  0  0  0  0  0  0
    9.1467   -7.0514    0.0000 C   0  0  0  0  0  0  0  0  0  0  0  0
    9.1467   -7.8764    0.0000 C   0  0  0  0  0  0  0  0  0  0  0  0
    8.4323   -8.2889    0.0000 C   0  0  0  0  0  0  0  0  0  0  0  0
    7.7178   -7.8764    0.0000 C   0  0  0  0  0  0  0  0  0  0  0  0
    7.0033   -8.2889    0.0000 C   0  0  0  0  0  0  0  0  0  0  0  0
    7.0033   -9.1139    0.0000 O   0  0  0  0  0  0  0  0  0  0  0  0
    6.2888   -7.8764    0.0000 C   0  0  0  0  0  0  0  0  0  0  0  0
    5.5744   -8.2889    0.0000 C   0  0  0  0  0  0  0  0  0  0  0  0
    4.8599   -7.8764    0.0000 C   0  0  0  0  0  0  0  0  0  0  0  0
    4.8599   -7.0514    0.0000 C   0  0  0  0  0  0  0  0  0  0  0  0
    5.5744   -6.6389    0.0000 C   0  0  0  0  0  0  0  0  0  0  0  0
    6.2888   -7.0514    0.0000 C   0  0  0  0  0  0  0  0  0  0  0  0
    7.0033   -6.6389    0.0000 C   0  0  0  0  0  0  0  0  0  0  0  0
    7.0033   -5.8139    0.0000 O   0  0  0  0  0  0  0  0  0  0  0  0
    7.7178   -7.0514    0.0000 C   0  0  0  0  0  0  0  0  0  0  0  0
    9.8612   -6.6389    0.0000 C   0  0  0  0  0  0  0  0  0  0  0  0
    8.4323   -5.8139    0.0000 O   0  0  0  0  0  0  0  0  0  0  0  0
  1  2  1  0  0  0  0
  2  3  2  0  0  0  0
  3  4  1  0  0  0  0
  4  5  2  0  0  0  0
  5  6  1  0  0  0  0
  6  7  2  0  0  0  0
  6  8  1  0  0  0  0
  8  9  1  0  0  0  0
  9 10  2  0  0  0  0
 10 11  1  0  0  0  0
 11 12  2  0  0  0  0
 12 13  1  0  0  0  0
  8 13  2  0  0  0  0
 13 14  1  0  0  0  0
 14 15  2  0  0  0  0
 14 16  1  0  0  0  0
  5 16  1  0  0  0  0
  1 16  2  0  0  0  0
  2 17  1  0  0  0  0
  1 18  1  0  0  0  0
M  END
>  <cdx:groupId>
6139

>  <cdx:fragmentId>
6086

$$$$
