160875.cdx
  Mrv1902 05222410252D          

 21 24  0  0  0  0            999 V2000
    8.8124   -8.5070    0.0000 N   0  0  0  0  0  0  0  0  0  0  0  0
    9.5267   -8.0943    0.0000 C   0  0  0  0  0  0  0  0  0  0  0  0
    9.5270   -7.2693    0.0000 C   0  0  0  0  0  0  0  0  0  0  0  0
    8.8129   -6.8561    0.0000 C   0  0  0  0  0  0  0  0  0  0  0  0
    8.0984   -7.2686    0.0000 C   0  0  0  0  0  0  0  0  0  0  0  0
    7.3840   -6.8561    0.0000 C   0  0  0  0  0  0  0  0  0  0  0  0
    6.6695   -7.2686    0.0000 C   0  0  0  0  0  0  0  0  0  0  0  0
    6.6695   -8.0936    0.0000 C   0  0  0  0  0  0  0  0  0  0  0  0
    7.3840   -8.5061    0.0000 C   0  0  0  0  0  0  0  0  0  0  0  0
    8.0984   -8.0936    0.0000 C   0  0  1  0  0  0  0  0  0  0  0  0
    7.3840   -6.0311    0.0000 C   0  0  0  0  0  0  0  0  0  0  0  0
    8.0984   -5.6186    0.0000 C   0  0  0  0  0  0  0  0  0  0  0  0
    8.8129   -6.0311    0.0000 C   0  0  0  0  0  0  0  0  0  0  0  0
    5.9550   -8.5061    0.0000 C   0  0  0  0  0  0  0  0  0  0  0  0
    5.2405   -8.0936    0.0000 C   0  0  0  0  0  0  0  0  0  0  0  0
    5.2405   -7.2686    0.0000 C   0  0  0  0  0  0  0  0  0  0  0  0
    5.9550   -6.8561    0.0000 C   0  0  0  0  0  0  0  0  0  0  0  0
    8.0984   -4.7936    0.0000 O   0  0  0  0  0  0  0  0  0  0  0  0
    6.6695   -5.6186    0.0000 O   0  0  0  0  0  0  0  0  0  0  0  0
    5.9550   -6.0311    0.0000 C   0  0  0  0  0  0  0  0  0  0  0  0
    8.0984   -8.9186    0.0000 H   0  0  0  0  0  0  0  0  0  0  0  0
  1  2  1  0  0  0  0
  2  3  1  0  0  0  0
  3  4  1  0  0  0  0
  4  5  1  0  0  0  0
  5  6  2  0  0  0  0
  6  7  1  0  0  0  0
  7  8  1  0  0  0  0
  8  9  1  0  0  0  0
  9 10  1  0  0  0  0
  1 10  1  0  0  0  0
  5 10  1  0  0  0  0
 11 12  2  0  0  0  0
 12 13  1  0  0  0  0
 13  4  2  0  0  0  0
 11  6  1  0  0  0  0
 14 15  1  0  0  0  0
 15 16  2  0  0  0  0
 16 17  1  0  0  0  0
 17  7  2  0  0  0  0
 14  8  2  0  0  0  0
 12 18  1  0  0  0  0
 19 20  1  0  0  0  0
 11 19  1  0  0  0  0
 10 21  1  1  0  0  0
M  END
>  <cdx:fragmentId>
6150

$$$$
