160921.cdx
  Mrv1902 05222410222D          

 25 27  0  0  0  0            999 V2000
    8.0160   -6.5151    0.0000 C   0  0  0  0  0  0  0  0  0  0  0  0
    8.0160   -7.3401    0.0000 C   0  0  0  0  0  0  0  0  0  0  0  0
    7.3015   -7.7526    0.0000 C   0  0  0  0  0  0  0  0  0  0  0  0
    7.3015   -8.5776    0.0000 O   0  0  0  0  0  0  0  0  0  0  0  0
    6.5870   -7.3401    0.0000 C   0  0  0  0  0  0  0  0  0  0  0  0
    5.8726   -7.7526    0.0000 C   0  0  0  0  0  0  0  0  0  0  0  0
    5.1581   -7.3401    0.0000 C   0  0  0  0  0  0  0  0  0  0  0  0
    5.1581   -6.5151    0.0000 C   0  0  0  0  0  0  0  0  0  0  0  0
    5.8726   -6.1026    0.0000 C   0  0  0  0  0  0  0  0  0  0  0  0
    6.5870   -6.5151    0.0000 C   0  0  0  0  0  0  0  0  0  0  0  0
    7.3015   -6.1026    0.0000 O   0  0  0  0  0  0  0  0  0  0  0  0
    8.7305   -6.1026    0.0000 C   0  0  0  0  0  0  0  0  0  0  0  0
    8.7305   -5.2776    0.0000 C   0  0  0  0  0  0  0  0  0  0  0  0
    9.4449   -4.8651    0.0000 C   0  0  0  0  0  0  0  0  0  0  0  0
   10.1594   -5.2776    0.0000 C   0  0  0  0  0  0  0  0  0  0  0  0
   10.1594   -6.1026    0.0000 C   0  0  0  0  0  0  0  0  0  0  0  0
    9.4449   -6.5151    0.0000 C   0  0  0  0  0  0  0  0  0  0  0  0
   10.8739   -4.8651    0.0000 O   0  0  0  0  0  0  0  0  0  0  0  0
   11.5883   -5.2776    0.0000 C   0  0  0  0  0  0  0  0  0  0  0  0
    5.8726   -5.2776    0.0000 O   0  0  0  0  0  0  0  0  0  0  0  0
    5.1581   -4.8651    0.0000 C   0  0  0  0  0  0  0  0  0  0  0  0
    4.4436   -7.7526    0.0000 O   0  0  0  0  0  0  0  0  0  0  0  0
    3.7292   -7.3401    0.0000 C   0  0  0  0  0  0  0  0  0  0  0  0
    4.4436   -6.1026    0.0000 O   0  0  0  0  0  0  0  0  0  0  0  0
    5.8726   -8.5776    0.0000 O   0  0  0  0  0  0  0  0  0  0  0  0
  1  2  2  0  0  0  0
  2  3  1  0  0  0  0
  3  4  2  0  0  0  0
  3  5  1  0  0  0  0
  5  6  1  0  0  0  0
  6  7  2  0  0  0  0
  7  8  1  0  0  0  0
  8  9  2  0  0  0  0
  9 10  1  0  0  0  0
  5 10  2  0  0  0  0
 10 11  1  0  0  0  0
  1 11  1  0  0  0  0
  1 12  1  0  0  0  0
 12 13  1  0  0  0  0
 13 14  2  0  0  0  0
 14 15  1  0  0  0  0
 15 16  2  0  0  0  0
 16 17  1  0  0  0  0
 12 17  2  0  0  0  0
 18 19  1  0  0  0  0
 15 18  1  0  0  0  0
 20 21  1  0  0  0  0
  9 20  1  0  0  0  0
 22 23  1  0  0  0  0
  7 22  1  0  0  0  0
  8 24  1  0  0  0  0
  6 25  1  0  0  0  0
M  END
>  <cdx:fragmentId>
6280

$$$$
