16110.cdx
  Mrv1902 05222410272D          

 14 14  0  0  0  0            999 V2000
    5.8998   -6.8266    0.0000 C   0  0  0  0  0  0  0  0  0  0  0  0
    5.8998   -7.6516    0.0000 C   0  0  0  0  0  0  0  0  0  0  0  0
    6.6143   -8.0641    0.0000 C   0  0  0  0  0  0  0  0  0  0  0  0
    7.3288   -7.6516    0.0000 C   0  0  0  0  0  0  0  0  0  0  0  0
    7.3288   -6.8266    0.0000 C   0  0  0  0  0  0  0  0  0  0  0  0
    6.6143   -6.4141    0.0000 C   0  0  0  0  0  0  0  0  0  0  0  0
    5.1853   -6.4141    0.0000 O   0  0  0  0  0  0  0  0  0  0  0  0
    5.1853   -8.0641    0.0000 O   0  0  0  0  0  0  0  0  0  0  0  0
    4.4709   -7.6516    0.0000 C   0  0  0  0  0  0  0  0  0  0  0  0
    8.0432   -8.0641    0.0000 C   0  0  0  0  0  0  0  0  0  0  0  0
    8.7577   -7.6516    0.0000 C   0  0  0  0  0  0  0  0  0  0  0  0
   10.1866   -7.6516    0.0000 O   0  0  0  0  0  0  0  0  0  0  0  0
    9.4722   -8.8891    0.0000 C   0  0  0  0  0  0  0  0  0  0  0  0
    9.4722   -8.0641    0.0000 C   0  0  0  0  0  0  0  0  0  0  0  0
 14 12  1  0  0  0  0
 14 13  1  0  0  0  0
  1  2  1  0  0  0  0
  2  3  2  0  0  0  0
  3  4  1  0  0  0  0
  4  5  2  0  0  0  0
  5  6  1  0  0  0  0
  1  6  2  0  0  0  0
  1  7  1  0  0  0  0
  8  9  1  0  0  0  0
  2  8  1  0  0  0  0
 10 11  1  0  0  0  0
 11 14  1  0  0  0  0
  4 10  1  0  0  0  0
M  END
>  <cdx:groupId>
18213

>  <cdx:fragmentId>
18174

$$$$
