16114.cdx
  Mrv1902 05222410272D          

 33 36  0  0  0  0            999 V2000
    3.8849   -9.9467    0.0000 O   0  0  0  0  0  0  0  0  0  0  0  0
    2.4559   -7.4717    0.0000 O   0  0  0  0  0  0  0  0  0  0  0  0
    8.8862  -10.3592    0.0000 O   0  0  0  0  0  0  0  0  0  0  0  0
    7.4572   -8.7092    0.0000 C   0  0  0  0  0  0  0  0  0  0  0  0
    8.1717   -9.1217    0.0000 C   0  0  0  0  0  0  0  0  0  0  0  0
    8.1717   -9.9467    0.0000 C   0  0  0  0  0  0  0  0  0  0  0  0
    7.4572  -10.3592    0.0000 C   0  0  0  0  0  0  0  0  0  0  0  0
    6.7428   -9.9467    0.0000 C   0  0  0  0  0  0  0  0  0  0  0  0
    6.7428   -9.1217    0.0000 C   0  0  0  0  0  0  0  0  0  0  0  0
    1.7415   -8.7092    0.0000 C   0  0  0  0  0  0  0  0  0  0  0  0
    2.4559   -9.1217    0.0000 O   0  0  0  0  0  0  0  0  0  0  0  0
    5.3138   -9.9467    0.0000 O   0  0  0  0  0  0  0  0  0  0  0  0
    5.3138   -7.4717    0.0000 O   0  0  0  0  0  0  0  0  0  0  0  0
    4.5993   -7.8842    0.0000 C   0  0  0  0  0  0  0  0  0  0  0  0
    3.8849   -7.4717    0.0000 C   0  0  0  0  0  0  0  0  0  0  0  0
    3.1704   -7.8842    0.0000 C   0  0  0  0  0  0  0  0  0  0  0  0
    3.1704   -8.7092    0.0000 C   0  0  0  0  0  0  0  0  0  0  0  0
    3.8849   -9.1217    0.0000 C   0  0  0  0  0  0  0  0  0  0  0  0
    4.5993   -8.7092    0.0000 C   0  0  0  0  0  0  0  0  0  0  0  0
    5.3138   -9.1217    0.0000 C   0  0  0  0  0  0  0  0  0  0  0  0
    6.0283   -8.7092    0.0000 C   0  0  0  0  0  0  0  0  0  0  0  0
    6.0283   -7.8842    0.0000 C   0  0  0  0  0  0  0  0  0  0  0  0
   11.0435   -9.9456    0.0000 C   0  0  2  0  0  0  0  0  0  0  0  0
   11.0306   -9.1207    0.0000 C   0  0  2  0  0  0  0  0  0  0  0  0
   10.3098   -8.7193    0.0000 C   0  0  1  0  0  0  0  0  0  0  0  0
    9.6019   -9.1429    0.0000 C   0  0  2  0  0  0  0  0  0  0  0  0
    9.6147   -9.9678    0.0000 C   0  0  1  0  0  0  0  0  0  0  0  0
   10.3355  -10.3691    0.0000 O   0  0  0  0  0  0  0  0  0  0  0  0
   12.4722   -9.9233    0.0000 O   0  0  0  0  0  0  0  0  0  0  0  0
   10.2970   -7.8944    0.0000 O   0  0  0  0  0  0  0  0  0  0  0  0
    8.8811   -8.7416    0.0000 O   0  0  0  0  0  0  0  0  0  0  0  0
   11.7386   -8.6971    0.0000 O   0  0  0  0  0  0  0  0  0  0  0  0
   11.7643  -10.3469    0.0000 C   0  0  0  0  0  0  0  0  0  0  0  0
 18  1  1  0  0  0  0
 16  2  1  0  0  0  0
 21  9  1  0  0  0  0
  6  3  1  0  0  0  0
  9  4  2  0  0  0  0
  5  4  1  0  0  0  0
  6  5  2  0  0  0  0
  7  6  1  0  0  0  0
  8  7  2  0  0  0  0
  9  8  1  0  0  0  0
 17 11  1  0  0  0  0
 11 10  1  0  0  0  0
 20 12  2  0  0  0  0
 22 13  1  0  0  0  0
 14 13  1  0  0  0  0
 19 14  2  0  0  0  0
 15 14  1  0  0  0  0
 16 15  2  0  0  0  0
 17 16  1  0  0  0  0
 18 17  2  0  0  0  0
 19 18  1  0  0  0  0
 20 19  1  0  0  0  0
 21 20  1  0  0  0  0
 22 21  2  0  0  0  0
 23 24  1  0  0  0  0
 24 25  1  0  0  0  0
 25 26  1  0  0  0  0
 26 27  1  0  0  0  0
 27 28  1  0  0  0  0
 28 23  1  0  0  0  0
 23 33  1  1  0  0  0
 25 30  1  1  0  0  0
 26 31  1  6  0  0  0
 24 32  1  6  0  0  0
 33 29  1  0  0  0  0
 27  3  1  1  0  0  0
M  END
>  <cdx:fragmentId>
5

$$$$
