16117.cdx
  Mrv1902 05222410282D          

 44 48  0  0  0  0            999 V2000
    4.5586  -10.7580    0.0000 O   0  0  0  0  0  0  0  0  0  0  0  0
    3.1297   -8.2830    0.0000 O   0  0  0  0  0  0  0  0  0  0  0  0
    9.5599  -11.1705    0.0000 O   0  0  0  0  0  0  0  0  0  0  0  0
    8.1310   -9.5205    0.0000 C   0  0  0  0  0  0  0  0  0  0  0  0
    8.8454   -9.9330    0.0000 C   0  0  0  0  0  0  0  0  0  0  0  0
    8.8454  -10.7580    0.0000 C   0  0  0  0  0  0  0  0  0  0  0  0
    8.1310  -11.1705    0.0000 C   0  0  0  0  0  0  0  0  0  0  0  0
    7.4165  -10.7580    0.0000 C   0  0  0  0  0  0  0  0  0  0  0  0
    7.4165   -9.9330    0.0000 C   0  0  0  0  0  0  0  0  0  0  0  0
    2.4152   -9.5205    0.0000 C   0  0  0  0  0  0  0  0  0  0  0  0
    3.1297   -9.9330    0.0000 O   0  0  0  0  0  0  0  0  0  0  0  0
    5.9876  -10.7580    0.0000 O   0  0  0  0  0  0  0  0  0  0  0  0
    5.9876   -8.2830    0.0000 O   0  0  0  0  0  0  0  0  0  0  0  0
    5.2731   -8.6955    0.0000 C   0  0  0  0  0  0  0  0  0  0  0  0
    4.5586   -8.2830    0.0000 C   0  0  0  0  0  0  0  0  0  0  0  0
    3.8442   -8.6955    0.0000 C   0  0  0  0  0  0  0  0  0  0  0  0
    3.8442   -9.5205    0.0000 C   0  0  0  0  0  0  0  0  0  0  0  0
    4.5586   -9.9330    0.0000 C   0  0  0  0  0  0  0  0  0  0  0  0
    5.2731   -9.5205    0.0000 C   0  0  0  0  0  0  0  0  0  0  0  0
    5.9876   -9.9330    0.0000 C   0  0  0  0  0  0  0  0  0  0  0  0
    6.7020   -9.5205    0.0000 C   0  0  0  0  0  0  0  0  0  0  0  0
    6.7020   -8.6955    0.0000 C   0  0  0  0  0  0  0  0  0  0  0  0
   11.7172  -10.7568    0.0000 C   0  0  2  0  0  0  0  0  0  0  0  0
   11.7044   -9.9319    0.0000 C   0  0  2  0  0  0  0  0  0  0  0  0
   10.9836   -9.5306    0.0000 C   0  0  1  0  0  0  0  0  0  0  0  0
   10.2756   -9.9542    0.0000 C   0  0  2  0  0  0  0  0  0  0  0  0
   10.2885  -10.7791    0.0000 C   0  0  1  0  0  0  0  0  0  0  0  0
   11.0093  -11.1804    0.0000 O   0  0  0  0  0  0  0  0  0  0  0  0
   13.1460  -10.7346    0.0000 O   0  0  0  0  0  0  0  0  0  0  0  0
   10.9707   -8.7057    0.0000 O   0  0  0  0  0  0  0  0  0  0  0  0
    9.5548   -9.5528    0.0000 O   0  0  0  0  0  0  0  0  0  0  0  0
   12.4123   -9.5083    0.0000 O   0  0  0  0  0  0  0  0  0  0  0  0
   12.4380  -11.1581    0.0000 C   0  0  0  0  0  0  0  0  0  0  0  0
    3.8559   -6.2005    0.0000 C   0  0  2  0  0  0  0  0  0  0  0  0
    3.1360   -5.7975    0.0000 C   0  0  2  0  0  0  0  0  0  0  0  0
    2.4271   -6.2195    0.0000 C   0  0  1  0  0  0  0  0  0  0  0  0
    2.4381   -7.0444    0.0000 C   0  0  2  0  0  0  0  0  0  0  0  0
    3.1580   -7.4474    0.0000 C   0  0  1  0  0  0  0  0  0  0  0  0
    3.8669   -7.0254    0.0000 O   0  0  0  0  0  0  0  0  0  0  0  0
    4.5539   -4.9536    0.0000 O   0  0  0  0  0  0  0  0  0  0  0  0
    1.7072   -5.8165    0.0000 O   0  0  0  0  0  0  0  0  0  0  0  0
    1.7292   -7.4664    0.0000 O   0  0  0  0  0  0  0  0  0  0  0  0
    3.1251   -4.9726    0.0000 O   0  0  0  0  0  0  0  0  0  0  0  0
    4.5649   -5.7785    0.0000 C   0  0  0  0  0  0  0  0  0  0  0  0
 18  1  1  0  0  0  0
 16  2  1  0  0  0  0
 21  9  1  0  0  0  0
  6  3  1  0  0  0  0
  9  4  2  0  0  0  0
  5  4  1  0  0  0  0
  6  5  2  0  0  0  0
  7  6  1  0  0  0  0
  8  7  2  0  0  0  0
  9  8  1  0  0  0  0
 17 11  1  0  0  0  0
 11 10  1  0  0  0  0
 20 12  2  0  0  0  0
 22 13  1  0  0  0  0
 14 13  1  0  0  0  0
 19 14  2  0  0  0  0
 15 14  1  0  0  0  0
 16 15  2  0  0  0  0
 17 16  1  0  0  0  0
 18 17  2  0  0  0  0
 19 18  1  0  0  0  0
 20 19  1  0  0  0  0
 21 20  1  0  0  0  0
 22 21  2  0  0  0  0
 23 24  1  0  0  0  0
 24 25  1  0  0  0  0
 25 26  1  0  0  0  0
 26 27  1  0  0  0  0
 27 28  1  0  0  0  0
 28 23  1  0  0  0  0
 23 33  1  1  0  0  0
 25 30  1  1  0  0  0
 26 31  1  6  0  0  0
 24 32  1  6  0  0  0
 33 29  1  0  0  0  0
 27  3  1  1  0  0  0
 34 35  1  0  0  0  0
 35 36  1  0  0  0  0
 36 37  1  0  0  0  0
 37 38  1  0  0  0  0
 38 39  1  0  0  0  0
 39 34  1  0  0  0  0
 34 44  1  1  0  0  0
 36 41  1  1  0  0  0
 37 42  1  6  0  0  0
 35 43  1  6  0  0  0
 44 40  1  0  0  0  0
 38  2  1  1  0  0  0
M  END
>  <cdx:fragmentId>
5

$$$$
