16112.cdx
  Mrv1902 05222410262D          

 44 48  0  0  0  0            999 V2000
    2.3586   -9.0805    0.0000 O   0  0  0  0  0  0  0  0  0  0  0  0
    0.9297   -6.6055    0.0000 O   0  0  0  0  0  0  0  0  0  0  0  0
    7.3599   -9.4930    0.0000 O   0  0  0  0  0  0  0  0  0  0  0  0
    5.9310   -7.8430    0.0000 C   0  0  0  0  0  0  0  0  0  0  0  0
    6.6454   -8.2555    0.0000 C   0  0  0  0  0  0  0  0  0  0  0  0
    6.6454   -9.0805    0.0000 C   0  0  0  0  0  0  0  0  0  0  0  0
    5.9310   -9.4930    0.0000 C   0  0  0  0  0  0  0  0  0  0  0  0
    5.2165   -9.0805    0.0000 C   0  0  0  0  0  0  0  0  0  0  0  0
    5.2165   -8.2555    0.0000 C   0  0  0  0  0  0  0  0  0  0  0  0
    0.2152   -7.8430    0.0000 C   0  0  0  0  0  0  0  0  0  0  0  0
    0.9297   -8.2555    0.0000 O   0  0  0  0  0  0  0  0  0  0  0  0
    3.7876   -9.0805    0.0000 O   0  0  0  0  0  0  0  0  0  0  0  0
    3.7876   -6.6055    0.0000 O   0  0  0  0  0  0  0  0  0  0  0  0
    3.0731   -7.0180    0.0000 C   0  0  0  0  0  0  0  0  0  0  0  0
    2.3586   -6.6055    0.0000 C   0  0  0  0  0  0  0  0  0  0  0  0
    1.6442   -7.0180    0.0000 C   0  0  0  0  0  0  0  0  0  0  0  0
    1.6442   -7.8430    0.0000 C   0  0  0  0  0  0  0  0  0  0  0  0
    2.3586   -8.2555    0.0000 C   0  0  0  0  0  0  0  0  0  0  0  0
    3.0731   -7.8430    0.0000 C   0  0  0  0  0  0  0  0  0  0  0  0
    3.7876   -8.2555    0.0000 C   0  0  0  0  0  0  0  0  0  0  0  0
    4.5020   -7.8430    0.0000 C   0  0  0  0  0  0  0  0  0  0  0  0
    4.5020   -7.0180    0.0000 C   0  0  0  0  0  0  0  0  0  0  0  0
    9.5172   -9.0793    0.0000 C   0  0  2  0  0  0  0  0  0  0  0  0
    9.5044   -8.2544    0.0000 C   0  0  2  0  0  0  0  0  0  0  0  0
    8.7836   -7.8531    0.0000 C   0  0  1  0  0  0  0  0  0  0  0  0
    8.0756   -8.2767    0.0000 C   0  0  2  0  0  0  0  0  0  0  0  0
    8.0885   -9.1016    0.0000 C   0  0  1  0  0  0  0  0  0  0  0  0
    8.8093   -9.5029    0.0000 O   0  0  0  0  0  0  0  0  0  0  0  0
   10.9460   -9.0571    0.0000 O   0  0  0  0  0  0  0  0  0  0  0  0
    8.7707   -7.0282    0.0000 O   0  0  0  0  0  0  0  0  0  0  0  0
    7.3548   -7.8753    0.0000 O   0  0  0  0  0  0  0  0  0  0  0  0
   10.2123   -7.8308    0.0000 O   0  0  0  0  0  0  0  0  0  0  0  0
   12.3708  -10.6991    0.0000 C   0  0  2  0  0  0  0  0  0  0  0  0
   13.0843  -10.2851    0.0000 C   0  0  2  0  0  0  0  0  0  0  0  0
   13.0825   -9.4601    0.0000 C   0  0  1  0  0  0  0  0  0  0  0  0
   12.3671   -9.0492    0.0000 C   0  0  2  0  0  0  0  0  0  0  0  0
   11.6536   -9.4632    0.0000 C   0  0  1  0  0  0  0  0  0  0  0  0
   11.6554  -10.2882    0.0000 O   0  0  0  0  0  0  0  0  0  0  0  0
   12.3726  -11.5241    0.0000 C   0  0  0  0  0  0  0  0  0  0  0  0
   13.7961   -9.0460    0.0000 O   0  0  0  0  0  0  0  0  0  0  0  0
   12.3653   -8.2242    0.0000 O   0  0  0  0  0  0  0  0  0  0  0  0
   13.7997  -10.6960    0.0000 O   0  0  0  0  0  0  0  0  0  0  0  0
   13.0871  -11.9366    0.0000 O   0  0  0  0  0  0  0  0  0  0  0  0
   10.2380   -9.4806    0.0000 C   0  0  0  0  0  0  0  0  0  0  0  0
 18  1  1  0  0  0  0
 16  2  1  0  0  0  0
 21  9  1  0  0  0  0
  6  3  1  0  0  0  0
  9  4  2  0  0  0  0
  5  4  1  0  0  0  0
  6  5  2  0  0  0  0
  7  6  1  0  0  0  0
  8  7  2  0  0  0  0
  9  8  1  0  0  0  0
 17 11  1  0  0  0  0
 11 10  1  0  0  0  0
 20 12  2  0  0  0  0
 22 13  1  0  0  0  0
 14 13  1  0  0  0  0
 19 14  2  0  0  0  0
 15 14  1  0  0  0  0
 16 15  2  0  0  0  0
 17 16  1  0  0  0  0
 18 17  2  0  0  0  0
 19 18  1  0  0  0  0
 20 19  1  0  0  0  0
 21 20  1  0  0  0  0
 22 21  2  0  0  0  0
 23 24  1  0  0  0  0
 24 25  1  0  0  0  0
 25 26  1  0  0  0  0
 26 27  1  0  0  0  0
 27 28  1  0  0  0  0
 28 23  1  0  0  0  0
 23 44  1  1  0  0  0
 25 30  1  1  0  0  0
 26 31  1  6  0  0  0
 24 32  1  6  0  0  0
 33 34  1  0  0  0  0
 34 35  1  0  0  0  0
 35 36  1  0  0  0  0
 36 37  1  0  0  0  0
 37 38  1  0  0  0  0
 38 33  1  0  0  0  0
 33 39  1  1  0  0  0
 35 40  1  1  0  0  0
 36 41  1  6  0  0  0
 34 42  1  6  0  0  0
 39 43  1  0  0  0  0
 44 29  1  0  0  0  0
 37 29  1  1  0  0  0
 27  3  1  1  0  0  0
M  END
>  <cdx:fragmentId>
5

$$$$
