1611.cdx
  Mrv1902 05222410242D          

 22 23  0  0  0  0            999 V2000
    2.9733   -5.8919    0.0000 C   0  0  0  0  0  0  0  0  0  0  0  0
    2.9733   -6.7169    0.0000 C   0  0  0  0  0  0  0  0  0  0  0  0
    3.6877   -7.1294    0.0000 C   0  0  0  0  0  0  0  0  0  0  0  0
    4.4022   -6.7169    0.0000 C   0  0  0  0  0  0  0  0  0  0  0  0
    4.4022   -5.8919    0.0000 C   0  0  0  0  0  0  0  0  0  0  0  0
    3.6877   -5.4794    0.0000 C   0  0  0  0  0  0  0  0  0  0  0  0
    5.1167   -5.4794    0.0000 C   0  0  0  0  0  0  0  0  0  0  0  0
    5.8312   -5.8919    0.0000 C   0  0  0  0  0  0  0  0  0  0  0  0
    6.5456   -5.4794    0.0000 C   0  0  1  0  0  0  0  0  0  0  0  0
    7.2601   -5.8919    0.0000 C   0  0  0  0  0  0  0  0  0  0  0  0
    7.9746   -5.4794    0.0000 C   0  0  0  0  0  0  0  0  0  0  0  0
    8.6890   -5.8919    0.0000 C   0  0  0  0  0  0  0  0  0  0  0  0
    9.4035   -5.4794    0.0000 C   0  0  0  0  0  0  0  0  0  0  0  0
   10.1180   -5.8919    0.0000 C   0  0  0  0  0  0  0  0  0  0  0  0
   10.1180   -6.7169    0.0000 C   0  0  0  0  0  0  0  0  0  0  0  0
   10.8325   -7.1294    0.0000 C   0  0  0  0  0  0  0  0  0  0  0  0
   11.5469   -6.7169    0.0000 C   0  0  0  0  0  0  0  0  0  0  0  0
   11.5469   -5.8919    0.0000 C   0  0  0  0  0  0  0  0  0  0  0  0
   10.8325   -5.4794    0.0000 C   0  0  0  0  0  0  0  0  0  0  0  0
    2.2588   -5.4794    0.0000 O   0  0  0  0  0  0  0  0  0  0  0  0
    2.2588   -7.1294    0.0000 O   0  0  0  0  0  0  0  0  0  0  0  0
    6.5456   -4.6544    0.0000 O   0  0  0  0  0  0  0  0  0  0  0  0
  1  2  2  0  0  0  0
  2  3  1  0  0  0  0
  3  4  2  0  0  0  0
  4  5  1  0  0  0  0
  5  6  2  0  0  0  0
  6  1  1  0  0  0  0
  5  7  1  0  0  0  0
  7  8  1  0  0  0  0
  8  9  1  0  0  0  0
  9 10  1  0  0  0  0
 10 11  1  0  0  0  0
 11 12  1  0  0  0  0
 12 13  2  0  0  0  0
 13 14  1  0  0  0  0
 14 15  2  0  0  0  0
 15 16  1  0  0  0  0
 16 17  2  0  0  0  0
 17 18  1  0  0  0  0
 18 19  2  0  0  0  0
 19 14  1  0  0  0  0
  1 20  1  0  0  0  0
  2 21  1  0  0  0  0
  9 22  1  6  0  0  0
M  END
>  <cdx:fragmentId>
5

$$$$
