161276.cdx
  Mrv1902 05222410272D          

 27 28  0  0  0  0            999 V2000
    7.5979   -3.8201    0.0000 C   0  0  0  0  0  0  0  0  0  0  0  0
    4.7312   -8.7974    0.0000 O   0  0  0  0  0  0  0  0  0  0  0  0
    8.3032   -7.5349    0.0000 C   0  0  2  0  0  0  0  0  0  0  0  0
    7.5900   -7.1201    0.0000 O   0  0  0  0  0  0  0  0  0  0  0  0
    9.0190   -7.1246    0.0000 C   0  0  1  0  0  0  0  0  0  0  0  0
    5.4543  -10.0298    0.0000 O   0  0  0  0  0  0  0  0  0  0  0  0
    6.1659   -9.6123    0.0000 C   0  0  2  0  0  0  0  0  0  0  0  0
    6.1601   -8.7874    0.0000 C   0  0  1  0  0  0  0  0  0  0  0  0
    5.4428   -8.3799    0.0000 C   0  0  0  0  0  0  0  0  0  0  0  0
    9.0216   -6.2997    0.0000 C   0  0  1  0  0  0  0  0  0  0  0  0
    8.3084   -5.8849    0.0000 C   0  0  0  0  0  0  0  0  0  0  0  0
    7.5927   -6.2951    0.0000 C   0  0  0  0  0  0  0  0  0  0  0  0
    9.7321   -7.5394    0.0000 C   0  0  0  0  0  0  0  0  0  0  0  0
   10.4505   -6.3042    0.0000 C   0  0  0  0  0  0  0  0  0  0  0  0
   11.1663   -5.8940    0.0000 O   0  0  0  0  0  0  0  0  0  0  0  0
    9.7374   -5.8894    0.0000 C   0  0  0  0  0  0  0  0  0  0  0  0
    9.0268   -4.6497    0.0000 O   0  0  0  0  0  0  0  0  0  0  0  0
    8.3111   -5.0599    0.0000 C   0  0  0  0  0  0  0  0  0  0  0  0
    7.5979   -4.6451    0.0000 O   0  0  0  0  0  0  0  0  0  0  0  0
    9.7295   -8.3644    0.0000 C   0  0  0  0  0  0  0  0  0  0  0  0
    6.8832  -10.0198    0.0000 C   0  0  1  0  0  0  0  0  0  0  0  0
    7.5948   -9.6023    0.0000 C   0  0  2  0  0  0  0  0  0  0  0  0
    7.5890   -8.7774    0.0000 C   0  0  1  0  0  0  0  0  0  0  0  0
    6.8717   -8.3699    0.0000 O   0  0  0  0  0  0  0  0  0  0  0  0
    6.8890  -10.8448    0.0000 O   0  0  0  0  0  0  0  0  0  0  0  0
    8.3121  -10.0098    0.0000 O   0  0  0  0  0  0  0  0  0  0  0  0
    8.3006   -8.3599    0.0000 O   0  0  0  0  0  0  0  0  0  0  0  0
 19  1  1  0  0  0  0
  3 27  1  6  0  0  0
  3  4  1  0  0  0  0
  3  5  1  0  0  0  0
  5 10  1  0  0  0  0
 10 11  1  0  0  0  0
 11 12  2  0  0  0  0
 12  4  1  0  0  0  0
  5 13  1  1  0  0  0
 14 16  1  0  0  0  0
 10 16  1  1  0  0  0
 17 18  2  0  0  0  0
 18 11  1  0  0  0  0
 19 18  1  0  0  0  0
 14 15  2  0  0  0  0
  7  6  1  6  0  0  0
 13 20  2  0  0  0  0
  7  8  1  0  0  0  0
  8  9  1  1  0  0  0
  9  2  1  0  0  0  0
  7 21  1  0  0  0  0
 21 22  1  0  0  0  0
 22 23  1  0  0  0  0
 23 24  1  0  0  0  0
 24  8  1  0  0  0  0
 23 27  1  1  0  0  0
 21 25  1  1  0  0  0
 22 26  1  6  0  0  0
M  END
>  <cdx:fragmentId>
5

$$$$
