16127.cdx
  Mrv1902 05222410182D          

 33 36  0  0  0  0            999 V2000
    4.0252  -10.0444    0.0000 C   0  0  2  0  0  0  0  0  0  0  0  0
    4.0252  -10.8694    0.0000 C   0  0  2  0  0  0  0  0  0  0  0  0
    4.7396  -11.2819    0.0000 C   0  0  1  0  0  0  0  0  0  0  0  0
    5.4541  -10.8694    0.0000 C   0  0  2  0  0  0  0  0  0  0  0  0
    5.4541  -10.0444    0.0000 C   0  0  1  0  0  0  0  0  0  0  0  0
    4.7396   -9.6319    0.0000 O   0  0  0  0  0  0  0  0  0  0  0  0
    6.1686   -9.6319    0.0000 O   0  0  0  0  0  0  0  0  0  0  0  0
    6.1686   -8.8069    0.0000 C   0  0  0  0  0  0  0  0  0  0  0  0
    5.4541   -8.3944    0.0000 C   0  0  0  0  0  0  0  0  0  0  0  0
    4.7396   -8.8069    0.0000 O   0  0  0  0  0  0  0  0  0  0  0  0
    6.8830   -8.3944    0.0000 C   0  0  0  0  0  0  0  0  0  0  0  0
    6.8830   -7.5694    0.0000 C   0  0  0  0  0  0  0  0  0  0  0  0
    6.1686   -7.1569    0.0000 C   0  0  0  0  0  0  0  0  0  0  0  0
    5.4541   -7.5694    0.0000 C   0  0  0  0  0  0  0  0  0  0  0  0
    7.5975   -7.1569    0.0000 O   0  0  0  0  0  0  0  0  0  0  0  0
    7.5975   -6.3319    0.0000 C   0  0  0  0  0  0  0  0  0  0  0  0
    6.8830   -5.9194    0.0000 C   0  0  0  0  0  0  0  0  0  0  0  0
    6.1686   -6.3319    0.0000 C   0  0  0  0  0  0  0  0  0  0  0  0
    7.5975   -4.6819    0.0000 C   0  0  0  0  0  0  0  0  0  0  0  0
    6.8830   -5.0944    0.0000 C   0  0  0  0  0  0  0  0  0  0  0  0
    7.5975   -3.8569    0.0000 C   0  0  0  0  0  0  0  0  0  0  0  0
    6.8830   -3.4444    0.0000 C   0  0  0  0  0  0  0  0  0  0  0  0
    6.1686   -3.8569    0.0000 C   0  0  0  0  0  0  0  0  0  0  0  0
    6.1686   -4.6819    0.0000 C   0  0  0  0  0  0  0  0  0  0  0  0
    3.3107   -9.6319    0.0000 C   0  0  0  0  0  0  0  0  0  0  0  0
    2.5962  -10.0444    0.0000 O   0  0  0  0  0  0  0  0  0  0  0  0
    3.3107  -11.2819    0.0000 O   0  0  0  0  0  0  0  0  0  0  0  0
    6.8830   -2.6194    0.0000 O   0  0  0  0  0  0  0  0  0  0  0  0
    5.4541   -5.9194    0.0000 O   0  0  0  0  0  0  0  0  0  0  0  0
    4.7396   -7.1569    0.0000 O   0  0  0  0  0  0  0  0  0  0  0  0
    4.0252   -8.3944    0.0000 C   0  0  0  0  0  0  0  0  0  0  0  0
    4.7396  -12.1069    0.0000 O   0  0  0  0  0  0  0  0  0  0  0  0
    6.1686  -11.2819    0.0000 O   0  0  0  0  0  0  0  0  0  0  0  0
  1  2  1  0  0  0  0
  2  3  1  0  0  0  0
  3  4  1  0  0  0  0
  4  5  1  0  0  0  0
  5  6  1  0  0  0  0
  6  1  1  0  0  0  0
  5  7  1  1  0  0  0
  7  8  1  0  0  0  0
  8  9  2  0  0  0  0
  9 10  1  0  0  0  0
  8 11  1  0  0  0  0
 11 12  2  0  0  0  0
 12 13  1  0  0  0  0
 13 14  2  0  0  0  0
 14  9  1  0  0  0  0
 12 15  1  0  0  0  0
 15 16  1  0  0  0  0
 16 17  2  0  0  0  0
 17 18  1  0  0  0  0
 18 13  1  0  0  0  0
 19 20  2  0  0  0  0
 20 17  1  0  0  0  0
 19 21  1  0  0  0  0
 21 22  2  0  0  0  0
 22 23  1  0  0  0  0
 23 24  2  0  0  0  0
 24 20  1  0  0  0  0
  1 25  1  1  0  0  0
 25 26  1  0  0  0  0
  2 27  1  6  0  0  0
 22 28  1  0  0  0  0
 18 29  2  0  0  0  0
 14 30  1  0  0  0  0
 10 31  1  0  0  0  0
  3 32  1  1  0  0  0
  4 33  1  6  0  0  0
M  END
>  <cdx:fragmentId>
5

$$$$
