tectoruside.cdx
  Mrv1902 05222410272D          

 34 36  0  0  0  0            999 V2000
    5.4689  -10.9931    0.0000 C   0  0  2  0  0  0  0  0  0  0  0  0
    5.4689  -11.8181    0.0000 C   0  0  2  0  0  0  0  0  0  0  0  0
    6.1834  -12.2306    0.0000 C   0  0  1  0  0  0  0  0  0  0  0  0
    6.8978  -11.8181    0.0000 C   0  0  2  0  0  0  0  0  0  0  0  0
    6.8978  -10.9931    0.0000 C   0  0  1  0  0  0  0  0  0  0  0  0
    6.1834  -10.5806    0.0000 O   0  0  0  0  0  0  0  0  0  0  0  0
    7.6123  -10.5806    0.0000 O   0  0  0  0  0  0  0  0  0  0  0  0
    4.7544  -10.5806    0.0000 C   0  0  0  0  0  0  0  0  0  0  0  0
    6.1834  -13.0556    0.0000 O   0  0  0  0  0  0  0  0  0  0  0  0
    4.7544  -12.2306    0.0000 O   0  0  0  0  0  0  0  0  0  0  0  0
    7.6123  -12.2306    0.0000 O   0  0  0  0  0  0  0  0  0  0  0  0
    4.7544   -9.7556    0.0000 O   0  0  0  0  0  0  0  0  0  0  0  0
    3.3158   -8.0840    0.0000 C   0  0  2  0  0  0  0  0  0  0  0  0
    2.6014   -8.4965    0.0000 C   0  0  2  0  0  0  0  0  0  0  0  0
    2.6014   -9.3215    0.0000 C   0  0  1  0  0  0  0  0  0  0  0  0
    3.3158   -9.7340    0.0000 C   0  0  2  0  0  0  0  0  0  0  0  0
    4.0303   -9.3215    0.0000 C   0  0  1  0  0  0  0  0  0  0  0  0
    4.0303   -8.4965    0.0000 O   0  0  0  0  0  0  0  0  0  0  0  0
    3.3158   -7.2590    0.0000 C   0  0  0  0  0  0  0  0  0  0  0  0
    1.8869   -9.7340    0.0000 O   0  0  0  0  0  0  0  0  0  0  0  0
    1.8869   -8.0840    0.0000 O   0  0  0  0  0  0  0  0  0  0  0  0
    3.3158  -10.5590    0.0000 O   0  0  0  0  0  0  0  0  0  0  0  0
    4.0303   -6.8465    0.0000 O   0  0  0  0  0  0  0  0  0  0  0  0
    6.8714   -8.3325    0.0000 C   0  0  0  0  0  0  0  0  0  0  0  0
    6.8714   -9.1575    0.0000 C   0  0  0  0  0  0  0  0  0  0  0  0
    7.5859   -9.5700    0.0000 C   0  0  0  0  0  0  0  0  0  0  0  0
    8.3003   -9.1575    0.0000 C   0  0  0  0  0  0  0  0  0  0  0  0
    8.3003   -8.3325    0.0000 C   0  0  0  0  0  0  0  0  0  0  0  0
    7.5859   -7.9200    0.0000 C   0  0  0  0  0  0  0  0  0  0  0  0
    7.5859   -7.0950    0.0000 C   0  0  0  0  0  0  0  0  0  0  0  0
    6.8714   -6.6825    0.0000 C   0  0  0  0  0  0  0  0  0  0  0  0
    8.3003   -6.6825    0.0000 O   0  0  0  0  0  0  0  0  0  0  0  0
    6.1569   -9.5700    0.0000 O   0  0  0  0  0  0  0  0  0  0  0  0
    5.4425   -9.1575    0.0000 C   0  0  0  0  0  0  0  0  0  0  0  0
  1  2  1  0  0  0  0
  2  3  1  0  0  0  0
  3  4  1  0  0  0  0
  4  5  1  0  0  0  0
  5  6  1  0  0  0  0
  6  1  1  0  0  0  0
  5  7  1  1  0  0  0
  1  8  1  1  0  0  0
  3  9  1  1  0  0  0
  2 10  1  6  0  0  0
  4 11  1  6  0  0  0
  8 12  1  0  0  0  0
 13 14  1  0  0  0  0
 14 15  1  0  0  0  0
 15 16  1  0  0  0  0
 16 17  1  0  0  0  0
 17 18  1  0  0  0  0
 18 13  1  0  0  0  0
 13 19  1  1  0  0  0
 15 20  1  1  0  0  0
 14 21  1  6  0  0  0
 16 22  1  6  0  0  0
 19 23  1  0  0  0  0
 17 12  1  1  0  0  0
 24 25  2  0  0  0  0
 25 26  1  0  0  0  0
 26 27  2  0  0  0  0
 27 28  1  0  0  0  0
 28 29  2  0  0  0  0
 29 24  1  0  0  0  0
 29 30  1  0  0  0  0
 30 31  1  0  0  0  0
 30 32  2  0  0  0  0
 25 33  1  0  0  0  0
 33 34  1  0  0  0  0
 26  7  1  0  0  0  0
M  END
>  <cdx:fragmentId>
5

$$$$
