16121.cdx
  Mrv1902 05222410192D          

 53 58  0  0  0  0            999 V2000
    4.5586  -12.1330    0.0000 O   0  0  0  0  0  0  0  0  0  0  0  0
    3.1297   -9.6580    0.0000 O   0  0  0  0  0  0  0  0  0  0  0  0
    9.5599  -12.5455    0.0000 O   0  0  0  0  0  0  0  0  0  0  0  0
    8.1310  -10.8955    0.0000 C   0  0  0  0  0  0  0  0  0  0  0  0
    8.8454  -11.3080    0.0000 C   0  0  0  0  0  0  0  0  0  0  0  0
    8.8454  -12.1330    0.0000 C   0  0  0  0  0  0  0  0  0  0  0  0
    8.1310  -12.5455    0.0000 C   0  0  0  0  0  0  0  0  0  0  0  0
    7.4165  -12.1330    0.0000 C   0  0  0  0  0  0  0  0  0  0  0  0
    7.4165  -11.3080    0.0000 C   0  0  0  0  0  0  0  0  0  0  0  0
    2.4152  -10.8955    0.0000 C   0  0  0  0  0  0  0  0  0  0  0  0
    3.1297  -11.3080    0.0000 O   0  0  0  0  0  0  0  0  0  0  0  0
    5.9876  -12.1330    0.0000 O   0  0  0  0  0  0  0  0  0  0  0  0
    5.9876   -9.6580    0.0000 O   0  0  0  0  0  0  0  0  0  0  0  0
    5.2731  -10.0705    0.0000 C   0  0  0  0  0  0  0  0  0  0  0  0
    4.5586   -9.6580    0.0000 C   0  0  0  0  0  0  0  0  0  0  0  0
    3.8442  -10.0705    0.0000 C   0  0  0  0  0  0  0  0  0  0  0  0
    3.8442  -10.8955    0.0000 C   0  0  0  0  0  0  0  0  0  0  0  0
    4.5586  -11.3080    0.0000 C   0  0  0  0  0  0  0  0  0  0  0  0
    5.2731  -10.8955    0.0000 C   0  0  0  0  0  0  0  0  0  0  0  0
    5.9876  -11.3080    0.0000 C   0  0  0  0  0  0  0  0  0  0  0  0
    6.7020  -10.8955    0.0000 C   0  0  0  0  0  0  0  0  0  0  0  0
    6.7020  -10.0705    0.0000 C   0  0  0  0  0  0  0  0  0  0  0  0
   11.7172  -12.1318    0.0000 C   0  0  2  0  0  0  0  0  0  0  0  0
   11.7044  -11.3069    0.0000 C   0  0  2  0  0  0  0  0  0  0  0  0
   10.9836  -10.9056    0.0000 C   0  0  1  0  0  0  0  0  0  0  0  0
   10.2756  -11.3292    0.0000 C   0  0  2  0  0  0  0  0  0  0  0  0
   10.2885  -12.1541    0.0000 C   0  0  1  0  0  0  0  0  0  0  0  0
   11.0093  -12.5554    0.0000 O   0  0  0  0  0  0  0  0  0  0  0  0
   13.1460  -12.1096    0.0000 O   0  0  0  0  0  0  0  0  0  0  0  0
   10.9707  -10.0807    0.0000 O   0  0  0  0  0  0  0  0  0  0  0  0
    9.5548  -10.9278    0.0000 O   0  0  0  0  0  0  0  0  0  0  0  0
   12.4123  -10.8833    0.0000 O   0  0  0  0  0  0  0  0  0  0  0  0
   12.4380  -12.5331    0.0000 C   0  0  0  0  0  0  0  0  0  0  0  0
    3.8559   -7.5755    0.0000 C   0  0  2  0  0  0  0  0  0  0  0  0
    3.1360   -7.1725    0.0000 C   0  0  2  0  0  0  0  0  0  0  0  0
    2.4271   -7.5945    0.0000 C   0  0  1  0  0  0  0  0  0  0  0  0
    2.4381   -8.4194    0.0000 C   0  0  2  0  0  0  0  0  0  0  0  0
    3.1580   -8.8224    0.0000 C   0  0  1  0  0  0  0  0  0  0  0  0
    3.8669   -8.4004    0.0000 O   0  0  0  0  0  0  0  0  0  0  0  0
    4.5539   -6.3286    0.0000 O   0  0  0  0  0  0  0  0  0  0  0  0
    1.7072   -7.1915    0.0000 O   0  0  0  0  0  0  0  0  0  0  0  0
    1.7292   -8.8414    0.0000 O   0  0  0  0  0  0  0  0  0  0  0  0
    3.1251   -6.3476    0.0000 O   0  0  0  0  0  0  0  0  0  0  0  0
    4.5649   -7.1535    0.0000 C   0  0  0  0  0  0  0  0  0  0  0  0
    6.6927   -5.1032    0.0000 C   0  0  1  0  0  0  0  0  0  0  0  0
    5.9786   -4.6901    0.0000 C   0  0  1  0  0  0  0  0  0  0  0  0
    5.2637   -5.1020    0.0000 C   0  0  2  0  0  0  0  0  0  0  0  0
    5.2631   -5.9270    0.0000 C   0  0  1  0  0  0  0  0  0  0  0  0
    5.9772   -6.3401    0.0000 O   0  0  0  0  0  0  0  0  0  0  0  0
    6.6920   -5.9282    0.0000 C   0  0  0  0  0  0  0  0  0  0  0  0
    5.9792   -3.8651    0.0000 O   0  0  0  0  0  0  0  0  0  0  0  0
    7.4075   -4.6913    0.0000 O   0  0  0  0  0  0  0  0  0  0  0  0
    4.5496   -4.6889    0.0000 O   0  0  0  0  0  0  0  0  0  0  0  0
 18  1  1  0  0  0  0
 16  2  1  0  0  0  0
 21  9  1  0  0  0  0
  6  3  1  0  0  0  0
  9  4  2  0  0  0  0
  5  4  1  0  0  0  0
  6  5  2  0  0  0  0
  7  6  1  0  0  0  0
  8  7  2  0  0  0  0
  9  8  1  0  0  0  0
 17 11  1  0  0  0  0
 11 10  1  0  0  0  0
 20 12  2  0  0  0  0
 22 13  1  0  0  0  0
 14 13  1  0  0  0  0
 19 14  2  0  0  0  0
 15 14  1  0  0  0  0
 16 15  2  0  0  0  0
 17 16  1  0  0  0  0
 18 17  2  0  0  0  0
 19 18  1  0  0  0  0
 20 19  1  0  0  0  0
 21 20  1  0  0  0  0
 22 21  2  0  0  0  0
 23 24  1  0  0  0  0
 24 25  1  0  0  0  0
 25 26  1  0  0  0  0
 26 27  1  0  0  0  0
 27 28  1  0  0  0  0
 28 23  1  0  0  0  0
 23 33  1  1  0  0  0
 25 30  1  1  0  0  0
 26 31  1  6  0  0  0
 24 32  1  6  0  0  0
 33 29  1  0  0  0  0
 27  3  1  1  0  0  0
 34 35  1  0  0  0  0
 35 36  1  0  0  0  0
 36 37  1  0  0  0  0
 37 38  1  0  0  0  0
 38 39  1  0  0  0  0
 39 34  1  0  0  0  0
 34 44  1  1  0  0  0
 36 41  1  1  0  0  0
 37 42  1  6  0  0  0
 35 43  1  6  0  0  0
 44 40  1  0  0  0  0
 38  2  1  1  0  0  0
 45 46  1  0  0  0  0
 46 47  1  0  0  0  0
 47 48  1  0  0  0  0
 48 49  1  0  0  0  0
 49 50  1  0  0  0  0
 50 45  1  0  0  0  0
 46 51  1  1  0  0  0
 45 52  1  6  0  0  0
 47 53  1  6  0  0  0
 48 40  1  1  0  0  0
M  END
>  <cdx:fragmentId>
5

$$$$
