161218.cdx
  Mrv1902 05222410212D          

 26 29  0  0  0  0            999 V2000
    4.9173   -7.5262    0.0000 O   0  0  0  0  0  0  0  0  0  0  0  0
    4.4287   -6.8615    0.0000 C   0  0  0  0  0  0  0  0  0  0  0  0
    4.9098   -6.1913    0.0000 O   0  0  0  0  0  0  0  0  0  0  0  0
    5.6959   -6.4419    0.0000 C   0  0  0  0  0  0  0  0  0  0  0  0
    5.7005   -7.2669    0.0000 C   0  0  0  0  0  0  0  0  0  0  0  0
    6.4080   -6.0254    0.0000 C   0  0  0  0  0  0  0  0  0  0  0  0
    7.1248   -6.4339    0.0000 C   0  0  0  0  0  0  0  0  0  0  0  0
    7.1294   -7.2588    0.0000 C   0  0  0  0  0  0  0  0  0  0  0  0
    6.4173   -7.6753    0.0000 C   0  0  0  0  0  0  0  0  0  0  0  0
    7.8462   -7.6673    0.0000 C   0  0  0  0  0  0  0  0  0  0  0  0
    7.8508   -8.4923    0.0000 C   0  0  0  0  0  0  0  0  0  0  0  0
    7.1387   -8.9088    0.0000 C   0  0  0  0  0  0  0  0  0  0  0  0
    7.1433   -9.7338    0.0000 C   0  0  0  0  0  0  0  0  0  0  0  0
    6.4312  -10.1503    0.0000 C   0  0  0  0  0  0  0  0  0  0  0  0
    5.7144   -9.7418    0.0000 C   0  0  0  0  0  0  0  0  0  0  0  0
    5.7098   -8.9168    0.0000 C   0  0  0  0  0  0  0  0  0  0  0  0
    6.4219   -8.5003    0.0000 C   0  0  0  0  0  0  0  0  0  0  0  0
    7.7538   -5.9000    0.0000 C   0  0  0  0  0  0  0  0  0  0  0  0
    8.5306   -6.1778    0.0000 O   0  0  0  0  0  0  0  0  0  0  0  0
    7.6060   -5.0884    0.0000 O   0  0  0  0  0  0  0  0  0  0  0  0
    8.6199   -7.3808    0.0000 N   0  3  0  0  0  0  0  0  0  0  0  0
    9.2548   -7.9076    0.0000 O   0  0  0  0  0  0  0  0  0  0  0  0
    8.7586   -6.5676    0.0000 O   0  5  0  0  0  0  0  0  0  0  0  0
    7.8601  -10.1423    0.0000 O   0  0  0  0  0  0  0  0  0  0  0  0
    7.8647  -10.9673    0.0000 C   0  0  0  0  0  0  0  0  0  0  0  0
    5.0023  -10.1583    0.0000 O   0  0  0  0  0  0  0  0  0  0  0  0
  1  2  1  0  0  0  0
  2  3  1  0  0  0  0
  3  4  1  0  0  0  0
  4  5  1  0  0  0  0
  1  5  1  0  0  0  0
  6  7  1  0  0  0  0
  7  8  2  0  0  0  0
  8  9  1  0  0  0  0
  9  5  2  0  0  0  0
  6  4  2  0  0  0  0
 10 11  2  0  0  0  0
 11 12  1  0  0  0  0
 12 13  2  0  0  0  0
 13 14  1  0  0  0  0
 14 15  2  0  0  0  0
 15 16  1  0  0  0  0
 16 17  2  0  0  0  0
 12 17  1  0  0  0  0
 10  8  1  0  0  0  0
 17  9  1  0  0  0  0
 18 19  2  0  0  0  0
 18 20  1  0  0  0  0
  7 18  1  0  0  0  0
 21 22  2  0  0  0  0
 21 23  1  0  0  0  0
 10 21  1  0  0  0  0
 24 25  1  0  0  0  0
 13 24  1  0  0  0  0
 15 26  1  0  0  0  0
M  CHG  2  21   1  23  -1
M  END
>  <cdx:fragmentId>
5

$$$$
