161396.cdx
  Mrv1902 05222410222D          

 37 40  0  0  0  0            999 V2000
    4.8465   -9.2244    0.0000 C   0  0  0  0  0  0  0  0  0  0  0  0
    4.1321   -9.6369    0.0000 C   0  0  1  0  0  0  0  0  0  0  0  0
    4.1321  -10.4619    0.0000 C   0  0  2  0  0  0  0  0  0  0  0  0
    4.8465  -10.8744    0.0000 C   0  0  0  0  0  0  0  0  0  0  0  0
    5.5610  -10.4619    0.0000 C   0  0  0  0  0  0  0  0  0  0  0  0
    6.2755  -10.8744    0.0000 C   0  0  0  0  0  0  0  0  0  0  0  0
    6.9900  -10.4619    0.0000 C   0  0  0  0  0  0  0  0  0  0  0  0
    6.9900   -9.6369    0.0000 C   0  0  0  0  0  0  0  0  0  0  0  0
    7.7044   -9.2244    0.0000 C   0  0  2  0  0  0  0  0  0  0  0  0
    7.7044   -8.3994    0.0000 C   0  0  2  0  0  0  0  0  0  0  0  0
    6.9900   -7.9869    0.0000 C   0  0  0  0  0  0  0  0  0  0  0  0
    6.2755   -8.3994    0.0000 C   0  0  0  0  0  0  0  0  0  0  0  0
    6.2755   -9.2244    0.0000 C   0  0  1  0  0  0  0  0  0  0  0  0
    5.5610   -9.6369    0.0000 C   0  0  0  0  0  0  0  0  0  0  0  0
    3.4176  -10.8744    0.0000 O   0  0  0  0  0  0  0  0  0  0  0  0
    6.2755  -10.0494    0.0000 C   0  0  0  0  0  0  0  0  0  0  0  0
    7.7044  -10.0494    0.0000 C   0  0  0  0  0  0  0  0  0  0  0  0
    3.4176   -9.2244    0.0000 O   0  0  0  0  0  0  0  0  0  0  0  0
    4.4340  -11.5889    0.0000 C   0  0  0  0  0  0  0  0  0  0  0  0
    5.2590  -11.5889    0.0000 C   0  0  0  0  0  0  0  0  0  0  0  0
    8.4891   -9.4794    0.0000 C   0  0  0  0  0  0  0  0  0  0  0  0
    8.9740   -8.8119    0.0000 C   0  0  2  0  0  0  0  0  0  0  0  0
    8.4891   -8.1445    0.0000 C   0  0  0  0  0  0  0  0  0  0  0  0
    5.5610   -7.9869    0.0000 O   0  0  0  0  0  0  0  0  0  0  0  0
    7.7044   -7.5744    0.0000 C   0  0  0  0  0  0  0  0  0  0  0  0
    9.7990   -8.8119    0.0000 O   0  0  0  0  0  0  0  0  0  0  0  0
    8.7440   -7.3599    0.0000 C   0  0  1  0  0  0  0  0  0  0  0  0
    7.9471   -7.1463    0.0000 C   0  0  0  0  0  0  0  0  0  0  0  0
    9.5510   -7.1883    0.0000 C   0  0  0  0  0  0  0  0  0  0  0  0
    9.8059   -6.4037    0.0000 C   0  0  0  0  0  0  0  0  0  0  0  0
   10.1030   -7.8014    0.0000 O   0  0  0  0  0  0  0  0  0  0  0  0
   10.6129   -6.2322    0.0000 C   0  0  0  0  0  0  0  0  0  0  0  0
   10.8678   -5.4476    0.0000 C   0  0  0  0  0  0  0  0  0  0  0  0
   10.0709   -5.2340    0.0000 C   0  0  0  0  0  0  0  0  0  0  0  0
   11.6647   -5.6611    0.0000 C   0  0  0  0  0  0  0  0  0  0  0  0
   11.1228   -4.6629    0.0000 O   0  0  0  0  0  0  0  0  0  0  0  0
    8.5305   -6.5630    0.0000 O   0  0  0  0  0  0  0  0  0  0  0  0
  1  2  1  0  0  0  0
  2  3  1  0  0  0  0
  3  4  1  0  0  0  0
  4  5  1  0  0  0  0
  5  6  2  0  0  0  0
  6  7  1  0  0  0  0
  7  8  1  0  0  0  0
  8  9  1  0  0  0  0
  9 10  1  0  0  0  0
 10 11  1  0  0  0  0
 11 12  1  0  0  0  0
 12 13  1  0  0  0  0
  8 13  1  0  0  0  0
 13 14  1  0  0  0  0
  5 14  1  0  0  0  0
  1 14  1  0  0  0  0
  3 15  1  6  0  0  0
 13 16  1  1  0  0  0
  9 17  1  6  0  0  0
  2 18  1  1  0  0  0
  4 19  1  0  0  0  0
  4 20  1  0  0  0  0
  9 21  1  0  0  0  0
 21 22  1  0  0  0  0
 22 23  1  0  0  0  0
 23 10  1  0  0  0  0
 12 24  2  0  0  0  0
 10 25  1  1  0  0  0
 22 26  1  6  0  0  0
 23 27  1  0  0  0  0
 27 28  1  0  0  0  0
 27 29  1  0  0  0  0
 29 30  1  0  0  0  0
 29 31  2  0  0  0  0
 30 32  1  0  0  0  0
 32 33  1  0  0  0  0
 33 34  1  0  0  0  0
 33 35  1  0  0  0  0
 33 36  1  0  0  0  0
 27 37  1  6  0  0  0
M  END
>  <cdx:fragmentId>
102388

$$$$
