161352.cdx
  Mrv1902 05222410212D          

 39 43  0  0  0  0            999 V2000
    6.4454  -11.1303    0.0000 H   0  0  0  0  0  0  0  0  0  0  0  0
    7.1676   -9.8972    0.0000 H   0  0  0  0  0  0  0  0  0  0  0  0
    8.6017   -7.4312    0.0000 H   0  0  0  0  0  0  0  0  0  0  0  0
    9.3187   -8.6731    0.0000 H   0  0  0  0  0  0  0  0  0  0  0  0
    4.3535   -9.8797    0.0000 O   0  0  0  0  0  0  0  0  0  0  0  0
    7.8795   -8.6642    0.0000 C   0  0  0  0  0  0  0  0  0  0  0  0
    8.5965   -9.9062    0.0000 C   0  0  0  0  0  0  0  0  0  0  0  0
    6.4506   -8.6553    0.0000 C   0  0  0  0  0  0  0  0  0  0  0  0
    5.8257  -11.3633    0.0000 C   0  0  0  0  0  0  0  0  0  0  0  0
    5.0427  -11.1035    0.0000 C   0  0  0  0  0  0  0  0  0  0  0  0
    9.1655   -5.6302    0.0000 C   0  0  0  0  0  0  0  0  0  0  0  0
    8.9470   -6.4257    0.0000 C   0  0  0  0  0  0  0  0  0  0  0  0
    8.1488   -6.6343    0.0000 C   0  0  0  0  0  0  0  0  0  0  0  0
    5.9734   -7.8246    0.0000 O   0  0  0  0  0  0  0  0  0  0  0  0
    4.6116   -8.2577    0.0000 O   0  0  0  0  0  0  0  0  0  0  0  0
    5.4175   -8.4343    0.0000 C   0  0  0  0  0  0  0  0  0  0  0  0
   11.4966   -8.1928    0.0000 O   0  0  0  0  0  0  0  0  0  0  0  0
   10.7821   -9.4303    0.0000 O   0  0  0  0  0  0  0  0  0  0  0  0
   10.7821   -8.6053    0.0000 C   0  0  0  0  0  0  0  0  0  0  0  0
    7.8743  -10.3142    0.0000 C   0  0  0  0  0  0  0  0  0  0  0  0
    7.1573  -10.7222    0.0000 C   0  0  0  0  0  0  0  0  0  0  0  0
    6.4454  -10.3053    0.0000 C   0  0  1  0  0  0  0  0  0  0  0  0
    5.6592  -10.5553    0.0000 C   0  0  0  0  0  0  0  0  0  0  0  0
    5.1785   -9.8849    0.0000 C   0  0  2  0  0  0  0  0  0  0  0  0
    5.6675   -9.2205    0.0000 C   0  0  1  0  0  0  0  0  0  0  0  0
    6.4506   -9.4803    0.0000 C   0  0  1  0  0  0  0  0  0  0  0  0
    7.1676   -9.0722    0.0000 C   0  0  1  0  0  0  0  0  0  0  0  0
    7.1727   -8.2473    0.0000 C   0  0  0  0  0  0  0  0  0  0  0  0
    7.8898   -7.8392    0.0000 C   0  0  0  0  0  0  0  0  0  0  0  0
    8.6017   -8.2562    0.0000 C   0  0  2  0  0  0  0  0  0  0  0  0
    9.3187   -7.8481    0.0000 C   0  0  1  0  0  0  0  0  0  0  0  0
    9.4952   -7.0423    0.0000 C   0  0  1  0  0  0  0  0  0  0  0  0
   10.3162   -6.9611    0.0000 C   0  0  0  0  0  0  0  0  0  0  0  0
   10.6471   -7.7169    0.0000 C   0  0  0  0  0  0  0  0  0  0  0  0
   10.0306   -8.2651    0.0000 C   0  0  1  0  0  0  0  0  0  0  0  0
   10.0254   -9.0901    0.0000 C   0  0  0  0  0  0  0  0  0  0  0  0
    9.3084   -9.4981    0.0000 C   0  0  0  0  0  0  0  0  0  0  0  0
    8.5965   -9.0812    0.0000 C   0  0  2  0  0  0  0  0  0  0  0  0
    7.8795   -9.4892    0.0000 C   0  0  1  0  0  0  0  0  0  0  0  0
 22  1  1  6  0  0  0
 27  2  1  6  0  0  0
 30  3  1  1  0  0  0
 31  4  1  6  0  0  0
 24  5  1  1  0  0  0
 39  6  1  1  0  0  0
 38  7  1  6  0  0  0
 26  8  1  1  0  0  0
 23  9  1  0  0  0  0
 23 10  1  0  0  0  0
 32 12  1  6  0  0  0
 12 11  1  0  0  0  0
 13 12  2  0  0  0  0
 25 16  1  6  0  0  0
 16 14  1  0  0  0  0
 16 15  2  0  0  0  0
 35 19  1  1  0  0  0
 19 17  1  0  0  0  0
 19 18  2  0  0  0  0
 26 22  1  0  0  0  0
 35 31  1  0  0  0  0
 38 30  1  0  0  0  0
 39 27  1  0  0  0  0
 39 20  1  0  0  0  0
 21 20  1  0  0  0  0
 22 21  1  0  0  0  0
 23 22  1  0  0  0  0
 24 23  1  0  0  0  0
 25 24  1  0  0  0  0
 26 25  1  0  0  0  0
 27 26  1  0  0  0  0
 28 27  1  0  0  0  0
 29 28  1  0  0  0  0
 30 29  1  0  0  0  0
 31 30  1  0  0  0  0
 32 31  1  0  0  0  0
 33 32  1  0  0  0  0
 34 33  1  0  0  0  0
 35 34  1  0  0  0  0
 36 35  1  0  0  0  0
 37 36  1  0  0  0  0
 38 37  1  0  0  0  0
 39 38  1  0  0  0  0
M  END
>  <cdx:fragmentId>
17957

$$$$
