161398.cdx
  Mrv1902 05222410232D          

 45 49  0  0  0  0            999 V2000
    6.0015   -9.2519    0.0000 C   0  0  0  0  0  0  0  0  0  0  0  0
    5.2871   -9.6644    0.0000 C   0  0  0  0  0  0  0  0  0  0  0  0
    5.2871  -10.4894    0.0000 C   0  0  1  0  0  0  0  0  0  0  0  0
    6.0015  -10.9019    0.0000 C   0  0  0  0  0  0  0  0  0  0  0  0
    6.7160  -10.4894    0.0000 C   0  0  0  0  0  0  0  0  0  0  0  0
    7.4305  -10.9019    0.0000 C   0  0  0  0  0  0  0  0  0  0  0  0
    8.1450  -10.4894    0.0000 C   0  0  0  0  0  0  0  0  0  0  0  0
    8.1450   -9.6644    0.0000 C   0  0  1  0  0  0  0  0  0  0  0  0
    8.8594   -9.2519    0.0000 C   0  0  1  0  0  0  0  0  0  0  0  0
    8.8594   -8.4269    0.0000 C   0  0  2  0  0  0  0  0  0  0  0  0
    8.1450   -8.0144    0.0000 C   0  0  0  0  0  0  0  0  0  0  0  0
    7.4305   -8.4269    0.0000 C   0  0  0  0  0  0  0  0  0  0  0  0
    7.4305   -9.2519    0.0000 C   0  0  2  0  0  0  0  0  0  0  0  0
    6.7160   -9.6644    0.0000 C   0  0  1  0  0  0  0  0  0  0  0  0
    7.4305  -10.0769    0.0000 H   0  0  0  0  0  0  0  0  0  0  0  0
    8.8594  -10.0769    0.0000 H   0  0  0  0  0  0  0  0  0  0  0  0
    9.6441   -9.5069    0.0000 C   0  0  0  0  0  0  0  0  0  0  0  0
   10.1290   -8.8394    0.0000 C   0  0  0  0  0  0  0  0  0  0  0  0
    9.6441   -8.1720    0.0000 C   0  0  2  0  0  0  0  0  0  0  0  0
    8.8594   -7.6019    0.0000 C   0  0  0  0  0  0  0  0  0  0  0  0
    9.8990   -7.3874    0.0000 C   0  0  1  0  0  0  0  0  0  0  0  0
   10.7060   -7.2158    0.0000 C   0  0  0  0  0  0  0  0  0  0  0  0
   10.9609   -6.4312    0.0000 C   0  0  0  0  0  0  0  0  0  0  0  0
   11.7679   -6.2597    0.0000 C   0  0  2  0  0  0  0  0  0  0  0  0
   12.0228   -5.4751    0.0000 C   0  0  0  0  0  0  0  0  0  0  0  0
    9.3156   -6.8040    0.0000 C   0  0  0  0  0  0  0  0  0  0  0  0
    6.7160   -8.8394    0.0000 C   0  0  0  0  0  0  0  0  0  0  0  0
    8.1450   -8.8394    0.0000 H   0  0  0  0  0  0  0  0  0  0  0  0
   10.4409   -7.9585    0.0000 H   0  0  0  0  0  0  0  0  0  0  0  0
   12.3199   -6.8728    0.0000 C   0  0  0  0  0  0  0  0  0  0  0  0
   11.4708   -4.8620    0.0000 C   0  0  0  0  0  0  0  0  0  0  0  0
   12.8298   -5.3035    0.0000 C   0  0  0  0  0  0  0  0  0  0  0  0
   13.1269   -6.7012    0.0000 C   0  0  0  0  0  0  0  0  0  0  0  0
    4.5726  -10.9019    0.0000 O   0  0  0  0  0  0  0  0  0  0  0  0
    3.8581  -10.4894    0.0000 C   0  0  0  0  0  0  0  0  0  0  0  0
    3.8581   -9.6644    0.0000 O   0  0  0  0  0  0  0  0  0  0  0  0
    3.1437   -9.2519    0.0000 C   0  0  1  0  0  0  0  0  0  0  0  0
    2.4292   -9.6644    0.0000 C   0  0  2  0  0  0  0  0  0  0  0  0
    2.4292  -10.4894    0.0000 C   0  0  1  0  0  0  0  0  0  0  0  0
    3.1437  -10.9019    0.0000 C   0  0  1  0  0  0  0  0  0  0  0  0
    3.1437   -8.4269    0.0000 C   0  0  0  0  0  0  0  0  0  0  0  0
    1.7147  -10.9019    0.0000 O   0  0  0  0  0  0  0  0  0  0  0  0
    1.7147   -9.2519    0.0000 O   0  0  0  0  0  0  0  0  0  0  0  0
    3.1437  -11.7269    0.0000 O   0  0  0  0  0  0  0  0  0  0  0  0
    2.4292   -8.0144    0.0000 O   0  0  0  0  0  0  0  0  0  0  0  0
  1  2  1  0  0  0  0
  2  3  1  0  0  0  0
  3  4  1  0  0  0  0
  4  5  1  0  0  0  0
  5  6  2  0  0  0  0
  6  7  1  0  0  0  0
  7  8  1  0  0  0  0
  8  9  1  0  0  0  0
  9 10  1  0  0  0  0
 10 11  1  0  0  0  0
 11 12  1  0  0  0  0
 12 13  1  0  0  0  0
  8 13  1  0  0  0  0
 13 14  1  0  0  0  0
  5 14  1  0  0  0  0
  1 14  1  0  0  0  0
 13 15  1  6  0  0  0
  9 16  1  6  0  0  0
  9 17  1  0  0  0  0
 17 18  1  0  0  0  0
 18 19  1  0  0  0  0
 19 10  1  0  0  0  0
 10 20  1  1  0  0  0
 19 21  1  0  0  0  0
 21 22  1  0  0  0  0
 22 23  1  0  0  0  0
 24 23  1  6  0  0  0
 24 25  1  0  0  0  0
 21 26  1  6  0  0  0
 14 27  1  1  0  0  0
  8 28  1  1  0  0  0
 19 29  1  6  0  0  0
 24 30  1  0  0  0  0
 25 31  2  0  0  0  0
 25 32  1  0  0  0  0
 30 33  1  0  0  0  0
  3 34  1  1  0  0  0
 34 35  1  0  0  0  0
 35 36  1  0  0  0  0
 36 37  1  0  0  0  0
 37 38  1  0  0  0  0
 38 39  1  0  0  0  0
 39 40  1  0  0  0  0
 40 35  1  0  0  0  0
 37 41  1  1  0  0  0
 39 42  1  1  0  0  0
 38 43  1  6  0  0  0
 40 44  1  6  0  0  0
 41 45  1  0  0  0  0
M  END
>  <cdx:fragmentId>
102388

$$$$
