1613.cdx
  Mrv1902 05222410242D          

 22 23  0  0  0  0            999 V2000
    2.4989   -6.4763    0.0000 C   0  0  0  0  0  0  0  0  0  0  0  0
    2.4989   -7.3012    0.0000 C   0  0  0  0  0  0  0  0  0  0  0  0
    3.2134   -7.7138    0.0000 C   0  0  0  0  0  0  0  0  0  0  0  0
    3.9278   -7.3012    0.0000 C   0  0  0  0  0  0  0  0  0  0  0  0
    3.9278   -6.4763    0.0000 C   0  0  0  0  0  0  0  0  0  0  0  0
    3.2134   -6.0638    0.0000 C   0  0  0  0  0  0  0  0  0  0  0  0
    1.7844   -7.7138    0.0000 O   0  0  0  0  0  0  0  0  0  0  0  0
    4.6423   -6.0638    0.0000 C   0  0  0  0  0  0  0  0  0  0  0  0
    5.3568   -6.4763    0.0000 C   0  0  0  0  0  0  0  0  0  0  0  0
    6.0713   -6.0638    0.0000 C   0  0  1  0  0  0  0  0  0  0  0  0
    6.7857   -6.4763    0.0000 C   0  0  0  0  0  0  0  0  0  0  0  0
    7.5002   -6.0638    0.0000 C   0  0  0  0  0  0  0  0  0  0  0  0
    8.2147   -6.4763    0.0000 C   0  0  0  0  0  0  0  0  0  0  0  0
    8.9291   -6.0638    0.0000 C   0  0  0  0  0  0  0  0  0  0  0  0
    9.6436   -6.4763    0.0000 C   0  0  0  0  0  0  0  0  0  0  0  0
    9.6436   -7.3012    0.0000 C   0  0  0  0  0  0  0  0  0  0  0  0
   10.3581   -7.7138    0.0000 C   0  0  0  0  0  0  0  0  0  0  0  0
   11.0726   -7.3012    0.0000 C   0  0  0  0  0  0  0  0  0  0  0  0
   11.0726   -6.4763    0.0000 C   0  0  0  0  0  0  0  0  0  0  0  0
   10.3581   -6.0638    0.0000 C   0  0  0  0  0  0  0  0  0  0  0  0
   11.7870   -7.7138    0.0000 O   0  0  0  0  0  0  0  0  0  0  0  0
    6.0713   -5.2387    0.0000 O   0  0  0  0  0  0  0  0  0  0  0  0
  1  2  2  0  0  0  0
  2  3  1  0  0  0  0
  3  4  2  0  0  0  0
  4  5  1  0  0  0  0
  5  6  2  0  0  0  0
  6  1  1  0  0  0  0
  2  7  1  0  0  0  0
  5  8  1  0  0  0  0
  8  9  1  0  0  0  0
  9 10  1  0  0  0  0
 10 11  1  0  0  0  0
 11 12  1  0  0  0  0
 12 13  1  0  0  0  0
 13 14  2  0  0  0  0
 14 15  1  0  0  0  0
 15 16  2  0  0  0  0
 16 17  1  0  0  0  0
 17 18  2  0  0  0  0
 18 19  1  0  0  0  0
 19 20  2  0  0  0  0
 20 15  1  0  0  0  0
 18 21  1  0  0  0  0
 10 22  1  6  0  0  0
M  END
>  <cdx:fragmentId>
5

$$$$
