161395.cdx
  Mrv1902 05222410222D          

 37 41  0  0  0  0            999 V2000
    4.8465   -9.2244    0.0000 C   0  0  0  0  0  0  0  0  0  0  0  0
    4.1321   -9.6369    0.0000 C   0  0  2  0  0  0  0  0  0  0  0  0
    4.1321  -10.4619    0.0000 C   0  0  1  0  0  0  0  0  0  0  0  0
    4.8465  -10.8744    0.0000 C   0  0  1  0  0  0  0  0  0  0  0  0
    5.5610  -10.4619    0.0000 C   0  0  2  0  0  0  0  0  0  0  0  0
    6.2755  -10.8744    0.0000 C   0  0  0  0  0  0  0  0  0  0  0  0
    6.9900  -10.4619    0.0000 C   0  0  0  0  0  0  0  0  0  0  0  0
    6.9900   -9.6369    0.0000 C   0  0  1  0  0  0  0  0  0  0  0  0
    7.7044   -9.2244    0.0000 C   0  0  2  0  0  0  0  0  0  0  0  0
    7.7044   -8.3994    0.0000 C   0  0  0  0  0  0  0  0  0  0  0  0
    6.9900   -7.9869    0.0000 C   0  0  0  0  0  0  0  0  0  0  0  0
    6.2755   -8.3994    0.0000 C   0  0  0  0  0  0  0  0  0  0  0  0
    6.2755   -9.2244    0.0000 C   0  0  2  0  0  0  0  0  0  0  0  0
    5.5610   -9.6369    0.0000 C   0  0  1  0  0  0  0  0  0  0  0  0
    3.4176  -10.8744    0.0000 O   0  0  0  0  0  0  0  0  0  0  0  0
    5.5610   -8.8119    0.0000 C   0  0  0  0  0  0  0  0  0  0  0  0
    6.9900   -8.8119    0.0000 C   0  0  0  0  0  0  0  0  0  0  0  0
    6.2755  -10.0494    0.0000 H   0  0  0  0  0  0  0  0  0  0  0  0
    7.7044  -10.0494    0.0000 C   0  0  0  0  0  0  0  0  0  0  0  0
    3.4176   -9.2244    0.0000 O   0  0  0  0  0  0  0  0  0  0  0  0
    4.4340  -11.5889    0.0000 C   0  0  0  0  0  0  0  0  0  0  0  0
    5.2590  -11.5889    0.0000 C   0  0  0  0  0  0  0  0  0  0  0  0
    4.8465  -12.3034    0.0000 O   0  0  0  0  0  0  0  0  0  0  0  0
    5.5610  -11.2869    0.0000 H   0  0  0  0  0  0  0  0  0  0  0  0
    8.4189   -9.6369    0.0000 C   0  0  0  0  0  0  0  0  0  0  0  0
    9.1334   -9.2244    0.0000 C   0  0  0  0  0  0  0  0  0  0  0  0
    9.1334   -8.3994    0.0000 C   0  0  2  0  0  0  0  0  0  0  0  0
    8.4189   -7.9869    0.0000 C   0  0  0  0  0  0  0  0  0  0  0  0
    9.8478   -7.9869    0.0000 C   0  0  0  0  0  0  0  0  0  0  0  0
    9.8478   -7.1619    0.0000 C   0  0  0  0  0  0  0  0  0  0  0  0
    9.1334   -6.7494    0.0000 C   0  0  0  0  0  0  0  0  0  0  0  0
    8.4189   -7.1619    0.0000 C   0  0  0  0  0  0  0  0  0  0  0  0
    9.8478   -8.8119    0.0000 C   0  0  0  0  0  0  0  0  0  0  0  0
   10.5623   -8.3994    0.0000 O   0  0  0  0  0  0  0  0  0  0  0  0
    9.8478   -9.6369    0.0000 O   0  0  0  0  0  0  0  0  0  0  0  0
    8.7209   -6.0349    0.0000 C   0  0  0  0  0  0  0  0  0  0  0  0
    9.5459   -6.0349    0.0000 C   0  0  0  0  0  0  0  0  0  0  0  0
  1  2  1  0  0  0  0
  2  3  1  0  0  0  0
  3  4  1  0  0  0  0
  4  5  1  0  0  0  0
  5  6  1  0  0  0  0
  6  7  1  0  0  0  0
  7  8  1  0  0  0  0
  8  9  1  0  0  0  0
  9 10  1  0  0  0  0
 10 11  2  0  0  0  0
 11 12  1  0  0  0  0
 12 13  1  0  0  0  0
  8 13  1  0  0  0  0
 13 14  1  0  0  0  0
  5 14  1  0  0  0  0
  1 14  1  0  0  0  0
  3 15  1  1  0  0  0
 14 16  1  1  0  0  0
  8 17  1  1  0  0  0
 13 18  1  6  0  0  0
  9 19  1  6  0  0  0
  2 20  1  6  0  0  0
  4 21  1  1  0  0  0
  4 22  1  6  0  0  0
 22 23  1  0  0  0  0
  5 24  1  6  0  0  0
  9 25  1  0  0  0  0
 25 26  1  0  0  0  0
 26 27  1  0  0  0  0
 27 28  1  0  0  0  0
 28 10  1  0  0  0  0
 27 29  1  0  0  0  0
 29 30  1  0  0  0  0
 30 31  1  0  0  0  0
 31 32  1  0  0  0  0
 32 28  1  0  0  0  0
 27 33  1  1  0  0  0
 33 34  1  0  0  0  0
 33 35  2  0  0  0  0
 31 36  1  0  0  0  0
 31 37  1  0  0  0  0
M  END
>  <cdx:fragmentId>
102388

$$$$
