161394.cdx
  Mrv1902 05222410232D          

 35 38  0  0  0  0            999 V2000
    4.8465   -9.2244    0.0000 C   0  0  0  0  0  0  0  0  0  0  0  0
    4.1321   -9.6369    0.0000 C   0  0  0  0  0  0  0  0  0  0  0  0
    4.1321  -10.4619    0.0000 C   0  0  1  0  0  0  0  0  0  0  0  0
    4.8465  -10.8744    0.0000 C   0  0  0  0  0  0  0  0  0  0  0  0
    5.5610  -10.4619    0.0000 C   0  0  0  0  0  0  0  0  0  0  0  0
    6.2755  -10.8744    0.0000 C   0  0  0  0  0  0  0  0  0  0  0  0
    6.9900  -10.4619    0.0000 C   0  0  0  0  0  0  0  0  0  0  0  0
    6.9900   -9.6369    0.0000 C   0  0  1  0  0  0  0  0  0  0  0  0
    7.7044   -9.2244    0.0000 C   0  0  2  0  0  0  0  0  0  0  0  0
    8.4891   -9.4794    0.0000 C   0  0  0  0  0  0  0  0  0  0  0  0
    8.9740   -8.8119    0.0000 C   0  0  0  0  0  0  0  0  0  0  0  0
    8.4891   -8.1445    0.0000 C   0  0  1  0  0  0  0  0  0  0  0  0
    7.7044   -8.3994    0.0000 C   0  0  1  0  0  0  0  0  0  0  0  0
    6.9900   -7.9869    0.0000 C   0  0  0  0  0  0  0  0  0  0  0  0
    6.2755   -8.3994    0.0000 C   0  0  0  0  0  0  0  0  0  0  0  0
    6.2755   -9.2244    0.0000 C   0  0  2  0  0  0  0  0  0  0  0  0
    5.5610   -9.6369    0.0000 C   0  0  1  0  0  0  0  0  0  0  0  0
    3.4176  -10.8744    0.0000 O   0  0  0  0  0  0  0  0  0  0  0  0
    7.7907   -7.5789    0.0000 C   0  0  0  0  0  0  0  0  0  0  0  0
    5.5610   -8.8119    0.0000 C   0  0  0  0  0  0  0  0  0  0  0  0
    8.1920   -6.7468    0.0000 C   0  0  0  0  0  0  0  0  0  0  0  0
    8.7440   -7.3599    0.0000 C   0  0  2  0  0  0  0  0  0  0  0  0
    9.5510   -7.1883    0.0000 C   0  0  0  0  0  0  0  0  0  0  0  0
    9.8059   -6.4037    0.0000 C   0  0  0  0  0  0  0  0  0  0  0  0
   10.6129   -6.2322    0.0000 C   0  0  0  0  0  0  0  0  0  0  0  0
    6.9900   -8.8119    0.0000 H   0  0  0  0  0  0  0  0  0  0  0  0
    6.2755  -10.0494    0.0000 H   0  0  0  0  0  0  0  0  0  0  0  0
    7.7044  -10.0494    0.0000 H   0  0  0  0  0  0  0  0  0  0  0  0
    9.2737   -7.8895    0.0000 H   0  0  0  0  0  0  0  0  0  0  0  0
   10.3994   -5.4353    0.0000 O   0  0  0  0  0  0  0  0  0  0  0  0
   10.8264   -7.0291    0.0000 C   0  0  0  0  0  0  0  0  0  0  0  0
   11.4198   -6.0607    0.0000 C   0  0  0  0  0  0  0  0  0  0  0  0
   11.9719   -6.6737    0.0000 C   0  0  0  0  0  0  0  0  0  0  0  0
   11.6748   -5.2760    0.0000 C   0  0  0  0  0  0  0  0  0  0  0  0
   11.6233   -7.2426    0.0000 C   0  0  0  0  0  0  0  0  0  0  0  0
  1  2  1  0  0  0  0
  2  3  1  0  0  0  0
  3  4  1  0  0  0  0
  4  5  1  0  0  0  0
  5  6  2  0  0  0  0
  6  7  1  0  0  0  0
  7  8  1  0  0  0  0
  8  9  1  0  0  0  0
  9 10  1  0  0  0  0
 10 11  1  0  0  0  0
 12 11  1  0  0  0  0
 12 13  1  0  0  0  0
  9 13  1  0  0  0  0
 13 14  1  0  0  0  0
 14 15  1  0  0  0  0
 15 16  1  0  0  0  0
  8 16  1  0  0  0  0
 16 17  1  0  0  0  0
  5 17  1  0  0  0  0
  1 17  1  0  0  0  0
  3 18  1  1  0  0  0
 13 19  1  1  0  0  0
 17 20  1  1  0  0  0
 22 21  1  6  0  0  0
 22 23  1  0  0  0  0
 23 24  1  0  0  0  0
 24 25  1  0  0  0  0
 12 22  1  0  0  0  0
  8 26  1  1  0  0  0
 16 27  1  6  0  0  0
  9 28  1  6  0  0  0
 12 29  1  6  0  0  0
 25 30  1  0  0  0  0
 25 31  1  0  0  0  0
 25 32  1  0  0  0  0
 32 33  1  0  0  0  0
 32 34  1  0  0  0  0
 31 35  2  0  0  0  0
M  END
>  <cdx:fragmentId>
102388

$$$$
