161399.cdx
  Mrv1902 05222410232D          

 62 66  0  0  0  0            999 V2000
    6.1115  -12.6894    0.0000 C   0  0  0  0  0  0  0  0  0  0  0  0
    5.3971  -13.1019    0.0000 C   0  0  0  0  0  0  0  0  0  0  0  0
    5.3971  -13.9269    0.0000 C   0  0  1  0  0  0  0  0  0  0  0  0
    6.1115  -14.3394    0.0000 C   0  0  0  0  0  0  0  0  0  0  0  0
    6.8260  -13.9269    0.0000 C   0  0  0  0  0  0  0  0  0  0  0  0
    7.5405  -14.3394    0.0000 C   0  0  0  0  0  0  0  0  0  0  0  0
    8.2550  -13.9269    0.0000 C   0  0  0  0  0  0  0  0  0  0  0  0
    8.2550  -13.1019    0.0000 C   0  0  1  0  0  0  0  0  0  0  0  0
    8.9694  -12.6894    0.0000 C   0  0  1  0  0  0  0  0  0  0  0  0
    8.9694  -11.8644    0.0000 C   0  0  2  0  0  0  0  0  0  0  0  0
    8.2550  -11.4519    0.0000 C   0  0  0  0  0  0  0  0  0  0  0  0
    7.5405  -11.8644    0.0000 C   0  0  0  0  0  0  0  0  0  0  0  0
    7.5405  -12.6894    0.0000 C   0  0  2  0  0  0  0  0  0  0  0  0
    6.8260  -13.1019    0.0000 C   0  0  1  0  0  0  0  0  0  0  0  0
    7.5405  -13.5144    0.0000 H   0  0  0  0  0  0  0  0  0  0  0  0
    8.9694  -13.5144    0.0000 H   0  0  0  0  0  0  0  0  0  0  0  0
    9.7541  -12.9444    0.0000 C   0  0  0  0  0  0  0  0  0  0  0  0
   10.2390  -12.2769    0.0000 C   0  0  0  0  0  0  0  0  0  0  0  0
    9.7541  -11.6095    0.0000 C   0  0  2  0  0  0  0  0  0  0  0  0
    8.9694  -11.0394    0.0000 C   0  0  0  0  0  0  0  0  0  0  0  0
   10.0090  -10.8249    0.0000 C   0  0  1  0  0  0  0  0  0  0  0  0
   10.8160  -10.6533    0.0000 C   0  0  0  0  0  0  0  0  0  0  0  0
   11.0709   -9.8687    0.0000 C   0  0  0  0  0  0  0  0  0  0  0  0
   11.8779   -9.6972    0.0000 C   0  0  2  0  0  0  0  0  0  0  0  0
   12.1328   -8.9126    0.0000 C   0  0  0  0  0  0  0  0  0  0  0  0
    9.4256  -10.2415    0.0000 C   0  0  0  0  0  0  0  0  0  0  0  0
    6.8260  -12.2769    0.0000 C   0  0  0  0  0  0  0  0  0  0  0  0
    8.2550  -12.2769    0.0000 H   0  0  0  0  0  0  0  0  0  0  0  0
   10.5509  -11.3960    0.0000 H   0  0  0  0  0  0  0  0  0  0  0  0
   12.4299  -10.3103    0.0000 C   0  0  0  0  0  0  0  0  0  0  0  0
   11.5808   -8.2995    0.0000 C   0  0  0  0  0  0  0  0  0  0  0  0
   12.9398   -8.7410    0.0000 C   0  0  0  0  0  0  0  0  0  0  0  0
   13.2369  -10.1387    0.0000 C   0  0  0  0  0  0  0  0  0  0  0  0
    4.6826  -14.3394    0.0000 O   0  0  0  0  0  0  0  0  0  0  0  0
    3.9681  -13.9269    0.0000 C   0  0  0  0  0  0  0  0  0  0  0  0
    3.9681  -13.1019    0.0000 O   0  0  0  0  0  0  0  0  0  0  0  0
    3.2537  -12.6894    0.0000 C   0  0  1  0  0  0  0  0  0  0  0  0
    2.5392  -13.1019    0.0000 C   0  0  2  0  0  0  0  0  0  0  0  0
    2.5392  -13.9269    0.0000 C   0  0  1  0  0  0  0  0  0  0  0  0
    3.2537  -14.3394    0.0000 C   0  0  1  0  0  0  0  0  0  0  0  0
    3.2537  -11.8644    0.0000 C   0  0  0  0  0  0  0  0  0  0  0  0
    1.8247  -14.3394    0.0000 O   0  0  0  0  0  0  0  0  0  0  0  0
    1.8247  -12.6894    0.0000 O   0  0  0  0  0  0  0  0  0  0  0  0
    3.2537  -15.1644    0.0000 O   0  0  0  0  0  0  0  0  0  0  0  0
    2.5392  -11.4519    0.0000 O   0  0  0  0  0  0  0  0  0  0  0  0
    2.5392  -10.6269    0.0000 C   0  0  0  0  0  0  0  0  0  0  0  0
    1.8247  -10.2144    0.0000 O   0  0  0  0  0  0  0  0  0  0  0  0
    3.2537  -10.2144    0.0000 C   0  0  0  0  0  0  0  0  0  0  0  0
    3.2537   -9.3894    0.0000 C   0  0  0  0  0  0  0  0  0  0  0  0
    3.9681   -8.9769    0.0000 C   0  0  0  0  0  0  0  0  0  0  0  0
    3.9681   -8.1519    0.0000 C   0  0  0  0  0  0  0  0  0  0  0  0
    4.6826   -7.7394    0.0000 C   0  0  0  0  0  0  0  0  0  0  0  0
    4.6826   -6.9144    0.0000 C   0  0  0  0  0  0  0  0  0  0  0  0
    5.3971   -6.5019    0.0000 C   0  0  0  0  0  0  0  0  0  0  0  0
    5.3971   -5.6769    0.0000 C   0  0  0  0  0  0  0  0  0  0  0  0
    6.1115   -5.2644    0.0000 C   0  0  0  0  0  0  0  0  0  0  0  0
    6.1115   -4.4394    0.0000 C   0  0  0  0  0  0  0  0  0  0  0  0
    6.8260   -4.0269    0.0000 C   0  0  0  0  0  0  0  0  0  0  0  0
    6.8260   -3.2019    0.0000 C   0  0  0  0  0  0  0  0  0  0  0  0
    7.5405   -2.7894    0.0000 C   0  0  0  0  0  0  0  0  0  0  0  0
    7.5405   -1.9644    0.0000 C   0  0  0  0  0  0  0  0  0  0  0  0
    8.2550   -1.5519    0.0000 C   0  0  0  0  0  0  0  0  0  0  0  0
  1  2  1  0  0  0  0
  2  3  1  0  0  0  0
  3  4  1  0  0  0  0
  4  5  1  0  0  0  0
  5  6  2  0  0  0  0
  6  7  1  0  0  0  0
  7  8  1  0  0  0  0
  8  9  1  0  0  0  0
  9 10  1  0  0  0  0
 10 11  1  0  0  0  0
 11 12  1  0  0  0  0
 12 13  1  0  0  0  0
  8 13  1  0  0  0  0
 13 14  1  0  0  0  0
  5 14  1  0  0  0  0
  1 14  1  0  0  0  0
 13 15  1  6  0  0  0
  9 16  1  6  0  0  0
  9 17  1  0  0  0  0
 17 18  1  0  0  0  0
 18 19  1  0  0  0  0
 19 10  1  0  0  0  0
 10 20  1  1  0  0  0
 19 21  1  0  0  0  0
 21 22  1  0  0  0  0
 22 23  1  0  0  0  0
 24 23  1  6  0  0  0
 24 25  1  0  0  0  0
 21 26  1  6  0  0  0
 14 27  1  1  0  0  0
  8 28  1  1  0  0  0
 19 29  1  6  0  0  0
 24 30  1  0  0  0  0
 25 31  2  0  0  0  0
 25 32  1  0  0  0  0
 30 33  1  0  0  0  0
  3 34  1  1  0  0  0
 34 35  1  0  0  0  0
 35 36  1  0  0  0  0
 36 37  1  0  0  0  0
 37 38  1  0  0  0  0
 38 39  1  0  0  0  0
 39 40  1  0  0  0  0
 40 35  1  0  0  0  0
 37 41  1  1  0  0  0
 39 42  1  1  0  0  0
 38 43  1  6  0  0  0
 40 44  1  6  0  0  0
 41 45  1  0  0  0  0
 45 46  1  0  0  0  0
 46 47  2  0  0  0  0
 46 48  1  0  0  0  0
 48 49  1  0  0  0  0
 49 50  1  0  0  0  0
 50 51  1  0  0  0  0
 51 52  1  0  0  0  0
 52 53  1  0  0  0  0
 53 54  1  0  0  0  0
 54 55  1  0  0  0  0
 55 56  1  0  0  0  0
 56 57  1  0  0  0  0
 57 58  1  0  0  0  0
 58 59  1  0  0  0  0
 59 60  1  0  0  0  0
 60 61  1  0  0  0  0
 61 62  1  0  0  0  0
M  END
>  <cdx:fragmentId>
102388

$$$$
