161409.cdx
  Mrv1902 05222410202D          

 22 24  0  0  0  0            999 V2000
    8.7324   -6.0987    0.0000 C   0  0  0  0  0  0  0  0  0  0  0  0
    9.4460   -5.6847    0.0000 C   0  0  0  0  0  0  0  0  0  0  0  0
    8.0171   -5.6876    0.0000 O   0  0  0  0  0  0  0  0  0  0  0  0
    8.7341   -6.9237    0.0000 O   0  0  0  0  0  0  0  0  0  0  0  0
    7.6346   -7.1849    0.0000 C   0  0  0  0  0  0  0  0  0  0  0  0
    8.3491   -7.5974    0.0000 C   0  0  0  0  0  0  0  0  0  0  0  0
    4.8012   -9.6176    0.0000 C   0  0  0  0  0  0  0  0  0  0  0  0
    4.8012  -10.4426    0.0000 C   0  0  0  0  0  0  0  0  0  0  0  0
    5.5156  -10.8551    0.0000 C   0  0  0  0  0  0  0  0  0  0  0  0
    6.2301  -10.4426    0.0000 C   0  0  0  0  0  0  0  0  0  0  0  0
    6.9446  -10.8551    0.0000 C   0  0  0  0  0  0  0  0  0  0  0  0
    7.6590  -10.4426    0.0000 C   0  0  0  0  0  0  0  0  0  0  0  0
    7.6590   -9.6176    0.0000 C   0  0  0  0  0  0  0  0  0  0  0  0
    6.9446   -9.2051    0.0000 C   0  0  0  0  0  0  0  0  0  0  0  0
    6.2301   -9.6176    0.0000 C   0  0  0  0  0  0  0  0  0  0  0  0
    5.5156   -9.2051    0.0000 O   0  0  0  0  0  0  0  0  0  0  0  0
    8.2721   -9.0656    0.0000 O   0  0  0  0  0  0  0  0  0  0  0  0
    7.1161   -8.3981    0.0000 C   0  0  0  0  0  0  0  0  0  0  0  0
    7.9366   -8.3119    0.0000 C   0  0  1  0  0  0  0  0  0  0  0  0
    4.0867   -9.2051    0.0000 O   0  0  0  0  0  0  0  0  0  0  0  0
    9.0635   -8.0099    0.0000 C   0  0  0  0  0  0  0  0  0  0  0  0
    8.7616   -8.3119    0.0000 H   0  0  0  0  0  0  0  0  0  0  0  0
  1  2  1  0  0  0  0
  1  3  2  0  0  0  0
  1  4  1  0  0  0  0
  5  6  1  0  0  0  0
  7  8  1  0  0  0  0
  8  9  2  0  0  0  0
  9 10  1  0  0  0  0
 10 11  1  0  0  0  0
 11 12  2  0  0  0  0
 12 13  1  0  0  0  0
 13 14  2  0  0  0  0
 14 15  1  0  0  0  0
 10 15  2  0  0  0  0
 15 16  1  0  0  0  0
  7 16  1  0  0  0  0
 18 19  1  0  0  0  0
 17 19  1  0  0  0  0
 17 13  1  0  0  0  0
 18 14  1  0  0  0  0
  7 20  2  0  0  0  0
 19  6  1  0  0  0  0
  4  6  1  0  0  0  0
  6 21  1  0  0  0  0
 19 22  1  6  0  0  0
M  END
>  <cdx:fragmentId>
19

$$$$
