6161490.cdx
  Mrv1902 05222410202D          

 20 19  0  0  0  0            999 V2000
   12.8098   -8.0349    0.0000 C   0  0  0  0  0  0  0  0  0  0  0  0
   12.0953   -8.4474    0.0000 C   0  0  0  0  0  0  0  0  0  0  0  0
   11.3808   -8.0349    0.0000 C   0  0  0  0  0  0  0  0  0  0  0  0
   10.6664   -8.4474    0.0000 C   0  0  0  0  0  0  0  0  0  0  0  0
    9.9519   -8.0349    0.0000 C   0  0  0  0  0  0  0  0  0  0  0  0
    9.2374   -8.4474    0.0000 C   0  0  0  0  0  0  0  0  0  0  0  0
    8.5230   -8.0349    0.0000 C   0  0  0  0  0  0  0  0  0  0  0  0
    7.8085   -8.4474    0.0000 C   0  0  0  0  0  0  0  0  0  0  0  0
    7.0940   -8.0349    0.0000 C   0  0  0  0  0  0  0  0  0  0  0  0
    6.3795   -8.4474    0.0000 C   0  0  0  0  0  0  0  0  0  0  0  0
    5.6651   -8.0349    0.0000 C   0  0  0  0  0  0  0  0  0  0  0  0
    4.9506   -8.4474    0.0000 C   0  0  0  0  0  0  0  0  0  0  0  0
    4.2361   -8.0349    0.0000 C   0  0  0  0  0  0  0  0  0  0  0  0
    3.5217   -8.4474    0.0000 C   0  0  0  0  0  0  0  0  0  0  0  0
    2.8072   -8.0349    0.0000 C   0  0  0  0  0  0  0  0  0  0  0  0
    2.0927   -8.4474    0.0000 C   0  0  0  0  0  0  0  0  0  0  0  0
    1.3782   -8.0349    0.0000 C   0  0  0  0  0  0  0  0  0  0  0  0
    0.6638   -8.4474    0.0000 C   0  0  0  0  0  0  0  0  0  0  0  0
   12.8098   -7.2099    0.0000 O   0  0  0  0  0  0  0  0  0  0  0  0
   13.5243   -8.4474    0.0000 O   0  0  0  0  0  0  0  0  0  0  0  0
  1  2  1  0  0  0  0
  2  3  1  0  0  0  0
  3  4  1  0  0  0  0
  4  5  1  0  0  0  0
  5  6  1  0  0  0  0
  6  7  1  0  0  0  0
  7  8  1  0  0  0  0
  8  9  1  0  0  0  0
  9 10  1  0  0  0  0
 10 11  1  0  0  0  0
 11 12  1  0  0  0  0
 12 13  1  0  0  0  0
 13 14  2  0  0  0  0
 14 15  1  0  0  0  0
 15 16  1  0  0  0  0
 16 17  1  0  0  0  0
 17 18  1  0  0  0  0
  1 19  2  0  0  0  0
  1 20  1  0  0  0  0
M  END
>  <cdx:groupId>
9729

>  <cdx:fragmentId>
9673

$$$$
