161464.cdx
  Mrv1902 05222410272D          

 22 22  0  0  0  0            999 V2000
    5.9221   -9.6004    0.0000 C   0  0  0  0  0  0  0  0  0  0  0  0
    5.2077  -10.0129    0.0000 C   0  0  0  0  0  0  0  0  0  0  0  0
    5.2077  -10.8379    0.0000 C   0  0  0  0  0  0  0  0  0  0  0  0
    4.4932  -11.2504    0.0000 C   0  0  0  0  0  0  0  0  0  0  0  0
    3.7787  -10.8379    0.0000 C   0  0  0  0  0  0  0  0  0  0  0  0
    3.7787  -10.0129    0.0000 C   0  0  0  0  0  0  0  0  0  0  0  0
    4.4932   -9.6003    0.0000 C   0  0  0  0  0  0  0  0  0  0  0  0
    3.0642   -9.6004    0.0000 O   0  0  0  0  0  0  0  0  0  0  0  0
    2.3498  -10.0129    0.0000 C   0  0  0  0  0  0  0  0  0  0  0  0
    3.0643  -11.2504    0.0000 O   0  0  0  0  0  0  0  0  0  0  0  0
    4.4932  -12.0754    0.0000 O   0  0  0  0  0  0  0  0  0  0  0  0
    3.7787  -12.4879    0.0000 C   0  0  0  0  0  0  0  0  0  0  0  0
    5.9221   -8.7754    0.0000 O   0  0  0  0  0  0  0  0  0  0  0  0
    6.6366  -10.0129    0.0000 O   0  0  0  0  0  0  0  0  0  0  0  0
    7.3511   -9.6004    0.0000 C   0  0  0  0  0  0  0  0  0  0  0  0
    8.0655  -10.0129    0.0000 C   0  0  0  0  0  0  0  0  0  0  0  0
    8.7800   -9.6004    0.0000 C   0  0  0  0  0  0  0  0  0  0  0  0
    9.4945  -10.0129    0.0000 C   0  0  0  0  0  0  0  0  0  0  0  0
   10.2089   -9.6004    0.0000 N   0  0  0  0  0  0  0  0  0  0  0  0
   10.9234  -10.0129    0.0000 C   0  0  0  0  0  0  0  0  0  0  0  0
   10.9234  -10.8379    0.0000 N   0  0  0  0  0  0  0  0  0  0  0  0
   11.6379   -9.6004    0.0000 N   0  0  0  0  0  0  0  0  0  0  0  0
  1  2  1  0  0  0  0
  2  3  1  0  0  0  0
  3  4  2  0  0  0  0
  4  5  1  0  0  0  0
  5  6  2  0  0  0  0
  6  7  1  0  0  0  0
  2  7  2  0  0  0  0
  6  8  1  0  0  0  0
  8  9  1  0  0  0  0
  5 10  1  0  0  0  0
  4 11  1  0  0  0  0
 11 12  1  0  0  0  0
  1 13  2  0  0  0  0
  1 14  1  0  0  0  0
 14 15  1  0  0  0  0
 15 16  1  0  0  0  0
 16 17  1  0  0  0  0
 17 18  1  0  0  0  0
 18 19  1  0  0  0  0
 19 20  2  0  0  0  0
 20 21  1  0  0  0  0
 20 22  1  0  0  0  0
M  END
>  <cdx:fragmentId>
7022

$$$$
