1614.cdx
  Mrv1902 05222410262D          

 22 24  0  0  0  0            999 V2000
    7.3450   -9.7474    0.0000 O   0  0  0  0  0  0  0  0  0  0  0  0
    8.7739  -10.5724    0.0000 O   0  0  0  0  0  0  0  0  0  0  0  0
   10.9173   -9.3349    0.0000 C   0  0  0  0  0  0  0  0  0  0  0  0
   10.2029   -9.7474    0.0000 O   0  0  0  0  0  0  0  0  0  0  0  0
    8.7739   -8.0974    0.0000 C   0  0  0  0  0  0  0  0  0  0  0  0
    9.4884   -8.5099    0.0000 C   0  0  0  0  0  0  0  0  0  0  0  0
    9.4884   -9.3349    0.0000 C   0  0  0  0  0  0  0  0  0  0  0  0
    8.7739   -9.7474    0.0000 C   0  0  0  0  0  0  0  0  0  0  0  0
    8.0595   -9.3349    0.0000 C   0  0  0  0  0  0  0  0  0  0  0  0
    8.0595   -8.5099    0.0000 C   0  0  0  0  0  0  0  0  0  0  0  0
    3.7726   -6.8599    0.0000 O   0  0  0  0  0  0  0  0  0  0  0  0
    6.6305   -9.3349    0.0000 O   0  0  0  0  0  0  0  0  0  0  0  0
    6.6305   -6.8599    0.0000 O   0  0  0  0  0  0  0  0  0  0  0  0
    5.9160   -7.2724    0.0000 C   0  0  0  0  0  0  0  0  0  0  0  0
    5.2016   -6.8599    0.0000 C   0  0  0  0  0  0  0  0  0  0  0  0
    4.4871   -7.2724    0.0000 C   0  0  0  0  0  0  0  0  0  0  0  0
    4.4871   -8.0974    0.0000 C   0  0  0  0  0  0  0  0  0  0  0  0
    5.2016   -8.5099    0.0000 C   0  0  0  0  0  0  0  0  0  0  0  0
    5.9160   -8.0974    0.0000 C   0  0  0  0  0  0  0  0  0  0  0  0
    6.6305   -8.5099    0.0000 C   0  0  0  0  0  0  0  0  0  0  0  0
    7.3450   -8.0974    0.0000 C   0  0  1  0  0  0  0  0  0  0  0  0
    7.3450   -7.2724    0.0000 C   0  0  0  0  0  0  0  0  0  0  0  0
 21 10  1  1  0  0  0
  9  1  1  0  0  0  0
  8  2  1  0  0  0  0
  7  4  1  0  0  0  0
  4  3  1  0  0  0  0
 10  5  2  0  0  0  0
  6  5  1  0  0  0  0
  7  6  2  0  0  0  0
  8  7  1  0  0  0  0
  9  8  2  0  0  0  0
 10  9  1  0  0  0  0
 16 11  1  0  0  0  0
 20 12  2  0  0  0  0
 22 13  1  0  0  0  0
 14 13  1  0  0  0  0
 19 14  2  0  0  0  0
 15 14  1  0  0  0  0
 16 15  2  0  0  0  0
 17 16  1  0  0  0  0
 18 17  2  0  0  0  0
 19 18  1  0  0  0  0
 20 19  1  0  0  0  0
 21 20  1  0  0  0  0
 22 21  1  0  0  0  0
M  END
>  <cdx:fragmentId>
5

$$$$
