161437.cdx
  Mrv1902 05222410212D          

 16 17  0  0  0  0            999 V2000
    7.7682  -12.5745    0.0000 C   0  0  0  0  0  0  0  0  0  0  0  0
    7.9397  -13.3815    0.0000 C   0  0  0  0  0  0  0  0  0  0  0  0
    7.3266  -13.9335    0.0000 C   0  0  0  0  0  0  0  0  0  0  0  0
    7.1551  -13.1265    0.0000 O   0  0  0  0  0  0  0  0  0  0  0  0
    9.8043  -14.4210    0.0000 C   0  0  0  0  0  0  0  0  0  0  0  0
    8.9793  -14.4210    0.0000 C   0  0  0  0  0  0  0  0  0  0  0  0
    8.7243  -13.6364    0.0000 C   0  0  2  0  0  0  0  0  0  0  0  0
    9.3918  -13.1515    0.0000 C   0  0  0  0  0  0  0  0  0  0  0  0
   10.0592  -13.6364    0.0000 C   0  0  0  0  0  0  0  0  0  0  0  0
   10.2307  -12.8295    0.0000 C   0  0  2  0  0  0  0  0  0  0  0  0
   11.0154  -12.5745    0.0000 C   0  0  0  0  0  0  0  0  0  0  0  0
   11.6285  -13.1265    0.0000 C   0  0  0  0  0  0  0  0  0  0  0  0
   11.4569  -13.9335    0.0000 C   0  0  0  0  0  0  0  0  0  0  0  0
   10.6723  -14.1885    0.0000 C   0  0  0  0  0  0  0  0  0  0  0  0
   10.5008  -14.9954    0.0000 C   0  0  0  0  0  0  0  0  0  0  0  0
    9.6176  -12.2774    0.0000 C   0  0  0  0  0  0  0  0  0  0  0  0
  1  2  1  0  0  0  0
  2  3  1  0  0  0  0
  2  4  1  0  0  0  0
  5  6  1  0  0  0  0
  6  7  1  0  0  0  0
  7  8  1  0  0  0  0
  8  9  1  0  0  0  0
  9 10  1  0  0  0  0
 10 11  1  0  0  0  0
 11 12  1  0  0  0  0
 12 13  1  0  0  0  0
 13 14  2  0  0  0  0
  5  9  1  0  0  0  0
  9 14  1  0  0  0  0
 14 15  1  0  0  0  0
 10 16  1  1  0  0  0
  7  2  1  1  0  0  0
M  END
>  <cdx:fragmentId>
18430

$$$$
