161597.cdx
  Mrv1902 05222410212D          

  4  3  0  0  0  0            999 V2000
    7.1184   -4.5631    0.0000 Se  0  0  0  0  0  0  0  0  0  0  0  0
    7.8328   -4.9756    0.0000 O   0  0  0  0  0  0  0  0  0  0  0  0
    7.1184   -3.7381    0.0000 O   0  0  0  0  0  0  0  0  0  0  0  0
    6.4039   -4.9756    0.0000 C   0  0  0  0  0  0  0  0  0  0  0  0
  1  2  1  0  0  0  0
  1  3  2  0  0  0  0
  1  4  1  0  0  0  0
M  END
>  <cdx:groupId>
16

>  <cdx:fragmentId>
5

$$$$
