161557.cdx
  Mrv1902 05222410212D          

 23 25  0  0  0  0            999 V2000
    8.2674   -9.9085    0.0000 O   0  0  0  0  0  0  0  0  0  0  0  0
    5.4095  -10.7335    0.0000 O   0  0  0  0  0  0  0  0  0  0  0  0
    3.9805   -8.2585    0.0000 O   0  0  0  0  0  0  0  0  0  0  0  0
    8.9818   -6.1960    0.0000 O   0  0  0  0  0  0  0  0  0  0  0  0
   10.4108   -7.0210    0.0000 O   0  0  0  0  0  0  0  0  0  0  0  0
   10.4108   -8.6710    0.0000 O   0  0  0  0  0  0  0  0  0  0  0  0
    8.9818   -8.6710    0.0000 C   0  0  0  0  0  0  0  0  0  0  0  0
    9.6963   -8.2585    0.0000 C   0  0  0  0  0  0  0  0  0  0  0  0
    9.6963   -7.4335    0.0000 C   0  0  0  0  0  0  0  0  0  0  0  0
    8.9818   -7.0210    0.0000 C   0  0  0  0  0  0  0  0  0  0  0  0
    8.2674   -7.4335    0.0000 C   0  0  0  0  0  0  0  0  0  0  0  0
    8.2674   -8.2585    0.0000 C   0  0  0  0  0  0  0  0  0  0  0  0
    6.8384  -10.7335    0.0000 O   0  0  0  0  0  0  0  0  0  0  0  0
    6.8384   -8.2585    0.0000 O   0  0  0  0  0  0  0  0  0  0  0  0
    6.1239   -8.6710    0.0000 C   0  0  0  0  0  0  0  0  0  0  0  0
    5.4095   -8.2585    0.0000 C   0  0  0  0  0  0  0  0  0  0  0  0
    4.6950   -8.6710    0.0000 C   0  0  0  0  0  0  0  0  0  0  0  0
    4.6950   -9.4960    0.0000 C   0  0  0  0  0  0  0  0  0  0  0  0
    5.4095   -9.9085    0.0000 C   0  0  0  0  0  0  0  0  0  0  0  0
    6.1239   -9.4960    0.0000 C   0  0  0  0  0  0  0  0  0  0  0  0
    6.8384   -9.9085    0.0000 C   0  0  0  0  0  0  0  0  0  0  0  0
    7.5529   -9.4960    0.0000 C   0  0  1  0  0  0  0  0  0  0  0  0
    7.5529   -8.6710    0.0000 C   0  0  1  0  0  0  0  0  0  0  0  0
 22  1  1  1  0  0  0
 19  2  1  0  0  0  0
 17  3  1  0  0  0  0
 23 12  1  6  0  0  0
 10  4  1  0  0  0  0
  9  5  1  0  0  0  0
  8  6  1  0  0  0  0
 12  7  2  0  0  0  0
  8  7  1  0  0  0  0
  9  8  2  0  0  0  0
 10  9  1  0  0  0  0
 11 10  2  0  0  0  0
 12 11  1  0  0  0  0
 21 13  2  0  0  0  0
 23 14  1  0  0  0  0
 15 14  1  0  0  0  0
 20 15  2  0  0  0  0
 16 15  1  0  0  0  0
 17 16  2  0  0  0  0
 18 17  1  0  0  0  0
 19 18  2  0  0  0  0
 20 19  1  0  0  0  0
 21 20  1  0  0  0  0
 22 21  1  0  0  0  0
 23 22  1  0  0  0  0
M  END
>  <cdx:fragmentId>
5

$$$$
