161515.cdx
  Mrv1902 05222410272D          

 27 32  0  0  0  0            999 V2000
    6.5753   -8.9610    0.0000 C   0  0  1  0  0  0  0  0  0  0  0  0
    6.5729   -8.1360    0.0000 C   0  0  0  0  0  0  0  0  0  0  0  0
    5.8621   -9.3755    0.0000 C   0  0  2  0  0  0  0  0  0  0  0  0
    5.1464   -8.9651    0.0000 C   0  0  0  0  0  0  0  0  0  0  0  0
    5.1440   -8.1401    0.0000 C   0  0  0  0  0  0  0  0  0  0  0  0
    5.8572   -7.7255    0.0000 C   0  0  0  0  0  0  0  0  0  0  0  0
    5.8645  -10.2005    0.0000 C   0  0  0  0  0  0  0  0  0  0  0  0
    6.5725   -7.4800    0.0000 C   0  0  0  0  0  0  0  0  0  0  0  0
    5.8575   -8.4975    0.0000 N   0  0  0  0  0  0  0  0  0  0  0  0
    5.1425   -9.6800    0.0000 C   0  0  0  0  0  0  0  0  0  0  0  0
    6.5687   -9.7859    0.0000 H   0  0  0  0  0  0  0  0  0  0  0  0
    4.6750   -8.4975    0.0000 C   0  0  0  0  0  0  0  0  0  0  0  0
    4.0916   -7.9141    0.0000 C   0  0  0  0  0  0  0  0  0  0  0  0
    7.2910   -9.3714    0.0000 C   0  0  0  0  0  0  0  0  0  0  0  0
    8.0043   -8.9610    0.0000 C   0  0  0  0  0  0  0  0  0  0  0  0
    8.0043   -8.1360    0.0000 C   0  0  0  0  0  0  0  0  0  0  0  0
    7.2910   -7.7255    0.0000 C   0  0  2  0  0  0  0  0  0  0  0  0
    8.7163   -7.7255    0.0000 C   0  0  0  0  0  0  0  0  0  0  0  0
    8.7163   -6.9026    0.0000 C   0  0  0  0  0  0  0  0  0  0  0  0
    8.0043   -6.4922    0.0000 C   0  0  0  0  0  0  0  0  0  0  0  0
    7.2910   -6.9026    0.0000 C   0  0  2  0  0  0  0  0  0  0  0  0
    6.5768   -6.4896    0.0000 O   0  0  0  0  0  0  0  0  0  0  0  0
    9.3500   -6.5175    0.0000 C   0  0  0  0  0  0  0  0  0  0  0  0
    9.3500   -8.1125    0.0000 C   0  0  1  0  0  0  0  0  0  0  0  0
    9.9384   -8.6908    0.0000 O   0  0  0  0  0  0  0  0  0  0  0  0
    9.9388   -5.9396    0.0000 C   0  0  0  0  0  0  0  0  0  0  0  0
    6.7076   -7.1422    0.0000 H   0  0  0  0  0  0  0  0  0  0  0  0
  1  2  1  0  0  0  0
  1  3  1  0  0  0  0
  3  4  1  0  0  0  0
  4  5  1  0  0  0  0
  5  6  1  0  0  0  0
  6  2  1  0  0  0  0
  3  7  1  1  0  0  0
  2  8  1  0  0  0  0
  8  9  1  0  0  0  0
  9 10  1  0  0  0  0
  3 10  1  0  0  0  0
  1 11  1  1  0  0  0
  9 12  1  0  0  0  0
 12 13  1  0  0  0  0
  1 14  1  0  0  0  0
 14 15  1  0  0  0  0
 15 16  1  0  0  0  0
 16 17  1  0  0  0  0
 17  2  1  0  0  0  0
 16 18  1  0  0  0  0
 18 19  1  0  0  0  0
 19 20  1  0  0  0  0
 20 21  1  0  0  0  0
 21 17  1  0  0  0  0
  8 15  1  0  0  0  0
 21 22  1  1  0  0  0
 20 23  1  0  0  0  0
 16 24  1  0  0  0  0
 23 24  1  0  0  0  0
 24 25  1  1  0  0  0
 23 26  2  0  0  0  0
 17 27  1  6  0  0  0
M  END
>  <cdx:fragmentId>
704

$$$$
