161619.cdx
  Mrv1902 05222410222D          

 37 40  0  0  0  0            999 V2000
    7.6698  -11.1214    0.0000 C   0  0  1  0  0  0  0  0  0  0  0  0
    8.3843  -10.7089    0.0000 C   0  0  1  0  0  0  0  0  0  0  0  0
    8.3843   -9.8839    0.0000 C   0  0  1  0  0  0  0  0  0  0  0  0
    7.6698   -9.4714    0.0000 C   0  0  0  0  0  0  0  0  0  0  0  0
    6.9553   -9.8839    0.0000 C   0  0  0  0  0  0  0  0  0  0  0  0
    6.9553  -10.7089    0.0000 O   0  0  0  0  0  0  0  0  0  0  0  0
    9.1689   -9.6289    0.0000 C   0  0  0  0  0  0  0  0  0  0  0  0
    9.6538  -10.2964    0.0000 C   0  0  0  0  0  0  0  0  0  0  0  0
    9.1689  -10.9638    0.0000 C   0  0  2  0  0  0  0  0  0  0  0  0
    7.6698   -8.6464    0.0000 C   0  0  0  0  0  0  0  0  0  0  0  0
    8.3843   -8.2339    0.0000 O   0  0  0  0  0  0  0  0  0  0  0  0
    6.9553   -8.2339    0.0000 O   0  0  0  0  0  0  0  0  0  0  0  0
    7.6698  -11.9464    0.0000 O   0  0  0  0  0  0  0  0  0  0  0  0
    6.2409  -11.9464    0.0000 O   0  0  0  0  0  0  0  0  0  0  0  0
    6.9553  -12.3589    0.0000 C   0  0  2  0  0  0  0  0  0  0  0  0
    6.9553  -13.1839    0.0000 C   0  0  1  0  0  0  0  0  0  0  0  0
    6.2409  -13.5964    0.0000 C   0  0  2  0  0  0  0  0  0  0  0  0
    5.5264  -13.1839    0.0000 C   0  0  1  0  0  0  0  0  0  0  0  0
    5.5264  -12.3589    0.0000 C   0  0  1  0  0  0  0  0  0  0  0  0
    4.8119  -11.9464    0.0000 C   0  0  0  0  0  0  0  0  0  0  0  0
    4.0974  -12.3589    0.0000 O   0  0  0  0  0  0  0  0  0  0  0  0
    4.8119  -13.5964    0.0000 O   0  0  0  0  0  0  0  0  0  0  0  0
    6.2409  -14.4214    0.0000 O   0  0  0  0  0  0  0  0  0  0  0  0
    7.6698  -13.5964    0.0000 O   0  0  0  0  0  0  0  0  0  0  0  0
   10.4788  -10.2964    0.0000 O   0  0  0  0  0  0  0  0  0  0  0  0
    9.4238  -11.7484    0.0000 C   0  0  0  0  0  0  0  0  0  0  0  0
    8.4705   -9.0634    0.0000 H   0  0  0  0  0  0  0  0  0  0  0  0
    8.4705  -11.5293    0.0000 H   0  0  0  0  0  0  0  0  0  0  0  0
    6.9553   -7.4089    0.0000 C   0  0  0  0  0  0  0  0  0  0  0  0
    6.2409   -6.9964    0.0000 C   0  0  0  0  0  0  0  0  0  0  0  0
    6.2409   -6.1714    0.0000 C   0  0  0  0  0  0  0  0  0  0  0  0
    5.5264   -5.7589    0.0000 C   0  0  0  0  0  0  0  0  0  0  0  0
    5.5264   -4.9339    0.0000 C   0  0  0  0  0  0  0  0  0  0  0  0
    6.2409   -4.5214    0.0000 C   0  0  0  0  0  0  0  0  0  0  0  0
    6.9553   -4.9339    0.0000 C   0  0  0  0  0  0  0  0  0  0  0  0
    6.9553   -5.7589    0.0000 C   0  0  0  0  0  0  0  0  0  0  0  0
    6.2409   -3.6964    0.0000 O   0  0  0  0  0  0  0  0  0  0  0  0
  1  2  1  0  0  0  0
  2  3  1  0  0  0  0
  3  4  1  0  0  0  0
  4  5  2  0  0  0  0
  5  6  1  0  0  0  0
  1  6  1  0  0  0  0
  7  8  1  0  0  0  0
  8  9  1  0  0  0  0
  9  2  1  0  0  0  0
  7  3  1  0  0  0  0
 10 11  2  0  0  0  0
 10 12  1  0  0  0  0
  4 10  1  0  0  0  0
 14 15  1  0  0  0  0
 15 16  1  0  0  0  0
 16 17  1  0  0  0  0
 17 18  1  0  0  0  0
 18 19  1  0  0  0  0
 14 19  1  0  0  0  0
 20 21  1  0  0  0  0
 19 20  1  1  0  0  0
 18 22  1  6  0  0  0
 17 23  1  1  0  0  0
 16 24  1  6  0  0  0
 15 13  1  1  0  0  0
  1 13  1  6  0  0  0
  8 25  2  0  0  0  0
  9 26  1  6  0  0  0
  3 27  1  6  0  0  0
  2 28  1  6  0  0  0
 29 30  1  0  0  0  0
 31 32  1  0  0  0  0
 32 33  2  0  0  0  0
 33 34  1  0  0  0  0
 34 35  2  0  0  0  0
 35 36  1  0  0  0  0
 31 36  2  0  0  0  0
 34 37  1  0  0  0  0
 30 31  1  0  0  0  0
 12 29  1  0  0  0  0
M  END
>  <cdx:groupId>
7258

>  <cdx:fragmentId>
7147

$$$$
