136161635.cdx
  Mrv1902 05222410212D          

 38 45  0  0  0  0            999 V2000
    7.2435  -15.4434    0.0000 C   0  0  0  0  0  0  0  0  0  0  0  0
    7.2435  -14.6184    0.0000 C   0  0  0  0  0  0  0  0  0  0  0  0
    7.9580  -14.2059    0.0000 C   0  0  0  0  0  0  0  0  0  0  0  0
    8.6724  -14.6184    0.0000 C   0  0  0  0  0  0  0  0  0  0  0  0
    9.3862  -14.2046    0.0000 C   0  0  0  0  0  0  0  0  0  0  0  0
    9.3852  -13.3796    0.0000 C   0  0  0  0  0  0  0  0  0  0  0  0
    8.6706  -12.9675    0.0000 C   0  0  0  0  0  0  0  0  0  0  0  0
    7.9566  -13.3809    0.0000 C   0  0  0  0  0  0  0  0  0  0  0  0
    7.2422  -12.9684    0.0000 C   0  0  0  0  0  0  0  0  0  0  0  0
    6.5290  -13.3809    0.0000 C   0  0  0  0  0  0  0  0  0  0  0  0
    5.8146  -12.9684    0.0000 C   0  0  0  0  0  0  0  0  0  0  0  0
    5.1001  -13.3809    0.0000 C   0  0  0  0  0  0  0  0  0  0  0  0
    5.1001  -14.2059    0.0000 C   0  0  0  0  0  0  0  0  0  0  0  0
    5.8146  -14.6184    0.0000 C   0  0  0  0  0  0  0  0  0  0  0  0
    5.8146  -15.4434    0.0000 C   0  0  0  0  0  0  0  0  0  0  0  0
    5.1008  -15.8572    0.0000 C   0  0  0  0  0  0  0  0  0  0  0  0
    5.1018  -16.6822    0.0000 C   0  0  0  0  0  0  0  0  0  0  0  0
    5.8164  -17.0944    0.0000 C   0  0  0  0  0  0  0  0  0  0  0  0
    6.5304  -16.6809    0.0000 C   0  0  0  0  0  0  0  0  0  0  0  0
    7.2448  -17.0934    0.0000 C   0  0  0  0  0  0  0  0  0  0  0  0
    7.9580  -16.6809    0.0000 C   0  0  0  0  0  0  0  0  0  0  0  0
    8.6724  -17.0934    0.0000 C   0  0  0  0  0  0  0  0  0  0  0  0
    9.3869  -16.6809    0.0000 C   0  0  0  0  0  0  0  0  0  0  0  0
    9.3869  -15.8559    0.0000 C   0  0  0  0  0  0  0  0  0  0  0  0
    8.6724  -15.4434    0.0000 C   0  0  0  0  0  0  0  0  0  0  0  0
    7.9580  -15.8559    0.0000 C   0  0  0  0  0  0  0  0  0  0  0  0
    6.5290  -15.8559    0.0000 C   0  0  0  0  0  0  0  0  0  0  0  0
    6.5290  -14.2059    0.0000 C   0  0  0  0  0  0  0  0  0  0  0  0
    8.6706  -12.1425    0.0000 O   0  0  0  0  0  0  0  0  0  0  0  0
    5.8164  -17.9194    0.0000 O   0  0  0  0  0  0  0  0  0  0  0  0
    4.3864  -15.4447    0.0000 C   0  0  0  0  0  0  0  0  0  0  0  0
   10.1006  -14.6171    0.0000 C   0  0  0  0  0  0  0  0  0  0  0  0
   10.1014  -15.4434    0.0000 O   0  0  0  0  0  0  0  0  0  0  0  0
    8.6724  -17.9184    0.0000 O   0  0  0  0  0  0  0  0  0  0  0  0
    7.2448  -17.9184    0.0000 O   0  0  0  0  0  0  0  0  0  0  0  0
    4.3856  -14.6184    0.0000 O   0  0  0  0  0  0  0  0  0  0  0  0
    5.8146  -12.1434    0.0000 O   0  0  0  0  0  0  0  0  0  0  0  0
    7.2422  -12.1434    0.0000 O   0  0  0  0  0  0  0  0  0  0  0  0
  1  2  1  0  0  0  0
  2  3  2  0  0  0  0
  3  4  1  0  0  0  0
  4  5  1  0  0  0  0
  5  6  2  0  0  0  0
  6  7  1  0  0  0  0
  7  8  1  0  0  0  0
  8  9  2  0  0  0  0
  9 10  1  0  0  0  0
 10 11  2  0  0  0  0
 11 12  1  0  0  0  0
 12 13  2  0  0  0  0
 13 14  1  0  0  0  0
 14 15  1  0  0  0  0
 15 16  1  0  0  0  0
 16 17  2  0  0  0  0
 17 18  1  0  0  0  0
 18 19  1  0  0  0  0
 19 20  2  0  0  0  0
 20 21  1  0  0  0  0
 21 22  2  0  0  0  0
 22 23  1  0  0  0  0
 23 24  2  0  0  0  0
 24 25  1  0  0  0  0
 25 26  1  0  0  0  0
  1 26  2  0  0  0  0
  1 27  1  0  0  0  0
 27 15  2  0  0  0  0
 21 26  1  0  0  0  0
  4 25  2  0  0  0  0
 10 28  1  0  0  0  0
 28  2  1  0  0  0  0
  3  8  1  0  0  0  0
 19 27  1  0  0  0  0
 14 28  2  0  0  0  0
  7 29  2  0  0  0  0
 18 30  2  0  0  0  0
 16 31  1  0  0  0  0
  5 32  1  0  0  0  0
 24 33  1  0  0  0  0
 22 34  1  0  0  0  0
 20 35  1  0  0  0  0
 13 36  1  0  0  0  0
 11 37  1  0  0  0  0
  9 38  1  0  0  0  0
M  END
>  <cdx:groupId>
45548

>  <cdx:fragmentId>
45430

$$$$
