16165.cdx
  Mrv1902 05222410232D          

107115  0  0  0  0            999 V2000
   10.5993   -8.8126    0.0000 C   0  0  2  0  0  0  0  0  0  0  0  0
   10.5993   -9.6376    0.0000 C   0  0  2  0  0  0  0  0  0  0  0  0
   11.3138  -10.0501    0.0000 C   0  0  1  0  0  0  0  0  0  0  0  0
   12.0282   -9.6376    0.0000 C   0  0  2  0  0  0  0  0  0  0  0  0
   12.0282   -8.8126    0.0000 C   0  0  2  0  0  0  0  0  0  0  0  0
   11.3138   -8.4001    0.0000 O   0  0  0  0  0  0  0  0  0  0  0  0
   12.7499  -11.4791    0.0000 O   0  0  0  0  0  0  0  0  0  0  0  0
   13.1588  -10.7625    0.0000 C   0  0  1  0  0  0  0  0  0  0  0  0
   12.7427  -10.0501    0.0000 O   0  0  0  0  0  0  0  0  0  0  0  0
   13.1660  -12.1915    0.0000 C   0  0  1  0  0  0  0  0  0  0  0  0
   13.9910  -12.1873    0.0000 C   0  0  2  0  0  0  0  0  0  0  0  0
   14.3999  -11.4708    0.0000 C   0  0  1  0  0  0  0  0  0  0  0  0
   13.9838  -10.7584    0.0000 C   0  0  1  0  0  0  0  0  0  0  0  0
   11.3894  -16.5904    0.0000 O   0  0  0  0  0  0  0  0  0  0  0  0
    9.7395  -16.6122    0.0000 O   0  0  0  0  0  0  0  0  0  0  0  0
   12.1954  -15.1507    0.0000 O   0  0  0  0  0  0  0  0  0  0  0  0
   12.1577  -12.3040    0.0000 O   0  0  0  0  0  0  0  0  0  0  0  0
    8.4927  -15.9142    0.0000 O   0  0  0  0  0  0  0  0  0  0  0  0
    8.8957  -15.1943    0.0000 C   0  0  0  0  0  0  0  0  0  0  0  0
    8.4738  -14.4854    0.0000 C   0  0  0  0  0  0  0  0  0  0  0  0
    8.4549  -13.0566    0.0000 O   0  0  0  0  0  0  0  0  0  0  0  0
    8.8768  -13.7655    0.0000 C   0  0  0  0  0  0  0  0  0  0  0  0
    7.2080  -12.3585    0.0000 O   0  0  0  0  0  0  0  0  0  0  0  0
    7.1891  -10.9297    0.0000 C   0  0  0  0  0  0  0  0  0  0  0  0
    7.6111  -11.6387    0.0000 C   0  0  0  0  0  0  0  0  0  0  0  0
    8.4360  -11.6278    0.0000 O   0  0  0  0  0  0  0  0  0  0  0  0
    8.8579  -12.3367    0.0000 C   0  0  0  0  0  0  0  0  0  0  0  0
   12.7571  -12.9080    0.0000 C   0  0  0  0  0  0  0  0  0  0  0  0
   13.1732  -13.6204    0.0000 O   0  0  0  0  0  0  0  0  0  0  0  0
    9.7206  -15.1834    0.0000 C   0  0  2  0  0  0  0  0  0  0  0  0
   10.1425  -15.8924    0.0000 C   0  0  2  0  0  0  0  0  0  0  0  0
   10.9675  -15.8815    0.0000 C   0  0  1  0  0  0  0  0  0  0  0  0
   11.3705  -15.1616    0.0000 C   0  0  2  0  0  0  0  0  0  0  0  0
    9.7017  -13.7546    0.0000 O   0  0  0  0  0  0  0  0  0  0  0  0
   10.1236  -14.4636    0.0000 O   0  0  0  0  0  0  0  0  0  0  0  0
   10.9486  -14.4526    0.0000 C   0  0  1  0  0  0  0  0  0  0  0  0
   11.3516  -13.7328    0.0000 O   0  0  0  0  0  0  0  0  0  0  0  0
   10.0858  -11.6059    0.0000 O   0  0  0  0  0  0  0  0  0  0  0  0
    4.1665  -10.0823    0.0000 C   0  0  0  0  0  0  0  0  0  0  0  0
    4.8810   -9.6698    0.0000 O   0  0  0  0  0  0  0  0  0  0  0  0
    4.8916  -11.3197    0.0000 O   0  0  0  0  0  0  0  0  0  0  0  0
    6.3099   -9.6606    0.0000 C   0  0  0  0  0  0  0  0  0  0  0  0
    5.5981  -10.0777    0.0000 C   0  0  0  0  0  0  0  0  0  0  0  0
    5.6034  -10.9027    0.0000 C   0  0  0  0  0  0  0  0  0  0  0  0
    6.3205  -11.3106    0.0000 C   0  0  0  0  0  0  0  0  0  0  0  0
    7.0323  -10.8935    0.0000 C   0  0  0  0  0  0  0  0  0  0  0  0
    7.0270  -10.0685    0.0000 C   0  0  0  0  0  0  0  0  0  0  0  0
    7.7388   -9.6514    0.0000 C   0  0  0  0  0  0  0  0  0  0  0  0
    9.1624   -8.8173    0.0000 O   0  0  0  0  0  0  0  0  0  0  0  0
    8.4559  -10.0593    0.0000 C   0  0  0  0  0  0  0  0  0  0  0  0
    9.1677   -9.6422    0.0000 C   0  0  0  0  0  0  0  0  0  0  0  0
    9.8848  -10.0501    0.0000 O   0  0  0  0  0  0  0  0  0  0  0  0
    9.8848   -8.4001    0.0000 C   0  0  0  0  0  0  0  0  0  0  0  0
    9.1704   -7.1626    0.0000 C   0  0  0  0  0  0  0  0  0  0  0  0
    8.4559   -7.5751    0.0000 C   0  0  0  0  0  0  0  0  0  0  0  0
    9.1704   -6.3376    0.0000 O   0  0  0  0  0  0  0  0  0  0  0  0
    9.8848   -7.5751    0.0000 O   0  0  0  0  0  0  0  0  0  0  0  0
   12.7427   -8.4001    0.0000 O   0  0  0  0  0  0  0  0  0  0  0  0
   12.7427   -7.5751    0.0000 C   0  0  2  0  0  0  0  0  0  0  0  0
   11.9177   -7.5751    0.0000 O   0  0  0  0  0  0  0  0  0  0  0  0
   12.9977   -6.7905    0.0000 C   0  0  2  0  0  0  0  0  0  0  0  0
   12.3302   -6.3056    0.0000 C   0  0  1  0  0  0  0  0  0  0  0  0
   11.6628   -6.7905    0.0000 C   0  0  1  0  0  0  0  0  0  0  0  0
   11.0794   -6.2072    0.0000 C   0  0  0  0  0  0  0  0  0  0  0  0
   11.0794   -5.3822    0.0000 O   0  0  0  0  0  0  0  0  0  0  0  0
   13.7823   -6.5356    0.0000 O   0  0  0  0  0  0  0  0  0  0  0  0
   13.4572   -7.9876    0.0000 C   0  0  0  0  0  0  0  0  0  0  0  0
   15.2249  -11.4666    0.0000 O   0  0  0  0  0  0  0  0  0  0  0  0
    9.6828  -12.3258    0.0000 C   0  0  1  0  0  0  0  0  0  0  0  0
   10.1047  -13.0347    0.0000 C   0  0  2  0  0  0  0  0  0  0  0  0
   10.9297  -13.0238    0.0000 C   0  0  1  0  0  0  0  0  0  0  0  0
   11.3327  -12.3040    0.0000 C   0  0  2  0  0  0  0  0  0  0  0  0
   12.3302   -5.4806    0.0000 O   0  0  0  0  0  0  0  0  0  0  0  0
   14.3927  -10.0419    0.0000 O   0  0  0  0  0  0  0  0  0  0  0  0
   14.4071  -12.8997    0.0000 O   0  0  0  0  0  0  0  0  0  0  0  0
   10.9108  -11.5950    0.0000 C   0  0  2  0  0  0  0  0  0  0  0  0
   11.3138  -10.8751    0.0000 O   0  0  0  0  0  0  0  0  0  0  0  0
   14.1717   -7.5751    0.0000 O   0  0  0  0  0  0  0  0  0  0  0  0
   14.8861   -7.9876    0.0000 C   0  0  0  0  0  0  0  0  0  0  0  0
   15.6006   -7.5751    0.0000 C   0  0  0  0  0  0  0  0  0  0  0  0
   14.8861   -8.8126    0.0000 O   0  0  0  0  0  0  0  0  0  0  0  0
   16.3151   -7.9876    0.0000 C   0  0  0  0  0  0  0  0  0  0  0  0
   17.0295   -7.5751    0.0000 C   0  0  0  0  0  0  0  0  0  0  0  0
   17.7440   -7.9876    0.0000 C   0  0  0  0  0  0  0  0  0  0  0  0
   18.4585   -7.5751    0.0000 C   0  0  0  0  0  0  0  0  0  0  0  0
   18.4585   -6.7501    0.0000 C   0  0  0  0  0  0  0  0  0  0  0  0
   17.7440   -6.3376    0.0000 C   0  0  0  0  0  0  0  0  0  0  0  0
   17.0295   -6.7501    0.0000 C   0  0  0  0  0  0  0  0  0  0  0  0
   19.1730   -6.3376    0.0000 O   0  0  0  0  0  0  0  0  0  0  0  0
   13.9538   -5.7286    0.0000 C   0  0  0  0  0  0  0  0  0  0  0  0
   13.3407   -5.1766    0.0000 O   0  0  0  0  0  0  0  0  0  0  0  0
   14.7384   -5.4737    0.0000 C   0  0  0  0  0  0  0  0  0  0  0  0
   15.3515   -6.0257    0.0000 C   0  0  0  0  0  0  0  0  0  0  0  0
   16.1361   -5.7708    0.0000 C   0  0  0  0  0  0  0  0  0  0  0  0
   16.3077   -4.9638    0.0000 C   0  0  0  0  0  0  0  0  0  0  0  0
   15.6946   -4.4118    0.0000 C   0  0  0  0  0  0  0  0  0  0  0  0
   14.9100   -4.6667    0.0000 C   0  0  0  0  0  0  0  0  0  0  0  0
    4.8969  -12.1447    0.0000 C   0  0  2  0  0  0  0  0  0  0  0  0
    4.1811  -12.5550    0.0000 O   0  0  0  0  0  0  0  0  0  0  0  0
    4.1811  -13.3800    0.0000 C   0  0  2  0  0  0  0  0  0  0  0  0
    4.8969  -13.7947    0.0000 C   0  0  1  0  0  0  0  0  0  0  0  0
    5.6127  -13.3800    0.0000 C   0  0  2  0  0  0  0  0  0  0  0  0
    5.6127  -12.5550    0.0000 C   0  0  1  0  0  0  0  0  0  0  0  0
    4.8969  -14.6197    0.0000 O   0  0  0  0  0  0  0  0  0  0  0  0
    6.3265  -12.1413    0.0000 O   0  0  0  0  0  0  0  0  0  0  0  0
    6.3274  -13.7919    0.0000 O   0  0  0  0  0  0  0  0  0  0  0  0
    3.4663  -13.7919    0.0000 C   0  0  0  0  0  0  0  0  0  0  0  0
  1  2  1  0  0  0  0
  2  3  1  0  0  0  0
  3  4  1  0  0  0  0
  4  5  1  0  0  0  0
  5  6  1  0  0  0  0
  6  1  1  0  0  0  0
 32 14  1  1  0  0  0
  3 77  1  1  0  0  0
  7  8  1  0  0  0  0
  8  9  1  1  0  0  0
  4  9  1  6  0  0  0
  7 10  1  0  0  0  0
 10 11  1  0  0  0  0
 11 12  1  0  0  0  0
 12 13  1  0  0  0  0
 13  8  1  0  0  0  0
 31 15  1  6  0  0  0
 33 16  1  6  0  0  0
 72 17  1  6  0  0  0
 19 18  1  0  0  0  0
 30 19  1  1  0  0  0
 22 20  1  0  0  0  0
 22 21  2  0  0  0  0
 34 22  1  0  0  0  0
 25 23  2  0  0  0  0
 25 24  1  0  0  0  0
 26 25  1  0  0  0  0
 27 26  1  0  0  0  0
 69 27  1  1  0  0  0
 30 35  1  0  0  0  0
 31 30  1  0  0  0  0
 32 31  1  0  0  0  0
 10 28  1  1  0  0  0
 28 29  1  0  0  0  0
 33 32  1  0  0  0  0
 36 33  1  0  0  0  0
 70 34  1  6  0  0  0
 36 35  1  0  0  0  0
 36 37  1  1  0  0  0
 71 37  1  1  0  0  0
 38 76  1  0  0  0  0
 69 38  1  0  0  0  0
 70 69  1  0  0  0  0
 71 70  1  0  0  0  0
 72 71  1  0  0  0  0
 40 39  1  0  0  0  0
  2 52  1  6  0  0  0
 43 40  1  0  0  0  0
 44 41  1  0  0  0  0
 42 47  1  0  0  0  0
 43 42  2  0  0  0  0
 44 43  1  0  0  0  0
 45 44  2  0  0  0  0
 46 45  1  0  0  0  0
 47 46  2  0  0  0  0
 48 47  1  0  0  0  0
 50 48  2  0  0  0  0
 51 49  2  0  0  0  0
 51 50  1  0  0  0  0
 52 51  1  0  0  0  0
  1 53  1  1  0  0  0
 53 57  1  0  0  0  0
 54 55  1  0  0  0  0
 57 54  1  0  0  0  0
 54 56  2  0  0  0  0
  5 58  1  6  0  0  0
 59 58  1  6  0  0  0
 59 60  1  0  0  0  0
 59 61  1  0  0  0  0
 61 62  1  0  0  0  0
 62 63  1  0  0  0  0
 63 60  1  0  0  0  0
 63 64  1  6  0  0  0
 64 65  1  0  0  0  0
 61 66  1  6  0  0  0
 59 67  1  0  0  0  0
 12 68  1  1  0  0  0
 76 72  1  0  0  0  0
 76 77  1  1  0  0  0
 62 73  1  1  0  0  0
 13 74  1  6  0  0  0
 11 75  1  6  0  0  0
 67 78  1  0  0  0  0
 78 79  1  0  0  0  0
 79 80  1  0  0  0  0
 79 81  2  0  0  0  0
 80 82  2  0  0  0  0
 82 83  1  0  0  0  0
 83 84  2  0  0  0  0
 84 85  1  0  0  0  0
 85 86  2  0  0  0  0
 86 87  1  0  0  0  0
 87 88  2  0  0  0  0
 88 83  1  0  0  0  0
 86 89  1  0  0  0  0
 66 90  1  0  0  0  0
 90 91  2  0  0  0  0
 90 92  1  0  0  0  0
 92 93  2  0  0  0  0
 93 94  1  0  0  0  0
 94 95  2  0  0  0  0
 95 96  1  0  0  0  0
 96 97  2  0  0  0  0
 97 92  1  0  0  0  0
 98 41  1  1  0  0  0
 98 99  1  0  0  0  0
 99100  1  0  0  0  0
100101  1  0  0  0  0
101102  1  0  0  0  0
102103  1  0  0  0  0
103 98  1  0  0  0  0
101104  1  1  0  0  0
103105  1  6  0  0  0
102106  1  6  0  0  0
100107  1  6  0  0  0
M  END
>  <cdx:fragmentId>
5

$$$$
