16179.cdx
  Mrv1902 05222410212D          

 93100  0  0  0  0            999 V2000
    7.9593   -8.8951    0.0000 C   0  0  2  0  0  0  0  0  0  0  0  0
    7.9593   -9.7201    0.0000 C   0  0  2  0  0  0  0  0  0  0  0  0
    8.6738  -10.1326    0.0000 C   0  0  1  0  0  0  0  0  0  0  0  0
    9.3882   -9.7201    0.0000 C   0  0  2  0  0  0  0  0  0  0  0  0
    9.3882   -8.8951    0.0000 C   0  0  2  0  0  0  0  0  0  0  0  0
    8.6738   -8.4826    0.0000 O   0  0  0  0  0  0  0  0  0  0  0  0
   10.1099  -11.5616    0.0000 O   0  0  0  0  0  0  0  0  0  0  0  0
   10.5188  -10.8450    0.0000 C   0  0  1  0  0  0  0  0  0  0  0  0
   10.1027  -10.1326    0.0000 O   0  0  0  0  0  0  0  0  0  0  0  0
   10.5260  -12.2740    0.0000 C   0  0  1  0  0  0  0  0  0  0  0  0
   11.3510  -12.2698    0.0000 C   0  0  2  0  0  0  0  0  0  0  0  0
   11.7599  -11.5533    0.0000 C   0  0  1  0  0  0  0  0  0  0  0  0
   11.3438  -10.8409    0.0000 C   0  0  1  0  0  0  0  0  0  0  0  0
    8.7494  -16.6729    0.0000 O   0  0  0  0  0  0  0  0  0  0  0  0
    7.0995  -16.6947    0.0000 O   0  0  0  0  0  0  0  0  0  0  0  0
    9.5554  -15.2332    0.0000 O   0  0  0  0  0  0  0  0  0  0  0  0
    9.5177  -12.3865    0.0000 O   0  0  0  0  0  0  0  0  0  0  0  0
    5.8527  -15.9967    0.0000 O   0  0  0  0  0  0  0  0  0  0  0  0
    6.2557  -15.2768    0.0000 C   0  0  0  0  0  0  0  0  0  0  0  0
    4.5680  -12.4410    0.0000 O   0  0  0  0  0  0  0  0  0  0  0  0
    4.5491  -11.0122    0.0000 C   0  0  0  0  0  0  0  0  0  0  0  0
    4.9711  -11.7212    0.0000 C   0  0  0  0  0  0  0  0  0  0  0  0
    5.7960  -11.7103    0.0000 O   0  0  0  0  0  0  0  0  0  0  0  0
    6.2179  -12.4192    0.0000 C   0  0  0  0  0  0  0  0  0  0  0  0
   10.1171  -12.9905    0.0000 C   0  0  0  0  0  0  0  0  0  0  0  0
   10.5332  -13.7029    0.0000 O   0  0  0  0  0  0  0  0  0  0  0  0
    7.0806  -15.2659    0.0000 C   0  0  2  0  0  0  0  0  0  0  0  0
    7.5025  -15.9749    0.0000 C   0  0  2  0  0  0  0  0  0  0  0  0
    8.3275  -15.9640    0.0000 C   0  0  1  0  0  0  0  0  0  0  0  0
    8.7305  -15.2441    0.0000 C   0  0  2  0  0  0  0  0  0  0  0  0
    7.0617  -13.8371    0.0000 O   0  0  0  0  0  0  0  0  0  0  0  0
    7.4836  -14.5461    0.0000 O   0  0  0  0  0  0  0  0  0  0  0  0
    8.3086  -14.5351    0.0000 C   0  0  1  0  0  0  0  0  0  0  0  0
    8.7116  -13.8153    0.0000 O   0  0  0  0  0  0  0  0  0  0  0  0
    7.4458  -11.6884    0.0000 O   0  0  0  0  0  0  0  0  0  0  0  0
    2.2516  -11.4022    0.0000 O   0  0  0  0  0  0  0  0  0  0  0  0
    3.6699   -9.7431    0.0000 C   0  0  0  0  0  0  0  0  0  0  0  0
    2.9581  -10.1602    0.0000 C   0  0  0  0  0  0  0  0  0  0  0  0
    2.9634  -10.9852    0.0000 C   0  0  0  0  0  0  0  0  0  0  0  0
    3.6805  -11.3931    0.0000 C   0  0  0  0  0  0  0  0  0  0  0  0
    4.3923  -10.9760    0.0000 C   0  0  0  0  0  0  0  0  0  0  0  0
    4.3870  -10.1510    0.0000 C   0  0  0  0  0  0  0  0  0  0  0  0
    5.0988   -9.7339    0.0000 C   0  0  0  0  0  0  0  0  0  0  0  0
    6.5224   -8.8998    0.0000 O   0  0  0  0  0  0  0  0  0  0  0  0
    5.8159  -10.1418    0.0000 C   0  0  0  0  0  0  0  0  0  0  0  0
    6.5277   -9.7247    0.0000 C   0  0  0  0  0  0  0  0  0  0  0  0
    7.2448  -10.1326    0.0000 O   0  0  0  0  0  0  0  0  0  0  0  0
    7.2448   -8.4826    0.0000 C   0  0  0  0  0  0  0  0  0  0  0  0
    7.2448   -7.6576    0.0000 O   0  0  0  0  0  0  0  0  0  0  0  0
   10.1027   -8.4826    0.0000 O   0  0  0  0  0  0  0  0  0  0  0  0
   10.1027   -7.6576    0.0000 C   0  0  2  0  0  0  0  0  0  0  0  0
    9.2777   -7.6576    0.0000 O   0  0  0  0  0  0  0  0  0  0  0  0
   10.3577   -6.8730    0.0000 C   0  0  2  0  0  0  0  0  0  0  0  0
    9.6902   -6.3881    0.0000 C   0  0  1  0  0  0  0  0  0  0  0  0
    9.0228   -6.8730    0.0000 C   0  0  1  0  0  0  0  0  0  0  0  0
    8.4394   -6.2897    0.0000 C   0  0  0  0  0  0  0  0  0  0  0  0
    8.4394   -5.4647    0.0000 O   0  0  0  0  0  0  0  0  0  0  0  0
   11.1423   -6.6181    0.0000 O   0  0  0  0  0  0  0  0  0  0  0  0
   10.8172   -8.0701    0.0000 C   0  0  0  0  0  0  0  0  0  0  0  0
   12.5849  -11.5491    0.0000 O   0  0  0  0  0  0  0  0  0  0  0  0
    7.0428  -12.4083    0.0000 C   0  0  1  0  0  0  0  0  0  0  0  0
    7.4647  -13.1172    0.0000 C   0  0  2  0  0  0  0  0  0  0  0  0
    8.2897  -13.1063    0.0000 C   0  0  1  0  0  0  0  0  0  0  0  0
    8.6927  -12.3865    0.0000 C   0  0  2  0  0  0  0  0  0  0  0  0
    9.6902   -5.5631    0.0000 O   0  0  0  0  0  0  0  0  0  0  0  0
   11.7527  -10.1244    0.0000 O   0  0  0  0  0  0  0  0  0  0  0  0
   11.7671  -12.9822    0.0000 O   0  0  0  0  0  0  0  0  0  0  0  0
    8.2708  -11.6775    0.0000 C   0  0  2  0  0  0  0  0  0  0  0  0
    8.6738  -10.9576    0.0000 O   0  0  0  0  0  0  0  0  0  0  0  0
   11.5317   -7.6576    0.0000 O   0  0  0  0  0  0  0  0  0  0  0  0
   12.2461   -8.0701    0.0000 C   0  0  0  0  0  0  0  0  0  0  0  0
   12.9606   -7.6576    0.0000 C   0  0  0  0  0  0  0  0  0  0  0  0
   12.2461   -8.8951    0.0000 O   0  0  0  0  0  0  0  0  0  0  0  0
   13.6751   -8.0701    0.0000 C   0  0  0  0  0  0  0  0  0  0  0  0
   14.3895   -7.6576    0.0000 C   0  0  0  0  0  0  0  0  0  0  0  0
   15.1040   -8.0701    0.0000 C   0  0  0  0  0  0  0  0  0  0  0  0
   15.8185   -7.6576    0.0000 C   0  0  0  0  0  0  0  0  0  0  0  0
   15.8185   -6.8326    0.0000 C   0  0  0  0  0  0  0  0  0  0  0  0
   15.1040   -6.4201    0.0000 C   0  0  0  0  0  0  0  0  0  0  0  0
   14.3895   -6.8326    0.0000 C   0  0  0  0  0  0  0  0  0  0  0  0
   16.5330   -6.4201    0.0000 O   0  0  0  0  0  0  0  0  0  0  0  0
   11.3138   -5.8111    0.0000 C   0  0  0  0  0  0  0  0  0  0  0  0
   10.7007   -5.2591    0.0000 O   0  0  0  0  0  0  0  0  0  0  0  0
   12.0984   -5.5562    0.0000 C   0  0  0  0  0  0  0  0  0  0  0  0
   12.7115   -6.1082    0.0000 C   0  0  0  0  0  0  0  0  0  0  0  0
   13.4961   -5.8533    0.0000 C   0  0  0  0  0  0  0  0  0  0  0  0
   13.6677   -5.0463    0.0000 C   0  0  0  0  0  0  0  0  0  0  0  0
   13.0546   -4.4943    0.0000 C   0  0  0  0  0  0  0  0  0  0  0  0
   12.2700   -4.7492    0.0000 C   0  0  0  0  0  0  0  0  0  0  0  0
    2.2410   -9.7523    0.0000 O   0  0  0  0  0  0  0  0  0  0  0  0
    1.5292  -10.1694    0.0000 C   0  0  0  0  0  0  0  0  0  0  0  0
   16.5330   -8.0701    0.0000 O   0  0  0  0  0  0  0  0  0  0  0  0
   17.2474   -7.6576    0.0000 C   0  0  0  0  0  0  0  0  0  0  0  0
  1  2  1  0  0  0  0
  2  3  1  0  0  0  0
  3  4  1  0  0  0  0
  4  5  1  0  0  0  0
  5  6  1  0  0  0  0
  6  1  1  0  0  0  0
 29 14  1  1  0  0  0
  3 69  1  1  0  0  0
  7  8  1  0  0  0  0
  8  9  1  1  0  0  0
  4  9  1  6  0  0  0
  7 10  1  0  0  0  0
 10 11  1  0  0  0  0
 11 12  1  0  0  0  0
 12 13  1  0  0  0  0
 13  8  1  0  0  0  0
 28 15  1  6  0  0  0
 30 16  1  6  0  0  0
 64 17  1  6  0  0  0
 19 18  1  0  0  0  0
 27 19  1  1  0  0  0
 22 20  2  0  0  0  0
 22 21  1  0  0  0  0
 23 22  1  0  0  0  0
 24 23  1  0  0  0  0
 61 24  1  1  0  0  0
 27 32  1  0  0  0  0
 28 27  1  0  0  0  0
 29 28  1  0  0  0  0
 10 25  1  1  0  0  0
 25 26  1  0  0  0  0
 30 29  1  0  0  0  0
 33 30  1  0  0  0  0
 62 31  1  6  0  0  0
 33 32  1  0  0  0  0
 33 34  1  1  0  0  0
 63 34  1  1  0  0  0
 35 68  1  0  0  0  0
 61 35  1  0  0  0  0
 62 61  1  0  0  0  0
 63 62  1  0  0  0  0
 64 63  1  0  0  0  0
  2 47  1  6  0  0  0
 39 36  1  0  0  0  0
 37 42  1  0  0  0  0
 38 37  2  0  0  0  0
 39 38  1  0  0  0  0
 40 39  2  0  0  0  0
 41 40  1  0  0  0  0
 42 41  2  0  0  0  0
 43 42  1  0  0  0  0
 45 43  2  0  0  0  0
 46 44  2  0  0  0  0
 46 45  1  0  0  0  0
 47 46  1  0  0  0  0
  1 48  1  1  0  0  0
 48 49  1  0  0  0  0
  5 50  1  6  0  0  0
 51 50  1  6  0  0  0
 51 52  1  0  0  0  0
 51 53  1  0  0  0  0
 53 54  1  0  0  0  0
 54 55  1  0  0  0  0
 55 52  1  0  0  0  0
 55 56  1  6  0  0  0
 56 57  1  0  0  0  0
 53 58  1  6  0  0  0
 51 59  1  0  0  0  0
 12 60  1  1  0  0  0
 68 64  1  0  0  0  0
 68 69  1  1  0  0  0
 54 65  1  1  0  0  0
 13 66  1  6  0  0  0
 11 67  1  6  0  0  0
 59 70  1  0  0  0  0
 70 71  1  0  0  0  0
 71 72  1  0  0  0  0
 71 73  2  0  0  0  0
 72 74  2  0  0  0  0
 74 75  1  0  0  0  0
 75 76  2  0  0  0  0
 76 77  1  0  0  0  0
 77 78  2  0  0  0  0
 78 79  1  0  0  0  0
 79 80  2  0  0  0  0
 80 75  1  0  0  0  0
 78 81  1  0  0  0  0
 58 82  1  0  0  0  0
 82 83  2  0  0  0  0
 82 84  1  0  0  0  0
 84 85  2  0  0  0  0
 85 86  1  0  0  0  0
 86 87  2  0  0  0  0
 87 88  1  0  0  0  0
 88 89  2  0  0  0  0
 89 84  1  0  0  0  0
 38 90  1  0  0  0  0
 90 91  1  0  0  0  0
 77 92  1  0  0  0  0
 92 93  1  0  0  0  0
M  END
>  <cdx:fragmentId>
5

$$$$
