161716.cdx
  Mrv1902 05222410262D          

 12 12  0  0  0  0            999 V2000
   15.8260  -13.9591    0.0000 C   0  0  0  0  0  0  0  0  0  0  0  0
   15.8260  -13.1341    0.0000 C   0  0  0  0  0  0  0  0  0  0  0  0
   15.1115  -12.7216    0.0000 C   0  0  0  0  0  0  0  0  0  0  0  0
   14.3970  -13.1341    0.0000 C   0  0  0  0  0  0  0  0  0  0  0  0
   14.3970  -13.9591    0.0000 C   0  0  0  0  0  0  0  0  0  0  0  0
   15.1115  -14.3716    0.0000 C   0  0  0  0  0  0  0  0  0  0  0  0
   13.6826  -12.7216    0.0000 C   0  0  0  0  0  0  0  0  0  0  0  0
   16.5405  -14.3716    0.0000 O   0  0  0  0  0  0  0  0  0  0  0  0
   17.2549  -13.9591    0.0000 C   0  0  0  0  0  0  0  0  0  0  0  0
   16.5405  -12.7216    0.0000 C   0  0  0  0  0  0  0  0  0  0  0  0
   16.5405  -11.8966    0.0000 C   0  0  0  0  0  0  0  0  0  0  0  0
   17.2549  -13.1341    0.0000 C   0  0  0  0  0  0  0  0  0  0  0  0
  1  2  1  0  0  0  0
  2  3  2  0  0  0  0
  3  4  1  0  0  0  0
  4  5  2  0  0  0  0
  5  6  1  0  0  0  0
  1  6  2  0  0  0  0
  4  7  1  0  0  0  0
  8  9  1  0  0  0  0
  1  8  1  0  0  0  0
 10 11  1  0  0  0  0
 10 12  1  0  0  0  0
  2 10  1  0  0  0  0
M  END
>  <cdx:groupId>
7308

>  <cdx:fragmentId>
7275

$$$$
