161924.cdx
  Mrv1902 05222410272D          

 24 25  0  0  0  0            999 V2000
    3.8338   -8.1174    0.0000 C   0  0  0  0  0  0  0  0  0  0  0  0
    3.8338   -7.2924    0.0000 C   0  0  0  0  0  0  0  0  0  0  0  0
    4.5483   -6.8799    0.0000 C   0  0  0  0  0  0  0  0  0  0  0  0
    5.2627   -7.2924    0.0000 C   0  0  0  0  0  0  0  0  0  0  0  0
    5.2627   -8.1174    0.0000 C   0  0  0  0  0  0  0  0  0  0  0  0
    4.5483   -8.5299    0.0000 C   0  0  0  0  0  0  0  0  0  0  0  0
    3.1193   -8.5299    0.0000 O   0  0  0  0  0  0  0  0  0  0  0  0
    3.1193   -6.8799    0.0000 O   0  0  0  0  0  0  0  0  0  0  0  0
    2.4048   -7.2924    0.0000 C   0  0  0  0  0  0  0  0  0  0  0  0
    5.9772   -6.8799    0.0000 C   0  0  0  0  0  0  0  0  0  0  0  0
    6.6917   -7.2924    0.0000 C   0  0  0  0  0  0  0  0  0  0  0  0
    7.4061   -6.8799    0.0000 C   0  0  0  0  0  0  0  0  0  0  0  0
    8.1206   -7.2924    0.0000 C   0  0  0  0  0  0  0  0  0  0  0  0
    7.4061   -6.0549    0.0000 C   0  0  0  0  0  0  0  0  0  0  0  0
    6.6917   -8.1174    0.0000 C   0  0  0  0  0  0  0  0  0  0  0  0
    8.8351   -6.8799    0.0000 C   0  0  0  0  0  0  0  0  0  0  0  0
    9.5496   -7.2924    0.0000 C   0  0  0  0  0  0  0  0  0  0  0  0
   10.2640   -6.8799    0.0000 C   0  0  0  0  0  0  0  0  0  0  0  0
   10.2640   -6.0549    0.0000 C   0  0  0  0  0  0  0  0  0  0  0  0
    9.5496   -5.6424    0.0000 C   0  0  0  0  0  0  0  0  0  0  0  0
    8.8351   -6.0549    0.0000 C   0  0  0  0  0  0  0  0  0  0  0  0
   10.9785   -7.2924    0.0000 O   0  0  0  0  0  0  0  0  0  0  0  0
   11.6930   -6.8799    0.0000 C   0  0  0  0  0  0  0  0  0  0  0  0
   10.9785   -5.6424    0.0000 O   0  0  0  0  0  0  0  0  0  0  0  0
  1  2  1  0  0  0  0
  2  3  2  0  0  0  0
  3  4  1  0  0  0  0
  4  5  2  0  0  0  0
  5  6  1  0  0  0  0
  1  6  2  0  0  0  0
  1  7  1  0  0  0  0
  8  9  1  0  0  0  0
  2  8  1  0  0  0  0
 10 11  1  0  0  0  0
 11 12  1  0  0  0  0
 12 13  1  0  0  0  0
 12 14  1  0  0  0  0
 11 15  1  0  0  0  0
 16 17  1  0  0  0  0
 17 18  2  0  0  0  0
 18 19  1  0  0  0  0
 19 20  2  0  0  0  0
 20 21  1  0  0  0  0
 16 21  2  0  0  0  0
 22 23  1  0  0  0  0
 18 22  1  0  0  0  0
 19 24  1  0  0  0  0
 13 16  1  0  0  0  0
  4 10  1  0  0  0  0
M  END
>  <cdx:fragmentId>
21326

$$$$
