161937.cdx
  Mrv1902 05222410282D          

 17 18  0  0  0  0            999 V2000
    8.5715  -12.1109    0.0000 C   0  0  0  0  0  0  0  0  0  0  0  0
    9.4895  -11.5809    0.0000 C   0  0  0  0  0  0  0  0  0  0  0  0
   13.1618  -10.5208    0.0000 C   0  0  0  0  0  0  0  0  0  0  0  0
   12.2437  -11.0509    0.0000 C   0  0  0  0  0  0  0  0  0  0  0  0
   12.2437  -12.1109    0.0000 C   0  0  0  0  0  0  0  0  0  0  0  0
    6.7354  -11.0509    0.0000 O   0  0  0  0  0  0  0  0  0  0  0  0
    8.5715   -7.8706    0.0000 O   0  0  0  0  0  0  0  0  0  0  0  0
    9.4895   -9.4608    0.0000 C   0  0  0  0  0  0  0  0  0  0  0  0
   10.4076   -8.9307    0.0000 C   0  0  0  0  0  0  0  0  0  0  0  0
   11.3257   -9.4608    0.0000 C   0  0  0  0  0  0  0  0  0  0  0  0
   11.3257  -10.5208    0.0000 C   0  0  2  0  0  0  0  0  0  0  0  0
   10.4076  -11.0509    0.0000 C   0  0  0  0  0  0  0  0  0  0  0  0
    9.4895  -10.5208    0.0000 C   0  0  1  0  0  0  0  0  0  0  0  0
    8.5715  -11.0509    0.0000 C   0  0  1  0  0  0  0  0  0  0  0  0
    7.6534  -10.5208    0.0000 C   0  0  1  0  0  0  0  0  0  0  0  0
    7.6534   -9.4608    0.0000 C   0  0  0  0  0  0  0  0  0  0  0  0
    8.5715   -8.9307    0.0000 C   0  0  1  0  0  0  0  0  0  0  0  0
 14  1  1  6  0  0  0
 13  2  1  1  0  0  0
 11  4  1  1  0  0  0
  4  3  1  0  0  0  0
  5  4  2  0  0  0  0
 15  6  1  6  0  0  0
 17  7  1  1  0  0  0
 13  8  1  0  0  0  0
 17  8  1  0  0  0  0
  9  8  2  0  0  0  0
 10  9  1  0  0  0  0
 11 10  1  0  0  0  0
 12 11  1  0  0  0  0
 13 12  1  0  0  0  0
 14 13  1  0  0  0  0
 15 14  1  0  0  0  0
 16 15  1  0  0  0  0
 17 16  1  0  0  0  0
M  END
>  <cdx:fragmentId>
21515

$$$$
