162.cdx
  Mrv1902 05222410222D          

 34 35  0  0  0  0            999 V2000
    1.3370   -7.0744    0.0000 C   0  0  0  0  0  0  0  0  0  0  0  0
    1.3370   -7.8994    0.0000 C   0  0  0  0  0  0  0  0  0  0  0  0
    2.0515   -8.3119    0.0000 C   0  0  0  0  0  0  0  0  0  0  0  0
    2.7660   -7.8994    0.0000 C   0  0  0  0  0  0  0  0  0  0  0  0
    2.7660   -7.0744    0.0000 C   0  0  0  0  0  0  0  0  0  0  0  0
    2.0515   -6.6619    0.0000 C   0  0  0  0  0  0  0  0  0  0  0  0
    3.4804   -6.6619    0.0000 C   0  0  0  0  0  0  0  0  0  0  0  0
    4.1949   -7.0744    0.0000 C   0  0  0  0  0  0  0  0  0  0  0  0
    4.9094   -6.6619    0.0000 C   0  0  0  0  0  0  0  0  0  0  0  0
    5.6239   -7.0744    0.0000 O   0  0  0  0  0  0  0  0  0  0  0  0
    6.3383   -6.6619    0.0000 C   0  0  0  0  0  0  0  0  0  0  0  0
    7.0528   -7.0744    0.0000 C   0  0  0  0  0  0  0  0  0  0  0  0
    7.7673   -6.6619    0.0000 C   0  0  0  0  0  0  0  0  0  0  0  0
    8.4817   -7.0744    0.0000 O   0  0  0  0  0  0  0  0  0  0  0  0
    9.1962   -6.6619    0.0000 C   0  0  0  0  0  0  0  0  0  0  0  0
    9.9107   -7.0744    0.0000 C   0  0  0  0  0  0  0  0  0  0  0  0
   10.6252   -6.6619    0.0000 C   0  0  0  0  0  0  0  0  0  0  0  0
   11.3396   -7.0744    0.0000 C   0  0  0  0  0  0  0  0  0  0  0  0
   11.3396   -7.8994    0.0000 C   0  0  0  0  0  0  0  0  0  0  0  0
   12.0541   -8.3119    0.0000 C   0  0  0  0  0  0  0  0  0  0  0  0
   12.7686   -7.8994    0.0000 C   0  0  0  0  0  0  0  0  0  0  0  0
   12.7686   -7.0744    0.0000 C   0  0  0  0  0  0  0  0  0  0  0  0
   12.0541   -6.6619    0.0000 C   0  0  0  0  0  0  0  0  0  0  0  0
    7.0528   -7.8994    0.0000 O   0  0  0  0  0  0  0  0  0  0  0  0
    4.9094   -5.8369    0.0000 O   0  0  0  0  0  0  0  0  0  0  0  0
    9.1962   -5.8369    0.0000 O   0  0  0  0  0  0  0  0  0  0  0  0
    7.7673   -8.3119    0.0000 C   0  0  0  0  0  0  0  0  0  0  0  0
    8.4817   -7.8994    0.0000 O   0  0  0  0  0  0  0  0  0  0  0  0
    7.7673   -9.1369    0.0000 C   0  0  0  0  0  0  0  0  0  0  0  0
   13.4830   -8.3119    0.0000 O   0  0  0  0  0  0  0  0  0  0  0  0
    0.6226   -6.6619    0.0000 O   0  0  0  0  0  0  0  0  0  0  0  0
    0.6226   -8.3119    0.0000 O   0  0  0  0  0  0  0  0  0  0  0  0
   13.4830   -6.6619    0.0000 O   0  0  0  0  0  0  0  0  0  0  0  0
   14.1975   -7.0744    0.0000 C   0  0  0  0  0  0  0  0  0  0  0  0
  1  2  1  0  0  0  0
  2  3  2  0  0  0  0
  3  4  1  0  0  0  0
  4  5  2  0  0  0  0
  5  6  1  0  0  0  0
  6  1  2  0  0  0  0
  5  7  1  0  0  0  0
  7  8  2  0  0  0  0
  8  9  1  0  0  0  0
  9 10  1  0  0  0  0
 10 11  1  0  0  0  0
 11 12  1  0  0  0  0
 12 13  1  0  0  0  0
 13 14  1  0  0  0  0
 14 15  1  0  0  0  0
 15 16  1  0  0  0  0
 16 17  2  0  0  0  0
 17 18  1  0  0  0  0
 18 19  2  0  0  0  0
 19 20  1  0  0  0  0
 20 21  2  0  0  0  0
 21 22  1  0  0  0  0
 22 23  2  0  0  0  0
 23 18  1  0  0  0  0
 12 24  1  0  0  0  0
  9 25  2  0  0  0  0
 15 26  2  0  0  0  0
 24 27  1  0  0  0  0
 27 28  2  0  0  0  0
 27 29  1  0  0  0  0
 21 30  1  0  0  0  0
  1 31  1  0  0  0  0
  2 32  1  0  0  0  0
 22 33  1  0  0  0  0
 33 34  1  0  0  0  0
M  END
>  <cdx:fragmentId>
998

$$$$
