16207.cdx
  Mrv1902 05222410232D          

 17 16  0  0  0  0            999 V2000
    2.3677   -8.0644    0.0000 S   0  0  0  0  0  0  0  0  0  0  0  0
    3.0822   -7.6519    0.0000 C   0  0  0  0  0  0  0  0  0  0  0  0
    3.7967   -8.0644    0.0000 C   0  0  0  0  0  0  0  0  0  0  0  0
    4.5112   -7.6519    0.0000 C   0  0  0  0  0  0  0  0  0  0  0  0
    5.2256   -8.0644    0.0000 C   0  0  0  0  0  0  0  0  0  0  0  0
    5.9401   -7.6519    0.0000 C   0  0  0  0  0  0  0  0  0  0  0  0
    6.6546   -8.0644    0.0000 C   0  0  0  0  0  0  0  0  0  0  0  0
    7.3690   -7.6519    0.0000 C   0  0  0  0  0  0  0  0  0  0  0  0
    8.0835   -8.0644    0.0000 C   0  0  0  0  0  0  0  0  0  0  0  0
    8.7980   -7.6519    0.0000 C   0  0  0  0  0  0  0  0  0  0  0  0
    9.5125   -8.0644    0.0000 C   0  0  0  0  0  0  0  0  0  0  0  0
   10.2269   -7.6519    0.0000 C   0  0  0  0  0  0  0  0  0  0  0  0
   10.9414   -8.0644    0.0000 C   0  0  0  0  0  0  0  0  0  0  0  0
   11.6559   -7.6519    0.0000 C   0  0  0  0  0  0  0  0  0  0  0  0
   11.0725   -7.0685    0.0000 C   0  0  0  0  0  0  0  0  0  0  0  0
   12.2392   -7.0685    0.0000 C   0  0  0  0  0  0  0  0  0  0  0  0
   12.3703   -8.0644    0.0000 C   0  0  0  0  0  0  0  0  0  0  0  0
  1  2  1  0  0  0  0
  2  3  1  0  0  0  0
  3  4  1  0  0  0  0
  4  5  1  0  0  0  0
  5  6  1  0  0  0  0
  6  7  1  0  0  0  0
  7  8  1  0  0  0  0
  8  9  1  0  0  0  0
  9 10  1  0  0  0  0
 10 11  1  0  0  0  0
 11 12  1  0  0  0  0
 12 13  1  0  0  0  0
 13 14  1  0  0  0  0
 14 15  1  0  0  0  0
 14 16  1  0  0  0  0
 14 17  1  0  0  0  0
M  END
>  <cdx:fragmentId>
3

$$$$
