162135.cdx
  Mrv1902 05222410232D          

 34 36  0  0  0  0            999 V2000
    8.1447   -7.0038    0.0000 O   0  0  0  0  0  0  0  0  0  0  0  0
    8.8539   -5.7633    0.0000 O   0  0  0  0  0  0  0  0  0  0  0  0
    8.1412   -6.1788    0.0000 C   0  0  2  0  0  0  0  0  0  0  0  0
    7.4249   -5.7694    0.0000 C   0  0  1  0  0  0  0  0  0  0  0  0
    7.4214   -4.9444    0.0000 C   0  0  2  0  0  0  0  0  0  0  0  0
    8.1341   -4.5289    0.0000 C   0  0  1  0  0  0  0  0  0  0  0  0
    8.8503   -4.9383    0.0000 C   0  0  1  0  0  0  0  0  0  0  0  0
    9.5630   -4.5227    0.0000 C   0  0  0  0  0  0  0  0  0  0  0  0
    9.5463   -3.6979    0.0000 O   0  0  0  0  0  0  0  0  0  0  0  0
    8.1306   -3.7039    0.0000 O   0  0  0  0  0  0  0  0  0  0  0  0
    6.7052   -4.5350    0.0000 O   0  0  0  0  0  0  0  0  0  0  0  0
    6.7122   -6.1849    0.0000 O   0  0  0  0  0  0  0  0  0  0  0  0
    8.1460  -11.1336    0.0000 C   0  0  0  0  0  0  0  0  0  0  0  0
    8.1413  -11.9586    0.0000 C   0  0  0  0  0  0  0  0  0  0  0  0
    8.8534  -12.3751    0.0000 C   0  0  0  0  0  0  0  0  0  0  0  0
    9.5702  -11.9666    0.0000 C   0  0  0  0  0  0  0  0  0  0  0  0
    8.8628  -10.7251    0.0000 O   0  0  0  0  0  0  0  0  0  0  0  0
    7.4339  -10.7170    0.0000 O   0  0  0  0  0  0  0  0  0  0  0  0
    6.7182  -10.3052    0.0000 H   0  0  0  0  0  0  0  0  0  0  0  0
    6.7174   -7.8302    0.0000 H   0  0  0  0  0  0  0  0  0  0  0  0
    4.6232   -9.0698    0.0000 O   0  0  0  0  0  0  0  0  0  0  0  0
    4.8728  -10.6931    0.0000 O   0  0  0  0  0  0  0  0  0  0  0  0
    5.6796  -10.5208    0.0000 C   0  0  0  0  0  0  0  0  0  0  0  0
    7.4306   -7.4170    0.0000 C   0  0  0  0  0  0  0  0  0  0  0  0
    5.9338   -9.7359    0.0000 C   0  0  1  0  0  0  0  0  0  0  0  0
    5.4482   -9.0690    0.0000 C   0  0  2  0  0  0  0  0  0  0  0  0
    5.9325   -8.4011    0.0000 C   0  0  0  0  0  0  0  0  0  0  0  0
    8.1471   -9.4788    0.0000 O   0  0  0  0  0  0  0  0  0  0  0  0
    8.1463   -8.6538    0.0000 C   0  0  0  0  0  0  0  0  0  0  0  0
    7.4314   -8.2420    0.0000 C   0  0  0  0  0  0  0  0  0  0  0  0
    6.7174   -8.6552    0.0000 C   0  0  2  0  0  0  0  0  0  0  0  0
    6.7182   -9.4802    0.0000 C   0  0  2  0  0  0  0  0  0  0  0  0
    7.4331   -9.8920    0.0000 C   0  0  2  0  0  0  0  0  0  0  0  0
    8.8488  -13.2001    0.0000 C   0  0  0  0  0  0  0  0  0  0  0  0
 32 19  1  1  0  0  0
 31 20  1  1  0  0  0
 33 18  1  1  0  0  0
 26 21  1  1  0  0  0
 25 23  1  1  0  0  0
 23 22  1  0  0  0  0
 30 24  1  0  0  0  0
 24  1  1  0  0  0  0
 27 31  1  0  0  0  0
 25 32  1  0  0  0  0
 26 25  1  0  0  0  0
 27 26  1  0  0  0  0
 33 28  1  0  0  0  0
 29 28  1  0  0  0  0
 30 29  2  0  0  0  0
 31 30  1  0  0  0  0
 32 31  1  0  0  0  0
 33 32  1  0  0  0  0
  2  3  1  0  0  0  0
  3  4  1  0  0  0  0
  4  5  1  0  0  0  0
  5  6  1  0  0  0  0
  6  7  1  0  0  0  0
  2  7  1  0  0  0  0
  8  9  1  0  0  0  0
  7  8  1  1  0  0  0
  6 10  1  6  0  0  0
  5 11  1  1  0  0  0
  4 12  1  6  0  0  0
  3  1  1  1  0  0  0
 13 14  1  0  0  0  0
 14 15  1  0  0  0  0
 15 16  1  0  0  0  0
 13 17  2  0  0  0  0
 13 18  1  0  0  0  0
 15 34  1  0  0  0  0
M  END
>  <cdx:fragmentId>
7728

$$$$
