162134.cdx
  Mrv1902 05222410232D          

 23 24  0  0  0  0            999 V2000
    8.1447   -7.0038    0.0000 O   0  0  0  0  0  0  0  0  0  0  0  0
    8.1460  -11.1336    0.0000 C   0  0  0  0  0  0  0  0  0  0  0  0
    8.1413  -11.9586    0.0000 C   0  0  0  0  0  0  0  0  0  0  0  0
    8.8534  -12.3751    0.0000 C   0  0  0  0  0  0  0  0  0  0  0  0
    9.5702  -11.9666    0.0000 C   0  0  0  0  0  0  0  0  0  0  0  0
    8.8628  -10.7251    0.0000 O   0  0  0  0  0  0  0  0  0  0  0  0
    7.4339  -10.7170    0.0000 O   0  0  0  0  0  0  0  0  0  0  0  0
    6.7182  -10.3052    0.0000 H   0  0  0  0  0  0  0  0  0  0  0  0
    6.7174   -7.8302    0.0000 H   0  0  0  0  0  0  0  0  0  0  0  0
    4.6232   -9.0698    0.0000 O   0  0  0  0  0  0  0  0  0  0  0  0
    4.8728  -10.6931    0.0000 O   0  0  0  0  0  0  0  0  0  0  0  0
    5.6796  -10.5208    0.0000 C   0  0  0  0  0  0  0  0  0  0  0  0
    7.4306   -7.4170    0.0000 C   0  0  0  0  0  0  0  0  0  0  0  0
    5.9338   -9.7359    0.0000 C   0  0  1  0  0  0  0  0  0  0  0  0
    5.4482   -9.0690    0.0000 C   0  0  2  0  0  0  0  0  0  0  0  0
    5.9325   -8.4011    0.0000 C   0  0  0  0  0  0  0  0  0  0  0  0
    8.1471   -9.4788    0.0000 O   0  0  0  0  0  0  0  0  0  0  0  0
    8.1463   -8.6538    0.0000 C   0  0  0  0  0  0  0  0  0  0  0  0
    7.4314   -8.2420    0.0000 C   0  0  0  0  0  0  0  0  0  0  0  0
    6.7174   -8.6552    0.0000 C   0  0  2  0  0  0  0  0  0  0  0  0
    6.7182   -9.4802    0.0000 C   0  0  2  0  0  0  0  0  0  0  0  0
    7.4331   -9.8920    0.0000 C   0  0  2  0  0  0  0  0  0  0  0  0
    8.8488  -13.2001    0.0000 C   0  0  0  0  0  0  0  0  0  0  0  0
 21  8  1  1  0  0  0
 20  9  1  1  0  0  0
 22  7  1  1  0  0  0
 15 10  1  1  0  0  0
 14 12  1  1  0  0  0
 12 11  1  0  0  0  0
 19 13  1  0  0  0  0
 13  1  1  0  0  0  0
 16 20  1  0  0  0  0
 14 21  1  0  0  0  0
 15 14  1  0  0  0  0
 16 15  1  0  0  0  0
 22 17  1  0  0  0  0
 18 17  1  0  0  0  0
 19 18  2  0  0  0  0
 20 19  1  0  0  0  0
 21 20  1  0  0  0  0
 22 21  1  0  0  0  0
  2  3  1  0  0  0  0
  3  4  1  0  0  0  0
  4  5  1  0  0  0  0
  2  6  2  0  0  0  0
  2  7  1  0  0  0  0
  4 23  1  0  0  0  0
M  END
>  <cdx:fragmentId>
7728

$$$$
