16219.cdx
  Mrv1902 05222410212D          

 28 28  0  0  0  0            999 V2000
    6.5134   -6.0093    0.0000 Si  0  0  0  0  0  0  0  0  0  0  0  0
    6.1009   -6.7237    0.0000 O   0  0  0  0  0  0  0  0  0  0  0  0
    7.3384   -7.4382    0.0000 O   0  0  0  0  0  0  0  0  0  0  0  0
    7.7509   -6.7237    0.0000 Si  0  0  0  0  0  0  0  0  0  0  0  0
    7.3384   -6.0093    0.0000 O   0  0  0  0  0  0  0  0  0  0  0  0
    5.2759   -6.7237    0.0000 Si  0  0  0  0  0  0  0  0  0  0  0  0
    4.8634   -7.4382    0.0000 O   0  0  0  0  0  0  0  0  0  0  0  0
    5.2759   -8.1527    0.0000 Si  0  0  0  0  0  0  0  0  0  0  0  0
    6.5134   -8.8672    0.0000 Si  0  0  0  0  0  0  0  0  0  0  0  0
    7.3384   -8.8672    0.0000 O   0  0  0  0  0  0  0  0  0  0  0  0
    7.7509   -8.1527    0.0000 Si  0  0  0  0  0  0  0  0  0  0  0  0
    4.8634   -8.8672    0.0000 O   0  0  0  0  0  0  0  0  0  0  0  0
    5.2759   -9.5816    0.0000 Si  0  0  0  0  0  0  0  0  0  0  0  0
    6.1009   -9.5816    0.0000 O   0  0  0  0  0  0  0  0  0  0  0  0
    6.2998   -5.2124    0.0000 C   0  0  0  0  0  0  0  0  0  0  0  0
    5.7165   -5.7958    0.0000 C   0  0  0  0  0  0  0  0  0  0  0  0
    5.0623   -5.9269    0.0000 C   0  0  0  0  0  0  0  0  0  0  0  0
    4.4790   -6.5102    0.0000 C   0  0  0  0  0  0  0  0  0  0  0  0
    5.9903   -7.7402    0.0000 C   0  0  0  0  0  0  0  0  0  0  0  0
    5.9903   -8.5652    0.0000 C   0  0  0  0  0  0  0  0  0  0  0  0
    4.5614   -9.9941    0.0000 C   0  0  0  0  0  0  0  0  0  0  0  0
    5.2759  -10.4066    0.0000 C   0  0  0  0  0  0  0  0  0  0  0  0
    6.5134   -8.0422    0.0000 C   0  0  0  0  0  0  0  0  0  0  0  0
    5.6884   -8.8672    0.0000 C   0  0  0  0  0  0  0  0  0  0  0  0
    8.4653   -7.7402    0.0000 C   0  0  0  0  0  0  0  0  0  0  0  0
    8.4653   -8.5652    0.0000 C   0  0  0  0  0  0  0  0  0  0  0  0
    8.4653   -6.3112    0.0000 C   0  0  0  0  0  0  0  0  0  0  0  0
    8.4653   -7.1362    0.0000 C   0  0  0  0  0  0  0  0  0  0  0  0
  1  2  1  0  0  0  0
  3  4  1  0  0  0  0
  4  5  1  0  0  0  0
  5  1  1  0  0  0  0
  2  6  1  0  0  0  0
  6  7  1  0  0  0  0
  7  8  1  0  0  0  0
  9 10  1  0  0  0  0
 10 11  1  0  0  0  0
 11  3  1  0  0  0  0
  8 12  1  0  0  0  0
 12 13  1  0  0  0  0
 13 14  1  0  0  0  0
 14  9  1  0  0  0  0
  1 15  1  0  0  0  0
  1 16  1  0  0  0  0
  6 17  1  0  0  0  0
  6 18  1  0  0  0  0
  8 19  1  0  0  0  0
  8 20  1  0  0  0  0
 13 21  1  0  0  0  0
 13 22  1  0  0  0  0
  9 23  1  0  0  0  0
  9 24  1  0  0  0  0
 11 25  1  0  0  0  0
 11 26  1  0  0  0  0
  4 27  1  0  0  0  0
  4 28  1  0  0  0  0
M  END
>  <cdx:fragmentId>
5

$$$$
