162239.cdx
  Mrv1902 05222410202D          

 10  9  0  0  0  0            999 V2000
    7.2740   -5.0622    0.0000 C   0  0  0  0  0  0  0  0  0  0  0  0
    6.5595   -5.4747    0.0000 C   0  0  0  0  0  0  0  0  0  0  0  0
    5.8451   -5.0622    0.0000 C   0  0  0  0  0  0  0  0  0  0  0  0
    5.1306   -5.4747    0.0000 C   0  0  0  0  0  0  0  0  0  0  0  0
    7.2740   -4.2372    0.0000 O   0  0  0  0  0  0  0  0  0  0  0  0
    7.9885   -5.4747    0.0000 O   0  0  0  0  0  0  0  0  0  0  0  0
    6.5595   -6.2997    0.0000 C   0  0  0  0  0  0  0  0  0  0  0  0
    8.7030   -5.0622    0.0000 C   0  0  0  0  0  0  0  0  0  0  0  0
    9.4174   -5.4747    0.0000 C   0  0  0  0  0  0  0  0  0  0  0  0
   10.1319   -5.0622    0.0000 C   0  0  0  0  0  0  0  0  0  0  0  0
  1  2  1  0  0  0  0
  2  3  1  0  0  0  0
  3  4  1  0  0  0  0
  1  5  2  0  0  0  0
  1  6  1  0  0  0  0
  2  7  1  0  0  0  0
  8  9  1  0  0  0  0
  9 10  1  0  0  0  0
  6  8  1  0  0  0  0
M  END
>  <cdx:groupId>
7835

>  <cdx:fragmentId>
7809

$$$$
