16225.cdx
  Mrv1902 05222410212D          

 24 28  0  0  0  0            999 V2000
    6.9950   -7.5679    0.0000 N   0  3  0  0  0  0  0  0  0  0  0  0
    6.2756   -7.9717    0.0000 C   0  0  0  0  0  0  0  0  0  0  0  0
    5.5662   -7.5506    0.0000 C   0  0  0  0  0  0  0  0  0  0  0  0
    4.8468   -7.9544    0.0000 C   0  0  0  0  0  0  0  0  0  0  0  0
    4.6655   -8.7593    0.0000 O   0  0  0  0  0  0  0  0  0  0  0  0
    3.8441   -8.8356    0.0000 C   0  0  0  0  0  0  0  0  0  0  0  0
    3.5176   -8.0779    0.0000 O   0  0  0  0  0  0  0  0  0  0  0  0
    4.1373   -7.5333    0.0000 C   0  0  0  0  0  0  0  0  0  0  0  0
    4.1473   -6.7084    0.0000 C   0  0  0  0  0  0  0  0  0  0  0  0
    4.8667   -6.3046    0.0000 C   0  0  0  0  0  0  0  0  0  0  0  0
    5.5761   -6.7257    0.0000 C   0  0  0  0  0  0  0  0  0  0  0  0
    6.2955   -6.3218    0.0000 C   0  0  0  0  0  0  0  0  0  0  0  0
    7.0050   -6.7429    0.0000 C   0  0  0  0  0  0  0  0  0  0  0  0
    7.7244   -6.3391    0.0000 C   0  0  0  0  0  0  0  0  0  0  0  0
    7.7343   -5.5141    0.0000 C   0  0  0  0  0  0  0  0  0  0  0  0
    8.4538   -5.1103    0.0000 C   0  0  0  0  0  0  0  0  0  0  0  0
    9.1632   -5.5314    0.0000 C   0  0  0  0  0  0  0  0  0  0  0  0
    9.1532   -6.3563    0.0000 C   0  0  0  0  0  0  0  0  0  0  0  0
    8.4338   -6.7602    0.0000 C   0  0  0  0  0  0  0  0  0  0  0  0
    8.4239   -7.5851    0.0000 C   0  0  0  0  0  0  0  0  0  0  0  0
    7.7045   -7.9890    0.0000 C   0  0  0  0  0  0  0  0  0  0  0  0
    8.4637   -4.2854    0.0000 O   0  0  0  0  0  0  0  0  0  0  0  0
    9.8826   -5.1276    0.0000 O   0  0  0  0  0  0  0  0  0  0  0  0
   10.5920   -5.5487    0.0000 C   0  0  0  0  0  0  0  0  0  0  0  0
  1  2  1  0  0  0  0
  2  3  2  0  0  0  0
  3  4  1  0  0  0  0
  4  5  1  0  0  0  0
  5  6  1  0  0  0  0
  6  7  1  0  0  0  0
  7  8  1  0  0  0  0
  8  9  1  0  0  0  0
  9 10  2  0  0  0  0
 10 11  1  0  0  0  0
 11 12  2  0  0  0  0
 12 13  1  0  0  0  0
 13 14  1  0  0  0  0
 14 15  2  0  0  0  0
 15 16  1  0  0  0  0
 16 17  2  0  0  0  0
 17 18  1  0  0  0  0
 18 19  2  0  0  0  0
 19 20  1  0  0  0  0
 20 21  1  0  0  0  0
  1 21  1  0  0  0  0
  1 13  2  0  0  0  0
 14 19  1  0  0  0  0
  3 11  1  0  0  0  0
  4  8  2  0  0  0  0
 16 22  1  0  0  0  0
 23 24  1  0  0  0  0
 17 23  1  0  0  0  0
M  CHG  1   1   1
M  END
>  <cdx:fragmentId>
173727

$$$$
