16221.cdx
  Mrv1902 05222410222D          

 24 28  0  0  0  0            999 V2000
    7.8776   -3.5655    0.0000 C   0  0  0  0  0  0  0  0  0  0  0  0
    8.6029   -3.9590    0.0000 O   0  0  0  0  0  0  0  0  0  0  0  0
   10.0572   -4.7479    0.0000 O   0  0  0  0  0  0  0  0  0  0  0  0
    3.8150   -7.9238    0.0000 O   0  0  0  0  0  0  0  0  0  0  0  0
    4.1686   -8.6722    0.0000 C   0  0  0  0  0  0  0  0  0  0  0  0
    4.9904   -8.5661    0.0000 O   0  0  0  0  0  0  0  0  0  0  0  0
    5.1473   -7.7550    0.0000 C   0  0  0  0  0  0  0  0  0  0  0  0
    4.4203   -7.3558    0.0000 C   0  0  0  0  0  0  0  0  0  0  0  0
    9.3698   -5.9978    0.0000 C   0  0  0  0  0  0  0  0  0  0  0  0
    9.3543   -5.1827    0.0000 C   0  0  0  0  0  0  0  0  0  0  0  0
    8.6273   -4.7836    0.0000 C   0  0  0  0  0  0  0  0  0  0  0  0
    7.9264   -5.2148    0.0000 C   0  0  0  0  0  0  0  0  0  0  0  0
    7.9508   -6.0395    0.0000 C   0  0  0  0  0  0  0  0  0  0  0  0
    8.6744   -6.4273    0.0000 C   0  0  0  0  0  0  0  0  0  0  0  0
    7.9867   -7.6865    0.0000 C   0  0  0  0  0  0  0  0  0  0  0  0
    8.6932   -7.2537    0.0000 C   0  0  0  0  0  0  0  0  0  0  0  0
    7.2445   -6.4631    0.0000 C   0  0  0  0  0  0  0  0  0  0  0  0
    7.2670   -7.2914    0.0000 N   0  3  0  0  0  0  0  0  0  0  0  0
    6.5647   -7.7077    0.0000 C   0  0  0  0  0  0  0  0  0  0  0  0
    6.5248   -6.0679    0.0000 C   0  0  0  0  0  0  0  0  0  0  0  0
    5.8275   -6.5011    0.0000 C   0  0  0  0  0  0  0  0  0  0  0  0
    5.8466   -7.3182    0.0000 C   0  0  0  0  0  0  0  0  0  0  0  0
    5.1025   -6.0983    0.0000 C   0  0  0  0  0  0  0  0  0  0  0  0
    4.3979   -6.5275    0.0000 C   0  0  0  0  0  0  0  0  0  0  0  0
  2  1  1  0  0  0  0
 11  2  1  0  0  0  0
 10  3  1  0  0  0  0
  4  8  1  0  0  0  0
  5  4  1  0  0  0  0
  6  5  1  0  0  0  0
  7  6  1  0  0  0  0
  8  7  2  0  0  0  0
  9 14  1  0  0  0  0
 10  9  2  0  0  0  0
 11 10  1  0  0  0  0
 12 11  2  0  0  0  0
 13 12  1  0  0  0  0
 14 13  2  0  0  0  0
 16 15  1  0  0  0  0
 14 16  1  0  0  0  0
 17 13  1  0  0  0  0
 18 15  1  0  0  0  0
 18 17  2  0  0  0  0
 19 22  2  0  0  0  0
 18 19  1  0  0  0  0
 20 17  1  0  0  0  0
 21 20  2  0  0  0  0
 22 21  1  0  0  0  0
 22  7  1  0  0  0  0
 23 21  1  0  0  0  0
 24 23  2  0  0  0  0
  8 24  1  0  0  0  0
M  CHG  1  18   1
M  END
>  <cdx:fragmentId>
3745

$$$$
