162305.cdx
  Mrv1902 05222410222D          

 29 31  0  0  0  0            999 V2000
   17.1046  -12.6419    0.0000 C   0  0  0  0  0  0  0  0  0  0  0  0
   17.1046  -13.4669    0.0000 C   0  0  0  0  0  0  0  0  0  0  0  0
   17.8191  -13.8794    0.0000 C   0  0  0  0  0  0  0  0  0  0  0  0
   18.5335  -13.4669    0.0000 C   0  0  0  0  0  0  0  0  0  0  0  0
   18.5335  -12.6419    0.0000 C   0  0  0  0  0  0  0  0  0  0  0  0
   17.8191  -12.2294    0.0000 O   0  0  0  0  0  0  0  0  0  0  0  0
   16.3901  -12.2294    0.0000 C   0  0  0  0  0  0  0  0  0  0  0  0
   19.2480  -12.2294    0.0000 O   0  0  0  0  0  0  0  0  0  0  0  0
   17.8191  -14.7044    0.0000 O   0  0  0  0  0  0  0  0  0  0  0  0
   18.5335  -15.1169    0.0000 C   0  0  0  0  0  0  0  0  0  0  0  0
   16.3901  -11.4044    0.0000 C   0  0  0  0  0  0  0  0  0  0  0  0
   15.6756  -10.9919    0.0000 C   0  0  0  0  0  0  0  0  0  0  0  0
   14.9611  -11.4044    0.0000 C   0  0  0  0  0  0  0  0  0  0  0  0
   14.9611  -12.2294    0.0000 C   0  0  0  0  0  0  0  0  0  0  0  0
   15.6756  -12.6419    0.0000 C   0  0  0  0  0  0  0  0  0  0  0  0
   17.1046  -10.9919    0.0000 C   0  0  0  0  0  0  0  0  0  0  0  0
   14.2467  -10.9919    0.0000 O   0  0  0  0  0  0  0  0  0  0  0  0
   15.6756  -13.4669    0.0000 O   0  0  0  0  0  0  0  0  0  0  0  0
   14.9611  -13.8794    0.0000 C   0  0  2  0  0  0  0  0  0  0  0  0
   14.2467  -13.4669    0.0000 O   0  0  0  0  0  0  0  0  0  0  0  0
   13.5322  -13.8794    0.0000 C   0  0  1  0  0  0  0  0  0  0  0  0
   13.5322  -14.7044    0.0000 C   0  0  2  0  0  0  0  0  0  0  0  0
   14.2467  -15.1169    0.0000 C   0  0  1  0  0  0  0  0  0  0  0  0
   14.9611  -14.7044    0.0000 C   0  0  1  0  0  0  0  0  0  0  0  0
   12.8178  -13.4669    0.0000 C   0  0  0  0  0  0  0  0  0  0  0  0
   14.2467  -15.9419    0.0000 O   0  0  0  0  0  0  0  0  0  0  0  0
   12.1033  -13.8794    0.0000 O   0  0  0  0  0  0  0  0  0  0  0  0
   12.8178  -15.1169    0.0000 O   0  0  0  0  0  0  0  0  0  0  0  0
   15.6756  -15.1169    0.0000 O   0  0  0  0  0  0  0  0  0  0  0  0
  1  2  2  0  0  0  0
  2  3  1  0  0  0  0
  3  4  2  0  0  0  0
  4  5  1  0  0  0  0
  5  6  1  0  0  0  0
  6  1  1  0  0  0  0
  1  7  1  0  0  0  0
  5  8  2  0  0  0  0
  3  9  1  0  0  0  0
  9 10  1  0  0  0  0
  7 11  2  0  0  0  0
 11 12  1  0  0  0  0
 12 13  2  0  0  0  0
 13 14  1  0  0  0  0
 14 15  2  0  0  0  0
 15  7  1  0  0  0  0
 11 16  1  0  0  0  0
 13 17  1  0  0  0  0
 15 18  1  0  0  0  0
 19 18  1  1  0  0  0
 19 20  1  0  0  0  0
 20 21  1  0  0  0  0
 21 22  1  0  0  0  0
 22 23  1  0  0  0  0
 23 24  1  0  0  0  0
 24 19  1  0  0  0  0
 21 25  1  1  0  0  0
 23 26  1  1  0  0  0
 25 27  1  0  0  0  0
 22 28  1  6  0  0  0
 24 29  1  6  0  0  0
M  END
>  <cdx:fragmentId>
7839

$$$$
