tetrahydrotanshinone.cdx
  Mrv1902 05222410232D          

 21 24  0  0  0  0            999 V2000
    4.0458   -8.9925    0.0000 C   0  0  0  0  0  0  0  0  0  0  0  0
    4.0458   -9.8175    0.0000 C   0  0  0  0  0  0  0  0  0  0  0  0
    4.7602  -10.2300    0.0000 C   0  0  0  0  0  0  0  0  0  0  0  0
    5.4747   -9.8175    0.0000 C   0  0  0  0  0  0  0  0  0  0  0  0
    5.4747   -8.9925    0.0000 C   0  0  0  0  0  0  0  0  0  0  0  0
    4.7602   -8.5800    0.0000 C   0  0  0  0  0  0  0  0  0  0  0  0
    6.1892  -10.2300    0.0000 C   0  0  0  0  0  0  0  0  0  0  0  0
    6.9037   -9.8175    0.0000 C   0  0  0  0  0  0  0  0  0  0  0  0
    6.9037   -8.9925    0.0000 C   0  0  0  0  0  0  0  0  0  0  0  0
    6.1892   -8.5800    0.0000 C   0  0  0  0  0  0  0  0  0  0  0  0
    7.6181   -8.5800    0.0000 C   0  0  0  0  0  0  0  0  0  0  0  0
    7.6181   -7.7550    0.0000 C   0  0  0  0  0  0  0  0  0  0  0  0
    6.9037   -7.3425    0.0000 C   0  0  0  0  0  0  0  0  0  0  0  0
    6.1892   -7.7550    0.0000 C   0  0  0  0  0  0  0  0  0  0  0  0
    8.4028   -8.8349    0.0000 O   0  0  0  0  0  0  0  0  0  0  0  0
    8.8877   -8.1675    0.0000 C   0  0  0  0  0  0  0  0  0  0  0  0
    8.4028   -7.5001    0.0000 C   0  0  2  0  0  0  0  0  0  0  0  0
    4.7602  -11.0550    0.0000 C   0  0  0  0  0  0  0  0  0  0  0  0
    6.9037   -6.5175    0.0000 O   0  0  0  0  0  0  0  0  0  0  0  0
    5.4747   -7.3425    0.0000 O   0  0  0  0  0  0  0  0  0  0  0  0
    8.6163   -6.7032    0.0000 C   0  0  0  0  0  0  0  0  0  0  0  0
  1  2  1  0  0  0  0
  2  3  2  0  0  0  0
  3  4  1  0  0  0  0
  4  5  2  0  0  0  0
  5  6  1  0  0  0  0
  6  1  1  0  0  0  0
  4  7  1  0  0  0  0
  7  8  2  0  0  0  0
  8  9  1  0  0  0  0
  9 10  2  0  0  0  0
 10  5  1  0  0  0  0
  9 11  1  0  0  0  0
 11 12  2  0  0  0  0
 12 13  1  0  0  0  0
 13 14  1  0  0  0  0
 14 10  1  0  0  0  0
 11 15  1  0  0  0  0
 15 16  1  0  0  0  0
 16 17  1  0  0  0  0
 17 12  1  0  0  0  0
  3 18  1  0  0  0  0
 13 19  2  0  0  0  0
 14 20  2  0  0  0  0
 17 21  1  1  0  0  0
M  END
>  <cdx:fragmentId>
5

$$$$
