162464.cdx
  Mrv1902 05222410202D          

 25 27  0  0  0  0            999 V2000
    5.4095  -10.3210    0.0000 O   0  0  0  0  0  0  0  0  0  0  0  0
   10.4108   -6.6085    0.0000 O   0  0  0  0  0  0  0  0  0  0  0  0
   11.1252   -7.8460    0.0000 C   0  0  0  0  0  0  0  0  0  0  0  0
   10.4108   -8.2585    0.0000 O   0  0  0  0  0  0  0  0  0  0  0  0
    8.2674   -7.0210    0.0000 C   0  0  0  0  0  0  0  0  0  0  0  0
    8.9818   -6.6085    0.0000 C   0  0  0  0  0  0  0  0  0  0  0  0
    9.6963   -7.0210    0.0000 C   0  0  0  0  0  0  0  0  0  0  0  0
    9.6963   -7.8460    0.0000 C   0  0  0  0  0  0  0  0  0  0  0  0
    8.9818   -8.2585    0.0000 C   0  0  0  0  0  0  0  0  0  0  0  0
    8.2674   -7.8460    0.0000 C   0  0  0  0  0  0  0  0  0  0  0  0
    3.2661   -9.0835    0.0000 C   0  0  0  0  0  0  0  0  0  0  0  0
    3.9805   -9.4960    0.0000 O   0  0  0  0  0  0  0  0  0  0  0  0
    3.2661   -8.2585    0.0000 C   0  0  0  0  0  0  0  0  0  0  0  0
    3.9805   -7.8460    0.0000 O   0  0  0  0  0  0  0  0  0  0  0  0
    6.8384  -10.3210    0.0000 O   0  0  0  0  0  0  0  0  0  0  0  0
    6.8384   -7.8460    0.0000 O   0  0  0  0  0  0  0  0  0  0  0  0
    6.1239   -8.2585    0.0000 C   0  0  0  0  0  0  0  0  0  0  0  0
    5.4095   -7.8460    0.0000 C   0  0  0  0  0  0  0  0  0  0  0  0
    4.6950   -8.2585    0.0000 C   0  0  0  0  0  0  0  0  0  0  0  0
    4.6950   -9.0835    0.0000 C   0  0  0  0  0  0  0  0  0  0  0  0
    5.4095   -9.4960    0.0000 C   0  0  0  0  0  0  0  0  0  0  0  0
    6.1239   -9.0835    0.0000 C   0  0  0  0  0  0  0  0  0  0  0  0
    6.8384   -9.4960    0.0000 C   0  0  0  0  0  0  0  0  0  0  0  0
    7.5529   -9.0835    0.0000 C   0  0  0  0  0  0  0  0  0  0  0  0
    7.5529   -8.2585    0.0000 C   0  0  0  0  0  0  0  0  0  0  0  0
 21  1  1  0  0  0  0
 25 10  1  0  0  0  0
  7  2  1  0  0  0  0
  8  4  1  0  0  0  0
  4  3  1  0  0  0  0
 10  5  2  0  0  0  0
  6  5  1  0  0  0  0
  7  6  2  0  0  0  0
  8  7  1  0  0  0  0
  9  8  2  0  0  0  0
 10  9  1  0  0  0  0
 20 12  1  0  0  0  0
 12 11  1  0  0  0  0
 19 14  1  0  0  0  0
 14 13  1  0  0  0  0
 23 15  2  0  0  0  0
 25 16  1  0  0  0  0
 17 16  1  0  0  0  0
 22 17  2  0  0  0  0
 18 17  1  0  0  0  0
 19 18  2  0  0  0  0
 20 19  1  0  0  0  0
 21 20  2  0  0  0  0
 22 21  1  0  0  0  0
 23 22  1  0  0  0  0
 24 23  1  0  0  0  0
 25 24  2  0  0  0  0
M  END
>  <cdx:fragmentId>
5

$$$$
