162505.cdx
  Mrv1902 05222410212D          

 20 19  0  0  0  0            999 V2000
    2.6800  -10.4274    0.0000 C   0  0  0  0  0  0  0  0  0  0  0  0
    3.3945  -10.0149    0.0000 O   0  0  0  0  0  0  0  0  0  0  0  0
    4.1089  -11.2524    0.0000 O   0  0  0  0  0  0  0  0  0  0  0  0
    9.8247  -10.4274    0.0000 C   0  0  0  0  0  0  0  0  0  0  0  0
    9.1102  -10.0149    0.0000 C   0  0  0  0  0  0  0  0  0  0  0  0
    8.3957  -10.4274    0.0000 C   0  0  0  0  0  0  0  0  0  0  0  0
    7.6813  -10.0149    0.0000 C   0  0  0  0  0  0  0  0  0  0  0  0
    6.9668  -10.4274    0.0000 C   0  0  0  0  0  0  0  0  0  0  0  0
    6.2523  -10.0149    0.0000 C   0  0  0  0  0  0  0  0  0  0  0  0
    5.5379  -10.4274    0.0000 C   0  0  0  0  0  0  0  0  0  0  0  0
    4.8234  -10.0149    0.0000 C   0  0  0  0  0  0  0  0  0  0  0  0
    4.1089  -10.4274    0.0000 C   0  0  0  0  0  0  0  0  0  0  0  0
   10.5392  -10.0149    0.0000 C   0  0  0  0  0  0  0  0  0  0  0  0
   10.5392   -9.1899    0.0000 C   0  0  0  0  0  0  0  0  0  0  0  0
   11.2536   -8.7774    0.0000 C   0  0  0  0  0  0  0  0  0  0  0  0
   11.2536   -7.9524    0.0000 C   0  0  0  0  0  0  0  0  0  0  0  0
   10.5392   -7.5399    0.0000 C   0  0  0  0  0  0  0  0  0  0  0  0
   10.5392   -6.7149    0.0000 C   0  0  0  0  0  0  0  0  0  0  0  0
    9.8247   -6.3024    0.0000 C   0  0  0  0  0  0  0  0  0  0  0  0
    9.8247   -5.4774    0.0000 C   0  0  0  0  0  0  0  0  0  0  0  0
  2  1  1  0  0  0  0
 12  2  1  0  0  0  0
 12  3  2  0  0  0  0
  5  4  1  0  0  0  0
  6  5  1  0  0  0  0
  7  6  1  0  0  0  0
  8  7  1  0  0  0  0
  9  8  1  0  0  0  0
 10  9  1  0  0  0  0
 11 10  1  0  0  0  0
 12 11  1  0  0  0  0
  4 13  2  0  0  0  0
 13 14  1  0  0  0  0
 14 15  1  0  0  0  0
 15 16  2  0  0  0  0
 16 17  1  0  0  0  0
 17 18  1  0  0  0  0
 18 19  1  0  0  0  0
 19 20  1  0  0  0  0
M  END
>  <cdx:fragmentId>
102500

$$$$
