162526.cdx
  Mrv1902 05222410242D          

 24 26  0  0  0  0            999 V2000
   10.8585  -16.1257    0.0000 C   0  0  0  0  0  0  0  0  0  0  0  0
   10.1441  -15.7132    0.0000 C   0  0  0  0  0  0  0  0  0  0  0  0
   10.1441  -14.8882    0.0000 C   0  0  0  0  0  0  0  0  0  0  0  0
   10.8585  -14.4757    0.0000 C   0  0  0  0  0  0  0  0  0  0  0  0
   11.5730  -15.7132    0.0000 C   0  0  0  0  0  0  0  0  0  0  0  0
   11.5730  -14.8882    0.0000 C   0  0  0  0  0  0  0  0  0  0  0  0
   12.3576  -14.6333    0.0000 O   0  0  0  0  0  0  0  0  0  0  0  0
   12.8425  -15.3007    0.0000 C   0  0  0  0  0  0  0  0  0  0  0  0
   12.3576  -15.9682    0.0000 O   0  0  0  0  0  0  0  0  0  0  0  0
    2.2457  -14.5527    0.0000 C   0  0  0  0  0  0  0  0  0  0  0  0
    1.6936  -15.1658    0.0000 C   0  0  0  0  0  0  0  0  0  0  0  0
    2.1061  -15.8802    0.0000 C   0  0  0  0  0  0  0  0  0  0  0  0
    2.9131  -15.7087    0.0000 C   0  0  0  0  0  0  0  0  0  0  0  0
    2.9993  -14.8882    0.0000 N   0  0  0  0  0  0  0  0  0  0  0  0
    3.7138  -13.6507    0.0000 O   0  0  0  0  0  0  0  0  0  0  0  0
    9.4296  -14.4757    0.0000 C   0  0  0  0  0  0  0  0  0  0  0  0
    8.7151  -14.8882    0.0000 C   0  0  0  0  0  0  0  0  0  0  0  0
    8.0006  -14.4757    0.0000 C   0  0  0  0  0  0  0  0  0  0  0  0
    7.2862  -14.8882    0.0000 C   0  0  0  0  0  0  0  0  0  0  0  0
    6.5717  -14.4757    0.0000 C   0  0  0  0  0  0  0  0  0  0  0  0
    5.8572  -14.8882    0.0000 C   0  0  0  0  0  0  0  0  0  0  0  0
    5.1428  -14.4757    0.0000 C   0  0  0  0  0  0  0  0  0  0  0  0
    4.4283  -14.8882    0.0000 C   0  0  0  0  0  0  0  0  0  0  0  0
    3.7138  -14.4757    0.0000 C   0  0  0  0  0  0  0  0  0  0  0  0
 16  3  1  0  0  0  0
  4  6  2  0  0  0  0
  1  5  2  0  0  0  0
  2  1  1  0  0  0  0
  3  2  2  0  0  0  0
  4  3  1  0  0  0  0
  9  5  1  0  0  0  0
  6  5  1  0  0  0  0
  7  6  1  0  0  0  0
  8  7  1  0  0  0  0
  9  8  1  0  0  0  0
 24 14  1  0  0  0  0
 14 10  1  0  0  0  0
 11 10  1  0  0  0  0
 12 11  1  0  0  0  0
 13 12  1  0  0  0  0
 14 13  1  0  0  0  0
 24 15  2  0  0  0  0
 17 16  2  0  0  0  0
 18 17  1  0  0  0  0
 19 18  1  0  0  0  0
 20 19  1  0  0  0  0
 21 20  1  0  0  0  0
 22 21  1  0  0  0  0
 23 22  2  0  0  0  0
 24 23  1  0  0  0  0
M  END
>  <cdx:groupId>
102831

>  <cdx:fragmentId>
102760

$$$$
