16255.cdx
  Mrv1902 05222410202D          

 15 14  0  0  0  0            999 V2000
    6.7947   -3.2871    0.0000 C   0  0  0  0  0  0  0  0  0  0  0  0
    6.0802   -3.6996    0.0000 C   0  0  0  0  0  0  0  0  0  0  0  0
    5.3658   -3.2871    0.0000 C   0  0  0  0  0  0  0  0  0  0  0  0
    4.6513   -3.6996    0.0000 C   0  0  0  0  0  0  0  0  0  0  0  0
    3.9368   -3.2871    0.0000 C   0  0  0  0  0  0  0  0  0  0  0  0
    3.2224   -3.6996    0.0000 C   0  0  0  0  0  0  0  0  0  0  0  0
    2.5079   -3.2871    0.0000 C   0  0  0  0  0  0  0  0  0  0  0  0
    1.7934   -3.6996    0.0000 C   0  0  0  0  0  0  0  0  0  0  0  0
    6.7947   -2.4621    0.0000 O   0  0  0  0  0  0  0  0  0  0  0  0
    7.5092   -3.6996    0.0000 O   0  0  0  0  0  0  0  0  0  0  0  0
    8.2237   -3.2871    0.0000 C   0  0  0  0  0  0  0  0  0  0  0  0
    8.9381   -3.6996    0.0000 C   0  0  0  0  0  0  0  0  0  0  0  0
    9.6526   -3.2871    0.0000 C   0  0  0  0  0  0  0  0  0  0  0  0
    9.6526   -2.4621    0.0000 C   0  0  0  0  0  0  0  0  0  0  0  0
   10.3671   -3.6996    0.0000 C   0  0  0  0  0  0  0  0  0  0  0  0
  1  2  1  0  0  0  0
  2  3  1  0  0  0  0
  3  4  1  0  0  0  0
  4  5  1  0  0  0  0
  5  6  1  0  0  0  0
  6  7  1  0  0  0  0
  7  8  1  0  0  0  0
  1  9  2  0  0  0  0
  1 10  1  0  0  0  0
 11 12  1  0  0  0  0
 12 13  1  0  0  0  0
 13 14  1  0  0  0  0
 13 15  1  0  0  0  0
 10 11  1  0  0  0  0
M  END
>  <cdx:groupId>
46

>  <cdx:fragmentId>
5

$$$$
