162567.cdx
  Mrv1902 05222410182D          

 14 15  0  0  0  0            999 V2000
    9.9634  -13.1912    0.0000 C   0  0  0  0  0  0  0  0  0  0  0  0
   10.6779  -13.6037    0.0000 C   0  0  0  0  0  0  0  0  0  0  0  0
   10.6779  -14.4287    0.0000 C   0  0  1  0  0  0  0  0  0  0  0  0
    9.9634  -14.8412    0.0000 C   0  0  0  0  0  0  0  0  0  0  0  0
    9.2489  -14.4287    0.0000 C   0  0  0  0  0  0  0  0  0  0  0  0
    8.5344  -14.8412    0.0000 C   0  0  0  0  0  0  0  0  0  0  0  0
    7.8200  -14.4287    0.0000 C   0  0  0  0  0  0  0  0  0  0  0  0
    7.8200  -13.6037    0.0000 C   0  0  0  0  0  0  0  0  0  0  0  0
    8.5344  -13.1912    0.0000 C   0  0  0  0  0  0  0  0  0  0  0  0
    9.2489  -13.6037    0.0000 C   0  0  0  0  0  0  0  0  0  0  0  0
    9.9634  -12.3662    0.0000 O   0  0  0  0  0  0  0  0  0  0  0  0
    8.5344  -12.3662    0.0000 O   0  0  0  0  0  0  0  0  0  0  0  0
    7.1055  -14.8412    0.0000 O   0  0  0  0  0  0  0  0  0  0  0  0
   11.3923  -14.8412    0.0000 O   0  0  0  0  0  0  0  0  0  0  0  0
  1  2  1  0  0  0  0
  2  3  1  0  0  0  0
  3  4  1  0  0  0  0
  4  5  1  0  0  0  0
  5  6  1  0  0  0  0
  6  7  2  0  0  0  0
  7  8  1  0  0  0  0
  8  9  2  0  0  0  0
  9 10  1  0  0  0  0
  1 10  1  0  0  0  0
  5 10  2  0  0  0  0
  1 11  2  0  0  0  0
  9 12  1  0  0  0  0
  7 13  1  0  0  0  0
  3 14  1  6  0  0  0
M  END
>  <cdx:fragmentId>
26554

$$$$
