162525.cdx
  Mrv1902 05222410232D          

 28 30  0  0  0  0            999 V2000
   12.1225   -9.0146    0.0000 C   0  0  0  0  0  0  0  0  0  0  0  0
   11.4080   -8.6021    0.0000 C   0  0  0  0  0  0  0  0  0  0  0  0
   11.4080   -7.7771    0.0000 C   0  0  0  0  0  0  0  0  0  0  0  0
   12.1225   -7.3646    0.0000 C   0  0  0  0  0  0  0  0  0  0  0  0
   12.8369   -8.6021    0.0000 C   0  0  0  0  0  0  0  0  0  0  0  0
   12.8369   -7.7771    0.0000 C   0  0  0  0  0  0  0  0  0  0  0  0
   13.6216   -7.5222    0.0000 O   0  0  0  0  0  0  0  0  0  0  0  0
   14.1065   -8.1896    0.0000 C   0  0  0  0  0  0  0  0  0  0  0  0
   13.6216   -8.8570    0.0000 O   0  0  0  0  0  0  0  0  0  0  0  0
    0.6517   -7.4415    0.0000 C   0  0  0  0  0  0  0  0  0  0  0  0
    0.0997   -8.0546    0.0000 C   0  0  0  0  0  0  0  0  0  0  0  0
    0.5122   -8.7691    0.0000 C   0  0  0  0  0  0  0  0  0  0  0  0
    1.3192   -8.5976    0.0000 C   0  0  0  0  0  0  0  0  0  0  0  0
    1.4054   -7.7771    0.0000 N   0  0  0  0  0  0  0  0  0  0  0  0
    2.1199   -6.5396    0.0000 O   0  0  0  0  0  0  0  0  0  0  0  0
   10.6935   -7.3646    0.0000 C   0  0  0  0  0  0  0  0  0  0  0  0
    9.9791   -7.7771    0.0000 C   0  0  0  0  0  0  0  0  0  0  0  0
    9.2646   -7.3646    0.0000 C   0  0  0  0  0  0  0  0  0  0  0  0
    8.5501   -7.7771    0.0000 C   0  0  0  0  0  0  0  0  0  0  0  0
    7.8356   -7.3646    0.0000 C   0  0  0  0  0  0  0  0  0  0  0  0
    7.1212   -7.7771    0.0000 C   0  0  0  0  0  0  0  0  0  0  0  0
    6.4067   -7.3646    0.0000 C   0  0  0  0  0  0  0  0  0  0  0  0
    5.6922   -7.7771    0.0000 C   0  0  0  0  0  0  0  0  0  0  0  0
    4.9778   -7.3646    0.0000 C   0  0  0  0  0  0  0  0  0  0  0  0
    4.2633   -7.7771    0.0000 C   0  0  0  0  0  0  0  0  0  0  0  0
    3.5488   -7.3646    0.0000 C   0  0  0  0  0  0  0  0  0  0  0  0
    2.8344   -7.7771    0.0000 C   0  0  0  0  0  0  0  0  0  0  0  0
    2.1199   -7.3646    0.0000 C   0  0  0  0  0  0  0  0  0  0  0  0
 16  3  1  0  0  0  0
  4  6  2  0  0  0  0
  1  5  2  0  0  0  0
  2  1  1  0  0  0  0
  3  2  2  0  0  0  0
  4  3  1  0  0  0  0
  9  5  1  0  0  0  0
  6  5  1  0  0  0  0
  7  6  1  0  0  0  0
  8  7  1  0  0  0  0
  9  8  1  0  0  0  0
 28 14  1  0  0  0  0
 14 10  1  0  0  0  0
 11 10  1  0  0  0  0
 12 11  1  0  0  0  0
 13 12  1  0  0  0  0
 14 13  1  0  0  0  0
 28 15  2  0  0  0  0
 17 16  2  0  0  0  0
 18 17  1  0  0  0  0
 19 18  1  0  0  0  0
 20 19  1  0  0  0  0
 21 20  1  0  0  0  0
 22 21  1  0  0  0  0
 23 22  1  0  0  0  0
 24 23  1  0  0  0  0
 25 24  2  0  0  0  0
 26 25  1  0  0  0  0
 27 26  2  0  0  0  0
 28 27  1  0  0  0  0
M  END
>  <cdx:groupId>
102745

>  <cdx:fragmentId>
102662

$$$$
