16265.cdx
  Mrv1902 05222410262D          

 10 10  0  0  0  0            999 V2000
    6.6444   -2.3925    0.0000 C   0  0  0  0  0  0  0  0  0  0  0  0
    7.3589   -2.8050    0.0000 C   0  0  0  0  0  0  0  0  0  0  0  0
    7.3589   -3.6300    0.0000 C   0  0  0  0  0  0  0  0  0  0  0  0
    6.6444   -4.0425    0.0000 C   0  0  0  0  0  0  0  0  0  0  0  0
    6.6444   -4.8675    0.0000 C   0  0  0  0  0  0  0  0  0  0  0  0
    7.3589   -5.2800    0.0000 C   0  0  0  0  0  0  0  0  0  0  0  0
    8.0733   -4.8675    0.0000 C   0  0  0  0  0  0  0  0  0  0  0  0
    8.0733   -4.0425    0.0000 C   0  0  0  0  0  0  0  0  0  0  0  0
    8.7878   -5.2800    0.0000 C   0  0  0  0  0  0  0  0  0  0  0  0
    5.9299   -3.6300    0.0000 C   0  0  0  0  0  0  0  0  0  0  0  0
  1  2  2  0  0  0  0
  2  3  1  0  0  0  0
  3  4  1  0  0  0  0
  4  5  2  0  0  0  0
  5  6  1  0  0  0  0
  6  7  2  0  0  0  0
  7  8  1  0  0  0  0
  3  8  2  0  0  0  0
  7  9  1  0  0  0  0
  4 10  1  0  0  0  0
M  END
>  <cdx:groupId>
32

>  <cdx:fragmentId>
5

$$$$
