16277.cdx
  Mrv1902 05222410272D          

 16 16  0  0  0  0            999 V2000
    6.8021   -7.5429    0.0000 C   0  0  0  0  0  0  0  0  0  0  0  0
    6.2188   -8.1263    0.0000 C   0  0  0  0  0  0  0  0  0  0  0  0
    6.8021   -8.7096    0.0000 C   0  0  0  0  0  0  0  0  0  0  0  0
    7.3855   -8.1263    0.0000 C   0  0  0  0  0  0  0  0  0  0  0  0
    6.8021   -6.7179    0.0000 C   0  0  0  0  0  0  0  0  0  0  0  0
    5.3938   -8.1263    0.0000 C   0  0  0  0  0  0  0  0  0  0  0  0
    8.2105   -8.1263    0.0000 C   0  0  0  0  0  0  0  0  0  0  0  0
    6.8021   -9.5346    0.0000 C   0  0  0  0  0  0  0  0  0  0  0  0
    6.0877   -6.3054    0.0000 C   0  0  0  0  0  0  0  0  0  0  0  0
    7.5166   -6.3054    0.0000 C   0  0  0  0  0  0  0  0  0  0  0  0
    8.6230   -7.4118    0.0000 C   0  0  0  0  0  0  0  0  0  0  0  0
    8.6230   -8.8407    0.0000 C   0  0  0  0  0  0  0  0  0  0  0  0
    7.5166   -9.9471    0.0000 C   0  0  0  0  0  0  0  0  0  0  0  0
    6.0877   -9.9471    0.0000 C   0  0  0  0  0  0  0  0  0  0  0  0
    4.9813   -7.4118    0.0000 C   0  0  0  0  0  0  0  0  0  0  0  0
    4.9813   -8.8407    0.0000 C   0  0  0  0  0  0  0  0  0  0  0  0
  1  2  1  0  0  0  0
  2  3  1  0  0  0  0
  3  4  1  0  0  0  0
  4  1  1  0  0  0  0
  1  5  2  0  0  0  0
  2  6  2  0  0  0  0
  4  7  2  0  0  0  0
  3  8  2  0  0  0  0
  5  9  1  0  0  0  0
  5 10  1  0  0  0  0
  7 11  1  0  0  0  0
  7 12  1  0  0  0  0
  8 13  1  0  0  0  0
  8 14  1  0  0  0  0
  6 15  1  0  0  0  0
  6 16  1  0  0  0  0
M  END
>  <cdx:fragmentId>
5

$$$$
