162876.cdx
  Mrv1902 05222410242D          

 19 20  0  0  0  0            999 V2000
    8.7688   -9.1201    0.0000 C   0  0  0  0  0  0  0  0  0  0  0  0
    8.7688   -8.2951    0.0000 C   0  0  0  0  0  0  0  0  0  0  0  0
    9.4833   -7.8826    0.0000 C   0  0  0  0  0  0  0  0  0  0  0  0
   10.1978   -8.2951    0.0000 C   0  0  0  0  0  0  0  0  0  0  0  0
   10.1978   -9.1201    0.0000 C   0  0  0  0  0  0  0  0  0  0  0  0
    9.4833   -9.5326    0.0000 O   0  0  0  0  0  0  0  0  0  0  0  0
    9.4833   -7.0576    0.0000 O   0  0  0  0  0  0  0  0  0  0  0  0
    8.0544   -7.8826    0.0000 O   0  0  0  0  0  0  0  0  0  0  0  0
    6.6254   -7.8826    0.0000 O   0  0  0  0  0  0  0  0  0  0  0  0
    7.3399   -8.2951    0.0000 C   0  0  2  0  0  0  0  0  0  0  0  0
    7.3399   -9.1201    0.0000 C   0  0  1  0  0  0  0  0  0  0  0  0
    6.6254   -9.5326    0.0000 C   0  0  2  0  0  0  0  0  0  0  0  0
    5.9110   -9.1201    0.0000 C   0  0  1  0  0  0  0  0  0  0  0  0
    5.9110   -8.2951    0.0000 C   0  0  1  0  0  0  0  0  0  0  0  0
    5.1965   -7.8826    0.0000 C   0  0  0  0  0  0  0  0  0  0  0  0
    4.4820   -8.2951    0.0000 O   0  0  0  0  0  0  0  0  0  0  0  0
    5.1965   -9.5326    0.0000 O   0  0  0  0  0  0  0  0  0  0  0  0
    6.6254  -10.3576    0.0000 O   0  0  0  0  0  0  0  0  0  0  0  0
    8.0544   -9.5326    0.0000 O   0  0  0  0  0  0  0  0  0  0  0  0
  1  2  2  0  0  0  0
  2  3  1  0  0  0  0
  3  4  1  0  0  0  0
  4  5  2  0  0  0  0
  5  6  1  0  0  0  0
  1  6  1  0  0  0  0
  3  7  2  0  0  0  0
  9 10  1  0  0  0  0
 10 11  1  0  0  0  0
 11 12  1  0  0  0  0
 12 13  1  0  0  0  0
 13 14  1  0  0  0  0
  9 14  1  0  0  0  0
 15 16  1  0  0  0  0
 14 15  1  1  0  0  0
 13 17  1  6  0  0  0
 12 18  1  1  0  0  0
 11 19  1  6  0  0  0
 10  8  1  1  0  0  0
  2  8  1  0  0  0  0
M  END
>  <cdx:fragmentId>
21

$$$$
