16289.cdx
  Mrv1902 05222410272D          

 25 27  0  0  0  0            999 V2000
    5.1252   -5.0462    0.0000 C   0  0  0  0  0  0  0  0  0  0  0  0
    5.1252   -5.8712    0.0000 C   0  0  0  0  0  0  0  0  0  0  0  0
    5.8396   -6.2837    0.0000 C   0  0  0  0  0  0  0  0  0  0  0  0
    6.5541   -5.8712    0.0000 C   0  0  0  0  0  0  0  0  0  0  0  0
    6.5541   -5.0462    0.0000 C   0  0  0  0  0  0  0  0  0  0  0  0
    5.8396   -4.6338    0.0000 C   0  0  0  0  0  0  0  0  0  0  0  0
    7.2686   -6.2837    0.0000 C   0  0  0  0  0  0  0  0  0  0  0  0
    7.9830   -5.8712    0.0000 C   0  0  0  0  0  0  0  0  0  0  0  0
    7.9830   -5.0462    0.0000 C   0  0  0  0  0  0  0  0  0  0  0  0
    7.2686   -4.6338    0.0000 O   0  0  0  0  0  0  0  0  0  0  0  0
    8.6975   -4.6338    0.0000 C   0  0  0  0  0  0  0  0  0  0  0  0
    8.6975   -3.8087    0.0000 C   0  0  0  0  0  0  0  0  0  0  0  0
    9.4120   -5.0462    0.0000 C   0  0  0  0  0  0  0  0  0  0  0  0
   10.1265   -4.6338    0.0000 C   0  0  0  0  0  0  0  0  0  0  0  0
   10.1265   -3.8087    0.0000 C   0  0  0  0  0  0  0  0  0  0  0  0
    9.4120   -3.3963    0.0000 C   0  0  0  0  0  0  0  0  0  0  0  0
    7.2686   -7.1088    0.0000 O   0  0  0  0  0  0  0  0  0  0  0  0
    5.8396   -3.8087    0.0000 O   0  0  0  0  0  0  0  0  0  0  0  0
    5.1252   -3.3963    0.0000 C   0  0  0  0  0  0  0  0  0  0  0  0
    4.4107   -4.6338    0.0000 O   0  0  0  0  0  0  0  0  0  0  0  0
    3.6962   -5.0462    0.0000 C   0  0  0  0  0  0  0  0  0  0  0  0
    5.8396   -7.1088    0.0000 O   0  0  0  0  0  0  0  0  0  0  0  0
    5.1252   -7.5213    0.0000 C   0  0  0  0  0  0  0  0  0  0  0  0
   10.8409   -3.3963    0.0000 O   0  0  0  0  0  0  0  0  0  0  0  0
   11.5554   -3.8087    0.0000 C   0  0  0  0  0  0  0  0  0  0  0  0
  1  2  2  0  0  0  0
  2  3  1  0  0  0  0
  3  4  2  0  0  0  0
  4  5  1  0  0  0  0
  5  6  2  0  0  0  0
  6  1  1  0  0  0  0
  4  7  1  0  0  0  0
  7  8  1  0  0  0  0
  8  9  2  0  0  0  0
  9 10  1  0  0  0  0
 10  5  1  0  0  0  0
  9 11  1  0  0  0  0
 11 12  1  0  0  0  0
 11 13  2  0  0  0  0
 13 14  1  0  0  0  0
 14 15  2  0  0  0  0
 15 16  1  0  0  0  0
 16 12  2  0  0  0  0
  7 17  2  0  0  0  0
  6 18  1  0  0  0  0
 18 19  1  0  0  0  0
  1 20  1  0  0  0  0
 20 21  1  0  0  0  0
  3 22  1  0  0  0  0
 22 23  1  0  0  0  0
 15 24  1  0  0  0  0
 24 25  1  0  0  0  0
M  END
>  <cdx:fragmentId>
5

$$$$
