16292.cdx
  Mrv1902 05222410182D          

 25 27  0  0  0  0            999 V2000
    3.4477   -6.7830    0.0000 C   0  0  0  0  0  0  0  0  0  0  0  0
    3.4477   -5.9580    0.0000 C   0  0  0  0  0  0  0  0  0  0  0  0
    4.1621   -5.5455    0.0000 C   0  0  0  0  0  0  0  0  0  0  0  0
    4.8766   -5.9580    0.0000 C   0  0  0  0  0  0  0  0  0  0  0  0
    4.8766   -6.7830    0.0000 C   0  0  0  0  0  0  0  0  0  0  0  0
    4.1621   -7.1955    0.0000 C   0  0  0  0  0  0  0  0  0  0  0  0
    5.5911   -5.5455    0.0000 C   0  0  0  0  0  0  0  0  0  0  0  0
    6.3055   -5.9580    0.0000 C   0  0  0  0  0  0  0  0  0  0  0  0
    6.3055   -6.7830    0.0000 C   0  0  0  0  0  0  0  0  0  0  0  0
    5.5911   -7.1955    0.0000 O   0  0  0  0  0  0  0  0  0  0  0  0
    7.0200   -7.1955    0.0000 C   0  0  0  0  0  0  0  0  0  0  0  0
    7.0200   -8.0205    0.0000 C   0  0  0  0  0  0  0  0  0  0  0  0
    7.7345   -6.7830    0.0000 C   0  0  0  0  0  0  0  0  0  0  0  0
    8.4490   -7.1955    0.0000 C   0  0  0  0  0  0  0  0  0  0  0  0
    8.4490   -8.0205    0.0000 C   0  0  0  0  0  0  0  0  0  0  0  0
    7.7345   -8.4330    0.0000 C   0  0  0  0  0  0  0  0  0  0  0  0
    5.5911   -4.7205    0.0000 O   0  0  0  0  0  0  0  0  0  0  0  0
    4.1621   -4.7205    0.0000 O   0  0  0  0  0  0  0  0  0  0  0  0
    3.4477   -4.3080    0.0000 C   0  0  0  0  0  0  0  0  0  0  0  0
    9.1634   -8.4330    0.0000 O   0  0  0  0  0  0  0  0  0  0  0  0
    9.8779   -8.0205    0.0000 C   0  0  0  0  0  0  0  0  0  0  0  0
    2.7332   -5.5455    0.0000 O   0  0  0  0  0  0  0  0  0  0  0  0
    2.0187   -5.9580    0.0000 C   0  0  0  0  0  0  0  0  0  0  0  0
    2.7332   -7.1955    0.0000 O   0  0  0  0  0  0  0  0  0  0  0  0
    2.7332   -8.0205    0.0000 C   0  0  0  0  0  0  0  0  0  0  0  0
  1  2  2  0  0  0  0
  2  3  1  0  0  0  0
  3  4  2  0  0  0  0
  4  5  1  0  0  0  0
  5  6  2  0  0  0  0
  6  1  1  0  0  0  0
  4  7  1  0  0  0  0
  7  8  1  0  0  0  0
  8  9  2  0  0  0  0
  9 10  1  0  0  0  0
 10  5  1  0  0  0  0
  9 11  1  0  0  0  0
 11 12  1  0  0  0  0
 11 13  2  0  0  0  0
 13 14  1  0  0  0  0
 14 15  2  0  0  0  0
 15 16  1  0  0  0  0
 16 12  2  0  0  0  0
  7 17  2  0  0  0  0
  3 18  1  0  0  0  0
 18 19  1  0  0  0  0
 15 20  1  0  0  0  0
 20 21  1  0  0  0  0
  2 22  1  0  0  0  0
 22 23  1  0  0  0  0
  1 24  1  0  0  0  0
 24 25  1  0  0  0  0
M  END
>  <cdx:fragmentId>
5

$$$$
