16296.cdx
  Mrv1902 05222410202D          

 14 14  0  0  0  0            999 V2000
    3.4445   -3.4166    0.0000 C   0  0  0  0  0  0  0  0  0  0  0  0
    2.7300   -3.8291    0.0000 C   0  0  0  0  0  0  0  0  0  0  0  0
    2.7300   -4.6541    0.0000 C   0  0  0  0  0  0  0  0  0  0  0  0
    2.0155   -5.0666    0.0000 C   0  0  0  0  0  0  0  0  0  0  0  0
    1.3011   -4.6541    0.0000 C   0  0  0  0  0  0  0  0  0  0  0  0
    1.3011   -3.8291    0.0000 C   0  0  0  0  0  0  0  0  0  0  0  0
    2.0155   -3.4166    0.0000 C   0  0  0  0  0  0  0  0  0  0  0  0
    3.4445   -2.5916    0.0000 O   0  0  0  0  0  0  0  0  0  0  0  0
    4.1590   -3.8291    0.0000 O   0  0  0  0  0  0  0  0  0  0  0  0
    4.8734   -3.4166    0.0000 C   0  0  0  0  0  0  0  0  0  0  0  0
    5.5879   -3.8291    0.0000 C   0  0  0  0  0  0  0  0  0  0  0  0
    6.3024   -3.4166    0.0000 C   0  0  0  0  0  0  0  0  0  0  0  0
    7.0168   -3.8291    0.0000 C   0  0  0  0  0  0  0  0  0  0  0  0
    7.7313   -3.4166    0.0000 C   0  0  0  0  0  0  0  0  0  0  0  0
  1  2  1  0  0  0  0
  2  3  1  0  0  0  0
  3  4  2  0  0  0  0
  4  5  1  0  0  0  0
  5  6  2  0  0  0  0
  6  7  1  0  0  0  0
  2  7  2  0  0  0  0
  1  8  2  0  0  0  0
  1  9  1  0  0  0  0
 10 11  1  0  0  0  0
 11 12  1  0  0  0  0
 12 13  1  0  0  0  0
 13 14  1  0  0  0  0
  9 10  1  0  0  0  0
M  END
>  <cdx:groupId>
91

>  <cdx:fragmentId>
52

$$$$
