1630.cdx
  Mrv1902 05222410212D          

 26 27  0  0  0  0            999 V2000
    2.4456   -8.5050    0.0000 C   0  0  0  0  0  0  0  0  0  0  0  0
    3.1558   -8.9248    0.0000 C   0  0  0  0  0  0  0  0  0  0  0  0
    3.8744   -8.5197    0.0000 C   0  0  0  0  0  0  0  0  0  0  0  0
    3.8829   -7.6947    0.0000 C   0  0  0  0  0  0  0  0  0  0  0  0
    3.1727   -7.2749    0.0000 C   0  0  0  0  0  0  0  0  0  0  0  0
    2.4540   -7.6801    0.0000 C   0  0  0  0  0  0  0  0  0  0  0  0
    1.7438   -7.2602    0.0000 O   0  0  0  0  0  0  0  0  0  0  0  0
    1.7269   -8.9102    0.0000 O   0  0  0  0  0  0  0  0  0  0  0  0
    4.6016   -7.2896    0.0000 C   0  0  0  0  0  0  0  0  0  0  0  0
    5.3118   -7.7094    0.0000 C   0  0  0  0  0  0  0  0  0  0  0  0
    6.0304   -7.3043    0.0000 C   0  0  1  0  0  0  0  0  0  0  0  0
    6.7406   -7.7241    0.0000 C   0  0  0  0  0  0  0  0  0  0  0  0
    7.4593   -7.3189    0.0000 C   0  0  0  0  0  0  0  0  0  0  0  0
    8.1695   -7.7388    0.0000 C   0  0  0  0  0  0  0  0  0  0  0  0
    8.8882   -7.3336    0.0000 C   0  0  0  0  0  0  0  0  0  0  0  0
    9.5984   -7.7534    0.0000 C   0  0  0  0  0  0  0  0  0  0  0  0
    9.5899   -8.5784    0.0000 C   0  0  0  0  0  0  0  0  0  0  0  0
   10.3001   -8.9982    0.0000 C   0  0  0  0  0  0  0  0  0  0  0  0
   11.0188   -8.5931    0.0000 C   0  0  0  0  0  0  0  0  0  0  0  0
   11.0272   -7.7681    0.0000 C   0  0  0  0  0  0  0  0  0  0  0  0
   10.3170   -7.3483    0.0000 C   0  0  0  0  0  0  0  0  0  0  0  0
   11.7290   -9.0129    0.0000 O   0  0  0  0  0  0  0  0  0  0  0  0
    6.0389   -6.4793    0.0000 O   0  0  0  0  0  0  0  0  0  0  0  0
    6.7576   -6.0742    0.0000 C   0  0  0  0  0  0  0  0  0  0  0  0
    6.7661   -5.2492    0.0000 O   0  0  0  0  0  0  0  0  0  0  0  0
    7.4678   -6.4940    0.0000 C   0  0  0  0  0  0  0  0  0  0  0  0
  1  2  1  0  0  0  0
  2  3  2  0  0  0  0
  3  4  1  0  0  0  0
  4  5  2  0  0  0  0
  5  6  1  0  0  0  0
  6  1  2  0  0  0  0
  6  7  1  0  0  0  0
  1  8  1  0  0  0  0
  4  9  1  0  0  0  0
  9 10  1  0  0  0  0
 10 11  1  0  0  0  0
 11 12  1  0  0  0  0
 12 13  1  0  0  0  0
 13 14  1  0  0  0  0
 14 15  2  0  0  0  0
 15 16  1  0  0  0  0
 16 17  2  0  0  0  0
 17 18  1  0  0  0  0
 18 19  2  0  0  0  0
 19 20  1  0  0  0  0
 20 21  2  0  0  0  0
 21 16  1  0  0  0  0
 19 22  1  0  0  0  0
 11 23  1  6  0  0  0
 23 24  1  0  0  0  0
 24 25  2  0  0  0  0
 24 26  1  0  0  0  0
M  END
>  <cdx:fragmentId>
5

$$$$
