16305.cdx
  Mrv1902 05222410262D          

 37 40  0  0  0  0            999 V2000
    7.6758   -9.7763    0.0000 C   0  0  0  0  0  0  0  0  0  0  0  0
    7.6758  -10.6013    0.0000 C   0  0  0  0  0  0  0  0  0  0  0  0
    8.3902  -11.0137    0.0000 C   0  0  0  0  0  0  0  0  0  0  0  0
    9.1047  -10.6013    0.0000 C   0  0  0  0  0  0  0  0  0  0  0  0
    9.1047   -9.7763    0.0000 C   0  0  0  0  0  0  0  0  0  0  0  0
    8.3902   -9.3637    0.0000 C   0  0  0  0  0  0  0  0  0  0  0  0
    9.8192  -11.0137    0.0000 O   0  0  0  0  0  0  0  0  0  0  0  0
   10.5337  -10.6013    0.0000 C   0  0  2  0  0  0  0  0  0  0  0  0
   10.5337   -9.7763    0.0000 C   0  0  1  0  0  0  0  0  0  0  0  0
    9.8192   -9.3637    0.0000 O   0  0  0  0  0  0  0  0  0  0  0  0
   11.2481  -11.0137    0.0000 C   0  0  0  0  0  0  0  0  0  0  0  0
   11.2481  -11.8387    0.0000 C   0  0  0  0  0  0  0  0  0  0  0  0
   11.9626  -12.2512    0.0000 C   0  0  0  0  0  0  0  0  0  0  0  0
   12.6771  -11.8387    0.0000 C   0  0  0  0  0  0  0  0  0  0  0  0
   12.6771  -11.0137    0.0000 C   0  0  0  0  0  0  0  0  0  0  0  0
   11.9626  -10.6012    0.0000 C   0  0  0  0  0  0  0  0  0  0  0  0
    6.2468   -9.7762    0.0000 C   0  0  0  0  0  0  0  0  0  0  0  0
   11.2481   -9.3637    0.0000 C   0  0  0  0  0  0  0  0  0  0  0  0
   11.9626  -13.0763    0.0000 O   0  0  0  0  0  0  0  0  0  0  0  0
   13.3915  -12.2512    0.0000 O   0  0  0  0  0  0  0  0  0  0  0  0
   13.3915  -10.6013    0.0000 O   0  0  0  0  0  0  0  0  0  0  0  0
   14.1060  -11.0137    0.0000 C   0  0  0  0  0  0  0  0  0  0  0  0
   12.6771  -13.4888    0.0000 C   0  0  0  0  0  0  0  0  0  0  0  0
   11.9626   -9.7762    0.0000 O   0  0  0  0  0  0  0  0  0  0  0  0
    0.5311   -8.1262    0.0000 O   0  0  0  0  0  0  0  0  0  0  0  0
    2.6745   -8.5387    0.0000 C   0  0  0  0  0  0  0  0  0  0  0  0
    1.9600   -8.1262    0.0000 C   0  0  0  0  0  0  0  0  0  0  0  0
    1.2455   -8.5387    0.0000 C   0  0  0  0  0  0  0  0  0  0  0  0
    1.2455   -9.3637    0.0000 C   0  0  0  0  0  0  0  0  0  0  0  0
    1.9600   -9.7762    0.0000 C   0  0  0  0  0  0  0  0  0  0  0  0
    2.6745   -9.3637    0.0000 C   0  0  0  0  0  0  0  0  0  0  0  0
    3.3890   -9.7762    0.0000 C   0  0  0  0  0  0  0  0  0  0  0  0
    4.1034   -9.3637    0.0000 C   0  0  0  0  0  0  0  0  0  0  0  0
    5.5324   -8.5387    0.0000 O   0  0  0  0  0  0  0  0  0  0  0  0
    4.8179   -9.7762    0.0000 N   0  0  0  0  0  0  0  0  0  0  0  0
    5.5324   -9.3637    0.0000 C   0  0  0  0  0  0  0  0  0  0  0  0
    6.9613   -9.3637    0.0000 C   0  0  0  0  0  0  0  0  0  0  0  0
  1  2  2  0  0  0  0
  2  3  1  0  0  0  0
  3  4  2  0  0  0  0
  4  5  1  0  0  0  0
  5  6  2  0  0  0  0
  6  1  1  0  0  0  0
  4  7  1  0  0  0  0
  7  8  1  0  0  0  0
  8  9  1  0  0  0  0
  9 10  1  0  0  0  0
 10  5  1  0  0  0  0
  8 11  1  6  0  0  0
 11 12  2  0  0  0  0
 12 13  1  0  0  0  0
 13 14  2  0  0  0  0
 14 15  1  0  0  0  0
 15 16  2  0  0  0  0
 16 11  1  0  0  0  0
  1 37  1  0  0  0  0
  9 18  1  1  0  0  0
 13 19  1  0  0  0  0
 14 20  1  0  0  0  0
 15 21  1  0  0  0  0
 21 22  1  0  0  0  0
 19 23  1  0  0  0  0
 18 24  1  0  0  0  0
 28 25  1  0  0  0  0
 17 36  1  0  0  0  0
 26 31  1  0  0  0  0
 27 26  2  0  0  0  0
 28 27  1  0  0  0  0
 29 28  2  0  0  0  0
 30 29  1  0  0  0  0
 31 30  2  0  0  0  0
 32 31  1  0  0  0  0
 33 32  1  0  0  0  0
 35 33  1  0  0  0  0
 36 34  2  0  0  0  0
 36 35  1  0  0  0  0
 37 17  2  0  0  0  0
M  END
>  <cdx:fragmentId>
5

$$$$
