16302.cdx
  Mrv1902 05222410272D          

 11 11  0  0  0  0            999 V2000
    4.9681   -7.6254    0.0000 C   0  0  0  0  0  0  0  0  0  0  0  0
    5.6826   -7.2129    0.0000 C   0  0  0  0  0  0  0  0  0  0  0  0
    9.2549   -7.6254    0.0000 C   0  0  0  0  0  0  0  0  0  0  0  0
    8.5404   -7.2129    0.0000 C   0  0  0  0  0  0  0  0  0  0  0  0
    7.1115   -9.6879    0.0000 C   0  0  0  0  0  0  0  0  0  0  0  0
    6.3970   -8.4504    0.0000 C   0  0  0  0  0  0  0  0  0  0  0  0
    7.1115   -8.8629    0.0000 C   0  0  0  0  0  0  0  0  0  0  0  0
    7.8260   -8.4504    0.0000 C   0  0  0  0  0  0  0  0  0  0  0  0
    7.8260   -7.6254    0.0000 C   0  0  0  0  0  0  0  0  0  0  0  0
    7.1115   -7.2129    0.0000 C   0  0  0  0  0  0  0  0  0  0  0  0
    6.3970   -7.6254    0.0000 C   0  0  0  0  0  0  0  0  0  0  0  0
 11  2  1  0  0  0  0
  2  1  1  0  0  0  0
  9  4  1  0  0  0  0
  4  3  1  0  0  0  0
  7  5  1  0  0  0  0
 11  6  2  0  0  0  0
  7  6  1  0  0  0  0
  8  7  2  0  0  0  0
  9  8  1  0  0  0  0
 10  9  2  0  0  0  0
 11 10  1  0  0  0  0
M  END
>  <cdx:fragmentId>
5

$$$$
