163001.cdx
  Mrv1902 05222410232D          

 25 26  0  0  0  0            999 V2000
    3.9961   -6.4739    0.0000 C   0  0  0  0  0  0  0  0  0  0  0  0
    4.7106   -6.8864    0.0000 C   0  0  0  0  0  0  0  0  0  0  0  0
    5.4251   -6.4739    0.0000 C   0  0  0  0  0  0  0  0  0  0  0  0
    6.1396   -6.8864    0.0000 C   0  0  0  0  0  0  0  0  0  0  0  0
    6.8540   -6.4739    0.0000 C   0  0  0  0  0  0  0  0  0  0  0  0
    7.5685   -6.8864    0.0000 C   0  0  0  0  0  0  0  0  0  0  0  0
    8.2830   -6.4739    0.0000 C   0  0  0  0  0  0  0  0  0  0  0  0
    8.9974   -6.8864    0.0000 C   0  0  0  0  0  0  0  0  0  0  0  0
    9.7119   -6.4739    0.0000 C   0  0  0  0  0  0  0  0  0  0  0  0
    3.9961   -5.6489    0.0000 O   0  0  0  0  0  0  0  0  0  0  0  0
   10.4264   -6.8864    0.0000 C   0  0  0  0  0  0  0  0  0  0  0  0
   11.1408   -6.4739    0.0000 C   0  0  0  0  0  0  0  0  0  0  0  0
   11.8553   -6.8864    0.0000 C   0  0  0  0  0  0  0  0  0  0  0  0
   11.8553   -7.7114    0.0000 C   0  0  0  0  0  0  0  0  0  0  0  0
   11.1408   -8.1239    0.0000 C   0  0  0  0  0  0  0  0  0  0  0  0
   10.4264   -7.7114    0.0000 C   0  0  0  0  0  0  0  0  0  0  0  0
   12.5698   -8.1239    0.0000 O   0  0  0  0  0  0  0  0  0  0  0  0
    3.2817   -6.8864    0.0000 C   0  0  0  0  0  0  0  0  0  0  0  0
    3.2817   -7.7114    0.0000 C   0  0  0  0  0  0  0  0  0  0  0  0
    2.5672   -8.1239    0.0000 C   0  0  0  0  0  0  0  0  0  0  0  0
    1.8527   -7.7114    0.0000 C   0  0  0  0  0  0  0  0  0  0  0  0
    1.8527   -6.8864    0.0000 C   0  0  0  0  0  0  0  0  0  0  0  0
    2.5672   -6.4739    0.0000 C   0  0  0  0  0  0  0  0  0  0  0  0
    2.5672   -5.6489    0.0000 O   0  0  0  0  0  0  0  0  0  0  0  0
    3.9961   -8.1239    0.0000 O   0  0  0  0  0  0  0  0  0  0  0  0
  1  2  1  0  0  0  0
  2  3  1  0  0  0  0
  3  4  1  0  0  0  0
  4  5  1  0  0  0  0
  5  6  1  0  0  0  0
  6  7  1  0  0  0  0
  7  8  1  0  0  0  0
  8  9  1  0  0  0  0
  1 10  2  0  0  0  0
 11 12  1  0  0  0  0
 12 13  2  0  0  0  0
 13 14  1  0  0  0  0
 14 15  2  0  0  0  0
 15 16  1  0  0  0  0
 11 16  2  0  0  0  0
 14 17  1  0  0  0  0
  9 11  1  0  0  0  0
 18 19  1  0  0  0  0
 19 20  2  0  0  0  0
 20 21  1  0  0  0  0
 21 22  2  0  0  0  0
 22 23  1  0  0  0  0
 18 23  2  0  0  0  0
 23 24  1  0  0  0  0
 19 25  1  0  0  0  0
  1 18  1  0  0  0  0
M  END
>  <cdx:fragmentId>
8248

$$$$
