163067.cdx
  Mrv1902 05222410282D          

 38 43  0  0  0  0            999 V2000
    8.6131   -7.1549    0.0000 O   0  0  0  0  0  0  0  0  0  0  0  0
    3.6061   -7.7302    0.0000 C   0  0  0  0  0  0  0  0  0  0  0  0
    4.2792   -7.2532    0.0000 O   0  0  0  0  0  0  0  0  0  0  0  0
    3.5977   -6.2290    0.0000 C   0  0  0  0  0  0  0  0  0  0  0  0
    4.2761   -6.6984    0.0000 O   0  0  0  0  0  0  0  0  0  0  0  0
    8.5307   -7.7809    0.0000 C   0  0  0  0  0  0  0  0  0  0  0  0
    8.5720   -6.2234    0.0000 C   0  0  0  0  0  0  0  0  0  0  0  0
    5.0218   -6.3456    0.0000 C   0  0  0  0  0  0  0  0  0  0  0  0
    4.8038   -5.5499    0.0000 C   0  0  0  0  0  0  0  0  0  0  0  0
    4.0667   -5.1795    0.0000 O   0  0  0  0  0  0  0  0  0  0  0  0
    4.1911   -4.3639    0.0000 C   0  0  0  0  0  0  0  0  0  0  0  0
    5.0052   -4.2303    0.0000 O   0  0  0  0  0  0  0  0  0  0  0  0
    5.3839   -4.9633    0.0000 C   0  0  0  0  0  0  0  0  0  0  0  0
    6.1820   -5.1723    0.0000 C   0  0  0  0  0  0  0  0  0  0  0  0
    6.4000   -5.9680    0.0000 C   0  0  0  0  0  0  0  0  0  0  0  0
    7.2250   -5.9634    0.0000 C   0  0  0  0  0  0  0  0  0  0  0  0
    7.8116   -6.5434    0.0000 C   0  0  1  0  0  0  0  0  0  0  0  0
    7.8162   -7.3684    0.0000 C   0  0  1  0  0  0  0  0  0  0  0  0
    7.2362   -7.9551    0.0000 C   0  0  2  0  0  0  0  0  0  0  0  0
    6.4112   -7.9597    0.0000 C   0  0  0  0  0  0  0  0  0  0  0  0
    6.2021   -8.7578    0.0000 C   0  0  0  0  0  0  0  0  0  0  0  0
    5.4065   -8.9758    0.0000 C   0  0  0  0  0  0  0  0  0  0  0  0
    5.0361   -9.7129    0.0000 O   0  0  0  0  0  0  0  0  0  0  0  0
    4.2205   -9.5885    0.0000 C   0  0  0  0  0  0  0  0  0  0  0  0
    4.0869   -8.7744    0.0000 O   0  0  0  0  0  0  0  0  0  0  0  0
    4.8198   -8.3957    0.0000 C   0  0  0  0  0  0  0  0  0  0  0  0
    5.0289   -7.5976    0.0000 C   0  0  0  0  0  0  0  0  0  0  0  0
    5.8246   -7.3796    0.0000 C   0  0  0  0  0  0  0  0  0  0  0  0
    5.8199   -6.5546    0.0000 C   0  0  0  0  0  0  0  0  0  0  0  0
    7.5562   -8.7155    0.0000 O   0  0  0  0  0  0  0  0  0  0  0  0
    8.8732   -8.1612    0.0000 O   0  0  0  0  0  0  0  0  0  0  0  0
    9.5132   -9.6821    0.0000 C   0  0  0  0  0  0  0  0  0  0  0  0
    9.8332  -10.4425    0.0000 C   0  0  0  0  0  0  0  0  0  0  0  0
    9.3347  -11.0998    0.0000 C   0  0  0  0  0  0  0  0  0  0  0  0
    8.5161  -10.9967    0.0000 C   0  0  0  0  0  0  0  0  0  0  0  0
    8.1961  -10.2363    0.0000 C   0  0  0  0  0  0  0  0  0  0  0  0
    8.6947   -9.5790    0.0000 C   0  0  0  0  0  0  0  0  0  0  0  0
    8.3747   -8.8186    0.0000 C   0  0  0  0  0  0  0  0  0  0  0  0
 19 30  1  1  0  0  0
 18  1  1  6  0  0  0
 27  3  1  0  0  0  0
  3  2  1  0  0  0  0
  8  5  1  0  0  0  0
  5  4  1  0  0  0  0
 18  6  1  1  0  0  0
 17  7  1  6  0  0  0
 13  9  2  0  0  0  0
 26 22  2  0  0  0  0
 28 20  1  0  0  0  0
 29 15  1  0  0  0  0
 29  8  2  0  0  0  0
  9  8  1  0  0  0  0
 10  9  1  0  0  0  0
 11 10  1  0  0  0  0
 12 11  1  0  0  0  0
 13 12  1  0  0  0  0
 14 13  1  0  0  0  0
 15 14  2  0  0  0  0
 16 15  1  0  0  0  0
 17 16  1  0  0  0  0
 18 17  1  0  0  0  0
 19 18  1  0  0  0  0
 20 19  1  0  0  0  0
 21 20  2  0  0  0  0
 22 21  1  0  0  0  0
 23 22  1  0  0  0  0
 24 23  1  0  0  0  0
 25 24  1  0  0  0  0
 26 25  1  0  0  0  0
 27 26  1  0  0  0  0
 28 27  2  0  0  0  0
 29 28  1  0  0  0  0
 38 30  1  0  0  0  0
 38 31  2  0  0  0  0
 37 32  2  0  0  0  0
 33 32  1  0  0  0  0
 34 33  2  0  0  0  0
 35 34  1  0  0  0  0
 36 35  2  0  0  0  0
 37 36  1  0  0  0  0
 38 37  1  0  0  0  0
M  END
>  <cdx:fragmentId>
26701

$$$$
