16315.cdx
  Mrv1902 05222410282D          

  9  8  0  0  0  0            999 V2000
    4.1436   -2.9846    0.0000 C   0  0  0  0  0  0  0  0  0  0  0  0
    4.8581   -2.5721    0.0000 C   0  0  0  0  0  0  0  0  0  0  0  0
    5.5726   -2.9846    0.0000 C   0  0  0  0  0  0  0  0  0  0  0  0
    7.7160   -2.5721    0.0000 S   0  0  0  0  0  0  0  0  0  0  0  0
    7.0015   -2.9846    0.0000 S   0  0  0  0  0  0  0  0  0  0  0  0
    6.2870   -2.5721    0.0000 S   0  0  0  0  0  0  0  0  0  0  0  0
    8.4304   -2.9846    0.0000 C   0  0  0  0  0  0  0  0  0  0  0  0
    9.1449   -2.5721    0.0000 C   0  0  0  0  0  0  0  0  0  0  0  0
    9.8594   -2.9846    0.0000 C   0  0  0  0  0  0  0  0  0  0  0  0
  1  2  2  0  0  0  0
  2  3  1  0  0  0  0
  4  5  1  0  0  0  0
  5  6  1  0  0  0  0
  7  8  1  0  0  0  0
  8  9  2  0  0  0  0
  4  7  1  0  0  0  0
  3  6  1  0  0  0  0
M  END
>  <cdx:fragmentId>
17

$$$$
