16319.cdx
  Mrv1902 05222410182D          

 10  9  0  0  0  0            999 V2000
    7.2271   -2.3433    0.0000 C   0  0  0  0  0  0  0  0  0  0  0  0
    7.2271   -3.1683    0.0000 C   0  0  0  0  0  0  0  0  0  0  0  0
    6.5126   -3.5808    0.0000 C   0  0  0  0  0  0  0  0  0  0  0  0
    5.7981   -3.1683    0.0000 C   0  0  0  0  0  0  0  0  0  0  0  0
    5.0836   -3.5808    0.0000 C   0  0  0  0  0  0  0  0  0  0  0  0
    4.3692   -3.1683    0.0000 C   0  0  0  0  0  0  0  0  0  0  0  0
    3.6547   -3.5808    0.0000 C   0  0  0  0  0  0  0  0  0  0  0  0
    2.9402   -3.1683    0.0000 C   0  0  0  0  0  0  0  0  0  0  0  0
    4.3692   -2.3433    0.0000 C   0  0  0  0  0  0  0  0  0  0  0  0
    7.9415   -3.5808    0.0000 C   0  0  0  0  0  0  0  0  0  0  0  0
  1  2  1  0  0  0  0
  2  3  1  0  0  0  0
  3  4  1  0  0  0  0
  4  5  1  0  0  0  0
  5  6  1  0  0  0  0
  6  7  1  0  0  0  0
  7  8  1  0  0  0  0
  6  9  1  0  0  0  0
  2 10  1  0  0  0  0
M  END
>  <cdx:groupId>
31

>  <cdx:fragmentId>
5

$$$$
