16318.cdx
  Mrv1902 05222410182D          

 11 12  0  0  0  0            999 V2000
    7.0392   -6.1872    0.0000 C   0  0  0  0  0  0  0  0  0  0  0  0
    6.5706   -5.5082    0.0000 C   0  0  0  0  0  0  0  0  0  0  0  0
    5.7801   -5.7440    0.0000 C   0  0  0  0  0  0  0  0  0  0  0  0
    5.7601   -6.5688    0.0000 C   0  0  0  0  0  0  0  0  0  0  0  0
    6.5383   -6.8427    0.0000 C   0  0  0  0  0  0  0  0  0  0  0  0
    6.9244   -4.7629    0.0000 C   0  0  0  0  0  0  0  0  0  0  0  0
    5.0558   -6.1391    0.0000 C   0  0  0  0  0  0  0  0  0  0  0  0
    6.8152   -7.6198    0.0000 O   0  0  0  0  0  0  0  0  0  0  0  0
    5.4063   -7.3141    0.0000 C   0  0  0  0  0  0  0  0  0  0  0  0
    5.8749   -7.9931    0.0000 C   0  0  0  0  0  0  0  0  0  0  0  0
    4.5840   -7.3804    0.0000 C   0  0  0  0  0  0  0  0  0  0  0  0
  1  2  2  0  0  0  0
  2  3  1  0  0  0  0
  3  4  1  0  0  0  0
  4  5  1  0  0  0  0
  5  1  1  0  0  0  0
  2  6  1  0  0  0  0
  3  7  1  0  0  0  0
  7  4  1  0  0  0  0
  5  8  1  0  0  0  0
  4  9  1  0  0  0  0
  9 10  1  0  0  0  0
  9 11  1  0  0  0  0
M  END
>  <cdx:fragmentId>
5

$$$$
