threoguaiacylglycerol-8-vanillic acid ether.cdx
  Mrv1902 05222410272D          

 26 27  0  0  0  0            999 V2000
    2.6020   -7.2600    0.0000 C   0  0  0  0  0  0  0  0  0  0  0  0
    2.6020   -8.0850    0.0000 C   0  0  0  0  0  0  0  0  0  0  0  0
    3.3165   -8.4975    0.0000 C   0  0  0  0  0  0  0  0  0  0  0  0
    4.0310   -8.0850    0.0000 C   0  0  0  0  0  0  0  0  0  0  0  0
    4.0310   -7.2600    0.0000 C   0  0  0  0  0  0  0  0  0  0  0  0
    3.3165   -6.8475    0.0000 C   0  0  0  0  0  0  0  0  0  0  0  0
    4.7454   -8.4975    0.0000 C   0  0  1  0  0  0  0  0  0  0  0  0
    5.4599   -8.0850    0.0000 C   0  0  1  0  0  0  0  0  0  0  0  0
    6.1744   -8.4975    0.0000 O   0  0  0  0  0  0  0  0  0  0  0  0
    6.8889   -8.0850    0.0000 C   0  0  0  0  0  0  0  0  0  0  0  0
    7.6033   -8.4975    0.0000 C   0  0  0  0  0  0  0  0  0  0  0  0
    8.3178   -8.0850    0.0000 C   0  0  0  0  0  0  0  0  0  0  0  0
    8.3178   -7.2600    0.0000 C   0  0  0  0  0  0  0  0  0  0  0  0
    7.6033   -6.8475    0.0000 C   0  0  0  0  0  0  0  0  0  0  0  0
    6.8889   -7.2600    0.0000 C   0  0  0  0  0  0  0  0  0  0  0  0
    1.8876   -6.8475    0.0000 O   0  0  0  0  0  0  0  0  0  0  0  0
    3.3165   -6.0225    0.0000 O   0  0  0  0  0  0  0  0  0  0  0  0
    3.3165   -5.1975    0.0000 C   0  0  0  0  0  0  0  0  0  0  0  0
    5.4599   -7.2600    0.0000 C   0  0  0  0  0  0  0  0  0  0  0  0
    6.1744   -6.8475    0.0000 O   0  0  0  0  0  0  0  0  0  0  0  0
    7.6033   -9.3225    0.0000 O   0  0  0  0  0  0  0  0  0  0  0  0
    9.0323   -6.8475    0.0000 C   0  0  0  0  0  0  0  0  0  0  0  0
    4.7454   -9.3225    0.0000 O   0  0  0  0  0  0  0  0  0  0  0  0
    7.6033  -10.1475    0.0000 C   0  0  0  0  0  0  0  0  0  0  0  0
    9.0323   -6.0225    0.0000 O   0  0  0  0  0  0  0  0  0  0  0  0
    9.7467   -7.2600    0.0000 O   0  0  0  0  0  0  0  0  0  0  0  0
  1  2  2  0  0  0  0
  2  3  1  0  0  0  0
  3  4  2  0  0  0  0
  4  5  1  0  0  0  0
  5  6  2  0  0  0  0
  6  1  1  0  0  0  0
  4  7  1  0  0  0  0
  7  8  1  0  0  0  0
  8  9  1  0  0  0  0
  9 10  1  0  0  0  0
 10 11  2  0  0  0  0
 11 12  1  0  0  0  0
 12 13  2  0  0  0  0
 13 14  1  0  0  0  0
 14 15  2  0  0  0  0
 15 10  1  0  0  0  0
  1 16  1  0  0  0  0
  6 17  1  0  0  0  0
  8 19  1  6  0  0  0
 19 20  1  0  0  0  0
 11 21  1  0  0  0  0
 13 22  1  0  0  0  0
  7 23  1  1  0  0  0
 17 18  1  0  0  0  0
 21 24  1  0  0  0  0
 22 25  2  0  0  0  0
 22 26  1  0  0  0  0
M  STY  3   1 SUP   2 SUP   3 SUP
M  SAL   1  2  17  18
M  SBL   1  1  18
M  SMT   1 OCH3
M  SAP   1  1  17   6  1
M  SAL   2  2  21  24
M  SBL   2  1  21
M  SMT   2 OCH3
M  SAP   2  1  21  11  1
M  SAL   3  3  22  25  26
M  SBL   3  1  22
M  SMT   3 COOH
M  SAP   3  1  22  13  1
M  END
>  <cdx:fragmentId>
5

$$$$
