1632.cdx
  Mrv1902 05222410212D          

 26 27  0  0  0  0            999 V2000
    3.0627   -6.7788    0.0000 C   0  0  0  0  0  0  0  0  0  0  0  0
    3.0627   -7.6037    0.0000 C   0  0  0  0  0  0  0  0  0  0  0  0
    3.7771   -8.0162    0.0000 C   0  0  0  0  0  0  0  0  0  0  0  0
    4.4916   -7.6037    0.0000 C   0  0  0  0  0  0  0  0  0  0  0  0
    4.4916   -6.7788    0.0000 C   0  0  0  0  0  0  0  0  0  0  0  0
    3.7771   -6.3662    0.0000 C   0  0  0  0  0  0  0  0  0  0  0  0
    2.3482   -6.3662    0.0000 O   0  0  0  0  0  0  0  0  0  0  0  0
    2.3482   -8.0162    0.0000 O   0  0  0  0  0  0  0  0  0  0  0  0
    5.2061   -6.3662    0.0000 C   0  0  0  0  0  0  0  0  0  0  0  0
    5.9205   -6.7788    0.0000 C   0  0  0  0  0  0  0  0  0  0  0  0
    6.6350   -6.3662    0.0000 C   0  0  1  0  0  0  0  0  0  0  0  0
    7.3495   -6.7788    0.0000 C   0  0  0  0  0  0  0  0  0  0  0  0
    8.0640   -6.3662    0.0000 C   0  0  0  0  0  0  0  0  0  0  0  0
    8.7784   -6.7788    0.0000 C   0  0  0  0  0  0  0  0  0  0  0  0
    9.4929   -6.3662    0.0000 C   0  0  0  0  0  0  0  0  0  0  0  0
   10.2074   -6.7788    0.0000 C   0  0  0  0  0  0  0  0  0  0  0  0
   10.2074   -7.6037    0.0000 C   0  0  0  0  0  0  0  0  0  0  0  0
   10.9218   -8.0162    0.0000 C   0  0  0  0  0  0  0  0  0  0  0  0
   11.6363   -7.6037    0.0000 C   0  0  0  0  0  0  0  0  0  0  0  0
   11.6363   -6.7788    0.0000 C   0  0  0  0  0  0  0  0  0  0  0  0
   10.9218   -6.3662    0.0000 C   0  0  0  0  0  0  0  0  0  0  0  0
   12.3508   -8.0162    0.0000 O   0  0  0  0  0  0  0  0  0  0  0  0
    6.6350   -5.5413    0.0000 O   0  0  0  0  0  0  0  0  0  0  0  0
    7.3495   -5.1287    0.0000 C   0  0  0  0  0  0  0  0  0  0  0  0
    8.0640   -5.5413    0.0000 C   0  0  0  0  0  0  0  0  0  0  0  0
    7.3495   -4.3037    0.0000 O   0  0  0  0  0  0  0  0  0  0  0  0
  1  2  2  0  0  0  0
  2  3  1  0  0  0  0
  3  4  2  0  0  0  0
  4  5  1  0  0  0  0
  5  6  2  0  0  0  0
  6  1  1  0  0  0  0
  1  7  1  0  0  0  0
  2  8  1  0  0  0  0
  5  9  1  0  0  0  0
  9 10  1  0  0  0  0
 10 11  1  0  0  0  0
 11 12  1  0  0  0  0
 12 13  1  0  0  0  0
 13 14  1  0  0  0  0
 14 15  1  0  0  0  0
 15 16  1  0  0  0  0
 16 17  2  0  0  0  0
 17 18  1  0  0  0  0
 18 19  2  0  0  0  0
 19 20  1  0  0  0  0
 20 21  2  0  0  0  0
 21 16  1  0  0  0  0
 19 22  1  0  0  0  0
 11 23  1  6  0  0  0
 23 24  1  0  0  0  0
 24 25  1  0  0  0  0
 24 26  2  0  0  0  0
M  END
>  <cdx:fragmentId>
93

$$$$
