16322.cdx
  Mrv1902 05222410192D          

 10 11  0  0  0  0            999 V2000
    7.7467   -7.1101    0.0000 C   0  0  0  0  0  0  0  0  0  0  0  0
    8.2238   -6.4371    0.0000 C   0  0  0  0  0  0  0  0  0  0  0  0
    7.7310   -5.7754    0.0000 C   0  0  0  0  0  0  0  0  0  0  0  0
    6.9495   -6.0395    0.0000 C   0  0  0  0  0  0  0  0  0  0  0  0
    6.9592   -6.8645    0.0000 C   0  0  0  0  0  0  0  0  0  0  0  0
    6.2399   -6.4604    0.0000 C   0  0  0  0  0  0  0  0  0  0  0  0
    7.9445   -4.9785    0.0000 C   0  0  0  0  0  0  0  0  0  0  0  0
    6.6325   -7.6220    0.0000 C   0  0  0  0  0  0  0  0  0  0  0  0
    7.1252   -8.2837    0.0000 C   0  0  0  0  0  0  0  0  0  0  0  0
    5.8131   -7.7179    0.0000 C   0  0  0  0  0  0  0  0  0  0  0  0
  1  2  2  0  0  0  0
  2  3  1  0  0  0  0
  3  4  1  0  0  0  0
  4  5  1  0  0  0  0
  5  1  1  0  0  0  0
  4  6  1  0  0  0  0
  6  5  1  0  0  0  0
  3  7  2  0  0  0  0
  5  8  1  0  0  0  0
  8  9  1  0  0  0  0
  8 10  1  0  0  0  0
M  END
>  <cdx:fragmentId>
23

$$$$
