16325.cdx
  Mrv1902 05222410182D          

 38 40  0  0  0  0            999 V2000
    4.4109   -8.2092    0.0000 C   0  0  0  0  0  0  0  0  0  0  0  0
    5.0923   -7.7441    0.0000 O   0  0  0  0  0  0  0  0  0  0  0  0
    4.5902   -9.8942    0.0000 C   0  0  0  0  0  0  0  0  0  0  0  0
    4.8133   -9.0999    0.0000 O   0  0  0  0  0  0  0  0  0  0  0  0
    6.5422  -10.8709    0.0000 C   0  0  0  0  0  0  0  0  0  0  0  0
    5.9659  -10.2806    0.0000 O   0  0  0  0  0  0  0  0  0  0  0  0
    4.4289   -6.7081    0.0000 C   0  0  0  0  0  0  0  0  0  0  0  0
    5.0990   -7.1894    0.0000 O   0  0  0  0  0  0  0  0  0  0  0  0
    9.4236   -7.7082    0.0000 O   0  0  0  0  0  0  0  0  0  0  0  0
    9.4026   -6.7903    0.0000 C   0  0  0  0  0  0  0  0  0  0  0  0
    5.8508   -6.8498    0.0000 C   0  0  0  0  0  0  0  0  0  0  0  0
    5.6469   -6.0504    0.0000 C   0  0  0  0  0  0  0  0  0  0  0  0
    6.2372   -5.4741    0.0000 C   0  0  0  0  0  0  0  0  0  0  0  0
    7.0315   -5.6972    0.0000 C   0  0  0  0  0  0  0  0  0  0  0  0
    7.2354   -6.4966    0.0000 C   0  0  0  0  0  0  0  0  0  0  0  0
    8.0604   -6.5065    0.0000 C   0  0  0  0  0  0  0  0  0  0  0  0
    8.6367   -7.0968    0.0000 C   0  0  1  0  0  0  0  0  0  0  0  0
    8.6267   -7.9218    0.0000 C   0  0  1  0  0  0  0  0  0  0  0  0
    8.0364   -8.4981    0.0000 C   0  0  2  0  0  0  0  0  0  0  0  0
    7.2115   -8.4882    0.0000 C   0  0  0  0  0  0  0  0  0  0  0  0
    6.9884   -9.2824    0.0000 C   0  0  0  0  0  0  0  0  0  0  0  0
    6.1890   -9.4863    0.0000 C   0  0  0  0  0  0  0  0  0  0  0  0
    5.6127   -8.8960    0.0000 C   0  0  0  0  0  0  0  0  0  0  0  0
    5.8358   -8.1017    0.0000 C   0  0  0  0  0  0  0  0  0  0  0  0
    6.6352   -7.8978    0.0000 C   0  0  0  0  0  0  0  0  0  0  0  0
    6.6451   -7.0729    0.0000 C   0  0  0  0  0  0  0  0  0  0  0  0
    8.9560  -10.7959    0.0000 C   0  0  0  0  0  0  0  0  0  0  0  0
    8.3429   -9.2640    0.0000 O   0  0  0  0  0  0  0  0  0  0  0  0
    9.6696   -8.7331    0.0000 O   0  0  0  0  0  0  0  0  0  0  0  0
   10.6951  -10.9795    0.0000 C   0  0  0  0  0  0  0  0  0  0  0  0
   10.2826  -10.2650    0.0000 C   0  0  0  0  0  0  0  0  0  0  0  0
    9.4660  -10.1475    0.0000 C   0  0  0  0  0  0  0  0  0  0  0  0
    9.1595   -9.3815    0.0000 C   0  0  0  0  0  0  0  0  0  0  0  0
    6.0333   -4.6747    0.0000 O   0  0  0  0  0  0  0  0  0  0  0  0
    4.8526   -5.8273    0.0000 O   0  0  0  0  0  0  0  0  0  0  0  0
    4.4401   -5.1128    0.0000 C   0  0  0  0  0  0  0  0  0  0  0  0
    6.6236   -4.0984    0.0000 C   0  0  0  0  0  0  0  0  0  0  0  0
    9.3412   -8.3343    0.0000 C   0  0  0  0  0  0  0  0  0  0  0  0
 19 28  1  1  0  0  0
 24  2  1  0  0  0  0
  2  1  1  0  0  0  0
 23  4  1  0  0  0  0
  4  3  1  0  0  0  0
 22  6  1  0  0  0  0
  6  5  1  0  0  0  0
 11  8  1  0  0  0  0
  8  7  1  0  0  0  0
 18  9  1  6  0  0  0
 17 10  1  6  0  0  0
 25 20  1  0  0  0  0
 13 12  2  0  0  0  0
 26 15  1  0  0  0  0
 26 11  2  0  0  0  0
 12 11  1  0  0  0  0
 14 13  1  0  0  0  0
 15 14  2  0  0  0  0
 16 15  1  0  0  0  0
 17 16  1  0  0  0  0
 18 17  1  0  0  0  0
 19 18  1  0  0  0  0
 20 19  1  0  0  0  0
 21 20  2  0  0  0  0
 22 21  1  0  0  0  0
 23 22  2  0  0  0  0
 24 23  1  0  0  0  0
 25 24  2  0  0  0  0
 26 25  1  0  0  0  0
 32 27  1  0  0  0  0
 33 28  1  0  0  0  0
 33 29  2  0  0  0  0
 31 30  1  0  0  0  0
 32 31  2  0  0  0  0
 33 32  1  0  0  0  0
 13 34  1  0  0  0  0
 12 35  1  0  0  0  0
 35 36  1  0  0  0  0
 34 37  1  0  0  0  0
 18 38  1  1  0  0  0
M  END
>  <cdx:fragmentId>
218294

$$$$
