16321.cdx
  Mrv1902 05222410202D          

 15 17  0  0  0  0            999 V2000
    4.2080   -8.3050    0.0000 C   0  0  0  0  0  0  0  0  0  0  0  0
    4.2080   -9.1300    0.0000 C   0  0  0  0  0  0  0  0  0  0  0  0
    4.9225   -9.5425    0.0000 C   0  0  0  0  0  0  0  0  0  0  0  0
    5.6370   -9.1300    0.0000 C   0  0  0  0  0  0  0  0  0  0  0  0
    5.6370   -8.3050    0.0000 C   0  0  0  0  0  0  0  0  0  0  0  0
    4.9225   -7.8925    0.0000 C   0  0  0  0  0  0  0  0  0  0  0  0
    6.4216   -9.3849    0.0000 C   0  0  0  0  0  0  0  0  0  0  0  0
    6.9065   -8.7175    0.0000 C   0  0  0  0  0  0  0  0  0  0  0  0
    6.4216   -8.0501    0.0000 C   0  0  0  0  0  0  0  0  0  0  0  0
    4.5100   -7.1780    0.0000 C   0  0  0  0  0  0  0  0  0  0  0  0
    5.3350   -7.1780    0.0000 C   0  0  0  0  0  0  0  0  0  0  0  0
    3.4936   -7.8925    0.0000 C   0  0  0  0  0  0  0  0  0  0  0  0
    6.6765  -10.1696    0.0000 C   0  0  0  0  0  0  0  0  0  0  0  0
    6.2975   -8.3325    0.0000 C   0  0  0  0  0  0  0  0  0  0  0  0
    6.6000   -8.7175    0.0000 C   0  0  0  0  0  0  0  0  0  0  0  0
  1  2  2  0  0  0  0
  2  3  1  0  0  0  0
  3  4  1  0  0  0  0
  4  5  1  0  0  0  0
  5  6  1  0  0  0  0
  6  1  1  0  0  0  0
  4  7  1  0  0  0  0
  7  8  1  0  0  0  0
  8  9  1  0  0  0  0
  9  5  1  0  0  0  0
  6 10  1  0  0  0  0
  6 11  1  0  0  0  0
  1 12  1  0  0  0  0
  7 13  1  0  0  0  0
  5 14  1  0  0  0  0
  7 15  1  0  0  0  0
 15 14  1  0  0  0  0
M  END
>  <cdx:fragmentId>
77

$$$$
