163338.cdx
  Mrv1902 05222410282D          

 39 43  0  0  0  0            999 V2000
    9.6370   -6.9710    0.0000 O   0  0  0  0  0  0  0  0  0  0  0  0
    4.6280   -7.5232    0.0000 C   0  0  0  0  0  0  0  0  0  0  0  0
    5.3037   -7.0499    0.0000 O   0  0  0  0  0  0  0  0  0  0  0  0
    4.8278   -9.2060    0.0000 C   0  0  0  0  0  0  0  0  0  0  0  0
    5.0412   -8.4090    0.0000 O   0  0  0  0  0  0  0  0  0  0  0  0
    6.7916  -10.1589    0.0000 C   0  0  0  0  0  0  0  0  0  0  0  0
    6.2081   -9.5756    0.0000 O   0  0  0  0  0  0  0  0  0  0  0  0
    4.6278   -6.0221    0.0000 C   0  0  0  0  0  0  0  0  0  0  0  0
    5.3037   -6.4952    0.0000 O   0  0  0  0  0  0  0  0  0  0  0  0
    9.5545   -7.5971    0.0000 C   0  0  0  0  0  0  0  0  0  0  0  0
    9.6021   -6.0437    0.0000 C   0  0  0  0  0  0  0  0  0  0  0  0
    6.0513   -6.1464    0.0000 C   0  0  0  0  0  0  0  0  0  0  0  0
    5.8377   -5.3496    0.0000 C   0  0  0  0  0  0  0  0  0  0  0  0
    5.1025   -4.9751    0.0000 O   0  0  0  0  0  0  0  0  0  0  0  0
    5.2315   -4.1603    0.0000 C   0  0  0  0  0  0  0  0  0  0  0  0
    6.0463   -4.0311    0.0000 O   0  0  0  0  0  0  0  0  0  0  0  0
    6.4210   -4.7661    0.0000 C   0  0  0  0  0  0  0  0  0  0  0  0
    7.2179   -4.9795    0.0000 C   0  0  0  0  0  0  0  0  0  0  0  0
    7.4315   -5.7764    0.0000 C   0  0  0  0  0  0  0  0  0  0  0  0
    8.2565   -5.7763    0.0000 C   0  0  0  0  0  0  0  0  0  0  0  0
    8.8400   -6.3596    0.0000 C   0  0  1  0  0  0  0  0  0  0  0  0
    8.8401   -7.1846    0.0000 C   0  0  2  0  0  0  0  0  0  0  0  0
    8.2568   -7.7680    0.0000 C   0  0  1  0  0  0  0  0  0  0  0  0
    7.4318   -7.7681    0.0000 C   0  0  0  0  0  0  0  0  0  0  0  0
    7.2184   -8.5650    0.0000 C   0  0  0  0  0  0  0  0  0  0  0  0
    6.4215   -8.7787    0.0000 C   0  0  0  0  0  0  0  0  0  0  0  0
    5.8381   -8.1954    0.0000 C   0  0  0  0  0  0  0  0  0  0  0  0
    6.0515   -7.3985    0.0000 C   0  0  0  0  0  0  0  0  0  0  0  0
    6.8484   -7.1848    0.0000 C   0  0  0  0  0  0  0  0  0  0  0  0
    6.8482   -6.3598    0.0000 C   0  0  0  0  0  0  0  0  0  0  0  0
    8.5726   -8.5302    0.0000 O   0  0  0  0  0  0  0  0  0  0  0  0
    9.8927   -7.9831    0.0000 O   0  0  0  0  0  0  0  0  0  0  0  0
   10.5244   -9.5075    0.0000 C   0  0  0  0  0  0  0  0  0  0  0  0
   10.8402  -10.2696    0.0000 C   0  0  0  0  0  0  0  0  0  0  0  0
   10.3380  -10.9242    0.0000 C   0  0  0  0  0  0  0  0  0  0  0  0
    9.5201  -10.8166    0.0000 C   0  0  0  0  0  0  0  0  0  0  0  0
    9.2043  -10.0545    0.0000 C   0  0  0  0  0  0  0  0  0  0  0  0
    9.7064   -9.3999    0.0000 C   0  0  0  0  0  0  0  0  0  0  0  0
    9.3906   -8.6377    0.0000 C   0  0  0  0  0  0  0  0  0  0  0  0
 23 31  1  6  0  0  0
 22  1  1  1  0  0  0
 28  3  1  0  0  0  0
  3  2  1  0  0  0  0
 27  5  1  0  0  0  0
  5  4  1  0  0  0  0
 26  7  1  0  0  0  0
  7  6  1  0  0  0  0
 12  9  1  0  0  0  0
  9  8  1  0  0  0  0
 22 10  1  6  0  0  0
 21 11  1  6  0  0  0
 29 24  1  0  0  0  0
 17 13  2  0  0  0  0
 30 19  1  0  0  0  0
 30 12  2  0  0  0  0
 13 12  1  0  0  0  0
 14 13  1  0  0  0  0
 15 14  1  0  0  0  0
 16 15  1  0  0  0  0
 17 16  1  0  0  0  0
 18 17  1  0  0  0  0
 19 18  2  0  0  0  0
 20 19  1  0  0  0  0
 21 20  1  0  0  0  0
 22 21  1  0  0  0  0
 23 22  1  0  0  0  0
 24 23  1  0  0  0  0
 25 24  2  0  0  0  0
 26 25  1  0  0  0  0
 27 26  2  0  0  0  0
 28 27  1  0  0  0  0
 29 28  2  0  0  0  0
 30 29  1  0  0  0  0
 39 31  1  0  0  0  0
 39 32  2  0  0  0  0
 38 33  2  0  0  0  0
 34 33  1  0  0  0  0
 35 34  2  0  0  0  0
 36 35  1  0  0  0  0
 37 36  2  0  0  0  0
 38 37  1  0  0  0  0
 39 38  1  0  0  0  0
M  END
>  <cdx:fragmentId>
8348

$$$$
