163744.cdx
  Mrv1902 05222410212D          

 61 67  0  0  0  0            999 V2000
    7.6345   -8.1056    0.0000 C   0  0  0  0  0  0  0  0  0  0  0  0
    7.6345   -8.9306    0.0000 C   0  0  1  0  0  0  0  0  0  0  0  0
    8.3490   -9.3431    0.0000 C   0  0  2  0  0  0  0  0  0  0  0  0
    9.0635   -8.9306    0.0000 C   0  0  1  0  0  0  0  0  0  0  0  0
    9.0635   -8.1056    0.0000 C   0  0  2  0  0  0  0  0  0  0  0  0
    8.3490   -7.6931    0.0000 C   0  0  0  0  0  0  0  0  0  0  0  0
    9.7779   -9.3431    0.0000 C   0  0  0  0  0  0  0  0  0  0  0  0
   10.4924   -8.9306    0.0000 C   0  0  0  0  0  0  0  0  0  0  0  0
   10.4924   -8.1056    0.0000 C   0  0  2  0  0  0  0  0  0  0  0  0
    9.7779   -7.6931    0.0000 C   0  0  2  0  0  0  0  0  0  0  0  0
   11.2069   -7.6931    0.0000 C   0  0  1  0  0  0  0  0  0  0  0  0
   11.2069   -6.8681    0.0000 C   0  0  0  0  0  0  0  0  0  0  0  0
   10.4924   -6.4556    0.0000 C   0  0  0  0  0  0  0  0  0  0  0  0
    9.7779   -6.8681    0.0000 C   0  0  0  0  0  0  0  0  0  0  0  0
   11.9214   -8.1056    0.0000 C   0  0  0  0  0  0  0  0  0  0  0  0
   12.6358   -7.6931    0.0000 C   0  0  0  0  0  0  0  0  0  0  0  0
   12.6358   -6.8681    0.0000 C   0  0  2  0  0  0  0  0  0  0  0  0
   11.9214   -6.4556    0.0000 C   0  0  1  0  0  0  0  0  0  0  0  0
   13.3503   -6.4556    0.0000 C   0  0  0  0  0  0  0  0  0  0  0  0
   13.3503   -5.6306    0.0000 C   0  0  0  0  0  0  0  0  0  0  0  0
   12.6358   -5.2181    0.0000 C   0  0  1  0  0  0  0  0  0  0  0  0
   11.9214   -5.6306    0.0000 C   0  0  0  0  0  0  0  0  0  0  0  0
    7.9365  -10.0576    0.0000 C   0  0  0  0  0  0  0  0  0  0  0  0
    8.7615  -10.0576    0.0000 C   0  0  0  0  0  0  0  0  0  0  0  0
   13.0483   -4.5037    0.0000 C   0  0  0  0  0  0  0  0  0  0  0  0
   13.8733   -4.5037    0.0000 O   0  0  0  0  0  0  0  0  0  0  0  0
   12.6358   -3.7892    0.0000 O   0  0  0  0  0  0  0  0  0  0  0  0
    6.9201   -9.3431    0.0000 O   0  0  0  0  0  0  0  0  0  0  0  0
    9.0635   -7.2806    0.0000 C   0  0  0  0  0  0  0  0  0  0  0  0
   10.4924   -7.2806    0.0000 C   0  0  0  0  0  0  0  0  0  0  0  0
   11.2069   -6.0431    0.0000 H   0  0  0  0  0  0  0  0  0  0  0  0
   13.3503   -7.2806    0.0000 C   0  0  0  0  0  0  0  0  0  0  0  0
   12.2233   -4.5037    0.0000 C   0  0  0  0  0  0  0  0  0  0  0  0
   11.2069   -8.5181    0.0000 C   0  0  0  0  0  0  0  0  0  0  0  0
    9.7779   -8.5181    0.0000 H   0  0  0  0  0  0  0  0  0  0  0  0
    9.0635   -9.7556    0.0000 H   0  0  0  0  0  0  0  0  0  0  0  0
    9.0635   -6.4556    0.0000 O   0  0  0  0  0  0  0  0  0  0  0  0
    6.2056   -8.9306    0.0000 C   0  0  2  0  0  0  0  0  0  0  0  0
    6.2056   -8.1056    0.0000 O   0  0  0  0  0  0  0  0  0  0  0  0
    5.4911   -7.6931    0.0000 C   0  0  1  0  0  0  0  0  0  0  0  0
    4.7766   -8.1056    0.0000 C   0  0  2  0  0  0  0  0  0  0  0  0
    4.7766   -8.9306    0.0000 C   0  0  1  0  0  0  0  0  0  0  0  0
    5.4911   -9.3431    0.0000 C   0  0  1  0  0  0  0  0  0  0  0  0
    5.4911   -6.8681    0.0000 C   0  0  0  0  0  0  0  0  0  0  0  0
    4.0622   -9.3431    0.0000 O   0  0  0  0  0  0  0  0  0  0  0  0
    4.0622   -7.6931    0.0000 O   0  0  0  0  0  0  0  0  0  0  0  0
    6.2056   -6.4556    0.0000 O   0  0  0  0  0  0  0  0  0  0  0  0
    4.7766   -6.4556    0.0000 O   0  0  0  0  0  0  0  0  0  0  0  0
    3.2483   -8.8899    0.0000 C   0  0  2  0  0  0  0  0  0  0  0  0
    3.2479   -8.0649    0.0000 O   0  0  0  0  0  0  0  0  0  0  0  0
    2.5332   -7.6528    0.0000 C   0  0  1  0  0  0  0  0  0  0  0  0
    1.8189   -8.0658    0.0000 C   0  0  2  0  0  0  0  0  0  0  0  0
    1.8194   -8.8908    0.0000 C   0  0  1  0  0  0  0  0  0  0  0  0
    2.5341   -9.3028    0.0000 C   0  0  1  0  0  0  0  0  0  0  0  0
    2.5327   -6.8278    0.0000 C   0  0  0  0  0  0  0  0  0  0  0  0
    1.1052   -9.3037    0.0000 O   0  0  0  0  0  0  0  0  0  0  0  0
    1.1042   -7.6537    0.0000 O   0  0  0  0  0  0  0  0  0  0  0  0
    2.5346  -10.1278    0.0000 O   0  0  0  0  0  0  0  0  0  0  0  0
    1.8180   -6.4158    0.0000 O   0  0  0  0  0  0  0  0  0  0  0  0
    3.2469   -6.4149    0.0000 O   0  0  0  0  0  0  0  0  0  0  0  0
    5.4911  -10.1681    0.0000 O   0  0  0  0  0  0  0  0  0  0  0  0
  1  2  1  0  0  0  0
  2  3  1  0  0  0  0
  3  4  1  0  0  0  0
  4  5  1  0  0  0  0
  5  6  1  0  0  0  0
  6  1  1  0  0  0  0
  4  7  1  0  0  0  0
  7  8  1  0  0  0  0
  8  9  1  0  0  0  0
  9 10  1  0  0  0  0
 10  5  1  0  0  0  0
  9 11  1  0  0  0  0
 11 12  1  0  0  0  0
 12 13  2  0  0  0  0
 13 14  1  0  0  0  0
 14 10  1  0  0  0  0
 11 15  1  0  0  0  0
 15 16  1  0  0  0  0
 16 17  1  0  0  0  0
 17 18  1  0  0  0  0
 18 12  1  0  0  0  0
 17 19  1  0  0  0  0
 19 20  1  0  0  0  0
 20 21  1  0  0  0  0
 21 22  1  0  0  0  0
 22 18  1  0  0  0  0
  3 23  1  6  0  0  0
  3 24  1  1  0  0  0
 21 25  1  1  0  0  0
 25 26  1  0  0  0  0
 25 27  2  0  0  0  0
  2 28  1  1  0  0  0
  5 29  1  1  0  0  0
  9 30  1  1  0  0  0
 18 31  1  1  0  0  0
 17 32  1  1  0  0  0
 21 33  1  6  0  0  0
 11 34  1  6  0  0  0
 10 35  1  6  0  0  0
  4 36  1  6  0  0  0
 14 37  2  0  0  0  0
 38 28  1  1  0  0  0
 38 39  1  0  0  0  0
 39 40  1  0  0  0  0
 40 41  1  0  0  0  0
 41 42  1  0  0  0  0
 42 43  1  0  0  0  0
 43 38  1  0  0  0  0
 40 44  1  1  0  0  0
 42 45  1  1  0  0  0
 41 46  1  6  0  0  0
 44 47  2  0  0  0  0
 44 48  1  0  0  0  0
 49 50  1  0  0  0  0
 50 51  1  0  0  0  0
 51 52  1  0  0  0  0
 52 53  1  0  0  0  0
 53 54  1  0  0  0  0
 54 49  1  0  0  0  0
 51 55  1  1  0  0  0
 53 56  1  1  0  0  0
 52 57  1  6  0  0  0
 54 58  1  6  0  0  0
 55 59  1  0  0  0  0
 55 60  2  0  0  0  0
 49 45  1  1  0  0  0
 43 61  1  6  0  0  0
M  END
>  <cdx:fragmentId>
4796

$$$$
