164.cdx
  Mrv1902 05222410202D          

 35 36  0  0  0  0            999 V2000
    1.4615   -7.1019    0.0000 C   0  0  0  0  0  0  0  0  0  0  0  0
    1.4615   -7.9269    0.0000 C   0  0  0  0  0  0  0  0  0  0  0  0
    2.1760   -8.3394    0.0000 C   0  0  0  0  0  0  0  0  0  0  0  0
    2.8905   -7.9269    0.0000 C   0  0  0  0  0  0  0  0  0  0  0  0
    2.8905   -7.1019    0.0000 C   0  0  0  0  0  0  0  0  0  0  0  0
    2.1760   -6.6894    0.0000 C   0  0  0  0  0  0  0  0  0  0  0  0
    3.6049   -6.6894    0.0000 C   0  0  0  0  0  0  0  0  0  0  0  0
    4.3194   -7.1019    0.0000 C   0  0  0  0  0  0  0  0  0  0  0  0
    5.0339   -6.6894    0.0000 C   0  0  0  0  0  0  0  0  0  0  0  0
    5.7483   -7.1019    0.0000 O   0  0  0  0  0  0  0  0  0  0  0  0
    6.4628   -6.6894    0.0000 C   0  0  0  0  0  0  0  0  0  0  0  0
    7.1773   -7.1019    0.0000 C   0  0  0  0  0  0  0  0  0  0  0  0
    7.8918   -6.6894    0.0000 C   0  0  0  0  0  0  0  0  0  0  0  0
    8.6062   -7.1019    0.0000 O   0  0  0  0  0  0  0  0  0  0  0  0
    9.3207   -6.6894    0.0000 C   0  0  0  0  0  0  0  0  0  0  0  0
   10.0352   -7.1019    0.0000 C   0  0  0  0  0  0  0  0  0  0  0  0
   10.7496   -6.6894    0.0000 C   0  0  0  0  0  0  0  0  0  0  0  0
   11.4641   -7.1019    0.0000 C   0  0  0  0  0  0  0  0  0  0  0  0
   11.4641   -7.9269    0.0000 C   0  0  0  0  0  0  0  0  0  0  0  0
   12.1786   -8.3394    0.0000 C   0  0  0  0  0  0  0  0  0  0  0  0
   12.8931   -7.9269    0.0000 C   0  0  0  0  0  0  0  0  0  0  0  0
   12.8931   -7.1019    0.0000 C   0  0  0  0  0  0  0  0  0  0  0  0
   12.1786   -6.6894    0.0000 C   0  0  0  0  0  0  0  0  0  0  0  0
    7.1773   -7.9269    0.0000 O   0  0  0  0  0  0  0  0  0  0  0  0
    5.0339   -5.8644    0.0000 O   0  0  0  0  0  0  0  0  0  0  0  0
    9.3207   -5.8644    0.0000 O   0  0  0  0  0  0  0  0  0  0  0  0
    7.8918   -8.3394    0.0000 C   0  0  0  0  0  0  0  0  0  0  0  0
    8.6062   -7.9269    0.0000 O   0  0  0  0  0  0  0  0  0  0  0  0
    7.8918   -9.1644    0.0000 C   0  0  0  0  0  0  0  0  0  0  0  0
   13.6075   -8.3394    0.0000 O   0  0  0  0  0  0  0  0  0  0  0  0
    0.7471   -6.6894    0.0000 O   0  0  0  0  0  0  0  0  0  0  0  0
    0.7471   -8.3394    0.0000 O   0  0  0  0  0  0  0  0  0  0  0  0
   13.6075   -6.6894    0.0000 O   0  0  0  0  0  0  0  0  0  0  0  0
    0.0326   -7.1019    0.0000 C   0  0  0  0  0  0  0  0  0  0  0  0
   14.3220   -7.1019    0.0000 C   0  0  0  0  0  0  0  0  0  0  0  0
  1  2  1  0  0  0  0
  2  3  2  0  0  0  0
  3  4  1  0  0  0  0
  4  5  2  0  0  0  0
  5  6  1  0  0  0  0
  6  1  2  0  0  0  0
  5  7  1  0  0  0  0
  7  8  2  0  0  0  0
  8  9  1  0  0  0  0
  9 10  1  0  0  0  0
 10 11  1  0  0  0  0
 11 12  1  0  0  0  0
 12 13  1  0  0  0  0
 13 14  1  0  0  0  0
 14 15  1  0  0  0  0
 15 16  1  0  0  0  0
 16 17  2  0  0  0  0
 17 18  1  0  0  0  0
 18 19  2  0  0  0  0
 19 20  1  0  0  0  0
 20 21  2  0  0  0  0
 21 22  1  0  0  0  0
 22 23  2  0  0  0  0
 23 18  1  0  0  0  0
 12 24  1  0  0  0  0
  9 25  2  0  0  0  0
 15 26  2  0  0  0  0
 24 27  1  0  0  0  0
 27 28  2  0  0  0  0
 27 29  1  0  0  0  0
 21 30  1  0  0  0  0
  1 31  1  0  0  0  0
  2 32  1  0  0  0  0
 22 33  1  0  0  0  0
 31 34  1  0  0  0  0
 33 35  1  0  0  0  0
M  END
>  <cdx:fragmentId>
998

$$$$
