164030.cdx
  Mrv1902 05222410252D          

 69 76  0  0  0  0            999 V2000
    4.8442  -10.7581    0.0000 O   0  0  0  0  0  0  0  0  0  0  0  0
    3.3168  -10.8697    0.0000 O   0  0  0  0  0  0  0  0  0  0  0  0
    4.0317  -11.2816    0.0000 C   0  0  2  0  0  0  0  0  0  0  0  0
    4.0324  -12.1066    0.0000 C   0  0  1  0  0  0  0  0  0  0  0  0
    3.3183  -12.5197    0.0000 C   0  0  2  0  0  0  0  0  0  0  0  0
    2.6035  -12.1079    0.0000 C   0  0  2  0  0  0  0  0  0  0  0  0
    2.6027  -11.2829    0.0000 C   0  0  1  0  0  0  0  0  0  0  0  0
    4.7472  -12.5185    0.0000 O   0  0  0  0  0  0  0  0  0  0  0  0
    4.0338  -13.7566    0.0000 O   0  0  0  0  0  0  0  0  0  0  0  0
    4.7480  -13.3435    0.0000 C   0  0  2  0  0  0  0  0  0  0  0  0
    5.4628  -13.7553    0.0000 C   0  0  1  0  0  0  0  0  0  0  0  0
    5.4635  -14.5803    0.0000 C   0  0  1  0  0  0  0  0  0  0  0  0
    4.7494  -14.9935    0.0000 C   0  0  2  0  0  0  0  0  0  0  0  0
    4.0346  -14.5816    0.0000 C   0  0  2  0  0  0  0  0  0  0  0  0
    3.3205  -14.9947    0.0000 C   0  0  0  0  0  0  0  0  0  0  0  0
    4.7501  -15.8185    0.0000 O   0  0  0  0  0  0  0  0  0  0  0  0
    6.1783  -14.9922    0.0000 O   0  0  0  0  0  0  0  0  0  0  0  0
    6.1769  -13.3422    0.0000 O   0  0  0  0  0  0  0  0  0  0  0  0
    1.8879  -10.8710    0.0000 C   0  0  0  0  0  0  0  0  0  0  0  0
    1.1734  -11.2835    0.0000 O   0  0  0  0  0  0  0  0  0  0  0  0
    1.8893  -12.5210    0.0000 O   0  0  0  0  0  0  0  0  0  0  0  0
    3.3190  -13.3447    0.0000 O   0  0  0  0  0  0  0  0  0  0  0  0
    7.6982   -8.2764    0.0000 C   0  0  0  0  0  0  0  0  0  0  0  0
    6.9837   -8.6889    0.0000 C   0  0  0  0  0  0  0  0  0  0  0  0
    6.9837   -9.5139    0.0000 C   0  0  1  0  0  0  0  0  0  0  0  0
    7.6982   -9.9264    0.0000 C   0  0  2  0  0  0  0  0  0  0  0  0
    8.4127   -9.5139    0.0000 C   0  0  2  0  0  0  0  0  0  0  0  0
    9.1272   -9.9264    0.0000 C   0  0  0  0  0  0  0  0  0  0  0  0
    9.8416   -9.5139    0.0000 C   0  0  0  0  0  0  0  0  0  0  0  0
    9.8416   -8.6889    0.0000 C   0  0  1  0  0  0  0  0  0  0  0  0
   10.5561   -8.2764    0.0000 C   0  0  2  0  0  0  0  0  0  0  0  0
   11.2706   -8.6889    0.0000 C   0  0  0  0  0  0  0  0  0  0  0  0
   11.9850   -8.2764    0.0000 C   0  0  0  0  0  0  0  0  0  0  0  0
   11.9850   -7.4514    0.0000 C   0  0  1  0  0  0  0  0  0  0  0  0
   12.6995   -7.0389    0.0000 C   0  0  0  0  0  0  0  0  0  0  0  0
   12.6995   -6.2139    0.0000 C   0  0  0  0  0  0  0  0  0  0  0  0
   11.9850   -5.8014    0.0000 C   0  0  0  0  0  0  0  0  0  0  0  0
   11.2706   -6.2139    0.0000 C   0  0  0  0  0  0  0  0  0  0  0  0
   11.2706   -7.0389    0.0000 C   0  0  1  0  0  0  0  0  0  0  0  0
   10.5561   -7.4514    0.0000 C   0  0  0  0  0  0  0  0  0  0  0  0
    9.8416   -7.0389    0.0000 C   0  0  0  0  0  0  0  0  0  0  0  0
    9.1272   -7.4514    0.0000 C   0  0  0  0  0  0  0  0  0  0  0  0
    9.1272   -8.2764    0.0000 C   0  0  2  0  0  0  0  0  0  0  0  0
    8.4127   -8.6889    0.0000 C   0  0  1  0  0  0  0  0  0  0  0  0
   13.4140   -7.4514    0.0000 O   0  0  0  0  0  0  0  0  0  0  0  0
    8.4127   -7.8639    0.0000 C   0  0  0  0  0  0  0  0  0  0  0  0
   11.5725   -5.0869    0.0000 C   0  0  0  0  0  0  0  0  0  0  0  0
   12.3975   -5.0869    0.0000 C   0  0  0  0  0  0  0  0  0  0  0  0
   12.6995   -7.8639    0.0000 C   0  0  0  0  0  0  0  0  0  0  0  0
   10.5561   -9.1014    0.0000 C   0  0  0  0  0  0  0  0  0  0  0  0
    9.8416   -7.8639    0.0000 C   0  0  0  0  0  0  0  0  0  0  0  0
    8.1107  -10.6408    0.0000 C   0  0  0  0  0  0  0  0  0  0  0  0
    8.4127  -10.3389    0.0000 H   0  0  0  0  0  0  0  0  0  0  0  0
   11.2706   -7.8639    0.0000 H   0  0  0  0  0  0  0  0  0  0  0  0
    9.1272   -9.1014    0.0000 H   0  0  0  0  0  0  0  0  0  0  0  0
    6.2693   -9.9264    0.0000 O   0  0  0  0  0  0  0  0  0  0  0  0
    3.4036   -8.2899    0.0000 O   0  0  0  0  0  0  0  0  0  0  0  0
    3.4114   -9.9399    0.0000 O   0  0  0  0  0  0  0  0  0  0  0  0
    4.1122   -7.0490    0.0000 O   0  0  0  0  0  0  0  0  0  0  0  0
    5.5412   -7.0423    0.0000 O   0  0  0  0  0  0  0  0  0  0  0  0
    4.8286   -7.4581    0.0000 C   0  0  0  0  0  0  0  0  0  0  0  0
    5.5529   -9.5172    0.0000 C   0  0  1  0  0  0  0  0  0  0  0  0
    4.8403   -9.9331    0.0000 C   0  0  1  0  0  0  0  0  0  0  0  0
    4.1239   -9.5240    0.0000 C   0  0  2  0  0  0  0  0  0  0  0  0
    4.1200   -8.6990    0.0000 C   0  0  1  0  0  0  0  0  0  0  0  0
    4.8325   -8.2831    0.0000 C   0  0  2  0  0  0  0  0  0  0  0  0
    5.5490   -8.6922    0.0000 O   0  0  0  0  0  0  0  0  0  0  0  0
    7.2857  -10.6408    0.0000 C   0  0  0  0  0  0  0  0  0  0  0  0
    7.6982  -11.3553    0.0000 O   0  0  0  0  0  0  0  0  0  0  0  0
 62 56  1  1  0  0  0
 63  1  1  6  0  0  0
  2  3  1  0  0  0  0
 65 57  1  6  0  0  0
 64 58  1  1  0  0  0
 66 61  1  1  0  0  0
 61 59  1  0  0  0  0
 61 60  2  0  0  0  0
 67 62  1  0  0  0  0
 63 62  1  0  0  0  0
 64 63  1  0  0  0  0
 65 64  1  0  0  0  0
 66 65  1  0  0  0  0
 67 66  1  0  0  0  0
  3  4  1  0  0  0  0
  4  5  1  0  0  0  0
  5  6  1  0  0  0  0
  6  7  1  0  0  0  0
  2  7  1  0  0  0  0
  9 10  1  0  0  0  0
 10 11  1  0  0  0  0
 11 12  1  0  0  0  0
 12 13  1  0  0  0  0
 13 14  1  0  0  0  0
  9 14  1  0  0  0  0
 14 15  1  6  0  0  0
 13 16  1  1  0  0  0
 12 17  1  6  0  0  0
 11 18  1  6  0  0  0
 10  8  1  1  0  0  0
  4  8  1  6  0  0  0
 19 20  1  0  0  0  0
  7 19  1  1  0  0  0
  6 21  1  1  0  0  0
  5 22  1  1  0  0  0
  3  1  1  1  0  0  0
 23 24  1  0  0  0  0
 24 25  1  0  0  0  0
 25 26  1  0  0  0  0
 26 27  1  0  0  0  0
 27 28  1  0  0  0  0
 28 29  1  0  0  0  0
 29 30  1  0  0  0  0
 30 31  1  0  0  0  0
 31 32  1  0  0  0  0
 32 33  1  0  0  0  0
 33 34  1  0  0  0  0
 34 35  1  0  0  0  0
 35 36  1  0  0  0  0
 36 37  1  0  0  0  0
 37 38  1  0  0  0  0
 38 39  1  0  0  0  0
 34 39  1  0  0  0  0
 39 40  1  0  0  0  0
 31 40  1  0  0  0  0
 40 41  2  0  0  0  0
 41 42  1  0  0  0  0
 42 43  1  0  0  0  0
 30 43  1  0  0  0  0
 43 44  1  0  0  0  0
 27 44  1  0  0  0  0
 23 44  1  0  0  0  0
 35 45  2  0  0  0  0
 44 46  1  1  0  0  0
 37 47  1  0  0  0  0
 37 48  1  0  0  0  0
 34 49  1  1  0  0  0
 31 50  1  6  0  0  0
 30 51  1  1  0  0  0
 26 52  1  6  0  0  0
 25 56  1  1  0  0  0
 27 53  1  6  0  0  0
 39 54  1  1  0  0  0
 43 55  1  6  0  0  0
 26 68  1  1  0  0  0
 68 69  1  0  0  0  0
M  END
>  <cdx:fragmentId>
1434

$$$$
