16425.cdx
  Mrv1902 05222410232D          

 62 67  0  0  0  0            999 V2000
    5.9642  -15.6095    0.0000 C   0  0  0  0  0  0  0  0  0  0  0  0
    5.9642  -16.4345    0.0000 C   0  0  0  0  0  0  0  0  0  0  0  0
    6.6787  -16.8470    0.0000 C   0  0  0  0  0  0  0  0  0  0  0  0
    7.3932  -16.4345    0.0000 C   0  0  0  0  0  0  0  0  0  0  0  0
    7.3932  -15.6095    0.0000 C   0  0  0  0  0  0  0  0  0  0  0  0
    6.6787  -15.1970    0.0000 C   0  0  0  0  0  0  0  0  0  0  0  0
    8.1076  -16.8470    0.0000 C   0  0  0  0  0  0  0  0  0  0  0  0
    8.8221  -16.4345    0.0000 C   0  0  0  0  0  0  0  0  0  0  0  0
    8.8221  -15.6095    0.0000 C   0  0  0  0  0  0  0  0  0  0  0  0
    8.1076  -15.1970    0.0000 C   0  0  0  0  0  0  0  0  0  0  0  0
    9.5366  -16.8470    0.0000 C   0  0  0  0  0  0  0  0  0  0  0  0
   10.2511  -15.6095    0.0000 C   0  0  0  0  0  0  0  0  0  0  0  0
    9.5366  -15.1970    0.0000 C   0  0  0  0  0  0  0  0  0  0  0  0
    5.2498  -16.8470    0.0000 O   0  0  0  0  0  0  0  0  0  0  0  0
    8.1076  -14.3720    0.0000 O   0  0  0  0  0  0  0  0  0  0  0  0
    9.5366  -14.3720    0.0000 O   0  0  0  0  0  0  0  0  0  0  0  0
    6.6787  -14.3720    0.0000 O   0  0  0  0  0  0  0  0  0  0  0  0
    5.2468  -12.6982    0.0000 C   0  0  2  0  0  0  0  0  0  0  0  0
    4.5314  -13.1090    0.0000 C   0  0  2  0  0  0  0  0  0  0  0  0
    4.5294  -13.9340    0.0000 C   0  0  1  0  0  0  0  0  0  0  0  0
    5.2429  -14.3482    0.0000 C   0  0  2  0  0  0  0  0  0  0  0  0
    5.9584  -13.9374    0.0000 C   0  0  1  0  0  0  0  0  0  0  0  0
    5.9603  -13.1124    0.0000 O   0  0  0  0  0  0  0  0  0  0  0  0
    5.2488  -11.8732    0.0000 C   0  0  0  0  0  0  0  0  0  0  0  0
    3.8140  -14.3449    0.0000 O   0  0  0  0  0  0  0  0  0  0  0  0
    5.2410  -15.1732    0.0000 O   0  0  0  0  0  0  0  0  0  0  0  0
    3.8179  -12.6949    0.0000 O   0  0  0  0  0  0  0  0  0  0  0  0
    4.5353  -11.4590    0.0000 O   0  0  0  0  0  0  0  0  0  0  0  0
    4.5373  -10.6340    0.0000 C   0  0  2  0  0  0  0  0  0  0  0  0
    5.2528  -10.2233    0.0000 O   0  0  0  0  0  0  0  0  0  0  0  0
    5.2548   -9.3983    0.0000 C   0  0  1  0  0  0  0  0  0  0  0  0
    4.5413   -8.9841    0.0000 C   0  0  2  0  0  0  0  0  0  0  0  0
    3.8258   -9.3948    0.0000 C   0  0  1  0  0  0  0  0  0  0  0  0
    3.8238  -10.2198    0.0000 C   0  0  1  0  0  0  0  0  0  0  0  0
    3.1124   -8.9805    0.0000 O   0  0  0  0  0  0  0  0  0  0  0  0
    5.9703   -8.9876    0.0000 C   0  0  0  0  0  0  0  0  0  0  0  0
    3.1083  -10.6305    0.0000 O   0  0  0  0  0  0  0  0  0  0  0  0
    4.5433   -8.1591    0.0000 O   0  0  0  0  0  0  0  0  0  0  0  0
    5.9723   -8.1626    0.0000 O   0  0  0  0  0  0  0  0  0  0  0  0
    6.6868   -7.7501    0.0000 C   0  0  2  0  0  0  0  0  0  0  0  0
    7.4012   -8.1626    0.0000 O   0  0  0  0  0  0  0  0  0  0  0  0
    8.1157   -7.7501    0.0000 C   0  0  1  0  0  0  0  0  0  0  0  0
    8.1157   -6.9251    0.0000 C   0  0  2  0  0  0  0  0  0  0  0  0
    7.4013   -6.5126    0.0000 C   0  0  1  0  0  0  0  0  0  0  0  0
    6.6868   -6.9251    0.0000 C   0  0  1  0  0  0  0  0  0  0  0  0
    8.8302   -8.1626    0.0000 C   0  0  0  0  0  0  0  0  0  0  0  0
    7.4013   -5.6876    0.0000 O   0  0  0  0  0  0  0  0  0  0  0  0
    5.9723   -6.5126    0.0000 O   0  0  0  0  0  0  0  0  0  0  0  0
    8.8302   -6.5126    0.0000 O   0  0  0  0  0  0  0  0  0  0  0  0
    9.5447   -7.7501    0.0000 O   0  0  0  0  0  0  0  0  0  0  0  0
    8.1158   -5.2751    0.0000 C   0  0  2  0  0  0  0  0  0  0  0  0
    8.8302   -5.6876    0.0000 O   0  0  0  0  0  0  0  0  0  0  0  0
    9.5447   -5.2751    0.0000 C   0  0  1  0  0  0  0  0  0  0  0  0
    9.5447   -4.4501    0.0000 C   0  0  2  0  0  0  0  0  0  0  0  0
    8.8303   -4.0376    0.0000 C   0  0  1  0  0  0  0  0  0  0  0  0
    8.1158   -4.4501    0.0000 C   0  0  1  0  0  0  0  0  0  0  0  0
   10.2592   -5.6876    0.0000 C   0  0  0  0  0  0  0  0  0  0  0  0
    8.8303   -3.2126    0.0000 O   0  0  0  0  0  0  0  0  0  0  0  0
   10.9736   -5.2752    0.0000 O   0  0  0  0  0  0  0  0  0  0  0  0
    7.4013   -4.0376    0.0000 O   0  0  0  0  0  0  0  0  0  0  0  0
   10.2592   -4.0376    0.0000 O   0  0  0  0  0  0  0  0  0  0  0  0
    4.5353  -16.4345    0.0000 C   0  0  0  0  0  0  0  0  0  0  0  0
  1  2  1  0  0  0  0
  2  3  2  0  0  0  0
  3  4  1  0  0  0  0
  4  5  2  0  0  0  0
  5  6  1  0  0  0  0
  6  1  2  0  0  0  0
  4  7  1  0  0  0  0
  7  8  2  0  0  0  0
  8  9  1  0  0  0  0
  9 10  2  0  0  0  0
 10  5  1  0  0  0  0
  8 11  1  0  0  0  0
 12 13  1  0  0  0  0
 13  9  1  0  0  0  0
  2 14  1  0  0  0  0
 10 15  1  0  0  0  0
 13 16  2  0  0  0  0
  6 17  1  0  0  0  0
 18 19  1  0  0  0  0
 19 20  1  0  0  0  0
 20 21  1  0  0  0  0
 21 22  1  0  0  0  0
 22 23  1  0  0  0  0
 23 18  1  0  0  0  0
 18 24  1  1  0  0  0
 20 25  1  1  0  0  0
 21 26  1  6  0  0  0
 19 27  1  6  0  0  0
 24 28  1  0  0  0  0
 29 28  1  1  0  0  0
 29 30  1  0  0  0  0
 30 31  1  0  0  0  0
 31 32  1  0  0  0  0
 32 33  1  0  0  0  0
 33 34  1  0  0  0  0
 34 29  1  0  0  0  0
 33 35  1  1  0  0  0
 31 36  1  1  0  0  0
 34 37  1  6  0  0  0
 32 38  1  6  0  0  0
 36 39  1  0  0  0  0
 40 39  1  1  0  0  0
 40 41  1  0  0  0  0
 41 42  1  0  0  0  0
 42 43  1  0  0  0  0
 43 44  1  0  0  0  0
 44 45  1  0  0  0  0
 45 40  1  0  0  0  0
 42 46  1  1  0  0  0
 44 47  1  1  0  0  0
 45 48  1  6  0  0  0
 43 49  1  6  0  0  0
 46 50  1  0  0  0  0
 51 47  1  1  0  0  0
 51 52  1  0  0  0  0
 52 53  1  0  0  0  0
 53 54  1  0  0  0  0
 54 55  1  0  0  0  0
 55 56  1  0  0  0  0
 56 51  1  0  0  0  0
 53 57  1  1  0  0  0
 55 58  1  1  0  0  0
 57 59  1  0  0  0  0
 56 60  1  6  0  0  0
 54 61  1  6  0  0  0
 22 17  1  1  0  0  0
 14 62  1  0  0  0  0
M  END
>  <cdx:fragmentId>
59

$$$$
