164245.cdx
  Mrv1902 05222410282D          

 13 14  0  0  0  0            999 V2000
    6.5236   -8.0410    0.0000 C   0  0  2  0  0  0  0  0  0  0  0  0
    5.4450   -8.4700    0.0000 C   0  0  0  0  0  0  0  0  0  0  0  0
    5.1782   -7.6712    0.0000 C   0  0  2  0  0  0  0  0  0  0  0  0
    6.1999   -7.2292    0.0000 C   0  0  1  0  0  0  0  0  0  0  0  0
    6.7309   -6.3293    0.0000 N   0  0  0  0  0  0  0  0  0  0  0  0
    7.5877   -7.3958    0.0000 C   0  0  0  0  0  0  0  0  0  0  0  0
    7.4415   -8.4359    0.0000 C   0  0  2  0  0  0  0  0  0  0  0  0
    8.0377   -7.9781    0.0000 C   0  0  2  0  0  0  0  0  0  0  0  0
    4.3999   -7.3975    0.0000 O   0  0  0  0  0  0  0  0  0  0  0  0
    6.5082   -8.8658    0.0000 O   0  0  0  0  0  0  0  0  0  0  0  0
    8.8559   -8.0842    0.0000 O   0  0  0  0  0  0  0  0  0  0  0  0
    5.7874   -6.5148    0.0000 H   0  0  0  0  0  0  0  0  0  0  0  0
    7.5438   -9.2545    0.0000 O   0  0  0  0  0  0  0  0  0  0  0  0
  1  2  1  0  0  0  0
  2  3  1  0  0  0  0
  3  4  1  0  0  0  0
  4  5  1  0  0  0  0
  4  6  1  0  0  0  0
  1  7  1  0  0  0  0
  6  8  1  0  0  0  0
  7  8  1  0  0  0  0
  1  5  1  0  0  0  0
  3  9  1  1  0  0  0
  1 10  1  1  0  0  0
  8 11  1  1  0  0  0
  4 12  1  6  0  0  0
  7 13  1  6  0  0  0
M  END
>  <cdx:fragmentId>
817

$$$$
