16441.cdx
  Mrv1902 05222410192D          

 11 11  0  0  0  0            999 V2000
    7.7316   -3.0768    0.0000 C   0  0  0  0  0  0  0  0  0  0  0  0
    7.0171   -3.4893    0.0000 C   0  0  0  0  0  0  0  0  0  0  0  0
    6.3027   -3.0768    0.0000 C   0  0  0  0  0  0  0  0  0  0  0  0
    6.3027   -7.2018    0.0000 O   0  0  0  0  0  0  0  0  0  0  0  0
    7.0171   -6.7893    0.0000 C   0  0  0  0  0  0  0  0  0  0  0  0
    6.3027   -5.5518    0.0000 C   0  0  0  0  0  0  0  0  0  0  0  0
    6.3027   -4.7268    0.0000 C   0  0  0  0  0  0  0  0  0  0  0  0
    7.0171   -4.3143    0.0000 C   0  0  0  0  0  0  0  0  0  0  0  0
    7.7316   -4.7268    0.0000 C   0  0  0  0  0  0  0  0  0  0  0  0
    7.7316   -5.5518    0.0000 C   0  0  0  0  0  0  0  0  0  0  0  0
    7.0171   -5.9643    0.0000 C   0  0  0  0  0  0  0  0  0  0  0  0
  8  2  1  0  0  0  0
  2  1  1  0  0  0  0
  3  2  2  0  0  0  0
 11  5  1  0  0  0  0
  5  4  2  0  0  0  0
 11  6  1  0  0  0  0
  7  6  1  0  0  0  0
  8  7  1  0  0  0  0
  9  8  1  0  0  0  0
 10  9  1  0  0  0  0
 11 10  2  0  0  0  0
M  END
>  <cdx:groupId>
35

>  <cdx:fragmentId>
5

$$$$
