164453.cdx
  Mrv1902 05222410262D          

 78 86  0  0  0  0            999 V2000
   10.0956   -9.9536    0.0000 O   0  0  0  0  0  0  0  0  0  0  0  0
    8.5421  -10.1028    0.0000 O   0  0  0  0  0  0  0  0  0  0  0  0
    9.2591  -10.5108    0.0000 C   0  0  2  0  0  0  0  0  0  0  0  0
    9.2643  -11.3358    0.0000 C   0  0  1  0  0  0  0  0  0  0  0  0
    8.5524  -11.7528    0.0000 C   0  0  2  0  0  0  0  0  0  0  0  0
    7.8354  -11.3448    0.0000 C   0  0  2  0  0  0  0  0  0  0  0  0
    7.8302  -10.5198    0.0000 C   0  0  1  0  0  0  0  0  0  0  0  0
    9.9814  -11.7438    0.0000 O   0  0  0  0  0  0  0  0  0  0  0  0
    9.2747  -12.9858    0.0000 O   0  0  0  0  0  0  0  0  0  0  0  0
    9.9865  -12.5688    0.0000 C   0  0  2  0  0  0  0  0  0  0  0  0
   10.7036  -12.9768    0.0000 C   0  0  1  0  0  0  0  0  0  0  0  0
   10.7088  -13.8018    0.0000 C   0  0  1  0  0  0  0  0  0  0  0  0
    9.9969  -14.2188    0.0000 C   0  0  2  0  0  0  0  0  0  0  0  0
    9.2798  -13.8107    0.0000 C   0  0  2  0  0  0  0  0  0  0  0  0
    8.5680  -14.2277    0.0000 C   0  0  0  0  0  0  0  0  0  0  0  0
   10.0021  -15.0437    0.0000 O   0  0  0  0  0  0  0  0  0  0  0  0
   11.4258  -14.2098    0.0000 O   0  0  0  0  0  0  0  0  0  0  0  0
   11.4154  -12.5598    0.0000 O   0  0  0  0  0  0  0  0  0  0  0  0
    7.1132  -10.1118    0.0000 C   0  0  0  0  0  0  0  0  0  0  0  0
    6.3987  -10.5243    0.0000 O   0  0  0  0  0  0  0  0  0  0  0  0
    7.1235  -11.7617    0.0000 O   0  0  0  0  0  0  0  0  0  0  0  0
    8.5576  -12.5778    0.0000 O   0  0  0  0  0  0  0  0  0  0  0  0
   12.9536   -7.4789    0.0000 C   0  0  0  0  0  0  0  0  0  0  0  0
   12.2392   -7.8914    0.0000 C   0  0  0  0  0  0  0  0  0  0  0  0
   12.2392   -8.7164    0.0000 C   0  0  1  0  0  0  0  0  0  0  0  0
   12.9536   -9.1289    0.0000 C   0  0  2  0  0  0  0  0  0  0  0  0
   13.6681   -8.7164    0.0000 C   0  0  2  0  0  0  0  0  0  0  0  0
   14.3826   -9.1289    0.0000 C   0  0  0  0  0  0  0  0  0  0  0  0
   15.0970   -8.7164    0.0000 C   0  0  0  0  0  0  0  0  0  0  0  0
   15.0970   -7.8914    0.0000 C   0  0  1  0  0  0  0  0  0  0  0  0
   15.8115   -7.4789    0.0000 C   0  0  2  0  0  0  0  0  0  0  0  0
   16.5260   -7.8914    0.0000 C   0  0  0  0  0  0  0  0  0  0  0  0
   17.2405   -7.4789    0.0000 C   0  0  0  0  0  0  0  0  0  0  0  0
   17.2405   -6.6539    0.0000 C   0  0  1  0  0  0  0  0  0  0  0  0
   17.9549   -6.2414    0.0000 C   0  0  1  0  0  0  0  0  0  0  0  0
   17.9549   -5.4164    0.0000 C   0  0  0  0  0  0  0  0  0  0  0  0
   17.2405   -5.0039    0.0000 C   0  0  0  0  0  0  0  0  0  0  0  0
   16.5260   -5.4164    0.0000 C   0  0  0  0  0  0  0  0  0  0  0  0
   16.5260   -6.2414    0.0000 C   0  0  1  0  0  0  0  0  0  0  0  0
   15.8115   -6.6539    0.0000 C   0  0  0  0  0  0  0  0  0  0  0  0
   15.0970   -6.2414    0.0000 C   0  0  0  0  0  0  0  0  0  0  0  0
   14.3826   -6.6539    0.0000 C   0  0  0  0  0  0  0  0  0  0  0  0
   14.3826   -7.4789    0.0000 C   0  0  2  0  0  0  0  0  0  0  0  0
   13.6681   -7.8914    0.0000 C   0  0  1  0  0  0  0  0  0  0  0  0
   13.6681   -7.0664    0.0000 C   0  0  0  0  0  0  0  0  0  0  0  0
   16.8280   -4.2894    0.0000 C   0  0  0  0  0  0  0  0  0  0  0  0
   17.6530   -4.2894    0.0000 C   0  0  0  0  0  0  0  0  0  0  0  0
   17.9549   -7.0664    0.0000 C   0  0  0  0  0  0  0  0  0  0  0  0
   15.8115   -8.3039    0.0000 C   0  0  0  0  0  0  0  0  0  0  0  0
   15.0970   -7.0664    0.0000 C   0  0  0  0  0  0  0  0  0  0  0  0
   13.3661   -9.8433    0.0000 C   0  0  0  0  0  0  0  0  0  0  0  0
   18.6694   -6.6539    0.0000 O   0  0  0  0  0  0  0  0  0  0  0  0
   19.3839   -6.2414    0.0000 C   0  0  1  0  0  0  0  0  0  0  0  0
   19.3839   -5.4164    0.0000 C   0  0  0  0  0  0  0  0  0  0  0  0
   20.0983   -5.0039    0.0000 C   0  0  0  0  0  0  0  0  0  0  0  0
   20.8128   -5.4164    0.0000 C   0  0  0  0  0  0  0  0  0  0  0  0
   20.8128   -6.2414    0.0000 C   0  0  0  0  0  0  0  0  0  0  0  0
   20.0983   -6.6539    0.0000 O   0  0  0  0  0  0  0  0  0  0  0  0
   20.0983   -4.1789    0.0000 O   0  0  0  0  0  0  0  0  0  0  0  0
   21.5273   -6.6539    0.0000 C   0  0  0  0  0  0  0  0  0  0  0  0
   21.5273   -5.0039    0.0000 O   0  0  0  0  0  0  0  0  0  0  0  0
   13.6681   -9.5414    0.0000 H   0  0  0  0  0  0  0  0  0  0  0  0
   16.5260   -7.0664    0.0000 H   0  0  0  0  0  0  0  0  0  0  0  0
   14.3826   -8.3039    0.0000 H   0  0  0  0  0  0  0  0  0  0  0  0
   11.5247   -9.1289    0.0000 O   0  0  0  0  0  0  0  0  0  0  0  0
    8.6670   -7.4784    0.0000 O   0  0  0  0  0  0  0  0  0  0  0  0
    8.6668   -9.1284    0.0000 O   0  0  0  0  0  0  0  0  0  0  0  0
    9.3817   -6.2410    0.0000 O   0  0  0  0  0  0  0  0  0  0  0  0
   10.8106   -6.2412    0.0000 O   0  0  0  0  0  0  0  0  0  0  0  0
   10.0961   -6.6536    0.0000 C   0  0  0  0  0  0  0  0  0  0  0  0
   10.8103   -8.7162    0.0000 C   0  0  1  0  0  0  0  0  0  0  0  0
   10.0957   -9.1286    0.0000 C   0  0  1  0  0  0  0  0  0  0  0  0
    9.3813   -8.7160    0.0000 C   0  0  2  0  0  0  0  0  0  0  0  0
    9.3814   -7.8910    0.0000 C   0  0  1  0  0  0  0  0  0  0  0  0
   10.0960   -7.4786    0.0000 C   0  0  2  0  0  0  0  0  0  0  0  0
   10.8104   -7.8912    0.0000 O   0  0  0  0  0  0  0  0  0  0  0  0
   12.5411   -9.8433    0.0000 C   0  0  0  0  0  0  0  0  0  0  0  0
   12.9536  -10.5578    0.0000 O   0  0  0  0  0  0  0  0  0  0  0  0
 71 65  1  1  0  0  0
 72  1  1  6  0  0  0
  2  3  1  0  0  0  0
 74 66  1  6  0  0  0
 73 67  1  1  0  0  0
 75 70  1  1  0  0  0
 70 68  1  0  0  0  0
 70 69  2  0  0  0  0
 76 71  1  0  0  0  0
 72 71  1  0  0  0  0
 73 72  1  0  0  0  0
 74 73  1  0  0  0  0
 75 74  1  0  0  0  0
 76 75  1  0  0  0  0
  3  4  1  0  0  0  0
  4  5  1  0  0  0  0
  5  6  1  0  0  0  0
  6  7  1  0  0  0  0
  2  7  1  0  0  0  0
  9 10  1  0  0  0  0
 10 11  1  0  0  0  0
 11 12  1  0  0  0  0
 12 13  1  0  0  0  0
 13 14  1  0  0  0  0
  9 14  1  0  0  0  0
 14 15  1  6  0  0  0
 13 16  1  1  0  0  0
 12 17  1  6  0  0  0
 11 18  1  6  0  0  0
 10  8  1  1  0  0  0
  4  8  1  6  0  0  0
 19 20  1  0  0  0  0
  7 19  1  1  0  0  0
  6 21  1  1  0  0  0
  5 22  1  1  0  0  0
  3  1  1  1  0  0  0
 23 24  1  0  0  0  0
 24 25  1  0  0  0  0
 25 26  1  0  0  0  0
 26 27  1  0  0  0  0
 27 28  1  0  0  0  0
 28 29  1  0  0  0  0
 29 30  1  0  0  0  0
 30 31  1  0  0  0  0
 31 32  1  0  0  0  0
 32 33  1  0  0  0  0
 33 34  1  0  0  0  0
 34 35  1  0  0  0  0
 35 36  1  0  0  0  0
 36 37  1  0  0  0  0
 37 38  1  0  0  0  0
 38 39  1  0  0  0  0
 34 39  1  0  0  0  0
 39 40  1  0  0  0  0
 31 40  1  0  0  0  0
 40 41  2  0  0  0  0
 41 42  1  0  0  0  0
 42 43  1  0  0  0  0
 30 43  1  0  0  0  0
 43 44  1  0  0  0  0
 27 44  1  0  0  0  0
 23 44  1  0  0  0  0
 44 45  1  1  0  0  0
 37 46  1  0  0  0  0
 37 47  1  0  0  0  0
 34 48  1  1  0  0  0
 31 49  1  6  0  0  0
 30 50  1  1  0  0  0
 26 51  1  6  0  0  0
 53 54  1  0  0  0  0
 54 55  1  0  0  0  0
 55 56  1  0  0  0  0
 56 57  2  0  0  0  0
 57 58  1  0  0  0  0
 53 58  1  0  0  0  0
 55 59  2  0  0  0  0
 57 60  1  0  0  0  0
 56 61  1  0  0  0  0
 53 52  1  1  0  0  0
 35 52  1  1  0  0  0
 25 65  1  1  0  0  0
 27 62  1  6  0  0  0
 39 63  1  1  0  0  0
 43 64  1  6  0  0  0
 26 77  1  1  0  0  0
 77 78  1  0  0  0  0
M  END
>  <cdx:fragmentId>
195797

$$$$
