164508.cdx
  Mrv1902 05222410272D          

 52 54  0  0  0  0            999 V2000
    9.8340   -9.5336    0.0000 N   0  0  0  0  0  0  0  0  0  0  0  0
    9.7064   -8.7185    0.0000 C   0  0  0  0  0  0  0  0  0  0  0  0
   10.1202   -8.0048    0.0000 C   0  0  0  0  0  0  0  0  0  0  0  0
    9.7090   -7.2896    0.0000 N   0  0  0  0  0  0  0  0  0  0  0  0
    8.8950   -7.2818    0.0000 C   0  0  0  0  0  0  0  0  0  0  0  0
    8.4837   -6.5666    0.0000 C   0  0  1  0  0  0  0  0  0  0  0  0
    7.6587   -6.5651    0.0000 N   0  0  0  0  0  0  0  0  0  0  0  0
    7.2475   -5.8499    0.0000 C   0  0  0  0  0  0  0  0  0  0  0  0
    6.4225   -5.8484    0.0000 C   0  0  0  0  0  0  0  0  0  0  0  0
    6.0088   -6.5621    0.0000 N   0  0  0  0  0  0  0  0  0  0  0  0
    5.1838   -6.5607    0.0000 C   0  0  0  0  0  0  0  0  0  0  0  0
    4.7700   -7.2744    0.0000 C   0  0  1  0  0  0  0  0  0  0  0  0
    5.1812   -7.9896    0.0000 N   0  0  0  0  0  0  0  0  0  0  0  0
    4.7674   -8.7033    0.0000 C   0  0  0  0  0  0  0  0  0  0  0  0
    5.1786   -9.4185    0.0000 C   0  0  0  0  0  0  0  0  0  0  0  0
    6.0036   -9.4200    0.0000 N   0  0  0  0  0  0  0  0  0  0  0  0
    6.4148  -10.1352    0.0000 C   0  0  0  0  0  0  0  0  0  0  0  0
    7.2398  -10.1367    0.0000 C   0  0  1  0  0  0  0  0  0  0  0  0
    7.6536   -9.4230    0.0000 N   0  0  0  0  0  0  0  0  0  0  0  0
    8.4786   -9.4245    0.0000 C   0  0  0  0  0  0  0  0  0  0  0  0
    9.1188   -9.9448    0.0000 C   0  0  2  0  0  0  0  0  0  0  0  0
    9.2889  -10.7521    0.0000 C   0  0  0  0  0  0  0  0  0  0  0  0
   10.1092  -10.8398    0.0000 C   0  0  0  0  0  0  0  0  0  0  0  0
   10.4461  -10.0867    0.0000 C   0  0  0  0  0  0  0  0  0  0  0  0
    8.9992   -8.2937    0.0000 O   0  0  0  0  0  0  0  0  0  0  0  0
    8.4812   -7.9955    0.0000 O   0  0  0  0  0  0  0  0  0  0  0  0
    7.6613   -5.1362    0.0000 O   0  0  0  0  0  0  0  0  0  0  0  0
    4.7725   -5.8455    0.0000 O   0  0  0  0  0  0  0  0  0  0  0  0
    3.9424   -8.7019    0.0000 O   0  0  0  0  0  0  0  0  0  0  0  0
    6.0011  -10.8490    0.0000 O   0  0  0  0  0  0  0  0  0  0  0  0
    8.6162   -8.6110    0.0000 O   0  0  0  0  0  0  0  0  0  0  0  0
    7.6511  -10.8519    0.0000 C   0  0  0  0  0  0  0  0  0  0  0  0
    7.2373  -11.5657    0.0000 C   0  0  0  0  0  0  0  0  0  0  0  0
    6.4123  -11.5642    0.0000 C   0  0  0  0  0  0  0  0  0  0  0  0
    7.6485  -12.2809    0.0000 C   0  0  0  0  0  0  0  0  0  0  0  0
    3.9450   -7.2729    0.0000 C   0  0  0  0  0  0  0  0  0  0  0  0
    3.5338   -6.5577    0.0000 C   0  0  0  0  0  0  0  0  0  0  0  0
    3.9475   -5.8440    0.0000 C   0  0  0  0  0  0  0  0  0  0  0  0
    2.7088   -6.5562    0.0000 C   0  0  0  0  0  0  0  0  0  0  0  0
    8.8975   -5.8529    0.0000 C   0  0  0  0  0  0  0  0  0  0  0  0
    9.7225   -5.8543    0.0000 C   0  0  0  0  0  0  0  0  0  0  0  0
   10.1363   -5.1406    0.0000 C   0  0  0  0  0  0  0  0  0  0  0  0
   10.9613   -5.1421    0.0000 C   0  0  0  0  0  0  0  0  0  0  0  0
   11.3725   -5.8573    0.0000 C   0  0  0  0  0  0  0  0  0  0  0  0
   10.9587   -6.5710    0.0000 C   0  0  0  0  0  0  0  0  0  0  0  0
   10.1337   -6.5695    0.0000 C   0  0  0  0  0  0  0  0  0  0  0  0
   12.1975   -5.8588    0.0000 O   0  0  0  0  0  0  0  0  0  0  0  0
    3.9398  -10.1308    0.0000 C   0  0  0  0  0  0  0  0  0  0  0  0
    4.7648  -10.1323    0.0000 C   0  0  1  0  0  0  0  0  0  0  0  0
    5.1761  -10.8475    0.0000 C   0  0  0  0  0  0  0  0  0  0  0  0
    4.7623  -11.5612    0.0000 C   0  0  0  0  0  0  0  0  0  0  0  0
    8.4146  -10.3746    0.0000 H   0  0  0  0  0  0  0  0  0  0  0  0
  1  2  1  0  0  0  0
  2  3  1  0  0  0  0
  3  4  1  0  0  0  0
  4  5  1  0  0  0  0
  5  6  1  0  0  0  0
  6  7  1  0  0  0  0
  7  8  1  0  0  0  0
  8  9  1  0  0  0  0
  9 10  1  0  0  0  0
 10 11  1  0  0  0  0
 11 12  1  0  0  0  0
 12 13  1  0  0  0  0
 13 14  1  0  0  0  0
 14 15  1  0  0  0  0
 15 16  1  0  0  0  0
 16 17  1  0  0  0  0
 17 18  1  0  0  0  0
 18 19  1  0  0  0  0
 19 20  1  0  0  0  0
 20 21  1  0  0  0  0
 21 22  1  0  0  0  0
 22 23  1  0  0  0  0
 23 24  1  0  0  0  0
  1 24  1  0  0  0  0
  1 21  1  0  0  0  0
  2 25  2  0  0  0  0
  5 26  2  0  0  0  0
  8 27  2  0  0  0  0
 11 28  2  0  0  0  0
 14 29  2  0  0  0  0
 17 30  2  0  0  0  0
 20 31  2  0  0  0  0
 32 33  1  0  0  0  0
 33 34  1  0  0  0  0
 33 35  1  0  0  0  0
 18 32  1  1  0  0  0
 36 37  1  0  0  0  0
 37 38  1  0  0  0  0
 37 39  1  0  0  0  0
 12 36  1  1  0  0  0
 41 42  1  0  0  0  0
 42 43  2  0  0  0  0
 43 44  1  0  0  0  0
 44 45  2  0  0  0  0
 45 46  1  0  0  0  0
 41 46  2  0  0  0  0
 44 47  1  0  0  0  0
 40 41  1  0  0  0  0
  6 40  1  1  0  0  0
 49 48  1  6  0  0  0
 49 50  1  0  0  0  0
 50 51  1  0  0  0  0
 15 49  1  0  0  0  0
 21 52  1  6  0  0  0
M  END
>  <cdx:fragmentId>
26927

$$$$
