164615.cdx
  Mrv1902 05222410222D          

 21 23  0  0  0  0            999 V2000
    8.8951  -13.0016    0.0000 O   0  0  0  0  0  0  0  0  0  0  0  0
    8.8951  -13.8266    0.0000 C   0  0  0  0  0  0  0  0  0  0  0  0
    8.1806  -14.2391    0.0000 C   0  0  0  0  0  0  0  0  0  0  0  0
    7.4662  -13.8266    0.0000 C   0  0  0  0  0  0  0  0  0  0  0  0
    6.7517  -14.2391    0.0000 C   0  0  0  0  0  0  0  0  0  0  0  0
    6.0372  -13.8266    0.0000 C   0  0  0  0  0  0  0  0  0  0  0  0
    6.0372  -13.0016    0.0000 C   0  0  0  0  0  0  0  0  0  0  0  0
    6.7517  -12.5891    0.0000 C   0  0  0  0  0  0  0  0  0  0  0  0
    7.4662  -13.0016    0.0000 C   0  0  0  0  0  0  0  0  0  0  0  0
    8.1806  -12.5891    0.0000 C   0  0  0  0  0  0  0  0  0  0  0  0
    8.1806  -11.7641    0.0000 O   0  0  0  0  0  0  0  0  0  0  0  0
    9.6096  -14.2391    0.0000 C   0  0  0  0  0  0  0  0  0  0  0  0
   10.3241  -13.8266    0.0000 C   0  0  0  0  0  0  0  0  0  0  0  0
   11.0385  -14.2391    0.0000 C   0  0  0  0  0  0  0  0  0  0  0  0
   11.0385  -15.0641    0.0000 C   0  0  0  0  0  0  0  0  0  0  0  0
   10.3241  -15.4766    0.0000 C   0  0  0  0  0  0  0  0  0  0  0  0
    9.6096  -15.0641    0.0000 C   0  0  0  0  0  0  0  0  0  0  0  0
   11.7530  -15.4766    0.0000 O   0  0  0  0  0  0  0  0  0  0  0  0
   12.4675  -15.0641    0.0000 C   0  0  0  0  0  0  0  0  0  0  0  0
   11.7530  -13.8266    0.0000 O   0  0  0  0  0  0  0  0  0  0  0  0
    6.7517  -11.7641    0.0000 O   0  0  0  0  0  0  0  0  0  0  0  0
  1  2  1  0  0  0  0
  2  3  1  0  0  0  0
  3  4  1  0  0  0  0
  4  5  1  0  0  0  0
  5  6  2  0  0  0  0
  6  7  1  0  0  0  0
  7  8  2  0  0  0  0
  8  9  1  0  0  0  0
  4  9  2  0  0  0  0
  9 10  1  0  0  0  0
  1 10  1  0  0  0  0
 10 11  2  0  0  0  0
 12 13  1  0  0  0  0
 13 14  2  0  0  0  0
 14 15  1  0  0  0  0
 15 16  2  0  0  0  0
 16 17  1  0  0  0  0
 12 17  2  0  0  0  0
 18 19  1  0  0  0  0
 15 18  1  0  0  0  0
 14 20  1  0  0  0  0
  2 12  1  0  0  0  0
  8 21  1  0  0  0  0
M  END
>  <cdx:fragmentId>
27467

$$$$
