16468.cdx
  Mrv1902 05222410192D          

 17 17  0  0  0  0            999 V2000
    4.3781   -9.2194    0.0000 C   0  0  0  0  0  0  0  0  0  0  0  0
    4.3781  -10.0444    0.0000 O   0  0  0  0  0  0  0  0  0  0  0  0
    5.1627  -10.2993    0.0000 C   0  0  0  0  0  0  0  0  0  0  0  0
    5.6477   -9.6319    0.0000 C   0  0  0  0  0  0  0  0  0  0  0  0
    5.1627   -8.9644    0.0000 C   0  0  0  0  0  0  0  0  0  0  0  0
    3.6636   -8.8069    0.0000 O   0  0  0  0  0  0  0  0  0  0  0  0
    5.3763  -11.0962    0.0000 O   0  0  0  0  0  0  0  0  0  0  0  0
    5.5752   -8.2500    0.0000 C   0  0  0  0  0  0  0  0  0  0  0  0
    6.4002   -8.2500    0.0000 C   0  0  0  0  0  0  0  0  0  0  0  0
    6.8127   -7.5355    0.0000 C   0  0  0  0  0  0  0  0  0  0  0  0
    7.6377   -7.5355    0.0000 C   0  0  0  0  0  0  0  0  0  0  0  0
    8.0502   -6.8210    0.0000 C   0  0  0  0  0  0  0  0  0  0  0  0
    8.8752   -6.8210    0.0000 C   0  0  0  0  0  0  0  0  0  0  0  0
    9.2877   -6.1066    0.0000 C   0  0  0  0  0  0  0  0  0  0  0  0
   10.1127   -6.1066    0.0000 C   0  0  0  0  0  0  0  0  0  0  0  0
   10.5252   -5.3921    0.0000 C   0  0  0  0  0  0  0  0  0  0  0  0
   11.3502   -5.3921    0.0000 C   0  0  0  0  0  0  0  0  0  0  0  0
  1  2  1  0  0  0  0
  2  3  1  0  0  0  0
  3  4  1  0  0  0  0
  4  5  1  0  0  0  0
  5  1  1  0  0  0  0
  1  6  2  0  0  0  0
  3  7  2  0  0  0  0
  5  8  1  0  0  0  0
  8  9  2  0  0  0  0
  9 10  1  0  0  0  0
 10 11  1  0  0  0  0
 11 12  1  0  0  0  0
 12 13  1  0  0  0  0
 13 14  1  0  0  0  0
 14 15  1  0  0  0  0
 15 16  1  0  0  0  0
 16 17  1  0  0  0  0
M  END
>  <cdx:fragmentId>
5

$$$$
