164610.cdx
  Mrv1902 05222410212D          

 20 23  0  0  0  0            999 V2000
    6.9813  -10.8297    0.0000 N   0  0  0  0  0  0  0  0  0  0  0  0
    7.4662  -10.1623    0.0000 C   0  0  0  0  0  0  0  0  0  0  0  0
    8.2912  -10.1623    0.0000 O   0  0  0  0  0  0  0  0  0  0  0  0
    6.9813   -9.4949    0.0000 C   0  0  0  0  0  0  0  0  0  0  0  0
    6.1967   -9.7498    0.0000 C   0  0  0  0  0  0  0  0  0  0  0  0
    5.4822   -9.3373    0.0000 C   0  0  0  0  0  0  0  0  0  0  0  0
    4.7677   -9.7498    0.0000 C   0  0  0  0  0  0  0  0  0  0  0  0
    4.7677  -10.5748    0.0000 C   0  0  0  0  0  0  0  0  0  0  0  0
    5.4822  -10.9873    0.0000 C   0  0  0  0  0  0  0  0  0  0  0  0
    6.1967  -10.5748    0.0000 C   0  0  0  0  0  0  0  0  0  0  0  0
    7.2362   -8.7102    0.0000 C   0  0  0  0  0  0  0  0  0  0  0  0
    8.0208   -8.4553    0.0000 C   0  0  0  0  0  0  0  0  0  0  0  0
    8.7353   -8.8678    0.0000 C   0  0  0  0  0  0  0  0  0  0  0  0
    9.4498   -8.4553    0.0000 C   0  0  0  0  0  0  0  0  0  0  0  0
    9.4498   -7.6303    0.0000 C   0  0  0  0  0  0  0  0  0  0  0  0
    8.7353   -7.2178    0.0000 C   0  0  0  0  0  0  0  0  0  0  0  0
    8.0208   -7.6303    0.0000 C   0  0  0  0  0  0  0  0  0  0  0  0
    7.2362   -7.3754    0.0000 N   0  0  0  0  0  0  0  0  0  0  0  0
    6.7513   -8.0428    0.0000 C   0  0  0  0  0  0  0  0  0  0  0  0
    5.9263   -8.0428    0.0000 O   0  0  0  0  0  0  0  0  0  0  0  0
  1  2  1  0  0  0  0
  2  3  2  0  0  0  0
  2  4  1  0  0  0  0
  4  5  1  0  0  0  0
  5  6  1  0  0  0  0
  6  7  2  0  0  0  0
  7  8  1  0  0  0  0
  8  9  2  0  0  0  0
  9 10  1  0  0  0  0
  1 10  1  0  0  0  0
  5 10  2  0  0  0  0
  4 11  2  0  0  0  0
 11 12  1  0  0  0  0
 12 13  1  0  0  0  0
 13 14  2  0  0  0  0
 14 15  1  0  0  0  0
 15 16  2  0  0  0  0
 16 17  1  0  0  0  0
 12 17  2  0  0  0  0
 17 18  1  0  0  0  0
 18 19  1  0  0  0  0
 19 20  2  0  0  0  0
 11 19  1  0  0  0  0
M  END
>  <cdx:groupId>
9479

>  <cdx:fragmentId>
9419

$$$$
