164676.cdx
  Mrv1902 05222410192D          

 22 25  0  0  0  0            999 V2000
    4.6032   -6.4045    0.0000 C   0  0  0  0  0  0  0  0  0  0  0  0
    4.6032   -7.2295    0.0000 C   0  0  0  0  0  0  0  0  0  0  0  0
    5.3177   -7.6421    0.0000 C   0  0  0  0  0  0  0  0  0  0  0  0
    6.0322   -7.2295    0.0000 C   0  0  0  0  0  0  0  0  0  0  0  0
    6.0322   -6.4045    0.0000 C   0  0  0  0  0  0  0  0  0  0  0  0
    5.3177   -5.9920    0.0000 C   0  0  0  0  0  0  0  0  0  0  0  0
    6.7467   -7.6421    0.0000 C   0  0  0  0  0  0  0  0  0  0  0  0
    7.4611   -7.2295    0.0000 C   0  0  0  0  0  0  0  0  0  0  0  0
    7.4611   -6.4045    0.0000 C   0  0  0  0  0  0  0  0  0  0  0  0
    6.7467   -5.9920    0.0000 C   0  0  0  0  0  0  0  0  0  0  0  0
    8.1756   -5.9920    0.0000 C   0  0  0  0  0  0  0  0  0  0  0  0
    8.1756   -5.1670    0.0000 C   0  0  0  0  0  0  0  0  0  0  0  0
    7.4611   -4.7545    0.0000 C   0  0  0  0  0  0  0  0  0  0  0  0
    6.7467   -5.1670    0.0000 C   0  0  0  0  0  0  0  0  0  0  0  0
    8.9603   -6.2470    0.0000 O   0  0  0  0  0  0  0  0  0  0  0  0
    9.4452   -5.5795    0.0000 C   0  0  0  0  0  0  0  0  0  0  0  0
    8.9603   -4.9120    0.0000 C   0  0  0  0  0  0  0  0  0  0  0  0
    6.0322   -4.7545    0.0000 O   0  0  0  0  0  0  0  0  0  0  0  0
    7.4611   -3.9295    0.0000 O   0  0  0  0  0  0  0  0  0  0  0  0
    9.2152   -4.1275    0.0000 C   0  0  0  0  0  0  0  0  0  0  0  0
    5.7302   -8.3565    0.0000 C   0  0  0  0  0  0  0  0  0  0  0  0
    4.9052   -8.3565    0.0000 C   0  0  0  0  0  0  0  0  0  0  0  0
  1  2  1  0  0  0  0
  2  3  1  0  0  0  0
  3  4  1  0  0  0  0
  4  5  2  0  0  0  0
  5  6  1  0  0  0  0
  6  1  1  0  0  0  0
  4  7  1  0  0  0  0
  7  8  2  0  0  0  0
  8  9  1  0  0  0  0
  9 10  2  0  0  0  0
 10  5  1  0  0  0  0
  9 11  1  0  0  0  0
 11 12  2  0  0  0  0
 12 13  1  0  0  0  0
 13 14  1  0  0  0  0
 14 10  1  0  0  0  0
 11 15  1  0  0  0  0
 15 16  1  0  0  0  0
 16 17  2  0  0  0  0
 17 12  1  0  0  0  0
 14 18  2  0  0  0  0
 13 19  2  0  0  0  0
 17 20  1  0  0  0  0
  3 21  1  0  0  0  0
  3 22  1  0  0  0  0
M  END
>  <cdx:fragmentId>
9665

$$$$
