164660.cdx
  Mrv1902 05222410202D          

 38 44  0  0  0  0            999 V2000
   15.0685  -19.8377    0.0000 C   0  0  0  0  0  0  0  0  0  0  0  0
   15.0685  -20.6627    0.0000 C   0  0  0  0  0  0  0  0  0  0  0  0
   15.7830  -21.0752    0.0000 C   0  0  0  0  0  0  0  0  0  0  0  0
   16.4975  -20.6627    0.0000 C   0  0  0  0  0  0  0  0  0  0  0  0
   16.4975  -19.8377    0.0000 C   0  0  0  0  0  0  0  0  0  0  0  0
   15.7830  -19.4252    0.0000 C   0  0  0  0  0  0  0  0  0  0  0  0
   14.3541  -19.4252    0.0000 C   0  0  0  0  0  0  0  0  0  0  0  0
   13.6396  -19.8377    0.0000 C   0  0  0  0  0  0  0  0  0  0  0  0
   13.6396  -20.6627    0.0000 C   0  0  0  0  0  0  0  0  0  0  0  0
   14.3541  -21.0752    0.0000 C   0  0  0  0  0  0  0  0  0  0  0  0
   14.3541  -21.9002    0.0000 C   0  0  0  0  0  0  0  0  0  0  0  0
   15.0685  -22.3127    0.0000 C   0  0  0  0  0  0  0  0  0  0  0  0
   15.7830  -21.9002    0.0000 C   0  0  0  0  0  0  0  0  0  0  0  0
   13.6396  -22.3127    0.0000 C   0  0  0  0  0  0  0  0  0  0  0  0
   13.6396  -23.1377    0.0000 C   0  0  0  0  0  0  0  0  0  0  0  0
   14.3541  -23.5502    0.0000 C   0  0  0  0  0  0  0  0  0  0  0  0
   15.0685  -23.1377    0.0000 C   0  0  0  0  0  0  0  0  0  0  0  0
   15.7830  -23.5502    0.0000 C   0  0  0  0  0  0  0  0  0  0  0  0
   16.4975  -23.1377    0.0000 C   0  0  0  0  0  0  0  0  0  0  0  0
   16.4975  -22.3127    0.0000 C   0  0  0  0  0  0  0  0  0  0  0  0
   17.2120  -23.5502    0.0000 C   0  0  0  0  0  0  0  0  0  0  0  0
   17.9265  -23.1377    0.0000 C   0  0  0  0  0  0  0  0  0  0  0  0
   17.9265  -22.3127    0.0000 C   0  0  0  0  0  0  0  0  0  0  0  0
   17.2120  -21.9002    0.0000 C   0  0  0  0  0  0  0  0  0  0  0  0
   17.2120  -21.0752    0.0000 C   0  0  0  0  0  0  0  0  0  0  0  0
   17.9265  -20.6627    0.0000 C   0  0  0  0  0  0  0  0  0  0  0  0
   17.9265  -19.8377    0.0000 C   0  0  0  0  0  0  0  0  0  0  0  0
   17.2120  -19.4252    0.0000 C   0  0  0  0  0  0  0  0  0  0  0  0
   17.2120  -18.6002    0.0000 O   0  0  0  0  0  0  0  0  0  0  0  0
   15.7830  -18.6002    0.0000 O   0  0  0  0  0  0  0  0  0  0  0  0
   14.3541  -18.6002    0.0000 O   0  0  0  0  0  0  0  0  0  0  0  0
   12.9252  -21.0752    0.0000 O   0  0  0  0  0  0  0  0  0  0  0  0
   12.9252  -21.9002    0.0000 O   0  0  0  0  0  0  0  0  0  0  0  0
   14.3541  -24.3752    0.0000 O   0  0  0  0  0  0  0  0  0  0  0  0
   15.7830  -24.3752    0.0000 O   0  0  0  0  0  0  0  0  0  0  0  0
   17.2120  -24.3752    0.0000 O   0  0  0  0  0  0  0  0  0  0  0  0
   18.6409  -21.9002    0.0000 C   0  0  0  0  0  0  0  0  0  0  0  0
   18.6409  -21.0752    0.0000 C   0  0  0  0  0  0  0  0  0  0  0  0
  1  2  1  0  0  0  0
  2  3  2  0  0  0  0
  3  4  1  0  0  0  0
  4  5  1  0  0  0  0
  5  6  1  0  0  0  0
  6  1  1  0  0  0  0
  1  7  2  0  0  0  0
  7  8  1  0  0  0  0
  8  9  2  0  0  0  0
  9 10  1  0  0  0  0
 10  2  1  0  0  0  0
 10 11  2  0  0  0  0
 11 12  1  0  0  0  0
 12 13  2  0  0  0  0
 13  3  1  0  0  0  0
 11 14  1  0  0  0  0
 14 15  2  0  0  0  0
 15 16  1  0  0  0  0
 16 17  2  0  0  0  0
 17 12  1  0  0  0  0
 17 18  1  0  0  0  0
 18 19  1  0  0  0  0
 19 20  1  0  0  0  0
 20 13  1  0  0  0  0
 19 21  2  0  0  0  0
 21 22  1  0  0  0  0
 22 23  2  0  0  0  0
 23 24  1  0  0  0  0
 24 20  2  0  0  0  0
  4 25  2  0  0  0  0
 25 26  1  0  0  0  0
 26 27  2  0  0  0  0
 27 28  1  0  0  0  0
 28  5  2  0  0  0  0
 28 29  1  0  0  0  0
  6 30  2  0  0  0  0
  7 31  1  0  0  0  0
  9 32  1  0  0  0  0
 14 33  1  0  0  0  0
 16 34  1  0  0  0  0
 18 35  2  0  0  0  0
 21 36  1  0  0  0  0
 23 37  1  0  0  0  0
 26 38  1  0  0  0  0
M  END
>  <cdx:fragmentId>
9596

$$$$
