164648.cdx
  Mrv1902 05222410202D          

 23 24  0  0  0  0            999 V2000
    5.9171   -8.2772    0.0000 O   0  0  0  0  0  0  0  0  0  0  0  0
    6.6306   -8.6915    0.0000 C   0  0  2  0  0  0  0  0  0  0  0  0
    6.6284   -9.5165    0.0000 C   0  0  1  0  0  0  0  0  0  0  0  0
    5.9129   -9.9272    0.0000 C   0  0  2  0  0  0  0  0  0  0  0  0
    5.1995   -9.5128    0.0000 C   0  0  1  0  0  0  0  0  0  0  0  0
    5.2016   -8.6878    0.0000 C   0  0  1  0  0  0  0  0  0  0  0  0
    4.4882   -8.2735    0.0000 C   0  0  0  0  0  0  0  0  0  0  0  0
    3.7727   -8.6841    0.0000 O   0  0  0  0  0  0  0  0  0  0  0  0
    4.4840   -9.9235    0.0000 O   0  0  0  0  0  0  0  0  0  0  0  0
    5.9108  -10.7522    0.0000 O   0  0  0  0  0  0  0  0  0  0  0  0
    7.3418   -9.9309    0.0000 O   0  0  0  0  0  0  0  0  0  0  0  0
    6.6412   -4.5665    0.0000 O   0  0  0  0  0  0  0  0  0  0  0  0
    9.4927   -7.0489    0.0000 C   0  0  0  0  0  0  0  0  0  0  0  0
    8.7772   -7.4596    0.0000 O   0  0  0  0  0  0  0  0  0  0  0  0
    7.3461   -8.2809    0.0000 O   0  0  0  0  0  0  0  0  0  0  0  0
    6.6369   -6.2165    0.0000 C   0  0  0  0  0  0  0  0  0  0  0  0
    6.6348   -7.0415    0.0000 C   0  0  0  0  0  0  0  0  0  0  0  0
    7.3482   -7.4559    0.0000 C   0  0  0  0  0  0  0  0  0  0  0  0
    8.0638   -7.0452    0.0000 C   0  0  0  0  0  0  0  0  0  0  0  0
    8.0659   -6.2202    0.0000 C   0  0  0  0  0  0  0  0  0  0  0  0
    7.3525   -5.8059    0.0000 C   0  0  0  0  0  0  0  0  0  0  0  0
    8.0701   -4.5702    0.0000 C   0  0  0  0  0  0  0  0  0  0  0  0
    7.3546   -4.9809    0.0000 C   0  0  0  0  0  0  0  0  0  0  0  0
 23 12  2  0  0  0  0
 23 21  1  0  0  0  0
 19 14  1  0  0  0  0
 14 13  1  0  0  0  0
 18 15  1  0  0  0  0
 21 16  2  0  0  0  0
 17 16  1  0  0  0  0
 18 17  2  0  0  0  0
 19 18  1  0  0  0  0
 20 19  2  0  0  0  0
 21 20  1  0  0  0  0
 23 22  1  0  0  0  0
  1  2  1  0  0  0  0
  2  3  1  0  0  0  0
  3  4  1  0  0  0  0
  4  5  1  0  0  0  0
  5  6  1  0  0  0  0
  1  6  1  0  0  0  0
  7  8  1  0  0  0  0
  6  7  1  1  0  0  0
  5  9  1  6  0  0  0
  4 10  1  1  0  0  0
  3 11  1  6  0  0  0
  2 15  1  1  0  0  0
M  END
>  <cdx:fragmentId>
23

$$$$
