16472.cdx
  Mrv1902 05222410282D          

 19 19  0  0  0  0            999 V2000
    5.1802   -5.2250    0.0000 C   0  0  0  0  0  0  0  0  0  0  0  0
    5.1802   -6.0500    0.0000 C   0  0  0  0  0  0  0  0  0  0  0  0
    5.8946   -6.4625    0.0000 C   0  0  0  0  0  0  0  0  0  0  0  0
    6.6091   -6.0500    0.0000 C   0  0  0  0  0  0  0  0  0  0  0  0
    6.6091   -5.2250    0.0000 C   0  0  0  0  0  0  0  0  0  0  0  0
    5.8946   -4.8125    0.0000 C   0  0  0  0  0  0  0  0  0  0  0  0
    4.4657   -4.8125    0.0000 O   0  0  0  0  0  0  0  0  0  0  0  0
    4.4657   -6.4625    0.0000 O   0  0  0  0  0  0  0  0  0  0  0  0
    7.3236   -4.8125    0.0000 C   0  0  0  0  0  0  0  0  0  0  0  0
   10.1814   -9.7625    0.0000 N   0  0  0  0  0  0  0  0  0  0  0  0
   10.1814   -8.9375    0.0000 C   0  0  0  0  0  0  0  0  0  0  0  0
    9.4670   -8.5250    0.0000 C   0  0  0  0  0  0  0  0  0  0  0  0
    9.4670   -7.7000    0.0000 C   0  0  0  0  0  0  0  0  0  0  0  0
    8.7525   -7.2875    0.0000 C   0  0  0  0  0  0  0  0  0  0  0  0
    8.7525   -6.4625    0.0000 N   0  0  0  0  0  0  0  0  0  0  0  0
    7.3236   -6.4625    0.0000 O   0  0  0  0  0  0  0  0  0  0  0  0
    8.0380   -6.0500    0.0000 C   0  0  0  0  0  0  0  0  0  0  0  0
    8.0380   -5.2250    0.0000 C   0  0  0  0  0  0  0  0  0  0  0  0
    3.7512   -5.2250    0.0000 C   0  0  0  0  0  0  0  0  0  0  0  0
  1  2  2  0  0  0  0
  2  3  1  0  0  0  0
  3  4  2  0  0  0  0
  4  5  1  0  0  0  0
  5  6  2  0  0  0  0
  6  1  1  0  0  0  0
  1  7  1  0  0  0  0
  2  8  1  0  0  0  0
  5  9  1  0  0  0  0
 11 10  1  0  0  0  0
  9 18  2  0  0  0  0
 12 11  1  0  0  0  0
 13 12  1  0  0  0  0
 14 13  1  0  0  0  0
 15 14  1  0  0  0  0
 17 15  1  0  0  0  0
 17 16  2  0  0  0  0
 18 17  1  0  0  0  0
  7 19  1  0  0  0  0
M  END
>  <cdx:fragmentId>
5

$$$$
