16471.cdx
  Mrv1902 05222410272D          

 19 19  0  0  0  0            999 V2000
    3.2002   -6.1875    0.0000 C   0  0  0  0  0  0  0  0  0  0  0  0
    3.2002   -7.0125    0.0000 C   0  0  0  0  0  0  0  0  0  0  0  0
    3.9146   -7.4250    0.0000 C   0  0  0  0  0  0  0  0  0  0  0  0
    4.6291   -7.0125    0.0000 C   0  0  0  0  0  0  0  0  0  0  0  0
    4.6291   -6.1875    0.0000 C   0  0  0  0  0  0  0  0  0  0  0  0
    3.9146   -5.7750    0.0000 C   0  0  0  0  0  0  0  0  0  0  0  0
    2.4857   -5.7750    0.0000 O   0  0  0  0  0  0  0  0  0  0  0  0
    2.4857   -7.4250    0.0000 O   0  0  0  0  0  0  0  0  0  0  0  0
    5.3436   -5.7750    0.0000 C   0  0  0  0  0  0  0  0  0  0  0  0
    6.0580   -6.1875    0.0000 C   0  0  0  0  0  0  0  0  0  0  0  0
    6.7725   -5.7750    0.0000 C   0  0  0  0  0  0  0  0  0  0  0  0
    6.7725   -4.9500    0.0000 O   0  0  0  0  0  0  0  0  0  0  0  0
    7.4870   -6.1875    0.0000 N   0  0  0  0  0  0  0  0  0  0  0  0
    8.2015   -5.7750    0.0000 C   0  0  0  0  0  0  0  0  0  0  0  0
    8.9159   -6.1875    0.0000 C   0  0  0  0  0  0  0  0  0  0  0  0
    9.6304   -5.7750    0.0000 C   0  0  0  0  0  0  0  0  0  0  0  0
   10.3449   -6.1875    0.0000 C   0  0  0  0  0  0  0  0  0  0  0  0
   11.0593   -5.7750    0.0000 N   0  0  0  0  0  0  0  0  0  0  0  0
    1.7712   -6.1875    0.0000 C   0  0  0  0  0  0  0  0  0  0  0  0
  1  2  2  0  0  0  0
  2  3  1  0  0  0  0
  3  4  2  0  0  0  0
  4  5  1  0  0  0  0
  5  6  2  0  0  0  0
  6  1  1  0  0  0  0
  1  7  1  0  0  0  0
  2  8  1  0  0  0  0
  5  9  1  0  0  0  0
  9 10  2  0  0  0  0
 10 11  1  0  0  0  0
 11 12  2  0  0  0  0
 11 13  1  0  0  0  0
 13 14  1  0  0  0  0
 14 15  1  0  0  0  0
 15 16  1  0  0  0  0
 16 17  1  0  0  0  0
 17 18  1  0  0  0  0
  7 19  1  0  0  0  0
M  END
>  <cdx:fragmentId>
5

$$$$
