165.cdx
  Mrv1902 05222410212D          

 31 32  0  0  0  0            999 V2000
   12.6916   -8.3119    0.0000 O   0  0  0  0  0  0  0  0  0  0  0  0
   12.6916   -6.6619    0.0000 O   0  0  0  0  0  0  0  0  0  0  0  0
    6.2614   -7.8994    0.0000 O   0  0  0  0  0  0  0  0  0  0  0  0
    6.9759   -8.3119    0.0000 C   0  0  0  0  0  0  0  0  0  0  0  0
    7.6903   -7.8994    0.0000 O   0  0  0  0  0  0  0  0  0  0  0  0
    6.9759   -9.1369    0.0000 C   0  0  0  0  0  0  0  0  0  0  0  0
    4.1180   -5.8369    0.0000 O   0  0  0  0  0  0  0  0  0  0  0  0
    8.4048   -5.8369    0.0000 O   0  0  0  0  0  0  0  0  0  0  0  0
    1.2601   -6.6619    0.0000 C   0  0  0  0  0  0  0  0  0  0  0  0
    0.5456   -7.0744    0.0000 C   0  0  0  0  0  0  0  0  0  0  0  0
    0.5456   -7.8994    0.0000 C   0  0  0  0  0  0  0  0  0  0  0  0
    1.2601   -8.3119    0.0000 C   0  0  0  0  0  0  0  0  0  0  0  0
    1.9746   -7.8994    0.0000 C   0  0  0  0  0  0  0  0  0  0  0  0
    1.9746   -7.0744    0.0000 C   0  0  0  0  0  0  0  0  0  0  0  0
    2.6890   -6.6619    0.0000 C   0  0  0  0  0  0  0  0  0  0  0  0
    3.4035   -7.0744    0.0000 C   0  0  0  0  0  0  0  0  0  0  0  0
    4.1180   -6.6619    0.0000 C   0  0  0  0  0  0  0  0  0  0  0  0
    4.8324   -7.0744    0.0000 O   0  0  0  0  0  0  0  0  0  0  0  0
    5.5469   -6.6619    0.0000 C   0  0  0  0  0  0  0  0  0  0  0  0
    6.2614   -7.0744    0.0000 C   0  0  3  0  0  0  0  0  0  0  0  0
    6.9759   -6.6619    0.0000 C   0  0  0  0  0  0  0  0  0  0  0  0
    7.6903   -7.0744    0.0000 O   0  0  0  0  0  0  0  0  0  0  0  0
    8.4048   -6.6619    0.0000 C   0  0  0  0  0  0  0  0  0  0  0  0
    9.1193   -7.0744    0.0000 C   0  0  0  0  0  0  0  0  0  0  0  0
    9.8337   -6.6619    0.0000 C   0  0  0  0  0  0  0  0  0  0  0  0
   11.2627   -6.6619    0.0000 C   0  0  0  0  0  0  0  0  0  0  0  0
   10.5482   -7.0744    0.0000 C   0  0  0  0  0  0  0  0  0  0  0  0
   10.5482   -7.8994    0.0000 C   0  0  0  0  0  0  0  0  0  0  0  0
   11.2627   -8.3119    0.0000 C   0  0  0  0  0  0  0  0  0  0  0  0
   11.9772   -7.8994    0.0000 C   0  0  0  0  0  0  0  0  0  0  0  0
   11.9772   -7.0744    0.0000 C   0  0  0  0  0  0  0  0  0  0  0  0
 30  1  1  0  0  0  0
 31  2  1  0  0  0  0
  3  4  1  0  0  0  0
  4  5  2  0  0  0  0
 17  7  2  0  0  0  0
 23  8  2  0  0  0  0
 20  3  1  4  0  0  0
  4  6  1  0  0  0  0
  9 14  1  0  0  0  0
 10  9  2  0  0  0  0
 11 10  1  0  0  0  0
 12 11  2  0  0  0  0
 13 12  1  0  0  0  0
 14 13  2  0  0  0  0
 15 14  1  0  0  0  0
 16 15  2  0  0  0  0
 17 16  1  0  0  0  0
 18 17  1  0  0  0  0
 19 18  1  0  0  0  0
 20 19  1  0  0  0  0
 21 20  1  0  0  0  0
 22 21  1  0  0  0  0
 23 22  1  0  0  0  0
 24 23  1  0  0  0  0
 25 24  2  0  0  0  0
 27 25  1  0  0  0  0
 26 31  2  0  0  0  0
 27 26  1  0  0  0  0
 28 27  2  0  0  0  0
 29 28  1  0  0  0  0
 30 29  2  0  0  0  0
 31 30  1  0  0  0  0
M  END
>  <cdx:fragmentId>
1101

$$$$
