16522.cdx
  Mrv1902 05222410182D          

 14 14  0  0  0  0            999 V2000
    8.4720   -4.7308    0.0000 C   0  0  0  0  0  0  0  0  0  0  0  0
    7.7575   -5.1433    0.0000 C   0  0  0  0  0  0  0  0  0  0  0  0
    7.0430   -4.7308    0.0000 C   0  0  0  0  0  0  0  0  0  0  0  0
    6.3285   -5.1433    0.0000 C   0  0  0  0  0  0  0  0  0  0  0  0
    6.3285   -5.9683    0.0000 C   0  0  0  0  0  0  0  0  0  0  0  0
    7.0430   -6.3808    0.0000 C   0  0  0  0  0  0  0  0  0  0  0  0
    7.7575   -5.9683    0.0000 C   0  0  0  0  0  0  0  0  0  0  0  0
    8.4720   -3.9058    0.0000 O   0  0  0  0  0  0  0  0  0  0  0  0
    9.1864   -5.1433    0.0000 O   0  0  0  0  0  0  0  0  0  0  0  0
    5.6141   -6.3808    0.0000 O   0  0  0  0  0  0  0  0  0  0  0  0
    4.8996   -5.9683    0.0000 C   0  0  0  0  0  0  0  0  0  0  0  0
    5.6141   -4.7308    0.0000 O   0  0  0  0  0  0  0  0  0  0  0  0
    4.8996   -5.1433    0.0000 C   0  0  0  0  0  0  0  0  0  0  0  0
    9.9009   -4.7308    0.0000 C   0  0  0  0  0  0  0  0  0  0  0  0
  1  2  1  0  0  0  0
  2  3  1  0  0  0  0
  3  4  2  0  0  0  0
  4  5  1  0  0  0  0
  5  6  2  0  0  0  0
  6  7  1  0  0  0  0
  2  7  2  0  0  0  0
  1  8  2  0  0  0  0
  1  9  1  0  0  0  0
 10 11  1  0  0  0  0
  5 10  1  0  0  0  0
 12 13  1  0  0  0  0
  4 12  1  0  0  0  0
  9 14  1  0  0  0  0
M  END
>  <cdx:fragmentId>
5

$$$$
