165274.cdx
  Mrv1902 05222410242D          

 24 27  0  0  0  0            999 V2000
    5.2608   -8.3661    0.0000 O   0  0  0  0  0  0  0  0  0  0  0  0
    4.7763   -7.6983    0.0000 C   0  0  0  0  0  0  0  0  0  0  0  0
    5.2616   -7.0312    0.0000 O   0  0  0  0  0  0  0  0  0  0  0  0
    6.0461   -7.2866    0.0000 C   0  0  0  0  0  0  0  0  0  0  0  0
    6.0456   -8.1116    0.0000 C   0  0  0  0  0  0  0  0  0  0  0  0
    6.7608   -6.8745    0.0000 C   0  0  0  0  0  0  0  0  0  0  0  0
    7.4750   -7.2874    0.0000 C   0  0  0  0  0  0  0  0  0  0  0  0
    7.4746   -8.1124    0.0000 C   0  0  0  0  0  0  0  0  0  0  0  0
    6.7598   -8.5245    0.0000 C   0  0  0  0  0  0  0  0  0  0  0  0
    8.1888   -8.5253    0.0000 C   0  0  0  0  0  0  0  0  0  0  0  0
    8.1883   -9.3503    0.0000 C   0  0  0  0  0  0  0  0  0  0  0  0
    7.4736   -9.7624    0.0000 C   0  0  0  0  0  0  0  0  0  0  0  0
    7.4731  -10.5874    0.0000 C   0  0  0  0  0  0  0  0  0  0  0  0
    6.7584  -10.9995    0.0000 C   0  0  0  0  0  0  0  0  0  0  0  0
    6.0442  -10.5866    0.0000 C   0  0  0  0  0  0  0  0  0  0  0  0
    6.0447   -9.7616    0.0000 C   0  0  0  0  0  0  0  0  0  0  0  0
    6.7594   -9.3495    0.0000 C   0  0  0  0  0  0  0  0  0  0  0  0
    8.1073   -6.7575    0.0000 C   0  0  0  0  0  0  0  0  0  0  0  0
    8.8824   -7.0401    0.0000 O   0  0  0  0  0  0  0  0  0  0  0  0
    7.9646   -5.9449    0.0000 O   0  0  0  0  0  0  0  0  0  0  0  0
    8.9642   -8.2436    0.0000 N   0  3  0  0  0  0  0  0  0  0  0  0
    9.5959   -8.7743    0.0000 O   0  0  0  0  0  0  0  0  0  0  0  0
    9.1079   -7.4313    0.0000 O   0  5  0  0  0  0  0  0  0  0  0  0
    5.3295  -10.9987    0.0000 O   0  0  0  0  0  0  0  0  0  0  0  0
  1  2  1  0  0  0  0
  2  3  1  0  0  0  0
  3  4  1  0  0  0  0
  4  5  1  0  0  0  0
  1  5  1  0  0  0  0
  6  7  1  0  0  0  0
  7  8  2  0  0  0  0
  8  9  1  0  0  0  0
  9  5  2  0  0  0  0
  6  4  2  0  0  0  0
 10 11  2  0  0  0  0
 11 12  1  0  0  0  0
 12 13  2  0  0  0  0
 13 14  1  0  0  0  0
 14 15  2  0  0  0  0
 15 16  1  0  0  0  0
 16 17  2  0  0  0  0
 12 17  1  0  0  0  0
 10  8  1  0  0  0  0
 17  9  1  0  0  0  0
 18 19  2  0  0  0  0
 18 20  1  0  0  0  0
  7 18  1  0  0  0  0
 21 22  2  0  0  0  0
 21 23  1  0  0  0  0
 10 21  1  0  0  0  0
 15 24  1  0  0  0  0
M  CHG  2  21   1  23  -1
M  END
>  <cdx:fragmentId>
5

$$$$
