1653.cdx
  Mrv1902 05222410182D          

 34 37  0  0  0  0            999 V2000
    1.4883   -5.8988    0.0000 O   0  0  0  0  0  0  0  0  0  0  0  0
    2.2027   -7.1362    0.0000 O   0  0  0  0  0  0  0  0  0  0  0  0
    2.9172   -6.7237    0.0000 C   0  0  2  0  0  0  0  0  0  0  0  0
    2.9172   -5.8988    0.0000 C   0  0  1  0  0  0  0  0  0  0  0  0
    2.2027   -5.4863    0.0000 C   0  0  0  0  0  0  0  0  0  0  0  0
    3.6317   -7.1362    0.0000 C   0  0  1  0  0  0  0  0  0  0  0  0
    4.3462   -6.7237    0.0000 C   0  0  2  0  0  0  0  0  0  0  0  0
    4.3462   -5.8988    0.0000 C   0  0  1  0  0  0  0  0  0  0  0  0
    3.6317   -5.4863    0.0000 O   0  0  0  0  0  0  0  0  0  0  0  0
    5.0606   -7.1362    0.0000 O   0  0  0  0  0  0  0  0  0  0  0  0
    5.7751   -6.7237    0.0000 C   0  0  0  0  0  0  0  0  0  0  0  0
    5.7751   -5.8988    0.0000 C   0  0  0  0  0  0  0  0  0  0  0  0
    5.0606   -5.4863    0.0000 O   0  0  0  0  0  0  0  0  0  0  0  0
    6.4896   -7.1362    0.0000 C   0  0  0  0  0  0  0  0  0  0  0  0
    7.2040   -6.7237    0.0000 C   0  0  0  0  0  0  0  0  0  0  0  0
    7.2040   -5.8988    0.0000 C   0  0  0  0  0  0  0  0  0  0  0  0
    6.4896   -5.4863    0.0000 C   0  0  0  0  0  0  0  0  0  0  0  0
    7.9185   -7.1362    0.0000 C   0  0  0  0  0  0  0  0  0  0  0  0
    8.6330   -6.7237    0.0000 C   0  0  1  0  0  0  0  0  0  0  0  0
    8.6330   -5.8988    0.0000 C   0  0  0  0  0  0  0  0  0  0  0  0
    7.9185   -5.4863    0.0000 O   0  0  0  0  0  0  0  0  0  0  0  0
    9.3475   -7.1362    0.0000 C   0  0  0  0  0  0  0  0  0  0  0  0
   10.0619   -6.7237    0.0000 C   0  0  0  0  0  0  0  0  0  0  0  0
    9.3475   -7.9612    0.0000 C   0  0  0  0  0  0  0  0  0  0  0  0
   10.0619   -8.3737    0.0000 C   0  0  0  0  0  0  0  0  0  0  0  0
   10.7764   -7.9612    0.0000 C   0  0  0  0  0  0  0  0  0  0  0  0
   10.7764   -7.1362    0.0000 C   0  0  0  0  0  0  0  0  0  0  0  0
   11.4909   -8.3737    0.0000 O   0  0  0  0  0  0  0  0  0  0  0  0
   12.2053   -7.1362    0.0000 C   0  0  0  0  0  0  0  0  0  0  0  0
   11.4909   -6.7237    0.0000 O   0  0  0  0  0  0  0  0  0  0  0  0
   11.4909   -9.1987    0.0000 C   0  0  0  0  0  0  0  0  0  0  0  0
    3.6317   -7.9612    0.0000 O   0  0  0  0  0  0  0  0  0  0  0  0
   10.0619   -5.8988    0.0000 O   0  0  0  0  0  0  0  0  0  0  0  0
    9.3475   -6.3113    0.0000 H   0  0  0  0  0  0  0  0  0  0  0  0
  3  2  1  6  0  0  0
  3  4  1  0  0  0  0
  4  5  1  1  0  0  0
  5  1  1  0  0  0  0
  3  6  1  0  0  0  0
  6  7  1  0  0  0  0
  7  8  1  0  0  0  0
  8  9  1  0  0  0  0
  9  4  1  0  0  0  0
  7 10  1  6  0  0  0
 11 12  1  0  0  0  0
 12 13  1  0  0  0  0
  8 13  1  1  0  0  0
 11 14  2  0  0  0  0
 14 15  1  0  0  0  0
 15 16  2  0  0  0  0
 16 17  1  0  0  0  0
 17 12  2  0  0  0  0
 15 18  1  0  0  0  0
 18 19  1  0  0  0  0
 19 20  1  0  0  0  0
 20 21  1  0  0  0  0
 21 16  1  0  0  0  0
 19 22  1  0  0  0  0
 22 23  1  0  0  0  0
 22 24  2  0  0  0  0
 24 25  1  0  0  0  0
 25 26  2  0  0  0  0
 26 27  1  0  0  0  0
 27 23  2  0  0  0  0
 26 28  1  0  0  0  0
 29 30  1  0  0  0  0
 30 27  1  0  0  0  0
 28 31  1  0  0  0  0
  6 32  1  1  0  0  0
 23 33  1  0  0  0  0
 19 34  1  6  0  0  0
M  END
>  <cdx:fragmentId>
5

$$$$
