102165492.cdx
  Mrv1902 05222410202D          

 25 27  0  0  0  0            999 V2000
    5.4557  -13.3815    0.0000 C   0  0  0  0  0  0  0  0  0  0  0  0
    5.4557  -14.2065    0.0000 C   0  0  0  0  0  0  0  0  0  0  0  0
    6.1702  -14.6190    0.0000 C   0  0  0  0  0  0  0  0  0  0  0  0
    6.8846  -14.2065    0.0000 C   0  0  0  0  0  0  0  0  0  0  0  0
    7.5991  -14.6190    0.0000 C   0  0  0  0  0  0  0  0  0  0  0  0
    8.3136  -14.2065    0.0000 C   0  0  0  0  0  0  0  0  0  0  0  0
    8.3136  -13.3815    0.0000 C   0  0  0  0  0  0  0  0  0  0  0  0
    7.5991  -12.9690    0.0000 C   0  0  0  0  0  0  0  0  0  0  0  0
    6.8846  -13.3815    0.0000 C   0  0  0  0  0  0  0  0  0  0  0  0
    6.1702  -12.9690    0.0000 O   0  0  0  0  0  0  0  0  0  0  0  0
    9.0982  -13.1266    0.0000 O   0  0  0  0  0  0  0  0  0  0  0  0
    9.0982  -14.4614    0.0000 C   0  0  0  0  0  0  0  0  0  0  0  0
    9.5831  -13.7940    0.0000 C   0  0  0  0  0  0  0  0  0  0  0  0
    4.7412  -12.9690    0.0000 O   0  0  0  0  0  0  0  0  0  0  0  0
    7.5991  -12.1440    0.0000 O   0  0  0  0  0  0  0  0  0  0  0  0
    8.3136  -11.7315    0.0000 C   0  0  0  0  0  0  0  0  0  0  0  0
    7.5991  -15.4440    0.0000 O   0  0  0  0  0  0  0  0  0  0  0  0
    8.3136  -15.8565    0.0000 C   0  0  0  0  0  0  0  0  0  0  0  0
    8.3136  -16.6815    0.0000 C   0  0  0  0  0  0  0  0  0  0  0  0
    9.0280  -17.0940    0.0000 C   0  0  0  0  0  0  0  0  0  0  0  0
    9.4405  -16.3795    0.0000 C   0  0  0  0  0  0  0  0  0  0  0  0
    9.8530  -17.0940    0.0000 C   0  0  0  0  0  0  0  0  0  0  0  0
    9.0280  -17.9190    0.0000 O   0  0  0  0  0  0  0  0  0  0  0  0
    9.7425  -18.3315    0.0000 C   0  0  0  0  0  0  0  0  0  0  0  0
    7.5991  -17.0940    0.0000 O   0  0  0  0  0  0  0  0  0  0  0  0
  1  2  1  0  0  0  0
  2  3  2  0  0  0  0
  3  4  1  0  0  0  0
  4  5  2  0  0  0  0
  5  6  1  0  0  0  0
  6  7  2  0  0  0  0
  7  8  1  0  0  0  0
  8  9  2  0  0  0  0
  4  9  1  0  0  0  0
  9 10  1  0  0  0  0
  1 10  1  0  0  0  0
 12 13  2  0  0  0  0
 11 13  1  0  0  0  0
 12  6  1  0  0  0  0
 11  7  1  0  0  0  0
  1 14  2  0  0  0  0
 15 16  1  0  0  0  0
  8 15  1  0  0  0  0
 18 19  1  0  0  0  0
 19 20  1  0  0  0  0
 20 21  1  0  0  0  0
 17 18  1  0  0  0  0
 20 22  1  0  0  0  0
 23 24  1  0  0  0  0
 20 23  1  0  0  0  0
 19 25  1  0  0  0  0
  5 17  1  0  0  0  0
M  END
>  <cdx:groupId>
22363

>  <cdx:fragmentId>
22289

$$$$
