102165494.cdx
  Mrv1902 05222410222D          

 43 49  0  0  0  0            999 V2000
    4.2100  -17.8018    0.0000 C   0  0  0  0  0  0  0  0  0  0  0  0
    4.2100  -18.6268    0.0000 C   0  0  0  0  0  0  0  0  0  0  0  0
    4.9245  -19.0393    0.0000 C   0  0  0  0  0  0  0  0  0  0  0  0
    5.6389  -18.6268    0.0000 C   0  0  0  0  0  0  0  0  0  0  0  0
    6.3534  -19.0393    0.0000 C   0  0  0  0  0  0  0  0  0  0  0  0
    7.0679  -18.6268    0.0000 C   0  0  0  0  0  0  0  0  0  0  0  0
    7.0679  -17.8018    0.0000 C   0  0  0  0  0  0  0  0  0  0  0  0
    6.3534  -17.3893    0.0000 C   0  0  0  0  0  0  0  0  0  0  0  0
    5.6389  -17.8018    0.0000 C   0  0  0  0  0  0  0  0  0  0  0  0
    4.9245  -17.3893    0.0000 O   0  0  0  0  0  0  0  0  0  0  0  0
    7.8525  -17.5469    0.0000 O   0  0  0  0  0  0  0  0  0  0  0  0
    7.8525  -18.8818    0.0000 C   0  0  0  0  0  0  0  0  0  0  0  0
    8.3374  -18.2143    0.0000 C   0  0  0  0  0  0  0  0  0  0  0  0
    3.4955  -17.3893    0.0000 O   0  0  0  0  0  0  0  0  0  0  0  0
    6.3534  -19.8643    0.0000 O   0  0  0  0  0  0  0  0  0  0  0  0
    7.0679  -20.2768    0.0000 C   0  0  0  0  0  0  0  0  0  0  0  0
    6.3534  -16.5643    0.0000 O   0  0  0  0  0  0  0  0  0  0  0  0
    7.0679  -16.1518    0.0000 C   0  0  0  0  0  0  0  0  0  0  0  0
    6.6554  -14.0573    0.0000 O   0  0  0  0  0  0  0  0  0  0  0  0
    7.4804  -14.0573    0.0000 C   0  0  0  0  0  0  0  0  0  0  0  0
    7.7353  -14.8419    0.0000 O   0  0  0  0  0  0  0  0  0  0  0  0
    7.0679  -15.3268    0.0000 C   0  0  0  0  0  0  0  0  0  0  0  0
    6.4004  -14.8419    0.0000 C   0  0  0  0  0  0  0  0  0  0  0  0
    7.1448  -13.3036    0.0000 C   0  0  0  0  0  0  0  0  0  0  0  0
    7.6297  -12.6362    0.0000 C   0  0  0  0  0  0  0  0  0  0  0  0
    8.4502  -12.7224    0.0000 C   0  0  0  0  0  0  0  0  0  0  0  0
    8.9352  -12.0550    0.0000 C   0  0  0  0  0  0  0  0  0  0  0  0
    9.7556  -12.1412    0.0000 C   0  0  0  0  0  0  0  0  0  0  0  0
   10.0912  -12.8949    0.0000 C   0  0  0  0  0  0  0  0  0  0  0  0
    9.6063  -13.5623    0.0000 C   0  0  0  0  0  0  0  0  0  0  0  0
    8.7858  -13.4761    0.0000 C   0  0  0  0  0  0  0  0  0  0  0  0
    8.3009  -14.1435    0.0000 O   0  0  0  0  0  0  0  0  0  0  0  0
   10.9117  -12.8086    0.0000 O   0  0  0  0  0  0  0  0  0  0  0  0
   10.3687  -11.5892    0.0000 C   0  0  0  0  0  0  0  0  0  0  0  0
   11.0832  -12.0017    0.0000 C   0  0  0  0  0  0  0  0  0  0  0  0
    8.5996  -11.3013    0.0000 O   0  0  0  0  0  0  0  0  0  0  0  0
    7.7791  -11.2150    0.0000 C   0  0  0  0  0  0  0  0  0  0  0  0
    7.4436  -10.4614    0.0000 C   0  0  0  0  0  0  0  0  0  0  0  0
    6.6231  -10.3751    0.0000 C   0  0  0  0  0  0  0  0  0  0  0  0
    6.2875   -9.6215    0.0000 C   0  0  0  0  0  0  0  0  0  0  0  0
    6.1382  -11.0426    0.0000 C   0  0  0  0  0  0  0  0  0  0  0  0
    5.8484  -15.4550    0.0000 C   0  0  0  0  0  0  0  0  0  0  0  0
    5.5935  -14.6704    0.0000 C   0  0  0  0  0  0  0  0  0  0  0  0
  1  2  1  0  0  0  0
  2  3  2  0  0  0  0
  3  4  1  0  0  0  0
  4  5  2  0  0  0  0
  5  6  1  0  0  0  0
  6  7  2  0  0  0  0
  7  8  1  0  0  0  0
  8  9  2  0  0  0  0
  4  9  1  0  0  0  0
  9 10  1  0  0  0  0
  1 10  1  0  0  0  0
 12 13  2  0  0  0  0
 11 13  1  0  0  0  0
 12  6  1  0  0  0  0
 11  7  1  0  0  0  0
  1 14  2  0  0  0  0
 15 16  1  0  0  0  0
  5 15  1  0  0  0  0
 17 18  1  0  0  0  0
 19 20  1  0  0  0  0
 20 21  1  0  0  0  0
 21 22  1  0  0  0  0
 22 23  1  0  0  0  0
 19 23  1  0  0  0  0
 24 25  2  0  0  0  0
 25 26  1  0  0  0  0
 26 27  2  0  0  0  0
 27 28  1  0  0  0  0
 28 29  2  0  0  0  0
 29 30  1  0  0  0  0
 30 31  2  0  0  0  0
 26 31  1  0  0  0  0
 31 32  1  0  0  0  0
 34 35  2  0  0  0  0
 33 35  1  0  0  0  0
 34 28  1  0  0  0  0
 33 29  1  0  0  0  0
 24 20  1  0  0  0  0
 32 20  1  0  0  0  0
 37 38  1  0  0  0  0
 38 39  2  0  0  0  0
 39 40  1  0  0  0  0
 36 37  1  0  0  0  0
 39 41  1  0  0  0  0
 27 36  1  0  0  0  0
 23 42  1  0  0  0  0
 23 43  1  0  0  0  0
 18 22  1  0  0  0  0
  8 17  1  0  0  0  0
M  END
>  <cdx:groupId>
22505

>  <cdx:fragmentId>
22419

$$$$
