165577.cdx
  Mrv1902 05222410282D          

 35 35  0  0  0  0            999 V2000
   12.5878  -22.7087    0.0000 C   0  0  0  0  0  0  0  0  0  0  0  0
   12.3742  -21.9118    0.0000 O   0  0  0  0  0  0  0  0  0  0  0  0
   12.2179  -24.0890    0.0000 N   0  0  0  0  0  0  0  0  0  0  0  0
   12.0044  -23.2920    0.0000 C   0  0  1  0  0  0  0  0  0  0  0  0
   11.2075  -23.0785    0.0000 C   0  0  1  0  0  0  0  0  0  0  0  0
   10.6241  -23.6619    0.0000 C   0  0  0  0  0  0  0  0  0  0  0  0
   10.9940  -22.2817    0.0000 O   0  0  0  0  0  0  0  0  0  0  0  0
   14.0398  -21.6537    0.0000 C   0  0  0  0  0  0  0  0  0  0  0  0
   13.3253  -21.2412    0.0000 O   0  0  0  0  0  0  0  0  0  0  0  0
   13.3723  -22.9636    0.0000 N   0  0  0  0  0  0  0  0  0  0  0  0
   14.0398  -22.4787    0.0000 C   0  0  1  0  0  0  0  0  0  0  0  0
   14.7072  -22.9636    0.0000 C   0  0  0  0  0  0  0  0  0  0  0  0
   14.4523  -23.7482    0.0000 C   0  0  0  0  0  0  0  0  0  0  0  0
   13.6273  -23.7482    0.0000 C   0  0  0  0  0  0  0  0  0  0  0  0
   15.4688  -20.0037    0.0000 C   0  0  0  0  0  0  0  0  0  0  0  0
   15.4688  -19.1787    0.0000 O   0  0  0  0  0  0  0  0  0  0  0  0
   14.7543  -21.2412    0.0000 N   0  0  0  0  0  0  0  0  0  0  0  0
   14.7543  -20.4162    0.0000 C   0  0  1  0  0  0  0  0  0  0  0  0
   14.0398  -20.0037    0.0000 C   0  0  0  0  0  0  0  0  0  0  0  0
   13.3253  -20.4162    0.0000 C   0  0  0  0  0  0  0  0  0  0  0  0
   12.6108  -20.0037    0.0000 C   0  0  0  0  0  0  0  0  0  0  0  0
   11.8964  -20.4162    0.0000 N   0  0  0  0  0  0  0  0  0  0  0  0
   11.1819  -20.0037    0.0000 C   0  0  0  0  0  0  0  0  0  0  0  0
   11.1819  -19.1787    0.0000 N   0  0  0  0  0  0  0  0  0  0  0  0
   10.4675  -20.4162    0.0000 N   0  0  0  0  0  0  0  0  0  0  0  0
   16.8977  -19.1787    0.0000 C   0  0  0  0  0  0  0  0  0  0  0  0
   16.1832  -18.7662    0.0000 O   0  0  0  0  0  0  0  0  0  0  0  0
   16.1832  -20.4162    0.0000 N   0  0  0  0  0  0  0  0  0  0  0  0
   16.8977  -20.0037    0.0000 C   0  0  1  0  0  0  0  0  0  0  0  0
   17.6121  -20.4162    0.0000 C   0  0  0  0  0  0  0  0  0  0  0  0
   18.3266  -20.0037    0.0000 C   0  0  0  0  0  0  0  0  0  0  0  0
   19.0411  -20.4162    0.0000 C   0  0  0  0  0  0  0  0  0  0  0  0
   19.7556  -20.0037    0.0000 C   0  0  0  0  0  0  0  0  0  0  0  0
   20.4701  -20.4162    0.0000 N   0  0  0  0  0  0  0  0  0  0  0  0
   17.6121  -18.7662    0.0000 O   0  0  0  0  0  0  0  0  0  0  0  0
 35 26  1  0  0  0  0
 33 34  1  0  0  0  0
 32 33  1  0  0  0  0
 31 32  1  0  0  0  0
 30 31  1  0  0  0  0
 29 30  1  0  0  0  0
 29 26  1  6  0  0  0
 28 29  1  0  0  0  0
 26 27  2  0  0  0  0
 23 25  1  0  0  0  0
 23 24  2  0  0  0  0
 22 23  1  0  0  0  0
 21 22  1  0  0  0  0
 20 21  1  0  0  0  0
 19 20  1  0  0  0  0
 18 19  1  0  0  0  0
 18 17  1  1  0  0  0
 15 28  1  0  0  0  0
 15 18  1  0  0  0  0
 15 16  2  0  0  0  0
 13 14  1  0  0  0  0
 12 13  1  0  0  0  0
 11 12  1  0  0  0  0
 11  8  1  6  0  0  0
 10 14  1  0  0  0  0
 10 11  1  0  0  0  0
  8 17  1  0  0  0  0
  8  9  2  0  0  0  0
  5  7  1  1  0  0  0
  5  6  1  0  0  0  0
  4  5  1  0  0  0  0
  4  3  1  1  0  0  0
  1 10  1  0  0  0  0
  1  4  1  0  0  0  0
  1  2  2  0  0  0  0
M  END
>  <cdx:fragmentId>
10019

$$$$
