16573.cdx
  Mrv1902 05222410242D          

 26 29  0  0  0  0            999 V2000
    8.8315  -10.2578    0.0000 N   0  0  0  0  0  0  0  0  0  0  0  0
    9.5459   -9.8451    0.0000 C   0  0  0  0  0  0  0  0  0  0  0  0
    9.5461   -9.0201    0.0000 C   0  0  0  0  0  0  0  0  0  0  0  0
    8.8311   -8.6085    0.0000 C   0  0  0  0  0  0  0  0  0  0  0  0
    8.1166   -9.0210    0.0000 C   0  0  0  0  0  0  0  0  0  0  0  0
    7.4022   -8.6085    0.0000 C   0  0  0  0  0  0  0  0  0  0  0  0
    6.6877   -9.0210    0.0000 C   0  0  0  0  0  0  0  0  0  0  0  0
    6.6877   -9.8460    0.0000 C   0  0  0  0  0  0  0  0  0  0  0  0
    7.4022  -10.2585    0.0000 C   0  0  0  0  0  0  0  0  0  0  0  0
    8.1166   -9.8460    0.0000 C   0  0  2  0  0  0  0  0  0  0  0  0
    7.4022   -7.7835    0.0000 C   0  0  0  0  0  0  0  0  0  0  0  0
    8.1166   -7.3710    0.0000 C   0  0  0  0  0  0  0  0  0  0  0  0
    8.8311   -7.7835    0.0000 C   0  0  0  0  0  0  0  0  0  0  0  0
    5.9732  -10.2585    0.0000 C   0  0  0  0  0  0  0  0  0  0  0  0
    5.2588   -9.8460    0.0000 C   0  0  0  0  0  0  0  0  0  0  0  0
    5.2588   -9.0210    0.0000 C   0  0  0  0  0  0  0  0  0  0  0  0
    5.9732   -8.6085    0.0000 C   0  0  0  0  0  0  0  0  0  0  0  0
    4.5443  -10.2585    0.0000 O   0  0  0  0  0  0  0  0  0  0  0  0
    8.8315  -11.0828    0.0000 C   0  0  0  0  0  0  0  0  0  0  0  0
    4.5443   -8.6085    0.0000 O   0  0  0  0  0  0  0  0  0  0  0  0
    3.8298   -9.0210    0.0000 C   0  0  0  0  0  0  0  0  0  0  0  0
    8.1166   -6.5460    0.0000 O   0  0  0  0  0  0  0  0  0  0  0  0
    8.8311   -6.1335    0.0000 C   0  0  0  0  0  0  0  0  0  0  0  0
    6.6877   -7.3710    0.0000 O   0  0  0  0  0  0  0  0  0  0  0  0
    5.9732   -7.7835    0.0000 C   0  0  0  0  0  0  0  0  0  0  0  0
    8.1166  -10.6710    0.0000 H   0  0  0  0  0  0  0  0  0  0  0  0
  1  2  1  0  0  0  0
  2  3  1  0  0  0  0
  3  4  1  0  0  0  0
  4  5  1  0  0  0  0
  5  6  2  0  0  0  0
  6  7  1  0  0  0  0
  7  8  1  0  0  0  0
  8  9  1  0  0  0  0
  9 10  1  0  0  0  0
  1 10  1  0  0  0  0
  5 10  1  0  0  0  0
 11 12  2  0  0  0  0
 12 13  1  0  0  0  0
  4 13  2  0  0  0  0
  6 11  1  0  0  0  0
 14 15  1  0  0  0  0
 15 16  2  0  0  0  0
 16 17  1  0  0  0  0
  7 17  2  0  0  0  0
  8 14  2  0  0  0  0
 15 18  1  0  0  0  0
  1 19  1  0  0  0  0
 20 21  1  0  0  0  0
 16 20  1  0  0  0  0
 22 23  1  0  0  0  0
 12 22  1  0  0  0  0
 24 25  1  0  0  0  0
 11 24  1  0  0  0  0
 10 26  1  6  0  0  0
M  END
>  <cdx:fragmentId>
28062

$$$$
