165788.cdx
  Mrv1902 05222410272D          

  6  5  0  0  0  0            999 V2000
   15.8689  -21.4935    0.0000 C   0  0  0  0  0  0  0  0  0  0  0  0
   15.1545  -21.9060    0.0000 C   0  0  0  0  0  0  0  0  0  0  0  0
   14.4400  -21.4935    0.0000 C   0  0  0  0  0  0  0  0  0  0  0  0
   13.7255  -21.9060    0.0000 C   0  0  0  0  0  0  0  0  0  0  0  0
   15.8689  -20.6685    0.0000 O   0  0  0  0  0  0  0  0  0  0  0  0
   16.5834  -21.9060    0.0000 O   0  0  0  0  0  0  0  0  0  0  0  0
  1  2  1  0  0  0  0
  2  3  1  0  0  0  0
  3  4  1  0  0  0  0
  1  5  1  0  0  0  0
  1  6  1  0  0  0  0
M  END
>  <cdx:groupId>
10115

>  <cdx:fragmentId>
10101

$$$$
