16590.cdx
  Mrv1902 05222410222D          

  8  7  0  0  0  0            999 V2000
    7.4962   -2.5927    0.0000 S   0  0  0  0  0  0  0  0  0  0  0  0
    6.7818   -3.0052    0.0000 S   0  0  0  0  0  0  0  0  0  0  0  0
    8.2107   -3.0052    0.0000 C   0  0  0  0  0  0  0  0  0  0  0  0
    8.9252   -2.5927    0.0000 C   0  0  0  0  0  0  0  0  0  0  0  0
    9.6396   -3.0052    0.0000 C   0  0  0  0  0  0  0  0  0  0  0  0
    6.0673   -2.5927    0.0000 C   0  0  0  0  0  0  0  0  0  0  0  0
    5.3528   -3.0052    0.0000 C   0  0  0  0  0  0  0  0  0  0  0  0
    4.6384   -2.5927    0.0000 C   0  0  0  0  0  0  0  0  0  0  0  0
  1  2  1  0  0  0  0
  3  4  1  0  0  0  0
  4  5  2  0  0  0  0
  1  3  1  0  0  0  0
  6  7  1  0  0  0  0
  7  8  2  0  0  0  0
  2  6  1  0  0  0  0
M  END
>  <cdx:fragmentId>
9

$$$$
