16596.cdx
  Mrv1902 05222410212D          

 11 11  0  0  0  0            999 V2000
    5.7577   -6.8888    0.0000 C   0  0  0  0  0  0  0  0  0  0  0  0
    5.7577   -7.7138    0.0000 C   0  0  0  0  0  0  0  0  0  0  0  0
    6.4721   -8.1263    0.0000 C   0  0  1  0  0  0  0  0  0  0  0  0
    7.1866   -7.7138    0.0000 C   0  0  0  0  0  0  0  0  0  0  0  0
    7.1866   -6.8888    0.0000 C   0  0  0  0  0  0  0  0  0  0  0  0
    6.4721   -6.4763    0.0000 C   0  0  1  0  0  0  0  0  0  0  0  0
    6.4721   -5.6512    0.0000 C   0  0  0  0  0  0  0  0  0  0  0  0
    5.7577   -5.2387    0.0000 C   0  0  0  0  0  0  0  0  0  0  0  0
    7.1866   -5.2387    0.0000 C   0  0  0  0  0  0  0  0  0  0  0  0
    6.4721   -8.9513    0.0000 C   0  0  0  0  0  0  0  0  0  0  0  0
    5.7577   -9.3637    0.0000 O   0  0  0  0  0  0  0  0  0  0  0  0
  1  2  1  0  0  0  0
  2  3  1  0  0  0  0
  3  4  1  0  0  0  0
  4  5  2  0  0  0  0
  5  6  1  0  0  0  0
  6  1  1  0  0  0  0
  6  7  1  6  0  0  0
  7  8  1  0  0  0  0
  7  9  1  0  0  0  0
  3 10  1  1  0  0  0
 10 11  1  0  0  0  0
M  END
>  <cdx:fragmentId>
5

$$$$
