16592.cdx
  Mrv1902 05222410222D          

  6  5  0  0  0  0            999 V2000
    3.9286   -4.1739    0.0000 S   0  0  0  0  0  0  0  0  0  0  0  0
    3.2142   -3.7614    0.0000 S   0  0  0  0  0  0  0  0  0  0  0  0
    4.6431   -3.7614    0.0000 C   0  0  0  0  0  0  0  0  0  0  0  0
    5.3576   -4.1739    0.0000 C   0  0  0  0  0  0  0  0  0  0  0  0
    6.0721   -3.7614    0.0000 C   0  0  0  0  0  0  0  0  0  0  0  0
    2.4997   -4.1739    0.0000 C   0  0  0  0  0  0  0  0  0  0  0  0
  1  2  1  0  0  0  0
  3  4  1  0  0  0  0
  4  5  1  0  0  0  0
  1  3  1  0  0  0  0
  2  6  1  0  0  0  0
M  END
>  <cdx:groupId>
19

>  <cdx:fragmentId>
9

$$$$
