16604cdx.cdx
  Mrv1902 05222410252D          

 16 16  0  0  0  0            999 V2000
    9.6475   -5.3520    0.0000 C   0  0  0  0  0  0  0  0  0  0  0  0
    9.6340   -4.5272    0.0000 C   0  0  0  0  0  0  0  0  0  0  0  0
    8.9129   -4.1264    0.0000 C   0  0  0  0  0  0  0  0  0  0  0  0
    8.2053   -4.5506    0.0000 C   0  0  0  0  0  0  0  0  0  0  0  0
    7.4841   -4.1498    0.0000 C   0  0  0  0  0  0  0  0  0  0  0  0
    6.7765   -4.5740    0.0000 C   0  0  0  0  0  0  0  0  0  0  0  0
    6.0554   -4.1732    0.0000 C   0  0  0  0  0  0  0  0  0  0  0  0
    8.2188   -5.3754    0.0000 O   0  0  0  0  0  0  0  0  0  0  0  0
    6.7900   -5.3989    0.0000 C   0  0  1  0  0  0  0  0  0  0  0  0
    7.5112   -5.7996    0.0000 C   0  0  0  0  0  0  0  0  0  0  0  0
    7.5247   -6.6245    0.0000 C   0  0  0  0  0  0  0  0  0  0  0  0
    6.8170   -7.0486    0.0000 C   0  0  0  0  0  0  0  0  0  0  0  0
    6.0959   -6.6479    0.0000 C   0  0  0  0  0  0  0  0  0  0  0  0
    6.0824   -5.8230    0.0000 C   0  0  0  0  0  0  0  0  0  0  0  0
    6.8306   -7.8735    0.0000 C   0  0  0  0  0  0  0  0  0  0  0  0
   10.3416   -4.1030    0.0000 C   0  0  0  0  0  0  0  0  0  0  0  0
  1  2  1  0  0  0  0
  2  3  2  0  0  0  0
  3  4  1  0  0  0  0
  4  5  1  0  0  0  0
  5  6  2  0  0  0  0
  6  7  1  0  0  0  0
  4  8  2  0  0  0  0
  9 10  1  0  0  0  0
 10 11  1  0  0  0  0
 11 12  2  0  0  0  0
 12 13  1  0  0  0  0
 13 14  1  0  0  0  0
  9 14  1  0  0  0  0
 12 15  1  0  0  0  0
  9  6  1  1  0  0  0
  2 16  1  0  0  0  0
M  END
>  <cdx:fragmentId>
3443

$$$$
