16603.cdx
  Mrv1902 05222410232D          

 16 16  0  0  0  0            999 V2000
    7.4436   -1.6751    0.0000 C   0  0  0  0  0  0  0  0  0  0  0  0
    8.1647   -2.0759    0.0000 C   0  0  0  0  0  0  0  0  0  0  0  0
    8.1782   -2.9008    0.0000 C   0  0  0  0  0  0  0  0  0  0  0  0
    7.4706   -3.3249    0.0000 C   0  0  0  0  0  0  0  0  0  0  0  0
    7.4841   -4.1498    0.0000 C   0  0  0  0  0  0  0  0  0  0  0  0
    6.7765   -4.5740    0.0000 C   0  0  0  0  0  0  0  0  0  0  0  0
    6.0554   -4.1732    0.0000 C   0  0  0  0  0  0  0  0  0  0  0  0
    6.7495   -2.9242    0.0000 O   0  0  0  0  0  0  0  0  0  0  0  0
    6.7900   -5.3989    0.0000 C   0  0  1  0  0  0  0  0  0  0  0  0
    7.5112   -5.7996    0.0000 C   0  0  0  0  0  0  0  0  0  0  0  0
    7.5247   -6.6245    0.0000 C   0  0  0  0  0  0  0  0  0  0  0  0
    6.8170   -7.0486    0.0000 C   0  0  0  0  0  0  0  0  0  0  0  0
    6.0959   -6.6479    0.0000 C   0  0  0  0  0  0  0  0  0  0  0  0
    6.0824   -5.8230    0.0000 C   0  0  0  0  0  0  0  0  0  0  0  0
    6.8306   -7.8735    0.0000 C   0  0  0  0  0  0  0  0  0  0  0  0
    8.8723   -1.6517    0.0000 C   0  0  0  0  0  0  0  0  0  0  0  0
  1  2  1  0  0  0  0
  2  3  2  0  0  0  0
  3  4  1  0  0  0  0
  4  5  1  0  0  0  0
  5  6  2  0  0  0  0
  6  7  1  0  0  0  0
  4  8  2  0  0  0  0
  9 10  1  0  0  0  0
 10 11  1  0  0  0  0
 11 12  2  0  0  0  0
 12 13  1  0  0  0  0
 13 14  1  0  0  0  0
  9 14  1  0  0  0  0
 12 15  1  0  0  0  0
  9  6  1  1  0  0  0
  2 16  1  0  0  0  0
M  END
>  <cdx:fragmentId>
3443

$$$$
