16617.cdx
  Mrv1902 05222410232D          

 13 12  0  0  0  0            999 V2000
    7.0702   -4.3527    0.0000 C   0  0  0  0  0  0  0  0  0  0  0  0
    6.3558   -4.7652    0.0000 C   0  0  0  0  0  0  0  0  0  0  0  0
    5.6413   -4.3527    0.0000 C   0  0  0  0  0  0  0  0  0  0  0  0
    4.9268   -4.7652    0.0000 C   0  0  0  0  0  0  0  0  0  0  0  0
    4.2124   -4.3527    0.0000 C   0  0  0  0  0  0  0  0  0  0  0  0
    3.4979   -4.7652    0.0000 C   0  0  0  0  0  0  0  0  0  0  0  0
    7.0702   -3.5277    0.0000 O   0  0  0  0  0  0  0  0  0  0  0  0
    7.7847   -4.7652    0.0000 O   0  0  0  0  0  0  0  0  0  0  0  0
    8.4992   -4.3527    0.0000 C   0  0  0  0  0  0  0  0  0  0  0  0
    9.2137   -4.7652    0.0000 C   0  0  0  0  0  0  0  0  0  0  0  0
    9.9281   -4.3527    0.0000 C   0  0  0  0  0  0  0  0  0  0  0  0
    9.9281   -3.5277    0.0000 C   0  0  0  0  0  0  0  0  0  0  0  0
   10.6426   -4.7652    0.0000 C   0  0  0  0  0  0  0  0  0  0  0  0
  1  2  1  0  0  0  0
  2  3  1  0  0  0  0
  3  4  1  0  0  0  0
  4  5  1  0  0  0  0
  5  6  1  0  0  0  0
  1  7  2  0  0  0  0
  1  8  1  0  0  0  0
  9 10  1  0  0  0  0
 10 11  1  0  0  0  0
 11 12  1  0  0  0  0
 13 11  1  0  0  0  0
  8  9  1  0  0  0  0
M  END
>  <cdx:fragmentId>
5

$$$$
