16618.cdx
  Mrv1902 05222410222D          

 26 29  0  0  0  0            999 V2000
    9.4106  -10.5379    0.0000 N   0  0  0  0  0  0  0  0  0  0  0  0
   10.1250  -10.1252    0.0000 C   0  0  0  0  0  0  0  0  0  0  0  0
   10.1252   -9.3002    0.0000 C   0  0  0  0  0  0  0  0  0  0  0  0
    9.4112   -8.8870    0.0000 C   0  0  0  0  0  0  0  0  0  0  0  0
    8.6967   -9.2995    0.0000 C   0  0  0  0  0  0  0  0  0  0  0  0
    7.9822   -8.8870    0.0000 C   0  0  0  0  0  0  0  0  0  0  0  0
    7.2678   -9.2995    0.0000 C   0  0  0  0  0  0  0  0  0  0  0  0
    7.2678  -10.1245    0.0000 C   0  0  0  0  0  0  0  0  0  0  0  0
    7.9822  -10.5370    0.0000 C   0  0  0  0  0  0  0  0  0  0  0  0
    8.6967  -10.1245    0.0000 C   0  0  2  0  0  0  0  0  0  0  0  0
    7.9822   -8.0620    0.0000 C   0  0  0  0  0  0  0  0  0  0  0  0
    8.6967   -7.6495    0.0000 C   0  0  0  0  0  0  0  0  0  0  0  0
    9.4112   -8.0620    0.0000 C   0  0  0  0  0  0  0  0  0  0  0  0
    6.5533  -10.5370    0.0000 C   0  0  0  0  0  0  0  0  0  0  0  0
    5.8388  -10.1245    0.0000 C   0  0  0  0  0  0  0  0  0  0  0  0
    5.8388   -9.2995    0.0000 C   0  0  0  0  0  0  0  0  0  0  0  0
    6.5533   -8.8870    0.0000 C   0  0  0  0  0  0  0  0  0  0  0  0
    8.6967   -6.8245    0.0000 O   0  0  0  0  0  0  0  0  0  0  0  0
    9.4106  -11.3629    0.0000 C   0  0  0  0  0  0  0  0  0  0  0  0
    6.5533   -8.0620    0.0000 O   0  0  0  0  0  0  0  0  0  0  0  0
    5.8388   -7.6495    0.0000 C   0  0  0  0  0  0  0  0  0  0  0  0
    5.1244   -8.8870    0.0000 O   0  0  0  0  0  0  0  0  0  0  0  0
    4.4099   -9.2995    0.0000 C   0  0  0  0  0  0  0  0  0  0  0  0
    7.2678   -7.6495    0.0000 O   0  0  0  0  0  0  0  0  0  0  0  0
    7.2678   -6.8245    0.0000 C   0  0  0  0  0  0  0  0  0  0  0  0
    8.6967  -10.9495    0.0000 H   0  0  0  0  0  0  0  0  0  0  0  0
  1  2  1  0  0  0  0
  2  3  1  0  0  0  0
  3  4  1  0  0  0  0
  4  5  1  0  0  0  0
  5  6  2  0  0  0  0
  6  7  1  0  0  0  0
  7  8  1  0  0  0  0
  8  9  1  0  0  0  0
  9 10  1  0  0  0  0
  1 10  1  0  0  0  0
  5 10  1  0  0  0  0
 11 12  2  0  0  0  0
 12 13  1  0  0  0  0
 13  4  2  0  0  0  0
 11  6  1  0  0  0  0
 14 15  1  0  0  0  0
 15 16  2  0  0  0  0
 16 17  1  0  0  0  0
 17  7  2  0  0  0  0
 14  8  2  0  0  0  0
 12 18  1  0  0  0  0
  1 19  1  0  0  0  0
 20 21  1  0  0  0  0
 17 20  1  0  0  0  0
 22 23  1  0  0  0  0
 16 22  1  0  0  0  0
 24 25  1  0  0  0  0
 11 24  1  0  0  0  0
 10 26  1  6  0  0  0
M  END
>  <cdx:fragmentId>
86336

$$$$
