16627.cdx
  Mrv1902 05222410222D          

 23 23  0  0  0  0            999 V2000
    7.8481  -10.1413    0.0000 O   0  0  0  0  0  0  0  0  0  0  0  0
    7.1290  -10.5457    0.0000 C   0  0  1  0  0  0  0  0  0  0  0  0
    6.4193  -10.1252    0.0000 O   0  0  0  0  0  0  0  0  0  0  0  0
    5.7002  -10.5296    0.0000 C   0  0  1  0  0  0  0  0  0  0  0  0
    5.6909  -11.3546    0.0000 C   0  0  2  0  0  0  0  0  0  0  0  0
    6.4007  -11.7751    0.0000 C   0  0  1  0  0  0  0  0  0  0  0  0
    7.1197  -11.3707    0.0000 C   0  0  1  0  0  0  0  0  0  0  0  0
    7.8295  -11.7912    0.0000 O   0  0  0  0  0  0  0  0  0  0  0  0
    4.9718  -11.7590    0.0000 O   0  0  0  0  0  0  0  0  0  0  0  0
    6.3914  -12.6000    0.0000 O   0  0  0  0  0  0  0  0  0  0  0  0
    4.9904  -10.1091    0.0000 C   0  0  0  0  0  0  0  0  0  0  0  0
    4.2713  -10.5135    0.0000 O   0  0  0  0  0  0  0  0  0  0  0  0
    7.8574   -9.3164    0.0000 C   0  0  0  0  0  0  0  0  0  0  0  0
    8.5765   -8.9119    0.0000 C   0  0  0  0  0  0  0  0  0  0  0  0
    9.2863   -9.3325    0.0000 O   0  0  0  0  0  0  0  0  0  0  0  0
    8.5858   -8.0870    0.0000 C   0  0  1  0  0  0  0  0  0  0  0  0
    7.8760   -7.6665    0.0000 O   0  0  0  0  0  0  0  0  0  0  0  0
    9.3049   -7.6826    0.0000 C   0  0  2  0  0  0  0  0  0  0  0  0
   10.0147   -8.1031    0.0000 O   0  0  0  0  0  0  0  0  0  0  0  0
    9.3142   -6.8576    0.0000 C   0  0  2  0  0  0  0  0  0  0  0  0
    8.6044   -6.4371    0.0000 O   0  0  0  0  0  0  0  0  0  0  0  0
   10.0333   -6.4532    0.0000 C   0  0  0  0  0  0  0  0  0  0  0  0
   10.0426   -5.6283    0.0000 O   0  0  0  0  0  0  0  0  0  0  0  0
  2  1  1  6  0  0  0
  2  3  1  0  0  0  0
  3  4  1  0  0  0  0
  4  5  1  0  0  0  0
  5  6  1  0  0  0  0
  6  7  1  0  0  0  0
  7  2  1  0  0  0  0
  7  8  1  6  0  0  0
  5  9  1  6  0  0  0
  6 10  1  1  0  0  0
  4 11  1  1  0  0  0
 11 12  1  0  0  0  0
  1 13  1  0  0  0  0
 13 14  1  0  0  0  0
 14 15  2  0  0  0  0
 14 16  1  0  0  0  0
 16 17  1  1  0  0  0
 16 18  1  0  0  0  0
 18 19  1  1  0  0  0
 18 20  1  0  0  0  0
 20 21  1  6  0  0  0
 20 22  1  0  0  0  0
 22 23  1  0  0  0  0
M  END
>  <cdx:fragmentId>
5

$$$$
