1662.cdx
  Mrv1902 05222410282D          

 11 10  0  0  0  0            999 V2000
    8.4923   -5.1777    0.0000 C   0  0  0  0  0  0  0  0  0  0  0  0
    7.7778   -5.5902    0.0000 C   0  0  0  0  0  0  0  0  0  0  0  0
    7.0634   -5.1777    0.0000 C   0  0  0  0  0  0  0  0  0  0  0  0
    6.3489   -5.5902    0.0000 C   0  0  0  0  0  0  0  0  0  0  0  0
    5.6344   -5.1777    0.0000 C   0  0  0  0  0  0  0  0  0  0  0  0
    8.4923   -4.3527    0.0000 O   0  0  0  0  0  0  0  0  0  0  0  0
    9.2068   -5.5902    0.0000 O   0  0  0  0  0  0  0  0  0  0  0  0
    5.6344   -4.3527    0.0000 O   0  0  0  0  0  0  0  0  0  0  0  0
    4.9200   -5.5902    0.0000 O   0  0  0  0  0  0  0  0  0  0  0  0
    7.4759   -4.4632    0.0000 C   0  0  0  0  0  0  0  0  0  0  0  0
    6.6509   -4.4632    0.0000 O   0  0  0  0  0  0  0  0  0  0  0  0
  1  2  1  0  0  0  0
  2  3  1  0  0  0  0
  3  4  1  0  0  0  0
  4  5  1  0  0  0  0
  1  6  2  0  0  0  0
  1  7  1  0  0  0  0
  5  8  2  0  0  0  0
  5  9  1  0  0  0  0
  3 10  1  0  0  0  0
  3 11  1  0  0  0  0
M  END
>  <cdx:fragmentId>
5

$$$$
