1665.cdx
  Mrv1902 05222410272D          

 28 30  0  0  0  0            999 V2000
    5.6459   -6.9240    0.0000 O   0  0  0  0  0  0  0  0  0  0  0  0
    6.3479   -6.4907    0.0000 C   0  0  0  0  0  0  0  0  0  0  0  0
    4.9924   -9.0066    0.0000 O   0  0  0  0  0  0  0  0  0  0  0  0
    4.2418   -7.7907    0.0000 C   0  0  0  0  0  0  0  0  0  0  0  0
    4.9681   -8.1820    0.0000 C   0  0  0  0  0  0  0  0  0  0  0  0
    5.5961   -8.9889    0.0000 C   0  0  0  0  0  0  0  0  0  0  0  0
    5.8547   -9.5649    0.0000 C   0  0  0  0  0  0  0  0  0  0  0  0
    7.0742   -6.8820    0.0000 O   0  0  0  0  0  0  0  0  0  0  0  0
    5.6701   -7.7487    0.0000 O   0  0  0  0  0  0  0  0  0  0  0  0
    9.1803   -5.5820    0.0000 O   0  0  0  0  0  0  0  0  0  0  0  0
    9.9551   -7.6226    0.0000 C   0  0  0  0  0  0  0  0  0  0  0  0
    9.9309   -6.7979    0.0000 C   0  0  0  0  0  0  0  0  0  0  0  0
    9.2046   -6.4066    0.0000 C   0  0  0  0  0  0  0  0  0  0  0  0
    8.5025   -6.8400    0.0000 O   0  0  0  0  0  0  0  0  0  0  0  0
    8.5753   -9.3139    0.0000 C   0  0  0  0  0  0  0  0  0  0  0  0
    9.2774   -8.8806    0.0000 C   0  0  0  0  0  0  0  0  0  0  0  0
    9.2531   -8.0559    0.0000 C   0  0  0  0  0  0  0  0  0  0  0  0
    8.5268   -7.6646    0.0000 C   0  0  0  0  0  0  0  0  0  0  0  0
    7.8490   -8.9226    0.0000 C   0  0  0  0  0  0  0  0  0  0  0  0
    7.8248   -8.0980    0.0000 C   0  0  0  0  0  0  0  0  0  0  0  0
    7.0985   -7.7066    0.0000 C   0  0  2  0  0  0  0  0  0  0  0  0
    6.3964   -8.1400    0.0000 C   0  0  1  0  0  0  0  0  0  0  0  0
    6.4207   -8.9646    0.0000 C   0  0  0  0  0  0  0  0  0  0  0  0
    7.1470   -9.3559    0.0000 O   0  0  0  0  0  0  0  0  0  0  0  0
    6.3236   -5.6660    0.0000 C   0  0  0  0  0  0  0  0  0  0  0  0
    7.0257   -5.2327    0.0000 C   0  0  0  0  0  0  0  0  0  0  0  0
    5.5974   -5.2747    0.0000 C   0  0  0  0  0  0  0  0  0  0  0  0
    5.5731   -4.4501    0.0000 C   0  0  0  0  0  0  0  0  0  0  0  0
  2  1  2  0  0  0  0
  8  2  1  0  0  0  0
  5  3  2  0  0  0  0
  5  4  1  0  0  0  0
  9  5  1  0  0  0  0
 23  6  1  0  0  0  0
 23  7  1  0  0  0  0
 21  8  1  6  0  0  0
 22  9  1  1  0  0  0
 13 10  2  0  0  0  0
 11 17  1  0  0  0  0
 12 11  2  0  0  0  0
 13 12  1  0  0  0  0
 14 13  1  0  0  0  0
 18 14  1  0  0  0  0
 15 19  2  0  0  0  0
 16 15  1  0  0  0  0
 17 16  2  0  0  0  0
 18 17  1  0  0  0  0
 20 18  2  0  0  0  0
 19 24  1  0  0  0  0
 20 19  1  0  0  0  0
 21 20  1  0  0  0  0
 22 21  1  0  0  0  0
 23 22  1  0  0  0  0
 24 23  1  0  0  0  0
  2 25  1  0  0  0  0
 25 26  1  0  0  0  0
 25 27  2  0  0  0  0
 27 28  1  0  0  0  0
M  END
>  <cdx:fragmentId>
5

$$$$
