tricosylic acid.cdx
  Mrv1902 05222410192D          

 25 24  0  0  0  0            999 V2000
    1.1921   -7.0950    0.0000 C   0  0  0  0  0  0  0  0  0  0  0  0
    1.6923   -6.8062    0.0000 C   0  0  0  0  0  0  0  0  0  0  0  0
    2.1924   -7.0950    0.0000 C   0  0  0  0  0  0  0  0  0  0  0  0
    2.6925   -6.8062    0.0000 C   0  0  0  0  0  0  0  0  0  0  0  0
    3.1926   -7.0950    0.0000 C   0  0  0  0  0  0  0  0  0  0  0  0
    3.6928   -6.8062    0.0000 C   0  0  0  0  0  0  0  0  0  0  0  0
    4.1929   -7.0950    0.0000 C   0  0  0  0  0  0  0  0  0  0  0  0
    4.6930   -6.8062    0.0000 C   0  0  0  0  0  0  0  0  0  0  0  0
    5.1932   -7.0950    0.0000 C   0  0  0  0  0  0  0  0  0  0  0  0
    5.6933   -6.8062    0.0000 C   0  0  0  0  0  0  0  0  0  0  0  0
    6.1934   -7.0950    0.0000 C   0  0  0  0  0  0  0  0  0  0  0  0
    6.6936   -6.8062    0.0000 C   0  0  0  0  0  0  0  0  0  0  0  0
    7.1937   -7.0950    0.0000 C   0  0  0  0  0  0  0  0  0  0  0  0
    7.6938   -6.8062    0.0000 C   0  0  0  0  0  0  0  0  0  0  0  0
    8.1939   -7.0950    0.0000 C   0  0  0  0  0  0  0  0  0  0  0  0
    8.6941   -6.8062    0.0000 C   0  0  0  0  0  0  0  0  0  0  0  0
    9.1942   -7.0950    0.0000 C   0  0  0  0  0  0  0  0  0  0  0  0
    9.6943   -6.8062    0.0000 C   0  0  0  0  0  0  0  0  0  0  0  0
   10.1945   -7.0950    0.0000 C   0  0  0  0  0  0  0  0  0  0  0  0
   10.6946   -6.8062    0.0000 C   0  0  0  0  0  0  0  0  0  0  0  0
   11.1947   -7.0950    0.0000 C   0  0  0  0  0  0  0  0  0  0  0  0
   11.6948   -6.8062    0.0000 C   0  0  0  0  0  0  0  0  0  0  0  0
   12.1950   -7.0950    0.0000 C   0  0  0  0  0  0  0  0  0  0  0  0
   12.6951   -6.8062    0.0000 O   0  0  0  0  0  0  0  0  0  0  0  0
   12.1950   -7.6106    0.0000 O   0  0  0  0  0  0  0  0  0  0  0  0
  1  2  1  0  0  0  0
  2  3  1  0  0  0  0
  3  4  1  0  0  0  0
  4  5  1  0  0  0  0
  5  6  1  0  0  0  0
  6  7  1  0  0  0  0
  7  8  1  0  0  0  0
  8  9  1  0  0  0  0
  9 10  1  0  0  0  0
 10 11  1  0  0  0  0
 11 12  1  0  0  0  0
 12 13  1  0  0  0  0
 13 14  1  0  0  0  0
 14 15  1  0  0  0  0
 15 16  1  0  0  0  0
 16 17  1  0  0  0  0
 17 18  1  0  0  0  0
 18 19  1  0  0  0  0
 19 20  1  0  0  0  0
 20 21  1  0  0  0  0
 21 22  1  0  0  0  0
 22 23  1  0  0  0  0
 23 24  1  0  0  0  0
 23 25  2  0  0  0  0
M  END
>  <cdx:fragmentId>
3

$$$$
