16661.cdx
  Mrv1902 05222410262D          

 31 32  0  0  0  0            999 V2000
    5.2145   -8.1194    0.0000 C   0  0  0  0  0  0  0  0  0  0  0  0
    5.2145   -8.9444    0.0000 C   0  0  0  0  0  0  0  0  0  0  0  0
    5.9290   -9.3569    0.0000 C   0  0  0  0  0  0  0  0  0  0  0  0
    6.6435   -8.9444    0.0000 C   0  0  0  0  0  0  0  0  0  0  0  0
    6.6435   -8.1194    0.0000 C   0  0  0  0  0  0  0  0  0  0  0  0
    5.9290   -7.7069    0.0000 C   0  0  0  0  0  0  0  0  0  0  0  0
    7.3579   -9.3569    0.0000 C   0  0  0  0  0  0  0  0  0  0  0  0
    8.0724   -8.9444    0.0000 O   0  0  0  0  0  0  0  0  0  0  0  0
    8.0724   -8.1194    0.0000 C   0  0  0  0  0  0  0  0  0  0  0  0
    7.3579   -7.7069    0.0000 C   0  0  0  0  0  0  0  0  0  0  0  0
    8.7869   -7.7069    0.0000 C   0  0  0  0  0  0  0  0  0  0  0  0
    8.7869   -6.8819    0.0000 O   0  0  0  0  0  0  0  0  0  0  0  0
    8.0724   -6.4694    0.0000 C   0  0  0  0  0  0  0  0  0  0  0  0
    7.3579   -6.8819    0.0000 C   0  0  0  0  0  0  0  0  0  0  0  0
    8.0724   -5.6444    0.0000 O   0  0  0  0  0  0  0  0  0  0  0  0
    7.3579   -5.2319    0.0000 O   0  0  0  0  0  0  0  0  0  0  0  0
    6.6435   -5.6444    0.0000 C   0  0  0  0  0  0  0  0  0  0  0  0
    6.6435   -6.4694    0.0000 C   0  0  0  0  0  0  0  0  0  0  0  0
    5.9290   -6.8819    0.0000 O   0  0  0  0  0  0  0  0  0  0  0  0
    4.5001   -7.7069    0.0000 O   0  0  0  0  0  0  0  0  0  0  0  0
    4.5001   -9.3569    0.0000 O   0  0  0  0  0  0  0  0  0  0  0  0
    7.3579  -10.1819    0.0000 O   0  0  0  0  0  0  0  0  0  0  0  0
    9.5014   -8.1194    0.0000 O   0  0  0  0  0  0  0  0  0  0  0  0
   10.2158   -7.7069    0.0000 C   0  0  0  0  0  0  0  0  0  0  0  0
    8.8974   -6.4694    0.0000 O   0  0  0  0  0  0  0  0  0  0  0  0
    9.6119   -6.8819    0.0000 C   0  0  0  0  0  0  0  0  0  0  0  0
   10.3264   -6.4694    0.0000 C   0  0  0  0  0  0  0  0  0  0  0  0
    5.9290   -5.2319    0.0000 O   0  0  0  0  0  0  0  0  0  0  0  0
    7.3579   -4.4069    0.0000 C   0  0  0  0  0  0  0  0  0  0  0  0
    8.0724   -3.9944    0.0000 C   0  0  0  0  0  0  0  0  0  0  0  0
   10.9303   -8.1194    0.0000 C   0  0  0  0  0  0  0  0  0  0  0  0
  1  2  2  0  0  0  0
  2  3  1  0  0  0  0
  3  4  2  0  0  0  0
  4  5  1  0  0  0  0
  5  6  2  0  0  0  0
  6  1  1  0  0  0  0
  4  7  1  0  0  0  0
  7  8  1  0  0  0  0
  8  9  1  0  0  0  0
  9 10  1  0  0  0  0
 10  5  1  0  0  0  0
  9 11  1  0  0  0  0
 11 12  2  0  0  0  0
 13 14  1  0  0  0  0
 14 10  1  0  0  0  0
 13 15  2  0  0  0  0
 16 17  1  0  0  0  0
 17 18  1  0  0  0  0
 18 14  1  0  0  0  0
  6 19  1  0  0  0  0
  1 20  1  0  0  0  0
  2 21  1  0  0  0  0
  7 22  2  0  0  0  0
 11 23  1  0  0  0  0
 23 24  1  0  0  0  0
 13 25  1  0  0  0  0
 25 26  1  0  0  0  0
 26 27  1  0  0  0  0
 17 28  2  0  0  0  0
 16 29  1  0  0  0  0
 29 30  1  0  0  0  0
 24 31  1  0  0  0  0
M  END
>  <cdx:fragmentId>
5

$$$$
