16664.cdx
  Mrv1902 05222410282D          

 40 45  0  0  0  0            999 V2000
    8.1502   -8.4975    0.0000 C   0  0  0  0  0  0  0  0  0  0  0  0
    8.1502   -9.3225    0.0000 C   0  0  0  0  0  0  0  0  0  0  0  0
    8.8646   -9.7350    0.0000 C   0  0  0  0  0  0  0  0  0  0  0  0
    9.5791   -9.3225    0.0000 C   0  0  0  0  0  0  0  0  0  0  0  0
    9.5791   -8.4975    0.0000 C   0  0  0  0  0  0  0  0  0  0  0  0
    8.8646   -8.0850    0.0000 C   0  0  0  0  0  0  0  0  0  0  0  0
   10.2936   -8.0850    0.0000 O   0  0  0  0  0  0  0  0  0  0  0  0
   10.2936   -7.2600    0.0000 C   0  0  0  0  0  0  0  0  0  0  0  0
    9.5791   -6.8475    0.0000 C   0  0  2  0  0  0  0  0  0  0  0  0
    8.8646   -7.2600    0.0000 C   0  0  1  0  0  0  0  0  0  0  0  0
    9.4076   -6.0405    0.0000 C   0  0  0  0  0  0  0  0  0  0  0  0
    8.5871   -5.9543    0.0000 C   0  0  0  0  0  0  0  0  0  0  0  0
    8.2515   -6.7080    0.0000 O   0  0  0  0  0  0  0  0  0  0  0  0
    9.8925   -5.3731    0.0000 C   0  0  0  0  0  0  0  0  0  0  0  0
    9.5569   -4.6194    0.0000 C   0  0  0  0  0  0  0  0  0  0  0  0
    8.7365   -4.5332    0.0000 C   0  0  0  0  0  0  0  0  0  0  0  0
    8.2515   -5.2006    0.0000 C   0  0  0  0  0  0  0  0  0  0  0  0
    9.8925   -3.8657    0.0000 O   0  0  0  0  0  0  0  0  0  0  0  0
    9.2794   -3.3137    0.0000 C   0  0  0  0  0  0  0  0  0  0  0  0
    8.5649   -3.7262    0.0000 O   0  0  0  0  0  0  0  0  0  0  0  0
    8.8646  -10.5600    0.0000 O   0  0  0  0  0  0  0  0  0  0  0  0
    8.1502  -10.9725    0.0000 C   0  0  2  0  0  0  0  0  0  0  0  0
    7.4357  -10.5600    0.0000 O   0  0  0  0  0  0  0  0  0  0  0  0
    6.7212  -10.9725    0.0000 C   0  0  1  0  0  0  0  0  0  0  0  0
    6.7212  -11.7975    0.0000 C   0  0  2  0  0  0  0  0  0  0  0  0
    7.4357  -12.2100    0.0000 C   0  0  1  0  0  0  0  0  0  0  0  0
    8.1502  -11.7975    0.0000 C   0  0  1  0  0  0  0  0  0  0  0  0
    6.0067  -10.5600    0.0000 C   0  0  0  0  0  0  0  0  0  0  0  0
    5.2923  -10.9725    0.0000 O   0  0  0  0  0  0  0  0  0  0  0  0
    4.5778  -10.5600    0.0000 C   0  0  0  0  0  0  0  0  0  0  0  0
    3.8633  -10.9725    0.0000 C   0  0  0  0  0  0  0  0  0  0  0  0
    3.1489  -10.5600    0.0000 C   0  0  0  0  0  0  0  0  0  0  0  0
    2.4344  -10.9725    0.0000 O   0  0  0  0  0  0  0  0  0  0  0  0
    3.1489   -9.7350    0.0000 O   0  0  0  0  0  0  0  0  0  0  0  0
    4.5778   -9.7350    0.0000 O   0  0  0  0  0  0  0  0  0  0  0  0
    7.4357  -13.0350    0.0000 O   0  0  0  0  0  0  0  0  0  0  0  0
    8.1502   -7.6725    0.0000 H   0  0  0  0  0  0  0  0  0  0  0  0
   10.2936   -6.4350    0.0000 H   0  0  0  0  0  0  0  0  0  0  0  0
    8.8646  -12.2100    0.0000 O   0  0  0  0  0  0  0  0  0  0  0  0
    6.0067  -12.2100    0.0000 O   0  0  0  0  0  0  0  0  0  0  0  0
  1  2  2  0  0  0  0
  2  3  1  0  0  0  0
  3  4  2  0  0  0  0
  4  5  1  0  0  0  0
  5  6  2  0  0  0  0
  6  1  1  0  0  0  0
  5  7  1  0  0  0  0
  7  8  1  0  0  0  0
  8  9  1  0  0  0  0
  9 10  1  0  0  0  0
 10  6  1  0  0  0  0
  9 11  1  0  0  0  0
 11 12  2  0  0  0  0
 12 13  1  0  0  0  0
 13 10  1  0  0  0  0
 11 14  1  0  0  0  0
 14 15  2  0  0  0  0
 15 16  1  0  0  0  0
 16 17  2  0  0  0  0
 17 12  1  0  0  0  0
 15 18  1  0  0  0  0
 18 19  1  0  0  0  0
 19 20  1  0  0  0  0
 20 16  1  0  0  0  0
  3 21  1  0  0  0  0
 22 21  1  1  0  0  0
 22 23  1  0  0  0  0
 23 24  1  0  0  0  0
 24 25  1  0  0  0  0
 25 26  1  0  0  0  0
 26 27  1  0  0  0  0
 27 22  1  0  0  0  0
 24 28  1  1  0  0  0
 28 29  1  0  0  0  0
 29 30  1  0  0  0  0
 30 31  1  0  0  0  0
 31 32  1  0  0  0  0
 32 33  1  0  0  0  0
 32 34  2  0  0  0  0
 30 35  2  0  0  0  0
 26 36  1  1  0  0  0
 10 37  1  1  0  0  0
  9 38  1  1  0  0  0
 27 39  1  6  0  0  0
 25 40  1  6  0  0  0
M  END
>  <cdx:fragmentId>
5

$$$$
