16670.cdx
  Mrv1902 05222410282D          

 12 11  0  0  0  0            999 V2000
    3.9410   -2.5652    0.0000 C   0  0  0  0  0  0  0  0  0  0  0  0
    3.2265   -2.9777    0.0000 C   0  0  0  0  0  0  0  0  0  0  0  0
    2.5120   -2.5652    0.0000 C   0  0  0  0  0  0  0  0  0  0  0  0
    3.9410   -1.7402    0.0000 O   0  0  0  0  0  0  0  0  0  0  0  0
    4.6554   -2.9777    0.0000 O   0  0  0  0  0  0  0  0  0  0  0  0
    5.3699   -2.5652    0.0000 C   0  0  0  0  0  0  0  0  0  0  0  0
    6.0844   -2.9777    0.0000 C   0  0  0  0  0  0  0  0  0  0  0  0
    6.7988   -2.5652    0.0000 C   0  0  0  0  0  0  0  0  0  0  0  0
    7.5133   -2.9777    0.0000 C   0  0  0  0  0  0  0  0  0  0  0  0
    8.2278   -2.5652    0.0000 C   0  0  0  0  0  0  0  0  0  0  0  0
    8.9423   -2.9777    0.0000 C   0  0  0  0  0  0  0  0  0  0  0  0
    9.6567   -2.5652    0.0000 C   0  0  0  0  0  0  0  0  0  0  0  0
  1  2  1  0  0  0  0
  2  3  1  0  0  0  0
  1  4  2  0  0  0  0
  1  5  1  0  0  0  0
  6  7  1  0  0  0  0
  7  8  1  0  0  0  0
  8  9  1  0  0  0  0
  9 10  1  0  0  0  0
 10 11  1  0  0  0  0
 11 12  1  0  0  0  0
  5  6  1  0  0  0  0
M  END
>  <cdx:groupId>
37

>  <cdx:fragmentId>
15

$$$$
