166775.cdx
  Mrv1902 05222410212D          

 45 48  0  0  0  0            999 V2000
    6.7430   -6.2140    0.0000 C   0  0  1  0  0  0  0  0  0  0  0  0
    6.7515   -8.6890    0.0000 O   0  0  0  0  0  0  0  0  0  0  0  0
    5.3254   -9.5189    0.0000 O   0  0  0  0  0  0  0  0  0  0  0  0
    3.8937   -8.6988    0.0000 O   0  0  0  0  0  0  0  0  0  0  0  0
    3.1749   -7.4638    0.0000 O   0  0  0  0  0  0  0  0  0  0  0  0
    3.8880   -7.0488    0.0000 C   0  0  0  0  0  0  0  0  0  0  0  0
    4.6039   -7.4589    0.0000 C   0  0  2  0  0  0  0  0  0  0  0  0
    4.6067   -8.2838    0.0000 C   0  0  2  0  0  0  0  0  0  0  0  0
    5.3226   -8.6939    0.0000 C   0  0  1  0  0  0  0  0  0  0  0  0
    6.0356   -8.2789    0.0000 C   0  0  2  0  0  0  0  0  0  0  0  0
    6.0328   -7.4539    0.0000 C   0  0  2  0  0  0  0  0  0  0  0  0
    5.3169   -7.0439    0.0000 O   0  0  0  0  0  0  0  0  0  0  0  0
    6.7459   -7.0390    0.0000 O   0  0  0  0  0  0  0  0  0  0  0  0
    7.0229   -5.4379    0.0000 C   0  0  2  0  0  0  0  0  0  0  0  0
    6.3713   -4.9319    0.0000 C   0  0  1  0  0  0  0  0  0  0  0  0
    5.6916   -5.3995    0.0000 C   0  0  2  0  0  0  0  0  0  0  0  0
    5.9231   -6.1944    0.0000 O   0  0  0  0  0  0  0  0  0  0  0  0
    4.9145   -5.1225    0.0000 C   0  0  0  0  0  0  0  0  0  0  0  0
    4.7658   -4.3110    0.0000 O   0  0  0  0  0  0  0  0  0  0  0  0
    6.3951   -4.1073    0.0000 O   0  0  0  0  0  0  0  0  0  0  0  0
    7.8153   -5.2082    0.0000 O   0  0  0  0  0  0  0  0  0  0  0  0
    7.5399   -6.4275    0.0000 C   0  0  0  0  0  0  0  0  0  0  0  0
    8.1233   -5.8441    0.0000 O   0  0  0  0  0  0  0  0  0  0  0  0
    8.9202   -6.0577    0.0000 C   0  0  1  0  0  0  0  0  0  0  0  0
    8.6739   -6.8451    0.0000 C   0  0  2  0  0  0  0  0  0  0  0  0
    9.3467   -7.3226    0.0000 C   0  0  1  0  0  0  0  0  0  0  0  0
   10.0087   -6.8303    0.0000 C   0  0  2  0  0  0  0  0  0  0  0  0
    9.7451   -6.0486    0.0000 O   0  0  0  0  0  0  0  0  0  0  0  0
   10.7961   -7.0766    0.0000 C   0  0  0  0  0  0  0  0  0  0  0  0
   10.9765   -7.8816    0.0000 O   0  0  0  0  0  0  0  0  0  0  0  0
    9.3558   -8.1475    0.0000 O   0  0  0  0  0  0  0  0  0  0  0  0
    7.8921   -7.1087    0.0000 O   0  0  0  0  0  0  0  0  0  0  0  0
    8.9202   -5.2327    0.0000 C   0  0  0  0  0  0  0  0  0  0  0  0
    9.6346   -4.8202    0.0000 O   0  0  0  0  0  0  0  0  0  0  0  0
    9.6346   -3.9952    0.0000 C   0  0  1  0  0  0  0  0  0  0  0  0
    9.8890   -3.2104    0.0000 C   0  0  2  0  0  0  0  0  0  0  0  0
    9.2212   -2.7259    0.0000 C   0  0  1  0  0  0  0  0  0  0  0  0
    8.5541   -3.2113    0.0000 C   0  0  2  0  0  0  0  0  0  0  0  0
    8.8096   -3.9958    0.0000 O   0  0  0  0  0  0  0  0  0  0  0  0
    7.7693   -2.9569    0.0000 C   0  0  0  0  0  0  0  0  0  0  0  0
    9.2206   -1.9009    0.0000 O   0  0  0  0  0  0  0  0  0  0  0  0
   10.6734   -2.9549    0.0000 O   0  0  0  0  0  0  0  0  0  0  0  0
   10.4495   -4.1239    0.0000 C   0  0  0  0  0  0  0  0  0  0  0  0
   10.9685   -3.4826    0.0000 O   0  0  0  0  0  0  0  0  0  0  0  0
    7.5972   -2.1501    0.0000 O   0  0  0  0  0  0  0  0  0  0  0  0
 11 13  1  6  0  0  0
 10  2  1  6  0  0  0
  9  3  1  1  0  0  0
  8  4  1  6  0  0  0
  7  6  1  1  0  0  0
  6  5  1  0  0  0  0
 12  7  1  0  0  0  0
  8  7  1  0  0  0  0
  9  8  1  0  0  0  0
 10  9  1  0  0  0  0
 11 10  1  0  0  0  0
 12 11  1  0  0  0  0
  1 13  1  6  0  0  0
  1 14  1  0  0  0  0
 14 15  1  0  0  0  0
 15 16  1  0  0  0  0
 16 17  1  0  0  0  0
 17  1  1  0  0  0  0
 16 18  1  6  0  0  0
 18 19  1  0  0  0  0
 15 20  1  1  0  0  0
 14 21  1  6  0  0  0
  1 22  1  0  0  0  0
 22 23  1  0  0  0  0
 24 23  1  6  0  0  0
 24 25  1  0  0  0  0
 25 26  1  0  0  0  0
 26 27  1  0  0  0  0
 27 28  1  0  0  0  0
 28 24  1  0  0  0  0
 27 29  1  6  0  0  0
 29 30  1  0  0  0  0
 26 31  1  1  0  0  0
 25 32  1  6  0  0  0
 24 33  1  0  0  0  0
 33 34  1  0  0  0  0
 35 34  1  6  0  0  0
 35 36  1  0  0  0  0
 36 37  1  0  0  0  0
 37 38  1  0  0  0  0
 38 39  1  0  0  0  0
 39 35  1  0  0  0  0
 38 40  1  6  0  0  0
 37 41  1  1  0  0  0
 36 42  1  6  0  0  0
 35 43  1  0  0  0  0
 43 44  1  0  0  0  0
 40 45  1  0  0  0  0
M  END
>  <cdx:groupId>
1522

>  <cdx:fragmentId>
1475

$$$$
