1668.cdx
  Mrv1902 05222410192D          

 24 25  0  0  0  0            999 V2000
    3.3445   -5.3969    0.0000 C   0  0  0  0  0  0  0  0  0  0  0  0
    3.3445   -6.2219    0.0000 C   0  0  0  0  0  0  0  0  0  0  0  0
    4.0590   -6.6344    0.0000 C   0  0  0  0  0  0  0  0  0  0  0  0
    4.7735   -6.2219    0.0000 C   0  0  0  0  0  0  0  0  0  0  0  0
    4.7735   -5.3969    0.0000 C   0  0  0  0  0  0  0  0  0  0  0  0
    4.0590   -4.9844    0.0000 C   0  0  0  0  0  0  0  0  0  0  0  0
    5.4879   -4.9844    0.0000 C   0  0  0  0  0  0  0  0  0  0  0  0
    6.2024   -5.3969    0.0000 C   0  0  0  0  0  0  0  0  0  0  0  0
    6.9169   -4.9844    0.0000 C   0  0  0  0  0  0  0  0  0  0  0  0
    7.6314   -5.3969    0.0000 C   0  0  0  0  0  0  0  0  0  0  0  0
    8.3458   -4.9844    0.0000 C   0  0  0  0  0  0  0  0  0  0  0  0
    9.0603   -5.3969    0.0000 C   0  0  0  0  0  0  0  0  0  0  0  0
    9.7748   -4.9844    0.0000 C   0  0  0  0  0  0  0  0  0  0  0  0
   10.4892   -5.3969    0.0000 C   0  0  0  0  0  0  0  0  0  0  0  0
   10.4892   -6.2219    0.0000 C   0  0  0  0  0  0  0  0  0  0  0  0
   11.2037   -6.6344    0.0000 C   0  0  0  0  0  0  0  0  0  0  0  0
   11.9182   -6.2219    0.0000 C   0  0  0  0  0  0  0  0  0  0  0  0
   11.9182   -5.3969    0.0000 C   0  0  0  0  0  0  0  0  0  0  0  0
   11.2037   -4.9844    0.0000 C   0  0  0  0  0  0  0  0  0  0  0  0
    8.3458   -4.1594    0.0000 O   0  0  0  0  0  0  0  0  0  0  0  0
    6.9169   -4.1594    0.0000 O   0  0  0  0  0  0  0  0  0  0  0  0
    2.6301   -6.6344    0.0000 O   0  0  0  0  0  0  0  0  0  0  0  0
    2.6301   -4.9844    0.0000 O   0  0  0  0  0  0  0  0  0  0  0  0
    1.9156   -4.5719    0.0000 C   0  0  0  0  0  0  0  0  0  0  0  0
  1  2  2  0  0  0  0
  2  3  1  0  0  0  0
  3  4  2  0  0  0  0
  4  5  1  0  0  0  0
  5  6  2  0  0  0  0
  6  1  1  0  0  0  0
  5  7  1  0  0  0  0
  7  8  1  0  0  0  0
  8  9  1  0  0  0  0
  9 10  1  0  0  0  0
 10 11  1  0  0  0  0
 11 12  1  0  0  0  0
 12 13  1  0  0  0  0
 13 14  1  0  0  0  0
 14 15  2  0  0  0  0
 15 16  1  0  0  0  0
 16 17  2  0  0  0  0
 17 18  1  0  0  0  0
 18 19  2  0  0  0  0
 19 14  1  0  0  0  0
 11 20  2  0  0  0  0
  9 21  2  0  0  0  0
  2 22  1  0  0  0  0
  1 23  1  0  0  0  0
 23 24  1  0  0  0  0
M  STY  1   1 SUP
M  SAL   1  2  23  24
M  SBL   1  1  24
M  SMT   1 OCH3
M  SAP   1  1  23   1  1
M  END
>  <cdx:fragmentId>
5

$$$$
