1669.cdx
  Mrv1902 05222410192D          

 23 24  0  0  0  0            999 V2000
    3.0145   -6.9369    0.0000 C   0  0  0  0  0  0  0  0  0  0  0  0
    3.0145   -7.7619    0.0000 C   0  0  0  0  0  0  0  0  0  0  0  0
    3.7290   -8.1744    0.0000 C   0  0  0  0  0  0  0  0  0  0  0  0
    4.4435   -7.7619    0.0000 C   0  0  0  0  0  0  0  0  0  0  0  0
    4.4435   -6.9369    0.0000 C   0  0  0  0  0  0  0  0  0  0  0  0
    3.7290   -6.5244    0.0000 C   0  0  0  0  0  0  0  0  0  0  0  0
    5.1579   -6.5244    0.0000 C   0  0  0  0  0  0  0  0  0  0  0  0
    5.8724   -6.9369    0.0000 C   0  0  0  0  0  0  0  0  0  0  0  0
    6.5869   -6.5244    0.0000 C   0  0  0  0  0  0  0  0  0  0  0  0
    7.3014   -6.9369    0.0000 C   0  0  0  0  0  0  0  0  0  0  0  0
    8.0158   -6.5244    0.0000 C   0  0  0  0  0  0  0  0  0  0  0  0
    8.7303   -6.9369    0.0000 C   0  0  0  0  0  0  0  0  0  0  0  0
    9.4448   -6.5244    0.0000 C   0  0  0  0  0  0  0  0  0  0  0  0
   10.1592   -6.9369    0.0000 C   0  0  0  0  0  0  0  0  0  0  0  0
   10.1592   -7.7619    0.0000 C   0  0  0  0  0  0  0  0  0  0  0  0
   10.8737   -8.1744    0.0000 C   0  0  0  0  0  0  0  0  0  0  0  0
   11.5882   -7.7619    0.0000 C   0  0  0  0  0  0  0  0  0  0  0  0
   11.5882   -6.9369    0.0000 C   0  0  0  0  0  0  0  0  0  0  0  0
   10.8737   -6.5244    0.0000 C   0  0  0  0  0  0  0  0  0  0  0  0
    8.0158   -5.6994    0.0000 O   0  0  0  0  0  0  0  0  0  0  0  0
   12.3027   -8.1744    0.0000 O   0  0  0  0  0  0  0  0  0  0  0  0
    6.5869   -5.6994    0.0000 O   0  0  0  0  0  0  0  0  0  0  0  0
    2.3001   -8.1744    0.0000 O   0  0  0  0  0  0  0  0  0  0  0  0
  1  2  2  0  0  0  0
  2  3  1  0  0  0  0
  3  4  2  0  0  0  0
  4  5  1  0  0  0  0
  5  6  2  0  0  0  0
  6  1  1  0  0  0  0
  5  7  1  0  0  0  0
  7  8  1  0  0  0  0
  8  9  1  0  0  0  0
  9 10  1  0  0  0  0
 10 11  1  0  0  0  0
 11 12  1  0  0  0  0
 12 13  1  0  0  0  0
 13 14  1  0  0  0  0
 14 15  1  0  0  0  0
 15 16  2  0  0  0  0
 16 17  1  0  0  0  0
 17 18  2  0  0  0  0
 18 19  1  0  0  0  0
 19 14  2  0  0  0  0
 11 20  2  0  0  0  0
 17 21  1  0  0  0  0
  9 22  2  0  0  0  0
  2 23  1  0  0  0  0
M  END
>  <cdx:fragmentId>
5

$$$$
