16694.cdx
  Mrv1902 05222410192D          

 10 10  0  0  0  0            999 V2000
    5.9843   -2.4352    0.0000 C   0  0  0  0  0  0  0  0  0  0  0  0
    6.6979   -2.8491    0.0000 C   0  0  0  0  0  0  0  0  0  0  0  0
    6.6963   -3.6741    0.0000 C   0  0  0  0  0  0  0  0  0  0  0  0
    5.9810   -4.0852    0.0000 C   0  0  0  0  0  0  0  0  0  0  0  0
    5.9794   -4.9102    0.0000 C   0  0  0  0  0  0  0  0  0  0  0  0
    6.6931   -5.3241    0.0000 C   0  0  0  0  0  0  0  0  0  0  0  0
    7.4083   -4.9130    0.0000 C   0  0  0  0  0  0  0  0  0  0  0  0
    7.4100   -4.0880    0.0000 C   0  0  0  0  0  0  0  0  0  0  0  0
    6.6914   -6.1491    0.0000 C   0  0  0  0  0  0  0  0  0  0  0  0
    5.2674   -3.6713    0.0000 C   0  0  0  0  0  0  0  0  0  0  0  0
  1  2  2  0  0  0  0
  2  3  1  0  0  0  0
  3  4  1  0  0  0  0
  4  5  2  0  0  0  0
  5  6  1  0  0  0  0
  6  7  2  0  0  0  0
  7  8  1  0  0  0  0
  3  8  2  0  0  0  0
  6  9  1  0  0  0  0
  4 10  1  0  0  0  0
M  END
>  <cdx:groupId>
32

>  <cdx:fragmentId>
5

$$$$
