167.cdx
  Mrv1902 05222410212D          

 30 31  0  0  0  0            999 V2000
    1.5295   -7.0744    0.0000 C   0  0  0  0  0  0  0  0  0  0  0  0
    1.5295   -7.8994    0.0000 C   0  0  0  0  0  0  0  0  0  0  0  0
    2.2440   -8.3119    0.0000 C   0  0  0  0  0  0  0  0  0  0  0  0
    2.9585   -7.8994    0.0000 C   0  0  0  0  0  0  0  0  0  0  0  0
    2.9585   -7.0744    0.0000 C   0  0  0  0  0  0  0  0  0  0  0  0
    2.2440   -6.6619    0.0000 C   0  0  0  0  0  0  0  0  0  0  0  0
    3.6729   -6.6619    0.0000 C   0  0  0  0  0  0  0  0  0  0  0  0
    4.3874   -7.0744    0.0000 C   0  0  0  0  0  0  0  0  0  0  0  0
    5.1019   -6.6619    0.0000 C   0  0  0  0  0  0  0  0  0  0  0  0
    5.8164   -7.0744    0.0000 O   0  0  0  0  0  0  0  0  0  0  0  0
    6.5308   -6.6619    0.0000 C   0  0  0  0  0  0  0  0  0  0  0  0
    7.2453   -7.0744    0.0000 C   0  0  0  0  0  0  0  0  0  0  0  0
    7.9598   -6.6619    0.0000 C   0  0  0  0  0  0  0  0  0  0  0  0
    8.6742   -7.0744    0.0000 O   0  0  0  0  0  0  0  0  0  0  0  0
    9.3887   -6.6619    0.0000 C   0  0  0  0  0  0  0  0  0  0  0  0
   10.1032   -7.0744    0.0000 C   0  0  0  0  0  0  0  0  0  0  0  0
   10.8177   -6.6619    0.0000 C   0  0  0  0  0  0  0  0  0  0  0  0
   11.5321   -7.0744    0.0000 C   0  0  0  0  0  0  0  0  0  0  0  0
   11.5321   -7.8994    0.0000 C   0  0  0  0  0  0  0  0  0  0  0  0
   12.2466   -8.3119    0.0000 C   0  0  0  0  0  0  0  0  0  0  0  0
   12.9611   -7.8994    0.0000 C   0  0  0  0  0  0  0  0  0  0  0  0
   12.9611   -7.0744    0.0000 C   0  0  0  0  0  0  0  0  0  0  0  0
   12.2466   -6.6619    0.0000 C   0  0  0  0  0  0  0  0  0  0  0  0
    7.2453   -7.8994    0.0000 O   0  0  0  0  0  0  0  0  0  0  0  0
    5.1019   -5.8369    0.0000 O   0  0  0  0  0  0  0  0  0  0  0  0
    9.3887   -5.8369    0.0000 O   0  0  0  0  0  0  0  0  0  0  0  0
    7.9598   -8.3119    0.0000 C   0  0  0  0  0  0  0  0  0  0  0  0
    8.6742   -7.8994    0.0000 O   0  0  0  0  0  0  0  0  0  0  0  0
    7.9598   -9.1369    0.0000 C   0  0  0  0  0  0  0  0  0  0  0  0
   13.6755   -8.3119    0.0000 O   0  0  0  0  0  0  0  0  0  0  0  0
  1  2  1  0  0  0  0
  2  3  2  0  0  0  0
  3  4  1  0  0  0  0
  4  5  2  0  0  0  0
  5  6  1  0  0  0  0
  6  1  2  0  0  0  0
  5  7  1  0  0  0  0
  7  8  2  0  0  0  0
  8  9  1  0  0  0  0
  9 10  1  0  0  0  0
 10 11  1  0  0  0  0
 11 12  1  0  0  0  0
 12 13  1  0  0  0  0
 13 14  1  0  0  0  0
 14 15  1  0  0  0  0
 15 16  1  0  0  0  0
 16 17  2  0  0  0  0
 17 18  1  0  0  0  0
 18 19  2  0  0  0  0
 19 20  1  0  0  0  0
 20 21  2  0  0  0  0
 21 22  1  0  0  0  0
 22 23  2  0  0  0  0
 23 18  1  0  0  0  0
 12 24  1  0  0  0  0
  9 25  2  0  0  0  0
 15 26  2  0  0  0  0
 24 27  1  0  0  0  0
 27 28  2  0  0  0  0
 27 29  1  0  0  0  0
 21 30  1  0  0  0  0
M  END
>  <cdx:fragmentId>
998

$$$$
