16705.cdx
  Mrv1902 05222410282D          

 23 23  0  0  0  0            999 V2000
    1.3370   -8.3806    0.0000 C   0  0  0  0  0  0  0  0  0  0  0  0
    1.3370   -9.2056    0.0000 C   0  0  0  0  0  0  0  0  0  0  0  0
    2.0515   -9.6181    0.0000 C   0  0  0  0  0  0  0  0  0  0  0  0
    2.7660   -9.2056    0.0000 C   0  0  0  0  0  0  0  0  0  0  0  0
    2.7660   -8.3806    0.0000 C   0  0  0  0  0  0  0  0  0  0  0  0
    2.0515   -7.9681    0.0000 C   0  0  0  0  0  0  0  0  0  0  0  0
    2.0515   -7.1431    0.0000 O   0  0  0  0  0  0  0  0  0  0  0  0
    3.4878   -9.6181    0.0000 C   0  0  0  0  0  0  0  0  0  0  0  0
    4.2023   -9.2056    0.0000 C   0  0  0  0  0  0  0  0  0  0  0  0
    4.9168   -9.6181    0.0000 C   0  0  0  0  0  0  0  0  0  0  0  0
    5.6313   -9.2056    0.0000 C   0  0  0  0  0  0  0  0  0  0  0  0
    6.3457   -9.6181    0.0000 C   0  0  0  0  0  0  0  0  0  0  0  0
    7.0602   -9.2056    0.0000 C   0  0  0  0  0  0  0  0  0  0  0  0
    7.7747   -9.6181    0.0000 C   0  0  0  0  0  0  0  0  0  0  0  0
    8.4891   -9.2056    0.0000 C   0  0  0  0  0  0  0  0  0  0  0  0
   12.1580   -9.2068    0.0000 C   0  0  0  0  0  0  0  0  0  0  0  0
   11.4435   -9.6193    0.0000 C   0  0  0  0  0  0  0  0  0  0  0  0
   10.7290   -9.2068    0.0000 C   0  0  0  0  0  0  0  0  0  0  0  0
   10.0146   -9.6193    0.0000 C   0  0  0  0  0  0  0  0  0  0  0  0
    9.3001   -9.2068    0.0000 C   0  0  0  0  0  0  0  0  0  0  0  0
    0.6226   -7.9681    0.0000 O   0  0  0  0  0  0  0  0  0  0  0  0
   12.8724   -9.6193    0.0000 C   0  0  0  0  0  0  0  0  0  0  0  0
   13.5869   -9.2068    0.0000 C   0  0  0  0  0  0  0  0  0  0  0  0
  1  2  2  0  0  0  0
  2  3  1  0  0  0  0
  3  4  2  0  0  0  0
  4  5  1  0  0  0  0
  5  6  2  0  0  0  0
  6  1  1  0  0  0  0
  6  7  1  0  0  0  0
  8  9  1  0  0  0  0
  9 10  1  0  0  0  0
 10 11  1  0  0  0  0
 11 12  1  0  0  0  0
 12 13  1  0  0  0  0
 13 14  1  0  0  0  0
 14 15  1  0  0  0  0
  8  4  1  0  0  0  0
 17 16  1  0  0  0  0
 18 17  1  0  0  0  0
 19 18  1  0  0  0  0
 20 19  1  0  0  0  0
  1 21  1  0  0  0  0
 16 22  1  0  0  0  0
 22 23  1  0  0  0  0
 15 20  2  0  0  0  0
M  END
>  <cdx:fragmentId>
25

$$$$
