16703.cdx
  Mrv1902 05222410262D          

 21 21  0  0  0  0            999 V2000
    1.8870   -8.6556    0.0000 C   0  0  0  0  0  0  0  0  0  0  0  0
    1.8870   -9.4806    0.0000 C   0  0  0  0  0  0  0  0  0  0  0  0
    2.6015   -9.8931    0.0000 C   0  0  0  0  0  0  0  0  0  0  0  0
    3.3160   -9.4806    0.0000 C   0  0  0  0  0  0  0  0  0  0  0  0
    3.3160   -8.6556    0.0000 C   0  0  0  0  0  0  0  0  0  0  0  0
    2.6015   -8.2431    0.0000 C   0  0  0  0  0  0  0  0  0  0  0  0
    2.6015   -7.4181    0.0000 O   0  0  0  0  0  0  0  0  0  0  0  0
    4.0378   -9.8931    0.0000 C   0  0  0  0  0  0  0  0  0  0  0  0
    4.7523   -9.4806    0.0000 C   0  0  0  0  0  0  0  0  0  0  0  0
    5.4668   -9.8931    0.0000 C   0  0  0  0  0  0  0  0  0  0  0  0
    6.1813   -9.4806    0.0000 C   0  0  0  0  0  0  0  0  0  0  0  0
    6.8957   -9.8931    0.0000 C   0  0  0  0  0  0  0  0  0  0  0  0
    7.6102   -9.4806    0.0000 C   0  0  0  0  0  0  0  0  0  0  0  0
    8.3247   -9.8931    0.0000 C   0  0  0  0  0  0  0  0  0  0  0  0
    9.0391   -9.4806    0.0000 C   0  0  0  0  0  0  0  0  0  0  0  0
    9.7536   -9.8931    0.0000 C   0  0  0  0  0  0  0  0  0  0  0  0
   10.4681   -9.4806    0.0000 C   0  0  0  0  0  0  0  0  0  0  0  0
   11.1826   -9.8931    0.0000 C   0  0  0  0  0  0  0  0  0  0  0  0
   11.8970   -9.4806    0.0000 C   0  0  0  0  0  0  0  0  0  0  0  0
   12.6115   -9.8931    0.0000 C   0  0  0  0  0  0  0  0  0  0  0  0
    1.1726   -8.2431    0.0000 O   0  0  0  0  0  0  0  0  0  0  0  0
  1  2  2  0  0  0  0
  2  3  1  0  0  0  0
  3  4  2  0  0  0  0
  4  5  1  0  0  0  0
  5  6  2  0  0  0  0
  6  1  1  0  0  0  0
  6  7  1  0  0  0  0
  8  9  1  0  0  0  0
  9 10  1  0  0  0  0
 10 11  1  0  0  0  0
 11 12  1  0  0  0  0
 12 13  1  0  0  0  0
 13 14  1  0  0  0  0
 14 15  1  0  0  0  0
 15 16  1  0  0  0  0
 16 17  1  0  0  0  0
 17 18  1  0  0  0  0
 18 19  1  0  0  0  0
 19 20  1  0  0  0  0
  8  4  1  0  0  0  0
  1 21  1  0  0  0  0
M  END
>  <cdx:fragmentId>
25

$$$$
