16706.cdx
  Mrv1902 05222410272D          

 25 25  0  0  0  0            999 V2000
    2.8388   -9.7006    0.0000 C   0  0  0  0  0  0  0  0  0  0  0  0
    2.8388  -10.5256    0.0000 C   0  0  0  0  0  0  0  0  0  0  0  0
    3.5533  -10.9381    0.0000 C   0  0  0  0  0  0  0  0  0  0  0  0
    4.2678  -10.5256    0.0000 C   0  0  0  0  0  0  0  0  0  0  0  0
    4.2678   -9.7006    0.0000 C   0  0  0  0  0  0  0  0  0  0  0  0
    3.5533   -9.2881    0.0000 C   0  0  0  0  0  0  0  0  0  0  0  0
    3.5533   -8.4631    0.0000 O   0  0  0  0  0  0  0  0  0  0  0  0
    4.9897  -10.9381    0.0000 C   0  0  0  0  0  0  0  0  0  0  0  0
    5.7041  -10.5256    0.0000 C   0  0  0  0  0  0  0  0  0  0  0  0
    6.4186  -10.9381    0.0000 C   0  0  0  0  0  0  0  0  0  0  0  0
    7.1331  -10.5256    0.0000 C   0  0  0  0  0  0  0  0  0  0  0  0
    7.8475  -10.9381    0.0000 C   0  0  0  0  0  0  0  0  0  0  0  0
    8.5620  -10.5256    0.0000 C   0  0  0  0  0  0  0  0  0  0  0  0
    9.2765  -10.9381    0.0000 C   0  0  0  0  0  0  0  0  0  0  0  0
    9.9910  -10.5256    0.0000 C   0  0  0  0  0  0  0  0  0  0  0  0
   10.7054  -10.9381    0.0000 C   0  0  0  0  0  0  0  0  0  0  0  0
   11.4199  -10.4981    0.0000 C   0  0  0  0  0  0  0  0  0  0  0  0
   15.0898  -10.4993    0.0000 C   0  0  0  0  0  0  0  0  0  0  0  0
   14.3753  -10.9118    0.0000 C   0  0  0  0  0  0  0  0  0  0  0  0
   13.6608  -10.4993    0.0000 C   0  0  0  0  0  0  0  0  0  0  0  0
   12.9464  -10.9118    0.0000 C   0  0  0  0  0  0  0  0  0  0  0  0
   12.2319  -10.4993    0.0000 C   0  0  0  0  0  0  0  0  0  0  0  0
    2.1244   -9.2881    0.0000 O   0  0  0  0  0  0  0  0  0  0  0  0
   15.8043  -10.9118    0.0000 C   0  0  0  0  0  0  0  0  0  0  0  0
   16.5187  -10.4993    0.0000 C   0  0  0  0  0  0  0  0  0  0  0  0
  1  2  2  0  0  0  0
  2  3  1  0  0  0  0
  3  4  2  0  0  0  0
  4  5  1  0  0  0  0
  5  6  2  0  0  0  0
  6  1  1  0  0  0  0
  6  7  1  0  0  0  0
  8  9  1  0  0  0  0
  9 10  1  0  0  0  0
 10 11  1  0  0  0  0
 11 12  1  0  0  0  0
 12 13  1  0  0  0  0
 13 14  1  0  0  0  0
 14 15  1  0  0  0  0
 15 16  1  0  0  0  0
  8  4  1  0  0  0  0
 19 18  1  0  0  0  0
 20 19  1  0  0  0  0
 21 20  1  0  0  0  0
 22 21  1  0  0  0  0
 17 22  2  0  0  0  0
  1 23  1  0  0  0  0
 17 16  1  0  0  0  0
 18 24  1  0  0  0  0
 24 25  1  0  0  0  0
M  END
>  <cdx:fragmentId>
86

$$$$
