16712.cdx
  Mrv1902 05222410272D          

 33 37  0  0  0  0            999 V2000
    4.4142   -9.2533    0.0000 C   0  0  0  0  0  0  0  0  0  0  0  0
    3.9273   -9.9193    0.0000 C   0  0  0  0  0  0  0  0  0  0  0  0
    4.4102  -10.5882    0.0000 C   0  0  2  0  0  0  0  0  0  0  0  0
    5.1956  -10.3356    0.0000 C   0  0  0  0  0  0  0  0  0  0  0  0
    5.1981   -9.5106    0.0000 C   0  0  0  0  0  0  0  0  0  0  0  0
    5.9089  -10.7502    0.0000 C   0  0  0  0  0  0  0  0  0  0  0  0
    6.6246  -10.3356    0.0000 C   0  0  0  0  0  0  0  0  0  0  0  0
    6.6246   -9.5106    0.0000 C   0  0  0  0  0  0  0  0  0  0  0  0
    5.9089   -9.0959    0.0000 C   0  0  0  0  0  0  0  0  0  0  0  0
    7.3415   -9.0959    0.0000 C   0  0  1  0  0  0  0  0  0  0  0  0
    7.3415   -8.2688    0.0000 C   0  0  0  0  0  0  0  0  0  0  0  0
    6.6246   -7.8542    0.0000 C   0  0  0  0  0  0  0  0  0  0  0  0
    5.9089   -8.2688    0.0000 C   0  0  0  0  0  0  0  0  0  0  0  0
    8.0578   -9.5095    0.0000 C   0  0  0  0  0  0  0  0  0  0  0  0
    8.7741   -9.0959    0.0000 C   0  0  0  0  0  0  0  0  0  0  0  0
    8.7741   -8.2688    0.0000 C   0  0  0  0  0  0  0  0  0  0  0  0
    8.0578   -7.8552    0.0000 C   0  0  0  0  0  0  0  0  0  0  0  0
    9.4904   -7.8552    0.0000 C   0  0  0  0  0  0  0  0  0  0  0  0
    9.4904   -7.0281    0.0000 C   0  0  0  0  0  0  0  0  0  0  0  0
    8.7741   -6.6145    0.0000 C   0  0  2  0  0  0  0  0  0  0  0  0
    8.0578   -7.0281    0.0000 C   0  0  2  0  0  0  0  0  0  0  0  0
    4.4102  -11.4132    0.0000 C   0  0  0  0  0  0  0  0  0  0  0  0
    3.6958  -11.0007    0.0000 C   0  0  0  0  0  0  0  0  0  0  0  0
    5.1981   -8.6856    0.0000 C   0  0  0  0  0  0  0  0  0  0  0  0
    4.2007   -8.4564    0.0000 C   0  0  0  0  0  0  0  0  0  0  0  0
    3.4038   -8.2429    0.0000 O   0  0  0  0  0  0  0  0  0  0  0  0
    7.2609   -6.8146    0.0000 C   0  0  0  0  0  0  0  0  0  0  0  0
    9.4886   -8.6813    0.0000 C   0  0  0  0  0  0  0  0  0  0  0  0
    7.3415   -9.9209    0.0000 C   0  0  0  0  0  0  0  0  0  0  0  0
    7.8443   -6.2312    0.0000 O   0  0  0  0  0  0  0  0  0  0  0  0
    8.7741   -5.7895    0.0000 C   0  0  0  0  0  0  0  0  0  0  0  0
   10.2031   -8.2688    0.0000 O   0  0  0  0  0  0  0  0  0  0  0  0
    9.4886   -9.5063    0.0000 O   0  0  0  0  0  0  0  0  0  0  0  0
  1  2  2  0  0  0  0
  2  3  1  0  0  0  0
  3  4  1  0  0  0  0
  4  5  1  0  0  0  0
  5  1  1  0  0  0  0
  4  6  1  0  0  0  0
  6  7  1  0  0  0  0
  7  8  1  0  0  0  0
  8  9  1  0  0  0  0
  9  5  1  0  0  0  0
  8 10  1  0  0  0  0
 10 11  1  0  0  0  0
 11 12  2  0  0  0  0
 12 13  1  0  0  0  0
 13  9  1  0  0  0  0
 10 14  1  0  0  0  0
 14 15  1  0  0  0  0
 15 16  1  0  0  0  0
 16 17  1  0  0  0  0
 17 11  1  0  0  0  0
 16 18  1  0  0  0  0
 18 19  1  0  0  0  0
 19 20  1  0  0  0  0
 20 21  1  0  0  0  0
 21 17  1  0  0  0  0
  3 22  1  6  0  0  0
  3 23  1  0  0  0  0
  5 24  1  0  0  0  0
  1 25  1  0  0  0  0
 25 26  1  0  0  0  0
 21 27  1  0  0  0  0
 16 28  1  0  0  0  0
 10 29  1  6  0  0  0
 21 30  1  6  0  0  0
 20 31  1  6  0  0  0
 28 32  1  0  0  0  0
 28 33  2  0  0  0  0
M  END
>  <cdx:fragmentId>
5

$$$$
