16713.cdx
  Mrv1902 05222410272D          

 25 28  0  0  0  0            999 V2000
    9.3384   -6.9167    0.0000 O   0  0  0  0  0  0  0  0  0  0  0  0
    9.8233   -6.2493    0.0000 C   0  0  0  0  0  0  0  0  0  0  0  0
    9.3384   -5.5818    0.0000 C   0  0  0  0  0  0  0  0  0  0  0  0
    8.5538   -5.8368    0.0000 C   0  0  0  0  0  0  0  0  0  0  0  0
    7.8393   -5.4243    0.0000 C   0  0  0  0  0  0  0  0  0  0  0  0
    7.1248   -5.8368    0.0000 C   0  0  0  0  0  0  0  0  0  0  0  0
    7.1248   -6.6618    0.0000 C   0  0  0  0  0  0  0  0  0  0  0  0
    7.8393   -7.0743    0.0000 C   0  0  0  0  0  0  0  0  0  0  0  0
    8.5538   -6.6618    0.0000 C   0  0  0  0  0  0  0  0  0  0  0  0
    7.8393   -7.8993    0.0000 C   0  0  0  0  0  0  0  0  0  0  0  0
    7.1248   -8.3118    0.0000 C   0  0  0  0  0  0  0  0  0  0  0  0
    6.4103   -7.8993    0.0000 C   0  0  0  0  0  0  0  0  0  0  0  0
    5.6959   -8.3118    0.0000 C   0  0  0  0  0  0  0  0  0  0  0  0
    4.9814   -7.8993    0.0000 C   0  0  0  0  0  0  0  0  0  0  0  0
    4.9814   -7.0743    0.0000 C   0  0  0  0  0  0  0  0  0  0  0  0
    5.6959   -6.6618    0.0000 C   0  0  0  0  0  0  0  0  0  0  0  0
    6.4103   -7.0743    0.0000 C   0  0  0  0  0  0  0  0  0  0  0  0
    7.8393   -4.5993    0.0000 O   0  0  0  0  0  0  0  0  0  0  0  0
    6.4103   -5.4243    0.0000 O   0  0  0  0  0  0  0  0  0  0  0  0
    6.1084   -9.0263    0.0000 C   0  0  0  0  0  0  0  0  0  0  0  0
    9.5933   -4.7972    0.0000 C   0  0  0  0  0  0  0  0  0  0  0  0
    5.2834   -9.0263    0.0000 C   0  0  0  0  0  0  0  0  0  0  0  0
    5.6959   -9.7407    0.0000 O   0  0  0  0  0  0  0  0  0  0  0  0
    4.4584   -9.0263    0.0000 O   0  0  0  0  0  0  0  0  0  0  0  0
    4.0459   -9.7407    0.0000 C   0  0  0  0  0  0  0  0  0  0  0  0
  1  2  1  0  0  0  0
  2  3  1  0  0  0  0
  3  4  1  0  0  0  0
  4  5  1  0  0  0  0
  5  6  1  0  0  0  0
  6  7  1  0  0  0  0
  7  8  1  0  0  0  0
  8  9  1  0  0  0  0
  4  9  2  0  0  0  0
  1  9  1  0  0  0  0
 10 11  1  0  0  0  0
 11 12  2  0  0  0  0
 12 13  1  0  0  0  0
 13 14  1  0  0  0  0
 14 15  1  0  0  0  0
 15 16  1  0  0  0  0
 16 17  1  0  0  0  0
 12 17  1  0  0  0  0
 17  7  2  0  0  0  0
 10  8  2  0  0  0  0
  5 18  2  0  0  0  0
  6 19  2  0  0  0  0
 13 20  1  0  0  0  0
  3 21  1  0  0  0  0
 13 22  1  0  0  0  0
 22 23  2  0  0  0  0
 22 24  1  0  0  0  0
 24 25  1  0  0  0  0
M  END
>  <cdx:fragmentId>
9066

$$$$
