16727.cdx
  Mrv1902 05222410192D          

 45 48  0  0  0  0            999 V2000
    6.5002   -7.1981    0.0000 C   0  0  2  0  0  0  0  0  0  0  0  0
    6.5002   -8.0231    0.0000 C   0  0  0  0  0  0  0  0  0  0  0  0
    7.2146   -8.4356    0.0000 C   0  0  0  0  0  0  0  0  0  0  0  0
    7.9291   -8.0231    0.0000 C   0  0  0  0  0  0  0  0  0  0  0  0
    7.9291   -7.1981    0.0000 C   0  0  2  0  0  0  0  0  0  0  0  0
    7.2146   -6.7856    0.0000 C   0  0  1  0  0  0  0  0  0  0  0  0
    7.2146   -5.9606    0.0000 O   0  0  0  0  0  0  0  0  0  0  0  0
    8.6436   -6.7856    0.0000 O   0  0  0  0  0  0  0  0  0  0  0  0
    5.7857   -6.7856    0.0000 O   0  0  0  0  0  0  0  0  0  0  0  0
    7.2146   -9.2606    0.0000 C   0  0  0  0  0  0  0  0  0  0  0  0
    6.5002   -9.6731    0.0000 O   0  0  0  0  0  0  0  0  0  0  0  0
    7.9291   -9.6731    0.0000 O   0  0  0  0  0  0  0  0  0  0  0  0
    5.0712   -7.1981    0.0000 C   0  0  0  0  0  0  0  0  0  0  0  0
    4.3567   -6.7856    0.0000 C   0  0  0  0  0  0  0  0  0  0  0  0
    5.0712   -8.0231    0.0000 O   0  0  0  0  0  0  0  0  0  0  0  0
    6.5002   -5.5481    0.0000 C   0  0  0  0  0  0  0  0  0  0  0  0
    6.5002   -4.7231    0.0000 C   0  0  0  0  0  0  0  0  0  0  0  0
    5.7857   -5.9606    0.0000 O   0  0  0  0  0  0  0  0  0  0  0  0
    9.3580   -7.1981    0.0000 C   0  0  0  0  0  0  0  0  0  0  0  0
   10.0725   -6.7856    0.0000 C   0  0  0  0  0  0  0  0  0  0  0  0
    9.3580   -8.0231    0.0000 O   0  0  0  0  0  0  0  0  0  0  0  0
    4.3567   -5.9606    0.0000 C   0  0  0  0  0  0  0  0  0  0  0  0
    3.6423   -5.5481    0.0000 C   0  0  0  0  0  0  0  0  0  0  0  0
    2.9278   -5.9606    0.0000 C   0  0  0  0  0  0  0  0  0  0  0  0
    2.9278   -6.7856    0.0000 C   0  0  0  0  0  0  0  0  0  0  0  0
    3.6423   -7.1981    0.0000 C   0  0  0  0  0  0  0  0  0  0  0  0
   10.7870   -7.1981    0.0000 C   0  0  0  0  0  0  0  0  0  0  0  0
   11.5015   -6.7856    0.0000 C   0  0  0  0  0  0  0  0  0  0  0  0
   11.5015   -5.9606    0.0000 C   0  0  0  0  0  0  0  0  0  0  0  0
   10.7870   -5.5481    0.0000 C   0  0  0  0  0  0  0  0  0  0  0  0
   10.0725   -5.9606    0.0000 C   0  0  0  0  0  0  0  0  0  0  0  0
    7.2146   -4.3106    0.0000 C   0  0  0  0  0  0  0  0  0  0  0  0
    7.2146   -3.4856    0.0000 C   0  0  0  0  0  0  0  0  0  0  0  0
    6.5002   -3.0731    0.0000 C   0  0  0  0  0  0  0  0  0  0  0  0
    5.7857   -3.4856    0.0000 C   0  0  0  0  0  0  0  0  0  0  0  0
    5.7857   -4.3106    0.0000 C   0  0  0  0  0  0  0  0  0  0  0  0
    5.0712   -3.0731    0.0000 O   0  0  0  0  0  0  0  0  0  0  0  0
    6.5002   -2.2481    0.0000 O   0  0  0  0  0  0  0  0  0  0  0  0
    7.9291   -3.0731    0.0000 O   0  0  0  0  0  0  0  0  0  0  0  0
   10.7870   -4.7231    0.0000 O   0  0  0  0  0  0  0  0  0  0  0  0
   12.2159   -5.5481    0.0000 O   0  0  0  0  0  0  0  0  0  0  0  0
   12.2159   -7.1981    0.0000 O   0  0  0  0  0  0  0  0  0  0  0  0
    3.6423   -4.7231    0.0000 O   0  0  0  0  0  0  0  0  0  0  0  0
    2.2133   -5.5481    0.0000 O   0  0  0  0  0  0  0  0  0  0  0  0
    2.2133   -7.1981    0.0000 O   0  0  0  0  0  0  0  0  0  0  0  0
  1  2  1  0  0  0  0
  2  3  1  0  0  0  0
  3  4  2  0  0  0  0
  4  5  1  0  0  0  0
  5  6  1  0  0  0  0
  6  1  1  0  0  0  0
  6  7  1  6  0  0  0
  5  8  1  6  0  0  0
  1  9  1  1  0  0  0
  3 10  1  0  0  0  0
 10 11  1  0  0  0  0
 10 12  2  0  0  0  0
  9 13  1  0  0  0  0
 13 14  1  0  0  0  0
 13 15  2  0  0  0  0
  7 16  1  0  0  0  0
 16 17  1  0  0  0  0
 16 18  2  0  0  0  0
  8 19  1  0  0  0  0
 19 20  1  0  0  0  0
 19 21  2  0  0  0  0
 14 22  2  0  0  0  0
 22 23  1  0  0  0  0
 23 24  2  0  0  0  0
 24 25  1  0  0  0  0
 25 26  2  0  0  0  0
 26 14  1  0  0  0  0
 20 27  2  0  0  0  0
 27 28  1  0  0  0  0
 28 29  2  0  0  0  0
 29 30  1  0  0  0  0
 30 31  2  0  0  0  0
 31 20  1  0  0  0  0
 17 32  2  0  0  0  0
 32 33  1  0  0  0  0
 33 34  2  0  0  0  0
 34 35  1  0  0  0  0
 35 36  2  0  0  0  0
 36 17  1  0  0  0  0
 35 37  1  0  0  0  0
 34 38  1  0  0  0  0
 33 39  1  0  0  0  0
 30 40  1  0  0  0  0
 29 41  1  0  0  0  0
 28 42  1  0  0  0  0
 23 43  1  0  0  0  0
 24 44  1  0  0  0  0
 25 45  1  0  0  0  0
M  END
>  <cdx:fragmentId>
5

$$$$
