16734.cdx
  Mrv1902 05222410182D          

 33 37  0  0  0  0            999 V2000
    4.9739   -7.4663    0.0000 C   0  0  1  0  0  0  0  0  0  0  0  0
    4.9739   -8.2912    0.0000 C   0  0  2  0  0  0  0  0  0  0  0  0
    5.6884   -8.7037    0.0000 C   0  0  1  0  0  0  0  0  0  0  0  0
    6.4028   -8.2912    0.0000 C   0  0  0  0  0  0  0  0  0  0  0  0
    6.4028   -7.4663    0.0000 C   0  0  2  0  0  0  0  0  0  0  0  0
    5.6884   -7.0537    0.0000 C   0  0  0  0  0  0  0  0  0  0  0  0
    7.1173   -8.7037    0.0000 C   0  0  0  0  0  0  0  0  0  0  0  0
    7.8318   -8.2912    0.0000 C   0  0  0  0  0  0  0  0  0  0  0  0
    7.8318   -7.4663    0.0000 C   0  0  2  0  0  0  0  0  0  0  0  0
    7.1173   -7.0537    0.0000 C   0  0  0  0  0  0  0  0  0  0  0  0
    8.5463   -7.0537    0.0000 C   0  0  0  0  0  0  0  0  0  0  0  0
    8.5463   -6.2287    0.0000 C   0  0  0  0  0  0  0  0  0  0  0  0
    7.8318   -5.8163    0.0000 C   0  0  0  0  0  0  0  0  0  0  0  0
    7.1173   -6.2287    0.0000 C   0  0  0  0  0  0  0  0  0  0  0  0
    9.2607   -7.4663    0.0000 C   0  0  0  0  0  0  0  0  0  0  0  0
    9.9752   -7.0537    0.0000 C   0  0  0  0  0  0  0  0  0  0  0  0
    9.9752   -6.2287    0.0000 C   0  0  2  0  0  0  0  0  0  0  0  0
    9.2607   -5.8163    0.0000 C   0  0  0  0  0  0  0  0  0  0  0  0
   10.6897   -5.8163    0.0000 C   0  0  0  0  0  0  0  0  0  0  0  0
   10.6897   -4.9913    0.0000 C   0  0  0  0  0  0  0  0  0  0  0  0
    9.9752   -4.5788    0.0000 C   0  0  2  0  0  0  0  0  0  0  0  0
    9.2607   -4.9913    0.0000 C   0  0  2  0  0  0  0  0  0  0  0  0
    5.2759   -9.4182    0.0000 C   0  0  0  0  0  0  0  0  0  0  0  0
    6.4028   -6.6413    0.0000 C   0  0  0  0  0  0  0  0  0  0  0  0
    7.8318   -6.6413    0.0000 C   0  0  0  0  0  0  0  0  0  0  0  0
    8.4638   -4.7777    0.0000 C   0  0  0  0  0  0  0  0  0  0  0  0
   10.6897   -6.6413    0.0000 C   0  0  0  0  0  0  0  0  0  0  0  0
    4.2594   -8.7037    0.0000 O   0  0  0  0  0  0  0  0  0  0  0  0
    4.2594   -7.0537    0.0000 O   0  0  0  0  0  0  0  0  0  0  0  0
    6.1009   -9.4182    0.0000 C   0  0  0  0  0  0  0  0  0  0  0  0
    9.0472   -4.1944    0.0000 H   0  0  0  0  0  0  0  0  0  0  0  0
    9.9752   -3.7538    0.0000 C   0  0  0  0  0  0  0  0  0  0  0  0
    5.6884  -10.1327    0.0000 O   0  0  0  0  0  0  0  0  0  0  0  0
  1  2  1  0  0  0  0
  2  3  1  0  0  0  0
  3  4  1  0  0  0  0
  4  5  1  0  0  0  0
  5  6  1  0  0  0  0
  6  1  1  0  0  0  0
  4  7  1  0  0  0  0
  7  8  1  0  0  0  0
  8  9  1  0  0  0  0
  9 10  1  0  0  0  0
 10  5  1  0  0  0  0
  9 11  1  0  0  0  0
 11 12  1  0  0  0  0
 12 13  2  0  0  0  0
 13 14  1  0  0  0  0
 14 10  1  0  0  0  0
 11 15  1  0  0  0  0
 15 16  1  0  0  0  0
 16 17  1  0  0  0  0
 17 18  1  0  0  0  0
 18 12  1  0  0  0  0
 17 19  1  0  0  0  0
 19 20  1  0  0  0  0
 20 21  1  0  0  0  0
 21 22  1  0  0  0  0
 22 18  1  0  0  0  0
  3 23  1  1  0  0  0
  5 24  1  1  0  0  0
  9 25  1  1  0  0  0
 22 26  1  1  0  0  0
 17 27  1  1  0  0  0
  2 28  1  6  0  0  0
  1 29  1  6  0  0  0
  3 30  1  6  0  0  0
 22 31  1  6  0  0  0
 21 32  1  6  0  0  0
 23 33  1  0  0  0  0
M  END
>  <cdx:fragmentId>
5

$$$$
