14167388.cdx
  Mrv1902 05222410272D          

 19 20  0  0  0  0            999 V2000
    7.1222  -14.2774    0.0000 C   0  0  1  0  0  0  0  0  0  0  0  0
    7.8367  -14.6899    0.0000 C   0  0  1  0  0  0  0  0  0  0  0  0
    7.8367  -15.5149    0.0000 C   0  0  0  0  0  0  0  0  0  0  0  0
    7.1222  -15.9274    0.0000 C   0  0  0  0  0  0  0  0  0  0  0  0
    6.4077  -15.5149    0.0000 C   0  0  1  0  0  0  0  0  0  0  0  0
    5.6933  -15.9274    0.0000 C   0  0  0  0  0  0  0  0  0  0  0  0
    4.9788  -15.5149    0.0000 C   0  0  0  0  0  0  0  0  0  0  0  0
    4.9788  -14.6899    0.0000 C   0  0  0  0  0  0  0  0  0  0  0  0
    5.6933  -14.2774    0.0000 C   0  0  2  0  0  0  0  0  0  0  0  0
    6.4077  -14.6899    0.0000 C   0  0  2  0  0  0  0  0  0  0  0  0
    7.1222  -13.4524    0.0000 O   0  0  0  0  0  0  0  0  0  0  0  0
    5.2808  -13.5630    0.0000 O   0  0  0  0  0  0  0  0  0  0  0  0
    6.1058  -13.5630    0.0000 C   0  0  0  0  0  0  0  0  0  0  0  0
    6.4077  -16.3399    0.0000 C   0  0  0  0  0  0  0  0  0  0  0  0
    8.5511  -13.4524    0.0000 C   0  0  0  0  0  0  0  0  0  0  0  0
    8.5511  -14.2774    0.0000 C   0  0  0  0  0  0  0  0  0  0  0  0
    9.2656  -14.6899    0.0000 C   0  0  0  0  0  0  0  0  0  0  0  0
    9.2656  -13.8649    0.0000 O   0  0  0  0  0  0  0  0  0  0  0  0
    6.4077  -13.8649    0.0000 H   0  0  0  0  0  0  0  0  0  0  0  0
  1  2  1  0  0  0  0
  2  3  1  0  0  0  0
  3  4  1  0  0  0  0
  4  5  1  0  0  0  0
  5  6  1  0  0  0  0
  6  7  1  0  0  0  0
  7  8  1  0  0  0  0
  8  9  1  0  0  0  0
  9 10  1  0  0  0  0
  1 10  1  0  0  0  0
  5 10  1  0  0  0  0
  1 11  1  1  0  0  0
  9 12  1  1  0  0  0
  9 13  1  6  0  0  0
  5 14  1  6  0  0  0
 15 16  1  0  0  0  0
 16 17  1  0  0  0  0
 16 18  1  0  0  0  0
  2 16  1  6  0  0  0
 10 19  1  1  0  0  0
M  END
>  <cdx:groupId>
103420

>  <cdx:fragmentId>
103365

$$$$
