16732.cdx
  Mrv1902 05222410192D          

 13 14  0  0  0  0            999 V2000
    4.1727   -3.9108    0.0000 C   0  0  0  0  0  0  0  0  0  0  0  0
    3.4582   -3.4983    0.0000 C   0  0  0  0  0  0  0  0  0  0  0  0
    3.4582   -2.6733    0.0000 C   0  0  0  0  0  0  0  0  0  0  0  0
    4.1727   -2.2608    0.0000 C   0  0  0  0  0  0  0  0  0  0  0  0
    4.8872   -2.6733    0.0000 C   0  0  0  0  0  0  0  0  0  0  0  0
    5.6016   -2.2608    0.0000 C   0  0  0  0  0  0  0  0  0  0  0  0
    6.3161   -2.6733    0.0000 C   0  0  0  0  0  0  0  0  0  0  0  0
    6.3161   -3.4983    0.0000 C   0  0  0  0  0  0  0  0  0  0  0  0
    5.6016   -3.9108    0.0000 C   0  0  0  0  0  0  0  0  0  0  0  0
    4.8872   -3.4983    0.0000 C   0  0  0  0  0  0  0  0  0  0  0  0
    5.6016   -1.4358    0.0000 C   0  0  0  0  0  0  0  0  0  0  0  0
    2.7438   -2.2608    0.0000 C   0  0  0  0  0  0  0  0  0  0  0  0
    2.7438   -3.9108    0.0000 C   0  0  0  0  0  0  0  0  0  0  0  0
  1  2  1  0  0  0  0
  2  3  2  0  0  0  0
  3  4  1  0  0  0  0
  4  5  2  0  0  0  0
  5  6  1  0  0  0  0
  6  7  2  0  0  0  0
  7  8  1  0  0  0  0
  8  9  2  0  0  0  0
  9 10  1  0  0  0  0
  1 10  2  0  0  0  0
  5 10  1  0  0  0  0
  6 11  1  0  0  0  0
  3 12  1  0  0  0  0
  2 13  1  0  0  0  0
M  END
>  <cdx:groupId>
42

>  <cdx:fragmentId>
5

$$$$
