16741.cdx
  Mrv1902 05222410212D          

 11 11  0  0  0  0            999 V2000
    6.9431   -7.7855    0.0000 C   0  0  0  0  0  0  0  0  0  0  0  0
    6.9393   -8.6105    0.0000 C   0  0  0  0  0  0  0  0  0  0  0  0
    6.2229   -9.0197    0.0000 C   0  0  0  0  0  0  0  0  0  0  0  0
    5.5104   -8.6039    0.0000 C   0  0  0  0  0  0  0  0  0  0  0  0
    5.5141   -7.7789    0.0000 C   0  0  0  0  0  0  0  0  0  0  0  0
    6.2305   -7.3697    0.0000 C   0  0  0  0  0  0  0  0  0  0  0  0
    7.6594   -7.3762    0.0000 C   0  0  0  0  0  0  0  0  0  0  0  0
    8.3720   -7.7920    0.0000 C   0  0  0  0  0  0  0  0  0  0  0  0
    9.0884   -7.3828    0.0000 N   0  0  0  0  0  0  0  0  0  0  0  0
    9.8009   -7.7986    0.0000 C   0  0  0  0  0  0  0  0  0  0  0  0
   10.5135   -8.2143    0.0000 S   0  0  0  0  0  0  0  0  0  0  0  0
  1  2  1  0  0  0  0
  2  3  2  0  0  0  0
  3  4  1  0  0  0  0
  4  5  2  0  0  0  0
  5  6  1  0  0  0  0
  1  6  2  0  0  0  0
  7  8  1  0  0  0  0
  9 10  2  0  0  0  0
 10 11  2  0  0  0  0
  8  9  1  0  0  0  0
  1  7  1  0  0  0  0
M  END
>  <cdx:fragmentId>
39

$$$$
