16754.cdx
  Mrv1902 05222410212D          

 27 30  0  0  0  0            999 V2000
    8.9143   -7.1770    0.0000 N   0  0  0  0  0  0  0  0  0  0  0  0
    9.6286   -6.7643    0.0000 C   0  0  0  0  0  0  0  0  0  0  0  0
    9.6289   -5.9393    0.0000 C   0  0  0  0  0  0  0  0  0  0  0  0
    8.9148   -5.5261    0.0000 C   0  0  0  0  0  0  0  0  0  0  0  0
    8.2003   -5.9386    0.0000 C   0  0  0  0  0  0  0  0  0  0  0  0
    7.4859   -5.5261    0.0000 C   0  0  0  0  0  0  0  0  0  0  0  0
    6.7714   -5.9386    0.0000 C   0  0  0  0  0  0  0  0  0  0  0  0
    6.7714   -6.7636    0.0000 C   0  0  0  0  0  0  0  0  0  0  0  0
    7.4859   -7.1761    0.0000 C   0  0  0  0  0  0  0  0  0  0  0  0
    8.2003   -6.7636    0.0000 C   0  0  2  0  0  0  0  0  0  0  0  0
    7.4859   -4.7011    0.0000 C   0  0  0  0  0  0  0  0  0  0  0  0
    8.2003   -4.2886    0.0000 C   0  0  0  0  0  0  0  0  0  0  0  0
    8.9148   -4.7011    0.0000 C   0  0  0  0  0  0  0  0  0  0  0  0
    6.0569   -7.1761    0.0000 C   0  0  0  0  0  0  0  0  0  0  0  0
    5.3424   -6.7636    0.0000 C   0  0  0  0  0  0  0  0  0  0  0  0
    5.3424   -5.9386    0.0000 C   0  0  0  0  0  0  0  0  0  0  0  0
    6.0569   -5.5261    0.0000 C   0  0  0  0  0  0  0  0  0  0  0  0
    8.9143   -8.0020    0.0000 C   0  0  0  0  0  0  0  0  0  0  0  0
    4.6280   -5.5261    0.0000 O   0  0  0  0  0  0  0  0  0  0  0  0
    3.9135   -5.9386    0.0000 C   0  0  0  0  0  0  0  0  0  0  0  0
    4.6280   -7.1761    0.0000 O   0  0  0  0  0  0  0  0  0  0  0  0
    3.9135   -6.7636    0.0000 C   0  0  0  0  0  0  0  0  0  0  0  0
    8.2003   -3.4636    0.0000 O   0  0  0  0  0  0  0  0  0  0  0  0
    8.9148   -3.0511    0.0000 C   0  0  0  0  0  0  0  0  0  0  0  0
    6.7714   -4.2886    0.0000 O   0  0  0  0  0  0  0  0  0  0  0  0
    6.0569   -4.7011    0.0000 C   0  0  0  0  0  0  0  0  0  0  0  0
    8.2003   -7.5886    0.0000 H   0  0  0  0  0  0  0  0  0  0  0  0
  1  2  1  0  0  0  0
  2  3  1  0  0  0  0
  3  4  1  0  0  0  0
  4  5  1  0  0  0  0
  5  6  2  0  0  0  0
  6  7  1  0  0  0  0
  7  8  1  0  0  0  0
  8  9  1  0  0  0  0
  9 10  1  0  0  0  0
  1 10  1  0  0  0  0
  5 10  1  0  0  0  0
 11 12  2  0  0  0  0
 12 13  1  0  0  0  0
 13  4  2  0  0  0  0
 11  6  1  0  0  0  0
 14 15  1  0  0  0  0
 15 16  2  0  0  0  0
 16 17  1  0  0  0  0
 17  7  2  0  0  0  0
 14  8  2  0  0  0  0
  1 18  1  0  0  0  0
 19 20  1  0  0  0  0
 16 19  1  0  0  0  0
 21 22  1  0  0  0  0
 15 21  1  0  0  0  0
 23 24  1  0  0  0  0
 12 23  1  0  0  0  0
 25 26  1  0  0  0  0
 11 25  1  0  0  0  0
 10 27  1  6  0  0  0
M  END
>  <cdx:fragmentId>
5

$$$$
