16757.cdx
  Mrv1902 05222410212D          

 26 27  0  0  0  0            999 V2000
    8.1768   -8.7749    0.0000 C   0  0  0  0  0  0  0  0  0  0  0  0
    6.7480   -8.7971    0.0000 C   0  0  0  0  0  0  0  0  0  0  0  0
    7.4560   -8.3735    0.0000 C   0  0  0  0  0  0  0  0  0  0  0  0
   10.2390   -6.6801    0.0000 O   0  0  0  0  0  0  0  0  0  0  0  0
   10.1881   -8.0629    0.0000 C   0  0  0  0  0  0  0  0  0  0  0  0
    7.4047   -5.0739    0.0000 C   0  0  0  0  0  0  0  0  0  0  0  0
    5.2936   -7.1695    0.0000 O   0  0  0  0  0  0  0  0  0  0  0  0
    3.8648   -7.1917    0.0000 C   0  0  0  0  0  0  0  0  0  0  0  0
    2.4232   -6.3890    0.0000 C   0  0  0  0  0  0  0  0  0  0  0  0
    3.1312   -5.9655    0.0000 C   0  0  0  0  0  0  0  0  0  0  0  0
    3.8520   -6.3668    0.0000 C   0  0  0  0  0  0  0  0  0  0  0  0
    4.5600   -5.9433    0.0000 C   0  0  0  0  0  0  0  0  0  0  0  0
    5.2808   -6.3446    0.0000 C   0  0  0  0  0  0  0  0  0  0  0  0
    5.9887   -5.9210    0.0000 O   0  0  0  0  0  0  0  0  0  0  0  0
    8.1255   -5.4753    0.0000 H   0  0  0  0  0  0  0  0  0  0  0  0
    8.1640   -7.9500    0.0000 H   0  0  0  0  0  0  0  0  0  0  0  0
    9.3632   -8.0757    0.0000 C   0  0  0  0  0  0  0  0  0  0  0  0
    8.9396   -7.3678    0.0000 C   0  0  0  0  0  0  0  0  0  0  0  0
    9.4141   -6.6929    0.0000 C   0  0  0  0  0  0  0  0  0  0  0  0
    8.9189   -6.0331    0.0000 C   0  0  0  0  0  0  0  0  0  0  0  0
    7.4432   -7.5486    0.0000 C   0  0  1  0  0  0  0  0  0  0  0  0
    8.1511   -7.1251    0.0000 C   0  0  1  0  0  0  0  0  0  0  0  0
    8.1383   -6.3002    0.0000 C   0  0  2  0  0  0  0  0  0  0  0  0
    7.4175   -5.8988    0.0000 C   0  0  0  0  0  0  0  0  0  0  0  0
    6.7095   -6.3224    0.0000 C   0  0  1  0  0  0  0  0  0  0  0  0
    6.7224   -7.1473    0.0000 C   0  0  0  0  0  0  0  0  0  0  0  0
  3  1  1  0  0  0  0
  3  2  1  0  0  0  0
 21  3  1  6  0  0  0
 18 17  2  0  0  0  0
 19  4  2  0  0  0  0
 17  5  1  0  0  0  0
 24  6  2  0  0  0  0
 13  7  2  0  0  0  0
 11  8  1  0  0  0  0
 10  9  1  0  0  0  0
 11 10  1  0  0  0  0
 12 11  2  0  0  0  0
 13 12  1  0  0  0  0
 14 13  1  0  0  0  0
 25 14  1  1  0  0  0
 23 15  1  1  0  0  0
 22 16  1  6  0  0  0
 18 22  1  0  0  0  0
 19 18  1  0  0  0  0
 20 19  1  0  0  0  0
 23 20  1  0  0  0  0
 21 26  1  0  0  0  0
 22 21  1  0  0  0  0
 23 22  1  0  0  0  0
 24 23  1  0  0  0  0
 25 24  1  0  0  0  0
 26 25  1  0  0  0  0
M  END
>  <cdx:fragmentId>
5

$$$$
