167644.cdx
  Mrv1902 05222410222D          

 15 16  0  0  0  0            999 V2000
    8.6938  -15.8647    0.0000 C   0  0  0  0  0  0  0  0  0  0  0  0
    9.4082  -15.4522    0.0000 C   0  0  0  0  0  0  0  0  0  0  0  0
    9.4082  -14.6272    0.0000 C   0  0  0  0  0  0  0  0  0  0  0  0
    8.6938  -14.2147    0.0000 C   0  0  0  0  0  0  0  0  0  0  0  0
    7.9793  -14.6272    0.0000 C   0  0  0  0  0  0  0  0  0  0  0  0
    7.2648  -14.2147    0.0000 C   0  0  0  0  0  0  0  0  0  0  0  0
    6.5503  -14.6272    0.0000 C   0  0  0  0  0  0  0  0  0  0  0  0
    6.5503  -15.4522    0.0000 C   0  0  0  0  0  0  0  0  0  0  0  0
    7.2648  -15.8647    0.0000 C   0  0  0  0  0  0  0  0  0  0  0  0
    7.9793  -15.4522    0.0000 C   0  0  0  0  0  0  0  0  0  0  0  0
    5.8359  -13.3897    0.0000 C   0  0  0  0  0  0  0  0  0  0  0  0
    5.8359  -14.2147    0.0000 C   0  0  0  0  0  0  0  0  0  0  0  0
    5.1214  -14.6272    0.0000 C   0  0  0  0  0  0  0  0  0  0  0  0
    8.6938  -13.3897    0.0000 C   0  0  0  0  0  0  0  0  0  0  0  0
    7.9793  -16.2772    0.0000 C   0  0  0  0  0  0  0  0  0  0  0  0
  1  2  1  0  0  0  0
  2  3  1  0  0  0  0
  3  4  1  0  0  0  0
  4  5  1  0  0  0  0
  5  6  1  0  0  0  0
  6  7  2  0  0  0  0
  7  8  1  0  0  0  0
  8  9  1  0  0  0  0
  9 10  1  0  0  0  0
  1 10  1  0  0  0  0
  5 10  1  0  0  0  0
 11 12  1  0  0  0  0
 12 13  1  0  0  0  0
  7 12  1  0  0  0  0
  4 14  2  0  0  0  0
 10 15  1  0  0  0  0
M  END
>  <cdx:groupId>
103471

>  <cdx:fragmentId>
103428

$$$$
