167718.cdx
  Mrv1902 05222410222D          

 25 27  0  0  0  0            999 V2000
   10.0804   -8.3254    0.0000 O   0  0  0  0  0  0  0  0  0  0  0  0
   10.8154   -9.5508    0.0000 C   0  0  0  0  0  0  0  0  0  0  0  0
   10.1079   -9.9752    0.0000 O   0  0  0  0  0  0  0  0  0  0  0  0
    7.9579   -9.5984    0.0000 C   0  0  0  0  0  0  0  0  0  0  0  0
    8.6791   -9.9989    0.0000 C   0  0  0  0  0  0  0  0  0  0  0  0
    9.3866   -9.5746    0.0000 C   0  0  0  0  0  0  0  0  0  0  0  0
    9.3729   -8.7497    0.0000 C   0  0  0  0  0  0  0  0  0  0  0  0
    8.6517   -8.3492    0.0000 C   0  0  0  0  0  0  0  0  0  0  0  0
    7.9442   -8.7735    0.0000 C   0  0  0  0  0  0  0  0  0  0  0  0
    7.2229   -8.3730    0.0000 C   0  0  0  0  0  0  0  0  0  0  0  0
    3.6167   -6.3702    0.0000 C   0  0  0  0  0  0  0  0  0  0  0  0
    4.3242   -5.9459    0.0000 O   0  0  0  0  0  0  0  0  0  0  0  0
    8.3410   -7.8312    0.0000 C   0  0  0  0  0  0  0  0  0  0  0  0
    8.7416   -7.1100    0.0000 C   0  0  0  0  0  0  0  0  0  0  0  0
    4.3517   -7.5956    0.0000 O   0  0  0  0  0  0  0  0  0  0  0  0
    6.4879   -7.1475    0.0000 C   0  0  0  0  0  0  0  0  0  0  0  0
    5.7804   -7.5719    0.0000 C   0  0  0  0  0  0  0  0  0  0  0  0
    5.0592   -7.1713    0.0000 C   0  0  0  0  0  0  0  0  0  0  0  0
    5.0455   -6.3464    0.0000 C   0  0  0  0  0  0  0  0  0  0  0  0
    5.7530   -5.9221    0.0000 C   0  0  0  0  0  0  0  0  0  0  0  0
    6.4742   -6.3226    0.0000 C   0  0  0  0  0  0  0  0  0  0  0  0
    7.1817   -5.8983    0.0000 C   0  0  0  0  0  0  0  0  0  0  0  0
    7.9030   -6.2989    0.0000 C   0  0  0  0  0  0  0  0  0  0  0  0
    7.9167   -7.1237    0.0000 N   0  3  0  0  0  0  0  0  0  0  0  0
    7.2092   -7.5481    0.0000 C   0  0  1  0  0  0  0  0  0  0  0  0
 25 10  1  1  0  0  0
 10  9  1  0  0  0  0
  7  1  1  0  0  0  0
  6  3  1  0  0  0  0
  3  2  1  0  0  0  0
  9  4  2  0  0  0  0
  5  4  1  0  0  0  0
  6  5  2  0  0  0  0
  7  6  1  0  0  0  0
  8  7  2  0  0  0  0
  9  8  1  0  0  0  0
 19 12  1  0  0  0  0
 12 11  1  0  0  0  0
 24 13  1  0  0  0  0
 24 14  1  0  0  0  0
 18 15  1  0  0  0  0
 21 16  2  0  0  0  0
 25 16  1  0  0  0  0
 17 16  1  0  0  0  0
 18 17  2  0  0  0  0
 19 18  1  0  0  0  0
 20 19  2  0  0  0  0
 21 20  1  0  0  0  0
 22 21  1  0  0  0  0
 23 22  1  0  0  0  0
 24 23  1  0  0  0  0
 25 24  1  0  0  0  0
M  CHG  1  24   1
M  END
>  <cdx:fragmentId>
10452

$$$$
