167812.cdx
  Mrv1902 05222410182D          

 18 20  0  0  0  0            999 V2000
    8.2508   -6.4340    0.0000 C   0  0  2  0  0  0  0  0  0  0  0  0
    9.0354   -6.1791    0.0000 C   0  0  2  0  0  0  0  0  0  0  0  0
    9.5203   -6.8465    0.0000 C   0  0  0  0  0  0  0  0  0  0  0  0
    9.0354   -7.5140    0.0000 C   0  0  0  0  0  0  0  0  0  0  0  0
    8.2508   -7.2590    0.0000 C   0  0  1  0  0  0  0  0  0  0  0  0
    7.6058   -7.7734    0.0000 C   0  0  0  0  0  0  0  0  0  0  0  0
    6.8015   -7.5898    0.0000 C   0  0  0  0  0  0  0  0  0  0  0  0
    6.4435   -6.8465    0.0000 C   0  0  2  0  0  0  0  0  0  0  0  0
    6.8015   -6.1032    0.0000 C   0  0  0  0  0  0  0  0  0  0  0  0
    7.6058   -5.9196    0.0000 C   0  0  0  0  0  0  0  0  0  0  0  0
    7.4525   -6.9850    0.0000 O   0  0  0  0  0  0  0  0  0  0  0  0
    5.6185   -6.8465    0.0000 O   0  0  0  0  0  0  0  0  0  0  0  0
    6.5885   -4.6902    0.0000 C   0  0  0  0  0  0  0  0  0  0  0  0
    6.2871   -5.4582    0.0000 C   0  0  0  0  0  0  0  0  0  0  0  0
    5.4713   -5.5812    0.0000 C   0  0  0  0  0  0  0  0  0  0  0  0
    7.7894   -8.5777    0.0000 C   0  0  0  0  0  0  0  0  0  0  0  0
    9.2904   -5.3945    0.0000 C   0  0  0  0  0  0  0  0  0  0  0  0
    8.3981   -8.0708    0.0000 H   0  0  0  0  0  0  0  0  0  0  0  0
  1  2  1  0  0  0  0
  2  3  1  0  0  0  0
  3  4  1  0  0  0  0
  4  5  1  0  0  0  0
  5  6  1  0  0  0  0
  6  7  2  0  0  0  0
  7  8  1  0  0  0  0
  8  9  1  0  0  0  0
  9 10  1  0  0  0  0
  1 10  1  0  0  0  0
  1 11  1  1  0  0  0
  8 11  1  0  0  0  0
  1  5  1  0  0  0  0
  8 12  1  1  0  0  0
 13 14  1  0  0  0  0
 14 15  1  0  0  0  0
  9 14  2  0  0  0  0
  6 16  1  0  0  0  0
  2 17  1  1  0  0  0
  5 18  1  6  0  0  0
M  END
>  <cdx:fragmentId>
65

$$$$
