167945.cdx
  Mrv1902 05222410272D          

 15 14  0  0  0  0            999 V2000
    9.7610   -7.7819    0.0000 C   0  0  0  0  0  0  0  0  0  0  0  0
    9.0466   -8.1944    0.0000 C   0  0  0  0  0  0  0  0  0  0  0  0
    8.3321   -7.7819    0.0000 C   0  0  0  0  0  0  0  0  0  0  0  0
    7.6176   -8.1944    0.0000 N   0  0  0  0  0  0  0  0  0  0  0  0
    6.9032   -7.7819    0.0000 C   0  0  0  0  0  0  0  0  0  0  0  0
    6.1887   -8.1944    0.0000 C   0  0  0  0  0  0  0  0  0  0  0  0
    5.4742   -7.7819    0.0000 C   0  0  0  0  0  0  0  0  0  0  0  0
    4.7598   -8.1944    0.0000 C   0  0  0  0  0  0  0  0  0  0  0  0
    4.0453   -7.7819    0.0000 O   0  0  0  0  0  0  0  0  0  0  0  0
    5.0617   -7.0675    0.0000 C   0  0  0  0  0  0  0  0  0  0  0  0
    5.8867   -7.0675    0.0000 C   0  0  0  0  0  0  0  0  0  0  0  0
    6.1887   -9.0194    0.0000 O   0  0  0  0  0  0  0  0  0  0  0  0
    6.9032   -6.9569    0.0000 O   0  0  0  0  0  0  0  0  0  0  0  0
    9.7610   -6.9569    0.0000 O   0  0  0  0  0  0  0  0  0  0  0  0
   10.4755   -8.1944    0.0000 O   0  0  0  0  0  0  0  0  0  0  0  0
  1  2  1  0  0  0  0
  2  3  1  0  0  0  0
  3  4  1  0  0  0  0
  4  5  1  0  0  0  0
  5  6  1  0  0  0  0
  6  7  1  0  0  0  0
  7  8  1  0  0  0  0
  8  9  1  0  0  0  0
  7 10  1  0  0  0  0
  7 11  1  0  0  0  0
  6 12  1  0  0  0  0
  5 13  2  0  0  0  0
  1 14  2  0  0  0  0
  1 15  1  0  0  0  0
M  END
>  <cdx:fragmentId>
2051

$$$$
