168.cdx
  Mrv1902 05222410252D          

 32 33  0  0  0  0            999 V2000
    0.5395   -7.0469    0.0000 C   0  0  0  0  0  0  0  0  0  0  0  0
    0.5395   -7.8719    0.0000 C   0  0  0  0  0  0  0  0  0  0  0  0
    1.2540   -8.2844    0.0000 C   0  0  0  0  0  0  0  0  0  0  0  0
    1.9685   -7.8719    0.0000 C   0  0  0  0  0  0  0  0  0  0  0  0
    1.9685   -7.0469    0.0000 C   0  0  0  0  0  0  0  0  0  0  0  0
    1.2540   -6.6344    0.0000 C   0  0  0  0  0  0  0  0  0  0  0  0
    2.6829   -6.6344    0.0000 C   0  0  0  0  0  0  0  0  0  0  0  0
    3.3974   -7.0469    0.0000 C   0  0  0  0  0  0  0  0  0  0  0  0
    4.1119   -6.6344    0.0000 C   0  0  0  0  0  0  0  0  0  0  0  0
    4.8264   -7.0469    0.0000 O   0  0  0  0  0  0  0  0  0  0  0  0
    5.5408   -6.6344    0.0000 C   0  0  0  0  0  0  0  0  0  0  0  0
    6.2553   -7.0469    0.0000 C   0  0  3  0  0  0  0  0  0  0  0  0
    6.9698   -6.6344    0.0000 C   0  0  0  0  0  0  0  0  0  0  0  0
    7.6842   -7.0469    0.0000 O   0  0  0  0  0  0  0  0  0  0  0  0
    8.3987   -6.6344    0.0000 C   0  0  0  0  0  0  0  0  0  0  0  0
    9.1132   -7.0469    0.0000 C   0  0  0  0  0  0  0  0  0  0  0  0
    9.8277   -6.6344    0.0000 C   0  0  0  0  0  0  0  0  0  0  0  0
   10.5421   -7.0469    0.0000 C   0  0  0  0  0  0  0  0  0  0  0  0
   10.5421   -7.8719    0.0000 C   0  0  0  0  0  0  0  0  0  0  0  0
   11.2566   -8.2844    0.0000 C   0  0  0  0  0  0  0  0  0  0  0  0
   11.9711   -7.8719    0.0000 C   0  0  0  0  0  0  0  0  0  0  0  0
   11.9711   -7.0469    0.0000 C   0  0  0  0  0  0  0  0  0  0  0  0
   11.2566   -6.6344    0.0000 C   0  0  0  0  0  0  0  0  0  0  0  0
    6.2553   -7.8719    0.0000 O   0  0  0  0  0  0  0  0  0  0  0  0
    4.1119   -5.8094    0.0000 O   0  0  0  0  0  0  0  0  0  0  0  0
    8.3987   -5.8094    0.0000 O   0  0  0  0  0  0  0  0  0  0  0  0
    6.9698   -8.2844    0.0000 C   0  0  0  0  0  0  0  0  0  0  0  0
    7.6842   -7.8719    0.0000 O   0  0  0  0  0  0  0  0  0  0  0  0
    6.9698   -9.1094    0.0000 C   0  0  0  0  0  0  0  0  0  0  0  0
   12.6855   -8.2844    0.0000 O   0  0  0  0  0  0  0  0  0  0  0  0
   12.6855   -6.6344    0.0000 O   0  0  0  0  0  0  0  0  0  0  0  0
   13.4000   -7.0469    0.0000 C   0  0  0  0  0  0  0  0  0  0  0  0
  1  2  1  0  0  0  0
  2  3  2  0  0  0  0
  3  4  1  0  0  0  0
  4  5  2  0  0  0  0
  5  6  1  0  0  0  0
  6  1  2  0  0  0  0
  5  7  1  0  0  0  0
  7  8  2  0  0  0  0
  8  9  1  0  0  0  0
  9 10  1  0  0  0  0
 10 11  1  0  0  0  0
 11 12  1  0  0  0  0
 12 13  1  0  0  0  0
 13 14  1  0  0  0  0
 14 15  1  0  0  0  0
 15 16  1  0  0  0  0
 16 17  2  0  0  0  0
 17 18  1  0  0  0  0
 18 19  2  0  0  0  0
 19 20  1  0  0  0  0
 20 21  2  0  0  0  0
 21 22  1  0  0  0  0
 22 23  2  0  0  0  0
 23 18  1  0  0  0  0
 12 24  1  4  0  0  0
  9 25  2  0  0  0  0
 15 26  2  0  0  0  0
 24 27  1  0  0  0  0
 27 28  2  0  0  0  0
 27 29  1  0  0  0  0
 21 30  1  0  0  0  0
 22 31  1  0  0  0  0
 31 32  1  0  0  0  0
M  END
>  <cdx:fragmentId>
998

$$$$
