16806.cdx
  Mrv1902 05222410212D          

 25 25  0  0  0  0            999 V2000
    0.4845   -9.1231    0.0000 C   0  0  0  0  0  0  0  0  0  0  0  0
    0.4845   -9.9481    0.0000 C   0  0  0  0  0  0  0  0  0  0  0  0
    1.1990  -10.3606    0.0000 C   0  0  0  0  0  0  0  0  0  0  0  0
    1.9135   -9.9481    0.0000 C   0  0  0  0  0  0  0  0  0  0  0  0
    1.9135   -9.1231    0.0000 C   0  0  0  0  0  0  0  0  0  0  0  0
    1.1990   -8.7106    0.0000 C   0  0  0  0  0  0  0  0  0  0  0  0
    1.1990   -7.8856    0.0000 O   0  0  0  0  0  0  0  0  0  0  0  0
    2.6279   -8.7106    0.0000 O   0  0  0  0  0  0  0  0  0  0  0  0
    2.6353  -10.3606    0.0000 C   0  0  0  0  0  0  0  0  0  0  0  0
    3.3498   -9.9481    0.0000 C   0  0  0  0  0  0  0  0  0  0  0  0
    4.0643  -10.3606    0.0000 C   0  0  0  0  0  0  0  0  0  0  0  0
    4.7788   -9.9481    0.0000 C   0  0  0  0  0  0  0  0  0  0  0  0
    5.4932  -10.3606    0.0000 C   0  0  0  0  0  0  0  0  0  0  0  0
    6.2077   -9.9481    0.0000 C   0  0  0  0  0  0  0  0  0  0  0  0
    6.9222  -10.3606    0.0000 C   0  0  0  0  0  0  0  0  0  0  0  0
    7.6366   -9.9481    0.0000 C   0  0  0  0  0  0  0  0  0  0  0  0
    8.3511  -10.3606    0.0000 C   0  0  0  0  0  0  0  0  0  0  0  0
    9.0656   -9.9481    0.0000 C   0  0  0  0  0  0  0  0  0  0  0  0
   12.7355   -9.9493    0.0000 C   0  0  0  0  0  0  0  0  0  0  0  0
   12.0210  -10.3618    0.0000 C   0  0  0  0  0  0  0  0  0  0  0  0
   11.3065   -9.9493    0.0000 C   0  0  0  0  0  0  0  0  0  0  0  0
   10.5921  -10.3618    0.0000 C   0  0  0  0  0  0  0  0  0  0  0  0
    9.8776   -9.9493    0.0000 C   0  0  0  0  0  0  0  0  0  0  0  0
   13.4499  -10.3618    0.0000 C   0  0  0  0  0  0  0  0  0  0  0  0
   14.1644   -9.9493    0.0000 C   0  0  0  0  0  0  0  0  0  0  0  0
  1  2  2  0  0  0  0
  2  3  1  0  0  0  0
  3  4  2  0  0  0  0
  4  5  1  0  0  0  0
  5  6  2  0  0  0  0
  6  1  1  0  0  0  0
  6  7  1  0  0  0  0
  5  8  1  0  0  0  0
  9 10  1  0  0  0  0
 10 11  1  0  0  0  0
 11 12  1  0  0  0  0
 12 13  1  0  0  0  0
 13 14  1  0  0  0  0
 14 15  1  0  0  0  0
 15 16  1  0  0  0  0
 16 17  1  0  0  0  0
  9  4  1  0  0  0  0
 20 19  1  0  0  0  0
 21 20  1  0  0  0  0
 22 21  1  0  0  0  0
 23 22  1  0  0  0  0
 18 23  2  0  0  0  0
 18 17  1  0  0  0  0
 19 24  1  0  0  0  0
 24 25  1  0  0  0  0
M  END
>  <cdx:fragmentId>
86

$$$$
