16805.cdx
  Mrv1902 05222410202D          

 23 23  0  0  0  0            999 V2000
    0.8695   -8.1056    0.0000 C   0  0  0  0  0  0  0  0  0  0  0  0
    0.8695   -8.9306    0.0000 C   0  0  0  0  0  0  0  0  0  0  0  0
    1.5840   -9.3431    0.0000 C   0  0  0  0  0  0  0  0  0  0  0  0
    2.2985   -8.9306    0.0000 C   0  0  0  0  0  0  0  0  0  0  0  0
    2.2985   -8.1056    0.0000 C   0  0  0  0  0  0  0  0  0  0  0  0
    1.5840   -7.6931    0.0000 C   0  0  0  0  0  0  0  0  0  0  0  0
    1.5840   -6.8681    0.0000 O   0  0  0  0  0  0  0  0  0  0  0  0
    3.0129   -7.6931    0.0000 O   0  0  0  0  0  0  0  0  0  0  0  0
    3.0203   -9.3431    0.0000 C   0  0  0  0  0  0  0  0  0  0  0  0
    3.7348   -8.9306    0.0000 C   0  0  0  0  0  0  0  0  0  0  0  0
    4.4493   -9.3431    0.0000 C   0  0  0  0  0  0  0  0  0  0  0  0
    5.1638   -8.9306    0.0000 C   0  0  0  0  0  0  0  0  0  0  0  0
    5.8782   -9.3431    0.0000 C   0  0  0  0  0  0  0  0  0  0  0  0
    6.5927   -8.9306    0.0000 C   0  0  0  0  0  0  0  0  0  0  0  0
    7.3072   -9.3431    0.0000 C   0  0  0  0  0  0  0  0  0  0  0  0
    8.0216   -8.9306    0.0000 C   0  0  0  0  0  0  0  0  0  0  0  0
   11.6831   -8.9318    0.0000 C   0  0  0  0  0  0  0  0  0  0  0  0
   10.9686   -9.3443    0.0000 C   0  0  0  0  0  0  0  0  0  0  0  0
   10.2541   -8.9318    0.0000 C   0  0  0  0  0  0  0  0  0  0  0  0
    9.5396   -9.3443    0.0000 C   0  0  0  0  0  0  0  0  0  0  0  0
    8.8252   -8.9318    0.0000 C   0  0  0  0  0  0  0  0  0  0  0  0
   12.3975   -9.3443    0.0000 C   0  0  0  0  0  0  0  0  0  0  0  0
   13.1120   -8.9318    0.0000 C   0  0  0  0  0  0  0  0  0  0  0  0
  1  2  2  0  0  0  0
  2  3  1  0  0  0  0
  3  4  2  0  0  0  0
  4  5  1  0  0  0  0
  5  6  2  0  0  0  0
  6  1  1  0  0  0  0
  6  7  1  0  0  0  0
  5  8  1  0  0  0  0
  9 10  1  0  0  0  0
 10 11  1  0  0  0  0
 11 12  1  0  0  0  0
 12 13  1  0  0  0  0
 13 14  1  0  0  0  0
 14 15  1  0  0  0  0
 15 16  1  0  0  0  0
  9  4  1  0  0  0  0
 18 17  1  0  0  0  0
 19 18  1  0  0  0  0
 20 19  1  0  0  0  0
 21 20  1  0  0  0  0
 17 22  1  0  0  0  0
 22 23  1  0  0  0  0
 16 21  2  0  0  0  0
M  END
>  <cdx:fragmentId>
25

$$$$
