168041.cdx
  Mrv1902 05222410272D          

 37 40  0  0  0  0            999 V2000
    5.3608   -8.8546    0.0000 C   0  0  0  0  0  0  0  0  0  0  0  0
    4.6464   -9.2671    0.0000 C   0  0  1  0  0  0  0  0  0  0  0  0
    4.6464  -10.0921    0.0000 C   0  0  1  0  0  0  0  0  0  0  0  0
    5.3608  -10.5046    0.0000 C   0  0  0  0  0  0  0  0  0  0  0  0
    6.0753  -10.0921    0.0000 C   0  0  1  0  0  0  0  0  0  0  0  0
    6.7898  -10.5046    0.0000 C   0  0  0  0  0  0  0  0  0  0  0  0
    7.5043  -10.0921    0.0000 C   0  0  0  0  0  0  0  0  0  0  0  0
    7.5043   -9.2671    0.0000 C   0  0  0  0  0  0  0  0  0  0  0  0
    8.2187   -8.8546    0.0000 C   0  0  2  0  0  0  0  0  0  0  0  0
    9.0034   -9.1095    0.0000 C   0  0  0  0  0  0  0  0  0  0  0  0
    9.4883   -8.4421    0.0000 C   0  0  0  0  0  0  0  0  0  0  0  0
    9.0034   -7.7746    0.0000 C   0  0  1  0  0  0  0  0  0  0  0  0
    8.2187   -8.0296    0.0000 C   0  0  1  0  0  0  0  0  0  0  0  0
    7.5043   -7.6171    0.0000 C   0  0  0  0  0  0  0  0  0  0  0  0
    6.7898   -8.0296    0.0000 C   0  0  0  0  0  0  0  0  0  0  0  0
    6.7898   -8.8546    0.0000 C   0  0  2  0  0  0  0  0  0  0  0  0
    6.0753   -9.2671    0.0000 C   0  0  1  0  0  0  0  0  0  0  0  0
    6.7898  -11.3296    0.0000 O   0  0  0  0  0  0  0  0  0  0  0  0
    8.2187   -7.2046    0.0000 C   0  0  0  0  0  0  0  0  0  0  0  0
    6.0753   -8.4421    0.0000 C   0  0  0  0  0  0  0  0  0  0  0  0
    8.2187   -9.6796    0.0000 O   0  0  0  0  0  0  0  0  0  0  0  0
    3.9319  -10.5046    0.0000 O   0  0  0  0  0  0  0  0  0  0  0  0
    3.9319   -8.8546    0.0000 O   0  0  0  0  0  0  0  0  0  0  0  0
    9.2583   -6.9900    0.0000 C   0  0  0  0  0  0  0  0  0  0  0  0
    8.4737   -6.7351    0.0000 C   0  0  0  0  0  0  0  0  0  0  0  0
    6.0753  -10.9171    0.0000 H   0  0  0  0  0  0  0  0  0  0  0  0
    6.7898   -9.6796    0.0000 H   0  0  0  0  0  0  0  0  0  0  0  0
    9.8002   -7.5611    0.0000 H   0  0  0  0  0  0  0  0  0  0  0  0
   10.0552   -7.2035    0.0000 O   0  0  0  0  0  0  0  0  0  0  0  0
    9.4718   -6.1931    0.0000 C   0  0  2  0  0  0  0  0  0  0  0  0
    8.8885   -5.6098    0.0000 O   0  0  0  0  0  0  0  0  0  0  0  0
   10.2687   -5.9796    0.0000 C   0  0  0  0  0  0  0  0  0  0  0  0
   10.4822   -5.1827    0.0000 C   0  0  0  0  0  0  0  0  0  0  0  0
    9.8989   -4.5993    0.0000 C   0  0  0  0  0  0  0  0  0  0  0  0
   11.2791   -4.9692    0.0000 C   0  0  0  0  0  0  0  0  0  0  0  0
   11.8625   -5.5525    0.0000 C   0  0  0  0  0  0  0  0  0  0  0  0
   11.4926   -4.1723    0.0000 C   0  0  0  0  0  0  0  0  0  0  0  0
  1  2  1  0  0  0  0
  2  3  1  0  0  0  0
  3  4  1  0  0  0  0
  4  5  1  0  0  0  0
  5  6  1  0  0  0  0
  6  7  1  0  0  0  0
  7  8  2  0  0  0  0
  8  9  1  0  0  0  0
  9 10  1  0  0  0  0
 10 11  1  0  0  0  0
 12 11  1  0  0  0  0
 12 13  1  0  0  0  0
  9 13  1  0  0  0  0
 13 14  1  0  0  0  0
 14 15  1  0  0  0  0
 15 16  1  0  0  0  0
  8 16  1  0  0  0  0
 16 17  1  0  0  0  0
  5 17  1  0  0  0  0
  1 17  1  0  0  0  0
  6 18  2  0  0  0  0
 13 19  1  1  0  0  0
 17 20  1  1  0  0  0
  9 21  1  6  0  0  0
  3 22  1  1  0  0  0
  2 23  1  1  0  0  0
 24 25  1  0  0  0  0
 12 24  1  0  0  0  0
  5 26  1  1  0  0  0
 16 27  1  6  0  0  0
 12 28  1  6  0  0  0
 24 29  1  1  0  0  0
 24 30  1  0  0  0  0
 30 31  1  6  0  0  0
 30 32  1  0  0  0  0
 32 33  1  0  0  0  0
 33 34  2  0  0  0  0
 33 35  1  0  0  0  0
 35 36  1  0  0  0  0
 35 37  1  0  0  0  0
M  END
>  <cdx:fragmentId>
13451

$$$$
