168115.cdx
  Mrv1902 05222410192D          

 25 25  0  0  0  0            999 V2000
    4.4159   -5.9697    0.0000 C   0  0  0  0  0  0  0  0  0  0  0  0
    5.1303   -6.3822    0.0000 C   0  0  0  0  0  0  0  0  0  0  0  0
    5.8448   -5.9697    0.0000 C   0  0  0  0  0  0  0  0  0  0  0  0
    6.5593   -6.3822    0.0000 C   0  0  0  0  0  0  0  0  0  0  0  0
    7.2738   -5.9697    0.0000 C   0  0  2  0  0  0  0  0  0  0  0  0
    7.9882   -6.3822    0.0000 C   0  0  0  0  0  0  0  0  0  0  0  0
    8.7027   -5.9697    0.0000 C   0  0  0  0  0  0  0  0  0  0  0  0
    9.4172   -6.3822    0.0000 C   0  0  0  0  0  0  0  0  0  0  0  0
   10.1316   -5.9697    0.0000 C   0  0  0  0  0  0  0  0  0  0  0  0
   10.8461   -6.3822    0.0000 C   0  0  0  0  0  0  0  0  0  0  0  0
   11.5606   -5.9697    0.0000 C   0  0  0  0  0  0  0  0  0  0  0  0
   12.2751   -6.3822    0.0000 C   0  0  0  0  0  0  0  0  0  0  0  0
   12.9895   -5.9697    0.0000 C   0  0  0  0  0  0  0  0  0  0  0  0
   13.7040   -6.3822    0.0000 C   0  0  0  0  0  0  0  0  0  0  0  0
    5.8448   -5.1447    0.0000 O   0  0  0  0  0  0  0  0  0  0  0  0
    3.7014   -6.3822    0.0000 C   0  0  0  0  0  0  0  0  0  0  0  0
    2.9869   -5.9697    0.0000 C   0  0  0  0  0  0  0  0  0  0  0  0
    2.2725   -6.3822    0.0000 C   0  0  0  0  0  0  0  0  0  0  0  0
    2.2725   -7.2072    0.0000 C   0  0  0  0  0  0  0  0  0  0  0  0
    2.9869   -7.6197    0.0000 C   0  0  0  0  0  0  0  0  0  0  0  0
    3.7014   -7.2072    0.0000 C   0  0  0  0  0  0  0  0  0  0  0  0
    1.5580   -5.9697    0.0000 O   0  0  0  0  0  0  0  0  0  0  0  0
    0.8435   -6.3822    0.0000 C   0  0  0  0  0  0  0  0  0  0  0  0
    1.5580   -7.6197    0.0000 O   0  0  0  0  0  0  0  0  0  0  0  0
    7.2738   -5.1447    0.0000 O   0  0  0  0  0  0  0  0  0  0  0  0
  1  2  1  0  0  0  0
  2  3  1  0  0  0  0
  3  4  1  0  0  0  0
  4  5  1  0  0  0  0
  5  6  1  0  0  0  0
  6  7  1  0  0  0  0
  7  8  1  0  0  0  0
  8  9  1  0  0  0  0
  9 10  1  0  0  0  0
 10 11  1  0  0  0  0
 11 12  1  0  0  0  0
 12 13  1  0  0  0  0
 13 14  1  0  0  0  0
  3 15  2  0  0  0  0
 16 17  1  0  0  0  0
 17 18  2  0  0  0  0
 18 19  1  0  0  0  0
 19 20  2  0  0  0  0
 20 21  1  0  0  0  0
 16 21  2  0  0  0  0
 22 23  1  0  0  0  0
 18 22  1  0  0  0  0
 19 24  1  0  0  0  0
  1 16  1  0  0  0  0
  5 25  1  1  0  0  0
M  END
>  <cdx:groupId>
10687

>  <cdx:fragmentId>
10615

$$$$
