168136.cdx
  Mrv1902 05222410262D          

 16 17  0  0  0  0            999 V2000
   14.7543  -20.3631    0.0000 C   0  0  0  0  0  0  0  0  0  0  0  0
   14.0398  -20.7756    0.0000 C   0  0  0  0  0  0  0  0  0  0  0  0
   14.0398  -21.6006    0.0000 C   0  0  0  0  0  0  0  0  0  0  0  0
   14.7543  -22.0131    0.0000 C   0  0  0  0  0  0  0  0  0  0  0  0
   14.7543  -22.8381    0.0000 C   0  0  0  0  0  0  0  0  0  0  0  0
   15.4688  -21.6006    0.0000 C   0  0  0  0  0  0  0  0  0  0  0  0
   15.4688  -22.4256    0.0000 C   0  0  0  0  0  0  0  0  0  0  0  0
   16.1832  -22.0131    0.0000 C   0  0  0  0  0  0  0  0  0  0  0  0
   16.1832  -22.8381    0.0000 C   0  0  0  0  0  0  0  0  0  0  0  0
   15.4688  -23.2506    0.0000 C   0  0  0  0  0  0  0  0  0  0  0  0
   16.8977  -23.2506    0.0000 C   0  0  0  0  0  0  0  0  0  0  0  0
   16.8977  -21.6006    0.0000 C   0  0  0  0  0  0  0  0  0  0  0  0
   16.8977  -20.7756    0.0000 C   0  0  0  0  0  0  0  0  0  0  0  0
   16.1832  -20.3631    0.0000 C   0  0  0  0  0  0  0  0  0  0  0  0
   15.4688  -20.7756    0.0000 C   0  0  0  0  0  0  0  0  0  0  0  0
   14.7543  -19.5381    0.0000 O   0  0  0  0  0  0  0  0  0  0  0  0
  1  2  1  0  0  0  0
  2  3  1  0  0  0  0
  3  4  1  0  0  0  0
  4  5  1  0  0  0  0
  4  6  1  0  0  0  0
  6  7  1  0  0  0  0
  6  8  1  0  0  0  0
  8  9  1  0  0  0  0
  9 10  1  0  0  0  0
  9 11  1  0  0  0  0
  8 12  1  0  0  0  0
 12 13  1  0  0  0  0
 13 14  1  0  0  0  0
 14 15  1  0  0  0  0
  1 15  1  0  0  0  0
  6 15  1  0  0  0  0
  1 16  2  0  0  0  0
M  END
>  <cdx:groupId>
10743

>  <cdx:fragmentId>
10697

$$$$
