168114.cdx
  Mrv1902 05222410192D          

 23 23  0  0  0  0            999 V2000
    4.8553   -7.7297    0.0000 C   0  0  0  0  0  0  0  0  0  0  0  0
    5.5698   -8.1422    0.0000 C   0  0  0  0  0  0  0  0  0  0  0  0
    6.2843   -7.7297    0.0000 C   0  0  0  0  0  0  0  0  0  0  0  0
    6.9988   -8.1422    0.0000 C   0  0  0  0  0  0  0  0  0  0  0  0
    7.7132   -7.7297    0.0000 C   0  0  2  0  0  0  0  0  0  0  0  0
    8.4277   -8.1422    0.0000 C   0  0  0  0  0  0  0  0  0  0  0  0
    9.1422   -7.7297    0.0000 C   0  0  0  0  0  0  0  0  0  0  0  0
    9.8566   -8.1422    0.0000 C   0  0  0  0  0  0  0  0  0  0  0  0
   10.5711   -7.7297    0.0000 C   0  0  0  0  0  0  0  0  0  0  0  0
   11.2856   -8.1422    0.0000 C   0  0  0  0  0  0  0  0  0  0  0  0
   12.0001   -7.7297    0.0000 C   0  0  0  0  0  0  0  0  0  0  0  0
   12.7145   -8.1422    0.0000 C   0  0  0  0  0  0  0  0  0  0  0  0
    6.2843   -6.9047    0.0000 O   0  0  0  0  0  0  0  0  0  0  0  0
    4.1409   -8.1422    0.0000 C   0  0  0  0  0  0  0  0  0  0  0  0
    3.4264   -7.7297    0.0000 C   0  0  0  0  0  0  0  0  0  0  0  0
    2.7119   -8.1422    0.0000 C   0  0  0  0  0  0  0  0  0  0  0  0
    2.7119   -8.9672    0.0000 C   0  0  0  0  0  0  0  0  0  0  0  0
    3.4264   -9.3797    0.0000 C   0  0  0  0  0  0  0  0  0  0  0  0
    4.1409   -8.9672    0.0000 C   0  0  0  0  0  0  0  0  0  0  0  0
    1.9975   -7.7297    0.0000 O   0  0  0  0  0  0  0  0  0  0  0  0
    1.2830   -8.1422    0.0000 C   0  0  0  0  0  0  0  0  0  0  0  0
    1.9975   -9.3797    0.0000 O   0  0  0  0  0  0  0  0  0  0  0  0
    7.7132   -6.9047    0.0000 O   0  0  0  0  0  0  0  0  0  0  0  0
  1  2  1  0  0  0  0
  2  3  1  0  0  0  0
  3  4  1  0  0  0  0
  4  5  1  0  0  0  0
  5  6  1  0  0  0  0
  6  7  1  0  0  0  0
  7  8  1  0  0  0  0
  8  9  1  0  0  0  0
  9 10  1  0  0  0  0
 10 11  1  0  0  0  0
 11 12  1  0  0  0  0
  3 13  2  0  0  0  0
 14 15  1  0  0  0  0
 15 16  2  0  0  0  0
 16 17  1  0  0  0  0
 17 18  2  0  0  0  0
 18 19  1  0  0  0  0
 14 19  2  0  0  0  0
 20 21  1  0  0  0  0
 16 20  1  0  0  0  0
 17 22  1  0  0  0  0
  1 14  1  0  0  0  0
  5 23  1  1  0  0  0
M  END
>  <cdx:groupId>
10605

>  <cdx:fragmentId>
10539

$$$$
