16814.cdx
  Mrv1902 05222410222D          

 23 24  0  0  0  0            999 V2000
    6.0258   -7.7069    0.0000 C   0  0  2  0  0  0  0  0  0  0  0  0
    6.0258   -8.5319    0.0000 C   0  0  2  0  0  0  0  0  0  0  0  0
    6.7402   -8.9444    0.0000 C   0  0  1  0  0  0  0  0  0  0  0  0
    7.4547   -8.5319    0.0000 C   0  0  2  0  0  0  0  0  0  0  0  0
    7.4547   -7.7069    0.0000 C   0  0  1  0  0  0  0  0  0  0  0  0
    6.7402   -7.2944    0.0000 O   0  0  0  0  0  0  0  0  0  0  0  0
    8.1692   -7.2944    0.0000 O   0  0  0  0  0  0  0  0  0  0  0  0
    5.3113   -7.2944    0.0000 C   0  0  0  0  0  0  0  0  0  0  0  0
    6.7402   -9.7694    0.0000 O   0  0  0  0  0  0  0  0  0  0  0  0
    5.3113   -8.9444    0.0000 O   0  0  0  0  0  0  0  0  0  0  0  0
    8.1692   -8.9444    0.0000 O   0  0  0  0  0  0  0  0  0  0  0  0
    8.1692   -6.4694    0.0000 C   0  0  0  0  0  0  0  0  0  0  0  0
    8.8837   -6.0569    0.0000 C   0  0  0  0  0  0  0  0  0  0  0  0
    8.8837   -5.2319    0.0000 C   0  0  0  0  0  0  0  0  0  0  0  0
    8.1692   -4.8194    0.0000 C   0  0  0  0  0  0  0  0  0  0  0  0
    7.4547   -5.2319    0.0000 C   0  0  0  0  0  0  0  0  0  0  0  0
    7.4547   -6.0569    0.0000 C   0  0  0  0  0  0  0  0  0  0  0  0
    8.1692   -3.9944    0.0000 C   0  0  0  0  0  0  0  0  0  0  0  0
    7.4547   -3.5819    0.0000 O   0  0  0  0  0  0  0  0  0  0  0  0
    8.8837   -3.5819    0.0000 O   0  0  0  0  0  0  0  0  0  0  0  0
    9.5981   -6.4694    0.0000 O   0  0  0  0  0  0  0  0  0  0  0  0
   10.3126   -6.0569    0.0000 C   0  0  0  0  0  0  0  0  0  0  0  0
    4.5968   -7.7069    0.0000 O   0  0  0  0  0  0  0  0  0  0  0  0
  1  2  1  0  0  0  0
  2  3  1  0  0  0  0
  3  4  1  0  0  0  0
  4  5  1  0  0  0  0
  5  6  1  0  0  0  0
  6  1  1  0  0  0  0
  5  7  1  1  0  0  0
  1  8  1  1  0  0  0
  3  9  1  1  0  0  0
  2 10  1  6  0  0  0
  4 11  1  6  0  0  0
  7 12  1  0  0  0  0
 12 13  2  0  0  0  0
 13 14  1  0  0  0  0
 14 15  2  0  0  0  0
 15 16  1  0  0  0  0
 16 17  2  0  0  0  0
 17 12  1  0  0  0  0
 15 18  1  0  0  0  0
 18 19  2  0  0  0  0
 18 20  1  0  0  0  0
 13 21  1  0  0  0  0
 21 22  1  0  0  0  0
  8 23  1  0  0  0  0
M  END
>  <cdx:fragmentId>
5

$$$$
