16822.cdx
  Mrv1902 05222410242D          

 13 13  0  0  0  0            999 V2000
    9.3186   -7.0614    0.0000 C   0  0  0  0  0  0  0  0  0  0  0  0
    8.6041   -6.6489    0.0000 C   0  0  0  0  0  0  0  0  0  0  0  0
    7.8896   -7.0614    0.0000 C   0  0  0  0  0  0  0  0  0  0  0  0
    7.1751   -6.6489    0.0000 C   0  0  0  0  0  0  0  0  0  0  0  0
    6.4607   -7.0614    0.0000 C   0  0  0  0  0  0  0  0  0  0  0  0
    5.7462   -6.6489    0.0000 C   0  0  0  0  0  0  0  0  0  0  0  0
    5.0317   -7.0614    0.0000 O   0  0  0  0  0  0  0  0  0  0  0  0
    4.3173   -6.6489    0.0000 C   0  0  0  0  0  0  0  0  0  0  0  0
    5.7462   -5.8239    0.0000 C   0  0  0  0  0  0  0  0  0  0  0  0
    5.0317   -5.4114    0.0000 O   0  0  0  0  0  0  0  0  0  0  0  0
    6.4607   -5.4114    0.0000 C   0  0  0  0  0  0  0  0  0  0  0  0
    7.1751   -5.8239    0.0000 C   0  0  0  0  0  0  0  0  0  0  0  0
   10.0330   -6.6489    0.0000 O   0  0  0  0  0  0  0  0  0  0  0  0
  1  2  1  0  0  0  0
  2  3  1  0  0  0  0
  3  4  1  0  0  0  0
  4  5  1  0  0  0  0
  5  6  2  0  0  0  0
  6  7  1  0  0  0  0
  7  8  1  0  0  0  0
  6  9  1  0  0  0  0
  9 10  1  0  0  0  0
  9 11  2  0  0  0  0
 11 12  1  0  0  0  0
  4 12  2  0  0  0  0
  1 13  1  0  0  0  0
M  END
>  <cdx:fragmentId>
5

$$$$
