16832.cdx
  Mrv1902 05222410242D          

 11 10  0  0  0  0            999 V2000
    6.1553   -3.1221    0.0000 C   0  0  0  0  0  0  0  0  0  0  0  0
    5.4409   -3.5346    0.0000 C   0  0  0  0  0  0  0  0  0  0  0  0
    4.7264   -3.1221    0.0000 C   0  0  0  0  0  0  0  0  0  0  0  0
    4.0119   -3.5346    0.0000 C   0  0  0  0  0  0  0  0  0  0  0  0
    3.2975   -3.1221    0.0000 C   0  0  0  0  0  0  0  0  0  0  0  0
    2.5830   -3.5346    0.0000 C   0  0  0  0  0  0  0  0  0  0  0  0
    6.1553   -2.2971    0.0000 O   0  0  0  0  0  0  0  0  0  0  0  0
    6.8698   -3.5346    0.0000 O   0  0  0  0  0  0  0  0  0  0  0  0
    7.5843   -3.1221    0.0000 C   0  0  0  0  0  0  0  0  0  0  0  0
    7.5843   -2.2971    0.0000 C   0  0  0  0  0  0  0  0  0  0  0  0
    8.2988   -3.5346    0.0000 C   0  0  0  0  0  0  0  0  0  0  0  0
  1  2  1  0  0  0  0
  2  3  1  0  0  0  0
  3  4  1  0  0  0  0
  4  5  1  0  0  0  0
  5  6  1  0  0  0  0
  1  7  2  0  0  0  0
  1  8  1  0  0  0  0
  9 10  1  0  0  0  0
  9 11  1  0  0  0  0
  8  9  1  0  0  0  0
M  END
>  <cdx:groupId>
34

>  <cdx:fragmentId>
5

$$$$
