16837.cdx
  Mrv1902 05222410252D          

 19 21  0  0  0  0            999 V2000
    5.5124   -7.2806    0.0000 C   0  0  1  0  0  0  0  0  0  0  0  0
    5.5124   -8.1056    0.0000 C   0  0  2  0  0  0  0  0  0  0  0  0
    6.1574   -8.6200    0.0000 C   0  0  0  0  0  0  0  0  0  0  0  0
    6.9618   -8.4364    0.0000 C   0  0  1  0  0  0  0  0  0  0  0  0
    7.3197   -7.6931    0.0000 C   0  0  0  0  0  0  0  0  0  0  0  0
    6.9618   -6.9498    0.0000 C   0  0  0  0  0  0  0  0  0  0  0  0
    6.1574   -6.7662    0.0000 C   0  0  2  0  0  0  0  0  0  0  0  0
    6.3710   -5.9694    0.0000 O   0  0  0  0  0  0  0  0  0  0  0  0
    5.5741   -6.1829    0.0000 C   0  0  0  0  0  0  0  0  0  0  0  0
    4.7278   -7.0257    0.0000 C   0  0  0  0  0  0  0  0  0  0  0  0
    4.2429   -7.6931    0.0000 C   0  0  0  0  0  0  0  0  0  0  0  0
    4.7278   -8.3606    0.0000 C   0  0  1  0  0  0  0  0  0  0  0  0
    5.2989   -6.4837    0.0000 H   0  0  0  0  0  0  0  0  0  0  0  0
    5.2989   -8.9025    0.0000 H   0  0  0  0  0  0  0  0  0  0  0  0
    4.3153   -9.0750    0.0000 C   0  0  0  0  0  0  0  0  0  0  0  0
    6.7186   -9.2248    0.0000 C   0  0  0  0  0  0  0  0  0  0  0  0
    7.7868   -8.4364    0.0000 H   0  0  0  0  0  0  0  0  0  0  0  0
    7.4331   -9.6373    0.0000 C   0  0  0  0  0  0  0  0  0  0  0  0
    6.3061   -9.9392    0.0000 C   0  0  0  0  0  0  0  0  0  0  0  0
  1  2  1  0  0  0  0
  2  3  1  0  0  0  0
  3  4  1  0  0  0  0
  4  5  1  0  0  0  0
  5  6  1  0  0  0  0
  6  7  1  0  0  0  0
  7  1  1  0  0  0  0
  7  8  1  1  0  0  0
  7  9  1  0  0  0  0
  1 10  1  0  0  0  0
 10 11  1  0  0  0  0
 11 12  1  0  0  0  0
 12  2  1  0  0  0  0
  1 13  1  1  0  0  0
  2 14  1  1  0  0  0
 12 15  1  6  0  0  0
  3 16  1  0  0  0  0
 16  4  1  0  0  0  0
  4 17  1  6  0  0  0
 16 18  1  0  0  0  0
 16 19  1  0  0  0  0
M  END
>  <cdx:fragmentId>
5

$$$$
