16833.cdx
  Mrv1902 05222410242D          

 15 14  0  0  0  0            999 V2000
    2.8522   -4.5314    0.0000 C   0  0  0  0  0  0  0  0  0  0  0  0
    3.5666   -4.9439    0.0000 C   0  0  0  0  0  0  0  0  0  0  0  0
    3.5666   -5.7689    0.0000 C   0  0  0  0  0  0  0  0  0  0  0  0
    4.2811   -4.5314    0.0000 O   0  0  0  0  0  0  0  0  0  0  0  0
    4.9956   -5.7689    0.0000 O   0  0  0  0  0  0  0  0  0  0  0  0
   11.4258   -4.5314    0.0000 C   0  0  0  0  0  0  0  0  0  0  0  0
   10.7114   -4.9439    0.0000 C   0  0  0  0  0  0  0  0  0  0  0  0
    9.9969   -4.5314    0.0000 C   0  0  0  0  0  0  0  0  0  0  0  0
    9.2824   -4.9439    0.0000 C   0  0  0  0  0  0  0  0  0  0  0  0
    8.5679   -4.5314    0.0000 C   0  0  0  0  0  0  0  0  0  0  0  0
    7.8535   -4.9439    0.0000 C   0  0  0  0  0  0  0  0  0  0  0  0
    7.1390   -4.5314    0.0000 C   0  0  0  0  0  0  0  0  0  0  0  0
    6.4245   -4.9439    0.0000 C   0  0  0  0  0  0  0  0  0  0  0  0
    5.7101   -4.5314    0.0000 C   0  0  0  0  0  0  0  0  0  0  0  0
    4.9956   -4.9439    0.0000 C   0  0  0  0  0  0  0  0  0  0  0  0
  4  2  1  0  0  0  0
  2  1  1  0  0  0  0
  3  2  1  0  0  0  0
 15  4  1  0  0  0  0
 15  5  2  0  0  0  0
  7  6  1  0  0  0  0
  8  7  1  0  0  0  0
  9  8  1  0  0  0  0
 10  9  1  0  0  0  0
 11 10  1  0  0  0  0
 12 11  1  0  0  0  0
 13 12  1  0  0  0  0
 14 13  1  0  0  0  0
 15 14  1  0  0  0  0
M  END
>  <cdx:fragmentId>
40

$$$$
