vignacyanidin.cdx
  Mrv1902 05222410192D          

 41 47  0  0  0  0            999 V2000
    2.4164   -8.3325    0.0000 C   0  0  0  0  0  0  0  0  0  0  0  0
    2.4164   -9.1575    0.0000 C   0  0  0  0  0  0  0  0  0  0  0  0
    3.1309   -9.5700    0.0000 C   0  0  0  0  0  0  0  0  0  0  0  0
    3.8453   -9.1575    0.0000 C   0  0  0  0  0  0  0  0  0  0  0  0
    3.8453   -8.3325    0.0000 C   0  0  0  0  0  0  0  0  0  0  0  0
    3.1309   -7.9200    0.0000 C   0  0  0  0  0  0  0  0  0  0  0  0
    4.5598   -7.9200    0.0000 C   0  0  0  0  0  0  0  0  0  0  0  0
    4.5598   -7.0950    0.0000 C   0  0  0  0  0  0  0  0  0  0  0  0
    5.2743   -8.3325    0.0000 O   0  0  0  0  0  0  0  0  0  0  0  0
    5.9888   -7.9200    0.0000 C   0  0  0  0  0  0  0  0  0  0  0  0
    5.9888   -7.0950    0.0000 C   0  0  0  0  0  0  0  0  0  0  0  0
    5.2743   -6.6825    0.0000 C   0  0  0  0  0  0  0  0  0  0  0  0
    6.7032   -8.3325    0.0000 C   0  0  0  0  0  0  0  0  0  0  0  0
    7.4177   -7.9200    0.0000 C   0  0  0  0  0  0  0  0  0  0  0  0
    7.4177   -7.0950    0.0000 C   0  0  0  0  0  0  0  0  0  0  0  0
    6.7032   -6.6825    0.0000 C   0  0  0  0  0  0  0  0  0  0  0  0
    8.1322   -6.6825    0.0000 C   0  0  0  0  0  0  0  0  0  0  0  0
    8.1322   -5.8575    0.0000 C   0  0  0  0  0  0  0  0  0  0  0  0
    7.4177   -5.4450    0.0000 C   0  0  0  0  0  0  0  0  0  0  0  0
    6.7032   -5.8575    0.0000 O   0  0  0  0  0  0  0  0  0  0  0  0
    8.8466   -5.4450    0.0000 C   0  0  0  0  0  0  0  0  0  0  0  0
    8.8466   -4.6200    0.0000 C   0  0  0  0  0  0  0  0  0  0  0  0
    8.1322   -4.2075    0.0000 C   0  0  0  0  0  0  0  0  0  0  0  0
    7.4177   -4.6200    0.0000 C   0  0  0  0  0  0  0  0  0  0  0  0
    8.8466   -7.0950    0.0000 C   0  0  0  0  0  0  0  0  0  0  0  0
    9.5611   -6.6825    0.0000 C   0  0  0  0  0  0  0  0  0  0  0  0
    9.5611   -5.8575    0.0000 O   0  3  0  0  0  0  0  0  0  0  0  0
    8.8466   -7.9200    0.0000 O   0  0  0  0  0  0  0  0  0  0  0  0
   10.2756   -7.9200    0.0000 C   0  0  0  0  0  0  0  0  0  0  0  0
   10.2756   -7.0950    0.0000 C   0  0  0  0  0  0  0  0  0  0  0  0
   10.9901   -8.3325    0.0000 C   0  0  0  0  0  0  0  0  0  0  0  0
   11.7045   -7.9200    0.0000 C   0  0  0  0  0  0  0  0  0  0  0  0
   11.7045   -7.0950    0.0000 C   0  0  0  0  0  0  0  0  0  0  0  0
   10.9901   -6.6825    0.0000 C   0  0  0  0  0  0  0  0  0  0  0  0
   12.4190   -8.3325    0.0000 O   0  0  0  0  0  0  0  0  0  0  0  0
   12.4190   -6.6825    0.0000 O   0  0  0  0  0  0  0  0  0  0  0  0
    1.7019   -9.5700    0.0000 O   0  0  0  0  0  0  0  0  0  0  0  0
    3.1309  -10.3950    0.0000 O   0  0  0  0  0  0  0  0  0  0  0  0
    8.1322   -8.3325    0.0000 O   0  0  0  0  0  0  0  0  0  0  0  0
    3.8453   -6.6825    0.0000 O   0  0  0  0  0  0  0  0  0  0  0  0
    8.1322   -3.3825    0.0000 O   0  0  0  0  0  0  0  0  0  0  0  0
  1  2  2  0  0  0  0
  2  3  1  0  0  0  0
  3  4  2  0  0  0  0
  4  5  1  0  0  0  0
  5  6  2  0  0  0  0
  6  1  1  0  0  0  0
  5  7  1  0  0  0  0
  7  8  1  0  0  0  0
  7  9  1  0  0  0  0
  9 10  1  0  0  0  0
 10 11  1  0  0  0  0
 11 12  1  0  0  0  0
 12  8  1  0  0  0  0
 10 13  2  0  0  0  0
 13 14  1  0  0  0  0
 14 15  2  0  0  0  0
 15 16  1  0  0  0  0
 16 11  2  0  0  0  0
 15 17  1  0  0  0  0
 17 18  1  0  0  0  0
 18 19  2  0  0  0  0
 19 20  1  0  0  0  0
 20 16  1  0  0  0  0
 18 21  1  0  0  0  0
 21 22  2  0  0  0  0
 22 23  1  0  0  0  0
 23 24  2  0  0  0  0
 24 19  1  0  0  0  0
 17 25  2  0  0  0  0
 25 26  1  0  0  0  0
 26 27  2  0  0  0  0
 27 21  1  0  0  0  0
 25 28  1  0  0  0  0
 29 30  2  0  0  0  0
 30 26  1  0  0  0  0
 29 31  1  0  0  0  0
 31 32  2  0  0  0  0
 32 33  1  0  0  0  0
 33 34  2  0  0  0  0
 34 30  1  0  0  0  0
 32 35  1  0  0  0  0
 36 33  1  0  0  0  0
  2 37  1  0  0  0  0
  3 38  1  0  0  0  0
 14 39  1  0  0  0  0
  8 40  1  0  0  0  0
 23 41  1  0  0  0  0
M  CHG  1  27   1
M  END
>  <cdx:fragmentId>
5

$$$$
