16853.cdx
  Mrv1902 05222410262D          

  8  8  0  0  0  0            999 V2000
    7.4077   -7.1569    0.0000 C   0  0  0  0  0  0  0  0  0  0  0  0
    7.4077   -7.9819    0.0000 C   0  0  0  0  0  0  0  0  0  0  0  0
    8.1221   -8.3944    0.0000 S   0  0  0  0  0  0  0  0  0  0  0  0
    8.8366   -7.9819    0.0000 S   0  0  0  0  0  0  0  0  0  0  0  0
    8.8366   -7.1569    0.0000 C   0  0  0  0  0  0  0  0  0  0  0  0
    8.1221   -6.7444    0.0000 C   0  0  0  0  0  0  0  0  0  0  0  0
    6.6932   -8.3944    0.0000 C   0  0  0  0  0  0  0  0  0  0  0  0
    5.9787   -7.9819    0.0000 C   0  0  0  0  0  0  0  0  0  0  0  0
  1  2  2  0  0  0  0
  2  3  1  0  0  0  0
  3  4  1  0  0  0  0
  4  5  1  0  0  0  0
  5  6  2  0  0  0  0
  6  1  1  0  0  0  0
  2  7  1  0  0  0  0
  7  8  2  0  0  0  0
M  END
>  <cdx:fragmentId>
5

$$$$
