1686.cdx
  Mrv1902 05222410182D          

 21 23  0  0  0  0            999 V2000
    4.3964   -7.1775    0.0000 C   0  0  2  0  0  0  0  0  0  0  0  0
    4.3964   -8.0025    0.0000 C   0  0  0  0  0  0  0  0  0  0  0  0
    5.1109   -8.4150    0.0000 O   0  0  0  0  0  0  0  0  0  0  0  0
    5.8253   -8.0025    0.0000 C   0  0  0  0  0  0  0  0  0  0  0  0
    5.8253   -7.1775    0.0000 C   0  0  0  0  0  0  0  0  0  0  0  0
    5.1109   -6.7650    0.0000 C   0  0  0  0  0  0  0  0  0  0  0  0
    6.5398   -8.4150    0.0000 C   0  0  0  0  0  0  0  0  0  0  0  0
    7.2543   -8.0025    0.0000 C   0  0  0  0  0  0  0  0  0  0  0  0
    7.2543   -7.1775    0.0000 C   0  0  0  0  0  0  0  0  0  0  0  0
    6.5398   -6.7650    0.0000 C   0  0  0  0  0  0  0  0  0  0  0  0
    7.9688   -8.4150    0.0000 O   0  0  0  0  0  0  0  0  0  0  0  0
    8.6832   -8.0025    0.0000 C   0  0  0  0  0  0  0  0  0  0  0  0
    8.6832   -7.1775    0.0000 C   0  0  0  0  0  0  0  0  0  0  0  0
    7.9688   -6.7650    0.0000 C   0  0  0  0  0  0  0  0  0  0  0  0
    9.3977   -8.4150    0.0000 C   0  0  0  0  0  0  0  0  0  0  0  0
    7.9688   -5.9400    0.0000 O   0  0  0  0  0  0  0  0  0  0  0  0
    6.5398   -5.9400    0.0000 O   0  0  0  0  0  0  0  0  0  0  0  0
    3.5714   -8.0025    0.0000 C   0  0  0  0  0  0  0  0  0  0  0  0
    4.1829   -8.7994    0.0000 C   0  0  0  0  0  0  0  0  0  0  0  0
    3.6819   -6.7650    0.0000 O   0  0  0  0  0  0  0  0  0  0  0  0
   10.1122   -8.0025    0.0000 O   0  0  0  0  0  0  0  0  0  0  0  0
  1  2  1  0  0  0  0
  2  3  1  0  0  0  0
  3  4  1  0  0  0  0
  4  5  2  0  0  0  0
  5  6  1  0  0  0  0
  6  1  1  0  0  0  0
  4  7  1  0  0  0  0
  7  8  2  0  0  0  0
  8  9  1  0  0  0  0
  9 10  2  0  0  0  0
 10  5  1  0  0  0  0
  8 11  1  0  0  0  0
 11 12  1  0  0  0  0
 12 13  2  0  0  0  0
 13 14  1  0  0  0  0
 14  9  1  0  0  0  0
 12 15  1  0  0  0  0
 14 16  2  0  0  0  0
 10 17  1  0  0  0  0
  2 18  1  0  0  0  0
  2 19  1  0  0  0  0
  1 20  1  1  0  0  0
 15 21  1  0  0  0  0
M  END
>  <cdx:fragmentId>
5

$$$$
