16862.cdx
  Mrv1902 05222410202D          

 36 39  0  0  0  0            999 V2000
    4.0252   -8.3737    0.0000 C   0  0  0  0  0  0  0  0  0  0  0  0
    4.0252   -9.1987    0.0000 C   0  0  0  0  0  0  0  0  0  0  0  0
    4.7396   -9.6112    0.0000 C   0  0  0  0  0  0  0  0  0  0  0  0
    5.4541   -9.1987    0.0000 C   0  0  0  0  0  0  0  0  0  0  0  0
    5.4541   -8.3737    0.0000 C   0  0  0  0  0  0  0  0  0  0  0  0
    4.7396   -7.9612    0.0000 C   0  0  0  0  0  0  0  0  0  0  0  0
    6.1686   -9.6112    0.0000 C   0  0  0  0  0  0  0  0  0  0  0  0
    6.8830   -9.1987    0.0000 C   0  0  0  0  0  0  0  0  0  0  0  0
    6.8830   -8.3737    0.0000 C   0  0  0  0  0  0  0  0  0  0  0  0
    6.1686   -7.9612    0.0000 O   0  0  0  0  0  0  0  0  0  0  0  0
    7.5975   -7.9612    0.0000 C   0  0  0  0  0  0  0  0  0  0  0  0
    7.5975   -7.1362    0.0000 C   0  0  0  0  0  0  0  0  0  0  0  0
    8.3120   -8.3737    0.0000 C   0  0  0  0  0  0  0  0  0  0  0  0
    9.0265   -7.9612    0.0000 C   0  0  0  0  0  0  0  0  0  0  0  0
    9.0265   -7.1362    0.0000 C   0  0  0  0  0  0  0  0  0  0  0  0
    8.3120   -6.7237    0.0000 C   0  0  0  0  0  0  0  0  0  0  0  0
    3.3107   -7.9612    0.0000 O   0  0  0  0  0  0  0  0  0  0  0  0
    4.7396  -10.4363    0.0000 O   0  0  0  0  0  0  0  0  0  0  0  0
    6.8830   -6.7237    0.0000 O   0  0  0  0  0  0  0  0  0  0  0  0
    8.3120   -9.1987    0.0000 O   0  0  0  0  0  0  0  0  0  0  0  0
    6.1686  -10.4363    0.0000 O   0  0  0  0  0  0  0  0  0  0  0  0
    4.7396   -7.1362    0.0000 O   0  0  0  0  0  0  0  0  0  0  0  0
    4.0252   -6.7237    0.0000 C   0  0  0  0  0  0  0  0  0  0  0  0
    9.0265   -9.6112    0.0000 C   0  0  0  0  0  0  0  0  0  0  0  0
    9.7409   -8.3737    0.0000 O   0  0  0  0  0  0  0  0  0  0  0  0
    6.8830   -5.8988    0.0000 C   0  0  2  0  0  0  0  0  0  0  0  0
    7.5975   -5.4862    0.0000 O   0  0  0  0  0  0  0  0  0  0  0  0
    7.5975   -4.6612    0.0000 C   0  0  1  0  0  0  0  0  0  0  0  0
    6.8830   -4.2488    0.0000 C   0  0  2  0  0  0  0  0  0  0  0  0
    6.1686   -4.6612    0.0000 C   0  0  1  0  0  0  0  0  0  0  0  0
    6.1686   -5.4862    0.0000 C   0  0  1  0  0  0  0  0  0  0  0  0
    8.3120   -4.2487    0.0000 C   0  0  0  0  0  0  0  0  0  0  0  0
    5.4541   -4.2487    0.0000 O   0  0  0  0  0  0  0  0  0  0  0  0
    5.4541   -5.8987    0.0000 O   0  0  0  0  0  0  0  0  0  0  0  0
    6.8830   -3.4238    0.0000 O   0  0  0  0  0  0  0  0  0  0  0  0
    8.3120   -3.4237    0.0000 O   0  0  0  0  0  0  0  0  0  0  0  0
  1  2  2  0  0  0  0
  2  3  1  0  0  0  0
  3  4  2  0  0  0  0
  4  5  1  0  0  0  0
  5  6  2  0  0  0  0
  6  1  1  0  0  0  0
  4  7  1  0  0  0  0
  7  8  1  0  0  0  0
  8  9  2  0  0  0  0
  9 10  1  0  0  0  0
 10  5  1  0  0  0  0
  9 11  1  0  0  0  0
 11 12  1  0  0  0  0
 11 13  2  0  0  0  0
 13 14  1  0  0  0  0
 14 15  2  0  0  0  0
 15 16  1  0  0  0  0
 16 12  2  0  0  0  0
  1 17  1  0  0  0  0
  3 18  1  0  0  0  0
 12 19  1  0  0  0  0
 13 20  1  0  0  0  0
  7 21  2  0  0  0  0
  6 22  1  0  0  0  0
 22 23  1  0  0  0  0
 20 24  1  0  0  0  0
 14 25  1  0  0  0  0
 26 19  1  1  0  0  0
 26 27  1  0  0  0  0
 27 28  1  0  0  0  0
 28 29  1  0  0  0  0
 29 30  1  0  0  0  0
 30 31  1  0  0  0  0
 31 26  1  0  0  0  0
 28 32  1  1  0  0  0
 30 33  1  1  0  0  0
 31 34  1  6  0  0  0
 29 35  1  6  0  0  0
 32 36  1  0  0  0  0
M  END
>  <cdx:fragmentId>
5

$$$$
