16860.cdx
  Mrv1902 05222410192D          

 11 11  0  0  0  0            999 V2000
    4.3139   -7.1156    0.0000 C   0  0  0  0  0  0  0  0  0  0  0  0
    4.3139   -7.9406    0.0000 C   0  0  0  0  0  0  0  0  0  0  0  0
    5.0284   -8.3531    0.0000 C   0  0  0  0  0  0  0  0  0  0  0  0
    5.7428   -7.9406    0.0000 C   0  0  0  0  0  0  0  0  0  0  0  0
    5.7428   -7.1156    0.0000 C   0  0  0  0  0  0  0  0  0  0  0  0
    5.0284   -6.7031    0.0000 C   0  0  0  0  0  0  0  0  0  0  0  0
    6.4573   -6.7031    0.0000 C   0  0  0  0  0  0  0  0  0  0  0  0
    7.1718   -7.1156    0.0000 C   0  0  0  0  0  0  0  0  0  0  0  0
    7.8863   -6.7031    0.0000 C   0  0  0  0  0  0  0  0  0  0  0  0
    8.6007   -7.1156    0.0000 C   0  0  0  0  0  0  0  0  0  0  0  0
    9.3152   -6.7031    0.0000 C   0  0  0  0  0  0  0  0  0  0  0  0
  1  2  1  0  0  0  0
  2  3  2  0  0  0  0
  3  4  1  0  0  0  0
  4  5  1  0  0  0  0
  5  6  1  0  0  0  0
  6  1  1  0  0  0  0
  5  7  1  0  0  0  0
  7  8  1  0  0  0  0
  8  9  2  0  0  0  0
  9 10  1  0  0  0  0
 10 11  1  0  0  0  0
M  END
>  <cdx:fragmentId>
5

$$$$
