16872.cdx
  Mrv1902 05222410182D          

 12 11  0  0  0  0            999 V2000
    3.3453   -3.0739    0.0000 C   0  0  0  0  0  0  0  0  0  0  0  0
    2.6309   -3.4864    0.0000 C   0  0  0  0  0  0  0  0  0  0  0  0
    2.6309   -4.3114    0.0000 C   0  0  0  0  0  0  0  0  0  0  0  0
    3.3453   -2.2489    0.0000 O   0  0  0  0  0  0  0  0  0  0  0  0
    4.0598   -3.4864    0.0000 O   0  0  0  0  0  0  0  0  0  0  0  0
    1.9164   -3.0739    0.0000 C   0  0  0  0  0  0  0  0  0  0  0  0
    4.7743   -3.0739    0.0000 C   0  0  0  0  0  0  0  0  0  0  0  0
    5.4887   -3.4864    0.0000 C   0  0  0  0  0  0  0  0  0  0  0  0
    6.2032   -3.0739    0.0000 C   0  0  0  0  0  0  0  0  0  0  0  0
    6.9177   -3.4864    0.0000 C   0  0  0  0  0  0  0  0  0  0  0  0
    7.6321   -3.0739    0.0000 C   0  0  0  0  0  0  0  0  0  0  0  0
    8.3466   -3.4864    0.0000 C   0  0  0  0  0  0  0  0  0  0  0  0
  1  2  1  0  0  0  0
  2  3  1  0  0  0  0
  1  4  2  0  0  0  0
  1  5  1  0  0  0  0
  2  6  1  0  0  0  0
  7  8  1  0  0  0  0
  8  9  1  0  0  0  0
  9 10  1  0  0  0  0
 10 11  1  0  0  0  0
 11 12  1  0  0  0  0
  5  7  1  0  0  0  0
M  END
>  <cdx:groupId>
37

>  <cdx:fragmentId>
17

$$$$
