88168807.cdx
  Mrv1902 05222410252D          

 14 13  0  0  0  0            999 V2000
    6.5538  -14.7394    0.0000 C   0  0  0  0  0  0  0  0  0  0  0  0
    5.8393  -15.1519    0.0000 C   0  0  0  0  0  0  0  0  0  0  0  0
    5.1248  -14.7394    0.0000 C   0  0  0  0  0  0  0  0  0  0  0  0
    4.4104  -15.1519    0.0000 C   0  0  0  0  0  0  0  0  0  0  0  0
    4.4104  -15.9769    0.0000 C   0  0  0  0  0  0  0  0  0  0  0  0
    6.5538  -13.9144    0.0000 O   0  0  0  0  0  0  0  0  0  0  0  0
    7.2682  -15.1519    0.0000 O   0  0  0  0  0  0  0  0  0  0  0  0
    3.6959  -14.7394    0.0000 C   0  0  0  0  0  0  0  0  0  0  0  0
    7.9827  -14.7394    0.0000 C   0  0  0  0  0  0  0  0  0  0  0  0
    8.6972  -15.1519    0.0000 C   0  0  0  0  0  0  0  0  0  0  0  0
    9.4117  -14.7394    0.0000 C   0  0  0  0  0  0  0  0  0  0  0  0
   10.1261  -15.1519    0.0000 C   0  0  0  0  0  0  0  0  0  0  0  0
   10.8406  -14.7394    0.0000 C   0  0  0  0  0  0  0  0  0  0  0  0
   10.1261  -15.9769    0.0000 C   0  0  0  0  0  0  0  0  0  0  0  0
  1  2  1  0  0  0  0
  2  3  1  0  0  0  0
  3  4  1  0  0  0  0
  4  5  1  0  0  0  0
  1  6  2  0  0  0  0
  1  7  1  0  0  0  0
  4  8  1  0  0  0  0
  9 10  1  0  0  0  0
 10 11  1  0  0  0  0
 11 12  1  0  0  0  0
 12 13  1  0  0  0  0
 12 14  1  0  0  0  0
  7  9  1  0  0  0  0
M  END
>  <cdx:groupId>
210873

>  <cdx:fragmentId>
210835

$$$$
