168849.cdx
  Mrv1902 05222410272D          

 44 48  0  0  0  0            999 V2000
    4.8845  -10.0004    0.0000 O   0  0  0  0  0  0  0  0  0  0  0  0
    5.5968   -8.7616    0.0000 O   0  0  0  0  0  0  0  0  0  0  0  0
    4.8831   -9.1754    0.0000 C   0  0  2  0  0  0  0  0  0  0  0  0
    4.1679   -8.7641    0.0000 C   0  0  1  0  0  0  0  0  0  0  0  0
    4.1664   -7.9391    0.0000 C   0  0  2  0  0  0  0  0  0  0  0  0
    4.8802   -7.5254    0.0000 C   0  0  1  0  0  0  0  0  0  0  0  0
    5.5954   -7.9366    0.0000 C   0  0  1  0  0  0  0  0  0  0  0  0
    6.3091   -7.5229    0.0000 C   0  0  0  0  0  0  0  0  0  0  0  0
    6.3093   -6.6828    0.0000 O   0  0  0  0  0  0  0  0  0  0  0  0
    7.7382   -6.6803    0.0000 O   0  0  0  0  0  0  0  0  0  0  0  0
    7.0230   -6.2691    0.0000 C   0  0  2  0  0  0  0  0  0  0  0  0
    7.0216   -5.4441    0.0000 C   0  0  1  0  0  0  0  0  0  0  0  0
    7.7353   -5.0303    0.0000 C   0  0  1  0  0  0  0  0  0  0  0  0
    8.4505   -5.4415    0.0000 C   0  0  2  0  0  0  0  0  0  0  0  0
    8.4520   -6.2665    0.0000 C   0  0  2  0  0  0  0  0  0  0  0  0
    9.1672   -6.6778    0.0000 C   0  0  0  0  0  0  0  0  0  0  0  0
    9.1643   -5.0278    0.0000 O   0  0  0  0  0  0  0  0  0  0  0  0
    7.7339   -4.2053    0.0000 O   0  0  0  0  0  0  0  0  0  0  0  0
    6.3064   -5.0328    0.0000 O   0  0  0  0  0  0  0  0  0  0  0  0
    4.8787   -6.7004    0.0000 O   0  0  0  0  0  0  0  0  0  0  0  0
    3.4512   -7.5279    0.0000 O   0  0  0  0  0  0  0  0  0  0  0  0
    3.4541   -9.1779    0.0000 O   0  0  0  0  0  0  0  0  0  0  0  0
    6.3135  -12.4754    0.0000 O   0  0  0  0  0  0  0  0  0  0  0  0
    4.1701  -11.2379    0.0000 C   0  0  0  0  0  0  0  0  0  0  0  0
    4.8845  -11.6504    0.0000 O   0  0  0  0  0  0  0  0  0  0  0  0
   12.0292   -9.1754    0.0000 C   0  0  0  0  0  0  0  0  0  0  0  0
   11.3148   -8.7629    0.0000 O   0  0  0  0  0  0  0  0  0  0  0  0
    9.1714   -9.1754    0.0000 C   0  0  0  0  0  0  0  0  0  0  0  0
    9.8858   -8.7629    0.0000 C   0  0  0  0  0  0  0  0  0  0  0  0
   10.6003   -9.1754    0.0000 C   0  0  0  0  0  0  0  0  0  0  0  0
   10.6003  -10.0004    0.0000 C   0  0  0  0  0  0  0  0  0  0  0  0
    9.8858  -10.4129    0.0000 C   0  0  0  0  0  0  0  0  0  0  0  0
    9.1714  -10.0004    0.0000 C   0  0  0  0  0  0  0  0  0  0  0  0
    7.7424  -12.4754    0.0000 O   0  0  0  0  0  0  0  0  0  0  0  0
    7.7424  -10.0004    0.0000 O   0  0  0  0  0  0  0  0  0  0  0  0
    7.0279  -10.4129    0.0000 C   0  0  0  0  0  0  0  0  0  0  0  0
    6.3135  -10.0004    0.0000 C   0  0  0  0  0  0  0  0  0  0  0  0
    5.5990  -10.4129    0.0000 C   0  0  0  0  0  0  0  0  0  0  0  0
    5.5990  -11.2379    0.0000 C   0  0  0  0  0  0  0  0  0  0  0  0
    6.3135  -11.6504    0.0000 C   0  0  0  0  0  0  0  0  0  0  0  0
    7.0279  -11.2379    0.0000 C   0  0  0  0  0  0  0  0  0  0  0  0
    7.7424  -11.6504    0.0000 C   0  0  0  0  0  0  0  0  0  0  0  0
    8.4569  -11.2379    0.0000 C   0  0  0  0  0  0  0  0  0  0  0  0
    8.4569  -10.4129    0.0000 C   0  0  0  0  0  0  0  0  0  0  0  0
 40 23  1  0  0  0  0
 39 25  1  0  0  0  0
 25 24  1  0  0  0  0
 44 33  1  0  0  0  0
 30 27  1  0  0  0  0
 27 26  1  0  0  0  0
 33 28  2  0  0  0  0
 29 28  1  0  0  0  0
 30 29  2  0  0  0  0
 31 30  1  0  0  0  0
 32 31  2  0  0  0  0
 33 32  1  0  0  0  0
 38  1  1  0  0  0  0
  2  3  1  0  0  0  0
 42 34  2  0  0  0  0
 44 35  1  0  0  0  0
 36 35  1  0  0  0  0
 41 36  2  0  0  0  0
 37 36  1  0  0  0  0
 38 37  2  0  0  0  0
 39 38  1  0  0  0  0
 40 39  2  0  0  0  0
 41 40  1  0  0  0  0
 42 41  1  0  0  0  0
 43 42  1  0  0  0  0
 44 43  2  0  0  0  0
  3  4  1  0  0  0  0
  4  5  1  0  0  0  0
  5  6  1  0  0  0  0
  6  7  1  0  0  0  0
  2  7  1  0  0  0  0
 10 11  1  0  0  0  0
 11 12  1  0  0  0  0
 12 13  1  0  0  0  0
 13 14  1  0  0  0  0
 14 15  1  0  0  0  0
 10 15  1  0  0  0  0
 15 16  1  6  0  0  0
 14 17  1  1  0  0  0
 13 18  1  6  0  0  0
 12 19  1  6  0  0  0
 11  9  1  1  0  0  0
  8  9  1  0  0  0  0
  7  8  1  1  0  0  0
  6 20  1  6  0  0  0
  5 21  1  1  0  0  0
  4 22  1  6  0  0  0
  3  1  1  1  0  0  0
M  END
>  <cdx:fragmentId>
45

$$$$
