168836.cdx
  Mrv1902 05222410212D          

 21 21  0  0  0  0            999 V2000
    7.1956   -8.0522    0.0000 C   0  0  0  0  0  0  0  0  0  0  0  0
    6.4812   -8.4647    0.0000 C   0  0  0  0  0  0  0  0  0  0  0  0
    5.7667   -8.0522    0.0000 C   0  0  0  0  0  0  0  0  0  0  0  0
    5.0522   -8.4647    0.0000 C   0  0  0  0  0  0  0  0  0  0  0  0
    4.3378   -8.0522    0.0000 C   0  0  0  0  0  0  0  0  0  0  0  0
    3.6233   -8.4647    0.0000 C   0  0  0  0  0  0  0  0  0  0  0  0
    2.9088   -8.0522    0.0000 C   0  0  0  0  0  0  0  0  0  0  0  0
    2.9088   -7.2272    0.0000 C   0  0  0  0  0  0  0  0  0  0  0  0
    7.1956   -7.2272    0.0000 O   0  0  0  0  0  0  0  0  0  0  0  0
    7.9101   -8.4647    0.0000 N   0  0  0  0  0  0  0  0  0  0  0  0
    2.1944   -8.4647    0.0000 C   0  0  0  0  0  0  0  0  0  0  0  0
    8.6246   -8.0522    0.0000 C   0  0  0  0  0  0  0  0  0  0  0  0
    9.3391   -8.4647    0.0000 C   0  0  0  0  0  0  0  0  0  0  0  0
   10.0535   -8.0522    0.0000 C   0  0  0  0  0  0  0  0  0  0  0  0
   10.7680   -8.4647    0.0000 C   0  0  0  0  0  0  0  0  0  0  0  0
   10.7680   -9.2897    0.0000 C   0  0  0  0  0  0  0  0  0  0  0  0
   10.0535   -9.7022    0.0000 C   0  0  0  0  0  0  0  0  0  0  0  0
    9.3391   -9.2897    0.0000 C   0  0  0  0  0  0  0  0  0  0  0  0
   11.4825   -8.0522    0.0000 O   0  0  0  0  0  0  0  0  0  0  0  0
   12.1969   -8.4647    0.0000 C   0  0  0  0  0  0  0  0  0  0  0  0
   11.4825   -9.7022    0.0000 O   0  0  0  0  0  0  0  0  0  0  0  0
  1  2  1  0  0  0  0
  2  3  1  0  0  0  0
  3  4  1  0  0  0  0
  4  5  1  0  0  0  0
  5  6  1  0  0  0  0
  6  7  1  0  0  0  0
  7  8  1  0  0  0  0
  1  9  2  0  0  0  0
  1 10  1  0  0  0  0
  7 11  1  0  0  0  0
 13 14  1  0  0  0  0
 14 15  2  0  0  0  0
 15 16  1  0  0  0  0
 16 17  2  0  0  0  0
 17 18  1  0  0  0  0
 13 18  2  0  0  0  0
 19 20  1  0  0  0  0
 15 19  1  0  0  0  0
 16 21  1  0  0  0  0
 12 13  1  0  0  0  0
 10 12  1  0  0  0  0
M  END
>  <cdx:fragmentId>
5

$$$$
