16891.cdx
  Mrv1902 05222410262D          

 32 35  0  0  0  0            999 V2000
    6.1839   -5.2250    0.0000 C   0  0  0  0  0  0  0  0  0  0  0  0
    6.1839   -6.0500    0.0000 C   0  0  0  0  0  0  0  0  0  0  0  0
    6.8984   -6.4625    0.0000 C   0  0  0  0  0  0  0  0  0  0  0  0
    7.6128   -6.0500    0.0000 C   0  0  0  0  0  0  0  0  0  0  0  0
    7.6128   -5.2250    0.0000 C   0  0  0  0  0  0  0  0  0  0  0  0
    6.8984   -4.8125    0.0000 C   0  0  0  0  0  0  0  0  0  0  0  0
    8.3273   -6.4625    0.0000 C   0  0  0  0  0  0  0  0  0  0  0  0
    9.0418   -6.0500    0.0000 C   0  0  0  0  0  0  0  0  0  0  0  0
    9.0418   -5.2250    0.0000 C   0  0  0  0  0  0  0  0  0  0  0  0
    8.3273   -4.8125    0.0000 O   0  0  0  0  0  0  0  0  0  0  0  0
    9.7563   -4.8125    0.0000 C   0  0  0  0  0  0  0  0  0  0  0  0
    9.7563   -3.9875    0.0000 C   0  0  0  0  0  0  0  0  0  0  0  0
   10.4707   -5.2250    0.0000 C   0  0  0  0  0  0  0  0  0  0  0  0
   11.1852   -4.8125    0.0000 C   0  0  0  0  0  0  0  0  0  0  0  0
   11.1852   -3.9875    0.0000 C   0  0  0  0  0  0  0  0  0  0  0  0
   10.4707   -3.5750    0.0000 C   0  0  0  0  0  0  0  0  0  0  0  0
    6.8984   -3.9875    0.0000 O   0  0  0  0  0  0  0  0  0  0  0  0
    5.4694   -4.8125    0.0000 O   0  0  0  0  0  0  0  0  0  0  0  0
    6.1839   -3.5750    0.0000 C   0  0  0  0  0  0  0  0  0  0  0  0
    6.8984   -7.2875    0.0000 O   0  0  0  0  0  0  0  0  0  0  0  0
    8.3273   -7.2875    0.0000 O   0  0  0  0  0  0  0  0  0  0  0  0
    4.7402   -7.7000    0.0000 C   0  0  2  0  0  0  0  0  0  0  0  0
    4.7402   -8.5250    0.0000 C   0  0  2  0  0  0  0  0  0  0  0  0
    5.4546   -8.9375    0.0000 C   0  0  1  0  0  0  0  0  0  0  0  0
    6.1691   -8.5250    0.0000 C   0  0  2  0  0  0  0  0  0  0  0  0
    6.1691   -7.7000    0.0000 C   0  0  1  0  0  0  0  0  0  0  0  0
    5.4546   -7.2875    0.0000 O   0  0  0  0  0  0  0  0  0  0  0  0
    4.0257   -7.2875    0.0000 C   0  0  0  0  0  0  0  0  0  0  0  0
    5.4546   -9.7625    0.0000 O   0  0  0  0  0  0  0  0  0  0  0  0
    6.8836   -8.9375    0.0000 O   0  0  0  0  0  0  0  0  0  0  0  0
    4.0257   -8.9375    0.0000 O   0  0  0  0  0  0  0  0  0  0  0  0
    3.3112   -7.7000    0.0000 O   0  0  0  0  0  0  0  0  0  0  0  0
  1  2  2  0  0  0  0
  2  3  1  0  0  0  0
  3  4  2  0  0  0  0
  4  5  1  0  0  0  0
  5  6  2  0  0  0  0
  6  1  1  0  0  0  0
  4  7  1  0  0  0  0
  7  8  1  0  0  0  0
  8  9  2  0  0  0  0
  9 10  1  0  0  0  0
 10  5  1  0  0  0  0
  9 11  1  0  0  0  0
 11 12  1  0  0  0  0
 11 13  2  0  0  0  0
 13 14  1  0  0  0  0
 14 15  2  0  0  0  0
 15 16  1  0  0  0  0
 16 12  2  0  0  0  0
  6 17  1  0  0  0  0
 18  1  1  0  0  0  0
 17 19  1  0  0  0  0
  3 20  1  0  0  0  0
  7 21  2  0  0  0  0
 22 23  1  0  0  0  0
 23 24  1  0  0  0  0
 24 25  1  0  0  0  0
 25 26  1  0  0  0  0
 26 27  1  0  0  0  0
 27 22  1  0  0  0  0
 22 28  1  1  0  0  0
 24 29  1  1  0  0  0
 25 30  1  6  0  0  0
 23 31  1  6  0  0  0
 28 32  1  0  0  0  0
 26 20  1  1  0  0  0
M  END
>  <cdx:fragmentId>
5

$$$$
