16899.cdx
  Mrv1902 05222410182D          

 26 29  0  0  0  0            999 V2000
    6.1291   -6.5495    0.0000 O   0  0  0  0  0  0  0  0  0  0  0  0
    3.3882   -7.6765    0.0000 C   0  0  0  0  0  0  0  0  0  0  0  0
    3.1332   -8.4611    0.0000 C   0  0  0  0  0  0  0  0  0  0  0  0
    3.6853   -9.0742    0.0000 C   0  0  0  0  0  0  0  0  0  0  0  0
    4.4922   -8.9027    0.0000 C   0  0  0  0  0  0  0  0  0  0  0  0
    5.4146   -6.9620    0.0000 C   0  0  0  0  0  0  0  0  0  0  0  0
    4.6076   -6.7905    0.0000 N   0  0  0  0  0  0  0  0  0  0  0  0
    4.1951   -7.5050    0.0000 C   0  0  0  0  0  0  0  0  0  0  0  0
    4.7472   -8.1181    0.0000 C   0  0  0  0  0  0  0  0  0  0  0  0
    5.5008   -7.7825    0.0000 C   0  0  0  0  0  0  0  0  0  0  0  0
    6.2153   -8.1950    0.0000 C   0  0  0  0  0  0  0  0  0  0  0  0
    6.9298   -7.7825    0.0000 C   0  0  0  0  0  0  0  0  0  0  0  0
    6.9298   -9.4325    0.0000 O   0  0  0  0  0  0  0  0  0  0  0  0
    8.3587   -6.9575    0.0000 O   0  0  0  0  0  0  0  0  0  0  0  0
    8.3587  -10.2575    0.0000 C   0  0  0  0  0  0  0  0  0  0  0  0
    8.3587   -7.7825    0.0000 C   0  0  0  0  0  0  0  0  0  0  0  0
    7.6443   -8.1950    0.0000 N   0  0  0  0  0  0  0  0  0  0  0  0
    7.6443   -9.0200    0.0000 C   0  0  0  0  0  0  0  0  0  0  0  0
    8.3587   -9.4325    0.0000 N   0  0  0  0  0  0  0  0  0  0  0  0
    9.7877   -7.7825    0.0000 C   0  0  0  0  0  0  0  0  0  0  0  0
    9.0732   -8.1950    0.0000 C   0  0  0  0  0  0  0  0  0  0  0  0
    9.0732   -9.0200    0.0000 C   0  0  0  0  0  0  0  0  0  0  0  0
    9.7877   -9.4325    0.0000 C   0  0  0  0  0  0  0  0  0  0  0  0
   10.5021   -9.0200    0.0000 C   0  0  0  0  0  0  0  0  0  0  0  0
   10.5021   -8.1950    0.0000 C   0  0  0  0  0  0  0  0  0  0  0  0
    5.5008   -8.6075    0.0000 O   0  0  0  0  0  0  0  0  0  0  0  0
  6  1  2  0  0  0  0
  2  8  1  0  0  0  0
  3  2  2  0  0  0  0
  4  3  1  0  0  0  0
  5  4  2  0  0  0  0
  9  5  1  0  0  0  0
  6 10  1  0  0  0  0
  7  6  1  0  0  0  0
  8  7  1  0  0  0  0
  9  8  2  0  0  0  0
 10  9  1  0  0  0  0
 11 10  1  0  0  0  0
 12 11  1  0  0  0  0
 17 12  1  0  0  0  0
 18 13  2  0  0  0  0
 16 14  2  0  0  0  0
 19 15  1  0  0  0  0
 16 21  1  0  0  0  0
 17 16  1  0  0  0  0
 18 17  1  0  0  0  0
 19 18  1  0  0  0  0
 22 19  1  0  0  0  0
 20 25  1  0  0  0  0
 21 20  2  0  0  0  0
 22 21  1  0  0  0  0
 23 22  2  0  0  0  0
 24 23  1  0  0  0  0
 25 24  2  0  0  0  0
 10 26  1  0  0  0  0
M  END
>  <cdx:fragmentId>
5

$$$$
