16906.cdx
  Mrv1902 05222410182D          

 39 43  0  0  0  0            999 V2000
    9.3753   -6.9712    0.0000 C   0  0  0  0  0  0  0  0  0  0  0  0
    9.5140   -5.1504    0.0000 C   0  0  0  0  0  0  0  0  0  0  0  0
    9.5889   -6.1743    0.0000 O   0  0  0  0  0  0  0  0  0  0  0  0
    8.4096   -7.7646    0.0000 O   0  0  0  0  0  0  0  0  0  0  0  0
    6.0276   -3.2086    0.0000 O   0  0  0  0  0  0  0  0  0  0  0  0
    5.2116   -3.3302    0.0000 C   0  0  0  0  0  0  0  0  0  0  0  0
    5.0751   -4.1439    0.0000 O   0  0  0  0  0  0  0  0  0  0  0  0
    4.5841   -5.3109    0.0000 C   0  0  0  0  0  0  0  0  0  0  0  0
    4.5727   -6.5629    0.0000 C   0  0  0  0  0  0  0  0  0  0  0  0
    5.2909   -6.1569    0.0000 O   0  0  0  0  0  0  0  0  0  0  0  0
    5.2948   -5.7299    0.0000 O   0  0  0  0  0  0  0  0  0  0  0  0
    4.7611   -8.3720    0.0000 C   0  0  0  0  0  0  0  0  0  0  0  0
    4.9819   -7.5770    0.0000 O   0  0  0  0  0  0  0  0  0  0  0  0
    6.7160   -9.3430    0.0000 C   0  0  0  0  0  0  0  0  0  0  0  0
    6.1380   -8.7544    0.0000 O   0  0  0  0  0  0  0  0  0  0  0  0
    7.1903   -4.1679    0.0000 C   0  0  0  0  0  0  0  0  0  0  0  0
    6.3954   -3.9471    0.0000 C   0  0  0  0  0  0  0  0  0  0  0  0
    5.8067   -4.5251    0.0000 C   0  0  0  0  0  0  0  0  0  0  0  0
    6.0130   -5.3239    0.0000 C   0  0  0  0  0  0  0  0  0  0  0  0
    6.0015   -6.5759    0.0000 C   0  0  0  0  0  0  0  0  0  0  0  0
    5.7807   -7.3708    0.0000 C   0  0  0  0  0  0  0  0  0  0  0  0
    6.3588   -7.9595    0.0000 C   0  0  0  0  0  0  0  0  0  0  0  0
    7.1576   -7.7532    0.0000 C   0  0  0  0  0  0  0  0  0  0  0  0
    6.8003   -6.3696    0.0000 C   0  0  0  0  0  0  0  0  0  0  0  0
    7.3784   -6.9583    0.0000 C   0  0  0  0  0  0  0  0  0  0  0  0
    8.2033   -6.9658    0.0000 C   0  0  1  0  0  0  0  0  0  0  0  0
    8.7920   -6.3878    0.0000 C   0  0  1  0  0  0  0  0  0  0  0  0
    8.7995   -5.5629    0.0000 C   0  0  2  0  0  0  0  0  0  0  0  0
    8.2215   -4.9742    0.0000 C   0  0  0  0  0  0  0  0  0  0  0  0
    7.3965   -4.9667    0.0000 C   0  0  0  0  0  0  0  0  0  0  0  0
    6.8079   -5.5447    0.0000 C   0  0  0  0  0  0  0  0  0  0  0  0
    9.2045   -7.9854    0.0000 C   0  0  0  0  0  0  0  0  0  0  0  0
    9.7931   -7.4074    0.0000 O   0  0  0  0  0  0  0  0  0  0  0  0
    9.4107   -8.7842    0.0000 C   0  0  0  0  0  0  0  0  0  0  0  0
    8.8221   -9.3623    0.0000 C   0  0  0  0  0  0  0  0  0  0  0  0
    9.0283  -10.1611    0.0000 C   0  0  0  0  0  0  0  0  0  0  0  0
    9.8232  -10.3818    0.0000 C   0  0  0  0  0  0  0  0  0  0  0  0
   10.4119   -9.8038    0.0000 C   0  0  0  0  0  0  0  0  0  0  0  0
   10.2056   -9.0050    0.0000 C   0  0  0  0  0  0  0  0  0  0  0  0
 27  1  1  1  0  0  0
 28  2  1  6  0  0  0
 27  3  1  6  0  0  0
 26  4  1  1  0  0  0
  5 17  1  0  0  0  0
  6  5  1  0  0  0  0
  7  6  1  0  0  0  0
 18  7  1  0  0  0  0
 11  8  1  0  0  0  0
 10  9  1  0  0  0  0
 20 10  1  0  0  0  0
 19 11  1  0  0  0  0
 13 12  1  0  0  0  0
 21 13  1  0  0  0  0
 15 14  1  0  0  0  0
 22 15  1  0  0  0  0
 16 30  1  0  0  0  0
 17 16  2  0  0  0  0
 18 17  1  0  0  0  0
 19 18  2  0  0  0  0
 31 19  1  0  0  0  0
 20 24  1  0  0  0  0
 21 20  2  0  0  0  0
 22 21  1  0  0  0  0
 23 22  2  0  0  0  0
 25 23  1  0  0  0  0
 24 31  1  0  0  0  0
 25 24  2  0  0  0  0
 26 25  1  0  0  0  0
 27 26  1  0  0  0  0
 28 27  1  0  0  0  0
 29 28  1  0  0  0  0
 30 29  1  0  0  0  0
 31 30  2  0  0  0  0
  4 32  1  0  0  0  0
 32 33  2  0  0  0  0
 32 34  1  0  0  0  0
 34 35  2  0  0  0  0
 35 36  1  0  0  0  0
 36 37  2  0  0  0  0
 37 38  1  0  0  0  0
 38 39  2  0  0  0  0
 39 34  1  0  0  0  0
M  END
>  <cdx:fragmentId>
5

$$$$
