1690.cdx
  Mrv1902 05222410182D          

 26 27  0  0  0  0            999 V2000
    2.9252   -6.6688    0.0000 C   0  0  0  0  0  0  0  0  0  0  0  0
    2.9252   -7.4937    0.0000 C   0  0  0  0  0  0  0  0  0  0  0  0
    3.6396   -7.9063    0.0000 C   0  0  0  0  0  0  0  0  0  0  0  0
    4.3541   -7.4937    0.0000 C   0  0  0  0  0  0  0  0  0  0  0  0
    4.3541   -6.6688    0.0000 C   0  0  0  0  0  0  0  0  0  0  0  0
    3.6396   -6.2563    0.0000 C   0  0  0  0  0  0  0  0  0  0  0  0
    2.2107   -6.2563    0.0000 O   0  0  0  0  0  0  0  0  0  0  0  0
    2.2107   -7.9063    0.0000 O   0  0  0  0  0  0  0  0  0  0  0  0
    5.0686   -6.2563    0.0000 C   0  0  0  0  0  0  0  0  0  0  0  0
    5.7830   -6.6688    0.0000 C   0  0  0  0  0  0  0  0  0  0  0  0
    6.4975   -6.2563    0.0000 C   0  0  2  0  0  0  0  0  0  0  0  0
    7.2120   -6.6688    0.0000 C   0  0  0  0  0  0  0  0  0  0  0  0
    7.9265   -6.2563    0.0000 C   0  0  0  0  0  0  0  0  0  0  0  0
    8.6409   -6.6688    0.0000 C   0  0  0  0  0  0  0  0  0  0  0  0
    9.3554   -6.2563    0.0000 C   0  0  0  0  0  0  0  0  0  0  0  0
   10.0699   -6.6688    0.0000 C   0  0  0  0  0  0  0  0  0  0  0  0
   10.0699   -7.4937    0.0000 C   0  0  0  0  0  0  0  0  0  0  0  0
   10.7843   -7.9063    0.0000 C   0  0  0  0  0  0  0  0  0  0  0  0
   11.4988   -7.4937    0.0000 C   0  0  0  0  0  0  0  0  0  0  0  0
   11.4988   -6.6688    0.0000 C   0  0  0  0  0  0  0  0  0  0  0  0
   10.7843   -6.2563    0.0000 C   0  0  0  0  0  0  0  0  0  0  0  0
   12.2133   -7.9063    0.0000 O   0  0  0  0  0  0  0  0  0  0  0  0
    6.4975   -5.4313    0.0000 O   0  0  0  0  0  0  0  0  0  0  0  0
    7.2120   -5.0187    0.0000 C   0  0  0  0  0  0  0  0  0  0  0  0
    7.9265   -5.4313    0.0000 C   0  0  0  0  0  0  0  0  0  0  0  0
    7.2120   -4.1937    0.0000 O   0  0  0  0  0  0  0  0  0  0  0  0
  1  2  2  0  0  0  0
  2  3  1  0  0  0  0
  3  4  2  0  0  0  0
  4  5  1  0  0  0  0
  5  6  2  0  0  0  0
  6  1  1  0  0  0  0
  1  7  1  0  0  0  0
  2  8  1  0  0  0  0
  5  9  1  0  0  0  0
  9 10  1  0  0  0  0
 10 11  1  0  0  0  0
 11 12  1  0  0  0  0
 12 13  1  0  0  0  0
 13 14  1  0  0  0  0
 14 15  2  0  0  0  0
 15 16  1  0  0  0  0
 16 17  2  0  0  0  0
 17 18  1  0  0  0  0
 18 19  2  0  0  0  0
 19 20  1  0  0  0  0
 20 21  2  0  0  0  0
 21 16  1  0  0  0  0
 19 22  1  0  0  0  0
 11 23  1  1  0  0  0
 23 24  1  0  0  0  0
 24 25  1  0  0  0  0
 24 26  2  0  0  0  0
M  END
>  <cdx:fragmentId>
5

$$$$
