1692.cdx
  Mrv1902 05222410182D          

 26 27  0  0  0  0            999 V2000
    2.5402   -6.7237    0.0000 C   0  0  0  0  0  0  0  0  0  0  0  0
    2.5402   -7.5488    0.0000 C   0  0  0  0  0  0  0  0  0  0  0  0
    3.2546   -7.9612    0.0000 C   0  0  0  0  0  0  0  0  0  0  0  0
    3.9691   -7.5488    0.0000 C   0  0  0  0  0  0  0  0  0  0  0  0
    3.9691   -6.7237    0.0000 C   0  0  0  0  0  0  0  0  0  0  0  0
    3.2546   -6.3113    0.0000 C   0  0  0  0  0  0  0  0  0  0  0  0
    1.8257   -6.3113    0.0000 O   0  0  0  0  0  0  0  0  0  0  0  0
    1.8257   -7.9612    0.0000 O   0  0  0  0  0  0  0  0  0  0  0  0
    4.6836   -6.3113    0.0000 C   0  0  0  0  0  0  0  0  0  0  0  0
    5.3980   -6.7237    0.0000 C   0  0  0  0  0  0  0  0  0  0  0  0
    6.1125   -6.3113    0.0000 C   0  0  2  0  0  0  0  0  0  0  0  0
    6.8270   -6.7237    0.0000 C   0  0  0  0  0  0  0  0  0  0  0  0
    7.5415   -6.3113    0.0000 C   0  0  0  0  0  0  0  0  0  0  0  0
    8.2559   -6.7237    0.0000 C   0  0  0  0  0  0  0  0  0  0  0  0
    8.9704   -6.3113    0.0000 C   0  0  0  0  0  0  0  0  0  0  0  0
    9.6849   -6.7237    0.0000 C   0  0  0  0  0  0  0  0  0  0  0  0
    9.6849   -7.5488    0.0000 C   0  0  0  0  0  0  0  0  0  0  0  0
   10.3993   -7.9612    0.0000 C   0  0  0  0  0  0  0  0  0  0  0  0
   11.1138   -7.5488    0.0000 C   0  0  0  0  0  0  0  0  0  0  0  0
   11.1138   -6.7237    0.0000 C   0  0  0  0  0  0  0  0  0  0  0  0
   10.3993   -6.3113    0.0000 C   0  0  0  0  0  0  0  0  0  0  0  0
   11.8283   -7.9612    0.0000 O   0  0  0  0  0  0  0  0  0  0  0  0
    6.1125   -5.4863    0.0000 O   0  0  0  0  0  0  0  0  0  0  0  0
    6.8270   -5.0737    0.0000 C   0  0  0  0  0  0  0  0  0  0  0  0
    7.5415   -5.4863    0.0000 C   0  0  0  0  0  0  0  0  0  0  0  0
    6.8270   -4.2488    0.0000 O   0  0  0  0  0  0  0  0  0  0  0  0
  1  2  2  0  0  0  0
  2  3  1  0  0  0  0
  3  4  2  0  0  0  0
  4  5  1  0  0  0  0
  5  6  2  0  0  0  0
  6  1  1  0  0  0  0
  1  7  1  0  0  0  0
  2  8  1  0  0  0  0
  5  9  1  0  0  0  0
  9 10  1  0  0  0  0
 10 11  1  0  0  0  0
 11 12  1  0  0  0  0
 12 13  1  0  0  0  0
 13 14  1  0  0  0  0
 14 15  1  0  0  0  0
 15 16  1  0  0  0  0
 16 17  2  0  0  0  0
 17 18  1  0  0  0  0
 18 19  2  0  0  0  0
 19 20  1  0  0  0  0
 20 21  2  0  0  0  0
 21 16  1  0  0  0  0
 19 22  1  0  0  0  0
 11 23  1  1  0  0  0
 23 24  1  0  0  0  0
 24 25  1  0  0  0  0
 24 26  2  0  0  0  0
M  END
>  <cdx:fragmentId>
5

$$$$
