169234.cdx
  Mrv1902 05222410182D          

 32 35  0  0  0  0            999 V2000
   14.2146  -21.2872    0.0000 O   0  0  0  0  0  0  0  0  0  0  0  0
   14.6995  -20.6198    0.0000 C   0  0  0  0  0  0  0  0  0  0  0  0
   15.4841  -20.8747    0.0000 C   0  0  1  0  0  0  0  0  0  0  0  0
   15.4841  -21.6997    0.0000 C   0  0  1  0  0  0  0  0  0  0  0  0
   14.6995  -21.9546    0.0000 C   0  0  1  0  0  0  0  0  0  0  0  0
   16.7537  -21.2872    0.0000 O   0  0  0  0  0  0  0  0  0  0  0  0
   16.2687  -20.6198    0.0000 C   0  0  2  0  0  0  0  0  0  0  0  0
   16.2687  -21.9546    0.0000 C   0  0  0  0  0  0  0  0  0  0  0  0
   16.5237  -19.8351    0.0000 C   0  0  0  0  0  0  0  0  0  0  0  0
   17.3306  -19.6636    0.0000 C   0  0  0  0  0  0  0  0  0  0  0  0
   17.5856  -18.8790    0.0000 C   0  0  0  0  0  0  0  0  0  0  0  0
   17.0335  -18.2659    0.0000 C   0  0  0  0  0  0  0  0  0  0  0  0
   16.2266  -18.4374    0.0000 C   0  0  0  0  0  0  0  0  0  0  0  0
   15.9716  -19.2220    0.0000 C   0  0  0  0  0  0  0  0  0  0  0  0
   15.6745  -17.8243    0.0000 O   0  0  0  0  0  0  0  0  0  0  0  0
   14.8676  -17.9959    0.0000 C   0  0  0  0  0  0  0  0  0  0  0  0
   17.2885  -17.4813    0.0000 O   0  0  0  0  0  0  0  0  0  0  0  0
   18.0955  -17.3098    0.0000 C   0  0  0  0  0  0  0  0  0  0  0  0
   18.3926  -18.7075    0.0000 O   0  0  0  0  0  0  0  0  0  0  0  0
   18.9446  -19.3206    0.0000 C   0  0  0  0  0  0  0  0  0  0  0  0
   14.4446  -22.7393    0.0000 C   0  0  0  0  0  0  0  0  0  0  0  0
   13.6376  -22.9108    0.0000 C   0  0  0  0  0  0  0  0  0  0  0  0
   13.3826  -23.6954    0.0000 C   0  0  0  0  0  0  0  0  0  0  0  0
   13.9347  -24.3085    0.0000 C   0  0  0  0  0  0  0  0  0  0  0  0
   14.7416  -24.1370    0.0000 C   0  0  0  0  0  0  0  0  0  0  0  0
   14.9966  -23.3524    0.0000 C   0  0  0  0  0  0  0  0  0  0  0  0
   13.6797  -25.0931    0.0000 O   0  0  0  0  0  0  0  0  0  0  0  0
   12.8728  -25.2647    0.0000 C   0  0  0  0  0  0  0  0  0  0  0  0
   12.5757  -23.8669    0.0000 O   0  0  0  0  0  0  0  0  0  0  0  0
   11.9923  -23.2836    0.0000 C   0  0  0  0  0  0  0  0  0  0  0  0
   15.4841  -22.5247    0.0000 H   0  0  0  0  0  0  0  0  0  0  0  0
   15.4841  -20.0497    0.0000 H   0  0  0  0  0  0  0  0  0  0  0  0
  1  2  1  0  0  0  0
  2  3  1  0  0  0  0
  3  4  1  0  0  0  0
  4  5  1  0  0  0  0
  1  5  1  0  0  0  0
  6  7  1  0  0  0  0
  6  8  1  0  0  0  0
  7  3  1  0  0  0  0
  8  4  1  0  0  0  0
  9 10  1  0  0  0  0
 10 11  2  0  0  0  0
 11 12  1  0  0  0  0
 12 13  2  0  0  0  0
 13 14  1  0  0  0  0
  9 14  2  0  0  0  0
 15 16  1  0  0  0  0
 13 15  1  0  0  0  0
 17 18  1  0  0  0  0
 12 17  1  0  0  0  0
 19 20  1  0  0  0  0
 11 19  1  0  0  0  0
  7  9  1  1  0  0  0
 21 22  1  0  0  0  0
 22 23  2  0  0  0  0
 23 24  1  0  0  0  0
 24 25  2  0  0  0  0
 25 26  1  0  0  0  0
 21 26  2  0  0  0  0
 27 28  1  0  0  0  0
 24 27  1  0  0  0  0
 29 30  1  0  0  0  0
 23 29  1  0  0  0  0
  5 21  1  1  0  0  0
  4 31  1  1  0  0  0
  3 32  1  1  0  0  0
M  END
>  <cdx:groupId>
11044

>  <cdx:fragmentId>
10964

$$$$
