16927.cdx
  Mrv1902 05222410262D          

 44 49  0  0  0  0            999 V2000
    6.8302   -7.7756    0.0000 C   0  0  0  0  0  0  0  0  0  0  0  0
    6.8302   -8.6006    0.0000 C   0  0  1  0  0  0  0  0  0  0  0  0
    7.5446   -9.0131    0.0000 C   0  0  1  0  0  0  0  0  0  0  0  0
    8.2591   -8.6006    0.0000 C   0  0  0  0  0  0  0  0  0  0  0  0
    8.2591   -7.7756    0.0000 C   0  0  2  0  0  0  0  0  0  0  0  0
    7.5446   -7.3631    0.0000 C   0  0  0  0  0  0  0  0  0  0  0  0
    8.9736   -9.0131    0.0000 C   0  0  0  0  0  0  0  0  0  0  0  0
    9.6880   -8.6006    0.0000 C   0  0  0  0  0  0  0  0  0  0  0  0
    9.6880   -7.7756    0.0000 C   0  0  2  0  0  0  0  0  0  0  0  0
    8.9736   -7.3631    0.0000 C   0  0  0  0  0  0  0  0  0  0  0  0
   10.4025   -7.3631    0.0000 C   0  0  1  0  0  0  0  0  0  0  0  0
   10.4025   -6.5381    0.0000 C   0  0  0  0  0  0  0  0  0  0  0  0
    9.6880   -6.1256    0.0000 C   0  0  0  0  0  0  0  0  0  0  0  0
    8.9736   -6.5381    0.0000 C   0  0  0  0  0  0  0  0  0  0  0  0
   11.1170   -7.7756    0.0000 C   0  0  0  0  0  0  0  0  0  0  0  0
   11.8315   -7.3631    0.0000 C   0  0  0  0  0  0  0  0  0  0  0  0
   11.8315   -6.5381    0.0000 C   0  0  2  0  0  0  0  0  0  0  0  0
   11.1170   -6.1256    0.0000 C   0  0  0  0  0  0  0  0  0  0  0  0
   12.5459   -6.1256    0.0000 C   0  0  0  0  0  0  0  0  0  0  0  0
   12.5459   -5.3006    0.0000 C   0  0  0  0  0  0  0  0  0  0  0  0
   11.8315   -4.8881    0.0000 C   0  0  2  0  0  0  0  0  0  0  0  0
   11.1170   -5.3006    0.0000 C   0  0  2  0  0  0  0  0  0  0  0  0
    5.4012   -7.7756    0.0000 O   0  0  0  0  0  0  0  0  0  0  0  0
    5.4012   -8.6006    0.0000 C   0  0  0  0  0  0  0  0  0  0  0  0
    6.1157   -9.0131    0.0000 O   0  0  0  0  0  0  0  0  0  0  0  0
    3.9723   -8.6006    0.0000 C   0  0  0  0  0  0  0  0  0  0  0  0
    4.6867   -9.0131    0.0000 C   0  0  0  0  0  0  0  0  0  0  0  0
    3.2578   -9.0131    0.0000 C   0  0  0  0  0  0  0  0  0  0  0  0
    3.2578   -9.8381    0.0000 C   0  0  0  0  0  0  0  0  0  0  0  0
    2.5433   -8.6006    0.0000 C   0  0  0  0  0  0  0  0  0  0  0  0
    1.8289   -9.0131    0.0000 C   0  0  0  0  0  0  0  0  0  0  0  0
    1.8289   -9.8381    0.0000 C   0  0  0  0  0  0  0  0  0  0  0  0
    2.5433  -10.2506    0.0000 C   0  0  0  0  0  0  0  0  0  0  0  0
    1.1144  -10.2506    0.0000 O   0  0  0  0  0  0  0  0  0  0  0  0
    7.1321   -9.7276    0.0000 C   0  0  0  0  0  0  0  0  0  0  0  0
    7.9571   -9.7276    0.0000 C   0  0  0  0  0  0  0  0  0  0  0  0
   12.5459   -6.9506    0.0000 C   0  0  0  0  0  0  0  0  0  0  0  0
   12.5459   -7.7756    0.0000 O   0  0  0  0  0  0  0  0  0  0  0  0
   13.2604   -6.5381    0.0000 O   0  0  0  0  0  0  0  0  0  0  0  0
    8.2591   -6.9506    0.0000 C   0  0  0  0  0  0  0  0  0  0  0  0
    9.6880   -6.9506    0.0000 C   0  0  0  0  0  0  0  0  0  0  0  0
   10.4025   -4.8881    0.0000 C   0  0  0  0  0  0  0  0  0  0  0  0
   10.4025   -8.1881    0.0000 C   0  0  0  0  0  0  0  0  0  0  0  0
   11.8315   -4.0631    0.0000 C   0  0  0  0  0  0  0  0  0  0  0  0
  1  2  1  0  0  0  0
  2  3  1  0  0  0  0
  3  4  1  0  0  0  0
  4  5  1  0  0  0  0
  5  6  1  0  0  0  0
  6  1  1  0  0  0  0
  4  7  1  0  0  0  0
  7  8  1  0  0  0  0
  8  9  1  0  0  0  0
  9 10  1  0  0  0  0
 10  5  1  0  0  0  0
  9 11  1  0  0  0  0
 11 12  1  0  0  0  0
 12 13  2  0  0  0  0
 13 14  1  0  0  0  0
 14 10  1  0  0  0  0
 11 15  1  0  0  0  0
 15 16  1  0  0  0  0
 16 17  1  0  0  0  0
 17 18  1  0  0  0  0
 18 12  1  0  0  0  0
 17 19  1  0  0  0  0
 19 20  1  0  0  0  0
 20 21  1  0  0  0  0
 21 22  1  0  0  0  0
 22 18  1  0  0  0  0
 23 24  2  0  0  0  0
 24 25  1  0  0  0  0
  2 25  1  1  0  0  0
 26 27  2  0  0  0  0
 27 24  1  0  0  0  0
 26 28  1  0  0  0  0
 28 29  1  0  0  0  0
 28 30  2  0  0  0  0
 30 31  1  0  0  0  0
 31 32  2  0  0  0  0
 32 33  1  0  0  0  0
 33 29  2  0  0  0  0
 32 34  1  0  0  0  0
  3 35  1  1  0  0  0
  3 36  1  6  0  0  0
 17 37  1  1  0  0  0
 37 38  2  0  0  0  0
 37 39  1  0  0  0  0
  5 40  1  1  0  0  0
  9 41  1  1  0  0  0
 22 42  1  1  0  0  0
 11 43  1  6  0  0  0
 21 44  1  6  0  0  0
M  END
>  <cdx:fragmentId>
5

$$$$
