169421.cdx
  Mrv1902 05222410202D          

 24 27  0  0  0  0            999 V2000
    6.4452   -7.6468    0.0000 C   0  0  0  0  0  0  0  0  0  0  0  0
    5.7306   -8.0591    0.0000 C   0  0  0  0  0  0  0  0  0  0  0  0
    5.7304   -8.8841    0.0000 C   0  0  0  0  0  0  0  0  0  0  0  0
    5.0158   -9.2964    0.0000 C   0  0  0  0  0  0  0  0  0  0  0  0
    4.3014   -8.8837    0.0000 C   0  0  0  0  0  0  0  0  0  0  0  0
    4.3017   -8.0587    0.0000 C   0  0  0  0  0  0  0  0  0  0  0  0
    5.0163   -7.6464    0.0000 C   0  0  0  0  0  0  0  0  0  0  0  0
    9.3038   -5.1726    0.0000 C   0  0  0  0  0  0  0  0  0  0  0  0
   10.0181   -5.5853    0.0000 C   0  0  0  0  0  0  0  0  0  0  0  0
   10.0179   -6.4103    0.0000 C   0  0  0  0  0  0  0  0  0  0  0  0
    9.3033   -6.8226    0.0000 C   0  0  0  0  0  0  0  0  0  0  0  0
    8.5890   -6.4099    0.0000 C   0  0  0  0  0  0  0  0  0  0  0  0
    8.5892   -5.5849    0.0000 C   0  0  0  0  0  0  0  0  0  0  0  0
    7.8749   -5.1722    0.0000 C   0  0  0  0  0  0  0  0  0  0  0  0
    5.7311   -6.4091    0.0000 C   0  0  0  0  0  0  0  0  0  0  0  0
    5.0165   -6.8214    0.0000 C   0  0  0  0  0  0  0  0  0  0  0  0
    4.3021   -6.4087    0.0000 C   0  0  0  0  0  0  0  0  0  0  0  0
    4.3024   -5.5837    0.0000 C   0  0  0  0  0  0  0  0  0  0  0  0
    5.0170   -5.1714    0.0000 C   0  0  0  0  0  0  0  0  0  0  0  0
    5.7313   -5.5841    0.0000 C   0  0  0  0  0  0  0  0  0  0  0  0
    6.4459   -5.1718    0.0000 C   0  0  0  0  0  0  0  0  0  0  0  0
    7.1603   -5.5845    0.0000 C   0  0  0  0  0  0  0  0  0  0  0  0
    7.1600   -6.4095    0.0000 N   0  0  0  0  0  0  0  0  0  0  0  0
    6.4454   -6.8218    0.0000 C   0  0  0  0  0  0  0  0  0  0  0  0
 24  1  1  0  0  0  0
 22 14  1  0  0  0  0
 13  8  2  0  0  0  0
  9  8  1  0  0  0  0
 10  9  2  0  0  0  0
 11 10  1  0  0  0  0
 12 11  2  0  0  0  0
 13 12  1  0  0  0  0
 14 13  1  0  0  0  0
 20 15  2  0  0  0  0
 24 15  1  0  0  0  0
 16 15  1  0  0  0  0
 17 16  2  0  0  0  0
 18 17  1  0  0  0  0
 19 18  2  0  0  0  0
 20 19  1  0  0  0  0
 21 20  1  0  0  0  0
 22 21  2  0  0  0  0
 23 22  1  0  0  0  0
 24 23  2  0  0  0  0
  1  2  1  0  0  0  0
  2  3  1  0  0  0  0
  3  4  2  0  0  0  0
  4  5  1  0  0  0  0
  5  6  2  0  0  0  0
  6  7  1  0  0  0  0
  2  7  2  0  0  0  0
M  END
>  <cdx:fragmentId>
141921

$$$$
