16943.cdx
  Mrv1902 05222410252D          

 35 38  0  0  0  0            999 V2000
    4.4831   -8.2154    0.0000 C   0  0  0  0  0  0  0  0  0  0  0  0
    5.1960   -8.6306    0.0000 C   0  0  0  0  0  0  0  0  0  0  0  0
    5.9121   -8.2208    0.0000 C   0  0  0  0  0  0  0  0  0  0  0  0
    5.9152   -7.3958    0.0000 C   0  0  0  0  0  0  0  0  0  0  0  0
    5.2023   -6.9806    0.0000 C   0  0  0  0  0  0  0  0  0  0  0  0
    4.4863   -7.3904    0.0000 C   0  0  0  0  0  0  0  0  0  0  0  0
    6.6250   -8.6360    0.0000 C   0  0  0  0  0  0  0  0  0  0  0  0
    7.3410   -8.2262    0.0000 C   0  0  0  0  0  0  0  0  0  0  0  0
    7.3441   -7.4012    0.0000 C   0  0  0  0  0  0  0  0  0  0  0  0
    6.6312   -6.9860    0.0000 O   0  0  0  0  0  0  0  0  0  0  0  0
    8.0601   -6.9914    0.0000 C   0  0  0  0  0  0  0  0  0  0  0  0
    8.0633   -6.1664    0.0000 C   0  0  0  0  0  0  0  0  0  0  0  0
    8.7731   -7.4066    0.0000 C   0  0  0  0  0  0  0  0  0  0  0  0
    9.4891   -6.9968    0.0000 C   0  0  0  0  0  0  0  0  0  0  0  0
    9.4922   -6.1718    0.0000 C   0  0  0  0  0  0  0  0  0  0  0  0
    8.7793   -5.7566    0.0000 C   0  0  0  0  0  0  0  0  0  0  0  0
    6.6218   -9.4610    0.0000 O   0  0  0  0  0  0  0  0  0  0  0  0
    7.3347   -9.8762    0.0000 O   0  0  0  0  0  0  0  0  0  0  0  0
    8.0508   -9.4664    0.0000 C   0  0  1  0  0  0  0  0  0  0  0  0
    8.0539   -8.6414    0.0000 O   0  0  0  0  0  0  0  0  0  0  0  0
    7.3316  -10.7012    0.0000 C   0  0  1  0  0  0  0  0  0  0  0  0
    8.0445  -11.1164    0.0000 C   0  0  2  0  0  0  0  0  0  0  0  0
    8.7606  -10.7066    0.0000 C   0  0  1  0  0  0  0  0  0  0  0  0
    8.7637   -9.8816    0.0000 C   0  0  1  0  0  0  0  0  0  0  0  0
    3.7734   -6.9752    0.0000 O   0  0  0  0  0  0  0  0  0  0  0  0
    3.0573   -7.3850    0.0000 C   0  0  0  0  0  0  0  0  0  0  0  0
    6.6156  -11.1110    0.0000 C   0  0  0  0  0  0  0  0  0  0  0  0
    6.6125  -11.9360    0.0000 O   0  0  0  0  0  0  0  0  0  0  0  0
    8.0414  -11.9414    0.0000 O   0  0  0  0  0  0  0  0  0  0  0  0
    9.4735  -11.1218    0.0000 O   0  0  0  0  0  0  0  0  0  0  0  0
    9.4797   -9.4718    0.0000 O   0  0  0  0  0  0  0  0  0  0  0  0
    5.1929   -9.4556    0.0000 O   0  0  0  0  0  0  0  0  0  0  0  0
    8.7824   -4.9317    0.0000 O   0  0  0  0  0  0  0  0  0  0  0  0
   10.2082   -5.7621    0.0000 O   0  0  0  0  0  0  0  0  0  0  0  0
   10.9211   -6.1773    0.0000 C   0  0  0  0  0  0  0  0  0  0  0  0
  1  2  1  0  0  0  0
  2  3  2  0  0  0  0
  3  4  1  0  0  0  0
  4  5  2  0  0  0  0
  5  6  1  0  0  0  0
  6  1  2  0  0  0  0
  3  7  1  0  0  0  0
  7  8  1  0  0  0  0
  8  9  2  0  0  0  0
  9 10  1  0  0  0  0
 10  4  1  0  0  0  0
  9 11  1  0  0  0  0
 11 12  2  0  0  0  0
 11 13  1  0  0  0  0
 13 14  2  0  0  0  0
 14 15  1  0  0  0  0
 15 16  2  0  0  0  0
 16 12  1  0  0  0  0
  7 17  2  0  0  0  0
 18 19  1  0  0  0  0
 19 20  1  1  0  0  0
 20  8  1  0  0  0  0
 18 21  1  0  0  0  0
 21 22  1  0  0  0  0
 22 23  1  0  0  0  0
 23 24  1  0  0  0  0
 24 19  1  0  0  0  0
  6 25  1  0  0  0  0
 25 26  1  0  0  0  0
 21 27  1  1  0  0  0
 27 28  1  0  0  0  0
 22 29  1  6  0  0  0
 23 30  1  1  0  0  0
 24 31  1  6  0  0  0
  2 32  1  0  0  0  0
 16 33  1  0  0  0  0
 15 34  1  0  0  0  0
 34 35  1  0  0  0  0
M  END
>  <cdx:fragmentId>
5

$$$$
