169511.cdx
  Mrv1902 05222410232D          

 39 42  0  0  0  0            999 V2000
    9.2982   -7.0753    0.0000 C   0  0  1  0  0  0  0  0  0  0  0  0
    9.2914   -6.2856    0.0000 C   0  0  1  0  0  0  0  0  0  0  0  0
    8.6153   -7.5386    0.0000 C   0  0  0  0  0  0  0  0  0  0  0  0
   10.0371   -7.3661    0.0000 C   0  0  0  0  0  0  0  0  0  0  0  0
    8.5525   -5.8850    0.0000 C   0  0  0  0  0  0  0  0  0  0  0  0
   10.1224   -6.0409    0.0000 C   0  0  0  0  0  0  0  0  0  0  0  0
    9.2914   -5.4169    0.0000 O   0  0  0  0  0  0  0  0  0  0  0  0
   10.6068   -6.7432    0.0000 O   0  0  0  0  0  0  0  0  0  0  0  0
    7.8666   -6.2857    0.0000 C   0  0  0  0  0  0  0  0  0  0  0  0
   10.3919   -5.2604    0.0000 O   0  0  0  0  0  0  0  0  0  0  0  0
    7.1634   -5.8660    0.0000 C   0  0  0  0  0  0  0  0  0  0  0  0
    7.8582   -7.1036    0.0000 C   0  0  0  0  0  0  0  0  0  0  0  0
    6.4484   -6.2692    0.0000 C   0  0  0  0  0  0  0  0  0  0  0  0
    7.1395   -7.5058    0.0000 C   0  0  0  0  0  0  0  0  0  0  0  0
    6.4376   -7.0884    0.0000 C   0  0  0  0  0  0  0  0  0  0  0  0
    5.7378   -5.8473    0.0000 O   0  0  0  0  0  0  0  0  0  0  0  0
    5.7223   -7.4855    0.0000 O   0  0  0  0  0  0  0  0  0  0  0  0
    4.9317   -6.3127    0.0000 C   0  0  0  0  0  0  0  0  0  0  0  0
    5.6993   -8.3059    0.0000 C   0  0  2  0  0  0  0  0  0  0  0  0
    4.9943   -8.7262    0.0000 O   0  0  0  0  0  0  0  0  0  0  0  0
    6.4048   -8.7200    0.0000 C   0  0  1  0  0  0  0  0  0  0  0  0
    4.9818   -9.5720    0.0000 C   0  0  1  0  0  0  0  0  0  0  0  0
    6.4054   -9.5543    0.0000 C   0  0  2  0  0  0  0  0  0  0  0  0
    7.0590   -8.3049    0.0000 O   0  0  0  0  0  0  0  0  0  0  0  0
    5.6874   -9.9860    0.0000 C   0  0  2  0  0  0  0  0  0  0  0  0
    4.2842   -9.9361    0.0000 C   0  0  0  0  0  0  0  0  0  0  0  0
    7.1110   -9.9684    0.0000 O   0  0  0  0  0  0  0  0  0  0  0  0
    5.6843  -10.7832    0.0000 O   0  0  0  0  0  0  0  0  0  0  0  0
    4.2784  -10.7611    0.0000 O   0  0  0  0  0  0  0  0  0  0  0  0
    9.4452  -11.3111    0.0000 C   0  0  0  0  0  0  0  0  0  0  0  0
   10.8116   -9.5770    0.0000 C   0  0  0  0  0  0  0  0  0  0  0  0
    8.6334  -10.8424    0.0000 O   0  0  0  0  0  0  0  0  0  0  0  0
   10.0591  -10.0115    0.0000 O   0  0  0  0  0  0  0  0  0  0  0  0
    8.6283  -10.0185    0.0000 C   0  0  0  0  0  0  0  0  0  0  0  0
    7.9121   -9.6090    0.0000 C   0  0  0  0  0  0  0  0  0  0  0  0
    9.3429   -9.6020    0.0000 C   0  0  0  0  0  0  0  0  0  0  0  0
    7.9078   -8.7824    0.0000 C   0  0  0  0  0  0  0  0  0  0  0  0
    9.3359   -8.7747    0.0000 C   0  0  0  0  0  0  0  0  0  0  0  0
    8.6216   -8.3686    0.0000 C   0  0  0  0  0  0  0  0  0  0  0  0
 32 30  1  0  0  0  0
 33 31  1  0  0  0  0
 34 32  1  0  0  0  0
 35 34  2  0  0  0  0
 36 33  1  0  0  0  0
 36 34  1  0  0  0  0
 37 35  1  0  0  0  0
 38 36  2  0  0  0  0
 39 37  2  0  0  0  0
 39 38  1  0  0  0  0
  1  2  1  0  0  0  0
  1  3  1  6  0  0  0
  1  4  1  0  0  0  0
  2  5  1  1  0  0  0
  2  6  1  0  0  0  0
  2  7  1  6  0  0  0
  3 39  1  0  0  0  0
  4  8  1  0  0  0  0
  5  9  1  0  0  0  0
  6 10  2  0  0  0  0
  6  8  1  0  0  0  0
  9 11  1  0  0  0  0
  9 12  2  0  0  0  0
 11 13  2  0  0  0  0
 12 14  1  0  0  0  0
 13 15  1  0  0  0  0
 13 16  1  0  0  0  0
 14 15  2  0  0  0  0
 15 17  1  0  0  0  0
 16 18  1  0  0  0  0
 19 17  1  1  0  0  0
 19 20  1  0  0  0  0
 19 21  1  0  0  0  0
 20 22  1  0  0  0  0
 21 23  1  0  0  0  0
 21 24  1  6  0  0  0
 22 25  1  0  0  0  0
 22 26  1  1  0  0  0
 23 27  1  1  0  0  0
 23 25  1  0  0  0  0
 25 28  1  6  0  0  0
 26 29  1  0  0  0  0
M  END
>  <cdx:fragmentId>
11053

$$$$
