16958.cdx
  Mrv1902 05222410212D          

 67 74  0  0  0  0            999 V2000
    6.2320   -6.8956    0.0000 C   0  0  0  0  0  0  0  0  0  0  0  0
    6.2320   -7.7206    0.0000 C   0  0  1  0  0  0  0  0  0  0  0  0
    6.9465   -8.1331    0.0000 C   0  0  2  0  0  0  0  0  0  0  0  0
    7.6610   -7.7206    0.0000 C   0  0  0  0  0  0  0  0  0  0  0  0
    7.6610   -6.8956    0.0000 C   0  0  2  0  0  0  0  0  0  0  0  0
    6.9465   -6.4831    0.0000 C   0  0  0  0  0  0  0  0  0  0  0  0
    8.3754   -8.1331    0.0000 C   0  0  0  0  0  0  0  0  0  0  0  0
    9.0899   -7.7206    0.0000 C   0  0  0  0  0  0  0  0  0  0  0  0
    9.0899   -6.8956    0.0000 C   0  0  2  0  0  0  0  0  0  0  0  0
    8.3754   -6.4831    0.0000 C   0  0  0  0  0  0  0  0  0  0  0  0
    9.8044   -6.4831    0.0000 C   0  0  1  0  0  0  0  0  0  0  0  0
    9.8044   -5.6581    0.0000 C   0  0  0  0  0  0  0  0  0  0  0  0
    9.0899   -5.2456    0.0000 C   0  0  0  0  0  0  0  0  0  0  0  0
    8.3754   -5.6581    0.0000 C   0  0  0  0  0  0  0  0  0  0  0  0
   10.5189   -6.8956    0.0000 C   0  0  0  0  0  0  0  0  0  0  0  0
   11.2333   -6.4831    0.0000 C   0  0  0  0  0  0  0  0  0  0  0  0
   11.2333   -5.6581    0.0000 C   0  0  2  0  0  0  0  0  0  0  0  0
   10.5189   -5.2456    0.0000 C   0  0  0  0  0  0  0  0  0  0  0  0
   11.9478   -5.2456    0.0000 C   0  0  0  0  0  0  0  0  0  0  0  0
   11.9478   -4.4206    0.0000 C   0  0  2  0  0  0  0  0  0  0  0  0
   11.2333   -4.0081    0.0000 C   0  0  1  0  0  0  0  0  0  0  0  0
   10.5189   -4.4206    0.0000 C   0  0  0  0  0  0  0  0  0  0  0  0
    6.5340   -8.8476    0.0000 C   0  0  0  0  0  0  0  0  0  0  0  0
    7.3590   -8.8476    0.0000 C   0  0  0  0  0  0  0  0  0  0  0  0
   11.6458   -3.2937    0.0000 C   0  0  0  0  0  0  0  0  0  0  0  0
    5.5176   -8.1331    0.0000 O   0  0  0  0  0  0  0  0  0  0  0  0
    7.6610   -6.0706    0.0000 C   0  0  0  0  0  0  0  0  0  0  0  0
    9.0899   -6.0706    0.0000 C   0  0  0  0  0  0  0  0  0  0  0  0
   11.9478   -6.0706    0.0000 C   0  0  0  0  0  0  0  0  0  0  0  0
   10.8208   -3.2937    0.0000 C   0  0  0  0  0  0  0  0  0  0  0  0
    9.8044   -7.3081    0.0000 C   0  0  0  0  0  0  0  0  0  0  0  0
    4.8031   -7.7206    0.0000 C   0  0  2  0  0  0  0  0  0  0  0  0
    4.8031   -6.8956    0.0000 O   0  0  0  0  0  0  0  0  0  0  0  0
    4.0886   -6.4831    0.0000 C   0  0  1  0  0  0  0  0  0  0  0  0
    3.3741   -6.8956    0.0000 C   0  0  2  0  0  0  0  0  0  0  0  0
    3.3741   -7.7206    0.0000 C   0  0  1  0  0  0  0  0  0  0  0  0
    4.0886   -8.1331    0.0000 C   0  0  1  0  0  0  0  0  0  0  0  0
    4.0886   -5.6581    0.0000 C   0  0  0  0  0  0  0  0  0  0  0  0
    2.6597   -8.1331    0.0000 O   0  0  0  0  0  0  0  0  0  0  0  0
    2.6597   -6.4831    0.0000 O   0  0  0  0  0  0  0  0  0  0  0  0
    4.0886   -8.9581    0.0000 O   0  0  0  0  0  0  0  0  0  0  0  0
    3.3741   -5.2456    0.0000 O   0  0  0  0  0  0  0  0  0  0  0  0
    3.3741   -9.3706    0.0000 C   0  0  2  0  0  0  0  0  0  0  0  0
    2.6597   -8.9581    0.0000 O   0  0  0  0  0  0  0  0  0  0  0  0
    1.9452   -9.3706    0.0000 C   0  0  1  0  0  0  0  0  0  0  0  0
    1.9452  -10.1956    0.0000 C   0  0  2  0  0  0  0  0  0  0  0  0
    2.6597  -10.6081    0.0000 C   0  0  1  0  0  0  0  0  0  0  0  0
    3.3741  -10.1956    0.0000 C   0  0  1  0  0  0  0  0  0  0  0  0
    2.6597  -11.4331    0.0000 O   0  0  0  0  0  0  0  0  0  0  0  0
    1.2307  -10.6081    0.0000 O   0  0  0  0  0  0  0  0  0  0  0  0
    4.0886  -10.6081    0.0000 O   0  0  0  0  0  0  0  0  0  0  0  0
    4.0886  -11.4331    0.0000 C   0  0  1  0  0  0  0  0  0  0  0  0
    3.3741  -11.8456    0.0000 O   0  0  0  0  0  0  0  0  0  0  0  0
    3.3741  -12.6706    0.0000 C   0  0  2  0  0  0  0  0  0  0  0  0
    4.0886  -13.0831    0.0000 C   0  0  1  0  0  0  0  0  0  0  0  0
    4.8031  -12.6706    0.0000 C   0  0  2  0  0  0  0  0  0  0  0  0
    4.8031  -11.8456    0.0000 C   0  0  1  0  0  0  0  0  0  0  0  0
    4.0886  -13.9081    0.0000 O   0  0  0  0  0  0  0  0  0  0  0  0
    5.5176  -11.4331    0.0000 O   0  0  0  0  0  0  0  0  0  0  0  0
    5.5176  -13.0831    0.0000 O   0  0  0  0  0  0  0  0  0  0  0  0
    2.6597  -13.0831    0.0000 C   0  0  0  0  0  0  0  0  0  0  0  0
    1.2307   -8.9581    0.0000 C   0  0  0  0  0  0  0  0  0  0  0  0
    0.5163   -9.3706    0.0000 O   0  0  0  0  0  0  0  0  0  0  0  0
    6.9465   -9.5621    0.0000 O   0  0  0  0  0  0  0  0  0  0  0  0
    4.8031   -5.2456    0.0000 O   0  0  0  0  0  0  0  0  0  0  0  0
    1.2307   -8.1331    0.0000 O   0  0  0  0  0  0  0  0  0  0  0  0
   12.6623   -4.0081    0.0000 O   0  0  0  0  0  0  0  0  0  0  0  0
  1  2  1  0  0  0  0
  2  3  1  0  0  0  0
  3  4  1  0  0  0  0
  4  5  1  0  0  0  0
  5  6  1  0  0  0  0
  6  1  1  0  0  0  0
  4  7  1  0  0  0  0
  7  8  1  0  0  0  0
  8  9  1  0  0  0  0
  9 10  1  0  0  0  0
 10  5  1  0  0  0  0
  9 11  1  0  0  0  0
 11 12  1  0  0  0  0
 12 13  2  0  0  0  0
 13 14  1  0  0  0  0
 14 10  1  0  0  0  0
 11 15  1  0  0  0  0
 15 16  1  0  0  0  0
 16 17  1  0  0  0  0
 17 18  1  0  0  0  0
 18 12  1  0  0  0  0
 17 19  1  0  0  0  0
 19 20  1  0  0  0  0
 20 21  1  0  0  0  0
 21 22  1  0  0  0  0
 22 18  1  0  0  0  0
  3 23  1  6  0  0  0
  3 24  1  1  0  0  0
 21 25  1  1  0  0  0
  2 26  1  1  0  0  0
  5 27  1  1  0  0  0
  9 28  1  1  0  0  0
 17 29  1  1  0  0  0
 21 30  1  6  0  0  0
 11 31  1  6  0  0  0
 32 26  1  1  0  0  0
 32 33  1  0  0  0  0
 33 34  1  0  0  0  0
 34 35  1  0  0  0  0
 35 36  1  0  0  0  0
 36 37  1  0  0  0  0
 37 32  1  0  0  0  0
 34 38  1  1  0  0  0
 36 39  1  1  0  0  0
 35 40  1  6  0  0  0
 37 41  1  6  0  0  0
 38 42  1  0  0  0  0
 43 41  1  1  0  0  0
 43 44  1  0  0  0  0
 44 45  1  0  0  0  0
 45 46  1  0  0  0  0
 46 47  1  0  0  0  0
 47 48  1  0  0  0  0
 48 43  1  0  0  0  0
 47 49  1  1  0  0  0
 46 50  1  6  0  0  0
 48 51  1  6  0  0  0
 52 51  1  6  0  0  0
 52 53  1  0  0  0  0
 53 54  1  0  0  0  0
 54 55  1  0  0  0  0
 55 56  1  0  0  0  0
 56 57  1  0  0  0  0
 57 52  1  0  0  0  0
 55 58  1  1  0  0  0
 57 59  1  6  0  0  0
 56 60  1  6  0  0  0
 54 61  1  6  0  0  0
 45 62  1  1  0  0  0
 62 63  1  0  0  0  0
 24 64  1  0  0  0  0
 38 65  2  0  0  0  0
 62 66  2  0  0  0  0
 20 67  1  6  0  0  0
M  END
>  <cdx:fragmentId>
4934

$$$$
