102169551.cdx
  Mrv1902 05222410192D          

 26 27  0  0  0  0            999 V2000
    6.8863  -14.8329    0.0000 C   0  0  0  0  0  0  0  0  0  0  0  0
    6.1718  -15.2454    0.0000 C   0  0  0  0  0  0  0  0  0  0  0  0
    5.4573  -14.8329    0.0000 C   0  0  0  0  0  0  0  0  0  0  0  0
    6.8863  -14.0079    0.0000 O   0  0  0  0  0  0  0  0  0  0  0  0
    7.6007  -15.2454    0.0000 N   0  0  0  0  0  0  0  0  0  0  0  0
    4.7429  -15.2454    0.0000 C   0  0  0  0  0  0  0  0  0  0  0  0
    4.0284  -14.8329    0.0000 C   0  0  0  0  0  0  0  0  0  0  0  0
    3.3139  -15.2454    0.0000 C   0  0  0  0  0  0  0  0  0  0  0  0
    3.3139  -16.0704    0.0000 C   0  0  0  0  0  0  0  0  0  0  0  0
    4.0284  -16.4829    0.0000 C   0  0  0  0  0  0  0  0  0  0  0  0
    4.7429  -16.0704    0.0000 C   0  0  0  0  0  0  0  0  0  0  0  0
    2.5994  -14.8329    0.0000 O   0  0  0  0  0  0  0  0  0  0  0  0
    1.8850  -15.2454    0.0000 C   0  0  0  0  0  0  0  0  0  0  0  0
    2.5994  -16.4829    0.0000 O   0  0  0  0  0  0  0  0  0  0  0  0
    8.3152  -14.8329    0.0000 C   0  0  0  0  0  0  0  0  0  0  0  0
    9.0297  -15.2454    0.0000 C   0  0  2  0  0  0  0  0  0  0  0  0
    9.7441  -14.8329    0.0000 C   0  0  0  0  0  0  0  0  0  0  0  0
   10.4586  -15.2454    0.0000 C   0  0  0  0  0  0  0  0  0  0  0  0
   11.1731  -14.8329    0.0000 C   0  0  0  0  0  0  0  0  0  0  0  0
   11.1731  -14.0079    0.0000 C   0  0  0  0  0  0  0  0  0  0  0  0
   10.4586  -13.5954    0.0000 C   0  0  0  0  0  0  0  0  0  0  0  0
    9.7441  -14.0079    0.0000 C   0  0  0  0  0  0  0  0  0  0  0  0
   11.8876  -15.2454    0.0000 O   0  0  0  0  0  0  0  0  0  0  0  0
   12.6020  -14.8329    0.0000 C   0  0  0  0  0  0  0  0  0  0  0  0
   11.8876  -13.5954    0.0000 O   0  0  0  0  0  0  0  0  0  0  0  0
    9.0297  -16.0704    0.0000 O   0  0  0  0  0  0  0  0  0  0  0  0
  1  2  1  0  0  0  0
  2  3  2  0  0  0  0
  1  4  2  0  0  0  0
  1  5  1  0  0  0  0
  6  7  1  0  0  0  0
  7  8  2  0  0  0  0
  8  9  1  0  0  0  0
  9 10  2  0  0  0  0
 10 11  1  0  0  0  0
  6 11  2  0  0  0  0
 12 13  1  0  0  0  0
  8 12  1  0  0  0  0
  9 14  1  0  0  0  0
  3  6  1  0  0  0  0
 15 16  1  0  0  0  0
 17 18  1  0  0  0  0
 18 19  2  0  0  0  0
 19 20  1  0  0  0  0
 20 21  2  0  0  0  0
 21 22  1  0  0  0  0
 17 22  2  0  0  0  0
 23 24  1  0  0  0  0
 19 23  1  0  0  0  0
 20 25  1  0  0  0  0
 16 17  1  0  0  0  0
 16 26  1  6  0  0  0
  5 15  1  0  0  0  0
M  END
>  <cdx:groupId>
22593

>  <cdx:fragmentId>
22527

$$$$
