16968.cdx
  Mrv1902 05222410262D          

 28 32  0  0  0  0            999 V2000
    3.2620   -8.2500    0.0000 C   0  0  0  0  0  0  0  0  0  0  0  0
    3.2620   -9.0750    0.0000 C   0  0  0  0  0  0  0  0  0  0  0  0
    3.9765   -9.4875    0.0000 C   0  0  0  0  0  0  0  0  0  0  0  0
    4.6910   -9.0750    0.0000 C   0  0  0  0  0  0  0  0  0  0  0  0
    4.6910   -8.2500    0.0000 C   0  0  0  0  0  0  0  0  0  0  0  0
    3.9765   -7.8375    0.0000 C   0  0  0  0  0  0  0  0  0  0  0  0
    5.4756   -9.3299    0.0000 C   0  0  0  0  0  0  0  0  0  0  0  0
    5.9605   -8.6625    0.0000 O   0  0  0  0  0  0  0  0  0  0  0  0
    5.4756   -7.9951    0.0000 C   0  0  0  0  0  0  0  0  0  0  0  0
    5.4756   -7.1701    0.0000 C   0  0  0  0  0  0  0  0  0  0  0  0
    7.6552   -8.2294    0.0000 C   0  0  0  0  0  0  0  0  0  0  0  0
    7.6552   -9.0544    0.0000 C   0  0  0  0  0  0  0  0  0  0  0  0
    8.3696   -9.4669    0.0000 C   0  0  0  0  0  0  0  0  0  0  0  0
    9.0841   -9.0544    0.0000 C   0  0  0  0  0  0  0  0  0  0  0  0
    9.0841   -8.2294    0.0000 C   0  0  0  0  0  0  0  0  0  0  0  0
    8.3696   -7.8169    0.0000 C   0  0  0  0  0  0  0  0  0  0  0  0
    6.8705   -7.9744    0.0000 C   0  0  0  0  0  0  0  0  0  0  0  0
    6.3856   -8.6419    0.0000 O   0  0  0  0  0  0  0  0  0  0  0  0
    6.8705   -9.3093    0.0000 C   0  0  0  0  0  0  0  0  0  0  0  0
    6.8705   -7.1494    0.0000 C   0  0  0  0  0  0  0  0  0  0  0  0
    5.6891  -10.1268    0.0000 O   0  0  0  0  0  0  0  0  0  0  0  0
    6.6570  -10.1062    0.0000 O   0  0  0  0  0  0  0  0  0  0  0  0
    5.8881   -6.4556    0.0000 C   0  0  0  0  0  0  0  0  0  0  0  0
    6.4580   -6.4350    0.0000 C   0  0  0  0  0  0  0  0  0  0  0  0
    5.4756   -5.7411    0.0000 C   0  0  0  0  0  0  0  0  0  0  0  0
    6.8705   -5.7205    0.0000 C   0  0  0  0  0  0  0  0  0  0  0  0
    5.6891   -4.9442    0.0000 C   0  0  0  0  0  0  0  0  0  0  0  0
    6.6570   -4.9236    0.0000 C   0  0  0  0  0  0  0  0  0  0  0  0
  1  2  1  0  0  0  0
  2  3  2  0  0  0  0
  3  4  1  0  0  0  0
  4  5  2  0  0  0  0
  5  6  1  0  0  0  0
  6  1  1  0  0  0  0
  4  7  1  0  0  0  0
  7  8  1  0  0  0  0
  8  9  1  0  0  0  0
  9  5  1  0  0  0  0
  9 10  1  0  0  0  0
 11 12  2  0  0  0  0
 12 13  1  0  0  0  0
 13 14  2  0  0  0  0
 14 15  1  0  0  0  0
 15 16  1  0  0  0  0
 16 11  1  0  0  0  0
 11 17  1  0  0  0  0
 17 18  1  0  0  0  0
 18 19  1  0  0  0  0
 19 12  1  0  0  0  0
  9 17  1  0  0  0  0
 17 20  1  0  0  0  0
 10 20  1  0  0  0  0
  7 21  2  0  0  0  0
 19 22  2  0  0  0  0
 10 23  1  0  0  0  0
 20 24  1  0  0  0  0
 23 25  1  0  0  0  0
 24 26  1  0  0  0  0
 25 27  1  0  0  0  0
 26 28  1  0  0  0  0
M  END
>  <cdx:fragmentId>
5

$$$$
