(Z,E)-alpha-Farnesene.cdx
  Mrv1902 05222410222D          

 15 14  0  0  0  0            999 V2000
    2.9452   -7.5075    0.0000 C   0  0  0  0  0  0  0  0  0  0  0  0
    3.6597   -7.9200    0.0000 C   0  0  0  0  0  0  0  0  0  0  0  0
    4.3742   -7.5075    0.0000 C   0  0  0  0  0  0  0  0  0  0  0  0
    5.0887   -7.9200    0.0000 C   0  0  0  0  0  0  0  0  0  0  0  0
    5.8031   -7.5075    0.0000 C   0  0  0  0  0  0  0  0  0  0  0  0
    6.5176   -7.9200    0.0000 C   0  0  0  0  0  0  0  0  0  0  0  0
    7.2321   -7.5075    0.0000 C   0  0  0  0  0  0  0  0  0  0  0  0
    7.9465   -7.9200    0.0000 C   0  0  0  0  0  0  0  0  0  0  0  0
    8.6610   -7.5075    0.0000 C   0  0  0  0  0  0  0  0  0  0  0  0
    9.3755   -7.9200    0.0000 C   0  0  0  0  0  0  0  0  0  0  0  0
   10.0900   -7.5075    0.0000 C   0  0  0  0  0  0  0  0  0  0  0  0
    3.6597   -8.7450    0.0000 C   0  0  0  0  0  0  0  0  0  0  0  0
    6.5176   -8.7450    0.0000 C   0  0  0  0  0  0  0  0  0  0  0  0
    9.3755   -8.7450    0.0000 C   0  0  0  0  0  0  0  0  0  0  0  0
   10.0900   -9.1575    0.0000 C   0  0  0  0  0  0  0  0  0  0  0  0
  2  1  1  0  0  0  0
  3  2  2  0  0  0  0
  4  3  1  0  0  0  0
  5  4  1  0  0  0  0
  6  5  1  0  0  0  0
  7  6  2  0  0  0  0
  8  7  1  0  0  0  0
  9  8  1  0  0  0  0
 10  9  2  0  0  0  0
 11 10  1  0  0  0  0
  2 12  1  0  0  0  0
  6 13  1  0  0  0  0
 10 14  1  0  0  0  0
 14 15  2  0  0  0  0
M  END
>  <cdx:fragmentId>
3

$$$$
