16981.cdx
  Mrv1902 05222410242D          

 15 17  0  0  0  0            999 V2000
    7.0985   -3.9423    0.0000 O   0  0  0  0  0  0  0  0  0  0  0  0
    7.5994   -7.3115    0.0000 C   0  0  0  0  0  0  0  0  0  0  0  0
    6.8850   -6.8990    0.0000 C   0  0  0  0  0  0  0  0  0  0  0  0
    4.6714   -4.1691    0.0000 O   0  0  0  0  0  0  0  0  0  0  0  0
    6.8850   -6.0740    0.0000 C   0  0  0  0  0  0  0  0  0  0  0  0
    7.3699   -5.4066    0.0000 O   0  0  0  0  0  0  0  0  0  0  0  0
    6.8850   -4.7392    0.0000 C   0  0  0  0  0  0  0  0  0  0  0  0
    5.3859   -6.2316    0.0000 C   0  0  0  0  0  0  0  0  0  0  0  0
    6.1003   -5.8191    0.0000 C   0  0  0  0  0  0  0  0  0  0  0  0
    6.1003   -4.9941    0.0000 C   0  0  0  0  0  0  0  0  0  0  0  0
    5.3859   -4.5816    0.0000 C   0  0  0  0  0  0  0  0  0  0  0  0
    4.6714   -4.9941    0.0000 C   0  0  0  0  0  0  0  0  0  0  0  0
    4.6714   -5.8191    0.0000 C   0  0  0  0  0  0  0  0  0  0  0  0
    7.5994   -8.1365    0.0000 C   0  0  0  0  0  0  0  0  0  0  0  0
    8.3139   -8.5490    0.0000 C   0  0  0  0  0  0  0  0  0  0  0  0
  7  1  2  0  0  0  0
  3  2  1  0  0  0  0
  5  3  2  0  0  0  0
 11  4  1  0  0  0  0
 12  4  1  0  0  0  0
  5  9  1  0  0  0  0
  6  5  1  0  0  0  0
  7  6  1  0  0  0  0
 10  7  1  0  0  0  0
  8 13  1  0  0  0  0
  9  8  1  0  0  0  0
 10  9  2  0  0  0  0
 11 10  1  0  0  0  0
 12 11  1  0  0  0  0
 13 12  1  0  0  0  0
  2 14  1  0  0  0  0
 14 15  1  0  0  0  0
M  END
>  <cdx:fragmentId>
5

$$$$
