1698.cdx
  Mrv1902 05222410262D          

 43 45  0  0  0  0            999 V2000
   11.9442   -7.6521    0.0000 C   0  0  2  0  0  0  0  0  0  0  0  0
   11.4441   -7.9409    0.0000 C   0  0  0  0  0  0  0  0  0  0  0  0
   10.9439   -7.6521    0.0000 C   0  0  0  0  0  0  0  0  0  0  0  0
   10.4438   -7.9409    0.0000 C   0  0  0  0  0  0  0  0  0  0  0  0
    9.9437   -7.6521    0.0000 C   0  0  0  0  0  0  0  0  0  0  0  0
    9.4436   -7.9409    0.0000 C   0  0  0  0  0  0  0  0  0  0  0  0
    8.9434   -7.6521    0.0000 C   0  0  0  0  0  0  0  0  0  0  0  0
    8.4433   -7.9409    0.0000 C   0  0  0  0  0  0  0  0  0  0  0  0
    7.9432   -7.6521    0.0000 C   0  0  0  0  0  0  0  0  0  0  0  0
    7.4430   -7.9409    0.0000 C   0  0  0  0  0  0  0  0  0  0  0  0
    6.9429   -7.6521    0.0000 C   0  0  0  0  0  0  0  0  0  0  0  0
    6.4428   -7.9409    0.0000 C   0  0  0  0  0  0  0  0  0  0  0  0
    5.9426   -7.6521    0.0000 C   0  0  0  0  0  0  0  0  0  0  0  0
    5.4425   -7.9409    0.0000 C   0  0  0  0  0  0  0  0  0  0  0  0
    4.9424   -7.6521    0.0000 C   0  0  0  0  0  0  0  0  0  0  0  0
    4.4423   -7.9409    0.0000 C   0  0  0  0  0  0  0  0  0  0  0  0
    3.9421   -7.6521    0.0000 C   0  0  0  0  0  0  0  0  0  0  0  0
    3.4420   -7.9409    0.0000 C   0  0  0  0  0  0  0  0  0  0  0  0
    2.9419   -7.6521    0.0000 C   0  0  0  0  0  0  0  0  0  0  0  0
    2.4417   -7.9409    0.0000 C   0  0  2  0  0  0  0  0  0  0  0  0
    1.9416   -7.6521    0.0000 C   0  0  2  0  0  0  0  0  0  0  0  0
    1.4415   -7.9409    0.0000 C   0  0  0  0  0  0  0  0  0  0  0  0
    1.4415   -8.5184    0.0000 C   0  0  1  0  0  0  0  0  0  0  0  0
    1.9416   -8.8071    0.0000 C   0  0  0  0  0  0  0  0  0  0  0  0
    2.4417   -8.5184    0.0000 C   0  0  1  0  0  0  0  0  0  0  0  0
   12.4443   -7.9409    0.0000 C   0  0  1  0  0  0  0  0  0  0  0  0
   12.9445   -7.6521    0.0000 C   0  0  0  0  0  0  0  0  0  0  0  0
   12.9445   -7.0746    0.0000 C   0  0  2  0  0  0  0  0  0  0  0  0
   12.4443   -6.7859    0.0000 C   0  0  0  0  0  0  0  0  0  0  0  0
   11.9442   -7.0746    0.0000 C   0  0  0  0  0  0  0  0  0  0  0  0
   11.4441   -6.7859    0.0000 C   0  0  0  0  0  0  0  0  0  0  0  0
   13.4446   -6.7859    0.0000 O   0  0  0  0  0  0  0  0  0  0  0  0
   12.7331   -8.4410    0.0000 C   0  0  0  0  0  0  0  0  0  0  0  0
   12.1556   -8.4410    0.0000 C   0  0  0  0  0  0  0  0  0  0  0  0
    2.9419   -8.2296    0.0000 O   0  0  0  0  0  0  0  0  0  0  0  0
    2.9419   -8.8071    0.0000 C   0  0  0  0  0  0  0  0  0  0  0  0
    0.9414   -8.8071    0.0000 O   0  0  0  0  0  0  0  0  0  0  0  0
    2.2304   -7.1520    0.0000 C   0  0  0  0  0  0  0  0  0  0  0  0
    1.6529   -7.1520    0.0000 C   0  0  0  0  0  0  0  0  0  0  0  0
    3.9421   -7.0746    0.0000 C   0  0  0  0  0  0  0  0  0  0  0  0
    5.9426   -7.0746    0.0000 C   0  0  0  0  0  0  0  0  0  0  0  0
   10.4438   -8.5184    0.0000 C   0  0  0  0  0  0  0  0  0  0  0  0
    8.4433   -8.5184    0.0000 C   0  0  0  0  0  0  0  0  0  0  0  0
  1  2  1  1  0  0  0
  2  3  2  0  0  0  0
  3  4  1  0  0  0  0
  4  5  2  0  0  0  0
  5  6  1  0  0  0  0
  6  7  2  0  0  0  0
  7  8  1  0  0  0  0
  8  9  2  0  0  0  0
  9 10  1  0  0  0  0
 10 11  2  0  0  0  0
 11 12  1  0  0  0  0
 12 13  2  0  0  0  0
 13 14  1  0  0  0  0
 14 15  2  0  0  0  0
 15 16  1  0  0  0  0
 16 17  2  0  0  0  0
 17 18  1  0  0  0  0
 18 19  2  0  0  0  0
 20 19  1  1  0  0  0
 20 21  1  0  0  0  0
 21 22  1  0  0  0  0
 22 23  1  0  0  0  0
 23 24  1  0  0  0  0
 24 25  1  0  0  0  0
 25 20  1  0  0  0  0
  1 26  1  0  0  0  0
 26 27  1  0  0  0  0
 27 28  1  0  0  0  0
 28 29  1  0  0  0  0
 29 30  2  0  0  0  0
 30  1  1  0  0  0  0
 30 31  1  0  0  0  0
 28 32  1  6  0  0  0
 26 33  1  1  0  0  0
 26 34  1  6  0  0  0
 20 35  1  6  0  0  0
 25 35  1  6  0  0  0
 25 36  1  1  0  0  0
 23 37  1  1  0  0  0
 21 38  1  6  0  0  0
 21 39  1  1  0  0  0
 17 40  1  0  0  0  0
 13 41  1  0  0  0  0
  4 42  1  0  0  0  0
  8 43  1  0  0  0  0
M  END
>  <cdx:fragmentId>
3

$$$$
