17000.cdx
  Mrv1902 05222410192D          

 10 10  0  0  0  0            999 V2000
    4.4503   -3.0213    0.0000 C   0  0  0  0  0  0  0  0  0  0  0  0
    4.4503   -2.1963    0.0000 C   0  0  0  0  0  0  0  0  0  0  0  0
    3.7359   -1.7838    0.0000 C   0  0  0  0  0  0  0  0  0  0  0  0
    3.0214   -2.1963    0.0000 C   0  0  0  0  0  0  0  0  0  0  0  0
    3.0214   -3.0213    0.0000 C   0  0  0  0  0  0  0  0  0  0  0  0
    3.7359   -3.4338    0.0000 C   0  0  0  0  0  0  0  0  0  0  0  0
    5.1648   -3.4338    0.0000 O   0  0  0  0  0  0  0  0  0  0  0  0
    3.7359   -4.2588    0.0000 C   0  0  0  0  0  0  0  0  0  0  0  0
    4.8628   -1.4818    0.0000 C   0  0  0  0  0  0  0  0  0  0  0  0
    5.2753   -2.1963    0.0000 C   0  0  0  0  0  0  0  0  0  0  0  0
  1  2  1  0  0  0  0
  2  3  1  0  0  0  0
  3  4  1  0  0  0  0
  4  5  1  0  0  0  0
  5  6  1  0  0  0  0
  1  6  1  0  0  0  0
  1  7  2  0  0  0  0
  6  8  1  0  0  0  0
  2  9  1  0  0  0  0
  2 10  1  0  0  0  0
M  END
>  <cdx:groupId>
32

>  <cdx:fragmentId>
5

$$$$
