170088.cdx
  Mrv1902 05222410212D          

 19 20  0  0  0  0            999 V2000
    7.8564   -9.3102    0.0000 C   0  0  0  0  0  0  0  0  0  0  0  0
    8.5641   -8.8861    0.0000 C   0  0  0  0  0  0  0  0  0  0  0  0
    8.5506   -8.0612    0.0000 C   0  0  0  0  0  0  0  0  0  0  0  0
    9.2582   -7.6371    0.0000 C   0  0  0  0  0  0  0  0  0  0  0  0
    9.9794   -8.0379    0.0000 C   0  0  0  0  0  0  0  0  0  0  0  0
    9.9928   -8.8628    0.0000 C   0  0  0  0  0  0  0  0  0  0  0  0
    9.2852   -9.2869    0.0000 C   0  0  0  0  0  0  0  0  0  0  0  0
    7.8699  -10.1351    0.0000 O   0  0  0  0  0  0  0  0  0  0  0  0
    7.1353   -8.9095    0.0000 O   0  0  0  0  0  0  0  0  0  0  0  0
    6.4277   -9.3336    0.0000 C   0  0  0  0  0  0  0  0  0  0  0  0
    5.7066   -8.9328    0.0000 C   0  0  0  0  0  0  0  0  0  0  0  0
    4.9989   -9.3569    0.0000 C   0  0  0  0  0  0  0  0  0  0  0  0
    5.0124  -10.1818    0.0000 C   0  0  0  0  0  0  0  0  0  0  0  0
    5.7335  -10.5826    0.0000 C   0  0  0  0  0  0  0  0  0  0  0  0
    6.4412  -10.1585    0.0000 C   0  0  0  0  0  0  0  0  0  0  0  0
    5.7470  -11.4075    0.0000 C   0  0  0  0  0  0  0  0  0  0  0  0
    5.6931   -8.1079    0.0000 C   0  0  0  0  0  0  0  0  0  0  0  0
    4.9720   -7.7071    0.0000 C   0  0  0  0  0  0  0  0  0  0  0  0
    6.4007   -7.6838    0.0000 C   0  0  0  0  0  0  0  0  0  0  0  0
  1  2  1  0  0  0  0
  2  3  1  0  0  0  0
  3  4  2  0  0  0  0
  4  5  1  0  0  0  0
  5  6  2  0  0  0  0
  6  7  1  0  0  0  0
  2  7  2  0  0  0  0
  1  8  2  0  0  0  0
  1  9  1  0  0  0  0
 10 11  1  0  0  0  0
 11 12  1  0  0  0  0
 12 13  1  0  0  0  0
 13 14  1  0  0  0  0
 14 15  1  0  0  0  0
 10 15  1  0  0  0  0
 14 16  1  0  0  0  0
 17 18  1  0  0  0  0
 17 19  1  0  0  0  0
 11 17  1  0  0  0  0
  9 10  1  0  0  0  0
M  END
>  <cdx:fragmentId>
11269

$$$$
