170114.cdx
  Mrv1902 05222410202D          

 13 13  0  0  0  0            999 V2000
   15.4688  -20.7425    0.0000 C   0  0  0  0  0  0  0  0  0  0  0  0
   15.4688  -22.3925    0.0000 C   0  0  0  0  0  0  0  0  0  0  0  0
   14.7543  -21.1550    0.0000 C   0  0  0  0  0  0  0  0  0  0  0  0
   16.1832  -21.1550    0.0000 C   0  0  0  0  0  0  0  0  0  0  0  0
   14.7543  -21.9800    0.0000 C   0  0  0  0  0  0  0  0  0  0  0  0
   16.1832  -21.9800    0.0000 C   0  0  0  0  0  0  0  0  0  0  0  0
   15.4688  -19.9175    0.0000 C   0  0  0  0  0  0  0  0  0  0  0  0
   16.8977  -22.3925    0.0000 O   0  0  0  0  0  0  0  0  0  0  0  0
   17.6122  -21.9800    0.0000 C   0  0  0  0  0  0  0  0  0  0  0  0
   14.0398  -22.3925    0.0000 O   0  0  0  0  0  0  0  0  0  0  0  0
   13.3253  -21.9800    0.0000 C   0  0  0  0  0  0  0  0  0  0  0  0
   14.0398  -20.7425    0.0000 O   0  0  0  0  0  0  0  0  0  0  0  0
   13.3253  -21.1550    0.0000 C   0  0  0  0  0  0  0  0  0  0  0  0
  1  3  1  0  0  0  0
  1  4  2  0  0  0  0
  3  5  2  0  0  0  0
  2  5  1  0  0  0  0
  2  6  2  0  0  0  0
  4  6  1  0  0  0  0
  1  7  1  0  0  0  0
  8  9  1  0  0  0  0
  6  8  1  0  0  0  0
 10 11  1  0  0  0  0
  5 10  1  0  0  0  0
 12 13  1  0  0  0  0
  3 12  1  0  0  0  0
M  END
>  <cdx:groupId>
11349

>  <cdx:fragmentId>
11315

$$$$
