17010.cdx
  Mrv1902 05222410192D          

 14 14  0  0  0  0            999 V2000
    3.8808   -7.4663    0.0000 C   0  0  0  0  0  0  0  0  0  0  0  0
    3.8808   -8.2912    0.0000 C   0  0  0  0  0  0  0  0  0  0  0  0
    4.5952   -8.7037    0.0000 C   0  0  0  0  0  0  0  0  0  0  0  0
    5.3097   -8.2912    0.0000 C   0  0  0  0  0  0  0  0  0  0  0  0
    5.3097   -7.4663    0.0000 C   0  0  0  0  0  0  0  0  0  0  0  0
    4.5952   -7.0537    0.0000 C   0  0  0  0  0  0  0  0  0  0  0  0
    3.1663   -8.7037    0.0000 O   0  0  0  0  0  0  0  0  0  0  0  0
    6.0242   -7.0537    0.0000 C   0  0  0  0  0  0  0  0  0  0  0  0
    6.7387   -7.4663    0.0000 C   0  0  0  0  0  0  0  0  0  0  0  0
    6.7606   -8.2910    0.0000 C   0  0  0  0  0  0  0  0  0  0  0  0
    7.4858   -8.6843    0.0000 O   0  0  0  0  0  0  0  0  0  0  0  0
    6.0573   -8.7223    0.0000 O   0  0  0  0  0  0  0  0  0  0  0  0
    3.1663   -7.0537    0.0000 O   0  0  0  0  0  0  0  0  0  0  0  0
    2.4518   -7.4663    0.0000 C   0  0  0  0  0  0  0  0  0  0  0  0
  1  2  2  0  0  0  0
  2  3  1  0  0  0  0
  3  4  2  0  0  0  0
  4  5  1  0  0  0  0
  5  6  2  0  0  0  0
  6  1  1  0  0  0  0
  2  7  1  0  0  0  0
  5  8  1  0  0  0  0
  8  9  2  0  0  0  0
  9 10  1  0  0  0  0
 10 11  1  0  0  0  0
 10 12  2  0  0  0  0
  1 13  1  0  0  0  0
 13 14  1  0  0  0  0
M  END
>  <cdx:fragmentId>
5

$$$$
