zingerone methyl ether.cdx
  Mrv1902 05222410182D          

 15 15  0  0  0  0            999 V2000
    3.7364   -6.0638    0.0000 C   0  0  0  0  0  0  0  0  0  0  0  0
    3.7364   -6.8888    0.0000 C   0  0  0  0  0  0  0  0  0  0  0  0
    4.4509   -7.3012    0.0000 C   0  0  0  0  0  0  0  0  0  0  0  0
    5.1653   -6.8888    0.0000 C   0  0  0  0  0  0  0  0  0  0  0  0
    5.1653   -6.0638    0.0000 C   0  0  0  0  0  0  0  0  0  0  0  0
    4.4509   -5.6512    0.0000 C   0  0  0  0  0  0  0  0  0  0  0  0
    3.0219   -7.3012    0.0000 O   0  0  0  0  0  0  0  0  0  0  0  0
    5.8798   -5.6512    0.0000 C   0  0  0  0  0  0  0  0  0  0  0  0
    6.5943   -6.0638    0.0000 C   0  0  0  0  0  0  0  0  0  0  0  0
    7.3088   -5.6512    0.0000 C   0  0  0  0  0  0  0  0  0  0  0  0
    8.0232   -6.0638    0.0000 C   0  0  0  0  0  0  0  0  0  0  0  0
    7.3088   -4.8263    0.0000 O   0  0  0  0  0  0  0  0  0  0  0  0
    2.3075   -6.8888    0.0000 C   0  0  0  0  0  0  0  0  0  0  0  0
    4.4509   -8.1263    0.0000 O   0  0  0  0  0  0  0  0  0  0  0  0
    5.1653   -8.5388    0.0000 C   0  0  0  0  0  0  0  0  0  0  0  0
  1  2  2  0  0  0  0
  2  3  1  0  0  0  0
  3  4  2  0  0  0  0
  4  5  1  0  0  0  0
  5  6  2  0  0  0  0
  6  1  1  0  0  0  0
  2  7  1  0  0  0  0
  5  8  1  0  0  0  0
  8  9  1  0  0  0  0
  9 10  1  0  0  0  0
 10 11  1  0  0  0  0
 10 12  2  0  0  0  0
  7 13  1  0  0  0  0
  3 14  1  0  0  0  0
 14 15  1  0  0  0  0
M  END
>  <cdx:fragmentId>
5

$$$$
