17014.cdx
  Mrv1902 05222410192D          

  6  6  0  0  0  0            999 V2000
    6.7014   -4.9762    0.0000 C   0  0  0  0  0  0  0  0  0  0  0  0
    5.8764   -4.9762    0.0000 C   0  0  0  0  0  0  0  0  0  0  0  0
    6.2889   -4.2617    0.0000 C   0  0  0  0  0  0  0  0  0  0  0  0
    7.4159   -5.3887    0.0000 C   0  0  0  0  0  0  0  0  0  0  0  0
    8.1303   -4.9762    0.0000 C   0  0  0  0  0  0  0  0  0  0  0  0
    8.8448   -5.3887    0.0000 C   0  0  0  0  0  0  0  0  0  0  0  0
  1  2  1  0  0  0  0
  2  3  1  0  0  0  0
  1  3  1  0  0  0  0
  4  5  1  0  0  0  0
  5  6  1  0  0  0  0
  1  4  1  0  0  0  0
M  END
>  <cdx:fragmentId>
5

$$$$
