170398.cdx
  Mrv1902 05222410192D          

 11 10  0  0  0  0            999 V2000
    5.6300   -7.2709    0.0000 C   0  0  0  0  0  0  0  0  0  0  0  0
    6.3444   -7.6834    0.0000 C   0  0  0  0  0  0  0  0  0  0  0  0
    7.0589   -7.2709    0.0000 C   0  0  0  0  0  0  0  0  0  0  0  0
    7.7734   -7.6834    0.0000 C   0  0  0  0  0  0  0  0  0  0  0  0
    8.4879   -7.2709    0.0000 C   0  0  0  0  0  0  0  0  0  0  0  0
    9.2023   -7.6834    0.0000 C   0  0  0  0  0  0  0  0  0  0  0  0
    9.9168   -7.2709    0.0000 C   0  0  0  0  0  0  0  0  0  0  0  0
    9.9168   -6.4459    0.0000 C   0  0  0  0  0  0  0  0  0  0  0  0
    4.9155   -7.6834    0.0000 O   0  0  0  0  0  0  0  0  0  0  0  0
   10.6313   -7.6834    0.0000 C   0  0  0  0  0  0  0  0  0  0  0  0
    7.0589   -6.4459    0.0000 C   0  0  0  0  0  0  0  0  0  0  0  0
  1  2  1  0  0  0  0
  2  3  2  0  0  0  0
  3  4  1  0  0  0  0
  4  5  1  0  0  0  0
  5  6  1  0  0  0  0
  6  7  1  0  0  0  0
  7  8  1  0  0  0  0
  1  9  1  0  0  0  0
  7 10  1  0  0  0  0
  3 11  1  0  0  0  0
M  END
>  <cdx:fragmentId>
32231

$$$$
