17031.cdx
  Mrv1902 05222410272D          

 28 32  0  0  0  0            999 V2000
    4.9665  -12.0639    0.0000 C   0  0  0  0  0  0  0  0  0  0  0  0
    5.3775  -12.7792    0.0000 C   0  0  0  0  0  0  0  0  0  0  0  0
    6.2025  -12.7810    0.0000 C   0  0  0  0  0  0  0  0  0  0  0  0
    6.6165  -12.0674    0.0000 C   0  0  0  0  0  0  0  0  0  0  0  0
    6.2055  -11.3520    0.0000 C   0  0  0  0  0  0  0  0  0  0  0  0
    5.3805  -11.3503    0.0000 C   0  0  0  0  0  0  0  0  0  0  0  0
    6.4621  -10.5680    0.0000 C   0  0  1  0  0  0  0  0  0  0  0  0
    5.7957  -10.0816    0.0000 O   0  0  0  0  0  0  0  0  0  0  0  0
    5.1273  -10.5680    0.0000 C   0  0  0  0  0  0  0  0  0  0  0  0
    4.3304  -10.3544    0.0000 O   0  0  0  0  0  0  0  0  0  0  0  0
    7.0741  -11.1213    0.0000 C   0  0  1  0  0  0  0  0  0  0  0  0
    7.8592  -10.8680    0.0000 C   0  0  0  0  0  0  0  0  0  0  0  0
    8.0325  -10.0614    0.0000 C   0  0  0  0  0  0  0  0  0  0  0  0
    7.4206   -9.5081    0.0000 C   0  0  2  0  0  0  0  0  0  0  0  0
    6.6354   -9.7614    0.0000 C   0  0  1  0  0  0  0  0  0  0  0  0
    6.0520   -9.1780    0.0000 C   0  0  0  0  0  0  0  0  0  0  0  0
    6.0520   -8.3530    0.0000 C   0  0  0  0  0  0  0  0  0  0  0  0
    5.3376   -7.9405    0.0000 C   0  0  0  0  0  0  0  0  0  0  0  0
    8.7478   -9.6505    0.0000 C   0  0  0  0  0  0  0  0  0  0  0  0
    8.5780   -8.8431    0.0000 O   0  0  0  0  0  0  0  0  0  0  0  0
    7.7577   -8.7551    0.0000 C   0  0  0  0  0  0  0  0  0  0  0  0
    7.1744   -8.1718    0.0000 C   0  0  0  0  0  0  0  0  0  0  0  0
    7.1744   -7.3468    0.0000 C   0  0  0  0  0  0  0  0  0  0  0  0
    6.3775   -7.1333    0.0000 C   0  0  0  0  0  0  0  0  0  0  0  0
    6.1640   -6.3364    0.0000 C   0  0  0  0  0  0  0  0  0  0  0  0
    9.5447   -9.8640    0.0000 O   0  0  0  0  0  0  0  0  0  0  0  0
    7.0400   -9.9275    0.0000 C   0  0  0  0  0  0  0  0  0  0  0  0
    6.9025  -10.5050    0.0000 C   0  0  0  0  0  0  0  0  0  0  0  0
  1  2  2  0  0  0  0
  2  3  1  0  0  0  0
  3  4  1  0  0  0  0
  4  5  1  0  0  0  0
  5  6  2  0  0  0  0
  6  1  1  0  0  0  0
  5  7  1  6  0  0  0
  7  8  1  1  0  0  0
  9  8  1  1  0  0  0
  9  6  1  0  0  0  0
  9 10  2  0  0  0  0
  7 11  1  0  0  0  0
 11 12  1  0  0  0  0
 12 13  1  0  0  0  0
 13 14  1  0  0  0  0
 14 15  1  0  0  0  0
 15  7  1  0  0  0  0
 15 16  1  6  0  0  0
 16 17  1  0  0  0  0
 17 18  1  0  0  0  0
 13 19  1  0  0  0  0
 19 20  1  0  0  0  0
 20 21  1  0  0  0  0
 21 14  1  0  0  0  0
 21 22  2  0  0  0  0
 22 23  1  0  0  0  0
 23 24  1  0  0  0  0
 24 25  1  0  0  0  0
 19 26  2  0  0  0  0
 14 27  1  1  0  0  0
 11 28  1  1  0  0  0
 27 28  1  1  0  0  0
M  END
>  <cdx:fragmentId>
5

$$$$
