170569.cdx
  Mrv1902 05222410272D          

 28 31  0  0  0  0            999 V2000
   15.7526  -19.9449    0.0000 C   0  0  0  0  0  0  0  0  0  0  0  0
   15.7526  -20.7699    0.0000 C   0  0  0  0  0  0  0  0  0  0  0  0
   15.0382  -21.1824    0.0000 C   0  0  0  0  0  0  0  0  0  0  0  0
   15.0382  -22.0074    0.0000 O   0  0  0  0  0  0  0  0  0  0  0  0
   14.3237  -20.7699    0.0000 C   0  0  0  0  0  0  0  0  0  0  0  0
   13.6092  -21.1824    0.0000 C   0  0  0  0  0  0  0  0  0  0  0  0
   12.8948  -20.7699    0.0000 C   0  0  0  0  0  0  0  0  0  0  0  0
   12.8948  -19.9449    0.0000 C   0  0  0  0  0  0  0  0  0  0  0  0
   13.6092  -19.5323    0.0000 C   0  0  0  0  0  0  0  0  0  0  0  0
   14.3237  -19.9449    0.0000 C   0  0  0  0  0  0  0  0  0  0  0  0
   15.0382  -19.5323    0.0000 O   0  0  0  0  0  0  0  0  0  0  0  0
   16.4671  -21.1824    0.0000 C   0  0  0  0  0  0  0  0  0  0  0  0
   17.1816  -20.7699    0.0000 C   0  0  0  0  0  0  0  0  0  0  0  0
   17.8960  -21.1824    0.0000 C   0  0  0  0  0  0  0  0  0  0  0  0
   17.8960  -22.0074    0.0000 C   0  0  0  0  0  0  0  0  0  0  0  0
   17.1816  -22.4199    0.0000 C   0  0  0  0  0  0  0  0  0  0  0  0
   16.4671  -22.0074    0.0000 C   0  0  0  0  0  0  0  0  0  0  0  0
   11.6252  -20.3574    0.0000 C   0  0  0  0  0  0  0  0  0  0  0  0
   12.1101  -21.0248    0.0000 O   0  0  0  0  0  0  0  0  0  0  0  0
   12.1101  -19.6899    0.0000 O   0  0  0  0  0  0  0  0  0  0  0  0
   17.1816  -23.2449    0.0000 O   0  0  0  0  0  0  0  0  0  0  0  0
   17.8960  -23.6574    0.0000 C   0  0  0  0  0  0  0  0  0  0  0  0
   18.6105  -22.4199    0.0000 O   0  0  0  0  0  0  0  0  0  0  0  0
   19.3250  -22.0074    0.0000 C   0  0  0  0  0  0  0  0  0  0  0  0
   18.6105  -20.7699    0.0000 O   0  0  0  0  0  0  0  0  0  0  0  0
   19.3250  -21.1824    0.0000 C   0  0  0  0  0  0  0  0  0  0  0  0
   13.6092  -22.0074    0.0000 O   0  0  0  0  0  0  0  0  0  0  0  0
   12.8948  -22.4199    0.0000 C   0  0  0  0  0  0  0  0  0  0  0  0
  1  2  2  0  0  0  0
  2  3  1  0  0  0  0
  3  4  2  0  0  0  0
  3  5  1  0  0  0  0
  5  6  1  0  0  0  0
  6  7  2  0  0  0  0
  7  8  1  0  0  0  0
  8  9  2  0  0  0  0
  9 10  1  0  0  0  0
  5 10  2  0  0  0  0
 10 11  1  0  0  0  0
  1 11  1  0  0  0  0
  2 12  1  0  0  0  0
 12 13  1  0  0  0  0
 13 14  2  0  0  0  0
 14 15  1  0  0  0  0
 15 16  2  0  0  0  0
 16 17  1  0  0  0  0
 12 17  2  0  0  0  0
 18 19  1  0  0  0  0
 18 20  1  0  0  0  0
  7 19  1  0  0  0  0
  8 20  1  0  0  0  0
 21 22  1  0  0  0  0
 16 21  1  0  0  0  0
 23 24  1  0  0  0  0
 15 23  1  0  0  0  0
 25 26  1  0  0  0  0
 14 25  1  0  0  0  0
 27 28  1  0  0  0  0
  6 27  1  0  0  0  0
M  END
>  <cdx:fragmentId>
11354

$$$$
