17068.cdx
  Mrv1902 05222410252D          

  7  6  0  0  0  0            999 V2000
    6.0046   -5.6444    0.0000 N   0  0  0  0  0  0  0  0  0  0  0  0
    6.7191   -6.0569    0.0000 C   0  0  0  0  0  0  0  0  0  0  0  0
    7.4336   -5.6444    0.0000 C   0  0  0  0  0  0  0  0  0  0  0  0
    8.1480   -6.0569    0.0000 O   0  0  0  0  0  0  0  0  0  0  0  0
    7.4336   -4.8194    0.0000 O   0  0  0  0  0  0  0  0  0  0  0  0
    6.7191   -6.8819    0.0000 C   0  0  0  0  0  0  0  0  0  0  0  0
    6.0046   -7.2944    0.0000 C   0  0  0  0  0  0  0  0  0  0  0  0
  1  2  1  0  0  0  0
  2  3  1  0  0  0  0
  3  4  1  0  0  0  0
  3  5  2  0  0  0  0
  2  6  1  0  0  0  0
  6  7  1  0  0  0  0
M  END
>  <cdx:fragmentId>
3

$$$$
