17090.cdx
  Mrv1902 05222410242D          

 10  9  0  0  0  0            999 V2000
    5.8679   -5.3154    0.0000 C   0  0  0  0  0  0  0  0  0  0  0  0
    8.7258   -5.3154    0.0000 C   0  0  0  0  0  0  0  0  0  0  0  0
    9.4403   -4.0779    0.0000 C   0  0  0  0  0  0  0  0  0  0  0  0
    8.7258   -4.4904    0.0000 C   0  0  0  0  0  0  0  0  0  0  0  0
    8.0113   -4.0779    0.0000 C   0  0  0  0  0  0  0  0  0  0  0  0
    7.2969   -4.4904    0.0000 C   0  0  0  0  0  0  0  0  0  0  0  0
    6.5824   -4.0779    0.0000 C   0  0  0  0  0  0  0  0  0  0  0  0
    5.8679   -4.4904    0.0000 C   0  0  0  0  0  0  0  0  0  0  0  0
    5.1534   -4.0779    0.0000 C   0  0  0  0  0  0  0  0  0  0  0  0
    4.4390   -4.4904    0.0000 C   0  0  0  0  0  0  0  0  0  0  0  0
  8  1  1  0  0  0  0
  4  2  1  0  0  0  0
  4  3  1  0  0  0  0
  5  4  2  0  0  0  0
  6  5  1  0  0  0  0
  7  6  1  0  0  0  0
  8  7  1  0  0  0  0
  9  8  1  0  0  0  0
 10  9  2  0  0  0  0
M  END
>  <cdx:fragmentId>
5

$$$$
