17106.cdx
  Mrv1902 05222410212D          

 11 11  0  0  0  0            999 V2000
    4.1002   -1.8433    0.0000 O   0  0  0  0  0  0  0  0  0  0  0  0
    4.8147   -2.2558    0.0000 C   0  0  0  0  0  0  0  0  0  0  0  0
    4.8147   -3.0808    0.0000 C   0  0  2  0  0  0  0  0  0  0  0  0
    4.1002   -3.4933    0.0000 C   0  0  1  0  0  0  0  0  0  0  0  0
    3.3858   -3.0808    0.0000 C   0  0  1  0  0  0  0  0  0  0  0  0
    3.3858   -2.2558    0.0000 C   0  0  2  0  0  0  0  0  0  0  0  0
    5.5292   -1.8433    0.0000 O   0  0  0  0  0  0  0  0  0  0  0  0
    5.5292   -3.4933    0.0000 O   0  0  0  0  0  0  0  0  0  0  0  0
    4.1002   -4.3183    0.0000 O   0  0  0  0  0  0  0  0  0  0  0  0
    2.6713   -3.4933    0.0000 O   0  0  0  0  0  0  0  0  0  0  0  0
    2.6713   -1.8433    0.0000 C   0  0  0  0  0  0  0  0  0  0  0  0
  1  2  1  0  0  0  0
  2  3  1  0  0  0  0
  3  4  1  0  0  0  0
  4  5  1  0  0  0  0
  5  6  1  0  0  0  0
  1  6  1  0  0  0  0
  2  7  1  0  0  0  0
  3  8  1  1  0  0  0
  4  9  1  6  0  0  0
  5 10  1  6  0  0  0
  6 11  1  6  0  0  0
M  END
>  <cdx:groupId>
68

>  <cdx:fragmentId>
38

$$$$
