17111.cdx
  Mrv1902 05222410212D          

 21 23  0  0  0  0            999 V2000
    4.7580   -7.8650    0.0000 C   0  0  0  0  0  0  0  0  0  0  0  0
    4.7580   -8.6900    0.0000 C   0  0  0  0  0  0  0  0  0  0  0  0
    5.4725   -9.1025    0.0000 C   0  0  0  0  0  0  0  0  0  0  0  0
    6.1870   -8.6900    0.0000 C   0  0  0  0  0  0  0  0  0  0  0  0
    6.1870   -7.8650    0.0000 C   0  0  0  0  0  0  0  0  0  0  0  0
    5.4725   -7.4525    0.0000 C   0  0  0  0  0  0  0  0  0  0  0  0
    6.9014   -9.1025    0.0000 C   0  0  0  0  0  0  0  0  0  0  0  0
    7.6159   -8.6900    0.0000 C   0  0  0  0  0  0  0  0  0  0  0  0
    7.6159   -7.8650    0.0000 C   0  0  0  0  0  0  0  0  0  0  0  0
    6.9014   -7.4525    0.0000 O   0  0  0  0  0  0  0  0  0  0  0  0
    8.3304   -7.4525    0.0000 C   0  0  0  0  0  0  0  0  0  0  0  0
    9.0449   -7.8650    0.0000 C   0  0  0  0  0  0  0  0  0  0  0  0
    9.7593   -7.4525    0.0000 C   0  0  0  0  0  0  0  0  0  0  0  0
    9.7593   -6.6275    0.0000 C   0  0  0  0  0  0  0  0  0  0  0  0
    9.0449   -6.2150    0.0000 C   0  0  0  0  0  0  0  0  0  0  0  0
    8.3304   -6.6275    0.0000 C   0  0  0  0  0  0  0  0  0  0  0  0
   10.4738   -6.2150    0.0000 O   0  0  0  0  0  0  0  0  0  0  0  0
   10.4738   -7.8650    0.0000 O   0  0  0  0  0  0  0  0  0  0  0  0
    8.3304   -9.1025    0.0000 O   0  0  0  0  0  0  0  0  0  0  0  0
    5.4725   -9.9275    0.0000 O   0  0  0  0  0  0  0  0  0  0  0  0
    4.0436   -7.4525    0.0000 O   0  0  0  0  0  0  0  0  0  0  0  0
  1  2  2  0  0  0  0
  2  3  1  0  0  0  0
  3  4  2  0  0  0  0
  4  5  1  0  0  0  0
  5  6  2  0  0  0  0
  6  1  1  0  0  0  0
  4  7  1  0  0  0  0
  7  8  1  0  0  0  0
  8  9  1  0  0  0  0
  9 10  1  0  0  0  0
 10  5  1  0  0  0  0
  9 11  1  0  0  0  0
 11 12  2  0  0  0  0
 12 13  1  0  0  0  0
 13 14  2  0  0  0  0
 14 15  1  0  0  0  0
 15 16  2  0  0  0  0
 16 11  1  0  0  0  0
 14 17  1  0  0  0  0
 13 18  1  0  0  0  0
  8 19  1  0  0  0  0
  3 20  1  0  0  0  0
  1 21  1  0  0  0  0
M  END
>  <cdx:fragmentId>
1114

$$$$
