17116.cdx
  Mrv1902 05222410222D          

 17 19  0  0  0  0            999 V2000
    6.1056   -8.4728    0.0000 C   0  0  0  0  0  0  0  0  0  0  0  0
    6.7509   -7.9588    0.0000 C   0  0  1  0  0  0  0  0  0  0  0  0
    6.7513   -7.1338    0.0000 C   0  0  2  0  0  0  0  0  0  0  0  0
    6.1065   -6.6191    0.0000 C   0  0  0  0  0  0  0  0  0  0  0  0
    5.3021   -6.8022    0.0000 C   0  0  0  0  0  0  0  0  0  0  0  0
    4.9438   -7.5454    0.0000 C   0  0  0  0  0  0  0  0  0  0  0  0
    5.3014   -8.2888    0.0000 C   0  0  2  0  0  0  0  0  0  0  0  0
    4.1240   -7.4526    0.0000 C   0  0  0  0  0  0  0  0  0  0  0  0
    5.8038   -9.2407    0.0000 C   0  0  0  0  0  0  0  0  0  0  0  0
    6.7692   -8.9631    0.0000 C   0  0  0  0  0  0  0  0  0  0  0  0
    7.5354   -8.2141    0.0000 C   0  0  0  0  0  0  0  0  0  0  0  0
    8.0206   -7.5469    0.0000 C   0  0  0  0  0  0  0  0  0  0  0  0
    7.5360   -6.8792    0.0000 C   0  0  1  0  0  0  0  0  0  0  0  0
    5.8887   -7.4161    0.0000 C   0  0  0  0  0  0  0  0  0  0  0  0
    4.6561   -8.8029    0.0000 H   0  0  0  0  0  0  0  0  0  0  0  0
    6.8734   -8.7746    0.0000 H   0  0  0  0  0  0  0  0  0  0  0  0
    7.8378   -6.1114    0.0000 C   0  0  0  0  0  0  0  0  0  0  0  0
  1  2  1  0  0  0  0
  2  3  1  0  0  0  0
  3  4  1  0  0  0  0
  4  5  1  0  0  0  0
  5  6  2  0  0  0  0
  6  7  1  0  0  0  0
  7  1  1  0  0  0  0
  6  8  1  0  0  0  0
  1  9  1  0  0  0  0
  1 10  1  0  0  0  0
  2 11  1  0  0  0  0
 11 12  1  0  0  0  0
 12 13  1  0  0  0  0
 13  3  1  0  0  0  0
  7 14  1  0  0  0  0
  3 14  1  1  0  0  0
  7 15  1  1  0  0  0
  2 16  1  6  0  0  0
 13 17  1  6  0  0  0
M  END
>  <cdx:fragmentId>
54

$$$$
