17123.cdx
  Mrv1902 05222410242D          

 10  9  0  0  0  0            999 V2000
    5.7566   -4.3656    0.0000 C   0  0  0  0  0  0  0  0  0  0  0  0
    6.4711   -4.7781    0.0000 C   0  0  0  0  0  0  0  0  0  0  0  0
    7.1855   -4.3656    0.0000 C   0  0  0  0  0  0  0  0  0  0  0  0
    7.9000   -4.7781    0.0000 C   0  0  0  0  0  0  0  0  0  0  0  0
    8.6145   -4.3656    0.0000 C   0  0  0  0  0  0  0  0  0  0  0  0
    9.3290   -4.7781    0.0000 C   0  0  0  0  0  0  0  0  0  0  0  0
   10.0434   -4.3656    0.0000 C   0  0  0  0  0  0  0  0  0  0  0  0
    6.4711   -5.6031    0.0000 C   0  0  0  0  0  0  0  0  0  0  0  0
    9.3290   -5.6031    0.0000 C   0  0  0  0  0  0  0  0  0  0  0  0
    5.7566   -6.0156    0.0000 C   0  0  0  0  0  0  0  0  0  0  0  0
  1  2  1  0  0  0  0
  2  3  2  0  0  0  0
  3  4  1  0  0  0  0
  4  5  1  0  0  0  0
  5  6  1  0  0  0  0
  6  7  1  0  0  0  0
  2  8  1  0  0  0  0
  6  9  2  0  0  0  0
  8 10  2  0  0  0  0
M  END
>  <cdx:fragmentId>
3

$$$$
