17121.cdx
  Mrv1902 05222410262D          

 12 11  0  0  0  0            999 V2000
    2.8437   -2.9622    0.0000 C   0  0  0  0  0  0  0  0  0  0  0  0
    2.1292   -3.3747    0.0000 C   0  0  0  0  0  0  0  0  0  0  0  0
    2.8437   -2.1372    0.0000 O   0  0  0  0  0  0  0  0  0  0  0  0
    3.5582   -3.3747    0.0000 O   0  0  0  0  0  0  0  0  0  0  0  0
    3.5582   -1.7247    0.0000 C   0  0  0  0  0  0  0  0  0  0  0  0
    4.2727   -2.1372    0.0000 C   0  0  0  0  0  0  0  0  0  0  0  0
    4.2727   -2.9622    0.0000 C   0  0  0  0  0  0  0  0  0  0  0  0
    4.9871   -3.3747    0.0000 C   0  0  0  0  0  0  0  0  0  0  0  0
    5.7016   -2.9622    0.0000 C   0  0  0  0  0  0  0  0  0  0  0  0
    6.4161   -3.3747    0.0000 C   0  0  0  0  0  0  0  0  0  0  0  0
    7.1305   -2.9622    0.0000 C   0  0  0  0  0  0  0  0  0  0  0  0
    7.8450   -3.3747    0.0000 C   0  0  0  0  0  0  0  0  0  0  0  0
  1  2  1  0  0  0  0
  1  3  2  0  0  0  0
  1  4  1  0  0  0  0
  5  6  2  0  0  0  0
  6  7  1  0  0  0  0
  7  8  1  0  0  0  0
  8  9  1  0  0  0  0
  9 10  1  0  0  0  0
 10 11  1  0  0  0  0
 11 12  1  0  0  0  0
  4  7  1  0  0  0  0
M  END
>  <cdx:groupId>
37

>  <cdx:fragmentId>
13

$$$$
