17129.cdx
  Mrv1902 05222410222D          

 12 11  0  0  0  0            999 V2000
    3.8395   -2.6202    0.0000 C   0  0  0  0  0  0  0  0  0  0  0  0
    3.1251   -3.0327    0.0000 C   0  0  0  0  0  0  0  0  0  0  0  0
    2.4106   -2.6202    0.0000 C   0  0  0  0  0  0  0  0  0  0  0  0
    1.6961   -3.0327    0.0000 C   0  0  0  0  0  0  0  0  0  0  0  0
    3.8395   -1.7952    0.0000 O   0  0  0  0  0  0  0  0  0  0  0  0
    4.5540   -3.0327    0.0000 O   0  0  0  0  0  0  0  0  0  0  0  0
    3.1251   -3.8577    0.0000 C   0  0  0  0  0  0  0  0  0  0  0  0
    5.2685   -2.6202    0.0000 C   0  0  0  0  0  0  0  0  0  0  0  0
    5.9829   -3.0327    0.0000 C   0  0  0  0  0  0  0  0  0  0  0  0
    6.6974   -2.6202    0.0000 C   0  0  0  0  0  0  0  0  0  0  0  0
    7.4119   -3.0327    0.0000 C   0  0  0  0  0  0  0  0  0  0  0  0
    5.9829   -3.8577    0.0000 C   0  0  0  0  0  0  0  0  0  0  0  0
  1  2  1  0  0  0  0
  2  3  1  0  0  0  0
  3  4  1  0  0  0  0
  1  5  2  0  0  0  0
  1  6  1  0  0  0  0
  2  7  1  0  0  0  0
  8  9  1  0  0  0  0
  9 10  1  0  0  0  0
 10 11  1  0  0  0  0
  9 12  1  0  0  0  0
  6  8  1  0  0  0  0
M  END
>  <cdx:groupId>
37

>  <cdx:fragmentId>
5

$$$$
