17132.cdx
  Mrv1902 05222410242D          

 13 13  0  0  0  0            999 V2000
   10.7053   -6.2079    0.0000 C   0  0  0  0  0  0  0  0  0  0  0  0
    9.9909   -6.6204    0.0000 C   0  0  0  0  0  0  0  0  0  0  0  0
    9.2764   -6.2079    0.0000 C   0  0  0  0  0  0  0  0  0  0  0  0
    8.5619   -6.6204    0.0000 C   0  0  0  0  0  0  0  0  0  0  0  0
    7.8475   -6.2079    0.0000 C   0  0  0  0  0  0  0  0  0  0  0  0
    7.1330   -6.6204    0.0000 C   0  0  0  0  0  0  0  0  0  0  0  0
    4.2751   -4.9704    0.0000 O   0  0  0  0  0  0  0  0  0  0  0  0
    5.7040   -4.9704    0.0000 C   0  0  0  0  0  0  0  0  0  0  0  0
    6.4185   -5.3829    0.0000 C   0  0  0  0  0  0  0  0  0  0  0  0
    6.4185   -6.2079    0.0000 C   0  0  0  0  0  0  0  0  0  0  0  0
    5.7040   -6.6204    0.0000 C   0  0  0  0  0  0  0  0  0  0  0  0
    4.9896   -6.2079    0.0000 C   0  0  0  0  0  0  0  0  0  0  0  0
    4.9896   -5.3829    0.0000 C   0  0  0  0  0  0  0  0  0  0  0  0
 10  6  1  0  0  0  0
  2  1  1  0  0  0  0
  3  2  1  0  0  0  0
  4  3  1  0  0  0  0
  5  4  1  0  0  0  0
  6  5  1  0  0  0  0
 13  7  1  0  0  0  0
 13  8  2  0  0  0  0
  9  8  1  0  0  0  0
 10  9  2  0  0  0  0
 11 10  1  0  0  0  0
 12 11  2  0  0  0  0
 13 12  1  0  0  0  0
M  END
>  <cdx:groupId>
41

>  <cdx:fragmentId>
5

$$$$
