171335.cdx
  Mrv1902 05222410182D          

 39 45  0  0  0  0            999 V2000
   12.1373  -17.4889    0.0000 C   0  0  0  0  0  0  0  0  0  0  0  0
   12.8518  -17.9014    0.0000 C   0  0  0  0  0  0  0  0  0  0  0  0
   12.8518  -18.7264    0.0000 C   0  0  0  0  0  0  0  0  0  0  0  0
   13.5662  -19.1389    0.0000 C   0  0  0  0  0  0  0  0  0  0  0  0
   14.2807  -18.7264    0.0000 C   0  0  0  0  0  0  0  0  0  0  0  0
   14.2807  -17.9014    0.0000 C   0  0  0  0  0  0  0  0  0  0  0  0
   13.5662  -17.4889    0.0000 C   0  0  0  0  0  0  0  0  0  0  0  0
   14.9952  -17.4889    0.0000 C   0  0  0  0  0  0  0  0  0  0  0  0
   14.9952  -16.6639    0.0000 C   0  0  0  0  0  0  0  0  0  0  0  0
   14.2807  -16.2514    0.0000 C   0  0  0  0  0  0  0  0  0  0  0  0
   13.5662  -16.6639    0.0000 C   0  0  0  0  0  0  0  0  0  0  0  0
   12.8518  -16.2514    0.0000 C   0  0  0  0  0  0  0  0  0  0  0  0
   12.8518  -15.4264    0.0000 C   0  0  0  0  0  0  0  0  0  0  0  0
   13.5662  -15.0139    0.0000 C   0  0  0  0  0  0  0  0  0  0  0  0
   14.2807  -15.4264    0.0000 C   0  0  0  0  0  0  0  0  0  0  0  0
   14.9952  -15.0139    0.0000 C   0  0  0  0  0  0  0  0  0  0  0  0
   14.9952  -14.1889    0.0000 O   0  0  0  0  0  0  0  0  0  0  0  0
   15.7096  -15.4264    0.0000 C   0  0  0  0  0  0  0  0  0  0  0  0
   16.4240  -15.0136    0.0000 C   0  0  0  0  0  0  0  0  0  0  0  0
   17.1384  -15.4262    0.0000 C   0  0  0  0  0  0  0  0  0  0  0  0
   17.1385  -16.2512    0.0000 C   0  0  0  0  0  0  0  0  0  0  0  0
   16.4242  -16.6639    0.0000 C   0  0  0  0  0  0  0  0  0  0  0  0
   15.7096  -16.2514    0.0000 C   0  0  0  0  0  0  0  0  0  0  0  0
   16.4242  -17.4889    0.0000 C   0  0  0  0  0  0  0  0  0  0  0  0
   15.7096  -17.9014    0.0000 C   0  0  0  0  0  0  0  0  0  0  0  0
   15.7096  -18.7264    0.0000 C   0  0  0  0  0  0  0  0  0  0  0  0
   16.4242  -19.1387    0.0000 C   0  0  0  0  0  0  0  0  0  0  0  0
   17.1387  -18.7261    0.0000 C   0  0  0  0  0  0  0  0  0  0  0  0
   17.1387  -17.9011    0.0000 C   0  0  0  0  0  0  0  0  0  0  0  0
   17.8532  -17.4886    0.0000 O   0  0  0  0  0  0  0  0  0  0  0  0
   16.4242  -19.9637    0.0000 O   0  0  0  0  0  0  0  0  0  0  0  0
   14.9952  -19.1389    0.0000 C   0  0  0  0  0  0  0  0  0  0  0  0
   14.9952  -19.9639    0.0000 O   0  0  0  0  0  0  0  0  0  0  0  0
   17.8530  -16.6637    0.0000 O   0  0  0  0  0  0  0  0  0  0  0  0
   16.4240  -14.1886    0.0000 O   0  0  0  0  0  0  0  0  0  0  0  0
   13.5662  -14.1889    0.0000 O   0  0  0  0  0  0  0  0  0  0  0  0
   12.1373  -16.6639    0.0000 C   0  0  0  0  0  0  0  0  0  0  0  0
   11.4228  -16.2514    0.0000 O   0  0  0  0  0  0  0  0  0  0  0  0
   13.5662  -19.9639    0.0000 O   0  0  0  0  0  0  0  0  0  0  0  0
  1  2  1  0  0  0  0
  2  3  2  0  0  0  0
  3  4  1  0  0  0  0
  4  5  2  0  0  0  0
  5  6  1  0  0  0  0
  6  7  2  0  0  0  0
  2  7  1  0  0  0  0
  6  8  1  0  0  0  0
  8  9  2  0  0  0  0
  9 10  1  0  0  0  0
 10 11  2  0  0  0  0
 11 12  1  0  0  0  0
 12 13  2  0  0  0  0
 13 14  1  0  0  0  0
 14 15  2  0  0  0  0
 10 15  1  0  0  0  0
 15 16  1  0  0  0  0
 16 17  2  0  0  0  0
 16 18  1  0  0  0  0
 18 19  2  0  0  0  0
 19 20  1  0  0  0  0
 20 21  2  0  0  0  0
 21 22  1  0  0  0  0
 22 23  2  0  0  0  0
  9 23  1  0  0  0  0
 18 23  1  0  0  0  0
 22 24  1  0  0  0  0
 24 25  2  0  0  0  0
  8 25  1  0  0  0  0
 25 26  1  0  0  0  0
 26 27  2  0  0  0  0
 27 28  1  0  0  0  0
 28 29  2  0  0  0  0
 24 29  1  0  0  0  0
 29 30  1  0  0  0  0
 27 31  1  0  0  0  0
 26 32  1  0  0  0  0
  5 32  1  0  0  0  0
 32 33  2  0  0  0  0
 21 34  1  0  0  0  0
 19 35  1  0  0  0  0
 14 36  1  0  0  0  0
 12 37  1  0  0  0  0
 37 38  1  0  0  0  0
  4 39  1  0  0  0  0
M  END
>  <cdx:fragmentId>
11419

$$$$
