17139.cdx
  Mrv1902 05222410212D          

 15 14  0  0  0  0            999 V2000
   11.0726   -8.0850    0.0000 C   0  0  0  0  0  0  0  0  0  0  0  0
   10.3581   -7.6725    0.0000 C   0  0  0  0  0  0  0  0  0  0  0  0
    9.6436   -8.0850    0.0000 C   0  0  0  0  0  0  0  0  0  0  0  0
    8.9291   -7.6725    0.0000 C   0  0  0  0  0  0  0  0  0  0  0  0
    8.2147   -8.0850    0.0000 C   0  0  0  0  0  0  0  0  0  0  0  0
    7.5002   -7.6725    0.0000 C   0  0  0  0  0  0  0  0  0  0  0  0
    6.7857   -8.0850    0.0000 C   0  0  0  0  0  0  0  0  0  0  0  0
    6.0713   -7.6725    0.0000 C   0  0  0  0  0  0  0  0  0  0  0  0
    5.3568   -8.0850    0.0000 C   0  0  0  0  0  0  0  0  0  0  0  0
    4.6423   -7.6725    0.0000 C   0  0  0  0  0  0  0  0  0  0  0  0
    3.9278   -8.0850    0.0000 C   0  0  0  0  0  0  0  0  0  0  0  0
    3.2134   -7.6725    0.0000 C   0  0  0  0  0  0  0  0  0  0  0  0
    3.9278   -8.9100    0.0000 C   0  0  0  0  0  0  0  0  0  0  0  0
    6.7857   -8.9100    0.0000 C   0  0  0  0  0  0  0  0  0  0  0  0
    9.6436   -8.9100    0.0000 C   0  0  0  0  0  0  0  0  0  0  0  0
  1  2  2  0  0  0  0
  2  3  1  0  0  0  0
  3  4  2  0  0  0  0
  4  5  1  0  0  0  0
  5  6  1  0  0  0  0
  6  7  2  0  0  0  0
  7  8  1  0  0  0  0
  8  9  1  0  0  0  0
  9 10  1  0  0  0  0
 10 11  2  0  0  0  0
 11 12  1  0  0  0  0
 11 13  1  0  0  0  0
  7 14  1  0  0  0  0
  3 15  1  0  0  0  0
M  END
>  <cdx:fragmentId>
3

$$$$
