171455.cdx
  Mrv1902 05222410192D          

 16 17  0  0  0  0            999 V2000
   16.8934  -20.7830    0.0000 C   0  0  0  0  0  0  0  0  0  0  0  0
   17.6079  -21.1955    0.0000 C   0  0  0  0  0  0  0  0  0  0  0  0
   17.6079  -22.0205    0.0000 C   0  0  0  0  0  0  0  0  0  0  0  0
   16.8934  -22.4330    0.0000 C   0  0  0  0  0  0  0  0  0  0  0  0
   16.1789  -22.0205    0.0000 C   0  0  1  0  0  0  0  0  0  0  0  0
   15.4645  -22.4330    0.0000 C   0  0  0  0  0  0  0  0  0  0  0  0
   14.7500  -22.0205    0.0000 C   0  0  0  0  0  0  0  0  0  0  0  0
   14.7500  -21.1955    0.0000 C   0  0  2  0  0  0  0  0  0  0  0  0
   15.4645  -20.7830    0.0000 C   0  0  0  0  0  0  0  0  0  0  0  0
   16.1789  -21.1955    0.0000 C   0  0  1  0  0  0  0  0  0  0  0  0
   16.8934  -19.9580    0.0000 O   0  0  0  0  0  0  0  0  0  0  0  0
   14.0355  -19.9580    0.0000 C   0  0  0  0  0  0  0  0  0  0  0  0
   14.0355  -20.7830    0.0000 C   0  0  0  0  0  0  0  0  0  0  0  0
   13.3210  -21.1955    0.0000 C   0  0  0  0  0  0  0  0  0  0  0  0
   16.1849  -20.3958    0.0000 C   0  0  0  0  0  0  0  0  0  0  0  0
   16.1563  -22.9167    0.0000 C   0  0  0  0  0  0  0  0  0  0  0  0
  1  2  1  0  0  0  0
  2  3  1  0  0  0  0
  3  4  1  0  0  0  0
  4  5  1  0  0  0  0
  5  6  1  0  0  0  0
  6  7  1  0  0  0  0
  7  8  1  0  0  0  0
  8  9  1  0  0  0  0
  9 10  1  0  0  0  0
  1 10  1  0  0  0  0
  5 10  1  0  0  0  0
  1 11  2  0  0  0  0
 12 13  1  0  0  0  0
 13 14  1  0  0  0  0
  8 13  1  1  0  0  0
 10 15  1  6  0  0  0
  5 16  1  6  0  0  0
M  END
>  <cdx:groupId>
11593

>  <cdx:fragmentId>
11547

$$$$
