17141.cdx
  Mrv1902 05222410272D          

 16 15  0  0  0  0            999 V2000
    4.4715  -10.6631    0.0000 C   0  0  0  0  0  0  0  0  0  0  0  0
    4.4715   -9.8381    0.0000 C   0  0  0  0  0  0  0  0  0  0  0  0
    5.1860   -9.4256    0.0000 C   0  0  0  0  0  0  0  0  0  0  0  0
    5.1860   -8.6006    0.0000 C   0  0  0  0  0  0  0  0  0  0  0  0
    5.9004   -8.1881    0.0000 C   0  0  0  0  0  0  0  0  0  0  0  0
    5.9004   -7.3631    0.0000 C   0  0  0  0  0  0  0  0  0  0  0  0
    5.1860   -6.9506    0.0000 C   0  0  0  0  0  0  0  0  0  0  0  0
    6.6149   -6.9506    0.0000 C   0  0  0  0  0  0  0  0  0  0  0  0
    7.3294   -7.3631    0.0000 C   0  0  0  0  0  0  0  0  0  0  0  0
    8.0439   -6.9506    0.0000 C   0  0  0  0  0  0  0  0  0  0  0  0
    8.7583   -7.3631    0.0000 C   0  0  0  0  0  0  0  0  0  0  0  0
    9.4728   -6.9506    0.0000 C   0  0  0  0  0  0  0  0  0  0  0  0
   10.1873   -7.3631    0.0000 C   0  0  0  0  0  0  0  0  0  0  0  0
   10.9017   -6.9506    0.0000 O   0  0  0  0  0  0  0  0  0  0  0  0
    8.7583   -8.1881    0.0000 C   0  0  0  0  0  0  0  0  0  0  0  0
    3.7570   -9.4256    0.0000 C   0  0  0  0  0  0  0  0  0  0  0  0
  1  2  1  0  0  0  0
  2  3  2  0  0  0  0
  3  4  1  0  0  0  0
  4  5  1  0  0  0  0
  5  6  1  0  0  0  0
  6  7  1  0  0  0  0
  6  8  2  0  0  0  0
  8  9  1  0  0  0  0
  9 10  1  0  0  0  0
 10 11  2  0  0  0  0
 11 12  1  0  0  0  0
 12 13  2  0  0  0  0
 13 14  1  0  0  0  0
 11 15  1  0  0  0  0
  2 16  1  0  0  0  0
M  END
>  <cdx:fragmentId>
3

$$$$
