17140.cdx
  Mrv1902 05222410272D          

 15 14  0  0  0  0            999 V2000
   10.3581   -7.6725    0.0000 C   0  0  0  0  0  0  0  0  0  0  0  0
    9.6436   -8.0850    0.0000 C   0  0  0  0  0  0  0  0  0  0  0  0
    8.9291   -7.6725    0.0000 C   0  0  0  0  0  0  0  0  0  0  0  0
    8.2147   -8.0850    0.0000 C   0  0  0  0  0  0  0  0  0  0  0  0
    7.5002   -7.6725    0.0000 C   0  0  0  0  0  0  0  0  0  0  0  0
    6.7857   -8.0850    0.0000 C   0  0  0  0  0  0  0  0  0  0  0  0
    6.0713   -7.6725    0.0000 C   0  0  0  0  0  0  0  0  0  0  0  0
    6.7857   -8.9100    0.0000 C   0  0  0  0  0  0  0  0  0  0  0  0
    9.6436   -8.9100    0.0000 C   0  0  0  0  0  0  0  0  0  0  0  0
   10.3581   -9.3225    0.0000 C   0  0  0  0  0  0  0  0  0  0  0  0
    6.0713   -9.3225    0.0000 C   0  0  0  0  0  0  0  0  0  0  0  0
    6.0713  -10.1475    0.0000 C   0  0  0  0  0  0  0  0  0  0  0  0
    5.3568  -10.5600    0.0000 C   0  0  0  0  0  0  0  0  0  0  0  0
    4.6423  -10.1475    0.0000 C   0  0  0  0  0  0  0  0  0  0  0  0
    5.3568  -11.3850    0.0000 C   0  0  0  0  0  0  0  0  0  0  0  0
  1  2  1  0  0  0  0
  2  3  2  0  0  0  0
  3  4  1  0  0  0  0
  4  5  1  0  0  0  0
  5  6  2  0  0  0  0
  6  7  1  0  0  0  0
  6  8  1  0  0  0  0
  2  9  1  0  0  0  0
  9 10  2  0  0  0  0
  8 11  1  0  0  0  0
 11 12  1  0  0  0  0
 12 13  2  0  0  0  0
 13 14  1  0  0  0  0
 13 15  1  0  0  0  0
M  END
>  <cdx:fragmentId>
104

$$$$
