171548.cdx
  Mrv1902 05222410252D          

 18 19  0  0  0  0            999 V2000
    6.0409   -5.6973    0.0000 O   0  0  0  0  0  0  0  0  0  0  0  0
    7.3608   -9.6821    0.0000 S   0  0  0  0  0  0  0  0  0  0  0  0
    7.8420  -10.3522    0.0000 C   0  0  0  0  0  0  0  0  0  0  0  0
    8.6235  -10.9266    0.0000 H   0  0  0  0  0  0  0  0  0  0  0  0
    9.4113  -10.3608    0.0000 N   0  0  0  0  0  0  0  0  0  0  0  0
    8.6281  -10.1016    0.0000 C   0  0  2  0  0  0  0  0  0  0  0  0
    8.6371   -8.4516    0.0000 H   0  0  0  0  0  0  0  0  0  0  0  0
   10.7248   -9.7006    0.0000 O   0  0  0  0  0  0  0  0  0  0  0  0
    9.8999   -9.6961    0.0000 C   0  0  0  0  0  0  0  0  0  0  0  0
    9.4186   -9.0260    0.0000 N   0  0  0  0  0  0  0  0  0  0  0  0
    8.6326   -9.2766    0.0000 C   0  0  2  0  0  0  0  0  0  0  0  0
    7.8494   -9.0173    0.0000 C   0  0  2  0  0  0  0  0  0  0  0  0
    7.5988   -8.2313    0.0000 C   0  0  0  0  0  0  0  0  0  0  0  0
    6.7928   -8.0554    0.0000 C   0  0  0  0  0  0  0  0  0  0  0  0
    6.5422   -7.2693    0.0000 C   0  0  0  0  0  0  0  0  0  0  0  0
    5.7361   -7.0934    0.0000 C   0  0  0  0  0  0  0  0  0  0  0  0
    5.4855   -6.3074    0.0000 C   0  0  0  0  0  0  0  0  0  0  0  0
    4.6795   -6.1314    0.0000 O   0  0  0  0  0  0  0  0  0  0  0  0
 17  1  2  0  0  0  0
 12  2  1  0  0  0  0
  3  2  1  0  0  0  0
  6  3  1  0  0  0  0
  6  4  1  6  0  0  0
  9  5  1  0  0  0  0
  6  5  1  0  0  0  0
 11  6  1  0  0  0  0
 11  7  1  6  0  0  0
  9  8  2  0  0  0  0
 10  9  1  0  0  0  0
 11 10  1  0  0  0  0
 12 11  1  0  0  0  0
 12 13  1  1  0  0  0
 14 13  1  0  0  0  0
 15 14  1  0  0  0  0
 16 15  1  0  0  0  0
 17 16  1  0  0  0  0
 18 17  1  0  0  0  0
M  END
>  <cdx:groupId>
11688

>  <cdx:fragmentId>
11636

$$$$
