17157.cdx
  Mrv1902 05222410282D          

 29 33  0  0  0  0            999 V2000
    3.9427   -5.5687    0.0000 C   0  0  0  0  0  0  0  0  0  0  0  0
    3.9427   -6.3937    0.0000 C   0  0  0  0  0  0  0  0  0  0  0  0
    4.6571   -6.8062    0.0000 C   0  0  0  0  0  0  0  0  0  0  0  0
    5.3716   -6.3937    0.0000 C   0  0  0  0  0  0  0  0  0  0  0  0
    5.3716   -5.5687    0.0000 C   0  0  0  0  0  0  0  0  0  0  0  0
    4.6571   -5.1563    0.0000 C   0  0  0  0  0  0  0  0  0  0  0  0
    6.0861   -6.8062    0.0000 C   0  0  2  0  0  0  0  0  0  0  0  0
    6.8005   -6.3937    0.0000 C   0  0  2  0  0  0  0  0  0  0  0  0
    6.8005   -5.5687    0.0000 C   0  0  2  0  0  0  0  0  0  0  0  0
    6.0861   -5.1563    0.0000 C   0  0  0  0  0  0  0  0  0  0  0  0
    6.0861   -7.6313    0.0000 N   0  0  0  0  0  0  0  0  0  0  0  0
    6.8005   -8.0437    0.0000 C   0  0  0  0  0  0  0  0  0  0  0  0
    7.5150   -7.6313    0.0000 C   0  0  0  0  0  0  0  0  0  0  0  0
    7.5150   -6.8062    0.0000 C   0  0  0  0  0  0  0  0  0  0  0  0
    8.2295   -8.0437    0.0000 C   0  0  0  0  0  0  0  0  0  0  0  0
    8.9440   -7.6313    0.0000 C   0  0  0  0  0  0  0  0  0  0  0  0
    8.9440   -6.8062    0.0000 C   0  0  0  0  0  0  0  0  0  0  0  0
    8.2295   -6.3937    0.0000 C   0  0  0  0  0  0  0  0  0  0  0  0
    3.1580   -5.3138    0.0000 O   0  0  0  0  0  0  0  0  0  0  0  0
    2.6731   -5.9813    0.0000 C   0  0  0  0  0  0  0  0  0  0  0  0
    3.1580   -6.6487    0.0000 O   0  0  0  0  0  0  0  0  0  0  0  0
    5.3716   -8.0437    0.0000 C   0  0  0  0  0  0  0  0  0  0  0  0
    8.2295   -8.8688    0.0000 O   0  0  0  0  0  0  0  0  0  0  0  0
    8.9440   -9.2813    0.0000 C   0  0  0  0  0  0  0  0  0  0  0  0
    9.6584   -8.0437    0.0000 O   0  0  0  0  0  0  0  0  0  0  0  0
   10.3729   -7.6313    0.0000 C   0  0  0  0  0  0  0  0  0  0  0  0
    7.5150   -5.1563    0.0000 O   0  0  0  0  0  0  0  0  0  0  0  0
    5.3716   -7.2188    0.0000 H   0  0  0  0  0  0  0  0  0  0  0  0
    7.5150   -5.9813    0.0000 H   0  0  0  0  0  0  0  0  0  0  0  0
  1  2  2  0  0  0  0
  2  3  1  0  0  0  0
  3  4  2  0  0  0  0
  4  5  1  0  0  0  0
  5  6  2  0  0  0  0
  6  1  1  0  0  0  0
  4  7  1  0  0  0  0
  7  8  1  0  0  0  0
  8  9  1  0  0  0  0
  9 10  1  0  0  0  0
 10  5  1  0  0  0  0
  7 11  1  0  0  0  0
 11 12  1  0  0  0  0
 12 13  1  0  0  0  0
 13 14  2  0  0  0  0
 14  8  1  0  0  0  0
 13 15  1  0  0  0  0
 15 16  2  0  0  0  0
 16 17  1  0  0  0  0
 17 18  2  0  0  0  0
 18 14  1  0  0  0  0
  1 19  1  0  0  0  0
 19 20  1  0  0  0  0
 20 21  1  0  0  0  0
 21  2  1  0  0  0  0
 11 22  1  0  0  0  0
 15 23  1  0  0  0  0
 23 24  1  0  0  0  0
 16 25  1  0  0  0  0
 25 26  1  0  0  0  0
  9 27  1  6  0  0  0
  7 28  1  1  0  0  0
  8 29  1  1  0  0  0
M  END
>  <cdx:fragmentId>
5

$$$$
