171530.cdx
  Mrv1902 05222410182D          

 11 10  0  0  0  0            999 V2000
    5.2401   -7.3709    0.0000 O   0  0  0  0  0  0  0  0  0  0  0  0
   10.2414   -8.6084    0.0000 C   0  0  0  0  0  0  0  0  0  0  0  0
    9.5269   -8.1959    0.0000 C   0  0  0  0  0  0  0  0  0  0  0  0
    8.8124   -8.6084    0.0000 C   0  0  0  0  0  0  0  0  0  0  0  0
    8.0980   -8.1959    0.0000 C   0  0  0  0  0  0  0  0  0  0  0  0
    7.3835   -8.6084    0.0000 C   0  0  0  0  0  0  0  0  0  0  0  0
    6.6690   -8.1959    0.0000 C   0  0  0  0  0  0  0  0  0  0  0  0
    5.9545   -8.6084    0.0000 C   0  0  0  0  0  0  0  0  0  0  0  0
    5.2401   -8.1959    0.0000 C   0  0  0  0  0  0  0  0  0  0  0  0
    4.5256   -8.6084    0.0000 C   0  0  0  0  0  0  0  0  0  0  0  0
    3.8111   -8.1959    0.0000 C   0  0  0  0  0  0  0  0  0  0  0  0
  9  1  2  0  0  0  0
  3  2  1  0  0  0  0
  4  3  1  0  0  0  0
  5  4  1  0  0  0  0
  6  5  1  0  0  0  0
  7  6  1  0  0  0  0
  8  7  1  0  0  0  0
  9  8  1  0  0  0  0
 10  9  1  0  0  0  0
 11 10  2  0  0  0  0
M  END
>  <cdx:groupId>
11629

>  <cdx:fragmentId>
11600

$$$$
