17152.cdx
  Mrv1902 05222410262D          

 21 20  0  0  0  0            999 V2000
    9.3599   -8.9042    0.0000 C   0  0  0  0  0  0  0  0  0  0  0  0
    8.6455   -9.3167    0.0000 C   0  0  0  0  0  0  0  0  0  0  0  0
    7.9310   -8.9042    0.0000 C   0  0  0  0  0  0  0  0  0  0  0  0
    7.2165   -9.3167    0.0000 C   0  0  0  0  0  0  0  0  0  0  0  0
    6.5021   -8.9042    0.0000 C   0  0  0  0  0  0  0  0  0  0  0  0
    5.7876   -9.3167    0.0000 C   0  0  0  0  0  0  0  0  0  0  0  0
    5.0731   -8.9042    0.0000 C   0  0  0  0  0  0  0  0  0  0  0  0
    4.3586   -9.3167    0.0000 C   0  0  0  0  0  0  0  0  0  0  0  0
    3.6442   -8.9042    0.0000 C   0  0  0  0  0  0  0  0  0  0  0  0
    2.9297   -9.3167    0.0000 C   0  0  0  0  0  0  0  0  0  0  0  0
   10.0744   -9.3167    0.0000 O   0  0  0  0  0  0  0  0  0  0  0  0
   10.7889   -8.9042    0.0000 C   0  0  0  0  0  0  0  0  0  0  0  0
   11.5034   -9.3167    0.0000 C   0  0  0  0  0  0  0  0  0  0  0  0
   12.2178   -8.9042    0.0000 C   0  0  0  0  0  0  0  0  0  0  0  0
   12.9323   -9.3167    0.0000 C   0  0  0  0  0  0  0  0  0  0  0  0
   13.6468   -8.9042    0.0000 C   0  0  0  0  0  0  0  0  0  0  0  0
   14.3612   -9.3167    0.0000 C   0  0  0  0  0  0  0  0  0  0  0  0
   15.0757   -8.9042    0.0000 C   0  0  0  0  0  0  0  0  0  0  0  0
   15.7902   -9.3167    0.0000 C   0  0  0  0  0  0  0  0  0  0  0  0
   16.5047   -8.9042    0.0000 C   0  0  0  0  0  0  0  0  0  0  0  0
   17.2191   -9.3167    0.0000 C   0  0  0  0  0  0  0  0  0  0  0  0
  1  2  1  0  0  0  0
  2  3  1  0  0  0  0
  3  4  1  0  0  0  0
  4  5  1  0  0  0  0
  5  6  1  0  0  0  0
  6  7  1  0  0  0  0
  7  8  1  0  0  0  0
  8  9  1  0  0  0  0
  9 10  1  0  0  0  0
 12 13  1  0  0  0  0
 13 14  1  0  0  0  0
 14 15  1  0  0  0  0
 15 16  1  0  0  0  0
 16 17  1  0  0  0  0
 17 18  1  0  0  0  0
 18 19  1  0  0  0  0
 19 20  1  0  0  0  0
 20 21  1  0  0  0  0
 11 12  1  0  0  0  0
  1 11  1  0  0  0  0
M  END
>  <cdx:fragmentId>
27

$$$$
