17169.cdx
  Mrv1902 05222410272D          

 37 41  0  0  0  0            999 V2000
    4.3620   -7.2325    0.0000 C   0  0  0  0  0  0  0  0  0  0  0  0
    4.3620   -8.0575    0.0000 C   0  0  1  0  0  0  0  0  0  0  0  0
    5.0765   -8.4700    0.0000 C   0  0  0  0  0  0  0  0  0  0  0  0
    5.7910   -8.0575    0.0000 C   0  0  1  0  0  0  0  0  0  0  0  0
    5.7910   -7.2325    0.0000 C   0  0  2  0  0  0  0  0  0  0  0  0
    5.0765   -6.8200    0.0000 C   0  0  0  0  0  0  0  0  0  0  0  0
    6.5054   -8.4700    0.0000 C   0  0  0  0  0  0  0  0  0  0  0  0
    7.2199   -8.0575    0.0000 C   0  0  0  0  0  0  0  0  0  0  0  0
    7.2199   -7.2325    0.0000 C   0  0  2  0  0  0  0  0  0  0  0  0
    6.5054   -6.8200    0.0000 C   0  0  2  0  0  0  0  0  0  0  0  0
    7.9344   -6.8200    0.0000 C   0  0  1  0  0  0  0  0  0  0  0  0
    7.9344   -5.9950    0.0000 C   0  0  0  0  0  0  0  0  0  0  0  0
    7.2199   -5.5825    0.0000 C   0  0  0  0  0  0  0  0  0  0  0  0
    6.5054   -5.9950    0.0000 C   0  0  0  0  0  0  0  0  0  0  0  0
    8.6489   -7.2325    0.0000 C   0  0  0  0  0  0  0  0  0  0  0  0
    9.3633   -6.8200    0.0000 C   0  0  0  0  0  0  0  0  0  0  0  0
    9.3633   -5.9950    0.0000 C   0  0  2  0  0  0  0  0  0  0  0  0
    8.6489   -5.5825    0.0000 C   0  0  1  0  0  0  0  0  0  0  0  0
   10.0778   -5.5825    0.0000 C   0  0  0  0  0  0  0  0  0  0  0  0
   10.0778   -4.7575    0.0000 C   0  0  0  0  0  0  0  0  0  0  0  0
    9.3633   -4.3450    0.0000 C   0  0  2  0  0  0  0  0  0  0  0  0
    8.6489   -4.7575    0.0000 C   0  0  0  0  0  0  0  0  0  0  0  0
    4.6640   -9.1845    0.0000 C   0  0  0  0  0  0  0  0  0  0  0  0
    5.4890   -9.1845    0.0000 C   0  0  0  0  0  0  0  0  0  0  0  0
    5.7910   -5.5825    0.0000 O   0  0  0  0  0  0  0  0  0  0  0  0
    9.7758   -3.6305    0.0000 C   0  0  0  0  0  0  0  0  0  0  0  0
    9.3633   -2.9161    0.0000 O   0  0  0  0  0  0  0  0  0  0  0  0
   10.6008   -3.6305    0.0000 O   0  0  0  0  0  0  0  0  0  0  0  0
    3.6476   -8.4700    0.0000 O   0  0  0  0  0  0  0  0  0  0  0  0
    5.7910   -6.4075    0.0000 C   0  0  0  0  0  0  0  0  0  0  0  0
    7.2199   -6.4075    0.0000 C   0  0  0  0  0  0  0  0  0  0  0  0
    7.9344   -5.1700    0.0000 H   0  0  0  0  0  0  0  0  0  0  0  0
   10.0778   -6.4075    0.0000 C   0  0  0  0  0  0  0  0  0  0  0  0
    8.9508   -3.6305    0.0000 C   0  0  0  0  0  0  0  0  0  0  0  0
    5.7910   -8.8825    0.0000 H   0  0  0  0  0  0  0  0  0  0  0  0
    6.5054   -7.6450    0.0000 H   0  0  0  0  0  0  0  0  0  0  0  0
    7.9344   -7.6450    0.0000 C   0  0  0  0  0  0  0  0  0  0  0  0
  1  2  1  0  0  0  0
  2  3  1  0  0  0  0
  3  4  1  0  0  0  0
  4  5  1  0  0  0  0
  5  6  1  0  0  0  0
  6  1  1  0  0  0  0
  4  7  1  0  0  0  0
  7  8  1  0  0  0  0
  8  9  1  0  0  0  0
  9 10  1  0  0  0  0
 10  5  1  0  0  0  0
  9 11  1  0  0  0  0
 11 12  1  0  0  0  0
 12 13  2  0  0  0  0
 13 14  1  0  0  0  0
 14 10  1  0  0  0  0
 11 15  1  0  0  0  0
 15 16  1  0  0  0  0
 16 17  1  0  0  0  0
 17 18  1  0  0  0  0
 18 12  1  0  0  0  0
 17 19  1  0  0  0  0
 19 20  1  0  0  0  0
 20 21  1  0  0  0  0
 21 22  1  0  0  0  0
 22 18  1  0  0  0  0
  3 23  1  0  0  0  0
  3 24  1  0  0  0  0
 14 25  2  0  0  0  0
 21 26  1  0  0  0  0
 26 27  2  0  0  0  0
 26 28  1  0  0  0  0
  2 29  1  1  0  0  0
  5 30  1  1  0  0  0
  9 31  1  1  0  0  0
 18 32  1  1  0  0  0
 17 33  1  1  0  0  0
 21 34  1  1  0  0  0
  4 35  1  6  0  0  0
 10 36  1  6  0  0  0
 11 37  1  6  0  0  0
M  END
>  <cdx:fragmentId>
5

$$$$
