171638.cdx
  Mrv1902 05222410242D          

 51 54  0  0  0  0            999 V2000
    5.5028   -9.4041    0.0000 C   0  0  0  0  0  0  0  0  0  0  0  0
    4.7885   -9.8170    0.0000 O   0  0  0  0  0  0  0  0  0  0  0  0
    6.2174   -9.8163    0.0000 O   0  0  0  0  0  0  0  0  0  0  0  0
    6.2178  -10.6413    0.0000 C   0  0  0  0  0  0  0  0  0  0  0  0
    6.9324  -11.0535    0.0000 C   0  0  0  0  0  0  0  0  0  0  0  0
    7.6467  -10.6407    0.0000 C   0  0  0  0  0  0  0  0  0  0  0  0
    8.3614  -11.0528    0.0000 C   0  0  0  0  0  0  0  0  0  0  0  0
    8.3618  -11.8778    0.0000 C   0  0  0  0  0  0  0  0  0  0  0  0
    7.6475  -12.2907    0.0000 C   0  0  0  0  0  0  0  0  0  0  0  0
    6.9328  -11.8785    0.0000 C   0  0  0  0  0  0  0  0  0  0  0  0
    8.3580   -3.6278    0.0000 O   0  0  0  0  0  0  0  0  0  0  0  0
    8.3573   -1.9778    0.0000 O   0  0  0  0  0  0  0  0  0  0  0  0
    9.7858   -1.1522    0.0000 O   0  0  0  0  0  0  0  0  0  0  0  0
   11.2148   -1.1515    0.0000 O   0  0  0  0  0  0  0  0  0  0  0  0
   11.2151   -1.9765    0.0000 C   0  0  0  0  0  0  0  0  0  0  0  0
   10.5009   -2.3894    0.0000 C   0  0  2  0  0  0  0  0  0  0  0  0
    9.7862   -1.9772    0.0000 C   0  0  2  0  0  0  0  0  0  0  0  0
    9.0719   -2.3900    0.0000 C   0  0  1  0  0  0  0  0  0  0  0  0
    9.0723   -3.2150    0.0000 C   0  0  2  0  0  0  0  0  0  0  0  0
    9.7870   -3.6272    0.0000 C   0  0  1  0  0  0  0  0  0  0  0  0
   10.5012   -3.2144    0.0000 O   0  0  0  0  0  0  0  0  0  0  0  0
    9.7873   -4.4522    0.0000 O   0  0  0  0  0  0  0  0  0  0  0  0
    7.6441   -4.8657    0.0000 C   0  0  0  0  0  0  0  0  0  0  0  0
    8.3584   -4.4528    0.0000 C   0  0  0  0  0  0  0  0  0  0  0  0
    9.0730   -4.8650    0.0000 C   0  0  0  0  0  0  0  0  0  0  0  0
    9.0734   -5.6900    0.0000 C   0  0  0  0  0  0  0  0  0  0  0  0
    8.3591   -6.1028    0.0000 C   0  0  0  0  0  0  0  0  0  0  0  0
    7.6445   -5.6907    0.0000 C   0  0  0  0  0  0  0  0  0  0  0  0
    6.9302   -6.1035    0.0000 C   0  0  0  0  0  0  0  0  0  0  0  0
   10.5036  -13.1181    0.0000 O   0  0  0  0  0  0  0  0  0  0  0  0
   10.5000  -14.7681    0.0000 O   0  0  0  0  0  0  0  0  0  0  0  0
    9.0693  -15.5900    0.0000 O   0  0  0  0  0  0  0  0  0  0  0  0
    7.6404  -15.5869    0.0000 O   0  0  0  0  0  0  0  0  0  0  0  0
    7.6422  -14.7619    0.0000 C   0  0  0  0  0  0  0  0  0  0  0  0
    8.3575  -14.3510    0.0000 C   0  0  2  0  0  0  0  0  0  0  0  0
    9.0711  -14.7650    0.0000 C   0  0  2  0  0  0  0  0  0  0  0  0
    9.7865  -14.3541    0.0000 C   0  0  1  0  0  0  0  0  0  0  0  0
    9.7882  -13.5291    0.0000 C   0  0  2  0  0  0  0  0  0  0  0  0
    9.0747  -13.1150    0.0000 C   0  0  1  0  0  0  0  0  0  0  0  0
    8.3593  -13.5260    0.0000 O   0  0  0  0  0  0  0  0  0  0  0  0
    9.0764  -12.2900    0.0000 O   0  0  0  0  0  0  0  0  0  0  0  0
    6.2170   -8.9913    0.0000 O   0  0  0  0  0  0  0  0  0  0  0  0
    3.3588   -8.1676    0.0000 C   0  0  0  0  0  0  0  0  0  0  0  0
    4.0738   -9.4048    0.0000 C   0  0  0  0  0  0  0  0  0  0  0  0
    4.0734   -8.5798    0.0000 C   0  0  0  0  0  0  0  0  0  0  0  0
    4.7877   -8.1670    0.0000 C   0  0  0  0  0  0  0  0  0  0  0  0
    6.9306   -6.9285    0.0000 O   0  0  0  0  0  0  0  0  0  0  0  0
    5.5016   -6.9291    0.0000 O   0  0  0  0  0  0  0  0  0  0  0  0
    6.2163   -7.3413    0.0000 C   0  0  0  0  0  0  0  0  0  0  0  0
    6.2167   -8.1663    0.0000 C   0  0  0  0  0  0  0  0  0  0  0  0
    5.5024   -8.5791    0.0000 C   0  0  1  0  0  0  0  0  0  0  0  0
 47 29  1  0  0  0  0
 29 28  1  0  0  0  0
 25 22  1  0  0  0  0
 20 22  1  1  0  0  0
 19 11  1  6  0  0  0
 18 12  1  1  0  0  0
 17 13  1  6  0  0  0
 16 15  1  1  0  0  0
 15 14  1  0  0  0  0
 21 16  1  0  0  0  0
 17 16  1  0  0  0  0
 18 17  1  0  0  0  0
 19 18  1  0  0  0  0
 20 19  1  0  0  0  0
 21 20  1  0  0  0  0
 28 23  2  0  0  0  0
 24 23  1  0  0  0  0
 25 24  2  0  0  0  0
 26 25  1  0  0  0  0
 27 26  2  0  0  0  0
 28 27  1  0  0  0  0
 39 41  1  1  0  0  0
 38 30  1  6  0  0  0
 37 31  1  1  0  0  0
 36 32  1  6  0  0  0
 35 34  1  1  0  0  0
 34 33  1  0  0  0  0
 40 35  1  0  0  0  0
 36 35  1  0  0  0  0
 37 36  1  0  0  0  0
 38 37  1  0  0  0  0
 39 38  1  0  0  0  0
 51 42  1  6  0  0  0
 51 46  1  0  0  0  0
 45 43  1  0  0  0  0
 45 44  1  0  0  0  0
 46 45  1  0  0  0  0
 49 47  1  0  0  0  0
 49 48  2  0  0  0  0
 40 39  1  0  0  0  0
  1  2  2  0  0  0  0
 50 49  1  0  0  0  0
 51 50  1  0  0  0  0
  1 51  1  0  0  0  0
  1  3  1  0  0  0  0
  5  6  1  0  0  0  0
  6  7  2  0  0  0  0
  7  8  1  0  0  0  0
  8  9  2  0  0  0  0
  9 10  1  0  0  0  0
  5 10  2  0  0  0  0
  8 41  1  0  0  0  0
  4  5  1  0  0  0  0
  3  4  1  0  0  0  0
M  END
>  <cdx:fragmentId>
47

$$$$
