17188.cdx
  Mrv1902 05222410202D          

 15 17  0  0  0  0            999 V2000
    7.3870   -9.0131    0.0000 C   0  0  0  0  0  0  0  0  0  0  0  0
    7.3870   -9.8381    0.0000 C   0  0  0  0  0  0  0  0  0  0  0  0
    8.1015  -10.2506    0.0000 C   0  0  0  0  0  0  0  0  0  0  0  0
    8.8160   -9.8381    0.0000 C   0  0  0  0  0  0  0  0  0  0  0  0
    8.8160   -9.0131    0.0000 C   0  0  0  0  0  0  0  0  0  0  0  0
    8.1015   -8.6006    0.0000 C   0  0  0  0  0  0  0  0  0  0  0  0
    7.9300   -7.7937    0.0000 C   0  0  0  0  0  0  0  0  0  0  0  0
    7.1095   -7.7074    0.0000 C   0  0  0  0  0  0  0  0  0  0  0  0
    6.7739   -8.4611    0.0000 C   0  0  0  0  0  0  0  0  0  0  0  0
    6.6726  -10.2506    0.0000 C   0  0  0  0  0  0  0  0  0  0  0  0
    8.8160   -8.1881    0.0000 C   0  0  0  0  0  0  0  0  0  0  0  0
    6.2219   -9.0742    0.0000 C   0  0  0  0  0  0  0  0  0  0  0  0
    6.8350   -9.6262    0.0000 C   0  0  0  0  0  0  0  0  0  0  0  0
    5.6385   -8.4908    0.0000 C   0  0  0  0  0  0  0  0  0  0  0  0
    5.6385   -9.6575    0.0000 C   0  0  0  0  0  0  0  0  0  0  0  0
  1  2  1  0  0  0  0
  2  3  2  0  0  0  0
  3  4  1  0  0  0  0
  4  5  1  0  0  0  0
  5  6  1  0  0  0  0
  6  1  1  0  0  0  0
  6  7  1  0  0  0  0
  7  8  1  0  0  0  0
  8  9  1  0  0  0  0
  9  1  1  0  0  0  0
  2 10  1  0  0  0  0
  6 11  1  0  0  0  0
  9 12  1  0  0  0  0
 12 13  1  0  0  0  0
 13  1  1  0  0  0  0
 12 14  1  0  0  0  0
 12 15  1  0  0  0  0
M  END
>  <cdx:fragmentId>
5

$$$$
