17198.cdx
  Mrv1902 05222410182D          

 14 14  0  0  0  0            999 V2000
    6.8286   -2.7586    0.0000 C   0  0  0  0  0  0  0  0  0  0  0  0
    7.5430   -3.1711    0.0000 C   0  0  0  0  0  0  0  0  0  0  0  0
    6.1141   -3.1711    0.0000 C   0  0  0  0  0  0  0  0  0  0  0  0
    6.1141   -3.9961    0.0000 C   0  0  0  0  0  0  0  0  0  0  0  0
    5.3996   -4.4086    0.0000 C   0  0  0  0  0  0  0  0  0  0  0  0
    4.6852   -3.9961    0.0000 C   0  0  0  0  0  0  0  0  0  0  0  0
    4.6852   -3.1711    0.0000 C   0  0  0  0  0  0  0  0  0  0  0  0
    5.3996   -2.7586    0.0000 C   0  0  0  0  0  0  0  0  0  0  0  0
    3.9707   -2.7586    0.0000 O   0  0  0  0  0  0  0  0  0  0  0  0
    3.2562   -3.1711    0.0000 C   0  0  0  0  0  0  0  0  0  0  0  0
    5.3996   -5.2336    0.0000 O   0  0  0  0  0  0  0  0  0  0  0  0
    4.6852   -5.6461    0.0000 C   0  0  0  0  0  0  0  0  0  0  0  0
    3.9707   -4.4086    0.0000 O   0  0  0  0  0  0  0  0  0  0  0  0
    6.8286   -1.9336    0.0000 O   0  0  0  0  0  0  0  0  0  0  0  0
  1  2  1  0  0  0  0
  3  4  1  0  0  0  0
  4  5  2  0  0  0  0
  5  6  1  0  0  0  0
  6  7  2  0  0  0  0
  7  8  1  0  0  0  0
  3  8  2  0  0  0  0
  9 10  1  0  0  0  0
  7  9  1  0  0  0  0
 11 12  1  0  0  0  0
  5 11  1  0  0  0  0
  6 13  1  0  0  0  0
  1  3  1  0  0  0  0
  1 14  2  0  0  0  0
M  END
>  <cdx:groupId>
44

>  <cdx:fragmentId>
9

$$$$
