17195.cdx
  Mrv1902 05222410282D          

 18 19  0  0  0  0            999 V2000
    6.1009   -6.2906    0.0000 C   0  0  0  0  0  0  0  0  0  0  0  0
    6.1009   -7.1156    0.0000 C   0  0  0  0  0  0  0  0  0  0  0  0
    6.8153   -7.5281    0.0000 C   0  0  0  0  0  0  0  0  0  0  0  0
    7.5298   -7.1156    0.0000 C   0  0  1  0  0  0  0  0  0  0  0  0
    7.5298   -6.2906    0.0000 C   0  0  1  0  0  0  0  0  0  0  0  0
    6.8153   -5.8781    0.0000 C   0  0  0  0  0  0  0  0  0  0  0  0
    8.2443   -7.5281    0.0000 C   0  0  0  0  0  0  0  0  0  0  0  0
    8.9588   -7.1156    0.0000 C   0  0  1  0  0  0  0  0  0  0  0  0
    8.9588   -6.2906    0.0000 C   0  0  0  0  0  0  0  0  0  0  0  0
    8.2443   -5.8781    0.0000 C   0  0  0  0  0  0  0  0  0  0  0  0
    5.3864   -5.8781    0.0000 O   0  0  0  0  0  0  0  0  0  0  0  0
    6.8153   -8.3531    0.0000 C   0  0  0  0  0  0  0  0  0  0  0  0
    9.6732   -7.5281    0.0000 C   0  0  0  0  0  0  0  0  0  0  0  0
   10.3877   -7.1156    0.0000 C   0  0  0  0  0  0  0  0  0  0  0  0
    9.6732   -8.3531    0.0000 C   0  0  0  0  0  0  0  0  0  0  0  0
    7.5298   -5.4656    0.0000 C   0  0  0  0  0  0  0  0  0  0  0  0
    7.5298   -7.9406    0.0000 O   0  0  0  0  0  0  0  0  0  0  0  0
    8.9588   -7.9406    0.0000 H   0  0  0  0  0  0  0  0  0  0  0  0
  1  2  1  0  0  0  0
  2  3  2  0  0  0  0
  3  4  1  0  0  0  0
  4  5  1  0  0  0  0
  5  6  1  0  0  0  0
  6  1  1  0  0  0  0
  4  7  1  0  0  0  0
  7  8  1  0  0  0  0
  8  9  1  0  0  0  0
  9 10  1  0  0  0  0
 10  5  1  0  0  0  0
  1 11  2  0  0  0  0
  3 12  1  0  0  0  0
  8 13  1  1  0  0  0
 13 14  2  0  0  0  0
 13 15  1  0  0  0  0
  5 16  1  6  0  0  0
  4 17  1  6  0  0  0
  8 18  1  6  0  0  0
M  END
>  <cdx:fragmentId>
5

$$$$
