172.cdx
  Mrv1902 05222410212D          

 10 10  0  0  0  0            999 V2000
    6.3781   -5.8701    0.0000 C   0  0  0  0  0  0  0  0  0  0  0  0
    6.3781   -6.6951    0.0000 C   0  0  0  0  0  0  0  0  0  0  0  0
    7.0925   -7.1076    0.0000 C   0  0  0  0  0  0  0  0  0  0  0  0
    7.8070   -6.6951    0.0000 C   0  0  0  0  0  0  0  0  0  0  0  0
    7.8070   -5.8701    0.0000 C   0  0  0  0  0  0  0  0  0  0  0  0
    7.0925   -5.4576    0.0000 C   0  0  0  0  0  0  0  0  0  0  0  0
    7.0925   -4.6326    0.0000 C   0  0  0  0  0  0  0  0  0  0  0  0
    6.3781   -4.2201    0.0000 O   0  0  0  0  0  0  0  0  0  0  0  0
    7.8070   -4.2201    0.0000 O   0  0  0  0  0  0  0  0  0  0  0  0
    7.0925   -7.9326    0.0000 O   0  0  0  0  0  0  0  0  0  0  0  0
  1  2  2  0  0  0  0
  2  3  1  0  0  0  0
  3  4  2  0  0  0  0
  4  5  1  0  0  0  0
  5  6  2  0  0  0  0
  6  1  1  0  0  0  0
  6  7  1  0  0  0  0
  7  8  2  0  0  0  0
  7  9  1  0  0  0  0
  3 10  1  0  0  0  0
M  END
>  <cdx:fragmentId>
5

$$$$
