17203.cdx
  Mrv1902 05222410192D          

 12 12  0  0  0  0            999 V2000
    7.1149   -2.9941    0.0000 O   0  0  0  0  0  0  0  0  0  0  0  0
    5.6860   -2.9934    0.0000 C   0  0  0  0  0  0  0  0  0  0  0  0
    6.4002   -3.4063    0.0000 C   0  0  0  0  0  0  0  0  0  0  0  0
    7.8274   -6.7070    0.0000 C   0  0  0  0  0  0  0  0  0  0  0  0
    7.8278   -5.8820    0.0000 O   0  0  0  0  0  0  0  0  0  0  0  0
    6.3984   -6.7063    0.0000 O   0  0  0  0  0  0  0  0  0  0  0  0
    5.6846   -5.4684    0.0000 C   0  0  0  0  0  0  0  0  0  0  0  0
    5.6851   -4.6434    0.0000 C   0  0  0  0  0  0  0  0  0  0  0  0
    6.3998   -4.2313    0.0000 C   0  0  0  0  0  0  0  0  0  0  0  0
    7.1140   -4.6441    0.0000 C   0  0  0  0  0  0  0  0  0  0  0  0
    7.1136   -5.4691    0.0000 C   0  0  0  0  0  0  0  0  0  0  0  0
    6.3989   -5.8813    0.0000 C   0  0  0  0  0  0  0  0  0  0  0  0
  9  3  1  0  0  0  0
  3  1  1  0  0  0  0
  3  2  1  0  0  0  0
 11  5  1  0  0  0  0
  5  4  1  0  0  0  0
 12  6  1  0  0  0  0
 12  7  2  0  0  0  0
  8  7  1  0  0  0  0
  9  8  2  0  0  0  0
 10  9  1  0  0  0  0
 11 10  2  0  0  0  0
 12 11  1  0  0  0  0
M  END
>  <cdx:fragmentId>
5

$$$$
