17202.cdx
  Mrv1902 05222410192D          

 12 12  0  0  0  0            999 V2000
    6.6377   -5.7475    0.0000 C   0  0  0  0  0  0  0  0  0  0  0  0
    6.6377   -6.5725    0.0000 C   0  0  0  0  0  0  0  0  0  0  0  0
    7.3521   -6.9850    0.0000 C   0  0  0  0  0  0  0  0  0  0  0  0
    8.0666   -6.5725    0.0000 C   0  0  0  0  0  0  0  0  0  0  0  0
    8.0666   -5.7475    0.0000 C   0  0  0  0  0  0  0  0  0  0  0  0
    7.3521   -5.3350    0.0000 C   0  0  1  0  0  0  0  0  0  0  0  0
    7.3521   -4.5100    0.0000 C   0  0  0  0  0  0  0  0  0  0  0  0
    7.3521   -3.6850    0.0000 O   0  0  0  0  0  0  0  0  0  0  0  0
    6.5271   -4.5100    0.0000 C   0  0  0  0  0  0  0  0  0  0  0  0
    8.1771   -4.5100    0.0000 C   0  0  0  0  0  0  0  0  0  0  0  0
    7.3521   -7.8100    0.0000 C   0  0  0  0  0  0  0  0  0  0  0  0
    8.0666   -4.9225    0.0000 H   0  0  0  0  0  0  0  0  0  0  0  0
  1  2  1  0  0  0  0
  2  3  1  0  0  0  0
  3  4  2  0  0  0  0
  4  5  1  0  0  0  0
  5  6  1  0  0  0  0
  6  1  1  0  0  0  0
  6  7  1  0  0  0  0
  7  8  1  0  0  0  0
  7  9  1  0  0  0  0
  7 10  1  0  0  0  0
  3 11  1  0  0  0  0
  6 12  1  1  0  0  0
M  END
>  <cdx:fragmentId>
5

$$$$
