17219.cdx
  Mrv1902 05222410262D          

 21 20  0  0  0  0            999 V2000
    0.9123   -3.1358    0.0000 C   0  0  0  0  0  0  0  0  0  0  0  0
   11.6293   -4.3733    0.0000 C   0  0  0  0  0  0  0  0  0  0  0  0
    1.6267   -3.5483    0.0000 O   0  0  0  0  0  0  0  0  0  0  0  0
    2.3412   -2.3108    0.0000 O   0  0  0  0  0  0  0  0  0  0  0  0
   13.7727   -3.1358    0.0000 C   0  0  0  0  0  0  0  0  0  0  0  0
   13.0583   -3.5483    0.0000 C   0  0  0  0  0  0  0  0  0  0  0  0
   12.3438   -3.1358    0.0000 C   0  0  0  0  0  0  0  0  0  0  0  0
   11.6293   -3.5483    0.0000 C   0  0  0  0  0  0  0  0  0  0  0  0
   10.9149   -3.1358    0.0000 C   0  0  0  0  0  0  0  0  0  0  0  0
   10.2004   -3.5483    0.0000 C   0  0  0  0  0  0  0  0  0  0  0  0
    9.4859   -3.1358    0.0000 C   0  0  0  0  0  0  0  0  0  0  0  0
    8.7714   -3.5483    0.0000 C   0  0  0  0  0  0  0  0  0  0  0  0
    8.0570   -3.1358    0.0000 C   0  0  0  0  0  0  0  0  0  0  0  0
    7.3425   -3.5483    0.0000 C   0  0  0  0  0  0  0  0  0  0  0  0
    6.6280   -3.1358    0.0000 C   0  0  0  0  0  0  0  0  0  0  0  0
    5.9136   -3.5483    0.0000 C   0  0  0  0  0  0  0  0  0  0  0  0
    5.1991   -3.1358    0.0000 C   0  0  0  0  0  0  0  0  0  0  0  0
    4.4846   -3.5483    0.0000 C   0  0  0  0  0  0  0  0  0  0  0  0
    3.7701   -3.1358    0.0000 C   0  0  0  0  0  0  0  0  0  0  0  0
    3.0557   -3.5483    0.0000 C   0  0  0  0  0  0  0  0  0  0  0  0
    2.3412   -3.1358    0.0000 C   0  0  0  0  0  0  0  0  0  0  0  0
  3  1  1  0  0  0  0
  8  2  1  0  0  0  0
 21  3  1  0  0  0  0
 21  4  2  0  0  0  0
  6  5  1  0  0  0  0
  7  6  1  0  0  0  0
  8  7  1  0  0  0  0
  9  8  1  0  0  0  0
 10  9  1  0  0  0  0
 11 10  1  0  0  0  0
 12 11  1  0  0  0  0
 13 12  1  0  0  0  0
 14 13  1  0  0  0  0
 15 14  1  0  0  0  0
 16 15  1  0  0  0  0
 17 16  1  0  0  0  0
 18 17  1  0  0  0  0
 19 18  1  0  0  0  0
 20 19  1  0  0  0  0
 21 20  1  0  0  0  0
M  END
>  <cdx:groupId>
64

>  <cdx:fragmentId>
5

$$$$
