17228.cdx
  Mrv1902 05222410202D          

 15 15  0  0  0  0            999 V2000
    7.7043   -4.3260    0.0000 C   0  0  1  0  0  0  0  0  0  0  0  0
    7.7080   -3.5010    0.0000 C   0  0  1  0  0  0  0  0  0  0  0  0
    6.9953   -3.0854    0.0000 N   0  0  0  0  0  0  0  0  0  0  0  0
    6.2790   -3.4947    0.0000 C   0  0  1  0  0  0  0  0  0  0  0  0
    6.2754   -4.3197    0.0000 C   0  0  1  0  0  0  0  0  0  0  0  0
    6.9880   -4.7353    0.0000 C   0  0  2  0  0  0  0  0  0  0  0  0
    6.9843   -5.5603    0.0000 O   0  0  0  0  0  0  0  0  0  0  0  0
    5.5591   -4.7290    0.0000 O   0  0  0  0  0  0  0  0  0  0  0  0
    5.5664   -3.0790    0.0000 C   0  0  0  0  0  0  0  0  0  0  0  0
    8.4243   -3.0917    0.0000 C   0  0  0  0  0  0  0  0  0  0  0  0
    8.4169   -4.7417    0.0000 O   0  0  0  0  0  0  0  0  0  0  0  0
    9.1369   -3.5074    0.0000 C   0  0  0  0  0  0  0  0  0  0  0  0
    9.8532   -3.0981    0.0000 C   0  0  0  0  0  0  0  0  0  0  0  0
   10.5658   -3.5137    0.0000 C   0  0  0  0  0  0  0  0  0  0  0  0
    4.8501   -3.4883    0.0000 O   0  0  0  0  0  0  0  0  0  0  0  0
  1  2  1  0  0  0  0
  2  3  1  0  0  0  0
  3  4  1  0  0  0  0
  4  5  1  0  0  0  0
  5  6  1  0  0  0  0
  6  1  1  0  0  0  0
  6  7  1  1  0  0  0
  5  8  1  1  0  0  0
  4  9  1  1  0  0  0
  2 10  1  1  0  0  0
  1 11  1  6  0  0  0
 10 12  1  0  0  0  0
 12 13  1  0  0  0  0
 13 14  1  0  0  0  0
  9 15  1  0  0  0  0
M  END
>  <cdx:fragmentId>
5

$$$$
