17227.cdx
  Mrv1902 05222410272D          

 15 15  0  0  0  0            999 V2000
    7.6774   -7.2407    0.0000 C   0  0  1  0  0  0  0  0  0  0  0  0
    7.6779   -6.4157    0.0000 C   0  0  1  0  0  0  0  0  0  0  0  0
    6.9638   -6.0027    0.0000 N   0  0  0  0  0  0  0  0  0  0  0  0
    6.2490   -6.4146    0.0000 C   0  0  1  0  0  0  0  0  0  0  0  0
    6.2484   -7.2396    0.0000 C   0  0  1  0  0  0  0  0  0  0  0  0
    6.9626   -7.6527    0.0000 C   0  0  2  0  0  0  0  0  0  0  0  0
    6.9620   -8.4777    0.0000 O   0  0  0  0  0  0  0  0  0  0  0  0
    5.5336   -7.6516    0.0000 O   0  0  0  0  0  0  0  0  0  0  0  0
    5.5348   -6.0016    0.0000 C   0  0  0  0  0  0  0  0  0  0  0  0
    8.3927   -6.0037    0.0000 C   0  0  0  0  0  0  0  0  0  0  0  0
    8.3915   -7.6537    0.0000 O   0  0  0  0  0  0  0  0  0  0  0  0
    9.1069   -6.4167    0.0000 C   0  0  0  0  0  0  0  0  0  0  0  0
    9.8217   -6.0047    0.0000 C   0  0  0  0  0  0  0  0  0  0  0  0
   10.5358   -6.4177    0.0000 C   0  0  0  0  0  0  0  0  0  0  0  0
    4.8201   -6.4136    0.0000 O   0  0  0  0  0  0  0  0  0  0  0  0
  1  2  1  0  0  0  0
  2  3  1  0  0  0  0
  3  4  1  0  0  0  0
  4  5  1  0  0  0  0
  5  6  1  0  0  0  0
  6  1  1  0  0  0  0
  6  7  1  1  0  0  0
  5  8  1  1  0  0  0
  4  9  1  1  0  0  0
  2 10  1  1  0  0  0
  1 11  1  6  0  0  0
 10 12  1  0  0  0  0
 12 13  1  0  0  0  0
 13 14  2  0  0  0  0
  9 15  1  0  0  0  0
M  END
>  <cdx:fragmentId>
5

$$$$
