17229.cdx
  Mrv1902 05222410202D          

 56 63  0  0  0  0            999 V2000
    8.9162   -5.0196    0.0000 C   0  0  1  0  0  0  0  0  0  0  0  0
    9.6307   -4.6071    0.0000 C   0  0  2  0  0  0  0  0  0  0  0  0
   10.4153   -4.8620    0.0000 C   0  0  0  0  0  0  0  0  0  0  0  0
   10.9002   -4.1946    0.0000 C   0  0  2  0  0  0  0  0  0  0  0  0
   11.6848   -3.9396    0.0000 O   0  0  0  0  0  0  0  0  0  0  0  0
   11.6848   -3.1146    0.0000 C   0  0  2  0  0  0  0  0  0  0  0  0
   10.9002   -2.8597    0.0000 C   0  0  2  0  0  0  0  0  0  0  0  0
   10.4153   -3.5271    0.0000 C   0  0  2  0  0  0  0  0  0  0  0  0
    9.6307   -3.7821    0.0000 C   0  0  1  0  0  0  0  0  0  0  0  0
    8.9162   -3.3696    0.0000 C   0  0  0  0  0  0  0  0  0  0  0  0
    8.2017   -3.7821    0.0000 C   0  0  0  0  0  0  0  0  0  0  0  0
    8.2017   -4.6071    0.0000 C   0  0  2  0  0  0  0  0  0  0  0  0
    7.4873   -5.0196    0.0000 C   0  0  1  0  0  0  0  0  0  0  0  0
    6.7728   -4.6071    0.0000 C   0  0  0  0  0  0  0  0  0  0  0  0
    6.0583   -5.0196    0.0000 C   0  0  0  0  0  0  0  0  0  0  0  0
    6.0583   -5.8446    0.0000 C   0  0  1  0  0  0  0  0  0  0  0  0
    6.7728   -6.2571    0.0000 C   0  0  0  0  0  0  0  0  0  0  0  0
    7.4873   -5.8446    0.0000 C   0  0  0  0  0  0  0  0  0  0  0  0
    8.2017   -6.2571    0.0000 C   0  0  0  0  0  0  0  0  0  0  0  0
    8.9162   -5.8446    0.0000 C   0  0  0  0  0  0  0  0  0  0  0  0
   11.5986   -2.2941    0.0000 N   0  0  0  0  0  0  0  0  0  0  0  0
   12.4385   -3.4502    0.0000 C   0  0  0  0  0  0  0  0  0  0  0  0
   13.1060   -2.9652    0.0000 C   0  0  0  0  0  0  0  0  0  0  0  0
   13.0197   -2.1448    0.0000 C   0  0  2  0  0  0  0  0  0  0  0  0
   12.2661   -1.8092    0.0000 C   0  0  0  0  0  0  0  0  0  0  0  0
    7.4873   -4.1946    0.0000 C   0  0  0  0  0  0  0  0  0  0  0  0
    9.4874   -2.9696    0.0000 C   0  0  0  0  0  0  0  0  0  0  0  0
   10.6453   -2.0751    0.0000 C   0  0  0  0  0  0  0  0  0  0  0  0
   13.6872   -1.6598    0.0000 C   0  0  0  0  0  0  0  0  0  0  0  0
    8.9162   -4.1946    0.0000 H   0  0  0  0  0  0  0  0  0  0  0  0
    9.6307   -5.4321    0.0000 H   0  0  0  0  0  0  0  0  0  0  0  0
   11.3851   -4.8620    0.0000 H   0  0  0  0  0  0  0  0  0  0  0  0
   10.0536   -2.7856    0.0000 H   0  0  0  0  0  0  0  0  0  0  0  0
    8.2017   -5.4321    0.0000 H   0  0  0  0  0  0  0  0  0  0  0  0
    5.3882   -9.1146    0.0000 O   0  0  0  0  0  0  0  0  0  0  0  0
    2.4900   -8.4450    0.0000 O   0  0  0  0  0  0  0  0  0  0  0  0
    2.8913   -7.7242    0.0000 C   0  0  0  0  0  0  0  0  0  0  0  0
    5.3439   -6.2571    0.0000 O   0  0  0  0  0  0  0  0  0  0  0  0
    4.9425   -6.9778    0.0000 C   0  0  1  0  0  0  0  0  0  0  0  0
    5.3660   -7.6858    0.0000 C   0  0  1  0  0  0  0  0  0  0  0  0
    4.9647   -8.4066    0.0000 C   0  0  2  0  0  0  0  0  0  0  0  0
    4.1398   -8.4194    0.0000 C   0  0  2  0  0  0  0  0  0  0  0  0
    3.7162   -7.7114    0.0000 C   0  0  2  0  0  0  0  0  0  0  0  0
    4.1176   -6.9906    0.0000 O   0  0  0  0  0  0  0  0  0  0  0  0
    6.1909   -7.6730    0.0000 O   0  0  0  0  0  0  0  0  0  0  0  0
    3.7384   -9.1402    0.0000 O   0  0  0  0  0  0  0  0  0  0  0  0
    6.6145   -8.3810    0.0000 C   0  0  2  0  0  0  0  0  0  0  0  0
    6.2243   -9.1079    0.0000 O   0  0  0  0  0  0  0  0  0  0  0  0
    6.6588   -9.8093    0.0000 C   0  0  2  0  0  0  0  0  0  0  0  0
    7.4834   -9.8093    0.0000 C   0  0  1  0  0  0  0  0  0  0  0  0
    7.8735   -9.1079    0.0000 C   0  0  2  0  0  0  0  0  0  0  0  0
    7.4391   -8.3810    0.0000 C   0  0  1  0  0  0  0  0  0  0  0  0
    7.9016  -10.5204    0.0000 O   0  0  0  0  0  0  0  0  0  0  0  0
    8.6984   -9.0951    0.0000 O   0  0  0  0  0  0  0  0  0  0  0  0
    7.8462   -7.6634    0.0000 O   0  0  0  0  0  0  0  0  0  0  0  0
    6.2574  -10.5300    0.0000 C   0  0  0  0  0  0  0  0  0  0  0  0
 41 35  1  1  0  0  0
 43 37  1  1  0  0  0
 37 36  1  0  0  0  0
 39 38  1  1  0  0  0
 44 39  1  0  0  0  0
 40 39  1  0  0  0  0
 41 40  1  0  0  0  0
 42 41  1  0  0  0  0
 43 42  1  0  0  0  0
 44 43  1  0  0  0  0
  1  2  1  0  0  0  0
  2  3  1  0  0  0  0
  3  4  1  0  0  0  0
  4  5  1  0  0  0  0
  5  6  1  0  0  0  0
  6  7  1  0  0  0  0
  7  8  1  0  0  0  0
  8  9  1  0  0  0  0
  9 10  1  0  0  0  0
 10 11  1  0  0  0  0
 11 12  1  0  0  0  0
 12 13  1  0  0  0  0
 13 14  1  0  0  0  0
 14 15  1  0  0  0  0
 15 16  1  0  0  0  0
 16 17  1  0  0  0  0
 17 18  1  0  0  0  0
 18 19  2  0  0  0  0
 19 20  1  0  0  0  0
  1 20  1  0  0  0  0
  1 12  1  0  0  0  0
 13 18  1  0  0  0  0
  2  9  1  0  0  0  0
  4  8  1  0  0  0  0
 22 23  1  0  0  0  0
 23 24  1  0  0  0  0
 24 25  1  0  0  0  0
 21 25  1  0  0  0  0
  6 21  1  6  0  0  0
  6 22  1  1  0  0  0
 13 26  1  1  0  0  0
  9 27  1  1  0  0  0
  7 28  1  6  0  0  0
 24 29  1  6  0  0  0
 16 38  1  1  0  0  0
  1 30  1  1  0  0  0
  2 31  1  6  0  0  0
  4 32  1  6  0  0  0
  8 33  1  6  0  0  0
 12 34  1  6  0  0  0
 40 45  1  6  0  0  0
 42 46  1  1  0  0  0
 47 45  1  1  0  0  0
 47 48  1  0  0  0  0
 48 49  1  0  0  0  0
 49 50  1  0  0  0  0
 50 51  1  0  0  0  0
 51 52  1  0  0  0  0
 52 47  1  0  0  0  0
 50 53  1  1  0  0  0
 51 54  1  6  0  0  0
 52 55  1  6  0  0  0
 49 56  1  6  0  0  0
M  END
>  <cdx:groupId>
229

>  <cdx:fragmentId>
63

$$$$
