17231.cdx
  Mrv1902 05222410262D          

 31 32  0  0  0  0            999 V2000
    3.2827   -6.1669    0.0000 C   0  0  0  0  0  0  0  0  0  0  0  0
    3.2827   -6.9919    0.0000 C   0  0  0  0  0  0  0  0  0  0  0  0
    3.9971   -7.4044    0.0000 C   0  0  0  0  0  0  0  0  0  0  0  0
    4.7116   -6.9919    0.0000 C   0  0  0  0  0  0  0  0  0  0  0  0
    4.7116   -6.1669    0.0000 C   0  0  0  0  0  0  0  0  0  0  0  0
    3.9971   -5.7544    0.0000 C   0  0  0  0  0  0  0  0  0  0  0  0
    5.4261   -7.4044    0.0000 C   0  0  0  0  0  0  0  0  0  0  0  0
    6.1405   -6.9919    0.0000 C   0  0  0  0  0  0  0  0  0  0  0  0
    6.1405   -6.1669    0.0000 C   0  0  0  0  0  0  0  0  0  0  0  0
    5.4261   -5.7544    0.0000 C   0  0  0  0  0  0  0  0  0  0  0  0
    7.5695   -6.1669    0.0000 C   0  0  0  0  0  0  0  0  0  0  0  0
    6.8550   -5.7544    0.0000 C   0  0  1  0  0  0  0  0  0  0  0  0
    8.2840   -5.7544    0.0000 C   0  0  0  0  0  0  0  0  0  0  0  0
    8.2840   -4.9294    0.0000 C   0  0  0  0  0  0  0  0  0  0  0  0
    7.5695   -4.5169    0.0000 C   0  0  0  0  0  0  0  0  0  0  0  0
    6.8550   -4.9294    0.0000 O   0  0  0  0  0  0  0  0  0  0  0  0
    8.9984   -6.1669    0.0000 C   0  0  0  0  0  0  0  0  0  0  0  0
    9.7129   -5.7544    0.0000 C   0  0  0  0  0  0  0  0  0  0  0  0
    9.4109   -5.2313    0.0000 C   0  0  0  0  0  0  0  0  0  0  0  0
    8.9984   -4.5169    0.0000 C   0  0  0  0  0  0  0  0  0  0  0  0
    8.5859   -3.8024    0.0000 C   0  0  0  0  0  0  0  0  0  0  0  0
    7.5695   -3.6919    0.0000 O   0  0  0  0  0  0  0  0  0  0  0  0
    8.9984   -6.9919    0.0000 C   0  0  0  0  0  0  0  0  0  0  0  0
    5.4261   -4.9294    0.0000 O   0  0  0  0  0  0  0  0  0  0  0  0
    3.9971   -4.9294    0.0000 O   0  0  0  0  0  0  0  0  0  0  0  0
    3.9971   -8.2294    0.0000 O   0  0  0  0  0  0  0  0  0  0  0  0
    5.4261   -8.2294    0.0000 O   0  0  0  0  0  0  0  0  0  0  0  0
    9.7129   -4.1044    0.0000 O   0  0  0  0  0  0  0  0  0  0  0  0
   10.4274   -4.5169    0.0000 C   0  0  0  0  0  0  0  0  0  0  0  0
   11.1418   -4.1044    0.0000 C   0  0  0  0  0  0  0  0  0  0  0  0
   10.4274   -5.3419    0.0000 O   0  0  0  0  0  0  0  0  0  0  0  0
  1  2  1  0  0  0  0
  2  3  2  0  0  0  0
  3  4  1  0  0  0  0
  4  5  2  0  0  0  0
  5  6  1  0  0  0  0
  6  1  2  0  0  0  0
  4  7  1  0  0  0  0
  7  8  1  0  0  0  0
  8  9  2  0  0  0  0
  9 10  1  0  0  0  0
 10  5  1  0  0  0  0
 11 12  1  0  0  0  0
 12  9  1  0  0  0  0
 11 13  1  0  0  0  0
 14 15  1  0  0  0  0
 15 16  1  0  0  0  0
 12 16  1  6  0  0  0
 13 17  2  0  0  0  0
 17 18  1  0  0  0  0
 19 20  1  0  0  0  0
 20 14  1  0  0  0  0
 20 21  1  0  0  0  0
 22 15  2  0  0  0  0
 23 17  1  0  0  0  0
 10 24  2  0  0  0  0
 25  6  1  0  0  0  0
  3 26  1  0  0  0  0
 27  7  2  0  0  0  0
 20 28  1  0  0  0  0
 28 29  1  0  0  0  0
 29 30  1  0  0  0  0
 29 31  2  0  0  0  0
M  END
>  <cdx:fragmentId>
5

$$$$
