17247.cdx
  Mrv1902 05222410232D          

 34 38  0  0  0  0            999 V2000
   12.2333  -10.3643    0.0000 C   0  0  0  0  0  0  0  0  0  0  0  0
   11.5189  -10.7768    0.0000 C   0  0  0  0  0  0  0  0  0  0  0  0
   11.5189  -11.6018    0.0000 C   0  0  0  0  0  0  0  0  0  0  0  0
   12.2333  -12.0143    0.0000 C   0  0  0  0  0  0  0  0  0  0  0  0
   12.9478  -11.6018    0.0000 C   0  0  2  0  0  0  0  0  0  0  0  0
   13.6623  -12.0143    0.0000 C   0  0  0  0  0  0  0  0  0  0  0  0
   14.3767  -11.6018    0.0000 C   0  0  0  0  0  0  0  0  0  0  0  0
   14.3767  -10.7768    0.0000 C   0  0  1  0  0  0  0  0  0  0  0  0
   15.0912  -10.3643    0.0000 C   0  0  2  0  0  0  0  0  0  0  0  0
   15.8057  -10.7768    0.0000 C   0  0  0  0  0  0  0  0  0  0  0  0
   16.5201  -10.3643    0.0000 C   0  0  0  0  0  0  0  0  0  0  0  0
   16.5201   -9.5393    0.0000 C   0  0  1  0  0  0  0  0  0  0  0  0
   17.2346   -9.1268    0.0000 C   0  0  0  0  0  0  0  0  0  0  0  0
   17.2346   -8.3018    0.0000 C   0  0  0  0  0  0  0  0  0  0  0  0
   16.5201   -7.8893    0.0000 C   0  0  0  0  0  0  0  0  0  0  0  0
   15.8057   -8.3018    0.0000 C   0  0  0  0  0  0  0  0  0  0  0  0
   15.8057   -9.1268    0.0000 C   0  0  1  0  0  0  0  0  0  0  0  0
   15.0912   -9.5393    0.0000 C   0  0  0  0  0  0  0  0  0  0  0  0
   14.3767   -9.1268    0.0000 C   0  0  0  0  0  0  0  0  0  0  0  0
   13.6623   -9.5393    0.0000 C   0  0  0  0  0  0  0  0  0  0  0  0
   13.6623  -10.3643    0.0000 C   0  0  2  0  0  0  0  0  0  0  0  0
   12.9478  -10.7768    0.0000 C   0  0  1  0  0  0  0  0  0  0  0  0
   10.8044  -12.0143    0.0000 O   0  0  0  0  0  0  0  0  0  0  0  0
   12.9478   -9.9518    0.0000 C   0  0  0  0  0  0  0  0  0  0  0  0
   17.2346   -9.9518    0.0000 C   0  0  0  0  0  0  0  0  0  0  0  0
   15.0912  -11.1893    0.0000 C   0  0  0  0  0  0  0  0  0  0  0  0
   14.3767   -9.9518    0.0000 C   0  0  0  0  0  0  0  0  0  0  0  0
   12.6458  -12.7288    0.0000 C   0  0  0  0  0  0  0  0  0  0  0  0
   11.8208  -12.7288    0.0000 C   0  0  0  0  0  0  0  0  0  0  0  0
   12.9478  -12.4268    0.0000 H   0  0  0  0  0  0  0  0  0  0  0  0
   15.8057   -9.9518    0.0000 H   0  0  0  0  0  0  0  0  0  0  0  0
   13.6623  -11.1893    0.0000 H   0  0  0  0  0  0  0  0  0  0  0  0
   16.1076   -7.1749    0.0000 C   0  0  0  0  0  0  0  0  0  0  0  0
   16.9326   -7.1749    0.0000 C   0  0  0  0  0  0  0  0  0  0  0  0
  1  2  1  0  0  0  0
  2  3  1  0  0  0  0
  3  4  1  0  0  0  0
  4  5  1  0  0  0  0
  5  6  1  0  0  0  0
  6  7  1  0  0  0  0
  7  8  1  0  0  0  0
  8  9  1  0  0  0  0
  9 10  1  0  0  0  0
 10 11  1  0  0  0  0
 11 12  1  0  0  0  0
 12 13  1  0  0  0  0
 13 14  1  0  0  0  0
 14 15  1  0  0  0  0
 15 16  1  0  0  0  0
 16 17  1  0  0  0  0
 12 17  1  0  0  0  0
 17 18  1  0  0  0  0
  9 18  1  0  0  0  0
 18 19  2  0  0  0  0
 19 20  1  0  0  0  0
 20 21  1  0  0  0  0
  8 21  1  0  0  0  0
 21 22  1  0  0  0  0
  5 22  1  0  0  0  0
  1 22  1  0  0  0  0
  3 23  2  0  0  0  0
 22 24  1  1  0  0  0
 12 25  1  1  0  0  0
  9 26  1  6  0  0  0
  8 27  1  1  0  0  0
  4 28  1  0  0  0  0
  4 29  1  0  0  0  0
  5 30  1  6  0  0  0
 17 31  1  1  0  0  0
 21 32  1  6  0  0  0
 15 33  1  0  0  0  0
 15 34  1  0  0  0  0
M  END
>  <cdx:fragmentId>
39305

$$$$
