17257.cdx
  Mrv1902 05222410252D          

 36 40  0  0  0  0            999 V2000
    5.3039   -8.0231    0.0000 C   0  0  0  0  0  0  0  0  0  0  0  0
    5.3039   -8.8481    0.0000 C   0  0  2  0  0  0  0  0  0  0  0  0
    6.0184   -9.2606    0.0000 C   0  0  2  0  0  0  0  0  0  0  0  0
    6.7328   -8.8481    0.0000 C   0  0  1  0  0  0  0  0  0  0  0  0
    6.7328   -8.0231    0.0000 C   0  0  2  0  0  0  0  0  0  0  0  0
    6.0184   -7.6106    0.0000 C   0  0  0  0  0  0  0  0  0  0  0  0
    7.4473   -9.2606    0.0000 C   0  0  0  0  0  0  0  0  0  0  0  0
    8.1618   -8.8481    0.0000 C   0  0  0  0  0  0  0  0  0  0  0  0
    8.1618   -8.0231    0.0000 C   0  0  2  0  0  0  0  0  0  0  0  0
    7.4473   -7.6106    0.0000 C   0  0  2  0  0  0  0  0  0  0  0  0
    8.8763   -7.6106    0.0000 C   0  0  1  0  0  0  0  0  0  0  0  0
    8.8763   -6.7856    0.0000 C   0  0  0  0  0  0  0  0  0  0  0  0
    8.1618   -6.3731    0.0000 C   0  0  0  0  0  0  0  0  0  0  0  0
    7.4473   -6.7856    0.0000 C   0  0  0  0  0  0  0  0  0  0  0  0
    9.5907   -8.0231    0.0000 C   0  0  0  0  0  0  0  0  0  0  0  0
   10.3052   -7.6106    0.0000 C   0  0  0  0  0  0  0  0  0  0  0  0
   10.3052   -6.7856    0.0000 C   0  0  2  0  0  0  0  0  0  0  0  0
    9.5907   -6.3731    0.0000 C   0  0  1  0  0  0  0  0  0  0  0  0
   11.0197   -6.3731    0.0000 C   0  0  0  0  0  0  0  0  0  0  0  0
   11.0197   -5.5481    0.0000 C   0  0  0  0  0  0  0  0  0  0  0  0
   10.3052   -5.1356    0.0000 C   0  0  2  0  0  0  0  0  0  0  0  0
    9.5907   -5.5481    0.0000 C   0  0  2  0  0  0  0  0  0  0  0  0
    6.7328   -7.1981    0.0000 C   0  0  0  0  0  0  0  0  0  0  0  0
    8.1618   -7.1981    0.0000 C   0  0  0  0  0  0  0  0  0  0  0  0
    8.8763   -5.9606    0.0000 H   0  0  0  0  0  0  0  0  0  0  0  0
   11.0197   -7.1981    0.0000 C   0  0  0  0  0  0  0  0  0  0  0  0
    8.8763   -5.1356    0.0000 C   0  0  0  0  0  0  0  0  0  0  0  0
    4.5894   -9.2606    0.0000 O   0  0  0  0  0  0  0  0  0  0  0  0
    6.4309   -9.9751    0.0000 C   0  0  0  0  0  0  0  0  0  0  0  0
    6.7328   -9.6731    0.0000 H   0  0  0  0  0  0  0  0  0  0  0  0
    7.4473   -8.4356    0.0000 H   0  0  0  0  0  0  0  0  0  0  0  0
    8.8763   -8.4356    0.0000 C   0  0  0  0  0  0  0  0  0  0  0  0
   10.3052   -4.3106    0.0000 C   0  0  0  0  0  0  0  0  0  0  0  0
    5.6059   -9.9751    0.0000 C   0  0  0  0  0  0  0  0  0  0  0  0
    4.7809   -9.9751    0.0000 O   0  0  0  0  0  0  0  0  0  0  0  0
    6.0184  -10.6896    0.0000 O   0  0  0  0  0  0  0  0  0  0  0  0
  1  2  1  0  0  0  0
  2  3  1  0  0  0  0
  3  4  1  0  0  0  0
  4  5  1  0  0  0  0
  5  6  1  0  0  0  0
  6  1  1  0  0  0  0
  4  7  1  0  0  0  0
  7  8  1  0  0  0  0
  8  9  1  0  0  0  0
  9 10  1  0  0  0  0
 10  5  1  0  0  0  0
  9 11  1  0  0  0  0
 11 12  1  0  0  0  0
 12 13  2  0  0  0  0
 13 14  1  0  0  0  0
 14 10  1  0  0  0  0
 11 15  1  0  0  0  0
 15 16  1  0  0  0  0
 16 17  1  0  0  0  0
 17 18  1  0  0  0  0
 18 12  1  0  0  0  0
 17 19  1  0  0  0  0
 19 20  1  0  0  0  0
 20 21  1  0  0  0  0
 21 22  1  0  0  0  0
 22 18  1  0  0  0  0
  5 23  1  1  0  0  0
  9 24  1  1  0  0  0
 18 25  1  1  0  0  0
 17 26  1  1  0  0  0
 22 27  1  1  0  0  0
  2 28  1  6  0  0  0
  3 29  1  6  0  0  0
  4 30  1  6  0  0  0
 10 31  1  6  0  0  0
 11 32  1  6  0  0  0
 21 33  1  6  0  0  0
  3 34  1  1  0  0  0
 34 35  2  0  0  0  0
 34 36  1  0  0  0  0
M  END
>  <cdx:fragmentId>
5

$$$$
