17267.cdx
  Mrv1902 05222410212D          

 18 20  0  0  0  0            999 V2000
    7.1622  -10.1386    0.0000 C   0  0  0  0  0  0  0  0  0  0  0  0
    7.9714   -9.9782    0.0000 C   0  0  0  0  0  0  0  0  0  0  0  0
    8.2371   -9.1971    0.0000 N   0  0  0  0  0  0  0  0  0  0  0  0
    7.6935   -8.5765    0.0000 C   0  0  0  0  0  0  0  0  0  0  0  0
    4.7450   -8.5361    0.0000 C   0  0  0  0  0  0  0  0  0  0  0  0
    4.1846   -9.1416    0.0000 C   0  0  0  0  0  0  0  0  0  0  0  0
    4.4288   -9.9296    0.0000 C   0  0  0  0  0  0  0  0  0  0  0  0
    5.2333  -10.1122    0.0000 C   0  0  0  0  0  0  0  0  0  0  0  0
    6.6186   -9.5180    0.0000 C   0  0  0  0  0  0  0  0  0  0  0  0
    6.8843   -8.7370    0.0000 C   0  0  0  0  0  0  0  0  0  0  0  0
    6.2235   -8.2430    0.0000 N   0  0  0  0  0  0  0  0  0  0  0  0
    5.5495   -8.7187    0.0000 C   0  0  0  0  0  0  0  0  0  0  0  0
    5.7937   -9.5067    0.0000 C   0  0  0  0  0  0  0  0  0  0  0  0
    7.9592   -7.7955    0.0000 C   0  0  0  0  0  0  0  0  0  0  0  0
    8.7684   -7.6350    0.0000 C   0  0  0  0  0  0  0  0  0  0  0  0
    9.0341   -6.8540    0.0000 C   0  0  0  0  0  0  0  0  0  0  0  0
    8.4905   -6.2334    0.0000 O   0  0  0  0  0  0  0  0  0  0  0  0
    9.8433   -6.6935    0.0000 O   0  0  0  0  0  0  0  0  0  0  0  0
  1  9  1  0  0  0  0
  2  1  2  0  0  0  0
  3  2  1  0  0  0  0
  4  3  2  0  0  0  0
 10  4  1  0  0  0  0
  5 12  1  0  0  0  0
  6  5  2  0  0  0  0
  7  6  1  0  0  0  0
  8  7  2  0  0  0  0
 13  8  1  0  0  0  0
  9 13  1  0  0  0  0
 10  9  2  0  0  0  0
 11 10  1  0  0  0  0
 12 11  1  0  0  0  0
 13 12  2  0  0  0  0
  4 14  1  0  0  0  0
 14 15  1  0  0  0  0
 15 16  1  0  0  0  0
 16 17  2  0  0  0  0
 16 18  1  0  0  0  0
M  END
>  <cdx:fragmentId>
5

$$$$
