17269.cdx
  Mrv1902 05222410252D          

 38 41  0  0  0  0            999 V2000
    4.7283  -10.8401    0.0000 C   0  0  0  0  0  0  0  0  0  0  0  0
    4.0138  -11.2526    0.0000 C   0  0  0  0  0  0  0  0  0  0  0  0
    4.0138  -12.0776    0.0000 C   0  0  1  0  0  0  0  0  0  0  0  0
    4.7283  -12.4901    0.0000 C   0  0  0  0  0  0  0  0  0  0  0  0
    5.4428  -12.0776    0.0000 C   0  0  2  0  0  0  0  0  0  0  0  0
    6.1572  -12.4901    0.0000 C   0  0  0  0  0  0  0  0  0  0  0  0
    6.8717  -12.0776    0.0000 C   0  0  0  0  0  0  0  0  0  0  0  0
    6.8717  -11.2526    0.0000 C   0  0  1  0  0  0  0  0  0  0  0  0
    7.5862  -10.8401    0.0000 C   0  0  2  0  0  0  0  0  0  0  0  0
    8.3708  -11.0950    0.0000 C   0  0  0  0  0  0  0  0  0  0  0  0
    8.8557  -10.4276    0.0000 C   0  0  0  0  0  0  0  0  0  0  0  0
    8.3708   -9.7601    0.0000 C   0  0  1  0  0  0  0  0  0  0  0  0
    7.5862  -10.0151    0.0000 C   0  0  1  0  0  0  0  0  0  0  0  0
    6.8717   -9.6026    0.0000 C   0  0  0  0  0  0  0  0  0  0  0  0
    6.1572  -10.0151    0.0000 C   0  0  0  0  0  0  0  0  0  0  0  0
    6.1572  -10.8401    0.0000 C   0  0  2  0  0  0  0  0  0  0  0  0
    5.4428  -11.2526    0.0000 C   0  0  1  0  0  0  0  0  0  0  0  0
    6.1572  -13.3151    0.0000 O   0  0  0  0  0  0  0  0  0  0  0  0
    7.5862   -9.1901    0.0000 C   0  0  0  0  0  0  0  0  0  0  0  0
    5.4428  -10.4276    0.0000 C   0  0  0  0  0  0  0  0  0  0  0  0
    3.2994  -12.4901    0.0000 O   0  0  0  0  0  0  0  0  0  0  0  0
    8.0737   -8.3624    0.0000 C   0  0  0  0  0  0  0  0  0  0  0  0
    8.6257   -8.9755    0.0000 C   0  0  2  0  0  0  0  0  0  0  0  0
    9.4327   -8.8040    0.0000 C   0  0  2  0  0  0  0  0  0  0  0  0
    9.6877   -8.0194    0.0000 C   0  0  1  0  0  0  0  0  0  0  0  0
   10.4946   -7.8478    0.0000 C   0  0  2  0  0  0  0  0  0  0  0  0
   10.7496   -7.0632    0.0000 C   0  0  0  0  0  0  0  0  0  0  0  0
   10.1975   -6.4501    0.0000 C   0  0  0  0  0  0  0  0  0  0  0  0
   11.5565   -6.8917    0.0000 C   0  0  0  0  0  0  0  0  0  0  0  0
    9.1356   -7.4063    0.0000 O   0  0  0  0  0  0  0  0  0  0  0  0
    9.9847   -9.4171    0.0000 O   0  0  0  0  0  0  0  0  0  0  0  0
   11.0467   -8.4609    0.0000 C   0  0  0  0  0  0  0  0  0  0  0  0
   11.8536   -8.2894    0.0000 C   0  0  0  0  0  0  0  0  0  0  0  0
    5.4428  -12.9026    0.0000 H   0  0  0  0  0  0  0  0  0  0  0  0
    6.8717  -10.4276    0.0000 H   0  0  0  0  0  0  0  0  0  0  0  0
    6.1572  -11.6651    0.0000 H   0  0  0  0  0  0  0  0  0  0  0  0
    7.5862  -11.6651    0.0000 H   0  0  0  0  0  0  0  0  0  0  0  0
    9.1554   -9.5052    0.0000 H   0  0  0  0  0  0  0  0  0  0  0  0
  1  2  1  0  0  0  0
  2  3  1  0  0  0  0
  3  4  1  0  0  0  0
  4  5  1  0  0  0  0
  5  6  1  0  0  0  0
  6  7  1  0  0  0  0
  7  8  1  0  0  0  0
  8  9  1  0  0  0  0
  9 10  1  0  0  0  0
 10 11  1  0  0  0  0
 12 11  1  0  0  0  0
 12 13  1  0  0  0  0
  9 13  1  0  0  0  0
 13 14  1  0  0  0  0
 14 15  1  0  0  0  0
 15 16  1  0  0  0  0
  8 16  1  0  0  0  0
 16 17  1  0  0  0  0
  5 17  1  0  0  0  0
  1 17  1  0  0  0  0
  6 18  2  0  0  0  0
 13 19  1  1  0  0  0
 17 20  1  1  0  0  0
  3 21  1  1  0  0  0
 23 22  1  6  0  0  0
 23 24  1  0  0  0  0
 24 25  1  0  0  0  0
 25 26  1  0  0  0  0
 26 27  1  0  0  0  0
 27 28  1  0  0  0  0
 27 29  1  0  0  0  0
 25 30  1  6  0  0  0
 24 31  1  6  0  0  0
 32 33  1  0  0  0  0
 26 32  1  6  0  0  0
 12 23  1  0  0  0  0
  5 34  1  6  0  0  0
  8 35  1  1  0  0  0
 16 36  1  6  0  0  0
  9 37  1  6  0  0  0
 12 38  1  6  0  0  0
M  END
>  <cdx:fragmentId>
12451

$$$$
