17261.cdx
  Mrv1902 05222410222D          

 15 16  0  0  0  0            999 V2000
    5.1389   -7.5281    0.0000 C   0  0  0  0  0  0  0  0  0  0  0  0
    5.1389   -8.3531    0.0000 C   0  0  0  0  0  0  0  0  0  0  0  0
    5.8534   -8.7656    0.0000 C   0  0  0  0  0  0  0  0  0  0  0  0
    6.5678   -8.3531    0.0000 C   0  0  0  0  0  0  0  0  0  0  0  0
    6.5678   -7.5281    0.0000 C   0  0  0  0  0  0  0  0  0  0  0  0
    5.8534   -7.1156    0.0000 C   0  0  0  0  0  0  0  0  0  0  0  0
    7.2823   -8.7656    0.0000 C   0  0  0  0  0  0  0  0  0  0  0  0
    7.9968   -8.3531    0.0000 C   0  0  0  0  0  0  0  0  0  0  0  0
    7.9968   -7.5281    0.0000 C   0  0  0  0  0  0  0  0  0  0  0  0
    7.2823   -7.1156    0.0000 C   0  0  0  0  0  0  0  0  0  0  0  0
    5.8534   -6.2906    0.0000 C   0  0  0  0  0  0  0  0  0  0  0  0
    5.8534   -9.5906    0.0000 C   0  0  0  0  0  0  0  0  0  0  0  0
    5.1389  -10.0031    0.0000 C   0  0  0  0  0  0  0  0  0  0  0  0
    6.5678  -10.0031    0.0000 C   0  0  0  0  0  0  0  0  0  0  0  0
    8.7113   -8.7656    0.0000 C   0  0  0  0  0  0  0  0  0  0  0  0
  1  2  1  0  0  0  0
  2  3  1  0  0  0  0
  3  4  1  0  0  0  0
  4  5  2  0  0  0  0
  5  6  1  0  0  0  0
  6  1  1  0  0  0  0
  4  7  1  0  0  0  0
  7  8  2  0  0  0  0
  8  9  1  0  0  0  0
  9 10  2  0  0  0  0
 10  5  1  0  0  0  0
  6 11  2  0  0  0  0
  3 12  1  0  0  0  0
 12 13  1  0  0  0  0
 12 14  1  0  0  0  0
  8 15  1  0  0  0  0
M  END
>  <cdx:fragmentId>
5

$$$$
