17271.cdx
  Mrv1902 05222410212D          

 17 19  0  0  0  0            999 V2000
    5.4613   -7.2161    0.0000 C   0  0  0  0  0  0  0  0  0  0  0  0
    5.4696   -8.0411    0.0000 C   0  0  1  0  0  0  0  0  0  0  0  0
    6.1198   -8.5490    0.0000 C   0  0  2  0  0  0  0  0  0  0  0  0
    6.9222   -8.3573    0.0000 C   0  0  0  0  0  0  0  0  0  0  0  0
    7.2727   -7.6104    0.0000 C   0  0  0  0  0  0  0  0  0  0  0  0
    6.9073   -6.8708    0.0000 C   0  0  0  0  0  0  0  0  0  0  0  0
    6.1011   -6.6953    0.0000 C   0  0  2  0  0  0  0  0  0  0  0  0
    7.4847   -6.2816    0.0000 C   0  0  0  0  0  0  0  0  0  0  0  0
    5.0417   -6.5058    0.0000 C   0  0  0  0  0  0  0  0  0  0  0  0
    4.6666   -7.4377    0.0000 C   0  0  0  0  0  0  0  0  0  0  0  0
    4.7857   -8.5025    0.0000 C   0  0  0  0  0  0  0  0  0  0  0  0
    5.0132   -9.2955    0.0000 C   0  0  0  0  0  0  0  0  0  0  0  0
    5.8377   -9.3242    0.0000 C   0  0  1  0  0  0  0  0  0  0  0  0
    6.4279   -7.6952    0.0000 C   0  0  0  0  0  0  0  0  0  0  0  0
    6.0929   -5.8703    0.0000 H   0  0  0  0  0  0  0  0  0  0  0  0
    4.7511   -7.6358    0.0000 H   0  0  0  0  0  0  0  0  0  0  0  0
    6.2573  -10.0345    0.0000 C   0  0  0  0  0  0  0  0  0  0  0  0
  1  2  1  0  0  0  0
  2  3  1  0  0  0  0
  3  4  1  0  0  0  0
  4  5  1  0  0  0  0
  5  6  1  0  0  0  0
  6  7  1  0  0  0  0
  7  1  1  0  0  0  0
  6  8  2  0  0  0  0
  1  9  1  0  0  0  0
  1 10  1  0  0  0  0
  2 11  1  0  0  0  0
 11 12  1  0  0  0  0
 12 13  1  0  0  0  0
 13  3  1  0  0  0  0
  7 14  1  0  0  0  0
  3 14  1  1  0  0  0
  7 15  1  1  0  0  0
  2 16  1  6  0  0  0
 13 17  1  6  0  0  0
M  END
>  <cdx:fragmentId>
5

$$$$
