17296.cdx
  Mrv1902 05222410242D          

 16 17  0  0  0  0            999 V2000
    8.0581   -7.5694    0.0000 C   0  0  0  0  0  0  0  0  0  0  0  0
    8.0581   -6.7444    0.0000 C   0  0  0  0  0  0  0  0  0  0  0  0
    7.3437   -6.3319    0.0000 C   0  0  0  0  0  0  0  0  0  0  0  0
    6.6292   -6.7444    0.0000 C   0  0  0  0  0  0  0  0  0  0  0  0
    6.6292   -7.5694    0.0000 C   0  0  2  0  0  0  0  0  0  0  0  0
    7.3437   -7.9819    0.0000 C   0  0  0  0  0  0  0  0  0  0  0  0
    5.9147   -6.3319    0.0000 C   0  0  0  0  0  0  0  0  0  0  0  0
    5.2002   -6.7444    0.0000 C   0  0  0  0  0  0  0  0  0  0  0  0
    5.2002   -7.5694    0.0000 C   0  0  0  0  0  0  0  0  0  0  0  0
    5.9147   -7.9819    0.0000 C   0  0  0  0  0  0  0  0  0  0  0  0
    7.3437   -5.5069    0.0000 C   0  0  0  0  0  0  0  0  0  0  0  0
    4.4858   -6.3319    0.0000 C   0  0  0  0  0  0  0  0  0  0  0  0
    3.7713   -6.7444    0.0000 C   0  0  0  0  0  0  0  0  0  0  0  0
    4.4858   -5.5069    0.0000 C   0  0  0  0  0  0  0  0  0  0  0  0
    6.6292   -8.3944    0.0000 C   0  0  0  0  0  0  0  0  0  0  0  0
    8.7726   -6.3319    0.0000 O   0  0  0  0  0  0  0  0  0  0  0  0
  1  2  1  0  0  0  0
  2  3  1  0  0  0  0
  3  4  2  0  0  0  0
  4  5  1  0  0  0  0
  5  6  1  0  0  0  0
  6  1  1  0  0  0  0
  4  7  1  0  0  0  0
  7  8  2  0  0  0  0
  8  9  1  0  0  0  0
  9 10  1  0  0  0  0
 10  5  1  0  0  0  0
  3 11  1  0  0  0  0
  8 12  1  0  0  0  0
 12 13  1  0  0  0  0
 12 14  1  0  0  0  0
  5 15  1  1  0  0  0
  2 16  2  0  0  0  0
M  END
>  <cdx:fragmentId>
5

$$$$
