17299.cdx
  Mrv1902 05222410202D          

 14 16  0  0  0  0            999 V2000
    5.1934   -3.2586    0.0000 C   0  0  0  0  0  0  0  0  0  0  0  0
    5.8608   -3.7436    0.0000 C   0  0  0  0  0  0  0  0  0  0  0  0
    6.6678   -3.5720    0.0000 C   0  0  0  0  0  0  0  0  0  0  0  0
    7.2198   -4.1851    0.0000 C   0  0  0  0  0  0  0  0  0  0  0  0
    6.9649   -4.9697    0.0000 C   0  0  0  0  0  0  0  0  0  0  0  0
    6.1579   -5.1413    0.0000 C   0  0  0  0  0  0  0  0  0  0  0  0
    5.6059   -4.5282    0.0000 C   0  0  0  0  0  0  0  0  0  0  0  0
    4.7809   -4.5282    0.0000 C   0  0  0  0  0  0  0  0  0  0  0  0
    4.2288   -5.1413    0.0000 C   0  0  0  0  0  0  0  0  0  0  0  0
    3.4219   -4.9697    0.0000 C   0  0  0  0  0  0  0  0  0  0  0  0
    3.1669   -4.1851    0.0000 C   0  0  0  0  0  0  0  0  0  0  0  0
    3.7190   -3.5720    0.0000 C   0  0  0  0  0  0  0  0  0  0  0  0
    4.5259   -3.7436    0.0000 C   0  0  0  0  0  0  0  0  0  0  0  0
    5.1934   -2.4336    0.0000 C   0  0  0  0  0  0  0  0  0  0  0  0
  1  2  1  0  0  0  0
  2  3  1  0  0  0  0
  3  4  2  0  0  0  0
  4  5  1  0  0  0  0
  5  6  2  0  0  0  0
  6  7  1  0  0  0  0
  2  7  2  0  0  0  0
  7  8  1  0  0  0  0
  8  9  1  0  0  0  0
  9 10  2  0  0  0  0
 10 11  1  0  0  0  0
 11 12  2  0  0  0  0
 12 13  1  0  0  0  0
  8 13  2  0  0  0  0
  1 13  1  0  0  0  0
  1 14  1  0  0  0  0
M  END
>  <cdx:groupId>
46

>  <cdx:fragmentId>
5

$$$$
