17298.cdx
  Mrv1902 05222410212D          

 61 64  0  0  0  0            999 V2000
    5.5401   -8.1741    0.0000 C   0  0  1  0  0  0  0  0  0  0  0  0
    5.8098   -8.9538    0.0000 C   0  0  2  0  0  0  0  0  0  0  0  0
    6.6347   -8.9382    0.0000 C   0  0  1  0  0  0  0  0  0  0  0  0
    6.8748   -8.1489    0.0000 C   0  0  2  0  0  0  0  0  0  0  0  0
    6.1983   -7.6767    0.0000 O   0  0  0  0  0  0  0  0  0  0  0  0
    7.0472   -9.6527    0.0000 O   0  0  0  0  0  0  0  0  0  0  0  0
    4.6829  -10.9058    0.0000 C   0  0  0  0  0  0  0  0  0  0  0  0
    3.9684  -11.3183    0.0000 C   0  0  0  0  0  0  0  0  0  0  0  0
    2.5394  -13.7933    0.0000 O   0  0  0  0  0  0  0  0  0  0  0  0
    3.9684  -14.6183    0.0000 O   0  0  0  0  0  0  0  0  0  0  0  0
    3.2539  -12.5558    0.0000 C   0  0  0  0  0  0  0  0  0  0  0  0
    3.2539  -13.3808    0.0000 C   0  0  0  0  0  0  0  0  0  0  0  0
    3.9684  -13.7933    0.0000 C   0  0  0  0  0  0  0  0  0  0  0  0
    4.6829  -13.3808    0.0000 C   0  0  0  0  0  0  0  0  0  0  0  0
    4.6829  -12.5558    0.0000 C   0  0  0  0  0  0  0  0  0  0  0  0
    3.9684  -12.1433    0.0000 C   0  0  0  0  0  0  0  0  0  0  0  0
    3.9684   -9.6683    0.0000 O   0  0  0  0  0  0  0  0  0  0  0  0
    4.6829  -10.0808    0.0000 C   0  0  0  0  0  0  0  0  0  0  0  0
    5.3973   -9.6683    0.0000 O   0  0  0  0  0  0  0  0  0  0  0  0
    7.6544   -7.8792    0.0000 C   0  0  0  0  0  0  0  0  0  0  0  0
    4.7432   -8.3876    0.0000 O   0  0  0  0  0  0  0  0  0  0  0  0
    4.9568   -7.5908    0.0000 C   0  0  0  0  0  0  0  0  0  0  0  0
    5.1703   -6.7939    0.0000 O   0  0  0  0  0  0  0  0  0  0  0  0
    5.9672   -6.5803    0.0000 C   0  0  0  0  0  0  0  0  0  0  0  0
    6.5505   -7.1637    0.0000 C   0  0  0  0  0  0  0  0  0  0  0  0
    6.1807   -5.7835    0.0000 O   0  0  0  0  0  0  0  0  0  0  0  0
    4.1599   -7.8043    0.0000 C   0  0  2  0  0  0  0  0  0  0  0  0
    4.3734   -7.0074    0.0000 O   0  0  0  0  0  0  0  0  0  0  0  0
    3.7900   -6.4240    0.0000 C   0  0  1  0  0  0  0  0  0  0  0  0
    2.9931   -6.6376    0.0000 C   0  0  2  0  0  0  0  0  0  0  0  0
    2.7796   -7.4344    0.0000 C   0  0  1  0  0  0  0  0  0  0  0  0
    3.3630   -8.0178    0.0000 C   0  0  1  0  0  0  0  0  0  0  0  0
    4.0036   -5.6271    0.0000 C   0  0  0  0  0  0  0  0  0  0  0  0
    1.9827   -7.6480    0.0000 O   0  0  0  0  0  0  0  0  0  0  0  0
    3.1495   -8.8147    0.0000 O   0  0  0  0  0  0  0  0  0  0  0  0
    2.4098   -6.0542    0.0000 O   0  0  0  0  0  0  0  0  0  0  0  0
    3.4202   -5.0438    0.0000 O   0  0  0  0  0  0  0  0  0  0  0  0
    2.3526   -9.0282    0.0000 C   0  0  0  0  0  0  0  0  0  0  0  0
    1.7692   -8.4449    0.0000 C   0  0  0  0  0  0  0  0  0  0  0  0
    2.1390   -9.8251    0.0000 O   0  0  0  0  0  0  0  0  0  0  0  0
    1.6129   -6.2677    0.0000 C   0  0  0  0  0  0  0  0  0  0  0  0
    1.0295   -5.6844    0.0000 C   0  0  0  0  0  0  0  0  0  0  0  0
    1.3994   -7.0646    0.0000 O   0  0  0  0  0  0  0  0  0  0  0  0
    3.6337   -4.2469    0.0000 C   0  0  0  0  0  0  0  0  0  0  0  0
    3.0504   -3.6635    0.0000 O   0  0  0  0  0  0  0  0  0  0  0  0
    4.4306   -4.0334    0.0000 C   0  0  0  0  0  0  0  0  0  0  0  0
    2.5394  -14.6183    0.0000 C   0  0  0  0  0  0  0  0  0  0  0  0
    8.2778   -8.4196    0.0000 O   0  0  0  0  0  0  0  0  0  0  0  0
    9.0575   -8.1499    0.0000 C   0  0  0  0  0  0  0  0  0  0  0  0
    9.6809   -8.6902    0.0000 C   0  0  0  0  0  0  0  0  0  0  0  0
    9.2138   -7.3398    0.0000 O   0  0  0  0  0  0  0  0  0  0  0  0
   10.4606   -8.4205    0.0000 C   0  0  0  0  0  0  0  0  0  0  0  0
   11.0840   -8.9609    0.0000 C   0  0  0  0  0  0  0  0  0  0  0  0
   10.9277   -9.7710    0.0000 C   0  0  0  0  0  0  0  0  0  0  0  0
   11.5511  -10.3113    0.0000 C   0  0  0  0  0  0  0  0  0  0  0  0
   12.3308  -10.0416    0.0000 C   0  0  0  0  0  0  0  0  0  0  0  0
   12.4871   -9.2316    0.0000 C   0  0  0  0  0  0  0  0  0  0  0  0
   11.8637   -8.6912    0.0000 C   0  0  0  0  0  0  0  0  0  0  0  0
   12.9542  -10.5820    0.0000 O   0  0  0  0  0  0  0  0  0  0  0  0
   13.2667   -8.9618    0.0000 O   0  0  0  0  0  0  0  0  0  0  0  0
   13.8901   -9.5022    0.0000 C   0  0  0  0  0  0  0  0  0  0  0  0
  1  2  1  0  0  0  0
  2  3  1  0  0  0  0
  3  4  1  0  0  0  0
  4  5  1  0  0  0  0
  5  1  1  0  0  0  0
  3  6  1  1  0  0  0
  2 19  1  6  0  0  0
  7  8  2  0  0  0  0
 12  9  1  0  0  0  0
  8 16  1  0  0  0  0
 13 10  1  0  0  0  0
 11 16  1  0  0  0  0
 12 11  2  0  0  0  0
 13 12  1  0  0  0  0
 14 13  2  0  0  0  0
 15 14  1  0  0  0  0
 16 15  2  0  0  0  0
 18  7  1  0  0  0  0
 18 17  2  0  0  0  0
 19 18  1  0  0  0  0
  4 20  1  6  0  0  0
  1 21  1  6  0  0  0
  1 22  1  1  0  0  0
 22 23  1  0  0  0  0
 23 24  1  0  0  0  0
 24 25  1  0  0  0  0
 24 26  2  0  0  0  0
 27 21  1  1  0  0  0
 27 28  1  0  0  0  0
 28 29  1  0  0  0  0
 29 30  1  0  0  0  0
 30 31  1  0  0  0  0
 31 32  1  0  0  0  0
 32 27  1  0  0  0  0
 29 33  1  1  0  0  0
 31 34  1  1  0  0  0
 32 35  1  6  0  0  0
 30 36  1  6  0  0  0
 33 37  1  0  0  0  0
 35 38  1  0  0  0  0
 38 39  1  0  0  0  0
 38 40  2  0  0  0  0
 36 41  1  0  0  0  0
 41 42  1  0  0  0  0
 41 43  2  0  0  0  0
 37 44  1  0  0  0  0
 44 45  2  0  0  0  0
 44 46  1  0  0  0  0
  9 47  1  0  0  0  0
 20 48  1  0  0  0  0
 48 49  1  0  0  0  0
 49 50  1  0  0  0  0
 49 51  2  0  0  0  0
 50 52  2  0  0  0  0
 52 53  1  0  0  0  0
 53 54  2  0  0  0  0
 54 55  1  0  0  0  0
 55 56  2  0  0  0  0
 56 57  1  0  0  0  0
 57 58  2  0  0  0  0
 58 53  1  0  0  0  0
 56 59  1  0  0  0  0
 57 60  1  0  0  0  0
 60 61  1  0  0  0  0
M  END
>  <cdx:fragmentId>
5

$$$$
