172937.cdx
  Mrv1902 05222410222D          

 17 17  0  0  0  0            999 V2000
    8.2025   -8.5717    0.0000 C   0  0  0  0  0  0  0  0  0  0  0  0
    8.9169   -8.1592    0.0000 C   0  0  0  0  0  0  0  0  0  0  0  0
    9.6314   -8.5717    0.0000 C   0  0  0  0  0  0  0  0  0  0  0  0
    8.2025   -9.3967    0.0000 O   0  0  0  0  0  0  0  0  0  0  0  0
    8.9169   -7.3342    0.0000 O   0  0  0  0  0  0  0  0  0  0  0  0
    7.4880   -8.1592    0.0000 C   0  0  0  0  0  0  0  0  0  0  0  0
    7.4880   -7.3342    0.0000 C   0  0  0  0  0  0  0  0  0  0  0  0
    6.7735   -6.9217    0.0000 C   0  0  0  0  0  0  0  0  0  0  0  0
    6.0590   -7.3342    0.0000 C   0  0  0  0  0  0  0  0  0  0  0  0
    6.0590   -8.1592    0.0000 C   0  0  0  0  0  0  0  0  0  0  0  0
    6.7735   -8.5717    0.0000 C   0  0  0  0  0  0  0  0  0  0  0  0
    5.3446   -8.5717    0.0000 O   0  0  0  0  0  0  0  0  0  0  0  0
    4.6301   -8.1592    0.0000 C   0  0  0  0  0  0  0  0  0  0  0  0
    5.3446   -6.9217    0.0000 O   0  0  0  0  0  0  0  0  0  0  0  0
    4.6301   -7.3342    0.0000 C   0  0  0  0  0  0  0  0  0  0  0  0
    8.2025   -6.9217    0.0000 O   0  0  0  0  0  0  0  0  0  0  0  0
    8.2025   -6.0967    0.0000 C   0  0  0  0  0  0  0  0  0  0  0  0
  1  2  1  0  0  0  0
  2  3  1  0  0  0  0
  1  4  2  0  0  0  0
  2  5  2  0  0  0  0
  6  7  1  0  0  0  0
  7  8  2  0  0  0  0
  8  9  1  0  0  0  0
  9 10  2  0  0  0  0
 10 11  1  0  0  0  0
  6 11  2  0  0  0  0
 12 13  1  0  0  0  0
 10 12  1  0  0  0  0
 14 15  1  0  0  0  0
  9 14  1  0  0  0  0
 16 17  1  0  0  0  0
  7 16  1  0  0  0  0
  1  6  1  0  0  0  0
M  END
>  <cdx:fragmentId>
111088

$$$$
