173.cdx
  Mrv1902 05222410212D          

 14 14  0  0  0  0            999 V2000
    5.3493   -6.6000    0.0000 C   0  0  0  0  0  0  0  0  0  0  0  0
    5.3493   -7.4250    0.0000 C   0  0  0  0  0  0  0  0  0  0  0  0
    6.0638   -7.8375    0.0000 C   0  0  0  0  0  0  0  0  0  0  0  0
    6.7782   -7.4250    0.0000 C   0  0  0  0  0  0  0  0  0  0  0  0
    6.7782   -6.6000    0.0000 C   0  0  0  0  0  0  0  0  0  0  0  0
    6.0638   -6.1875    0.0000 C   0  0  0  0  0  0  0  0  0  0  0  0
    4.6348   -7.8375    0.0000 O   0  0  0  0  0  0  0  0  0  0  0  0
    7.4927   -6.1875    0.0000 C   0  0  0  0  0  0  0  0  0  0  0  0
    8.2072   -6.6000    0.0000 O   0  0  0  0  0  0  0  0  0  0  0  0
    7.4927   -5.3625    0.0000 O   0  0  0  0  0  0  0  0  0  0  0  0
    6.0638   -8.6625    0.0000 O   0  0  0  0  0  0  0  0  0  0  0  0
    4.6348   -6.1875    0.0000 O   0  0  0  0  0  0  0  0  0  0  0  0
    6.7782   -9.0750    0.0000 C   0  0  0  0  0  0  0  0  0  0  0  0
    3.9203   -6.6000    0.0000 C   0  0  0  0  0  0  0  0  0  0  0  0
  1  2  2  0  0  0  0
  2  3  1  0  0  0  0
  3  4  2  0  0  0  0
  4  5  1  0  0  0  0
  5  6  2  0  0  0  0
  6  1  1  0  0  0  0
  2  7  1  0  0  0  0
  5  8  1  0  0  0  0
  8  9  1  0  0  0  0
  8 10  2  0  0  0  0
  3 11  1  0  0  0  0
  1 12  1  0  0  0  0
 11 13  1  0  0  0  0
 12 14  1  0  0  0  0
M  END
>  <cdx:fragmentId>
1072

$$$$
