173158.cdx
  Mrv1902 05222410232D          

 42 46  0  0  0  0            999 V2000
   13.6259   -9.5466    0.0000 O   0  0  0  0  0  0  0  0  0  0  0  0
   13.6259   -7.8966    0.0000 O   0  0  0  0  0  0  0  0  0  0  0  0
   11.4825   -8.3091    0.0000 C   0  0  0  0  0  0  0  0  0  0  0  0
   12.1969   -7.8966    0.0000 C   0  0  0  0  0  0  0  0  0  0  0  0
   12.9114   -8.3091    0.0000 C   0  0  0  0  0  0  0  0  0  0  0  0
   12.9114   -9.1341    0.0000 C   0  0  0  0  0  0  0  0  0  0  0  0
   12.1969   -9.5466    0.0000 C   0  0  0  0  0  0  0  0  0  0  0  0
   11.4825   -9.1341    0.0000 C   0  0  0  0  0  0  0  0  0  0  0  0
    8.6246  -11.6091    0.0000 O   0  0  0  0  0  0  0  0  0  0  0  0
    7.1956  -10.7841    0.0000 O   0  0  0  0  0  0  0  0  0  0  0  0
    5.7667  -11.6091    0.0000 O   0  0  0  0  0  0  0  0  0  0  0  0
    4.3378  -10.7841    0.0000 O   0  0  0  0  0  0  0  0  0  0  0  0
    3.6233   -7.8966    0.0000 O   0  0  0  0  0  0  0  0  0  0  0  0
    2.1944   -7.0716    0.0000 O   0  0  0  0  0  0  0  0  0  0  0  0
    0.7654   -7.8966    0.0000 O   0  0  0  0  0  0  0  0  0  0  0  0
    0.7654   -9.5466    0.0000 C   0  0  0  0  0  0  0  0  0  0  0  0
    1.4799   -9.1341    0.0000 C   0  0  1  0  0  0  0  0  0  0  0  0
    1.4799   -8.3091    0.0000 C   0  0  1  0  0  0  0  0  0  0  0  0
    2.1944   -7.8966    0.0000 C   0  0  2  0  0  0  0  0  0  0  0  0
    2.9088   -8.3091    0.0000 C   0  0  2  0  0  0  0  0  0  0  0  0
    2.9088   -9.1341    0.0000 C   0  0  1  0  0  0  0  0  0  0  0  0
    2.1944   -9.5466    0.0000 O   0  0  0  0  0  0  0  0  0  0  0  0
    3.6233   -9.5466    0.0000 O   0  0  0  0  0  0  0  0  0  0  0  0
    4.3378   -9.1341    0.0000 C   0  0  0  0  0  0  0  0  0  0  0  0
    5.0522   -9.5466    0.0000 C   0  0  2  0  0  0  0  0  0  0  0  0
    5.0522  -10.3716    0.0000 C   0  0  2  0  0  0  0  0  0  0  0  0
    5.7667  -10.7841    0.0000 C   0  0  1  0  0  0  0  0  0  0  0  0
    6.4812  -10.3716    0.0000 C   0  0  2  0  0  0  0  0  0  0  0  0
    6.4812   -9.5466    0.0000 C   0  0  1  0  0  0  0  0  0  0  0  0
    5.7667   -9.1341    0.0000 O   0  0  0  0  0  0  0  0  0  0  0  0
    7.1956   -9.1341    0.0000 O   0  0  0  0  0  0  0  0  0  0  0  0
   10.0535  -11.6091    0.0000 O   0  0  0  0  0  0  0  0  0  0  0  0
   10.0535   -9.1341    0.0000 O   0  0  0  0  0  0  0  0  0  0  0  0
    9.3391   -9.5466    0.0000 C   0  0  0  0  0  0  0  0  0  0  0  0
    8.6246   -9.1341    0.0000 C   0  0  0  0  0  0  0  0  0  0  0  0
    7.9101   -9.5466    0.0000 C   0  0  0  0  0  0  0  0  0  0  0  0
    7.9101  -10.3716    0.0000 C   0  0  0  0  0  0  0  0  0  0  0  0
    8.6246  -10.7841    0.0000 C   0  0  0  0  0  0  0  0  0  0  0  0
    9.3391  -10.3716    0.0000 C   0  0  0  0  0  0  0  0  0  0  0  0
   10.0535  -10.7841    0.0000 C   0  0  0  0  0  0  0  0  0  0  0  0
   10.7680  -10.3716    0.0000 C   0  0  0  0  0  0  0  0  0  0  0  0
   10.7680   -9.5466    0.0000 C   0  0  1  0  0  0  0  0  0  0  0  0
 42  8  1  6  0  0  0
  6  1  1  0  0  0  0
  5  2  1  0  0  0  0
  8  3  2  0  0  0  0
  4  3  1  0  0  0  0
  5  4  2  0  0  0  0
  6  5  1  0  0  0  0
  7  6  2  0  0  0  0
  8  7  1  0  0  0  0
 38  9  1  0  0  0  0
 36 31  1  0  0  0  0
 29 31  1  1  0  0  0
 28 10  1  6  0  0  0
 27 11  1  1  0  0  0
 26 12  1  6  0  0  0
 25 24  1  1  0  0  0
 24 23  1  0  0  0  0
 21 23  1  6  0  0  0
 20 13  1  1  0  0  0
 19 14  1  1  0  0  0
 18 15  1  6  0  0  0
 17 16  1  1  0  0  0
 22 17  1  0  0  0  0
 18 17  1  0  0  0  0
 19 18  1  0  0  0  0
 20 19  1  0  0  0  0
 21 20  1  0  0  0  0
 22 21  1  0  0  0  0
 30 25  1  0  0  0  0
 26 25  1  0  0  0  0
 27 26  1  0  0  0  0
 28 27  1  0  0  0  0
 29 28  1  0  0  0  0
 30 29  1  0  0  0  0
 40 32  2  0  0  0  0
 42 33  1  0  0  0  0
 34 33  1  0  0  0  0
 39 34  2  0  0  0  0
 35 34  1  0  0  0  0
 36 35  2  0  0  0  0
 37 36  1  0  0  0  0
 38 37  2  0  0  0  0
 39 38  1  0  0  0  0
 40 39  1  0  0  0  0
 41 40  1  0  0  0  0
 42 41  1  0  0  0  0
M  END
>  <cdx:fragmentId>
45

$$$$
