1731.cdx
  Mrv1902 05222410192D          

 17 18  0  0  0  0            999 V2000
    9.2839   -6.6316    0.0000 C   0  0  0  0  0  0  0  0  0  0  0  0
    9.2725   -5.8066    0.0000 C   0  0  0  0  0  0  0  0  0  0  0  0
    8.5524   -5.4041    0.0000 C   0  0  0  0  0  0  0  0  0  0  0  0
    7.8437   -5.8264    0.0000 C   0  0  0  0  0  0  0  0  0  0  0  0
    7.8551   -6.6513    0.0000 C   0  0  2  0  0  0  0  0  0  0  0  0
    8.5752   -7.0539    0.0000 C   0  0  0  0  0  0  0  0  0  0  0  0
    7.1235   -5.4238    0.0000 C   0  0  0  0  0  0  0  0  0  0  0  0
    6.4148   -5.8461    0.0000 C   0  0  1  0  0  0  0  0  0  0  0  0
    6.4262   -6.6711    0.0000 C   0  0  0  0  0  0  0  0  0  0  0  0
    7.1463   -7.0736    0.0000 C   0  0  0  0  0  0  0  0  0  0  0  0
    7.8665   -7.4762    0.0000 C   0  0  0  0  0  0  0  0  0  0  0  0
    5.6947   -5.4435    0.0000 C   0  0  0  0  0  0  0  0  0  0  0  0
    5.7061   -6.2685    0.0000 O   0  0  0  0  0  0  0  0  0  0  0  0
    8.5410   -4.5791    0.0000 C   0  0  0  0  0  0  0  0  0  0  0  0
    9.9812   -5.3843    0.0000 O   0  0  0  0  0  0  0  0  0  0  0  0
    4.9860   -5.8659    0.0000 C   0  0  0  0  0  0  0  0  0  0  0  0
    5.6833   -4.6186    0.0000 C   0  0  0  0  0  0  0  0  0  0  0  0
  1  2  1  0  0  0  0
  2  3  1  0  0  0  0
  3  4  2  0  0  0  0
  4  5  1  0  0  0  0
  5  6  1  0  0  0  0
  6  1  1  0  0  0  0
  4  7  1  0  0  0  0
  7  8  1  0  0  0  0
  8  9  1  0  0  0  0
  9 10  1  0  0  0  0
 10  5  1  0  0  0  0
  5 11  1  1  0  0  0
  8 12  1  1  0  0  0
  8 13  1  6  0  0  0
  3 14  1  0  0  0  0
  2 15  2  0  0  0  0
 12 16  2  0  0  0  0
 12 17  1  0  0  0  0
M  END
>  <cdx:fragmentId>
5

$$$$
