17313.cdx
  Mrv1902 05222410212D          

 34 36  0  0  0  0            999 V2000
    6.5811  -11.2613    0.0000 C   0  0  1  0  0  0  0  0  0  0  0  0
    5.8666  -10.8488    0.0000 C   0  0  1  0  0  0  0  0  0  0  0  0
    5.8666  -10.0238    0.0000 C   0  0  2  0  0  0  0  0  0  0  0  0
    6.5811   -9.6112    0.0000 C   0  0  1  0  0  0  0  0  0  0  0  0
    7.2955  -10.0238    0.0000 O   0  0  0  0  0  0  0  0  0  0  0  0
    7.2955  -10.8488    0.0000 C   0  0  2  0  0  0  0  0  0  0  0  0
    6.5811   -8.7862    0.0000 O   0  0  0  0  0  0  0  0  0  0  0  0
    7.2955   -8.3737    0.0000 C   0  0  0  0  0  0  0  0  0  0  0  0
    7.2955   -7.5488    0.0000 C   0  0  1  0  0  0  0  0  0  0  0  0
    6.5811   -7.1362    0.0000 C   0  0  0  0  0  0  0  0  0  0  0  0
    8.0100   -8.7862    0.0000 C   0  0  1  0  0  0  0  0  0  0  0  0
    8.7245   -8.3737    0.0000 C   0  0  2  0  0  0  0  0  0  0  0  0
    8.7245   -7.5488    0.0000 C   0  0  1  0  0  0  0  0  0  0  0  0
    8.0100   -7.1362    0.0000 O   0  0  0  0  0  0  0  0  0  0  0  0
    9.4390   -7.1362    0.0000 O   0  0  0  0  0  0  0  0  0  0  0  0
    9.4390   -6.3113    0.0000 C   0  0  1  0  0  0  0  0  0  0  0  0
   10.1535   -5.8988    0.0000 C   0  0  2  0  0  0  0  0  0  0  0  0
   10.8679   -6.3113    0.0000 O   0  0  0  0  0  0  0  0  0  0  0  0
    8.7245   -5.8987    0.0000 C   0  0  2  0  0  0  0  0  0  0  0  0
    8.7246   -5.0737    0.0000 O   0  0  0  0  0  0  0  0  0  0  0  0
    9.4391   -4.6612    0.0000 C   0  0  1  0  0  0  0  0  0  0  0  0
   10.1535   -5.0738    0.0000 C   0  0  2  0  0  0  0  0  0  0  0  0
    8.0100  -11.2613    0.0000 C   0  0  0  0  0  0  0  0  0  0  0  0
    8.7245  -10.8488    0.0000 O   0  0  0  0  0  0  0  0  0  0  0  0
    5.8666   -7.5487    0.0000 O   0  0  0  0  0  0  0  0  0  0  0  0
    8.0101   -6.3112    0.0000 C   0  0  0  0  0  0  0  0  0  0  0  0
    7.2956   -5.8986    0.0000 O   0  0  0  0  0  0  0  0  0  0  0  0
    5.1521  -11.2613    0.0000 O   0  0  0  0  0  0  0  0  0  0  0  0
    8.0100   -9.6112    0.0000 O   0  0  0  0  0  0  0  0  0  0  0  0
   10.8680   -4.6613    0.0000 O   0  0  0  0  0  0  0  0  0  0  0  0
    9.4391   -3.8363    0.0000 O   0  0  0  0  0  0  0  0  0  0  0  0
    9.4390   -8.7862    0.0000 O   0  0  0  0  0  0  0  0  0  0  0  0
    5.1521   -9.6112    0.0000 O   0  0  0  0  0  0  0  0  0  0  0  0
    6.5811  -12.0862    0.0000 O   0  0  0  0  0  0  0  0  0  0  0  0
  1  2  1  0  0  0  0
  2  3  1  0  0  0  0
  3  4  1  0  0  0  0
  4  5  1  0  0  0  0
  5  6  1  0  0  0  0
  6  1  1  0  0  0  0
  4  7  1  6  0  0  0
  7  8  1  0  0  0  0
  8  9  1  0  0  0  0
  9 10  1  1  0  0  0
  8 11  1  0  0  0  0
 11 12  1  0  0  0  0
 12 13  1  0  0  0  0
 13 14  1  0  0  0  0
 14  9  1  0  0  0  0
 13 15  1  1  0  0  0
 16 15  1  6  0  0  0
 16 17  1  0  0  0  0
 17 18  1  1  0  0  0
 16 19  1  0  0  0  0
 19 20  1  0  0  0  0
 20 21  1  0  0  0  0
 21 22  1  0  0  0  0
 22 17  1  0  0  0  0
  6 23  1  6  0  0  0
 23 24  1  0  0  0  0
 10 25  1  0  0  0  0
 19 26  1  1  0  0  0
 26 27  1  0  0  0  0
  2 28  1  6  0  0  0
 11 29  1  1  0  0  0
 22 30  1  6  0  0  0
 21 31  1  6  0  0  0
 12 32  1  6  0  0  0
  3 33  1  1  0  0  0
  1 34  1  1  0  0  0
M  END
>  <cdx:fragmentId>
5

$$$$
