1732.cdx
  Mrv1902 05222410182D          

 19 20  0  0  0  0            999 V2000
    8.7788   -6.3114    0.0000 C   0  0  0  0  0  0  0  0  0  0  0  0
    8.7668   -5.4865    0.0000 C   0  0  0  0  0  0  0  0  0  0  0  0
    8.0465   -5.0845    0.0000 C   0  0  0  0  0  0  0  0  0  0  0  0
    7.3380   -5.5073    0.0000 C   0  0  0  0  0  0  0  0  0  0  0  0
    7.3500   -6.3322    0.0000 C   0  0  2  0  0  0  0  0  0  0  0  0
    8.0704   -6.7343    0.0000 C   0  0  1  0  0  0  0  0  0  0  0  0
    6.6177   -5.1052    0.0000 C   0  0  1  0  0  0  0  0  0  0  0  0
    5.9093   -5.5280    0.0000 C   0  0  1  0  0  0  0  0  0  0  0  0
    5.9212   -6.3529    0.0000 C   0  0  0  0  0  0  0  0  0  0  0  0
    6.6416   -6.7550    0.0000 C   0  0  0  0  0  0  0  0  0  0  0  0
    8.0345   -4.2595    0.0000 C   0  0  0  0  0  0  0  0  0  0  0  0
    5.1889   -5.1260    0.0000 C   0  0  0  0  0  0  0  0  0  0  0  0
    4.4805   -5.5488    0.0000 C   0  0  0  0  0  0  0  0  0  0  0  0
    5.1769   -4.3010    0.0000 C   0  0  0  0  0  0  0  0  0  0  0  0
    8.0824   -7.5592    0.0000 H   0  0  0  0  0  0  0  0  0  0  0  0
    7.3620   -7.1571    0.0000 C   0  0  0  0  0  0  0  0  0  0  0  0
    9.4752   -5.0637    0.0000 O   0  0  0  0  0  0  0  0  0  0  0  0
    6.6057   -4.2803    0.0000 O   0  0  0  0  0  0  0  0  0  0  0  0
    5.1948   -5.9405    0.0000 H   0  0  0  0  0  0  0  0  0  0  0  0
  1  2  1  0  0  0  0
  2  3  1  0  0  0  0
  3  4  2  0  0  0  0
  4  5  1  0  0  0  0
  5  6  1  0  0  0  0
  6  1  1  0  0  0  0
  4  7  1  0  0  0  0
  7  8  1  0  0  0  0
  8  9  1  0  0  0  0
  9 10  1  0  0  0  0
 10  5  1  0  0  0  0
  3 11  1  0  0  0  0
  8 12  1  1  0  0  0
 12 13  2  0  0  0  0
 12 14  1  0  0  0  0
  6 15  1  1  0  0  0
  5 16  1  1  0  0  0
  2 17  2  0  0  0  0
  7 18  1  1  0  0  0
  8 19  1  6  0  0  0
M  END
>  <cdx:fragmentId>
5

$$$$
