122173215.cdx
  Mrv1902 05222410252D          

 56 63  0  0  0  0            999 V2000
    3.3820   -7.1439    0.0000 O   0  0  0  0  0  0  0  0  0  0  0  0
    2.6676   -7.5564    0.0000 C   0  0  2  0  0  0  0  0  0  0  0  0
    1.9531   -7.1439    0.0000 C   0  0  1  0  0  0  0  0  0  0  0  0
    1.9531   -6.3189    0.0000 C   0  0  2  0  0  0  0  0  0  0  0  0
    2.6676   -5.9064    0.0000 C   0  0  2  0  0  0  0  0  0  0  0  0
    3.3820   -6.3189    0.0000 C   0  0  2  0  0  0  0  0  0  0  0  0
    1.2386   -7.5564    0.0000 O   0  0  0  0  0  0  0  0  0  0  0  0
    1.2386   -5.9064    0.0000 O   0  0  0  0  0  0  0  0  0  0  0  0
    2.6676   -5.0814    0.0000 O   0  0  0  0  0  0  0  0  0  0  0  0
    4.0965   -5.9064    0.0000 C   0  0  0  0  0  0  0  0  0  0  0  0
    2.6676   -8.3814    0.0000 O   0  0  0  0  0  0  0  0  0  0  0  0
    4.0965  -10.0314    0.0000 O   0  0  0  0  0  0  0  0  0  0  0  0
    3.3820   -9.6189    0.0000 C   0  0  2  0  0  0  0  0  0  0  0  0
    3.3820   -8.7939    0.0000 C   0  0  1  0  0  0  0  0  0  0  0  0
    4.0965   -8.3814    0.0000 C   0  0  1  0  0  0  0  0  0  0  0  0
    4.8110   -8.7939    0.0000 C   0  0  1  0  0  0  0  0  0  0  0  0
    4.8110   -9.6189    0.0000 C   0  0  1  0  0  0  0  0  0  0  0  0
    5.5254  -10.0314    0.0000 O   0  0  0  0  0  0  0  0  0  0  0  0
    9.0978   -8.7939    0.0000 C   0  0  1  0  0  0  0  0  0  0  0  0
    9.8123   -8.3814    0.0000 C   0  0  2  0  0  0  0  0  0  0  0  0
   10.5969   -8.6364    0.0000 C   0  0  0  0  0  0  0  0  0  0  0  0
   11.0818   -7.9689    0.0000 C   0  0  2  0  0  0  0  0  0  0  0  0
   11.8664   -7.7140    0.0000 O   0  0  0  0  0  0  0  0  0  0  0  0
   11.8664   -6.8890    0.0000 C   0  0  2  0  0  0  0  0  0  0  0  0
   11.0818   -6.6340    0.0000 C   0  0  2  0  0  0  0  0  0  0  0  0
   10.5969   -7.3015    0.0000 C   0  0  2  0  0  0  0  0  0  0  0  0
    9.8123   -7.5564    0.0000 C   0  0  1  0  0  0  0  0  0  0  0  0
    9.0978   -7.1439    0.0000 C   0  0  0  0  0  0  0  0  0  0  0  0
    8.3833   -7.5564    0.0000 C   0  0  0  0  0  0  0  0  0  0  0  0
    8.3833   -8.3814    0.0000 C   0  0  2  0  0  0  0  0  0  0  0  0
    7.6688   -8.7939    0.0000 C   0  0  1  0  0  0  0  0  0  0  0  0
    6.9544   -8.3814    0.0000 C   0  0  0  0  0  0  0  0  0  0  0  0
    6.2399   -8.7939    0.0000 C   0  0  0  0  0  0  0  0  0  0  0  0
    6.2399   -9.6189    0.0000 C   0  0  1  0  0  0  0  0  0  0  0  0
    6.9544  -10.0314    0.0000 C   0  0  0  0  0  0  0  0  0  0  0  0
    7.6688   -9.6189    0.0000 C   0  0  0  0  0  0  0  0  0  0  0  0
    8.3833  -10.0314    0.0000 C   0  0  0  0  0  0  0  0  0  0  0  0
    9.0978   -9.6189    0.0000 C   0  0  0  0  0  0  0  0  0  0  0  0
   11.7802   -6.0685    0.0000 N   0  0  0  0  0  0  0  0  0  0  0  0
   12.6201   -7.2245    0.0000 C   0  0  0  0  0  0  0  0  0  0  0  0
   13.2875   -6.7396    0.0000 C   0  0  0  0  0  0  0  0  0  0  0  0
   13.2013   -5.9191    0.0000 C   0  0  1  0  0  0  0  0  0  0  0  0
   12.4476   -5.5836    0.0000 C   0  0  0  0  0  0  0  0  0  0  0  0
    7.6688   -7.9689    0.0000 C   0  0  0  0  0  0  0  0  0  0  0  0
    9.6690   -6.7440    0.0000 C   0  0  0  0  0  0  0  0  0  0  0  0
   10.8269   -5.8494    0.0000 C   0  0  0  0  0  0  0  0  0  0  0  0
   13.8687   -5.4342    0.0000 C   0  0  0  0  0  0  0  0  0  0  0  0
    2.6676  -10.0314    0.0000 C   0  0  0  0  0  0  0  0  0  0  0  0
    1.9531   -9.6189    0.0000 O   0  0  0  0  0  0  0  0  0  0  0  0
    5.5254   -8.3814    0.0000 O   0  0  0  0  0  0  0  0  0  0  0  0
    4.0965   -7.5564    0.0000 O   0  0  0  0  0  0  0  0  0  0  0  0
    9.0978   -7.9689    0.0000 H   0  0  0  0  0  0  0  0  0  0  0  0
    9.8123   -9.2064    0.0000 H   0  0  0  0  0  0  0  0  0  0  0  0
   11.5667   -8.6364    0.0000 H   0  0  0  0  0  0  0  0  0  0  0  0
   10.2352   -6.5600    0.0000 H   0  0  0  0  0  0  0  0  0  0  0  0
    8.3833   -9.2064    0.0000 H   0  0  0  0  0  0  0  0  0  0  0  0
  1  2  1  0  0  0  0
  2  3  1  0  0  0  0
  3  4  1  0  0  0  0
  4  5  1  0  0  0  0
  5  6  1  0  0  0  0
  1  6  1  0  0  0  0
  3  7  1  6  0  0  0
  4  8  1  1  0  0  0
  5  9  1  1  0  0  0
  6 10  1  6  0  0  0
 12 13  1  0  0  0  0
 13 14  1  0  0  0  0
 14 15  1  0  0  0  0
 15 16  1  0  0  0  0
 16 17  1  0  0  0  0
 12 17  1  0  0  0  0
 19 20  1  0  0  0  0
 20 21  1  0  0  0  0
 21 22  1  0  0  0  0
 22 23  1  0  0  0  0
 23 24  1  0  0  0  0
 24 25  1  0  0  0  0
 25 26  1  0  0  0  0
 26 27  1  0  0  0  0
 27 28  1  0  0  0  0
 28 29  1  0  0  0  0
 29 30  1  0  0  0  0
 30 31  1  0  0  0  0
 31 32  1  0  0  0  0
 32 33  1  0  0  0  0
 33 34  1  0  0  0  0
 34 35  1  0  0  0  0
 35 36  1  0  0  0  0
 36 37  2  0  0  0  0
 37 38  1  0  0  0  0
 19 38  1  0  0  0  0
 19 30  1  0  0  0  0
 31 36  1  0  0  0  0
 20 27  1  0  0  0  0
 22 26  1  0  0  0  0
 40 41  1  0  0  0  0
 41 42  1  0  0  0  0
 42 43  1  0  0  0  0
 39 43  1  0  0  0  0
 24 39  1  6  0  0  0
 24 40  1  1  0  0  0
 31 44  1  1  0  0  0
 27 45  1  1  0  0  0
 25 46  1  6  0  0  0
 42 47  1  1  0  0  0
 34 18  1  1  0  0  0
 17 18  1  1  0  0  0
 48 49  1  0  0  0  0
 13 48  1  1  0  0  0
 16 50  1  6  0  0  0
 15 51  1  6  0  0  0
 14 11  1  6  0  0  0
  2 11  1  1  0  0  0
 19 52  1  1  0  0  0
 20 53  1  6  0  0  0
 22 54  1  6  0  0  0
 26 55  1  6  0  0  0
 30 56  1  6  0  0  0
M  END
>  <cdx:groupId>
303

>  <cdx:fragmentId>
167

$$$$
