1733.cdx
  Mrv1902 05222410182D          

 36 38  0  0  0  0            999 V2000
    1.3305  -10.1697    0.0000 C   0  0  0  0  0  0  0  0  0  0  0  0
    0.6161  -10.5822    0.0000 C   0  0  0  0  0  0  0  0  0  0  0  0
    1.3305   -9.3447    0.0000 O   0  0  0  0  0  0  0  0  0  0  0  0
    2.0450  -10.5822    0.0000 O   0  0  0  0  0  0  0  0  0  0  0  0
    2.7595  -10.1697    0.0000 C   0  0  0  0  0  0  0  0  0  0  0  0
    2.7595   -9.3447    0.0000 C   0  0  0  0  0  0  0  0  0  0  0  0
    3.4740   -8.9322    0.0000 C   0  0  0  0  0  0  0  0  0  0  0  0
    4.1884   -9.3447    0.0000 C   0  0  0  0  0  0  0  0  0  0  0  0
    4.1884  -10.1697    0.0000 C   0  0  0  0  0  0  0  0  0  0  0  0
    3.4740  -10.5822    0.0000 C   0  0  0  0  0  0  0  0  0  0  0  0
    4.9029   -8.9322    0.0000 C   0  0  0  0  0  0  0  0  0  0  0  0
    5.6174   -9.3447    0.0000 C   0  0  0  0  0  0  0  0  0  0  0  0
    6.3318   -8.9322    0.0000 C   0  0  0  0  0  0  0  0  0  0  0  0
    7.0463   -9.3447    0.0000 O   0  0  0  0  0  0  0  0  0  0  0  0
    7.7608   -8.9322    0.0000 C   0  0  0  0  0  0  0  0  0  0  0  0
    8.4753   -9.3447    0.0000 C   0  0  0  0  0  0  0  0  0  0  0  0
    9.1897   -8.9322    0.0000 C   0  0  0  0  0  0  0  0  0  0  0  0
    9.9042   -9.3447    0.0000 C   0  0  0  0  0  0  0  0  0  0  0  0
   10.6187   -8.9322    0.0000 C   0  0  0  0  0  0  0  0  0  0  0  0
    8.4753  -10.1697    0.0000 C   0  0  0  0  0  0  0  0  0  0  0  0
    9.1897  -10.5822    0.0000 O   0  0  0  0  0  0  0  0  0  0  0  0
    9.1897  -11.4072    0.0000 C   0  0  0  0  0  0  0  0  0  0  0  0
   11.3331   -9.3447    0.0000 C   0  0  0  0  0  0  0  0  0  0  0  0
   12.0476   -8.9322    0.0000 C   0  0  0  0  0  0  0  0  0  0  0  0
   12.7621   -9.3447    0.0000 C   0  0  0  0  0  0  0  0  0  0  0  0
   12.7621  -10.1697    0.0000 C   0  0  0  0  0  0  0  0  0  0  0  0
   12.0476  -10.5822    0.0000 C   0  0  0  0  0  0  0  0  0  0  0  0
   11.3331  -10.1697    0.0000 C   0  0  0  0  0  0  0  0  0  0  0  0
   13.4766  -10.5822    0.0000 O   0  0  0  0  0  0  0  0  0  0  0  0
    7.7608   -8.1072    0.0000 C   0  0  0  0  0  0  0  0  0  0  0  0
    7.0463   -7.6947    0.0000 C   0  0  0  0  0  0  0  0  0  0  0  0
    7.0463   -6.8697    0.0000 C   0  0  0  0  0  0  0  0  0  0  0  0
    7.7608   -6.4572    0.0000 C   0  0  0  0  0  0  0  0  0  0  0  0
    8.4753   -6.8697    0.0000 C   0  0  0  0  0  0  0  0  0  0  0  0
    8.4753   -7.6947    0.0000 C   0  0  0  0  0  0  0  0  0  0  0  0
    7.7608   -5.6322    0.0000 O   0  0  0  0  0  0  0  0  0  0  0  0
  1  2  1  0  0  0  0
  1  3  2  0  0  0  0
  1  4  1  0  0  0  0
  5  6  1  0  0  0  0
  6  7  2  0  0  0  0
  7  8  1  0  0  0  0
  8  9  2  0  0  0  0
  9 10  1  0  0  0  0
  5 10  2  0  0  0  0
 11 12  2  0  0  0  0
 12 13  1  0  0  0  0
 15 16  1  0  0  0  0
 16 17  1  0  0  0  0
 17 18  1  0  0  0  0
 18 19  2  0  0  0  0
 14 15  1  0  0  0  0
 21 22  1  0  0  0  0
 20 21  1  0  0  0  0
 16 20  1  0  0  0  0
 23 24  1  0  0  0  0
 24 25  2  0  0  0  0
 25 26  1  0  0  0  0
 26 27  2  0  0  0  0
 27 28  1  0  0  0  0
 23 28  2  0  0  0  0
 26 29  1  0  0  0  0
 19 23  1  0  0  0  0
 30 31  1  0  0  0  0
 31 32  2  0  0  0  0
 32 33  1  0  0  0  0
 33 34  2  0  0  0  0
 34 35  1  0  0  0  0
 30 35  2  0  0  0  0
 33 36  1  0  0  0  0
 15 30  1  0  0  0  0
 13 14  1  0  0  0  0
  8 11  1  0  0  0  0
  4  5  1  0  0  0  0
M  END
>  <cdx:fragmentId>
33

$$$$
