17331.cdx
  Mrv1902 05222410242D          

 15 16  0  0  0  0            999 V2000
    7.6377   -7.7914    0.0000 C   0  0  0  0  0  0  0  0  0  0  0  0
    8.4344   -7.5773    0.0000 C   0  0  1  0  0  0  0  0  0  0  0  0
    9.2311   -7.7914    0.0000 C   0  0  0  0  0  0  0  0  0  0  0  0
    9.6448   -7.0777    0.0000 C   0  0  0  0  0  0  0  0  0  0  0  0
    7.3638   -7.1877    0.0000 C   0  0  2  0  0  0  0  0  0  0  0  0
    8.8480   -6.8636    0.0000 C   0  0  1  0  0  0  0  0  0  0  0  0
    8.4358   -6.1499    0.0000 C   0  0  0  0  0  0  0  0  0  0  0  0
    8.1950   -8.3325    0.0000 H   0  0  0  0  0  0  0  0  0  0  0  0
    9.3225   -6.2700    0.0000 C   0  0  0  0  0  0  0  0  0  0  0  0
    7.5054   -8.4859    0.0000 C   0  0  0  0  0  0  0  0  0  0  0  0
    6.9905   -7.9893    0.0000 C   0  0  0  0  0  0  0  0  0  0  0  0
    6.7519   -6.8630    0.0000 O   0  0  0  0  0  0  0  0  0  0  0  0
    6.0526   -7.3007    0.0000 C   0  0  0  0  0  0  0  0  0  0  0  0
    5.3239   -6.9140    0.0000 C   0  0  0  0  0  0  0  0  0  0  0  0
    6.0820   -8.1252    0.0000 O   0  0  0  0  0  0  0  0  0  0  0  0
  1  2  1  0  0  0  0
  2  3  1  0  0  0  0
  3  4  1  0  0  0  0
  1  5  1  0  0  0  0
  5  6  1  0  0  0  0
  4  6  1  0  0  0  0
  6  7  1  0  0  0  0
  2  7  1  0  0  0  0
  2  8  1  1  0  0  0
  6  9  1  6  0  0  0
  1 10  1  0  0  0  0
  1 11  1  0  0  0  0
  5 12  1  1  0  0  0
 12 13  1  0  0  0  0
 13 14  1  0  0  0  0
 13 15  2  0  0  0  0
M  END
>  <cdx:fragmentId>
837

$$$$
