1734.cdx
  Mrv1902 05222410192D          

 25 26  0  0  0  0            999 V2000
    4.1299  -10.1697    0.0000 C   0  0  0  0  0  0  0  0  0  0  0  0
    4.1299   -9.3447    0.0000 C   0  0  0  0  0  0  0  0  0  0  0  0
    4.8443   -8.9322    0.0000 C   0  0  0  0  0  0  0  0  0  0  0  0
    5.5588   -9.3447    0.0000 C   0  0  0  0  0  0  0  0  0  0  0  0
    5.5588  -10.1697    0.0000 C   0  0  0  0  0  0  0  0  0  0  0  0
    4.8443  -10.5822    0.0000 C   0  0  0  0  0  0  0  0  0  0  0  0
    3.4154  -10.5822    0.0000 O   0  0  0  0  0  0  0  0  0  0  0  0
    6.2733   -8.9322    0.0000 C   0  0  0  0  0  0  0  0  0  0  0  0
    6.9878   -9.3447    0.0000 C   0  0  0  0  0  0  0  0  0  0  0  0
    7.7022   -8.9322    0.0000 C   0  0  0  0  0  0  0  0  0  0  0  0
    8.4167   -9.3447    0.0000 C   0  0  0  0  0  0  0  0  0  0  0  0
    9.1312   -8.9322    0.0000 C   0  0  0  0  0  0  0  0  0  0  0  0
    8.4167  -10.1697    0.0000 C   0  0  0  0  0  0  0  0  0  0  0  0
    9.1312  -10.5822    0.0000 O   0  0  0  0  0  0  0  0  0  0  0  0
    9.1312  -11.4072    0.0000 C   0  0  0  0  0  0  0  0  0  0  0  0
    9.1312   -8.1072    0.0000 C   0  0  0  0  0  0  0  0  0  0  0  0
    8.4167   -7.6947    0.0000 C   0  0  0  0  0  0  0  0  0  0  0  0
    8.4167   -6.8697    0.0000 C   0  0  0  0  0  0  0  0  0  0  0  0
    9.1312   -6.4572    0.0000 C   0  0  0  0  0  0  0  0  0  0  0  0
    9.8456   -6.8697    0.0000 C   0  0  0  0  0  0  0  0  0  0  0  0
    9.8456   -7.6947    0.0000 C   0  0  0  0  0  0  0  0  0  0  0  0
    9.1312   -5.6322    0.0000 O   0  0  0  0  0  0  0  0  0  0  0  0
    9.8456   -9.3447    0.0000 O   0  0  0  0  0  0  0  0  0  0  0  0
   10.5601   -8.9322    0.0000 C   0  0  0  0  0  0  0  0  0  0  0  0
   11.2746   -9.3447    0.0000 C   0  0  0  0  0  0  0  0  0  0  0  0
  1  2  1  0  0  0  0
  2  3  2  0  0  0  0
  3  4  1  0  0  0  0
  4  5  2  0  0  0  0
  5  6  1  0  0  0  0
  1  6  2  0  0  0  0
  1  7  1  0  0  0  0
  8  9  2  0  0  0  0
  9 10  1  0  0  0  0
 10 11  1  0  0  0  0
 11 12  1  0  0  0  0
 14 15  1  0  0  0  0
 13 14  1  0  0  0  0
 11 13  1  0  0  0  0
 16 17  1  0  0  0  0
 17 18  2  0  0  0  0
 18 19  1  0  0  0  0
 19 20  2  0  0  0  0
 20 21  1  0  0  0  0
 16 21  2  0  0  0  0
 19 22  1  0  0  0  0
 12 16  1  0  0  0  0
 24 25  1  0  0  0  0
 23 24  1  0  0  0  0
 12 23  1  0  0  0  0
  4  8  1  0  0  0  0
M  END
>  <cdx:fragmentId>
19

$$$$
