17349.cdx
  Mrv1902 05222410202D          

 28 29  0  0  0  0            999 V2000
    2.7464   -6.7856    0.0000 C   0  0  0  0  0  0  0  0  0  0  0  0
    2.7464   -7.6106    0.0000 C   0  0  0  0  0  0  0  0  0  0  0  0
    3.4609   -8.0231    0.0000 C   0  0  0  0  0  0  0  0  0  0  0  0
    4.1753   -7.6106    0.0000 C   0  0  0  0  0  0  0  0  0  0  0  0
    4.1753   -6.7856    0.0000 C   0  0  0  0  0  0  0  0  0  0  0  0
    3.4609   -6.3731    0.0000 C   0  0  0  0  0  0  0  0  0  0  0  0
    4.8898   -8.0231    0.0000 C   0  0  0  0  0  0  0  0  0  0  0  0
    5.6043   -7.6106    0.0000 C   0  0  0  0  0  0  0  0  0  0  0  0
    5.6043   -6.7856    0.0000 C   0  0  0  0  0  0  0  0  0  0  0  0
    4.8898   -6.3731    0.0000 C   0  0  0  0  0  0  0  0  0  0  0  0
    7.0332   -6.7856    0.0000 C   0  0  0  0  0  0  0  0  0  0  0  0
    6.3188   -6.3731    0.0000 C   0  0  1  0  0  0  0  0  0  0  0  0
    8.4622   -7.6106    0.0000 C   0  0  0  0  0  0  0  0  0  0  0  0
    8.4622   -6.7856    0.0000 C   0  0  0  0  0  0  0  0  0  0  0  0
    7.7477   -6.3731    0.0000 C   0  0  0  0  0  0  0  0  0  0  0  0
    9.1766   -6.3731    0.0000 C   0  0  0  0  0  0  0  0  0  0  0  0
    3.4609   -5.5481    0.0000 O   0  0  0  0  0  0  0  0  0  0  0  0
    3.4609   -8.8481    0.0000 O   0  0  0  0  0  0  0  0  0  0  0  0
    4.8898   -5.5481    0.0000 O   0  0  0  0  0  0  0  0  0  0  0  0
    4.8898   -8.8481    0.0000 O   0  0  0  0  0  0  0  0  0  0  0  0
    6.3188   -5.5481    0.0000 O   0  0  0  0  0  0  0  0  0  0  0  0
    7.0332   -5.1356    0.0000 C   0  0  0  0  0  0  0  0  0  0  0  0
    7.0332   -4.3106    0.0000 O   0  0  0  0  0  0  0  0  0  0  0  0
    7.7477   -5.5481    0.0000 C   0  0  0  0  0  0  0  0  0  0  0  0
    8.4622   -5.1356    0.0000 C   0  0  0  0  0  0  0  0  0  0  0  0
    8.8747   -5.8501    0.0000 C   0  0  0  0  0  0  0  0  0  0  0  0
    8.0497   -4.4212    0.0000 C   0  0  0  0  0  0  0  0  0  0  0  0
    9.1766   -4.7231    0.0000 O   0  0  0  0  0  0  0  0  0  0  0  0
  1  2  1  0  0  0  0
  2  3  2  0  0  0  0
  3  4  1  0  0  0  0
  4  5  2  0  0  0  0
  5  6  1  0  0  0  0
  6  1  2  0  0  0  0
  4  7  1  0  0  0  0
  7  8  1  0  0  0  0
  8  9  2  0  0  0  0
  9 10  1  0  0  0  0
 10  5  1  0  0  0  0
 11 12  1  0  0  0  0
 12  9  1  0  0  0  0
 13 14  1  0  0  0  0
 14 15  2  0  0  0  0
 15 11  1  0  0  0  0
 16 14  1  0  0  0  0
  6 17  1  0  0  0  0
  3 18  1  0  0  0  0
 10 19  2  0  0  0  0
  7 20  2  0  0  0  0
 12 21  1  6  0  0  0
 21 22  1  0  0  0  0
 22 23  2  0  0  0  0
 22 24  1  0  0  0  0
 24 25  1  0  0  0  0
 25 26  1  0  0  0  0
 25 27  1  0  0  0  0
 25 28  1  0  0  0  0
M  END
>  <cdx:fragmentId>
5

$$$$
