1735.cdx
  Mrv1902 05222410192D          

 24 25  0  0  0  0            999 V2000
    4.4871  -10.1697    0.0000 C   0  0  0  0  0  0  0  0  0  0  0  0
    4.4871   -9.3447    0.0000 C   0  0  0  0  0  0  0  0  0  0  0  0
    5.2016   -8.9322    0.0000 C   0  0  0  0  0  0  0  0  0  0  0  0
    5.9160   -9.3447    0.0000 C   0  0  0  0  0  0  0  0  0  0  0  0
    5.9160  -10.1697    0.0000 C   0  0  0  0  0  0  0  0  0  0  0  0
    5.2016  -10.5822    0.0000 C   0  0  0  0  0  0  0  0  0  0  0  0
    3.7726  -10.5822    0.0000 O   0  0  0  0  0  0  0  0  0  0  0  0
    6.6305   -8.9322    0.0000 C   0  0  0  0  0  0  0  0  0  0  0  0
    7.3450   -9.3447    0.0000 C   0  0  0  0  0  0  0  0  0  0  0  0
    8.0595   -8.9322    0.0000 C   0  0  0  0  0  0  0  0  0  0  0  0
    8.7739   -9.3447    0.0000 C   0  0  0  0  0  0  0  0  0  0  0  0
    9.4884   -8.9322    0.0000 C   0  0  0  0  0  0  0  0  0  0  0  0
    8.7739  -10.1697    0.0000 C   0  0  0  0  0  0  0  0  0  0  0  0
    9.4884  -10.5822    0.0000 O   0  0  0  0  0  0  0  0  0  0  0  0
    9.4884  -11.4072    0.0000 C   0  0  0  0  0  0  0  0  0  0  0  0
   10.2029   -9.3447    0.0000 O   0  0  0  0  0  0  0  0  0  0  0  0
   10.9173   -8.9322    0.0000 C   0  0  0  0  0  0  0  0  0  0  0  0
    9.4884   -8.1072    0.0000 C   0  0  0  0  0  0  0  0  0  0  0  0
    8.7739   -7.6947    0.0000 C   0  0  0  0  0  0  0  0  0  0  0  0
    8.7739   -6.8697    0.0000 C   0  0  0  0  0  0  0  0  0  0  0  0
    9.4884   -6.4572    0.0000 C   0  0  0  0  0  0  0  0  0  0  0  0
   10.2029   -6.8697    0.0000 C   0  0  0  0  0  0  0  0  0  0  0  0
   10.2029   -7.6947    0.0000 C   0  0  0  0  0  0  0  0  0  0  0  0
    9.4884   -5.6322    0.0000 O   0  0  0  0  0  0  0  0  0  0  0  0
  1  2  1  0  0  0  0
  2  3  2  0  0  0  0
  3  4  1  0  0  0  0
  4  5  2  0  0  0  0
  5  6  1  0  0  0  0
  1  6  2  0  0  0  0
  1  7  1  0  0  0  0
  8  9  2  0  0  0  0
  9 10  1  0  0  0  0
 10 11  1  0  0  0  0
 11 12  1  0  0  0  0
 14 15  1  0  0  0  0
 13 14  1  0  0  0  0
 11 13  1  0  0  0  0
 16 17  1  0  0  0  0
 12 16  1  0  0  0  0
 18 19  1  0  0  0  0
 19 20  2  0  0  0  0
 20 21  1  0  0  0  0
 21 22  2  0  0  0  0
 22 23  1  0  0  0  0
 18 23  2  0  0  0  0
 21 24  1  0  0  0  0
 12 18  1  0  0  0  0
  4  8  1  0  0  0  0
M  END
>  <cdx:fragmentId>
19

$$$$
