17355.cdx
  Mrv1902 05222410282D          

 11 11  0  0  0  0            999 V2000
    7.0721   -3.7466    0.0000 C   0  0  0  0  0  0  0  0  0  0  0  0
    6.3576   -3.3341    0.0000 C   0  0  0  0  0  0  0  0  0  0  0  0
    5.6432   -3.7466    0.0000 C   0  0  0  0  0  0  0  0  0  0  0  0
    4.9287   -3.3341    0.0000 C   0  0  0  0  0  0  0  0  0  0  0  0
    6.3576   -2.5091    0.0000 O   0  0  0  0  0  0  0  0  0  0  0  0
    4.2142   -3.7466    0.0000 C   0  0  0  0  0  0  0  0  0  0  0  0
    3.4997   -3.3341    0.0000 C   0  0  0  0  0  0  0  0  0  0  0  0
    2.7853   -3.7466    0.0000 C   0  0  0  0  0  0  0  0  0  0  0  0
    2.7853   -4.5716    0.0000 C   0  0  0  0  0  0  0  0  0  0  0  0
    3.4997   -4.9841    0.0000 C   0  0  0  0  0  0  0  0  0  0  0  0
    4.2142   -4.5716    0.0000 C   0  0  0  0  0  0  0  0  0  0  0  0
  1  2  1  0  0  0  0
  2  3  1  0  0  0  0
  3  4  1  0  0  0  0
  2  5  2  0  0  0  0
  6  7  1  0  0  0  0
  7  8  2  0  0  0  0
  8  9  1  0  0  0  0
  9 10  2  0  0  0  0
 10 11  1  0  0  0  0
  6 11  2  0  0  0  0
  4  6  1  0  0  0  0
M  END
>  <cdx:groupId>
35

>  <cdx:fragmentId>
15

$$$$
