1736.cdx
  Mrv1902 05222410202D          

 22 23  0  0  0  0            999 V2000
    8.6246   -8.8772    0.0000 C   0  0  0  0  0  0  0  0  0  0  0  0
    7.9101   -8.4647    0.0000 C   0  0  0  0  0  0  0  0  0  0  0  0
    7.9101   -7.6397    0.0000 C   0  0  0  0  0  0  0  0  0  0  0  0
    8.6246   -9.7022    0.0000 O   0  0  0  0  0  0  0  0  0  0  0  0
    8.6246   -7.2272    0.0000 O   0  0  0  0  0  0  0  0  0  0  0  0
    7.1956   -8.8772    0.0000 C   0  0  0  0  0  0  0  0  0  0  0  0
    6.4812   -8.4647    0.0000 C   0  0  0  0  0  0  0  0  0  0  0  0
    5.7667   -8.8772    0.0000 C   0  0  0  0  0  0  0  0  0  0  0  0
    5.0522   -8.4647    0.0000 C   0  0  0  0  0  0  0  0  0  0  0  0
    4.3378   -8.8772    0.0000 C   0  0  0  0  0  0  0  0  0  0  0  0
    3.6233   -8.4647    0.0000 C   0  0  0  0  0  0  0  0  0  0  0  0
    3.6233   -7.6397    0.0000 C   0  0  0  0  0  0  0  0  0  0  0  0
    4.3378   -7.2272    0.0000 C   0  0  0  0  0  0  0  0  0  0  0  0
    5.0522   -7.6397    0.0000 C   0  0  0  0  0  0  0  0  0  0  0  0
    2.9088   -7.2272    0.0000 O   0  0  0  0  0  0  0  0  0  0  0  0
    9.3391   -8.4647    0.0000 C   0  0  0  0  0  0  0  0  0  0  0  0
    9.3391   -7.6397    0.0000 C   0  0  0  0  0  0  0  0  0  0  0  0
   10.0535   -7.2272    0.0000 C   0  0  0  0  0  0  0  0  0  0  0  0
   10.7680   -7.6397    0.0000 C   0  0  0  0  0  0  0  0  0  0  0  0
   10.7680   -8.4647    0.0000 C   0  0  0  0  0  0  0  0  0  0  0  0
   10.0535   -8.8772    0.0000 C   0  0  0  0  0  0  0  0  0  0  0  0
   11.4825   -7.2272    0.0000 O   0  0  0  0  0  0  0  0  0  0  0  0
  1  2  1  0  0  0  0
  2  3  1  0  0  0  0
  1  4  1  0  0  0  0
  3  5  1  0  0  0  0
  6  7  1  0  0  0  0
  7  8  2  0  0  0  0
  9 10  1  0  0  0  0
 10 11  2  0  0  0  0
 11 12  1  0  0  0  0
 12 13  2  0  0  0  0
 13 14  1  0  0  0  0
  9 14  2  0  0  0  0
 12 15  1  0  0  0  0
  8  9  1  0  0  0  0
  2  6  1  0  0  0  0
 16 17  1  0  0  0  0
 17 18  2  0  0  0  0
 18 19  1  0  0  0  0
 19 20  2  0  0  0  0
 20 21  1  0  0  0  0
 16 21  2  0  0  0  0
 19 22  1  0  0  0  0
  1 16  1  0  0  0  0
M  END
>  <cdx:fragmentId>
21

$$$$
