1737.cdx
  Mrv1902 05222410202D          

 23 24  0  0  0  0            999 V2000
    8.2674   -9.5429    0.0000 C   0  0  0  0  0  0  0  0  0  0  0  0
    8.9818   -9.9554    0.0000 C   0  0  0  0  0  0  0  0  0  0  0  0
    8.2674   -8.7179    0.0000 C   0  0  0  0  0  0  0  0  0  0  0  0
    8.9818   -8.3054    0.0000 O   0  0  0  0  0  0  0  0  0  0  0  0
    8.9818   -7.4804    0.0000 C   0  0  0  0  0  0  0  0  0  0  0  0
    9.6963   -9.5429    0.0000 C   0  0  0  0  0  0  0  0  0  0  0  0
    9.6963   -8.7179    0.0000 C   0  0  0  0  0  0  0  0  0  0  0  0
   10.4108   -8.3054    0.0000 C   0  0  0  0  0  0  0  0  0  0  0  0
   11.1252   -8.7179    0.0000 C   0  0  0  0  0  0  0  0  0  0  0  0
   11.1252   -9.5429    0.0000 C   0  0  0  0  0  0  0  0  0  0  0  0
   10.4108   -9.9554    0.0000 C   0  0  0  0  0  0  0  0  0  0  0  0
   11.8397   -8.3054    0.0000 O   0  0  0  0  0  0  0  0  0  0  0  0
    8.9818  -10.7804    0.0000 O   0  0  0  0  0  0  0  0  0  0  0  0
    7.5529   -9.9554    0.0000 C   0  0  0  0  0  0  0  0  0  0  0  0
    6.8384   -9.5429    0.0000 C   0  0  0  0  0  0  0  0  0  0  0  0
    6.1239   -9.9554    0.0000 C   0  0  0  0  0  0  0  0  0  0  0  0
    3.2661   -8.3054    0.0000 O   0  0  0  0  0  0  0  0  0  0  0  0
    4.6950   -8.3054    0.0000 C   0  0  0  0  0  0  0  0  0  0  0  0
    5.4095   -8.7179    0.0000 C   0  0  0  0  0  0  0  0  0  0  0  0
    5.4095   -9.5429    0.0000 C   0  0  0  0  0  0  0  0  0  0  0  0
    4.6950   -9.9554    0.0000 C   0  0  0  0  0  0  0  0  0  0  0  0
    3.9805   -9.5429    0.0000 C   0  0  0  0  0  0  0  0  0  0  0  0
    3.9805   -8.7179    0.0000 C   0  0  0  0  0  0  0  0  0  0  0  0
 20 16  1  0  0  0  0
 14  1  1  0  0  0  0
 15 14  1  0  0  0  0
 16 15  2  0  0  0  0
 23 17  1  0  0  0  0
 23 18  2  0  0  0  0
 19 18  1  0  0  0  0
 20 19  2  0  0  0  0
 21 20  1  0  0  0  0
 22 21  2  0  0  0  0
 23 22  1  0  0  0  0
  1  2  1  0  0  0  0
  4  5  1  0  0  0  0
  3  4  1  0  0  0  0
  1  3  1  0  0  0  0
  6  7  1  0  0  0  0
  7  8  2  0  0  0  0
  8  9  1  0  0  0  0
  9 10  2  0  0  0  0
 10 11  1  0  0  0  0
  6 11  2  0  0  0  0
  9 12  1  0  0  0  0
  2  6  1  0  0  0  0
  2 13  1  0  0  0  0
M  END
>  <cdx:fragmentId>
19

$$$$
