17387.cdx
  Mrv1902 05222410262D          

 51 54  0  0  0  0            999 V2000
   15.7711   -9.8206    0.0000 C   0  0  0  0  0  0  0  0  0  0  0  0
   15.7711  -10.6456    0.0000 C   0  0  1  0  0  0  0  0  0  0  0  0
   16.4856  -11.0581    0.0000 C   0  0  0  0  0  0  0  0  0  0  0  0
   17.2001  -10.6456    0.0000 C   0  0  0  0  0  0  0  0  0  0  0  0
   17.2001   -9.8206    0.0000 C   0  0  2  0  0  0  0  0  0  0  0  0
   16.4856   -9.4081    0.0000 C   0  0  0  0  0  0  0  0  0  0  0  0
   17.9145  -11.0581    0.0000 C   0  0  0  0  0  0  0  0  0  0  0  0
   18.6290  -10.6456    0.0000 C   0  0  0  0  0  0  0  0  0  0  0  0
   18.6290   -9.8206    0.0000 C   0  0  2  0  0  0  0  0  0  0  0  0
   17.9145   -9.4081    0.0000 C   0  0  2  0  0  0  0  0  0  0  0  0
   19.3435   -9.4081    0.0000 C   0  0  1  0  0  0  0  0  0  0  0  0
   19.3435   -8.5831    0.0000 C   0  0  2  0  0  0  0  0  0  0  0  0
   18.6290   -8.1706    0.0000 C   0  0  0  0  0  0  0  0  0  0  0  0
   17.9145   -8.5831    0.0000 C   0  0  0  0  0  0  0  0  0  0  0  0
   20.1281   -9.6631    0.0000 C   0  0  0  0  0  0  0  0  0  0  0  0
   20.6130   -8.9956    0.0000 C   0  0  0  0  0  0  0  0  0  0  0  0
   20.1281   -8.3282    0.0000 C   0  0  2  0  0  0  0  0  0  0  0  0
   20.3416   -7.5313    0.0000 C   0  0  1  0  0  0  0  0  0  0  0  0
   21.1385   -7.3178    0.0000 C   0  0  0  0  0  0  0  0  0  0  0  0
   15.0567  -11.0581    0.0000 O   0  0  0  0  0  0  0  0  0  0  0  0
   17.2001   -8.9956    0.0000 C   0  0  0  0  0  0  0  0  0  0  0  0
   19.3435   -7.7581    0.0000 C   0  0  0  0  0  0  0  0  0  0  0  0
   19.7583   -6.9480    0.0000 C   0  0  0  0  0  0  0  0  0  0  0  0
   21.3521   -6.5209    0.0000 C   0  0  0  0  0  0  0  0  0  0  0  0
   22.1375   -6.2975    0.0000 C   0  0  2  0  0  0  0  0  0  0  0  0
   22.3510   -5.5006    0.0000 C   0  0  0  0  0  0  0  0  0  0  0  0
   23.1479   -5.2871    0.0000 C   0  0  0  0  0  0  0  0  0  0  0  0
   21.7677   -4.9172    0.0000 C   0  0  0  0  0  0  0  0  0  0  0  0
   22.7209   -6.8809    0.0000 C   0  0  0  0  0  0  0  0  0  0  0  0
   23.5178   -6.6673    0.0000 C   0  0  0  0  0  0  0  0  0  0  0  0
   17.9145  -10.2331    0.0000 H   0  0  0  0  0  0  0  0  0  0  0  0
   18.6290   -8.9956    0.0000 H   0  0  0  0  0  0  0  0  0  0  0  0
   19.3435  -10.2331    0.0000 H   0  0  0  0  0  0  0  0  0  0  0  0
   20.9250   -8.1147    0.0000 H   0  0  0  0  0  0  0  0  0  0  0  0
   14.3422  -10.6456    0.0000 C   0  0  0  0  0  0  0  0  0  0  0  0
   13.6277  -11.0581    0.0000 C   0  0  0  0  0  0  0  0  0  0  0  0
   14.3422   -9.8206    0.0000 O   0  0  0  0  0  0  0  0  0  0  0  0
   12.9132  -10.6456    0.0000 C   0  0  0  0  0  0  0  0  0  0  0  0
   12.1988  -11.0581    0.0000 C   0  0  0  0  0  0  0  0  0  0  0  0
   11.4843  -10.6456    0.0000 C   0  0  0  0  0  0  0  0  0  0  0  0
   10.7698  -11.0581    0.0000 C   0  0  0  0  0  0  0  0  0  0  0  0
   10.0554  -10.6456    0.0000 C   0  0  0  0  0  0  0  0  0  0  0  0
    9.3409  -11.0581    0.0000 C   0  0  0  0  0  0  0  0  0  0  0  0
    8.6264  -10.6456    0.0000 C   0  0  0  0  0  0  0  0  0  0  0  0
    7.9120  -11.0581    0.0000 C   0  0  0  0  0  0  0  0  0  0  0  0
    7.1975  -10.6456    0.0000 C   0  0  0  0  0  0  0  0  0  0  0  0
    6.4830  -11.0581    0.0000 C   0  0  0  0  0  0  0  0  0  0  0  0
    5.7685  -10.6456    0.0000 C   0  0  0  0  0  0  0  0  0  0  0  0
    5.0541  -11.0581    0.0000 C   0  0  0  0  0  0  0  0  0  0  0  0
    4.3396  -10.6456    0.0000 C   0  0  0  0  0  0  0  0  0  0  0  0
    3.6251  -11.0581    0.0000 C   0  0  0  0  0  0  0  0  0  0  0  0
  1  2  1  0  0  0  0
  2  3  1  0  0  0  0
  3  4  1  0  0  0  0
  4  5  1  0  0  0  0
  5  6  1  0  0  0  0
  6  1  1  0  0  0  0
  4  7  2  0  0  0  0
  7  8  1  0  0  0  0
  8  9  1  0  0  0  0
  9 10  1  0  0  0  0
 10  5  1  0  0  0  0
  9 11  1  0  0  0  0
 11 12  1  0  0  0  0
 12 13  1  0  0  0  0
 13 14  1  0  0  0  0
 14 10  1  0  0  0  0
 11 15  1  0  0  0  0
 15 16  1  0  0  0  0
 16 17  1  0  0  0  0
 17 12  1  0  0  0  0
 17 18  1  0  0  0  0
 18 19  1  0  0  0  0
  2 20  1  1  0  0  0
  5 21  1  1  0  0  0
 12 22  1  1  0  0  0
 18 23  1  6  0  0  0
 19 24  1  0  0  0  0
 25 24  1  6  0  0  0
 25 26  1  0  0  0  0
 26 27  1  0  0  0  0
 26 28  1  0  0  0  0
 25 29  1  0  0  0  0
 29 30  1  0  0  0  0
 10 31  1  6  0  0  0
  9 32  1  1  0  0  0
 11 33  1  6  0  0  0
 17 34  1  6  0  0  0
 20 35  1  0  0  0  0
 35 36  1  0  0  0  0
 35 37  2  0  0  0  0
 36 38  1  0  0  0  0
 38 39  1  0  0  0  0
 39 40  1  0  0  0  0
 40 41  1  0  0  0  0
 41 42  1  0  0  0  0
 42 43  1  0  0  0  0
 43 44  1  0  0  0  0
 44 45  1  0  0  0  0
 45 46  1  0  0  0  0
 46 47  1  0  0  0  0
 47 48  1  0  0  0  0
 48 49  1  0  0  0  0
 49 50  1  0  0  0  0
 50 51  1  0  0  0  0
M  END
>  <cdx:fragmentId>
5

$$$$
