1738.cdx
  Mrv1902 05222410272D          

 13 13  0  0  0  0            999 V2000
    5.6751   -3.5552    0.0000 C   0  0  0  0  0  0  0  0  0  0  0  0
    4.9606   -3.9677    0.0000 C   0  0  0  0  0  0  0  0  0  0  0  0
    5.6751   -2.7302    0.0000 O   0  0  0  0  0  0  0  0  0  0  0  0
    6.3895   -3.9677    0.0000 O   0  0  0  0  0  0  0  0  0  0  0  0
    4.2461   -3.5552    0.0000 C   0  0  0  0  0  0  0  0  0  0  0  0
    3.5317   -3.9677    0.0000 C   0  0  0  0  0  0  0  0  0  0  0  0
    2.8172   -3.5552    0.0000 C   0  0  0  0  0  0  0  0  0  0  0  0
    2.8172   -2.7302    0.0000 C   0  0  0  0  0  0  0  0  0  0  0  0
    3.5317   -2.3177    0.0000 C   0  0  0  0  0  0  0  0  0  0  0  0
    4.2461   -2.7302    0.0000 C   0  0  0  0  0  0  0  0  0  0  0  0
    2.1027   -3.9677    0.0000 O   0  0  0  0  0  0  0  0  0  0  0  0
    1.3882   -3.5552    0.0000 C   0  0  0  0  0  0  0  0  0  0  0  0
    2.1027   -2.3177    0.0000 O   0  0  0  0  0  0  0  0  0  0  0  0
  1  2  1  0  0  0  0
  1  3  2  0  0  0  0
  1  4  1  0  0  0  0
  5  6  1  0  0  0  0
  6  7  2  0  0  0  0
  7  8  1  0  0  0  0
  8  9  2  0  0  0  0
  9 10  1  0  0  0  0
  5 10  2  0  0  0  0
 11 12  1  0  0  0  0
  7 11  1  0  0  0  0
  8 13  1  0  0  0  0
  2  5  1  0  0  0  0
M  END
>  <cdx:groupId>
41

>  <cdx:fragmentId>
13

$$$$
