173829.cdx
  Mrv1902 05222410222D          

 63 70  0  0  0  0            999 V2000
    5.8393   -5.3570    0.0000 O   0  0  0  0  0  0  0  0  0  0  0  0
    8.6972  -11.1320    0.0000 O   0  0  0  0  0  0  0  0  0  0  0  0
   10.8406   -9.0695    0.0000 O   0  0  0  0  0  0  0  0  0  0  0  0
   10.1261   -8.6570    0.0000 C   0  0  0  0  0  0  0  0  0  0  0  0
    7.2683  -11.1320    0.0000 O   0  0  0  0  0  0  0  0  0  0  0  0
    5.8393  -12.7820    0.0000 O   0  0  0  0  0  0  0  0  0  0  0  0
    4.4104  -13.6070    0.0000 O   0  0  0  0  0  0  0  0  0  0  0  0
    2.9814  -12.7820    0.0000 O   0  0  0  0  0  0  0  0  0  0  0  0
    2.2670  -11.5445    0.0000 O   0  0  0  0  0  0  0  0  0  0  0  0
    2.9814  -11.1320    0.0000 C   0  0  0  0  0  0  0  0  0  0  0  0
    3.6959  -11.5445    0.0000 C   0  0  2  0  0  0  0  0  0  0  0  0
    3.6959  -12.3695    0.0000 C   0  0  2  0  0  0  0  0  0  0  0  0
    4.4104  -12.7820    0.0000 C   0  0  1  0  0  0  0  0  0  0  0  0
    5.1248  -12.3695    0.0000 C   0  0  2  0  0  0  0  0  0  0  0  0
    5.1248  -11.5445    0.0000 C   0  0  1  0  0  0  0  0  0  0  0  0
    4.4104  -11.1320    0.0000 O   0  0  0  0  0  0  0  0  0  0  0  0
    5.8393  -11.1320    0.0000 O   0  0  0  0  0  0  0  0  0  0  0  0
    7.9827   -9.0695    0.0000 C   0  0  0  0  0  0  0  0  0  0  0  0
    7.2683   -8.6570    0.0000 C   0  0  1  0  0  0  0  0  0  0  0  0
    6.5538   -9.0695    0.0000 C   0  0  0  0  0  0  0  0  0  0  0  0
    5.8393   -8.6570    0.0000 C   0  0  0  0  0  0  0  0  0  0  0  0
    5.1248   -9.0695    0.0000 C   0  0  0  0  0  0  0  0  0  0  0  0
    5.1248   -9.8945    0.0000 C   0  0  0  0  0  0  0  0  0  0  0  0
    5.8393  -10.3070    0.0000 C   0  0  0  0  0  0  0  0  0  0  0  0
    6.5538   -9.8945    0.0000 C   0  0  0  0  0  0  0  0  0  0  0  0
    7.2683  -10.3070    0.0000 C   0  0  0  0  0  0  0  0  0  0  0  0
    7.9827   -9.8945    0.0000 C   0  0  0  0  0  0  0  0  0  0  0  0
    8.6972  -10.3070    0.0000 C   0  0  0  0  0  0  0  0  0  0  0  0
    9.4117   -9.8945    0.0000 C   0  0  0  0  0  0  0  0  0  0  0  0
    9.4117   -9.0695    0.0000 C   0  0  0  0  0  0  0  0  0  0  0  0
    8.6972   -8.6570    0.0000 C   0  0  0  0  0  0  0  0  0  0  0  0
    7.2683   -5.3570    0.0000 O   0  0  0  0  0  0  0  0  0  0  0  0
    8.6972   -3.7070    0.0000 O   0  0  0  0  0  0  0  0  0  0  0  0
   10.1261   -2.8820    0.0000 O   0  0  0  0  0  0  0  0  0  0  0  0
   11.5551   -3.7070    0.0000 O   0  0  0  0  0  0  0  0  0  0  0  0
   12.2695   -4.9445    0.0000 O   0  0  0  0  0  0  0  0  0  0  0  0
   11.5551   -5.3570    0.0000 C   0  0  0  0  0  0  0  0  0  0  0  0
   10.8406   -4.9445    0.0000 C   0  0  2  0  0  0  0  0  0  0  0  0
   10.8406   -4.1195    0.0000 C   0  0  2  0  0  0  0  0  0  0  0  0
   10.1261   -3.7070    0.0000 C   0  0  1  0  0  0  0  0  0  0  0  0
    9.4117   -4.1195    0.0000 C   0  0  2  0  0  0  0  0  0  0  0  0
    9.4117   -4.9445    0.0000 C   0  0  1  0  0  0  0  0  0  0  0  0
   10.1261   -5.3570    0.0000 O   0  0  0  0  0  0  0  0  0  0  0  0
    8.6972   -5.3570    0.0000 O   0  0  0  0  0  0  0  0  0  0  0  0
    3.6959   -7.4195    0.0000 O   0  0  0  0  0  0  0  0  0  0  0  0
    4.4104   -8.6570    0.0000 O   0  0  0  0  0  0  0  0  0  0  0  0
    4.4104   -7.8320    0.0000 C   0  0  0  0  0  0  0  0  0  0  0  0
    6.5538   -7.4195    0.0000 C   0  0  0  0  0  0  0  0  0  0  0  0
    7.2683   -7.8320    0.0000 C   0  0  1  0  0  0  0  0  0  0  0  0
    7.9827   -7.4195    0.0000 C   0  0  0  0  0  0  0  0  0  0  0  0
    8.6972   -7.8320    0.0000 C   0  0  0  0  0  0  0  0  0  0  0  0
    9.4117   -7.4195    0.0000 C   0  0  0  0  0  0  0  0  0  0  0  0
    9.4117   -6.5945    0.0000 C   0  0  0  0  0  0  0  0  0  0  0  0
    8.6972   -6.1820    0.0000 C   0  0  0  0  0  0  0  0  0  0  0  0
    7.9827   -6.5945    0.0000 C   0  0  0  0  0  0  0  0  0  0  0  0
    7.2683   -6.1820    0.0000 C   0  0  0  0  0  0  0  0  0  0  0  0
    6.5538   -6.5945    0.0000 C   0  0  0  0  0  0  0  0  0  0  0  0
    5.8393   -6.1820    0.0000 C   0  0  0  0  0  0  0  0  0  0  0  0
    5.1248   -6.5945    0.0000 C   0  0  0  0  0  0  0  0  0  0  0  0
    5.1248   -7.4195    0.0000 C   0  0  0  0  0  0  0  0  0  0  0  0
    5.8393   -7.8320    0.0000 C   0  0  0  0  0  0  0  0  0  0  0  0
    7.9827   -8.2445    0.0000 H   0  0  0  0  0  0  0  0  0  0  0  0
    6.5538   -8.2445    0.0000 H   0  0  0  0  0  0  0  0  0  0  0  0
 58  1  1  0  0  0  0
 49 19  1  0  0  0  0
 28  2  1  0  0  0  0
 30  4  1  0  0  0  0
  4  3  1  0  0  0  0
 26  5  2  0  0  0  0
 24 17  1  0  0  0  0
 15 17  1  1  0  0  0
 14  6  1  6  0  0  0
 13  7  1  1  0  0  0
 12  8  1  6  0  0  0
 11 10  1  1  0  0  0
 10  9  1  0  0  0  0
 16 11  1  0  0  0  0
 12 11  1  0  0  0  0
 13 12  1  0  0  0  0
 14 13  1  0  0  0  0
 15 14  1  0  0  0  0
 16 15  1  0  0  0  0
 31 18  2  0  0  0  0
 27 18  1  0  0  0  0
 19 18  1  0  0  0  0
 19 20  1  0  0  0  0
 25 20  2  0  0  0  0
 21 20  1  0  0  0  0
 22 21  2  0  0  0  0
 23 22  1  0  0  0  0
 24 23  2  0  0  0  0
 25 24  1  0  0  0  0
 26 25  1  0  0  0  0
 27 26  1  0  0  0  0
 28 27  2  0  0  0  0
 29 28  1  0  0  0  0
 30 29  2  0  0  0  0
 31 30  1  0  0  0  0
 56 32  2  0  0  0  0
 54 44  1  0  0  0  0
 42 44  1  1  0  0  0
 41 33  1  6  0  0  0
 40 34  1  1  0  0  0
 39 35  1  6  0  0  0
 38 37  1  1  0  0  0
 37 36  1  0  0  0  0
 43 38  1  0  0  0  0
 39 38  1  0  0  0  0
 40 39  1  0  0  0  0
 41 40  1  0  0  0  0
 42 41  1  0  0  0  0
 43 42  1  0  0  0  0
 60 47  1  0  0  0  0
 47 45  1  0  0  0  0
 47 46  2  0  0  0  0
 61 48  2  0  0  0  0
 57 48  1  0  0  0  0
 49 48  1  0  0  0  0
 49 50  1  0  0  0  0
 55 50  2  0  0  0  0
 51 50  1  0  0  0  0
 52 51  2  0  0  0  0
 53 52  1  0  0  0  0
 54 53  2  0  0  0  0
 55 54  1  0  0  0  0
 56 55  1  0  0  0  0
 57 56  1  0  0  0  0
 58 57  2  0  0  0  0
 59 58  1  0  0  0  0
 60 59  2  0  0  0  0
 61 60  1  0  0  0  0
 49 62  1  6  0  0  0
 19 63  1  6  0  0  0
M  END
>  <cdx:fragmentId>
174008

$$$$
