173850.cdx
  Mrv1902 05222410272D          

 28 30  0  0  0  0            999 V2000
    7.7599   -6.4289    0.0000 C   0  0  1  0  0  0  0  0  0  0  0  0
    8.4744   -6.0164    0.0000 C   0  0  1  0  0  0  0  0  0  0  0  0
    8.4744   -5.1914    0.0000 C   0  0  1  0  0  0  0  0  0  0  0  0
    7.7599   -4.7789    0.0000 C   0  0  0  0  0  0  0  0  0  0  0  0
    7.0454   -5.1914    0.0000 C   0  0  0  0  0  0  0  0  0  0  0  0
    7.0454   -6.0164    0.0000 O   0  0  0  0  0  0  0  0  0  0  0  0
    9.2590   -4.9365    0.0000 C   0  0  0  0  0  0  0  0  0  0  0  0
    9.7439   -5.6039    0.0000 C   0  0  1  0  0  0  0  0  0  0  0  0
    9.2590   -6.2714    0.0000 C   0  0  0  0  0  0  0  0  0  0  0  0
    7.7599   -3.9539    0.0000 C   0  0  0  0  0  0  0  0  0  0  0  0
    8.4744   -3.5414    0.0000 O   0  0  0  0  0  0  0  0  0  0  0  0
    7.0454   -3.5414    0.0000 O   0  0  0  0  0  0  0  0  0  0  0  0
    7.7599   -7.2539    0.0000 O   0  0  0  0  0  0  0  0  0  0  0  0
    6.3310   -7.2539    0.0000 O   0  0  0  0  0  0  0  0  0  0  0  0
    7.0454   -7.6664    0.0000 C   0  0  2  0  0  0  0  0  0  0  0  0
    7.0454   -8.4914    0.0000 C   0  0  1  0  0  0  0  0  0  0  0  0
    6.3310   -8.9039    0.0000 C   0  0  2  0  0  0  0  0  0  0  0  0
    5.6165   -8.4914    0.0000 C   0  0  1  0  0  0  0  0  0  0  0  0
    5.6165   -7.6664    0.0000 C   0  0  1  0  0  0  0  0  0  0  0  0
    4.9020   -7.2539    0.0000 C   0  0  0  0  0  0  0  0  0  0  0  0
    4.1876   -7.6664    0.0000 O   0  0  0  0  0  0  0  0  0  0  0  0
    4.9020   -8.9039    0.0000 O   0  0  0  0  0  0  0  0  0  0  0  0
    6.3310   -9.7289    0.0000 O   0  0  0  0  0  0  0  0  0  0  0  0
    7.7599   -8.9039    0.0000 O   0  0  0  0  0  0  0  0  0  0  0  0
    9.5140   -7.0560    0.0000 C   0  0  0  0  0  0  0  0  0  0  0  0
   10.5689   -5.6039    0.0000 O   0  0  0  0  0  0  0  0  0  0  0  0
    8.5606   -4.3709    0.0000 H   0  0  0  0  0  0  0  0  0  0  0  0
    8.5606   -6.8369    0.0000 H   0  0  0  0  0  0  0  0  0  0  0  0
  1  2  1  0  0  0  0
  2  3  1  0  0  0  0
  3  4  1  0  0  0  0
  4  5  2  0  0  0  0
  5  6  1  0  0  0  0
  1  6  1  0  0  0  0
  7  8  1  0  0  0  0
  8  9  1  0  0  0  0
  9  2  1  0  0  0  0
  7  3  1  0  0  0  0
 10 11  2  0  0  0  0
 10 12  1  0  0  0  0
  4 10  1  0  0  0  0
 14 15  1  0  0  0  0
 15 16  1  0  0  0  0
 16 17  1  0  0  0  0
 17 18  1  0  0  0  0
 18 19  1  0  0  0  0
 14 19  1  0  0  0  0
 20 21  1  0  0  0  0
 19 20  1  1  0  0  0
 18 22  1  6  0  0  0
 17 23  1  1  0  0  0
 16 24  1  6  0  0  0
 15 13  1  1  0  0  0
  1 13  1  6  0  0  0
  9 25  2  0  0  0  0
  8 26  1  6  0  0  0
  3 27  1  6  0  0  0
  2 28  1  6  0  0  0
M  END
>  <cdx:fragmentId>
174157

$$$$
