173830.cdx
  Mrv1902 05222410232D          

 63 70  0  0  0  0            999 V2000
    5.9961   -3.7532    0.0000 O   0  0  0  0  0  0  0  0  0  0  0  0
    8.8539   -9.5282    0.0000 O   0  0  0  0  0  0  0  0  0  0  0  0
   10.9974   -7.4657    0.0000 O   0  0  0  0  0  0  0  0  0  0  0  0
   10.2829   -7.0532    0.0000 C   0  0  0  0  0  0  0  0  0  0  0  0
    7.4250   -9.5282    0.0000 O   0  0  0  0  0  0  0  0  0  0  0  0
    5.9961  -11.1782    0.0000 O   0  0  0  0  0  0  0  0  0  0  0  0
    4.5671  -12.0032    0.0000 O   0  0  0  0  0  0  0  0  0  0  0  0
    3.1382  -11.1782    0.0000 O   0  0  0  0  0  0  0  0  0  0  0  0
    2.4237   -9.9407    0.0000 O   0  0  0  0  0  0  0  0  0  0  0  0
    3.1382   -9.5282    0.0000 C   0  0  0  0  0  0  0  0  0  0  0  0
    3.8526   -9.9407    0.0000 C   0  0  2  0  0  0  0  0  0  0  0  0
    3.8526  -10.7657    0.0000 C   0  0  2  0  0  0  0  0  0  0  0  0
    4.5671  -11.1782    0.0000 C   0  0  1  0  0  0  0  0  0  0  0  0
    5.2816  -10.7657    0.0000 C   0  0  2  0  0  0  0  0  0  0  0  0
    5.2816   -9.9407    0.0000 C   0  0  1  0  0  0  0  0  0  0  0  0
    4.5671   -9.5282    0.0000 O   0  0  0  0  0  0  0  0  0  0  0  0
    5.9961   -9.5282    0.0000 O   0  0  0  0  0  0  0  0  0  0  0  0
    8.1395   -7.4657    0.0000 C   0  0  0  0  0  0  0  0  0  0  0  0
    7.4250   -7.0532    0.0000 C   0  0  2  0  0  0  0  0  0  0  0  0
    6.7105   -7.4657    0.0000 C   0  0  0  0  0  0  0  0  0  0  0  0
    5.9961   -7.0532    0.0000 C   0  0  0  0  0  0  0  0  0  0  0  0
    5.2816   -7.4657    0.0000 C   0  0  0  0  0  0  0  0  0  0  0  0
    5.2816   -8.2907    0.0000 C   0  0  0  0  0  0  0  0  0  0  0  0
    5.9961   -8.7032    0.0000 C   0  0  0  0  0  0  0  0  0  0  0  0
    6.7105   -8.2907    0.0000 C   0  0  0  0  0  0  0  0  0  0  0  0
    7.4250   -8.7032    0.0000 C   0  0  0  0  0  0  0  0  0  0  0  0
    8.1395   -8.2907    0.0000 C   0  0  0  0  0  0  0  0  0  0  0  0
    8.8539   -8.7032    0.0000 C   0  0  0  0  0  0  0  0  0  0  0  0
    9.5684   -8.2907    0.0000 C   0  0  0  0  0  0  0  0  0  0  0  0
    9.5684   -7.4657    0.0000 C   0  0  0  0  0  0  0  0  0  0  0  0
    8.8539   -7.0532    0.0000 C   0  0  0  0  0  0  0  0  0  0  0  0
    7.4250   -3.7532    0.0000 O   0  0  0  0  0  0  0  0  0  0  0  0
    8.8539   -2.1032    0.0000 O   0  0  0  0  0  0  0  0  0  0  0  0
   10.2829   -1.2782    0.0000 O   0  0  0  0  0  0  0  0  0  0  0  0
   11.7118   -2.1032    0.0000 O   0  0  0  0  0  0  0  0  0  0  0  0
   12.4263   -3.3407    0.0000 O   0  0  0  0  0  0  0  0  0  0  0  0
   11.7118   -3.7532    0.0000 C   0  0  0  0  0  0  0  0  0  0  0  0
   10.9974   -3.3407    0.0000 C   0  0  2  0  0  0  0  0  0  0  0  0
   10.9974   -2.5157    0.0000 C   0  0  2  0  0  0  0  0  0  0  0  0
   10.2829   -2.1032    0.0000 C   0  0  1  0  0  0  0  0  0  0  0  0
    9.5684   -2.5157    0.0000 C   0  0  2  0  0  0  0  0  0  0  0  0
    9.5684   -3.3407    0.0000 C   0  0  1  0  0  0  0  0  0  0  0  0
   10.2829   -3.7532    0.0000 O   0  0  0  0  0  0  0  0  0  0  0  0
    8.8539   -3.7532    0.0000 O   0  0  0  0  0  0  0  0  0  0  0  0
    3.8526   -5.8157    0.0000 O   0  0  0  0  0  0  0  0  0  0  0  0
    4.5671   -7.0532    0.0000 O   0  0  0  0  0  0  0  0  0  0  0  0
    4.5671   -6.2282    0.0000 C   0  0  0  0  0  0  0  0  0  0  0  0
    6.7105   -5.8157    0.0000 C   0  0  0  0  0  0  0  0  0  0  0  0
    7.4250   -6.2282    0.0000 C   0  0  1  0  0  0  0  0  0  0  0  0
    8.1395   -5.8157    0.0000 C   0  0  0  0  0  0  0  0  0  0  0  0
    8.8539   -6.2282    0.0000 C   0  0  0  0  0  0  0  0  0  0  0  0
    9.5684   -5.8157    0.0000 C   0  0  0  0  0  0  0  0  0  0  0  0
    9.5684   -4.9907    0.0000 C   0  0  0  0  0  0  0  0  0  0  0  0
    8.8539   -4.5782    0.0000 C   0  0  0  0  0  0  0  0  0  0  0  0
    8.1395   -4.9907    0.0000 C   0  0  0  0  0  0  0  0  0  0  0  0
    7.4250   -4.5782    0.0000 C   0  0  0  0  0  0  0  0  0  0  0  0
    6.7105   -4.9907    0.0000 C   0  0  0  0  0  0  0  0  0  0  0  0
    5.9961   -4.5782    0.0000 C   0  0  0  0  0  0  0  0  0  0  0  0
    5.2816   -4.9907    0.0000 C   0  0  0  0  0  0  0  0  0  0  0  0
    5.2816   -5.8157    0.0000 C   0  0  0  0  0  0  0  0  0  0  0  0
    5.9961   -6.2282    0.0000 C   0  0  0  0  0  0  0  0  0  0  0  0
    8.1395   -6.6407    0.0000 H   0  0  0  0  0  0  0  0  0  0  0  0
    6.7105   -6.6407    0.0000 H   0  0  0  0  0  0  0  0  0  0  0  0
 58  1  1  0  0  0  0
 49 19  1  0  0  0  0
 28  2  1  0  0  0  0
 30  4  1  0  0  0  0
  4  3  1  0  0  0  0
 26  5  2  0  0  0  0
 24 17  1  0  0  0  0
 15 17  1  1  0  0  0
 14  6  1  6  0  0  0
 13  7  1  1  0  0  0
 12  8  1  6  0  0  0
 11 10  1  1  0  0  0
 10  9  1  0  0  0  0
 16 11  1  0  0  0  0
 12 11  1  0  0  0  0
 13 12  1  0  0  0  0
 14 13  1  0  0  0  0
 15 14  1  0  0  0  0
 16 15  1  0  0  0  0
 31 18  2  0  0  0  0
 27 18  1  0  0  0  0
 19 18  1  0  0  0  0
 19 20  1  0  0  0  0
 25 20  2  0  0  0  0
 21 20  1  0  0  0  0
 22 21  2  0  0  0  0
 23 22  1  0  0  0  0
 24 23  2  0  0  0  0
 25 24  1  0  0  0  0
 26 25  1  0  0  0  0
 27 26  1  0  0  0  0
 28 27  2  0  0  0  0
 29 28  1  0  0  0  0
 30 29  2  0  0  0  0
 31 30  1  0  0  0  0
 56 32  2  0  0  0  0
 54 44  1  0  0  0  0
 42 44  1  1  0  0  0
 41 33  1  6  0  0  0
 40 34  1  1  0  0  0
 39 35  1  6  0  0  0
 38 37  1  1  0  0  0
 37 36  1  0  0  0  0
 43 38  1  0  0  0  0
 39 38  1  0  0  0  0
 40 39  1  0  0  0  0
 41 40  1  0  0  0  0
 42 41  1  0  0  0  0
 43 42  1  0  0  0  0
 60 47  1  0  0  0  0
 47 45  1  0  0  0  0
 47 46  2  0  0  0  0
 61 48  2  0  0  0  0
 57 48  1  0  0  0  0
 49 48  1  0  0  0  0
 49 50  1  0  0  0  0
 55 50  2  0  0  0  0
 51 50  1  0  0  0  0
 52 51  2  0  0  0  0
 53 52  1  0  0  0  0
 54 53  2  0  0  0  0
 55 54  1  0  0  0  0
 56 55  1  0  0  0  0
 57 56  1  0  0  0  0
 58 57  2  0  0  0  0
 59 58  1  0  0  0  0
 60 59  2  0  0  0  0
 61 60  1  0  0  0  0
 49 62  1  6  0  0  0
 19 63  1  1  0  0  0
M  END
>  <cdx:fragmentId>
65

$$$$
