173999.cdx
  Mrv1902 05222410212D          

 28 31  0  0  0  0            999 V2000
    5.3318  -11.0157    0.0000 C   0  0  0  0  0  0  0  0  0  0  0  0
    5.8838  -11.6288    0.0000 C   0  0  0  0  0  0  0  0  0  0  0  0
    6.6908  -11.4573    0.0000 C   0  0  0  0  0  0  0  0  0  0  0  0
    6.9457  -10.6727    0.0000 C   0  0  0  0  0  0  0  0  0  0  0  0
    6.3937  -10.0596    0.0000 C   0  0  0  0  0  0  0  0  0  0  0  0
    5.5867  -10.2311    0.0000 C   0  0  0  0  0  0  0  0  0  0  0  0
    4.5248  -11.1872    0.0000 O   0  0  0  0  0  0  0  0  0  0  0  0
    5.6289  -12.4134    0.0000 O   0  0  0  0  0  0  0  0  0  0  0  0
    4.8219  -12.5850    0.0000 C   0  0  0  0  0  0  0  0  0  0  0  0
    6.1637   -8.6075    0.0000 O   0  0  0  0  0  0  0  0  0  0  0  0
    6.6486   -7.9401    0.0000 C   0  0  0  0  0  0  0  0  0  0  0  0
    7.4332   -8.1950    0.0000 C   0  0  1  0  0  0  0  0  0  0  0  0
    7.4332   -9.0200    0.0000 C   0  0  1  0  0  0  0  0  0  0  0  0
    6.6486   -9.2749    0.0000 C   0  0  1  0  0  0  0  0  0  0  0  0
    8.7028   -8.6075    0.0000 O   0  0  0  0  0  0  0  0  0  0  0  0
    8.2179   -7.9401    0.0000 C   0  0  2  0  0  0  0  0  0  0  0  0
    8.2179   -9.2749    0.0000 C   0  0  0  0  0  0  0  0  0  0  0  0
    8.4728   -7.1554    0.0000 C   0  0  0  0  0  0  0  0  0  0  0  0
    9.2798   -6.9839    0.0000 C   0  0  0  0  0  0  0  0  0  0  0  0
    9.5347   -6.1993    0.0000 C   0  0  0  0  0  0  0  0  0  0  0  0
    8.9827   -5.5862    0.0000 C   0  0  0  0  0  0  0  0  0  0  0  0
    8.1757   -5.7577    0.0000 C   0  0  0  0  0  0  0  0  0  0  0  0
    7.9208   -6.5423    0.0000 C   0  0  0  0  0  0  0  0  0  0  0  0
    9.2376   -4.8016    0.0000 O   0  0  0  0  0  0  0  0  0  0  0  0
   10.0446   -4.6300    0.0000 C   0  0  0  0  0  0  0  0  0  0  0  0
   10.3417   -6.0278    0.0000 O   0  0  0  0  0  0  0  0  0  0  0  0
    7.4332   -9.8450    0.0000 H   0  0  0  0  0  0  0  0  0  0  0  0
    7.4332   -7.3700    0.0000 H   0  0  0  0  0  0  0  0  0  0  0  0
  1  2  1  0  0  0  0
  2  3  2  0  0  0  0
  3  4  1  0  0  0  0
  4  5  2  0  0  0  0
  5  6  1  0  0  0  0
  1  6  2  0  0  0  0
  1  7  1  0  0  0  0
  8  9  1  0  0  0  0
  2  8  1  0  0  0  0
 10 11  1  0  0  0  0
 11 12  1  0  0  0  0
 12 13  1  0  0  0  0
 13 14  1  0  0  0  0
 10 14  1  0  0  0  0
 15 16  1  0  0  0  0
 15 17  1  0  0  0  0
 16 12  1  0  0  0  0
 17 13  1  0  0  0  0
 18 19  1  0  0  0  0
 19 20  2  0  0  0  0
 20 21  1  0  0  0  0
 21 22  2  0  0  0  0
 22 23  1  0  0  0  0
 18 23  2  0  0  0  0
 24 25  1  0  0  0  0
 21 24  1  0  0  0  0
 20 26  1  0  0  0  0
 16 18  1  1  0  0  0
 14  5  1  1  0  0  0
 13 27  1  1  0  0  0
 12 28  1  1  0  0  0
M  END
>  <cdx:fragmentId>
176031

$$$$
