173915.cdx
  Mrv1902 05222410192D          

 51 54  0  0  0  0            999 V2000
   10.8080   -9.5166    0.0000 C   0  0  0  0  0  0  0  0  0  0  0  0
   11.5225   -9.1041    0.0000 C   0  0  0  0  0  0  0  0  0  0  0  0
   12.2370   -9.5166    0.0000 C   0  0  0  0  0  0  0  0  0  0  0  0
   10.0936   -9.1041    0.0000 C   0  0  0  0  0  0  0  0  0  0  0  0
   10.0936   -8.2791    0.0000 O   0  0  0  0  0  0  0  0  0  0  0  0
    9.3791   -9.5166    0.0000 O   0  0  0  0  0  0  0  0  0  0  0  0
   12.9514   -9.1041    0.0000 C   0  0  0  0  0  0  0  0  0  0  0  0
   12.9514   -8.2791    0.0000 O   0  0  0  0  0  0  0  0  0  0  0  0
   13.6659   -9.5166    0.0000 O   0  0  0  0  0  0  0  0  0  0  0  0
   11.5225   -9.9291    0.0000 O   0  0  0  0  0  0  0  0  0  0  0  0
    8.6646   -9.1041    0.0000 C   0  0  0  0  0  0  0  0  0  0  0  0
    7.9501   -9.5166    0.0000 C   0  0  0  0  0  0  0  0  0  0  0  0
    7.9501  -10.3416    0.0000 C   0  0  0  0  0  0  0  0  0  0  0  0
    7.2357  -10.7541    0.0000 C   0  0  0  0  0  0  0  0  0  0  0  0
    6.5212  -10.3416    0.0000 C   0  0  0  0  0  0  0  0  0  0  0  0
    6.5212   -9.5166    0.0000 C   0  0  0  0  0  0  0  0  0  0  0  0
    7.2357   -9.1041    0.0000 C   0  0  0  0  0  0  0  0  0  0  0  0
   14.3804   -9.1041    0.0000 C   0  0  0  0  0  0  0  0  0  0  0  0
   15.0949   -9.5166    0.0000 C   0  0  0  0  0  0  0  0  0  0  0  0
   15.8093   -9.1041    0.0000 C   0  0  0  0  0  0  0  0  0  0  0  0
   16.5238   -9.5166    0.0000 C   0  0  0  0  0  0  0  0  0  0  0  0
   16.5238  -10.3416    0.0000 C   0  0  0  0  0  0  0  0  0  0  0  0
   15.8093  -10.7541    0.0000 C   0  0  0  0  0  0  0  0  0  0  0  0
   15.0949  -10.3416    0.0000 C   0  0  0  0  0  0  0  0  0  0  0  0
   17.2383  -10.7541    0.0000 O   0  0  0  0  0  0  0  0  0  0  0  0
   18.6672  -10.7541    0.0000 O   0  0  0  0  0  0  0  0  0  0  0  0
   17.9527  -10.3416    0.0000 C   0  0  2  0  0  0  0  0  0  0  0  0
   17.9527   -9.5166    0.0000 C   0  0  1  0  0  0  0  0  0  0  0  0
   18.6672   -9.1041    0.0000 C   0  0  2  0  0  0  0  0  0  0  0  0
   19.3817   -9.5166    0.0000 C   0  0  1  0  0  0  0  0  0  0  0  0
   19.3817  -10.3416    0.0000 C   0  0  1  0  0  0  0  0  0  0  0  0
   20.0962  -10.7541    0.0000 C   0  0  0  0  0  0  0  0  0  0  0  0
   20.8106  -10.3416    0.0000 O   0  0  0  0  0  0  0  0  0  0  0  0
   20.0962   -9.1041    0.0000 O   0  0  0  0  0  0  0  0  0  0  0  0
   18.6672   -8.2791    0.0000 O   0  0  0  0  0  0  0  0  0  0  0  0
   17.2383   -9.1041    0.0000 O   0  0  0  0  0  0  0  0  0  0  0  0
    4.3884  -11.5972    0.0000 O   0  0  0  0  0  0  0  0  0  0  0  0
    2.9491  -10.7905    0.0000 O   0  0  0  0  0  0  0  0  0  0  0  0
    2.9281   -9.1406    0.0000 O   0  0  0  0  0  0  0  0  0  0  0  0
    3.6267   -7.8941    0.0000 O   0  0  0  0  0  0  0  0  0  0  0  0
    4.3464   -8.2975    0.0000 C   0  0  0  0  0  0  0  0  0  0  0  0
    4.3569   -9.1224    0.0000 C   0  0  2  0  0  0  0  0  0  0  0  0
    3.6477   -9.5440    0.0000 C   0  0  2  0  0  0  0  0  0  0  0  0
    3.6582  -10.3689    0.0000 C   0  0  1  0  0  0  0  0  0  0  0  0
    4.3779  -10.7723    0.0000 C   0  0  2  0  0  0  0  0  0  0  0  0
    5.0871  -10.3507    0.0000 C   0  0  1  0  0  0  0  0  0  0  0  0
    5.0766   -9.5258    0.0000 O   0  0  0  0  0  0  0  0  0  0  0  0
    5.8067  -10.7541    0.0000 O   0  0  0  0  0  0  0  0  0  0  0  0
   10.8080   -7.8666    0.0000 O   0  0  0  0  0  0  0  0  0  0  0  0
   12.2370   -7.8666    0.0000 O   0  0  0  0  0  0  0  0  0  0  0  0
   11.5225   -8.2791    0.0000 C   0  0  0  0  0  0  0  0  0  0  0  0
 46 48  1  1  0  0  0
 45 37  1  6  0  0  0
 44 38  1  1  0  0  0
 43 39  1  6  0  0  0
 42 41  1  1  0  0  0
 41 40  1  0  0  0  0
 47 42  1  0  0  0  0
 43 42  1  0  0  0  0
 44 43  1  0  0  0  0
 45 44  1  0  0  0  0
 46 45  1  0  0  0  0
 47 46  1  0  0  0  0
 51 49  1  0  0  0  0
  1  2  1  0  0  0  0
  2  3  1  0  0  0  0
  4  5  2  0  0  0  0
  4  6  1  0  0  0  0
  1  4  1  0  0  0  0
 51 50  2  0  0  0  0
  2 51  1  0  0  0  0
  7  8  2  0  0  0  0
  7  9  1  0  0  0  0
  3  7  1  0  0  0  0
  2 10  1  0  0  0  0
 12 13  1  0  0  0  0
 13 14  2  0  0  0  0
 14 15  1  0  0  0  0
 15 16  2  0  0  0  0
 16 17  1  0  0  0  0
 12 17  2  0  0  0  0
 15 48  1  0  0  0  0
 11 12  1  0  0  0  0
  6 11  1  0  0  0  0
 19 20  1  0  0  0  0
 20 21  2  0  0  0  0
 21 22  1  0  0  0  0
 22 23  2  0  0  0  0
 23 24  1  0  0  0  0
 19 24  2  0  0  0  0
 26 27  1  0  0  0  0
 27 28  1  0  0  0  0
 28 29  1  0  0  0  0
 29 30  1  0  0  0  0
 30 31  1  0  0  0  0
 26 31  1  0  0  0  0
 32 33  1  0  0  0  0
 31 32  1  1  0  0  0
 30 34  1  6  0  0  0
 29 35  1  1  0  0  0
 28 36  1  6  0  0  0
 27 25  1  1  0  0  0
 22 25  1  0  0  0  0
 18 19  1  0  0  0  0
  9 18  1  0  0  0  0
M  END
>  <cdx:fragmentId>
3377

$$$$
