173942.cdx
  Mrv1902 05222410252D          

 41 44  0  0  0  0            999 V2000
    7.9934   -8.7032    0.0000 O   0  0  0  0  0  0  0  0  0  0  0  0
    8.7079   -8.2907    0.0000 C   0  0  2  0  0  0  0  0  0  0  0  0
    9.4224   -8.7032    0.0000 C   0  0  1  0  0  0  0  0  0  0  0  0
    9.4224   -9.5282    0.0000 C   0  0  2  0  0  0  0  0  0  0  0  0
    8.7079   -9.9407    0.0000 C   0  0  1  0  0  0  0  0  0  0  0  0
    7.9934   -9.5282    0.0000 C   0  0  1  0  0  0  0  0  0  0  0  0
   10.1368   -8.2907    0.0000 O   0  0  0  0  0  0  0  0  0  0  0  0
   10.1368   -9.9407    0.0000 O   0  0  0  0  0  0  0  0  0  0  0  0
    8.7079  -10.7657    0.0000 O   0  0  0  0  0  0  0  0  0  0  0  0
    7.2790   -9.9407    0.0000 C   0  0  0  0  0  0  0  0  0  0  0  0
    7.2790  -10.7657    0.0000 O   0  0  0  0  0  0  0  0  0  0  0  0
    8.7079   -7.4657    0.0000 O   0  0  0  0  0  0  0  0  0  0  0  0
    6.5645   -6.2282    0.0000 O   0  0  0  0  0  0  0  0  0  0  0  0
    6.5645   -7.0532    0.0000 C   0  0  1  0  0  0  0  0  0  0  0  0
    7.2790   -7.4657    0.0000 C   0  0  2  0  0  0  0  0  0  0  0  0
    7.9934   -7.0532    0.0000 C   0  0  1  0  0  0  0  0  0  0  0  0
    7.9934   -6.2282    0.0000 C   0  0  2  0  0  0  0  0  0  0  0  0
    7.2790   -5.8157    0.0000 C   0  0  2  0  0  0  0  0  0  0  0  0
    8.7079   -5.8157    0.0000 O   0  0  0  0  0  0  0  0  0  0  0  0
    7.9934   -4.5782    0.0000 O   0  0  0  0  0  0  0  0  0  0  0  0
    8.7079   -4.9907    0.0000 C   0  0  1  0  0  0  0  0  0  0  0  0
    9.4224   -4.5782    0.0000 C   0  0  2  0  0  0  0  0  0  0  0  0
    9.4224   -3.7532    0.0000 C   0  0  1  0  0  0  0  0  0  0  0  0
    8.7079   -3.3407    0.0000 C   0  0  2  0  0  0  0  0  0  0  0  0
    7.9934   -3.7532    0.0000 C   0  0  2  0  0  0  0  0  0  0  0  0
    7.2790   -3.3407    0.0000 C   0  0  0  0  0  0  0  0  0  0  0  0
    7.2790   -2.5157    0.0000 O   0  0  0  0  0  0  0  0  0  0  0  0
    8.7079   -2.5157    0.0000 O   0  0  0  0  0  0  0  0  0  0  0  0
   10.1368   -3.3407    0.0000 O   0  0  0  0  0  0  0  0  0  0  0  0
   10.1368   -4.9907    0.0000 O   0  0  0  0  0  0  0  0  0  0  0  0
    7.2790   -4.9907    0.0000 O   0  0  0  0  0  0  0  0  0  0  0  0
    6.5645   -4.5782    0.0000 C   0  0  0  0  0  0  0  0  0  0  0  0
    5.8500   -4.9907    0.0000 C   0  0  0  0  0  0  0  0  0  0  0  0
    5.1355   -4.5782    0.0000 C   0  0  0  0  0  0  0  0  0  0  0  0
    4.4211   -4.9907    0.0000 C   0  0  0  0  0  0  0  0  0  0  0  0
    4.4211   -5.8157    0.0000 C   0  0  0  0  0  0  0  0  0  0  0  0
    5.1355   -6.2282    0.0000 C   0  0  0  0  0  0  0  0  0  0  0  0
    5.8500   -5.8157    0.0000 C   0  0  0  0  0  0  0  0  0  0  0  0
    5.8500   -7.4657    0.0000 C   0  0  0  0  0  0  0  0  0  0  0  0
    5.8500   -8.2907    0.0000 O   0  0  0  0  0  0  0  0  0  0  0  0
    7.2790   -8.2907    0.0000 O   0  0  0  0  0  0  0  0  0  0  0  0
  1  2  1  0  0  0  0
  2  3  1  0  0  0  0
  3  4  1  0  0  0  0
  4  5  1  0  0  0  0
  5  6  1  0  0  0  0
  1  6  1  0  0  0  0
  3  7  1  6  0  0  0
  4  8  1  1  0  0  0
  5  9  1  6  0  0  0
 10 11  1  0  0  0  0
  6 10  1  1  0  0  0
 13 14  1  0  0  0  0
 14 15  1  0  0  0  0
 15 16  1  0  0  0  0
 16 17  1  0  0  0  0
 17 18  1  0  0  0  0
 13 18  1  0  0  0  0
 20 21  1  0  0  0  0
 21 22  1  0  0  0  0
 22 23  1  0  0  0  0
 23 24  1  0  0  0  0
 24 25  1  0  0  0  0
 20 25  1  0  0  0  0
 26 27  1  0  0  0  0
 25 26  1  1  0  0  0
 24 28  1  6  0  0  0
 23 29  1  1  0  0  0
 22 30  1  6  0  0  0
 21 19  1  1  0  0  0
 17 19  1  6  0  0  0
 31 32  1  0  0  0  0
 33 34  1  0  0  0  0
 34 35  2  0  0  0  0
 35 36  1  0  0  0  0
 36 37  2  0  0  0  0
 37 38  1  0  0  0  0
 33 38  2  0  0  0  0
 32 33  1  0  0  0  0
 18 31  1  1  0  0  0
 39 40  1  0  0  0  0
 14 39  1  1  0  0  0
 15 41  1  6  0  0  0
 16 12  1  1  0  0  0
  2 12  1  1  0  0  0
M  END
>  <cdx:fragmentId>
43

$$$$
