173977.cdx
  Mrv1902 05222410222D          

 40 44  0  0  0  0            999 V2000
    6.6100   -6.1531    0.0000 C   0  0  0  0  0  0  0  0  0  0  0  0
    5.8272   -5.8924    0.0000 O   0  0  0  0  0  0  0  0  0  0  0  0
    3.4790   -5.1105    0.0000 C   0  0  0  0  0  0  0  0  0  0  0  0
    4.2617   -5.3711    0.0000 O   0  0  0  0  0  0  0  0  0  0  0  0
    3.9759   -7.5351    0.0000 C   0  0  0  0  0  0  0  0  0  0  0  0
    3.8103   -6.7269    0.0000 C   0  0  0  0  0  0  0  0  0  0  0  0
    4.4274   -6.1793    0.0000 C   0  0  0  0  0  0  0  0  0  0  0  0
    5.2101   -6.4400    0.0000 C   0  0  0  0  0  0  0  0  0  0  0  0
    5.3758   -7.2482    0.0000 C   0  0  0  0  0  0  0  0  0  0  0  0
    4.7587   -7.7957    0.0000 C   0  0  0  0  0  0  0  0  0  0  0  0
    4.9243   -8.6039    0.0000 C   0  0  0  0  0  0  0  0  0  0  0  0
   11.8177   -9.6142    0.0000 O   0  0  0  0  0  0  0  0  0  0  0  0
   11.8073  -11.0431    0.0000 C   0  0  0  0  0  0  0  0  0  0  0  0
   10.9823  -11.0371    0.0000 O   0  0  0  0  0  0  0  0  0  0  0  0
    9.7605   -8.8847    0.0000 C   0  0  0  0  0  0  0  0  0  0  0  0
   10.5854   -8.8908    0.0000 C   0  0  0  0  0  0  0  0  0  0  0  0
   10.9927   -9.6082    0.0000 C   0  0  0  0  0  0  0  0  0  0  0  0
   10.5750  -10.3197    0.0000 C   0  0  0  0  0  0  0  0  0  0  0  0
    9.7500  -10.3136    0.0000 C   0  0  0  0  0  0  0  0  0  0  0  0
    9.3428   -9.5962    0.0000 C   0  0  0  0  0  0  0  0  0  0  0  0
    9.0829  -11.2179    0.0000 O   0  0  0  0  0  0  0  0  0  0  0  0
    8.2772  -11.0405    0.0000 C   0  0  0  0  0  0  0  0  0  0  0  0
    5.8344   -7.5081    0.0000 C   0  0  0  0  0  0  0  0  0  0  0  0
    6.5458   -7.9258    0.0000 O   0  0  0  0  0  0  0  0  0  0  0  0
    7.2513   -9.1684    0.0000 C   0  0  0  0  0  0  0  0  0  0  0  0
    6.5398   -8.7507    0.0000 C   0  0  0  0  0  0  0  0  0  0  0  0
    5.8224   -9.1580    0.0000 C   0  0  0  0  0  0  0  0  0  0  0  0
    5.8164   -9.9830    0.0000 C   0  0  0  0  0  0  0  0  0  0  0  0
    6.5278  -10.4007    0.0000 C   0  0  0  0  0  0  0  0  0  0  0  0
    7.2453   -9.9934    0.0000 C   0  0  0  0  0  0  0  0  0  0  0  0
    8.0280  -10.2541    0.0000 C   0  0  1  0  0  0  0  0  0  0  0  0
    8.5178   -9.5902    0.0000 C   0  0  2  0  0  0  0  0  0  0  0  0
    8.0377   -8.9192    0.0000 O   0  0  0  0  0  0  0  0  0  0  0  0
    5.0989  -10.3903    0.0000 C   0  0  0  0  0  0  0  0  0  0  0  0
    3.4540  -11.1083    0.0000 O   0  0  0  0  0  0  0  0  0  0  0  0
    3.5015   -8.9741    0.0000 C   0  0  0  0  0  0  0  0  0  0  0  0
    4.3072   -9.1515    0.0000 C   0  0  1  0  0  0  0  0  0  0  0  0
    4.3875   -9.9726    0.0000 C   0  0  2  0  0  0  0  0  0  0  0  0
    3.6314  -10.3026    0.0000 C   0  0  0  0  0  0  0  0  0  0  0  0
    3.0838   -9.6855    0.0000 O   0  0  0  0  0  0  0  0  0  0  0  0
 37 11  1  6  0  0  0
 11 10  1  0  0  0  0
  8  2  1  0  0  0  0
  2  1  1  0  0  0  0
  7  4  1  0  0  0  0
  4  3  1  0  0  0  0
 10  5  2  0  0  0  0
  6  5  1  0  0  0  0
  7  6  2  0  0  0  0
  8  7  1  0  0  0  0
  9  8  2  0  0  0  0
 10  9  1  0  0  0  0
 38 34  1  1  0  0  0
 34 28  1  0  0  0  0
 32 20  1  6  0  0  0
 17 12  1  0  0  0  0
 18 14  1  0  0  0  0
 14 13  1  0  0  0  0
 20 15  2  0  0  0  0
 16 15  1  0  0  0  0
 17 16  2  0  0  0  0
 18 17  1  0  0  0  0
 19 18  2  0  0  0  0
 20 19  1  0  0  0  0
 31 22  1  1  0  0  0
 22 21  1  0  0  0  0
 26 24  1  0  0  0  0
 24 23  1  0  0  0  0
 33 25  1  0  0  0  0
 30 25  2  0  0  0  0
 26 25  1  0  0  0  0
 27 26  2  0  0  0  0
 28 27  1  0  0  0  0
 29 28  2  0  0  0  0
 30 29  1  0  0  0  0
 31 30  1  0  0  0  0
 32 31  1  0  0  0  0
 33 32  1  0  0  0  0
 39 35  2  0  0  0  0
 40 36  1  0  0  0  0
 37 36  1  0  0  0  0
 38 37  1  0  0  0  0
 39 38  1  0  0  0  0
 40 39  1  0  0  0  0
M  END
>  <cdx:fragmentId>
19

$$$$
