173978.cdx
  Mrv1902 05222410232D          

 40 43  0  0  0  0            999 V2000
    5.3585   -6.4824    0.0000 O   0  0  0  0  0  0  0  0  0  0  0  0
    6.7879   -8.9571    0.0000 O   0  0  0  0  0  0  0  0  0  0  0  0
    2.5011   -8.9580    0.0000 O   0  0  0  0  0  0  0  0  0  0  0  0
    1.7864   -7.7207    0.0000 C   0  0  0  0  0  0  0  0  0  0  0  0
    2.5008   -7.3080    0.0000 O   0  0  0  0  0  0  0  0  0  0  0  0
    4.6444   -8.5451    0.0000 C   0  0  0  0  0  0  0  0  0  0  0  0
    3.9300   -8.9577    0.0000 C   0  0  0  0  0  0  0  0  0  0  0  0
    3.2155   -8.5454    0.0000 C   0  0  0  0  0  0  0  0  0  0  0  0
    3.2153   -7.7204    0.0000 C   0  0  0  0  0  0  0  0  0  0  0  0
    3.9297   -7.3077    0.0000 C   0  0  0  0  0  0  0  0  0  0  0  0
    4.6443   -7.7201    0.0000 C   0  0  0  0  0  0  0  0  0  0  0  0
    6.0734   -8.5448    0.0000 C   0  0  0  0  0  0  0  0  0  0  0  0
    6.0732   -7.7198    0.0000 C   0  0  0  0  0  0  0  0  0  0  0  0
    5.3586   -7.3074    0.0000 C   0  0  0  0  0  0  0  0  0  0  0  0
    6.0729   -6.0698    0.0000 O   0  0  0  0  0  0  0  0  0  0  0  0
    6.7871   -4.8321    0.0000 C   0  0  0  0  0  0  0  0  0  0  0  0
    7.5016   -5.2445    0.0000 O   0  0  0  0  0  0  0  0  0  0  0  0
    8.2164   -6.4818    0.0000 C   0  0  0  0  0  0  0  0  0  0  0  0
    7.5018   -6.0695    0.0000 C   0  0  0  0  0  0  0  0  0  0  0  0
    6.7874   -6.4821    0.0000 C   0  0  0  0  0  0  0  0  0  0  0  0
    6.7876   -7.3071    0.0000 C   0  0  0  0  0  0  0  0  0  0  0  0
    7.5021   -7.7195    0.0000 C   0  0  0  0  0  0  0  0  0  0  0  0
    8.2165   -7.3068    0.0000 C   0  0  0  0  0  0  0  0  0  0  0  0
    8.9311   -7.7192    0.0000 C   0  0  0  0  0  0  0  0  0  0  0  0
   11.0688   -5.5458    0.0000 O   0  0  0  0  0  0  0  0  0  0  0  0
    9.6710   -5.2490    0.0000 C   0  0  0  0  0  0  0  0  0  0  0  0
    9.4997   -6.0560    0.0000 O   0  0  0  0  0  0  0  0  0  0  0  0
   11.3393   -7.7117    0.0000 C   0  0  0  0  0  0  0  0  0  0  0  0
   11.5106   -6.9047    0.0000 C   0  0  0  0  0  0  0  0  0  0  0  0
   10.8974   -6.3528    0.0000 C   0  0  0  0  0  0  0  0  0  0  0  0
   10.1129   -6.6079    0.0000 C   0  0  0  0  0  0  0  0  0  0  0  0
    9.9415   -7.4149    0.0000 C   0  0  0  0  0  0  0  0  0  0  0  0
   10.5547   -7.9668    0.0000 C   0  0  0  0  0  0  0  0  0  0  0  0
   10.3834   -8.7739    0.0000 C   0  0  0  0  0  0  0  0  0  0  0  0
    9.8291  -10.4810    0.0000 O   0  0  0  0  0  0  0  0  0  0  0  0
    8.2639   -9.0292    0.0000 C   0  0  0  0  0  0  0  0  0  0  0  0
    8.9313   -8.5442    0.0000 C   0  0  1  0  0  0  0  0  0  0  0  0
    9.5988   -9.0290    0.0000 C   0  0  2  0  0  0  0  0  0  0  0  0
    9.3440   -9.8136    0.0000 C   0  0  0  0  0  0  0  0  0  0  0  0
    8.5190   -9.8138    0.0000 O   0  0  0  0  0  0  0  0  0  0  0  0
 37 24  1  6  0  0  0
 24 23  1  0  0  0  0
 21 13  1  0  0  0  0
 14  1  1  0  0  0  0
 12  2  1  0  0  0  0
 14 11  1  0  0  0  0
  8  3  1  0  0  0  0
  9  5  1  0  0  0  0
  5  4  1  0  0  0  0
 11  6  2  0  0  0  0
  7  6  1  0  0  0  0
  8  7  2  0  0  0  0
  9  8  1  0  0  0  0
 10  9  2  0  0  0  0
 11 10  1  0  0  0  0
 13 12  1  0  0  0  0
 14 13  1  0  0  0  0
 20 15  1  0  0  0  0
 19 17  1  0  0  0  0
 17 16  1  0  0  0  0
 23 18  2  0  0  0  0
 19 18  1  0  0  0  0
 20 19  2  0  0  0  0
 21 20  1  0  0  0  0
 22 21  2  0  0  0  0
 23 22  1  0  0  0  0
 38 34  1  1  0  0  0
 34 33  1  0  0  0  0
 30 25  1  0  0  0  0
 31 27  1  0  0  0  0
 27 26  1  0  0  0  0
 33 28  2  0  0  0  0
 29 28  1  0  0  0  0
 30 29  2  0  0  0  0
 31 30  1  0  0  0  0
 32 31  2  0  0  0  0
 33 32  1  0  0  0  0
 39 35  2  0  0  0  0
 40 36  1  0  0  0  0
 37 36  1  0  0  0  0
 38 37  1  0  0  0  0
 39 38  1  0  0  0  0
 40 39  1  0  0  0  0
M  END
>  <cdx:fragmentId>
63

$$$$
