173943.cdx
  Mrv1902 05222410252D          

 42 41  0  0  0  0            999 V2000
   12.9613  -13.6064    0.0000 C   0  0  0  0  0  0  0  0  0  0  0  0
   12.2468  -14.0189    0.0000 C   0  0  0  0  0  0  0  0  0  0  0  0
   11.5323  -13.6064    0.0000 C   0  0  0  0  0  0  0  0  0  0  0  0
   10.8179  -14.0189    0.0000 C   0  0  0  0  0  0  0  0  0  0  0  0
   10.1034  -13.6064    0.0000 C   0  0  0  0  0  0  0  0  0  0  0  0
    9.3889  -14.0189    0.0000 C   0  0  0  0  0  0  0  0  0  0  0  0
    8.6745  -13.6064    0.0000 C   0  0  0  0  0  0  0  0  0  0  0  0
    7.9600  -14.0189    0.0000 C   0  0  0  0  0  0  0  0  0  0  0  0
    7.2455  -13.6064    0.0000 C   0  0  0  0  0  0  0  0  0  0  0  0
    6.5310  -14.0189    0.0000 C   0  0  0  0  0  0  0  0  0  0  0  0
    5.8166  -13.6064    0.0000 C   0  0  0  0  0  0  0  0  0  0  0  0
    5.1021  -14.0189    0.0000 C   0  0  0  0  0  0  0  0  0  0  0  0
    4.3876  -13.6064    0.0000 C   0  0  0  0  0  0  0  0  0  0  0  0
    3.6732  -14.0189    0.0000 C   0  0  0  0  0  0  0  0  0  0  0  0
    2.9587  -13.6064    0.0000 C   0  0  0  0  0  0  0  0  0  0  0  0
    2.2442  -14.0189    0.0000 C   0  0  0  0  0  0  0  0  0  0  0  0
    1.5297  -13.6064    0.0000 C   0  0  0  0  0  0  0  0  0  0  0  0
    0.8153  -14.0189    0.0000 C   0  0  0  0  0  0  0  0  0  0  0  0
   12.9613  -12.7814    0.0000 O   0  0  0  0  0  0  0  0  0  0  0  0
   13.6757  -14.0189    0.0000 O   0  0  0  0  0  0  0  0  0  0  0  0
   14.3902  -12.7814    0.0000 C   0  0  0  0  0  0  0  0  0  0  0  0
   14.3902  -13.6064    0.0000 C   0  0  1  0  0  0  0  0  0  0  0  0
   15.1047  -14.0189    0.0000 C   0  0  1  0  0  0  0  0  0  0  0  0
   15.1047  -14.8439    0.0000 C   0  0  0  0  0  0  0  0  0  0  0  0
   15.8192  -13.6064    0.0000 O   0  0  0  0  0  0  0  0  0  0  0  0
   16.5336  -14.0189    0.0000 C   0  0  0  0  0  0  0  0  0  0  0  0
   17.2481  -13.6064    0.0000 C   0  0  0  0  0  0  0  0  0  0  0  0
   17.9626  -14.0189    0.0000 C   0  0  0  0  0  0  0  0  0  0  0  0
   18.6770  -13.6064    0.0000 C   0  0  0  0  0  0  0  0  0  0  0  0
   19.3915  -14.0189    0.0000 C   0  0  0  0  0  0  0  0  0  0  0  0
   20.1060  -13.6064    0.0000 C   0  0  0  0  0  0  0  0  0  0  0  0
   20.8205  -14.0189    0.0000 C   0  0  0  0  0  0  0  0  0  0  0  0
   21.5349  -13.6064    0.0000 C   0  0  0  0  0  0  0  0  0  0  0  0
   22.2494  -14.0189    0.0000 C   0  0  0  0  0  0  0  0  0  0  0  0
   16.5336  -14.8439    0.0000 O   0  0  0  0  0  0  0  0  0  0  0  0
   22.9639  -13.6064    0.0000 C   0  0  0  0  0  0  0  0  0  0  0  0
   22.9639  -12.7814    0.0000 C   0  0  0  0  0  0  0  0  0  0  0  0
   23.6783  -12.3689    0.0000 C   0  0  0  0  0  0  0  0  0  0  0  0
   23.6783  -11.5439    0.0000 C   0  0  0  0  0  0  0  0  0  0  0  0
   24.3928  -11.1314    0.0000 C   0  0  0  0  0  0  0  0  0  0  0  0
   24.3928  -10.3064    0.0000 C   0  0  0  0  0  0  0  0  0  0  0  0
   25.1073   -9.8939    0.0000 C   0  0  0  0  0  0  0  0  0  0  0  0
  1  2  1  0  0  0  0
  2  3  1  0  0  0  0
  3  4  1  0  0  0  0
  4  5  1  0  0  0  0
  5  6  1  0  0  0  0
  6  7  1  0  0  0  0
  7  8  1  0  0  0  0
  8  9  1  0  0  0  0
  9 10  1  0  0  0  0
 10 11  1  0  0  0  0
 11 12  2  0  0  0  0
 12 13  1  0  0  0  0
 13 14  1  0  0  0  0
 14 15  1  0  0  0  0
 15 16  1  0  0  0  0
 16 17  1  0  0  0  0
 17 18  1  0  0  0  0
  1 19  2  0  0  0  0
  1 20  1  0  0  0  0
 22 21  1  1  0  0  0
 22 23  1  0  0  0  0
 23 24  1  6  0  0  0
 26 27  1  0  0  0  0
 27 28  1  0  0  0  0
 28 29  1  0  0  0  0
 29 30  1  0  0  0  0
 30 31  1  0  0  0  0
 31 32  1  0  0  0  0
 32 33  1  0  0  0  0
 33 34  1  0  0  0  0
 26 35  2  0  0  0  0
 25 26  1  0  0  0  0
 23 25  1  0  0  0  0
 20 22  1  0  0  0  0
 34 36  2  0  0  0  0
 36 37  1  0  0  0  0
 37 38  1  0  0  0  0
 38 39  1  0  0  0  0
 39 40  1  0  0  0  0
 40 41  1  0  0  0  0
 41 42  1  0  0  0  0
M  END
>  <cdx:groupId>
175572

>  <cdx:fragmentId>
175500

$$$$
