17395.cdx
  Mrv1902 05222410272D          

 66 70  0  0  0  0            999 V2000
   20.4736   -9.7931    0.0000 C   0  0  0  0  0  0  0  0  0  0  0  0
   20.4736  -10.6181    0.0000 C   0  0  1  0  0  0  0  0  0  0  0  0
   21.1881  -11.0306    0.0000 C   0  0  0  0  0  0  0  0  0  0  0  0
   21.9026  -10.6181    0.0000 C   0  0  0  0  0  0  0  0  0  0  0  0
   21.9026   -9.7931    0.0000 C   0  0  2  0  0  0  0  0  0  0  0  0
   21.1881   -9.3806    0.0000 C   0  0  0  0  0  0  0  0  0  0  0  0
   22.6170  -11.0306    0.0000 C   0  0  0  0  0  0  0  0  0  0  0  0
   23.3315  -10.6181    0.0000 C   0  0  0  0  0  0  0  0  0  0  0  0
   23.3315   -9.7931    0.0000 C   0  0  2  0  0  0  0  0  0  0  0  0
   22.6170   -9.3806    0.0000 C   0  0  2  0  0  0  0  0  0  0  0  0
   24.0460   -9.3806    0.0000 C   0  0  1  0  0  0  0  0  0  0  0  0
   24.0460   -8.5556    0.0000 C   0  0  2  0  0  0  0  0  0  0  0  0
   23.3315   -8.1431    0.0000 C   0  0  0  0  0  0  0  0  0  0  0  0
   22.6170   -8.5556    0.0000 C   0  0  0  0  0  0  0  0  0  0  0  0
   24.8306   -9.6356    0.0000 C   0  0  0  0  0  0  0  0  0  0  0  0
   25.3155   -8.9681    0.0000 C   0  0  0  0  0  0  0  0  0  0  0  0
   24.8306   -8.3007    0.0000 C   0  0  2  0  0  0  0  0  0  0  0  0
   25.0441   -7.5038    0.0000 C   0  0  1  0  0  0  0  0  0  0  0  0
   25.8410   -7.2903    0.0000 C   0  0  0  0  0  0  0  0  0  0  0  0
   19.7592  -11.0306    0.0000 O   0  0  0  0  0  0  0  0  0  0  0  0
   21.9026   -8.9681    0.0000 C   0  0  0  0  0  0  0  0  0  0  0  0
   24.0460   -7.7306    0.0000 C   0  0  0  0  0  0  0  0  0  0  0  0
   24.4608   -6.9205    0.0000 C   0  0  0  0  0  0  0  0  0  0  0  0
   26.0546   -6.4934    0.0000 C   0  0  0  0  0  0  0  0  0  0  0  0
   26.8400   -6.2700    0.0000 C   0  0  2  0  0  0  0  0  0  0  0  0
   27.0535   -5.4731    0.0000 C   0  0  0  0  0  0  0  0  0  0  0  0
   27.8504   -5.2596    0.0000 C   0  0  0  0  0  0  0  0  0  0  0  0
   26.4702   -4.8897    0.0000 C   0  0  0  0  0  0  0  0  0  0  0  0
   27.4234   -6.8534    0.0000 C   0  0  0  0  0  0  0  0  0  0  0  0
   28.2203   -6.6398    0.0000 C   0  0  0  0  0  0  0  0  0  0  0  0
   22.6170  -10.2056    0.0000 H   0  0  0  0  0  0  0  0  0  0  0  0
   23.3315   -8.9681    0.0000 H   0  0  0  0  0  0  0  0  0  0  0  0
   24.0460  -10.2056    0.0000 H   0  0  0  0  0  0  0  0  0  0  0  0
   25.6275   -8.0872    0.0000 H   0  0  0  0  0  0  0  0  0  0  0  0
   19.7524  -11.8556    0.0000 C   0  0  2  0  0  0  0  0  0  0  0  0
   19.0345  -12.2622    0.0000 O   0  0  0  0  0  0  0  0  0  0  0  0
   19.0277  -13.0872    0.0000 C   0  0  1  0  0  0  0  0  0  0  0  0
   19.7388  -13.5056    0.0000 C   0  0  2  0  0  0  0  0  0  0  0  0
   20.4566  -13.0990    0.0000 C   0  0  1  0  0  0  0  0  0  0  0  0
   20.4634  -12.2740    0.0000 C   0  0  1  0  0  0  0  0  0  0  0  0
   18.3099  -13.4938    0.0000 C   0  0  0  0  0  0  0  0  0  0  0  0
   21.1677  -13.5173    0.0000 O   0  0  0  0  0  0  0  0  0  0  0  0
   21.1813  -11.8674    0.0000 O   0  0  0  0  0  0  0  0  0  0  0  0
   19.7320  -14.3305    0.0000 O   0  0  0  0  0  0  0  0  0  0  0  0
   18.3031  -14.3188    0.0000 O   0  0  0  0  0  0  0  0  0  0  0  0
   17.5886  -14.7313    0.0000 C   0  0  0  0  0  0  0  0  0  0  0  0
   17.5886  -15.5563    0.0000 O   0  0  0  0  0  0  0  0  0  0  0  0
   16.8741  -14.3188    0.0000 C   0  0  0  0  0  0  0  0  0  0  0  0
   16.1597  -14.7313    0.0000 C   0  0  0  0  0  0  0  0  0  0  0  0
   15.4452  -14.3188    0.0000 C   0  0  0  0  0  0  0  0  0  0  0  0
   14.7307  -14.7313    0.0000 C   0  0  0  0  0  0  0  0  0  0  0  0
   14.0162  -14.3188    0.0000 C   0  0  0  0  0  0  0  0  0  0  0  0
   13.3018  -14.7313    0.0000 C   0  0  0  0  0  0  0  0  0  0  0  0
   12.5873  -14.3188    0.0000 C   0  0  0  0  0  0  0  0  0  0  0  0
   11.8728  -14.7313    0.0000 C   0  0  0  0  0  0  0  0  0  0  0  0
   11.1584  -14.3188    0.0000 C   0  0  0  0  0  0  0  0  0  0  0  0
   10.4439  -14.7313    0.0000 C   0  0  0  0  0  0  0  0  0  0  0  0
    9.7294  -14.3188    0.0000 C   0  0  0  0  0  0  0  0  0  0  0  0
    9.0149  -14.7313    0.0000 C   0  0  0  0  0  0  0  0  0  0  0  0
    8.3005  -14.3188    0.0000 C   0  0  0  0  0  0  0  0  0  0  0  0
    7.5860  -14.7313    0.0000 C   0  0  0  0  0  0  0  0  0  0  0  0
    6.8715  -14.3188    0.0000 C   0  0  0  0  0  0  0  0  0  0  0  0
    6.1571  -14.7313    0.0000 C   0  0  0  0  0  0  0  0  0  0  0  0
    5.4426  -14.3188    0.0000 C   0  0  0  0  0  0  0  0  0  0  0  0
    4.7281  -14.7313    0.0000 C   0  0  0  0  0  0  0  0  0  0  0  0
    4.0136  -14.3188    0.0000 C   0  0  0  0  0  0  0  0  0  0  0  0
  1  2  1  0  0  0  0
  2  3  1  0  0  0  0
  3  4  1  0  0  0  0
  4  5  1  0  0  0  0
  5  6  1  0  0  0  0
  6  1  1  0  0  0  0
  4  7  2  0  0  0  0
  7  8  1  0  0  0  0
  8  9  1  0  0  0  0
  9 10  1  0  0  0  0
 10  5  1  0  0  0  0
  9 11  1  0  0  0  0
 11 12  1  0  0  0  0
 12 13  1  0  0  0  0
 13 14  1  0  0  0  0
 14 10  1  0  0  0  0
 11 15  1  0  0  0  0
 15 16  1  0  0  0  0
 16 17  1  0  0  0  0
 17 12  1  0  0  0  0
 17 18  1  0  0  0  0
 18 19  1  0  0  0  0
  2 20  1  1  0  0  0
  5 21  1  1  0  0  0
 12 22  1  1  0  0  0
 18 23  1  6  0  0  0
 19 24  1  0  0  0  0
 25 24  1  6  0  0  0
 25 26  1  0  0  0  0
 26 27  1  0  0  0  0
 26 28  1  0  0  0  0
 25 29  1  0  0  0  0
 29 30  1  0  0  0  0
 10 31  1  6  0  0  0
  9 32  1  1  0  0  0
 11 33  1  6  0  0  0
 17 34  1  6  0  0  0
 35 20  1  1  0  0  0
 35 36  1  0  0  0  0
 36 37  1  0  0  0  0
 37 38  1  0  0  0  0
 38 39  1  0  0  0  0
 39 40  1  0  0  0  0
 40 35  1  0  0  0  0
 37 41  1  1  0  0  0
 39 42  1  1  0  0  0
 40 43  1  6  0  0  0
 38 44  1  6  0  0  0
 41 45  1  0  0  0  0
 45 46  1  0  0  0  0
 46 47  2  0  0  0  0
 46 48  1  0  0  0  0
 48 49  1  0  0  0  0
 49 50  1  0  0  0  0
 50 51  1  0  0  0  0
 51 52  1  0  0  0  0
 52 53  1  0  0  0  0
 53 54  1  0  0  0  0
 54 55  1  0  0  0  0
 55 56  1  0  0  0  0
 56 57  1  0  0  0  0
 57 58  1  0  0  0  0
 58 59  1  0  0  0  0
 59 60  1  0  0  0  0
 60 61  1  0  0  0  0
 61 62  1  0  0  0  0
 62 63  1  0  0  0  0
 63 64  1  0  0  0  0
 64 65  1  0  0  0  0
 65 66  1  0  0  0  0
M  END
>  <cdx:fragmentId>
307

$$$$
