173952.cdx
  Mrv1902 05222410242D          

 38 41  0  0  0  0            999 V2000
    5.7943   -8.4534    0.0000 C   0  0  1  0  0  0  0  0  0  0  0  0
    9.3573   -7.1893    0.0000 C   0  0  0  0  0  0  0  0  0  0  0  0
    5.0891   -9.6962    0.0000 C   0  0  0  0  0  0  0  0  0  0  0  0
    5.0952  -10.5212    0.0000 C   0  0  0  0  0  0  0  0  0  0  0  0
    5.8127  -10.9284    0.0000 C   0  0  0  0  0  0  0  0  0  0  0  0
    5.8189  -11.7533    0.0000 C   0  0  0  0  0  0  0  0  0  0  0  0
    5.1075  -12.1712    0.0000 C   0  0  0  0  0  0  0  0  0  0  0  0
    4.3900  -11.7640    0.0000 C   0  0  0  0  0  0  0  0  0  0  0  0
    4.3838  -10.9390    0.0000 C   0  0  0  0  0  0  0  0  0  0  0  0
    4.3715   -9.2891    0.0000 O   0  0  0  0  0  0  0  0  0  0  0  0
    5.8004   -9.2784    0.0000 N   0  0  0  0  0  0  0  0  0  0  0  0
   10.0687   -6.7715    0.0000 C   0  0  0  0  0  0  0  0  0  0  0  0
   10.0625   -5.9465    0.0000 C   0  0  0  0  0  0  0  0  0  0  0  0
   10.7739   -5.5287    0.0000 C   0  0  0  0  0  0  0  0  0  0  0  0
   11.4914   -5.9358    0.0000 C   0  0  0  0  0  0  0  0  0  0  0  0
   11.4976   -6.7608    0.0000 C   0  0  0  0  0  0  0  0  0  0  0  0
   10.7862   -7.1786    0.0000 C   0  0  0  0  0  0  0  0  0  0  0  0
    8.6398   -6.7821    0.0000 O   0  0  0  0  0  0  0  0  0  0  0  0
    9.3634   -8.0143    0.0000 N   0  0  0  0  0  0  0  0  0  0  0  0
    8.6582   -9.2571    0.0000 C   0  0  0  0  0  0  0  0  0  0  0  0
    9.3758   -9.6642    0.0000 C   0  0  0  0  0  0  0  0  0  0  0  0
   10.0871   -9.2464    0.0000 C   0  0  0  0  0  0  0  0  0  0  0  0
   10.8047   -9.6536    0.0000 C   0  0  0  0  0  0  0  0  0  0  0  0
   10.8108  -10.4785    0.0000 C   0  0  0  0  0  0  0  0  0  0  0  0
   10.0995  -10.8964    0.0000 C   0  0  0  0  0  0  0  0  0  0  0  0
    9.3819  -10.4892    0.0000 C   0  0  0  0  0  0  0  0  0  0  0  0
    4.2800   -6.8449    0.0000 C   0  0  0  0  0  0  0  0  0  0  0  0
    4.2739   -6.0199    0.0000 C   0  0  0  0  0  0  0  0  0  0  0  0
    4.9852   -5.6021    0.0000 C   0  0  0  0  0  0  0  0  0  0  0  0
    5.7028   -6.0092    0.0000 C   0  0  0  0  0  0  0  0  0  0  0  0
    5.7089   -6.8342    0.0000 C   0  0  0  0  0  0  0  0  0  0  0  0
    4.9976   -7.2520    0.0000 C   0  0  0  0  0  0  0  0  0  0  0  0
    5.0037   -8.0770    0.0000 C   0  0  0  0  0  0  0  0  0  0  0  0
    8.6521   -8.4321    0.0000 C   0  0  1  0  0  0  0  0  0  0  0  0
    7.9345   -8.0249    0.0000 C   0  0  0  0  0  0  0  0  0  0  0  0
    7.2232   -8.4428    0.0000 O   0  0  0  0  0  0  0  0  0  0  0  0
    6.4995   -7.2106    0.0000 O   0  0  0  0  0  0  0  0  0  0  0  0
    6.5056   -8.0356    0.0000 C   0  0  0  0  0  0  0  0  0  0  0  0
 36 35  1  0  0  0  0
 33 32  1  0  0  0  0
 34 19  1  1  0  0  0
 32 27  2  0  0  0  0
 28 27  1  0  0  0  0
 29 28  2  0  0  0  0
 30 29  1  0  0  0  0
 31 30  2  0  0  0  0
 32 31  1  0  0  0  0
 34 20  1  0  0  0  0
 35 34  1  0  0  0  0
 38 36  1  0  0  0  0
 38  1  1  0  0  0  0
  1 33  1  0  0  0  0
 38 37  2  0  0  0  0
  2 12  1  0  0  0  0
  3  4  1  0  0  0  0
  4  5  1  0  0  0  0
  5  6  2  0  0  0  0
  6  7  1  0  0  0  0
  7  8  2  0  0  0  0
  8  9  1  0  0  0  0
  4  9  2  0  0  0  0
  3 10  2  0  0  0  0
  3 11  1  0  0  0  0
  1 11  1  1  0  0  0
 12 13  1  0  0  0  0
 13 14  2  0  0  0  0
 14 15  1  0  0  0  0
 15 16  2  0  0  0  0
 16 17  1  0  0  0  0
 12 17  2  0  0  0  0
  2 18  2  0  0  0  0
  2 19  1  0  0  0  0
 21 22  1  0  0  0  0
 22 23  2  0  0  0  0
 23 24  1  0  0  0  0
 24 25  2  0  0  0  0
 25 26  1  0  0  0  0
 21 26  2  0  0  0  0
 20 21  1  0  0  0  0
M  END
>  <cdx:fragmentId>
12358

$$$$
