174.cdx
  Mrv1902 05222410232D          

 25 26  0  0  0  0            999 V2000
    4.1764   -7.5625    0.0000 C   0  0  0  0  0  0  0  0  0  0  0  0
    4.1764   -8.3875    0.0000 C   0  0  0  0  0  0  0  0  0  0  0  0
    4.8909   -8.8000    0.0000 C   0  0  0  0  0  0  0  0  0  0  0  0
    5.6053   -8.3875    0.0000 C   0  0  0  0  0  0  0  0  0  0  0  0
    5.6053   -7.5625    0.0000 C   0  0  0  0  0  0  0  0  0  0  0  0
    4.8909   -7.1500    0.0000 C   0  0  0  0  0  0  0  0  0  0  0  0
    6.3198   -7.1500    0.0000 C   0  0  0  0  0  0  0  0  0  0  0  0
    7.0343   -7.5625    0.0000 C   0  0  0  0  0  0  0  0  0  0  0  0
    7.7488   -7.1500    0.0000 C   0  0  0  0  0  0  0  0  0  0  0  0
    8.4632   -7.5625    0.0000 O   0  0  0  0  0  0  0  0  0  0  0  0
    3.4619   -8.8000    0.0000 O   0  0  0  0  0  0  0  0  0  0  0  0
    7.7488   -6.3250    0.0000 O   0  0  0  0  0  0  0  0  0  0  0  0
    3.4619   -7.1500    0.0000 O   0  0  0  0  0  0  0  0  0  0  0  0
    9.2025   -7.1162    0.0000 C   0  0  1  0  0  0  0  0  0  0  0  0
    9.9169   -7.5287    0.0000 C   0  0  1  0  0  0  0  0  0  0  0  0
   10.6314   -7.1162    0.0000 C   0  0  1  0  0  0  0  0  0  0  0  0
   10.6314   -6.2912    0.0000 C   0  0  0  0  0  0  0  0  0  0  0  0
    9.9169   -5.8787    0.0000 C   0  0  2  0  0  0  0  0  0  0  0  0
    9.2025   -6.2912    0.0000 C   0  0  0  0  0  0  0  0  0  0  0  0
   10.3294   -5.1642    0.0000 C   0  0  0  0  0  0  0  0  0  0  0  0
   11.1544   -5.1642    0.0000 O   0  0  0  0  0  0  0  0  0  0  0  0
    9.9169   -8.3537    0.0000 O   0  0  0  0  0  0  0  0  0  0  0  0
   11.3459   -7.5287    0.0000 O   0  0  0  0  0  0  0  0  0  0  0  0
    9.5044   -5.1642    0.0000 O   0  0  0  0  0  0  0  0  0  0  0  0
    9.9169   -4.4497    0.0000 O   0  0  0  0  0  0  0  0  0  0  0  0
  1  2  2  0  0  0  0
  2  3  1  0  0  0  0
  3  4  2  0  0  0  0
  4  5  1  0  0  0  0
  5  6  2  0  0  0  0
  6  1  1  0  0  0  0
  5  7  1  0  0  0  0
  8  9  1  0  0  0  0
  9 10  1  0  0  0  0
  2 11  1  0  0  0  0
  9 12  2  0  0  0  0
  7  8  2  0  0  0  0
  1 13  1  0  0  0  0
 14 15  1  0  0  0  0
 15 16  1  0  0  0  0
 16 17  1  0  0  0  0
 17 18  1  0  0  0  0
 18 19  1  0  0  0  0
 19 14  1  0  0  0  0
 18 20  1  0  0  0  0
 20 21  1  0  0  0  0
 15 22  1  1  0  0  0
 16 23  1  1  0  0  0
 18 24  1  1  0  0  0
 20 25  2  0  0  0  0
 14 10  1  6  0  0  0
M  END
>  <cdx:fragmentId>
6

$$$$
