174002.cdx
  Mrv1902 05222410222D          

 39 43  0  0  0  0            999 V2000
    8.8962   -3.8577    0.0000 O   0  0  0  0  0  0  0  0  0  0  0  0
    8.6413   -4.6424    0.0000 C   0  0  0  0  0  0  0  0  0  0  0  0
    9.1933   -5.2555    0.0000 C   0  0  0  0  0  0  0  0  0  0  0  0
    8.9384   -6.0401    0.0000 C   0  0  0  0  0  0  0  0  0  0  0  0
    8.1314   -6.2116    0.0000 C   0  0  0  0  0  0  0  0  0  0  0  0
    7.5794   -5.5985    0.0000 C   0  0  0  0  0  0  0  0  0  0  0  0
    7.8343   -4.8139    0.0000 C   0  0  0  0  0  0  0  0  0  0  0  0
   10.0003   -5.0839    0.0000 O   0  0  0  0  0  0  0  0  0  0  0  0
   10.5523   -5.6970    0.0000 C   0  0  0  0  0  0  0  0  0  0  0  0
    8.3614   -7.6637    0.0000 O   0  0  0  0  0  0  0  0  0  0  0  0
    7.8764   -8.3311    0.0000 C   0  0  0  0  0  0  0  0  0  0  0  0
    7.0918   -8.0762    0.0000 C   0  0  1  0  0  0  0  0  0  0  0  0
    7.0918   -7.2512    0.0000 C   0  0  1  0  0  0  0  0  0  0  0  0
    7.8764   -6.9962    0.0000 C   0  0  1  0  0  0  0  0  0  0  0  0
    5.8223   -7.6637    0.0000 O   0  0  0  0  0  0  0  0  0  0  0  0
    6.3072   -8.3311    0.0000 C   0  0  2  0  0  0  0  0  0  0  0  0
    6.3072   -6.9962    0.0000 C   0  0  0  0  0  0  0  0  0  0  0  0
    6.0523   -9.1157    0.0000 C   0  0  0  0  0  0  0  0  0  0  0  0
    5.2453   -9.2873    0.0000 C   0  0  0  0  0  0  0  0  0  0  0  0
    4.9904  -10.0719    0.0000 C   0  0  0  0  0  0  0  0  0  0  0  0
    5.5424  -10.6850    0.0000 C   0  0  0  0  0  0  0  0  0  0  0  0
    6.3494  -10.5134    0.0000 C   0  0  0  0  0  0  0  0  0  0  0  0
    6.6043   -9.7288    0.0000 C   0  0  0  0  0  0  0  0  0  0  0  0
    5.2874  -11.4696    0.0000 O   0  0  0  0  0  0  0  0  0  0  0  0
    5.5845  -12.8673    0.0000 O   0  0  0  0  0  0  0  0  0  0  0  0
    5.8395  -12.0827    0.0000 C   0  0  2  0  0  0  0  0  0  0  0  0
    6.6465  -11.9112    0.0000 C   0  0  1  0  0  0  0  0  0  0  0  0
    7.1985  -12.5243    0.0000 C   0  0  2  0  0  0  0  0  0  0  0  0
    6.9435  -13.3089    0.0000 C   0  0  1  0  0  0  0  0  0  0  0  0
    6.1366  -13.4804    0.0000 C   0  0  1  0  0  0  0  0  0  0  0  0
    5.8816  -14.2650    0.0000 C   0  0  0  0  0  0  0  0  0  0  0  0
    6.4650  -14.8484    0.0000 O   0  0  0  0  0  0  0  0  0  0  0  0
    7.4956  -13.9220    0.0000 O   0  0  0  0  0  0  0  0  0  0  0  0
    8.0055  -12.3527    0.0000 O   0  0  0  0  0  0  0  0  0  0  0  0
    6.9014  -11.1265    0.0000 O   0  0  0  0  0  0  0  0  0  0  0  0
    4.1834  -10.2434    0.0000 O   0  0  0  0  0  0  0  0  0  0  0  0
    3.6000   -9.6600    0.0000 C   0  0  0  0  0  0  0  0  0  0  0  0
    7.0918   -6.4262    0.0000 H   0  0  0  0  0  0  0  0  0  0  0  0
    7.0918   -8.9012    0.0000 H   0  0  0  0  0  0  0  0  0  0  0  0
  2  3  1  0  0  0  0
  3  4  2  0  0  0  0
  4  5  1  0  0  0  0
  5  6  2  0  0  0  0
  6  7  1  0  0  0  0
  2  7  2  0  0  0  0
  1  2  1  0  0  0  0
  8  9  1  0  0  0  0
  3  8  1  0  0  0  0
 10 11  1  0  0  0  0
 11 12  1  0  0  0  0
 12 13  1  0  0  0  0
 13 14  1  0  0  0  0
 10 14  1  0  0  0  0
 15 16  1  0  0  0  0
 15 17  1  0  0  0  0
 12 16  1  0  0  0  0
 13 17  1  0  0  0  0
 18 19  1  0  0  0  0
 19 20  2  0  0  0  0
 20 21  1  0  0  0  0
 21 22  2  0  0  0  0
 22 23  1  0  0  0  0
 18 23  2  0  0  0  0
 25 26  1  0  0  0  0
 26 27  1  0  0  0  0
 27 28  1  0  0  0  0
 28 29  1  0  0  0  0
 29 30  1  0  0  0  0
 25 30  1  0  0  0  0
 31 32  1  0  0  0  0
 30 31  1  1  0  0  0
 29 33  1  6  0  0  0
 28 34  1  1  0  0  0
 27 35  1  6  0  0  0
 26 24  1  1  0  0  0
 21 24  1  0  0  0  0
 36 37  1  0  0  0  0
 20 36  1  0  0  0  0
 16 18  1  1  0  0  0
 14  5  1  1  0  0  0
 13 38  1  1  0  0  0
 12 39  1  1  0  0  0
M  END
>  <cdx:fragmentId>
34634

$$$$
