46174001.cdx
  Mrv1902 05222410222D          

 14 15  0  0  0  0            999 V2000
    7.6255  -15.2702    0.0000 C   0  0  2  0  0  0  0  0  0  0  0  0
    6.9110  -15.6827    0.0000 C   0  0  0  0  0  0  0  0  0  0  0  0
    6.1965  -15.2702    0.0000 C   0  0  0  0  0  0  0  0  0  0  0  0
    6.1965  -14.4452    0.0000 C   0  0  0  0  0  0  0  0  0  0  0  0
    6.9110  -14.0327    0.0000 C   0  0  2  0  0  0  0  0  0  0  0  0
    7.6255  -14.4452    0.0000 C   0  0  2  0  0  0  0  0  0  0  0  0
    8.3400  -14.8577    0.0000 C   0  0  0  0  0  0  0  0  0  0  0  0
    6.9110  -16.5077    0.0000 O   0  0  0  0  0  0  0  0  0  0  0  0
    9.0544  -14.4452    0.0000 C   0  0  0  0  0  0  0  0  0  0  0  0
    9.0544  -15.2702    0.0000 C   0  0  0  0  0  0  0  0  0  0  0  0
    5.4821  -15.6827    0.0000 C   0  0  0  0  0  0  0  0  0  0  0  0
    6.9110  -13.2077    0.0000 O   0  0  0  0  0  0  0  0  0  0  0  0
    8.0380  -15.9846    0.0000 H   0  0  0  0  0  0  0  0  0  0  0  0
    8.0380  -13.7307    0.0000 H   0  0  0  0  0  0  0  0  0  0  0  0
  1  2  1  0  0  0  0
  2  3  1  0  0  0  0
  3  4  2  0  0  0  0
  4  5  1  0  0  0  0
  5  6  1  0  0  0  0
  6  7  1  0  0  0  0
  1  7  1  0  0  0  0
  1  6  1  0  0  0  0
  2  8  2  0  0  0  0
  7  9  1  0  0  0  0
  7 10  1  0  0  0  0
  3 11  1  0  0  0  0
  5 12  1  1  0  0  0
  1 13  1  1  0  0  0
  6 14  1  1  0  0  0
M  END
>  <cdx:groupId>
176134

>  <cdx:fragmentId>
176094

$$$$
