174003.cdx
  Mrv1902 05222410222D          

 50 55  0  0  0  0            999 V2000
    8.7442   -4.7529    0.0000 O   0  0  0  0  0  0  0  0  0  0  0  0
    8.4839   -5.5358    0.0000 C   0  0  2  0  0  0  0  0  0  0  0  0
    7.6758   -5.7019    0.0000 C   0  0  1  0  0  0  0  0  0  0  0  0
    7.1279   -5.0851    0.0000 C   0  0  2  0  0  0  0  0  0  0  0  0
    7.3882   -4.3022    0.0000 C   0  0  1  0  0  0  0  0  0  0  0  0
    8.1963   -4.1361    0.0000 C   0  0  1  0  0  0  0  0  0  0  0  0
    7.4156   -6.4848    0.0000 O   0  0  0  0  0  0  0  0  0  0  0  0
    6.3198   -5.2512    0.0000 O   0  0  0  0  0  0  0  0  0  0  0  0
    6.8403   -3.6854    0.0000 O   0  0  0  0  0  0  0  0  0  0  0  0
    8.4565   -3.3532    0.0000 C   0  0  0  0  0  0  0  0  0  0  0  0
    7.8771   -2.7659    0.0000 O   0  0  0  0  0  0  0  0  0  0  0  0
    9.0318   -6.1526    0.0000 O   0  0  0  0  0  0  0  0  0  0  0  0
    8.7716   -6.9355    0.0000 C   0  0  0  0  0  0  0  0  0  0  0  0
    9.3195   -7.5523    0.0000 C   0  0  0  0  0  0  0  0  0  0  0  0
    9.0593   -8.3352    0.0000 C   0  0  0  0  0  0  0  0  0  0  0  0
    8.2512   -8.5012    0.0000 C   0  0  0  0  0  0  0  0  0  0  0  0
    7.7033   -7.8844    0.0000 C   0  0  0  0  0  0  0  0  0  0  0  0
    7.9635   -7.1016    0.0000 C   0  0  0  0  0  0  0  0  0  0  0  0
   10.1276   -7.3862    0.0000 O   0  0  0  0  0  0  0  0  0  0  0  0
   10.6755   -8.0030    0.0000 C   0  0  0  0  0  0  0  0  0  0  0  0
    8.4714   -9.9548    0.0000 O   0  0  0  0  0  0  0  0  0  0  0  0
    7.9819  -10.6190    0.0000 C   0  0  0  0  0  0  0  0  0  0  0  0
    7.1991  -10.3588    0.0000 C   0  0  1  0  0  0  0  0  0  0  0  0
    7.2046   -9.5338    0.0000 C   0  0  1  0  0  0  0  0  0  0  0  0
    7.9909   -9.2841    0.0000 C   0  0  1  0  0  0  0  0  0  0  0  0
    5.9323   -9.9377    0.0000 O   0  0  0  0  0  0  0  0  0  0  0  0
    6.4127  -10.6084    0.0000 C   0  0  2  0  0  0  0  0  0  0  0  0
    6.4217   -9.2736    0.0000 C   0  0  0  0  0  0  0  0  0  0  0  0
    6.1525  -11.3913    0.0000 C   0  0  0  0  0  0  0  0  0  0  0  0
    5.3444  -11.5574    0.0000 C   0  0  0  0  0  0  0  0  0  0  0  0
    5.0842  -12.3403    0.0000 C   0  0  0  0  0  0  0  0  0  0  0  0
    5.6321  -12.9571    0.0000 C   0  0  0  0  0  0  0  0  0  0  0  0
    6.4402  -12.7910    0.0000 C   0  0  0  0  0  0  0  0  0  0  0  0
    6.7004  -12.0081    0.0000 C   0  0  0  0  0  0  0  0  0  0  0  0
    5.3718  -13.7399    0.0000 O   0  0  0  0  0  0  0  0  0  0  0  0
    5.6595  -15.1396    0.0000 O   0  0  0  0  0  0  0  0  0  0  0  0
    5.9197  -14.3567    0.0000 C   0  0  2  0  0  0  0  0  0  0  0  0
    6.7278  -14.1907    0.0000 C   0  0  1  0  0  0  0  0  0  0  0  0
    7.2757  -14.8075    0.0000 C   0  0  2  0  0  0  0  0  0  0  0  0
    7.0155  -15.5904    0.0000 C   0  0  1  0  0  0  0  0  0  0  0  0
    6.2074  -15.7564    0.0000 C   0  0  1  0  0  0  0  0  0  0  0  0
    5.9472  -16.5393    0.0000 C   0  0  0  0  0  0  0  0  0  0  0  0
    6.5266  -17.1266    0.0000 O   0  0  0  0  0  0  0  0  0  0  0  0
    7.5634  -16.2072    0.0000 O   0  0  0  0  0  0  0  0  0  0  0  0
    8.0838  -14.6414    0.0000 O   0  0  0  0  0  0  0  0  0  0  0  0
    6.9881  -13.4078    0.0000 O   0  0  0  0  0  0  0  0  0  0  0  0
    4.2761  -12.5063    0.0000 O   0  0  0  0  0  0  0  0  0  0  0  0
    3.6967  -11.9191    0.0000 C   0  0  0  0  0  0  0  0  0  0  0  0
    7.2102   -8.7088    0.0000 H   0  0  0  0  0  0  0  0  0  0  0  0
    7.1935  -11.1837    0.0000 H   0  0  0  0  0  0  0  0  0  0  0  0
  1  2  1  0  0  0  0
  2  3  1  0  0  0  0
  3  4  1  0  0  0  0
  4  5  1  0  0  0  0
  5  6  1  0  0  0  0
  1  6  1  0  0  0  0
  3  7  1  6  0  0  0
  4  8  1  1  0  0  0
  5  9  1  6  0  0  0
 10 11  1  0  0  0  0
  6 10  1  1  0  0  0
 13 14  1  0  0  0  0
 14 15  2  0  0  0  0
 15 16  1  0  0  0  0
 16 17  2  0  0  0  0
 17 18  1  0  0  0  0
 13 18  2  0  0  0  0
 12 13  1  0  0  0  0
 19 20  1  0  0  0  0
 14 19  1  0  0  0  0
 21 22  1  0  0  0  0
 22 23  1  0  0  0  0
 23 24  1  0  0  0  0
 24 25  1  0  0  0  0
 21 25  1  0  0  0  0
 26 27  1  0  0  0  0
 26 28  1  0  0  0  0
 23 27  1  0  0  0  0
 24 28  1  0  0  0  0
 29 30  1  0  0  0  0
 30 31  2  0  0  0  0
 31 32  1  0  0  0  0
 32 33  2  0  0  0  0
 33 34  1  0  0  0  0
 29 34  2  0  0  0  0
 36 37  1  0  0  0  0
 37 38  1  0  0  0  0
 38 39  1  0  0  0  0
 39 40  1  0  0  0  0
 40 41  1  0  0  0  0
 36 41  1  0  0  0  0
 42 43  1  0  0  0  0
 41 42  1  1  0  0  0
 40 44  1  6  0  0  0
 39 45  1  1  0  0  0
 38 46  1  6  0  0  0
 37 35  1  1  0  0  0
 32 35  1  0  0  0  0
 47 48  1  0  0  0  0
 31 47  1  0  0  0  0
 27 29  1  1  0  0  0
 25 16  1  1  0  0  0
  2 12  1  1  0  0  0
 24 49  1  1  0  0  0
 23 50  1  1  0  0  0
M  END
>  <cdx:fragmentId>
34634

$$$$
