17404.cdx
  Mrv1902 05222410192D          

 62 66  0  0  0  0            999 V2000
    5.7336  -16.0081    0.0000 C   0  0  0  0  0  0  0  0  0  0  0  0
    5.7336  -16.8331    0.0000 C   0  0  1  0  0  0  0  0  0  0  0  0
    6.4481  -17.2456    0.0000 C   0  0  0  0  0  0  0  0  0  0  0  0
    7.1626  -16.8331    0.0000 C   0  0  0  0  0  0  0  0  0  0  0  0
    7.1626  -16.0081    0.0000 C   0  0  2  0  0  0  0  0  0  0  0  0
    6.4481  -15.5956    0.0000 C   0  0  0  0  0  0  0  0  0  0  0  0
    7.8770  -17.2456    0.0000 C   0  0  0  0  0  0  0  0  0  0  0  0
    8.5915  -16.8331    0.0000 C   0  0  0  0  0  0  0  0  0  0  0  0
    8.5915  -16.0081    0.0000 C   0  0  2  0  0  0  0  0  0  0  0  0
    7.8770  -15.5956    0.0000 C   0  0  2  0  0  0  0  0  0  0  0  0
    9.3060  -15.5956    0.0000 C   0  0  1  0  0  0  0  0  0  0  0  0
    9.3060  -14.7706    0.0000 C   0  0  2  0  0  0  0  0  0  0  0  0
    8.5915  -14.3581    0.0000 C   0  0  0  0  0  0  0  0  0  0  0  0
    7.8770  -14.7706    0.0000 C   0  0  0  0  0  0  0  0  0  0  0  0
   10.0906  -15.8506    0.0000 C   0  0  0  0  0  0  0  0  0  0  0  0
   10.5755  -15.1831    0.0000 C   0  0  0  0  0  0  0  0  0  0  0  0
   10.0906  -14.5157    0.0000 C   0  0  2  0  0  0  0  0  0  0  0  0
   10.3041  -13.7188    0.0000 C   0  0  1  0  0  0  0  0  0  0  0  0
   11.1010  -13.5053    0.0000 C   0  0  0  0  0  0  0  0  0  0  0  0
    5.0192  -17.2456    0.0000 O   0  0  0  0  0  0  0  0  0  0  0  0
    7.1626  -15.1831    0.0000 C   0  0  0  0  0  0  0  0  0  0  0  0
    9.3060  -13.9456    0.0000 C   0  0  0  0  0  0  0  0  0  0  0  0
    9.7208  -13.1355    0.0000 C   0  0  0  0  0  0  0  0  0  0  0  0
   11.3146  -12.7084    0.0000 C   0  0  0  0  0  0  0  0  0  0  0  0
   12.1000  -12.4850    0.0000 C   0  0  2  0  0  0  0  0  0  0  0  0
   12.3135  -11.6881    0.0000 C   0  0  0  0  0  0  0  0  0  0  0  0
   13.1104  -11.4746    0.0000 C   0  0  0  0  0  0  0  0  0  0  0  0
   11.7302  -11.1047    0.0000 C   0  0  0  0  0  0  0  0  0  0  0  0
   12.6834  -13.0684    0.0000 C   0  0  0  0  0  0  0  0  0  0  0  0
   13.4803  -12.8548    0.0000 C   0  0  0  0  0  0  0  0  0  0  0  0
    7.8770  -16.4206    0.0000 H   0  0  0  0  0  0  0  0  0  0  0  0
    8.5915  -15.1831    0.0000 H   0  0  0  0  0  0  0  0  0  0  0  0
    9.3060  -16.4206    0.0000 H   0  0  0  0  0  0  0  0  0  0  0  0
   10.8875  -14.3022    0.0000 H   0  0  0  0  0  0  0  0  0  0  0  0
    4.3047  -16.8331    0.0000 C   0  0  2  0  0  0  0  0  0  0  0  0
    4.3047  -16.0081    0.0000 O   0  0  0  0  0  0  0  0  0  0  0  0
    3.5902  -15.5956    0.0000 C   0  0  1  0  0  0  0  0  0  0  0  0
    2.8757  -16.0081    0.0000 C   0  0  2  0  0  0  0  0  0  0  0  0
    2.8757  -16.8331    0.0000 C   0  0  1  0  0  0  0  0  0  0  0  0
    3.5902  -17.2456    0.0000 C   0  0  1  0  0  0  0  0  0  0  0  0
    3.5902  -14.7706    0.0000 C   0  0  0  0  0  0  0  0  0  0  0  0
    2.1613  -17.2456    0.0000 O   0  0  0  0  0  0  0  0  0  0  0  0
    3.5902  -18.0706    0.0000 O   0  0  0  0  0  0  0  0  0  0  0  0
    2.1613  -15.5956    0.0000 O   0  0  0  0  0  0  0  0  0  0  0  0
    2.8757  -14.3581    0.0000 O   0  0  0  0  0  0  0  0  0  0  0  0
    2.8757  -13.5331    0.0000 C   0  0  0  0  0  0  0  0  0  0  0  0
    3.5902  -13.1206    0.0000 C   0  0  0  0  0  0  0  0  0  0  0  0
    3.5902  -12.2956    0.0000 C   0  0  0  0  0  0  0  0  0  0  0  0
    4.3047  -11.8831    0.0000 C   0  0  0  0  0  0  0  0  0  0  0  0
    4.3047  -11.0581    0.0000 C   0  0  0  0  0  0  0  0  0  0  0  0
    5.0192  -10.6456    0.0000 C   0  0  0  0  0  0  0  0  0  0  0  0
    5.0192   -9.8206    0.0000 C   0  0  0  0  0  0  0  0  0  0  0  0
    5.7336   -9.4081    0.0000 C   0  0  0  0  0  0  0  0  0  0  0  0
    5.7336   -8.5831    0.0000 C   0  0  0  0  0  0  0  0  0  0  0  0
    6.4481   -8.1706    0.0000 C   0  0  0  0  0  0  0  0  0  0  0  0
    6.4481   -7.3456    0.0000 C   0  0  0  0  0  0  0  0  0  0  0  0
    7.1626   -6.9331    0.0000 C   0  0  0  0  0  0  0  0  0  0  0  0
    7.1626   -6.1081    0.0000 C   0  0  0  0  0  0  0  0  0  0  0  0
    7.8770   -5.6956    0.0000 C   0  0  0  0  0  0  0  0  0  0  0  0
    7.8770   -4.8706    0.0000 C   0  0  0  0  0  0  0  0  0  0  0  0
    8.5915   -4.4581    0.0000 C   0  0  0  0  0  0  0  0  0  0  0  0
    2.1613  -13.1206    0.0000 O   0  0  0  0  0  0  0  0  0  0  0  0
  1  2  1  0  0  0  0
  2  3  1  0  0  0  0
  3  4  1  0  0  0  0
  4  5  1  0  0  0  0
  5  6  1  0  0  0  0
  6  1  1  0  0  0  0
  4  7  2  0  0  0  0
  7  8  1  0  0  0  0
  8  9  1  0  0  0  0
  9 10  1  0  0  0  0
 10  5  1  0  0  0  0
  9 11  1  0  0  0  0
 11 12  1  0  0  0  0
 12 13  1  0  0  0  0
 13 14  1  0  0  0  0
 14 10  1  0  0  0  0
 11 15  1  0  0  0  0
 15 16  1  0  0  0  0
 16 17  1  0  0  0  0
 17 12  1  0  0  0  0
 17 18  1  0  0  0  0
 18 19  1  0  0  0  0
  2 20  1  1  0  0  0
  5 21  1  1  0  0  0
 12 22  1  1  0  0  0
 18 23  1  6  0  0  0
 19 24  1  0  0  0  0
 25 24  1  6  0  0  0
 25 26  1  0  0  0  0
 26 27  1  0  0  0  0
 26 28  1  0  0  0  0
 25 29  1  0  0  0  0
 29 30  1  0  0  0  0
 10 31  1  6  0  0  0
  9 32  1  1  0  0  0
 11 33  1  6  0  0  0
 17 34  1  6  0  0  0
 35 20  1  1  0  0  0
 35 36  1  0  0  0  0
 36 37  1  0  0  0  0
 37 38  1  0  0  0  0
 38 39  1  0  0  0  0
 39 40  1  0  0  0  0
 40 35  1  0  0  0  0
 37 41  1  1  0  0  0
 39 42  1  1  0  0  0
 40 43  1  6  0  0  0
 38 44  1  6  0  0  0
 41 45  1  0  0  0  0
 45 46  1  0  0  0  0
 46 47  1  0  0  0  0
 47 48  1  0  0  0  0
 48 49  1  0  0  0  0
 49 50  1  0  0  0  0
 50 51  1  0  0  0  0
 51 52  1  0  0  0  0
 52 53  1  0  0  0  0
 53 54  1  0  0  0  0
 54 55  1  0  0  0  0
 55 56  1  0  0  0  0
 56 57  1  0  0  0  0
 57 58  1  0  0  0  0
 58 59  1  0  0  0  0
 59 60  1  0  0  0  0
 60 61  1  0  0  0  0
 46 62  2  0  0  0  0
M  END
>  <cdx:fragmentId>
307

$$$$
