174157.cdx
  Mrv1902 05222410242D          

 33 36  0  0  0  0            999 V2000
    3.7017   -7.7549    0.0000 C   0  0  0  0  0  0  0  0  0  0  0  0
    3.7017   -8.5799    0.0000 C   0  0  0  0  0  0  0  0  0  0  0  0
    4.4161   -8.9924    0.0000 C   0  0  0  0  0  0  0  0  0  0  0  0
    5.1306   -8.5799    0.0000 C   0  0  0  0  0  0  0  0  0  0  0  0
    5.1306   -7.7549    0.0000 C   0  0  0  0  0  0  0  0  0  0  0  0
    4.4161   -7.3424    0.0000 C   0  0  0  0  0  0  0  0  0  0  0  0
    5.8451   -8.9924    0.0000 C   0  0  0  0  0  0  0  0  0  0  0  0
    6.5595   -8.5799    0.0000 C   0  0  0  0  0  0  0  0  0  0  0  0
    6.5595   -7.7549    0.0000 C   0  0  2  0  0  0  0  0  0  0  0  0
    5.8451   -7.3424    0.0000 O   0  0  0  0  0  0  0  0  0  0  0  0
    2.9872   -7.3424    0.0000 O   0  0  0  0  0  0  0  0  0  0  0  0
    4.4161   -9.8174    0.0000 O   0  0  0  0  0  0  0  0  0  0  0  0
    5.8451   -9.8174    0.0000 O   0  0  0  0  0  0  0  0  0  0  0  0
    7.2740   -7.3424    0.0000 C   0  0  0  0  0  0  0  0  0  0  0  0
    7.9885   -7.7549    0.0000 C   0  0  0  0  0  0  0  0  0  0  0  0
    8.7030   -7.3424    0.0000 C   0  0  0  0  0  0  0  0  0  0  0  0
    8.7030   -6.5174    0.0000 C   0  0  0  0  0  0  0  0  0  0  0  0
    7.9885   -6.1049    0.0000 C   0  0  0  0  0  0  0  0  0  0  0  0
    7.2740   -6.5174    0.0000 C   0  0  0  0  0  0  0  0  0  0  0  0
    9.4174   -6.1049    0.0000 O   0  0  0  0  0  0  0  0  0  0  0  0
    7.9885   -5.2799    0.0000 O   0  0  0  0  0  0  0  0  0  0  0  0
   10.8464   -8.5799    0.0000 O   0  0  0  0  0  0  0  0  0  0  0  0
   10.8464  -10.2299    0.0000 O   0  0  0  0  0  0  0  0  0  0  0  0
    9.4174  -11.0549    0.0000 O   0  0  0  0  0  0  0  0  0  0  0  0
    7.9885  -11.0549    0.0000 O   0  0  0  0  0  0  0  0  0  0  0  0
    7.9885  -10.2299    0.0000 C   0  0  0  0  0  0  0  0  0  0  0  0
    8.7029   -8.9924    0.0000 O   0  0  0  0  0  0  0  0  0  0  0  0
    8.7029   -9.8174    0.0000 C   0  0  1  0  0  0  0  0  0  0  0  0
    9.4174  -10.2299    0.0000 C   0  0  2  0  0  0  0  0  0  0  0  0
   10.1319   -9.8174    0.0000 C   0  0  1  0  0  0  0  0  0  0  0  0
   10.1319   -8.9924    0.0000 C   0  0  2  0  0  0  0  0  0  0  0  0
    9.4174   -8.5799    0.0000 C   0  0  2  0  0  0  0  0  0  0  0  0
    9.4174   -7.7549    0.0000 O   0  0  0  0  0  0  0  0  0  0  0  0
 31 22  1  6  0  0  0
 30 23  1  1  0  0  0
 29 24  1  6  0  0  0
 26 25  1  0  0  0  0
 28 26  1  1  0  0  0
 27 32  1  0  0  0  0
 28 27  1  0  0  0  0
 29 28  1  0  0  0  0
 30 29  1  0  0  0  0
 31 30  1  0  0  0  0
 32 31  1  0  0  0  0
 32 33  1  1  0  0  0
  1  2  2  0  0  0  0
  2  3  1  0  0  0  0
  3  4  2  0  0  0  0
  4  5  1  0  0  0  0
  5  6  2  0  0  0  0
  6  1  1  0  0  0  0
  4  7  1  0  0  0  0
  7  8  1  0  0  0  0
  8  9  1  0  0  0  0
  9 10  1  0  0  0  0
 10  5  1  0  0  0  0
  1 11  1  0  0  0  0
  3 12  1  0  0  0  0
  7 13  2  0  0  0  0
  9 14  1  6  0  0  0
 14 15  2  0  0  0  0
 15 16  1  0  0  0  0
 16 17  2  0  0  0  0
 17 18  1  0  0  0  0
 18 19  2  0  0  0  0
 19 14  1  0  0  0  0
 16 33  1  0  0  0  0
 17 20  1  0  0  0  0
 18 21  1  0  0  0  0
M  END
>  <cdx:fragmentId>
12474

$$$$
