17416.cdx
  Mrv1902 05222410182D          

 15 16  0  0  0  0            999 V2000
    6.4396   -6.5185    0.0000 C   0  0  0  0  0  0  0  0  0  0  0  0
    6.4517   -5.6936    0.0000 C   0  0  0  0  0  0  0  0  0  0  0  0
    7.1721   -5.2916    0.0000 C   0  0  0  0  0  0  0  0  0  0  0  0
    7.8805   -5.7145    0.0000 C   0  0  2  0  0  0  0  0  0  0  0  0
    7.8684   -6.5394    0.0000 C   0  0  0  0  0  0  0  0  0  0  0  0
    7.1480   -6.9414    0.0000 C   0  0  0  0  0  0  0  0  0  0  0  0
    8.6009   -5.3125    0.0000 C   0  0  1  0  0  0  0  0  0  0  0  0
    9.3093   -5.7354    0.0000 C   0  0  0  0  0  0  0  0  0  0  0  0
    9.2972   -6.5603    0.0000 C   0  0  0  0  0  0  0  0  0  0  0  0
    8.5768   -6.9623    0.0000 C   0  0  0  0  0  0  0  0  0  0  0  0
    7.8925   -4.8896    0.0000 C   0  0  0  0  0  0  0  0  0  0  0  0
    8.6130   -4.4876    0.0000 C   0  0  0  0  0  0  0  0  0  0  0  0
    5.7433   -5.2707    0.0000 C   0  0  0  0  0  0  0  0  0  0  0  0
    5.0229   -5.6728    0.0000 C   0  0  0  0  0  0  0  0  0  0  0  0
    5.7554   -4.4458    0.0000 C   0  0  0  0  0  0  0  0  0  0  0  0
  1  2  1  0  0  0  0
  2  3  1  0  0  0  0
  3  4  1  0  0  0  0
  4  5  1  0  0  0  0
  5  6  2  0  0  0  0
  6  1  1  0  0  0  0
  4  7  1  0  0  0  0
  7  8  1  0  0  0  0
  8  9  1  0  0  0  0
  9 10  2  0  0  0  0
 10  5  1  0  0  0  0
  4 11  1  6  0  0  0
  7 12  1  6  0  0  0
  2 13  2  0  0  0  0
 13 14  1  0  0  0  0
 13 15  1  0  0  0  0
M  END
>  <cdx:fragmentId>
5

$$$$
