17426.cdx
  Mrv1902 05222410282D          

 17 18  0  0  0  0            999 V2000
    6.3484   -7.9406    0.0000 H   0  0  0  0  0  0  0  0  0  0  0  0
    6.3484   -5.4656    0.0000 H   0  0  0  0  0  0  0  0  0  0  0  0
    4.9194   -8.7656    0.0000 C   0  0  0  0  0  0  0  0  0  0  0  0
    6.3484   -8.7656    0.0000 C   0  0  0  0  0  0  0  0  0  0  0  0
    5.6339   -8.3531    0.0000 C   0  0  0  0  0  0  0  0  0  0  0  0
    5.6339   -5.0531    0.0000 C   0  0  0  0  0  0  0  0  0  0  0  0
    8.4918   -7.5281    0.0000 C   0  0  0  0  0  0  0  0  0  0  0  0
    5.6339   -5.8781    0.0000 C   0  0  0  0  0  0  0  0  0  0  0  0
    4.9194   -6.2906    0.0000 C   0  0  0  0  0  0  0  0  0  0  0  0
    4.9194   -7.1156    0.0000 C   0  0  0  0  0  0  0  0  0  0  0  0
    5.6339   -7.5281    0.0000 C   0  0  2  0  0  0  0  0  0  0  0  0
    7.0628   -5.8781    0.0000 C   0  0  0  0  0  0  0  0  0  0  0  0
    6.3484   -6.2906    0.0000 C   0  0  2  0  0  0  0  0  0  0  0  0
    6.3484   -7.1156    0.0000 C   0  0  2  0  0  0  0  0  0  0  0  0
    7.0628   -7.5281    0.0000 C   0  0  0  0  0  0  0  0  0  0  0  0
    7.7773   -7.1156    0.0000 C   0  0  0  0  0  0  0  0  0  0  0  0
    7.7773   -6.2906    0.0000 C   0  0  0  0  0  0  0  0  0  0  0  0
 14  1  1  1  0  0  0
 13  2  1  1  0  0  0
  5  3  1  0  0  0  0
  5  4  1  0  0  0  0
 11  5  1  6  0  0  0
  8  6  2  0  0  0  0
 16  7  1  0  0  0  0
  8 13  1  0  0  0  0
  9  8  1  0  0  0  0
 10  9  1  0  0  0  0
 11 10  1  0  0  0  0
 14 11  1  0  0  0  0
 12 17  1  0  0  0  0
 13 12  1  0  0  0  0
 14 13  1  0  0  0  0
 15 14  1  0  0  0  0
 16 15  2  0  0  0  0
 17 16  1  0  0  0  0
M  END
>  <cdx:fragmentId>
5

$$$$
