17421.cdx
  Mrv1902 05222410262D          

 10 10  0  0  0  0            999 V2000
    7.9886   -7.0150    0.0000 O   0  0  0  0  0  0  0  0  0  0  0  0
    6.5597   -9.4900    0.0000 O   0  0  0  0  0  0  0  0  0  0  0  0
    5.1307   -8.6650    0.0000 O   0  0  0  0  0  0  0  0  0  0  0  0
    7.9886   -8.6650    0.0000 O   0  0  0  0  0  0  0  0  0  0  0  0
    7.2742   -8.2525    0.0000 C   0  0  1  0  0  0  0  0  0  0  0  0
    7.2742   -7.4275    0.0000 C   0  0  1  0  0  0  0  0  0  0  0  0
    6.5597   -7.0150    0.0000 O   0  0  0  0  0  0  0  0  0  0  0  0
    5.8452   -7.4275    0.0000 C   0  0  0  0  0  0  0  0  0  0  0  0
    5.8452   -8.2525    0.0000 C   0  0  2  0  0  0  0  0  0  0  0  0
    6.5597   -8.6650    0.0000 C   0  0  2  0  0  0  0  0  0  0  0  0
  6  1  1  1  0  0  0
 10  2  1  1  0  0  0
  9  3  1  6  0  0  0
  5  4  1  6  0  0  0
  5 10  1  0  0  0  0
  6  5  1  0  0  0  0
  7  6  1  0  0  0  0
  8  7  1  0  0  0  0
  9  8  1  0  0  0  0
 10  9  1  0  0  0  0
M  END
>  <cdx:fragmentId>
5

$$$$
