17432.cdx
  Mrv1902 05222410282D          

 15 15  0  0  0  0            999 V2000
    5.8814   -6.8888    0.0000 C   0  0  0  0  0  0  0  0  0  0  0  0
    5.8814   -7.7138    0.0000 C   0  0  0  0  0  0  0  0  0  0  0  0
    6.5959   -8.1263    0.0000 C   0  0  0  0  0  0  0  0  0  0  0  0
    7.3103   -7.7138    0.0000 C   0  0  0  0  0  0  0  0  0  0  0  0
    7.3103   -6.8888    0.0000 C   0  0  0  0  0  0  0  0  0  0  0  0
    6.5959   -6.4763    0.0000 C   0  0  0  0  0  0  0  0  0  0  0  0
    5.1669   -6.4763    0.0000 O   0  0  0  0  0  0  0  0  0  0  0  0
    4.4525   -6.8888    0.0000 C   0  0  0  0  0  0  0  0  0  0  0  0
    6.5959   -8.9513    0.0000 O   0  0  0  0  0  0  0  0  0  0  0  0
    5.8814   -9.3637    0.0000 C   0  0  0  0  0  0  0  0  0  0  0  0
    8.0248   -8.1263    0.0000 O   0  0  0  0  0  0  0  0  0  0  0  0
    8.7393   -7.7138    0.0000 C   0  0  0  0  0  0  0  0  0  0  0  0
    6.5959   -5.6512    0.0000 C   0  0  0  0  0  0  0  0  0  0  0  0
    7.3103   -5.2387    0.0000 C   0  0  0  0  0  0  0  0  0  0  0  0
    7.3103   -4.4138    0.0000 C   0  0  0  0  0  0  0  0  0  0  0  0
  1  2  2  0  0  0  0
  2  3  1  0  0  0  0
  3  4  2  0  0  0  0
  4  5  1  0  0  0  0
  5  6  2  0  0  0  0
  6  1  1  0  0  0  0
  1  7  1  0  0  0  0
  7  8  1  0  0  0  0
  3  9  1  0  0  0  0
  9 10  1  0  0  0  0
  4 11  1  0  0  0  0
 11 12  1  0  0  0  0
  6 13  1  0  0  0  0
 13 14  1  0  0  0  0
 14 15  2  0  0  0  0
M  END
>  <cdx:fragmentId>
5

$$$$
