17436.cdx
  Mrv1902 05222410262D          

 17 18  0  0  0  0            999 V2000
   10.1612   -8.0768    0.0000 C   0  0  0  0  0  0  0  0  0  0  0  0
   10.1716   -7.2518    0.0000 C   0  0  0  0  0  0  0  0  0  0  0  0
    9.4624   -6.8304    0.0000 C   0  0  0  0  0  0  0  0  0  0  0  0
    8.7428   -7.2339    0.0000 C   0  0  0  0  0  0  0  0  0  0  0  0
    8.7324   -8.0588    0.0000 C   0  0  2  0  0  0  0  0  0  0  0  0
    9.4417   -8.4803    0.0000 C   0  0  0  0  0  0  0  0  0  0  0  0
    8.0335   -6.8125    0.0000 C   0  0  0  0  0  0  0  0  0  0  0  0
    7.3139   -7.2160    0.0000 C   0  0  1  0  0  0  0  0  0  0  0  0
    7.3036   -8.0409    0.0000 C   0  0  0  0  0  0  0  0  0  0  0  0
    8.0128   -8.4623    0.0000 C   0  0  0  0  0  0  0  0  0  0  0  0
    8.7221   -8.8838    0.0000 C   0  0  0  0  0  0  0  0  0  0  0  0
    6.6047   -6.7945    0.0000 C   0  0  0  0  0  0  0  0  0  0  0  0
    9.4727   -6.0055    0.0000 C   0  0  0  0  0  0  0  0  0  0  0  0
    5.8851   -7.1980    0.0000 C   0  0  0  0  0  0  0  0  0  0  0  0
    5.1759   -6.7766    0.0000 O   0  0  0  0  0  0  0  0  0  0  0  0
    5.8748   -8.0230    0.0000 O   0  0  0  0  0  0  0  0  0  0  0  0
    6.6151   -5.9696    0.0000 C   0  0  0  0  0  0  0  0  0  0  0  0
  1  2  1  0  0  0  0
  2  3  1  0  0  0  0
  3  4  2  0  0  0  0
  4  5  1  0  0  0  0
  5  6  1  0  0  0  0
  6  1  1  0  0  0  0
  4  7  1  0  0  0  0
  7  8  1  0  0  0  0
  8  9  1  0  0  0  0
  9 10  1  0  0  0  0
 10  5  1  0  0  0  0
  5 11  1  1  0  0  0
  8 12  1  1  0  0  0
  3 13  1  0  0  0  0
 12 14  1  0  0  0  0
 14 15  1  0  0  0  0
 14 16  2  0  0  0  0
 12 17  2  0  0  0  0
M  END
>  <cdx:fragmentId>
5

$$$$
