17433.cdx
  Mrv1902 05222410282D          

 15 16  0  0  0  0            999 V2000
    4.3345   -7.2600    0.0000 C   0  0  0  0  0  0  0  0  0  0  0  0
    4.3345   -8.0850    0.0000 C   0  0  0  0  0  0  0  0  0  0  0  0
    5.0490   -8.4975    0.0000 C   0  0  0  0  0  0  0  0  0  0  0  0
    5.7635   -8.0850    0.0000 C   0  0  0  0  0  0  0  0  0  0  0  0
    5.7635   -7.2600    0.0000 C   0  0  0  0  0  0  0  0  0  0  0  0
    5.0490   -6.8475    0.0000 C   0  0  1  0  0  0  0  0  0  0  0  0
    6.4779   -8.4975    0.0000 C   0  0  0  0  0  0  0  0  0  0  0  0
    7.1924   -8.0850    0.0000 C   0  0  0  0  0  0  0  0  0  0  0  0
    7.1924   -7.2600    0.0000 C   0  0  0  0  0  0  0  0  0  0  0  0
    6.4779   -6.8475    0.0000 C   0  0  0  0  0  0  0  0  0  0  0  0
    7.9069   -8.4975    0.0000 C   0  0  0  0  0  0  0  0  0  0  0  0
    5.0490   -9.3225    0.0000 C   0  0  0  0  0  0  0  0  0  0  0  0
    4.3345   -9.7350    0.0000 C   0  0  0  0  0  0  0  0  0  0  0  0
    5.7635   -9.7350    0.0000 C   0  0  0  0  0  0  0  0  0  0  0  0
    5.0490   -6.0225    0.0000 C   0  0  0  0  0  0  0  0  0  0  0  0
  1  2  1  0  0  0  0
  2  3  2  0  0  0  0
  3  4  1  0  0  0  0
  4  5  2  0  0  0  0
  5  6  1  0  0  0  0
  6  1  1  0  0  0  0
  4  7  1  0  0  0  0
  7  8  2  0  0  0  0
  8  9  1  0  0  0  0
  9 10  2  0  0  0  0
 10  5  1  0  0  0  0
  8 11  1  0  0  0  0
  3 12  1  0  0  0  0
 12 13  1  0  0  0  0
 12 14  1  0  0  0  0
  6 15  1  6  0  0  0
M  END
>  <cdx:fragmentId>
5

$$$$
