17434.cdx
  Mrv1902 05222410272D          

 40 40  0  0  0  0            999 V2000
    2.1719  -17.1911    0.0000 C   0  0  0  0  0  0  0  0  0  0  0  0
    2.8862  -16.7782    0.0000 C   0  0  0  0  0  0  0  0  0  0  0  0
    3.6009  -17.1903    0.0000 C   0  0  0  0  0  0  0  0  0  0  0  0
    3.6014  -18.0153    0.0000 C   0  0  0  0  0  0  0  0  0  0  0  0
    2.8872  -18.4282    0.0000 C   0  0  0  0  0  0  0  0  0  0  0  0
    2.1724  -18.0161    0.0000 C   0  0  0  0  0  0  0  0  0  0  0  0
    2.8857  -15.9532    0.0000 C   0  0  0  0  0  0  0  0  0  0  0  0
    3.5999  -15.5403    0.0000 C   0  0  0  0  0  0  0  0  0  0  0  0
    3.5994  -14.7153    0.0000 C   0  0  0  0  0  0  0  0  0  0  0  0
    4.3136  -14.3023    0.0000 C   0  0  0  0  0  0  0  0  0  0  0  0
    4.3131  -13.4773    0.0000 C   0  0  0  0  0  0  0  0  0  0  0  0
    5.0273  -13.0644    0.0000 C   0  0  0  0  0  0  0  0  0  0  0  0
    5.0268  -12.2394    0.0000 C   0  0  0  0  0  0  0  0  0  0  0  0
    5.7411  -11.8265    0.0000 C   0  0  0  0  0  0  0  0  0  0  0  0
    5.7406  -11.0015    0.0000 C   0  0  0  0  0  0  0  0  0  0  0  0
    6.4548  -10.5885    0.0000 C   0  0  0  0  0  0  0  0  0  0  0  0
    6.4543   -9.7635    0.0000 C   0  0  0  0  0  0  0  0  0  0  0  0
    7.1685   -9.3506    0.0000 C   0  0  0  0  0  0  0  0  0  0  0  0
    7.1680   -8.5256    0.0000 C   0  0  0  0  0  0  0  0  0  0  0  0
    7.8822   -8.1127    0.0000 C   0  0  0  0  0  0  0  0  0  0  0  0
    7.8817   -7.2877    0.0000 C   0  0  0  0  0  0  0  0  0  0  0  0
    8.5960   -6.8748    0.0000 C   0  0  0  0  0  0  0  0  0  0  0  0
    8.5955   -6.0498    0.0000 C   0  0  0  0  0  0  0  0  0  0  0  0
    9.3097   -5.6368    0.0000 C   0  0  0  0  0  0  0  0  0  0  0  0
    9.3092   -4.8118    0.0000 C   0  0  0  0  0  0  0  0  0  0  0  0
    9.3107   -7.2868    0.0000 C   0  0  0  0  0  0  0  0  0  0  0  0
    7.8832   -9.7627    0.0000 C   0  0  0  0  0  0  0  0  0  0  0  0
    4.3121  -11.8273    0.0000 C   0  0  0  0  0  0  0  0  0  0  0  0
    2.8847  -14.3032    0.0000 C   0  0  0  0  0  0  0  0  0  0  0  0
    4.3151  -16.7773    0.0000 C   0  0  0  0  0  0  0  0  0  0  0  0
    1.3469  -17.1911    0.0000 C   0  0  0  0  0  0  0  0  0  0  0  0
    1.7594  -16.4767    0.0000 C   0  0  0  0  0  0  0  0  0  0  0  0
   10.0234   -4.3989    0.0000 C   0  0  0  0  0  0  0  0  0  0  0  0
   10.0229   -3.5739    0.0000 C   0  0  0  0  0  0  0  0  0  0  0  0
   10.7381   -4.8110    0.0000 C   0  0  0  0  0  0  0  0  0  0  0  0
   10.7371   -3.1610    0.0000 C   0  0  0  0  0  0  0  0  0  0  0  0
   10.7366   -2.3360    0.0000 C   0  0  0  0  0  0  0  0  0  0  0  0
   11.4509   -1.9230    0.0000 C   0  0  0  0  0  0  0  0  0  0  0  0
   11.4504   -1.0980    0.0000 C   0  0  0  0  0  0  0  0  0  0  0  0
   12.1656   -2.3351    0.0000 C   0  0  0  0  0  0  0  0  0  0  0  0
  1  2  1  0  0  0  0
  2  3  2  0  0  0  0
  3  4  1  0  0  0  0
  4  5  1  0  0  0  0
  5  6  1  0  0  0  0
  1  6  1  0  0  0  0
  7  8  2  0  0  0  0
  8  9  1  0  0  0  0
  9 10  2  0  0  0  0
 10 11  1  0  0  0  0
 11 12  2  0  0  0  0
 12 13  1  0  0  0  0
 13 14  2  0  0  0  0
 14 15  1  0  0  0  0
 15 16  2  0  0  0  0
 16 17  1  0  0  0  0
 17 18  2  0  0  0  0
 18 19  1  0  0  0  0
 19 20  2  0  0  0  0
 20 21  1  0  0  0  0
 21 22  2  0  0  0  0
 22 23  1  0  0  0  0
 23 24  2  0  0  0  0
 25 24  1  0  0  0  0
 22 26  1  0  0  0  0
 18 27  1  0  0  0  0
 13 28  1  0  0  0  0
  9 29  1  0  0  0  0
  2  7  1  0  0  0  0
  3 30  1  0  0  0  0
  1 31  1  0  0  0  0
  1 32  1  0  0  0  0
 25 33  2  0  0  0  0
 33 34  1  0  0  0  0
 33 35  1  0  0  0  0
 34 36  1  0  0  0  0
 36 37  1  0  0  0  0
 37 38  2  0  0  0  0
 38 39  1  0  0  0  0
 38 40  1  0  0  0  0
M  END
>  <cdx:fragmentId>
17

$$$$
