1744.cdx
  Mrv1902 05222410212D          

 12 12  0  0  0  0            999 V2000
    6.5732  -10.2644    0.0000 O   0  0  0  0  0  0  0  0  0  0  0  0
    7.2830   -9.8439    0.0000 C   0  0  0  0  0  0  0  0  0  0  0  0
    7.2738   -9.0190    0.0000 C   0  0  0  0  0  0  0  0  0  0  0  0
    7.9837   -8.5985    0.0000 C   0  0  0  0  0  0  0  0  0  0  0  0
    7.9745   -7.7736    0.0000 C   0  0  0  0  0  0  0  0  0  0  0  0
    6.5456   -7.7895    0.0000 C   0  0  0  0  0  0  0  0  0  0  0  0
    6.5548   -8.6145    0.0000 C   0  0  0  0  0  0  0  0  0  0  0  0
    7.2573   -5.9401    0.0000 C   0  0  0  0  0  0  0  0  0  0  0  0
    8.4938   -6.6562    0.0000 C   0  0  0  0  0  0  0  0  0  0  0  0
    7.6688   -6.6551    0.0000 C   0  0  0  0  0  0  0  0  0  0  0  0
    6.8438   -6.6541    0.0000 O   0  0  0  0  0  0  0  0  0  0  0  0
    7.2554   -7.3691    0.0000 C   0  0  1  0  0  0  0  0  0  0  0  0
  1  2  1  0  0  0  0
  2  3  1  0  0  0  0
  3  4  2  0  0  0  0
 10  8  1  0  0  0  0
  4  5  1  0  0  0  0
  5 12  1  0  0  0  0
 12  6  1  0  0  0  0
  6  7  1  0  0  0  0
  7  3  1  0  0  0  0
 10  9  1  0  0  0  0
 12 10  1  0  0  0  0
 12 11  1  6  0  0  0
M  END
>  <cdx:fragmentId>
3

$$$$
