1745.cdx
  Mrv1902 05222410212D          

 33 36  0  0  0  0            999 V2000
    4.3345   -6.3731    0.0000 C   0  0  0  0  0  0  0  0  0  0  0  0
    4.3345   -7.1981    0.0000 C   0  0  0  0  0  0  0  0  0  0  0  0
    5.0490   -7.6106    0.0000 C   0  0  0  0  0  0  0  0  0  0  0  0
    5.7635   -7.1981    0.0000 C   0  0  0  0  0  0  0  0  0  0  0  0
    5.7635   -6.3731    0.0000 C   0  0  0  0  0  0  0  0  0  0  0  0
    5.0490   -5.9606    0.0000 C   0  0  0  0  0  0  0  0  0  0  0  0
    3.6201   -5.9606    0.0000 O   0  0  0  0  0  0  0  0  0  0  0  0
    5.0490   -8.4356    0.0000 O   0  0  0  0  0  0  0  0  0  0  0  0
    6.4779   -7.6106    0.0000 C   0  0  0  0  0  0  0  0  0  0  0  0
    7.3029   -7.6106    0.0000 C   0  0  1  0  0  0  0  0  0  0  0  0
    6.2230   -8.3952    0.0000 C   0  0  0  0  0  0  0  0  0  0  0  0
    6.8904   -8.8802    0.0000 C   0  0  0  0  0  0  0  0  0  0  0  0
    7.5579   -8.3952    0.0000 O   0  0  0  0  0  0  0  0  0  0  0  0
    8.0174   -7.1981    0.0000 C   0  0  0  0  0  0  0  0  0  0  0  0
    8.8424   -7.1981    0.0000 C   0  0  0  0  0  0  0  0  0  0  0  0
    9.2549   -7.9126    0.0000 C   0  0  0  0  0  0  0  0  0  0  0  0
   10.0799   -7.9126    0.0000 C   0  0  0  0  0  0  0  0  0  0  0  0
   10.4924   -7.1981    0.0000 C   0  0  0  0  0  0  0  0  0  0  0  0
   10.0799   -6.4837    0.0000 C   0  0  0  0  0  0  0  0  0  0  0  0
    9.2549   -6.4837    0.0000 C   0  0  0  0  0  0  0  0  0  0  0  0
   11.3174   -7.1981    0.0000 O   0  0  0  0  0  0  0  0  0  0  0  0
    6.8904   -9.7052    0.0000 O   0  0  0  0  0  0  0  0  0  0  0  0
    2.9114   -8.8481    0.0000 C   0  0  2  0  0  0  0  0  0  0  0  0
    2.9114   -9.6731    0.0000 C   0  0  2  0  0  0  0  0  0  0  0  0
    3.6259  -10.0856    0.0000 C   0  0  1  0  0  0  0  0  0  0  0  0
    4.3403   -9.6731    0.0000 C   0  0  2  0  0  0  0  0  0  0  0  0
    4.3403   -8.8481    0.0000 C   0  0  1  0  0  0  0  0  0  0  0  0
    3.6259   -8.4356    0.0000 O   0  0  0  0  0  0  0  0  0  0  0  0
    2.1969   -8.4356    0.0000 C   0  0  0  0  0  0  0  0  0  0  0  0
    3.6259  -10.9106    0.0000 O   0  0  0  0  0  0  0  0  0  0  0  0
    5.0548  -10.0856    0.0000 O   0  0  0  0  0  0  0  0  0  0  0  0
    2.1969  -10.0856    0.0000 O   0  0  0  0  0  0  0  0  0  0  0  0
    1.4825   -8.8481    0.0000 O   0  0  0  0  0  0  0  0  0  0  0  0
  1  2  2  0  0  0  0
  2  3  1  0  0  0  0
  3  4  2  0  0  0  0
  4  5  1  0  0  0  0
  5  6  2  0  0  0  0
  6  1  1  0  0  0  0
  1  7  1  0  0  0  0
  3  8  1  0  0  0  0
  4  9  1  0  0  0  0
  9 10  1  0  0  0  0
  9 11  2  0  0  0  0
 11 12  1  0  0  0  0
 12 13  1  0  0  0  0
 13 10  1  0  0  0  0
 10 14  1  6  0  0  0
 14 15  1  0  0  0  0
 15 16  2  0  0  0  0
 16 17  1  0  0  0  0
 17 18  2  0  0  0  0
 18 19  1  0  0  0  0
 19 20  2  0  0  0  0
 20 15  1  0  0  0  0
 18 21  1  0  0  0  0
 12 22  2  0  0  0  0
 23 24  1  0  0  0  0
 24 25  1  0  0  0  0
 25 26  1  0  0  0  0
 26 27  1  0  0  0  0
 27 28  1  0  0  0  0
 28 23  1  0  0  0  0
 23 29  1  1  0  0  0
 25 30  1  1  0  0  0
 26 31  1  6  0  0  0
 24 32  1  6  0  0  0
 29 33  1  0  0  0  0
 27  8  1  1  0  0  0
M  END
>  <cdx:fragmentId>
5

$$$$
