17469.cdx
  Mrv1902 05222410232D          

 15 15  0  0  0  0            999 V2000
    8.6489   -5.3012    0.0000 C   0  0  0  0  0  0  0  0  0  0  0  0
    8.7895   -4.4883    0.0000 C   0  0  0  0  0  0  0  0  0  0  0  0
    8.0809   -4.0657    0.0000 C   0  0  0  0  0  0  0  0  0  0  0  0
    7.4325   -4.5757    0.0000 C   0  0  0  0  0  0  0  0  0  0  0  0
    6.6076   -4.5640    0.0000 C   0  0  0  0  0  0  0  0  0  0  0  0
    6.1850   -5.2725    0.0000 C   0  0  0  0  0  0  0  0  0  0  0  0
    6.5764   -5.9863    0.0000 C   0  0  0  0  0  0  0  0  0  0  0  0
    7.4014   -5.9980    0.0000 C   0  0  0  0  0  0  0  0  0  0  0  0
    7.8037   -6.7183    0.0000 C   0  0  0  0  0  0  0  0  0  0  0  0
    8.6286   -6.7300    0.0000 C   0  0  0  0  0  0  0  0  0  0  0  0
    9.0512   -6.0214    0.0000 C   0  0  0  0  0  0  0  0  0  0  0  0
    5.4764   -4.8499    0.0000 C   0  0  0  0  0  0  0  0  0  0  0  0
    5.4647   -5.6749    0.0000 C   0  0  0  0  0  0  0  0  0  0  0  0
    8.0279   -3.2424    0.0000 C   0  0  0  0  0  0  0  0  0  0  0  0
    9.0309   -7.4502    0.0000 C   0  0  0  0  0  0  0  0  0  0  0  0
  1  2  1  0  0  0  0
  2  3  1  0  0  0  0
  3  4  1  0  0  0  0
  4  5  2  0  0  0  0
  5  6  1  0  0  0  0
  6  7  1  0  0  0  0
  7  8  1  0  0  0  0
  8  9  1  0  0  0  0
  9 10  1  0  0  0  0
 10 11  2  0  0  0  0
  1 11  1  0  0  0  0
  6 12  1  0  0  0  0
  6 13  1  0  0  0  0
  3 14  2  0  0  0  0
 10 15  1  0  0  0  0
M  END
>  <cdx:fragmentId>
1187

$$$$
