1746.cdx
  Mrv1902 05222410212D          

 14 15  0  0  0  0            999 V2000
    5.2140   -6.1785    0.0000 C   0  0  0  0  0  0  0  0  0  0  0  0
    4.3891   -6.1915    0.0000 O   0  0  0  0  0  0  0  0  0  0  0  0
    5.5598   -8.9503    0.0000 C   0  0  0  0  0  0  0  0  0  0  0  0
    7.6704   -6.8542    0.0000 O   0  0  0  0  0  0  0  0  0  0  0  0
    6.2677   -8.5266    0.0000 C   0  0  0  0  0  0  0  0  0  0  0  0
    6.9756   -8.1029    0.0000 C   0  0  0  0  0  0  0  0  0  0  0  0
    6.9625   -7.2780    0.0000 C   0  0  0  0  0  0  0  0  0  0  0  0
    6.2416   -6.8768    0.0000 C   0  0  0  0  0  0  0  0  0  0  0  0
    4.8389   -8.5492    0.0000 C   0  0  0  0  0  0  0  0  0  0  0  0
    5.5468   -8.1254    0.0000 C   0  0  2  0  0  0  0  0  0  0  0  0
    5.5338   -7.3006    0.0000 C   0  0  0  0  0  0  0  0  0  0  0  0
    4.8128   -6.8994    0.0000 C   0  0  1  0  0  0  0  0  0  0  0  0
    4.1050   -7.3231    0.0000 C   0  0  0  0  0  0  0  0  0  0  0  0
    4.1180   -8.1480    0.0000 C   0  0  0  0  0  0  0  0  0  0  0  0
 12  1  1  1  0  0  0
 12  2  1  6  0  0  0
 10  3  1  6  0  0  0
  7  4  2  0  0  0  0
  5 10  1  0  0  0  0
  6  5  1  0  0  0  0
  7  6  1  0  0  0  0
  8  7  1  0  0  0  0
 11  8  2  0  0  0  0
  9 14  1  0  0  0  0
 10  9  1  0  0  0  0
 11 10  1  0  0  0  0
 12 11  1  0  0  0  0
 13 12  1  0  0  0  0
 14 13  1  0  0  0  0
M  END
>  <cdx:fragmentId>
5

$$$$
