17462.cdx
  Mrv1902 05222410212D          

 17 16  0  0  0  0            999 V2000
    4.6423   -5.0737    0.0000 N   0  0  0  0  0  0  0  0  0  0  0  0
    3.9278   -7.1362    0.0000 O   0  0  0  0  0  0  0  0  0  0  0  0
    6.7857   -7.1362    0.0000 O   0  0  0  0  0  0  0  0  0  0  0  0
    8.9291   -8.3737    0.0000 C   0  0  0  0  0  0  0  0  0  0  0  0
    8.9291   -7.5488    0.0000 Se  0  0  0  0  0  0  0  0  0  0  0  0
    8.2147   -7.1362    0.0000 C   0  0  0  0  0  0  0  0  0  0  0  0
    8.9291   -5.0737    0.0000 O   0  0  0  0  0  0  0  0  0  0  0  0
    3.2134   -5.8988    0.0000 O   0  0  0  0  0  0  0  0  0  0  0  0
    3.9278   -6.3113    0.0000 C   0  0  0  0  0  0  0  0  0  0  0  0
    4.6423   -5.8988    0.0000 C   0  0  2  0  0  0  0  0  0  0  0  0
    5.3568   -6.3113    0.0000 C   0  0  0  0  0  0  0  0  0  0  0  0
    6.0713   -5.8988    0.0000 C   0  0  0  0  0  0  0  0  0  0  0  0
    6.7857   -6.3113    0.0000 C   0  0  0  0  0  0  0  0  0  0  0  0
    7.5002   -5.8988    0.0000 N   0  0  0  0  0  0  0  0  0  0  0  0
    8.2147   -6.3113    0.0000 C   0  0  2  0  0  0  0  0  0  0  0  0
    8.9291   -5.8988    0.0000 C   0  0  0  0  0  0  0  0  0  0  0  0
    9.6436   -6.3113    0.0000 O   0  0  0  0  0  0  0  0  0  0  0  0
 10  1  1  1  0  0  0
  9  2  2  0  0  0  0
 13  3  2  0  0  0  0
  5  4  1  0  0  0  0
  6  5  1  0  0  0  0
 15  6  1  0  0  0  0
 16  7  2  0  0  0  0
  9  8  1  0  0  0  0
 10  9  1  0  0  0  0
 11 10  1  0  0  0  0
 12 11  1  0  0  0  0
 13 12  1  0  0  0  0
 14 13  1  0  0  0  0
 15 14  1  6  0  0  0
 16 15  1  0  0  0  0
 17 16  1  0  0  0  0
M  END
>  <cdx:fragmentId>
3

$$$$
