17466.cdx
  Mrv1902 05222410222D          

 19 18  0  0  0  0            999 V2000
    9.3549  -10.4775    0.0000 C   0  0  0  0  0  0  0  0  0  0  0  0
    9.3549   -9.6525    0.0000 C   0  0  0  0  0  0  0  0  0  0  0  0
    4.3536   -5.9400    0.0000 N   0  0  0  0  0  0  0  0  0  0  0  0
    3.6391   -8.0025    0.0000 O   0  0  0  0  0  0  0  0  0  0  0  0
    8.6404   -9.2400    0.0000 C   0  0  0  0  0  0  0  0  0  0  0  0
    8.6404   -8.4150    0.0000 S   0  0  0  0  0  0  0  0  0  0  0  0
    7.9259   -8.0025    0.0000 C   0  0  0  0  0  0  0  0  0  0  0  0
    6.4970   -8.0025    0.0000 O   0  0  0  0  0  0  0  0  0  0  0  0
    8.6404   -5.9400    0.0000 O   0  0  0  0  0  0  0  0  0  0  0  0
    2.9246   -6.7650    0.0000 O   0  0  0  0  0  0  0  0  0  0  0  0
    3.6391   -7.1775    0.0000 C   0  0  0  0  0  0  0  0  0  0  0  0
    4.3536   -6.7650    0.0000 C   0  0  2  0  0  0  0  0  0  0  0  0
    5.0680   -7.1775    0.0000 C   0  0  0  0  0  0  0  0  0  0  0  0
    5.7825   -6.7650    0.0000 C   0  0  0  0  0  0  0  0  0  0  0  0
    6.4970   -7.1775    0.0000 C   0  0  0  0  0  0  0  0  0  0  0  0
    7.2115   -6.7650    0.0000 N   0  0  0  0  0  0  0  0  0  0  0  0
    7.9259   -7.1775    0.0000 C   0  0  2  0  0  0  0  0  0  0  0  0
    8.6404   -6.7650    0.0000 C   0  0  0  0  0  0  0  0  0  0  0  0
    9.3549   -7.1775    0.0000 O   0  0  0  0  0  0  0  0  0  0  0  0
  2  1  1  0  0  0  0
  5  2  1  0  0  0  0
 12  3  1  1  0  0  0
 11  4  2  0  0  0  0
  6  5  1  0  0  0  0
  7  6  1  0  0  0  0
 17  7  1  0  0  0  0
 15  8  2  0  0  0  0
 18  9  2  0  0  0  0
 11 10  1  0  0  0  0
 12 11  1  0  0  0  0
 13 12  1  0  0  0  0
 14 13  1  0  0  0  0
 15 14  1  0  0  0  0
 16 15  1  0  0  0  0
 17 16  1  6  0  0  0
 18 17  1  0  0  0  0
 19 18  1  0  0  0  0
M  END
>  <cdx:fragmentId>
3

$$$$
