17468.cdx
  Mrv1902 05222410232D          

 18 18  0  0  0  0            999 V2000
    6.8302   -5.8575    0.0000 C   0  0  0  0  0  0  0  0  0  0  0  0
    6.8302   -6.6825    0.0000 C   0  0  2  0  0  0  0  0  0  0  0  0
    7.5446   -7.0950    0.0000 Br  0  0  0  0  0  0  0  0  0  0  0  0
    8.2591   -6.6825    0.0000 C   0  0  1  0  0  0  0  0  0  0  0  0
    8.2591   -5.8575    0.0000 C   0  0  2  0  0  0  0  0  0  0  0  0
    7.5446   -5.4450    0.0000 C   0  0  0  0  0  0  0  0  0  0  0  0
    6.1157   -7.0950    0.0000 C   0  0  1  0  0  0  0  0  0  0  0  0
    6.1157   -7.9200    0.0000 C   0  0  0  0  0  0  0  0  0  0  0  0
    6.8302   -8.3325    0.0000 C   0  0  0  0  0  0  0  0  0  0  0  0
    7.5446   -7.9200    0.0000 C   0  0  2  0  0  0  0  0  0  0  0  0
    8.2591   -8.3325    0.0000 C   0  0  1  0  0  0  0  0  0  0  0  0
    8.9736   -7.9200    0.0000 C   0  0  0  0  0  0  0  0  0  0  0  0
    8.9736   -7.0950    0.0000 C   0  0  0  0  0  0  0  0  0  0  0  0
    5.4012   -6.6825    0.0000 Br  0  0  0  0  0  0  0  0  0  0  0  0
    6.8302   -7.5075    0.0000 Br  0  0  0  0  0  0  0  0  0  0  0  0
    7.5446   -6.2700    0.0000 Br  0  0  0  0  0  0  0  0  0  0  0  0
    8.2591   -9.1575    0.0000 Br  0  0  0  0  0  0  0  0  0  0  0  0
    8.9736   -5.4450    0.0000 Br  0  0  0  0  0  0  0  0  0  0  0  0
  1  2  1  0  0  0  0
  2  3  1  6  0  0  0
  4  5  1  0  0  0  0
  5  6  1  0  0  0  0
  6  1  1  0  0  0  0
  2  7  1  0  0  0  0
  7  8  1  0  0  0  0
  8  9  1  0  0  0  0
  9 10  1  0  0  0  0
 10 11  1  0  0  0  0
 11 12  1  0  0  0  0
 12 13  1  0  0  0  0
 13  4  1  0  0  0  0
  7 14  1  1  0  0  0
 10 15  1  1  0  0  0
  4 16  1  1  0  0  0
 11 17  1  1  0  0  0
  5 18  1  6  0  0  0
M  END
>  <cdx:fragmentId>
5

$$$$
