1747.cdx
  Mrv1902 05222410212D          

 18 19  0  0  0  0            999 V2000
    5.9845   -6.5519    0.0000 C   0  0  0  0  0  0  0  0  0  0  0  0
    5.9845   -7.3769    0.0000 C   0  0  1  0  0  0  0  0  0  0  0  0
    6.6990   -7.7894    0.0000 C   0  0  0  0  0  0  0  0  0  0  0  0
    7.4135   -7.3769    0.0000 C   0  0  0  0  0  0  0  0  0  0  0  0
    7.4135   -6.5519    0.0000 C   0  0  0  0  0  0  0  0  0  0  0  0
    6.6990   -6.1394    0.0000 C   0  0  0  0  0  0  0  0  0  0  0  0
    8.1279   -7.7894    0.0000 C   0  0  1  0  0  0  0  0  0  0  0  0
    8.8424   -7.3769    0.0000 C   0  0  0  0  0  0  0  0  0  0  0  0
    8.8424   -6.5519    0.0000 C   0  0  0  0  0  0  0  0  0  0  0  0
    8.1279   -6.1394    0.0000 C   0  0  1  0  0  0  0  0  0  0  0  0
    5.1595   -7.3769    0.0000 C   0  0  0  0  0  0  0  0  0  0  0  0
    6.6990   -8.6144    0.0000 O   0  0  0  0  0  0  0  0  0  0  0  0
    7.7154   -5.4249    0.0000 C   0  0  0  0  0  0  0  0  0  0  0  0
    8.5404   -5.4249    0.0000 O   0  0  0  0  0  0  0  0  0  0  0  0
    8.1279   -8.6144    0.0000 C   0  0  0  0  0  0  0  0  0  0  0  0
    7.4135   -9.0269    0.0000 C   0  0  0  0  0  0  0  0  0  0  0  0
    8.8424   -9.0269    0.0000 C   0  0  0  0  0  0  0  0  0  0  0  0
    5.5720   -8.0913    0.0000 O   0  0  0  0  0  0  0  0  0  0  0  0
  1  2  1  0  0  0  0
  2  3  1  0  0  0  0
  3  4  1  0  0  0  0
  4  5  2  0  0  0  0
  5  6  1  0  0  0  0
  6  1  1  0  0  0  0
  4  7  1  0  0  0  0
  7  8  1  0  0  0  0
  8  9  1  0  0  0  0
  9 10  1  0  0  0  0
 10  5  1  0  0  0  0
  2 11  1  0  0  0  0
  3 12  2  0  0  0  0
 10 13  1  0  0  0  0
 10 14  1  1  0  0  0
  7 15  1  1  0  0  0
 15 16  1  0  0  0  0
 15 17  1  0  0  0  0
  2 18  1  6  0  0  0
M  END
>  <cdx:fragmentId>
5

$$$$
