17472.cdx
  Mrv1902 05222410222D          

 19 18  0  0  0  0            999 V2000
    7.1611   -6.3542    0.0000 N   0  0  0  0  0  0  0  0  0  0  0  0
    6.4466   -6.7667    0.0000 C   0  0  0  0  0  0  0  0  0  0  0  0
    5.7321   -6.3542    0.0000 C   0  0  0  0  0  0  0  0  0  0  0  0
    5.0177   -6.7667    0.0000 C   0  0  0  0  0  0  0  0  0  0  0  0
    4.3032   -6.3542    0.0000 C   0  0  1  0  0  0  0  0  0  0  0  0
    3.5887   -6.7667    0.0000 C   0  0  0  0  0  0  0  0  0  0  0  0
    3.5887   -7.5917    0.0000 O   0  0  0  0  0  0  0  0  0  0  0  0
    2.8743   -6.3542    0.0000 O   0  0  0  0  0  0  0  0  0  0  0  0
    4.3032   -5.5292    0.0000 N   0  0  0  0  0  0  0  0  0  0  0  0
    6.4466   -7.5917    0.0000 O   0  0  0  0  0  0  0  0  0  0  0  0
    7.8756   -6.7667    0.0000 C   0  0  2  0  0  0  0  0  0  0  0  0
    8.5900   -6.3542    0.0000 C   0  0  0  0  0  0  0  0  0  0  0  0
    9.3045   -6.7667    0.0000 O   0  0  0  0  0  0  0  0  0  0  0  0
    8.5900   -5.5292    0.0000 O   0  0  0  0  0  0  0  0  0  0  0  0
    7.8756   -7.5917    0.0000 C   0  0  0  0  0  0  0  0  0  0  0  0
    8.5900   -8.0042    0.0000 S   0  0  0  0  0  0  0  0  0  0  0  0
    8.5900   -8.8292    0.0000 C   0  0  0  0  0  0  0  0  0  0  0  0
    9.3045   -9.2417    0.0000 C   0  0  0  0  0  0  0  0  0  0  0  0
    9.3045  -10.0667    0.0000 C   0  0  0  0  0  0  0  0  0  0  0  0
  1  2  1  0  0  0  0
  2  3  1  0  0  0  0
  3  4  1  0  0  0  0
  4  5  1  0  0  0  0
  5  6  1  0  0  0  0
  6  7  2  0  0  0  0
  6  8  1  0  0  0  0
  5  9  1  1  0  0  0
  2 10  2  0  0  0  0
 11  1  1  6  0  0  0
 11 12  1  0  0  0  0
 12 13  1  0  0  0  0
 12 14  2  0  0  0  0
 11 15  1  0  0  0  0
 15 16  1  0  0  0  0
 16 17  1  0  0  0  0
 17 18  2  0  0  0  0
 18 19  1  0  0  0  0
M  END
>  <cdx:fragmentId>
3

$$$$
