34174827.cdx
  Mrv1902 05222410212D          

 28 32  0  0  0  0            999 V2000
    7.8642  -13.7858    0.0000 C   0  0  1  0  0  0  0  0  0  0  0  0
    7.1497  -14.1983    0.0000 C   0  0  2  0  0  0  0  0  0  0  0  0
    6.5047  -13.6840    0.0000 C   0  0  0  0  0  0  0  0  0  0  0  0
    5.7004  -13.8675    0.0000 C   0  0  0  0  0  0  0  0  0  0  0  0
    5.3424  -14.6108    0.0000 C   0  0  1  0  0  0  0  0  0  0  0  0
    5.7004  -15.3541    0.0000 C   0  0  0  0  0  0  0  0  0  0  0  0
    6.5047  -15.5377    0.0000 C   0  0  0  0  0  0  0  0  0  0  0  0
    7.1497  -15.0233    0.0000 C   0  0  1  0  0  0  0  0  0  0  0  0
    7.8642  -15.4358    0.0000 C   0  0  1  0  0  0  0  0  0  0  0  0
    8.5786  -15.0233    0.0000 C   0  0  2  0  0  0  0  0  0  0  0  0
    8.5786  -14.1983    0.0000 C   0  0  2  0  0  0  0  0  0  0  0  0
    9.2931  -13.7858    0.0000 C   0  0  0  0  0  0  0  0  0  0  0  0
    9.2931  -12.9608    0.0000 C   0  0  0  0  0  0  0  0  0  0  0  0
    8.5786  -12.5483    0.0000 C   0  0  0  0  0  0  0  0  0  0  0  0
    7.8642  -12.9608    0.0000 C   0  0  2  0  0  0  0  0  0  0  0  0
    8.2054  -14.3020    0.0000 C   0  0  0  0  0  0  0  0  0  0  0  0
    8.2054  -14.9207    0.0000 O   0  0  0  0  0  0  0  0  0  0  0  0
    6.3641  -14.2957    0.0000 C   0  0  0  0  0  0  0  0  0  0  0  0
    6.6883  -16.3420    0.0000 O   0  0  0  0  0  0  0  0  0  0  0  0
    5.1860  -15.9991    0.0000 C   0  0  0  0  0  0  0  0  0  0  0  0
   10.1181  -13.7858    0.0000 C   0  0  0  0  0  0  0  0  0  0  0  0
    9.7056  -14.5003    0.0000 C   0  0  0  0  0  0  0  0  0  0  0  0
    7.1497  -12.5483    0.0000 O   0  0  0  0  0  0  0  0  0  0  0  0
    9.2931  -15.4358    0.0000 O   0  0  0  0  0  0  0  0  0  0  0  0
    7.8642  -16.2608    0.0000 O   0  0  0  0  0  0  0  0  0  0  0  0
    7.1497  -13.3733    0.0000 H   0  0  0  0  0  0  0  0  0  0  0  0
    4.5174  -14.6108    0.0000 H   0  0  0  0  0  0  0  0  0  0  0  0
    9.2931  -14.6108    0.0000 H   0  0  0  0  0  0  0  0  0  0  0  0
  1  2  1  0  0  0  0
  2  3  1  0  0  0  0
  3  4  1  0  0  0  0
  4  5  1  0  0  0  0
  5  6  1  0  0  0  0
  6  7  1  0  0  0  0
  7  8  1  0  0  0  0
  8  9  1  0  0  0  0
  9 10  1  0  0  0  0
 10 11  1  0  0  0  0
 11 12  1  0  0  0  0
 12 13  1  0  0  0  0
 13 14  1  0  0  0  0
 14 15  1  0  0  0  0
 16 17  1  0  0  0  0
  1 15  1  0  0  0  0
  1 16  1  1  0  0  0
  9 17  1  1  0  0  0
  1 11  1  0  0  0  0
  8 18  1  1  0  0  0
  5 18  1  1  0  0  0
  2  8  1  0  0  0  0
  7 19  2  0  0  0  0
  6 20  2  0  0  0  0
 12 21  1  0  0  0  0
 12 22  1  0  0  0  0
 15 23  1  1  0  0  0
 10 24  1  6  0  0  0
  9 25  1  0  0  0  0
  2 26  1  6  0  0  0
  5 27  1  0  0  0  0
 11 28  1  6  0  0  0
M  END
>  <cdx:groupId>
149500

>  <cdx:fragmentId>
149415

$$$$
