17484.cdx
  Mrv1902 05222410242D          

 18 20  0  0  0  0            999 V2000
    4.3552   -7.4044    0.0000 C   0  0  0  0  0  0  0  0  0  0  0  0
    4.3552   -8.2294    0.0000 C   0  0  0  0  0  0  0  0  0  0  0  0
    5.0696   -8.6419    0.0000 C   0  0  0  0  0  0  0  0  0  0  0  0
    5.7841   -8.2294    0.0000 C   0  0  1  0  0  0  0  0  0  0  0  0
    5.7841   -7.4044    0.0000 C   0  0  2  0  0  0  0  0  0  0  0  0
    5.0696   -6.9919    0.0000 C   0  0  0  0  0  0  0  0  0  0  0  0
    6.4986   -8.6419    0.0000 C   0  0  2  0  0  0  0  0  0  0  0  0
    7.2130   -8.2294    0.0000 C   0  0  2  0  0  0  0  0  0  0  0  0
    7.2130   -7.4044    0.0000 C   0  0  0  0  0  0  0  0  0  0  0  0
    6.4986   -6.9919    0.0000 C   0  0  0  0  0  0  0  0  0  0  0  0
    7.2130   -9.0544    0.0000 C   0  0  0  0  0  0  0  0  0  0  0  0
    5.0696   -9.4669    0.0000 C   0  0  0  0  0  0  0  0  0  0  0  0
    6.9995   -9.8513    0.0000 C   0  0  0  0  0  0  0  0  0  0  0  0
    8.0099   -9.2679    0.0000 C   0  0  0  0  0  0  0  0  0  0  0  0
    5.7841   -9.0544    0.0000 H   0  0  0  0  0  0  0  0  0  0  0  0
    5.7841   -6.5794    0.0000 C   0  0  0  0  0  0  0  0  0  0  0  0
    6.2850   -9.4388    0.0000 H   0  0  0  0  0  0  0  0  0  0  0  0
    8.0099   -8.4429    0.0000 H   0  0  0  0  0  0  0  0  0  0  0  0
  1  2  1  0  0  0  0
  2  3  1  0  0  0  0
  3  4  1  0  0  0  0
  4  5  1  0  0  0  0
  5  6  1  0  0  0  0
  6  1  1  0  0  0  0
  4  7  1  0  0  0  0
  7  8  1  0  0  0  0
  8  9  1  0  0  0  0
  9 10  1  0  0  0  0
 10  5  1  0  0  0  0
  7 11  1  0  0  0  0
 11  8  1  0  0  0  0
  3 12  2  0  0  0  0
 11 13  1  0  0  0  0
 11 14  1  0  0  0  0
  4 15  1  6  0  0  0
  5 16  1  1  0  0  0
  7 17  1  1  0  0  0
  8 18  1  1  0  0  0
M  END
>  <cdx:fragmentId>
5

$$$$
