17488.cdx
  Mrv1902 05222410212D          

 10 10  0  0  0  0            999 V2000
    6.2733   -8.4769    0.0000 C   0  0  0  0  0  0  0  0  0  0  0  0
    6.2733   -9.3019    0.0000 C   0  0  0  0  0  0  0  0  0  0  0  0
    6.9877   -9.7144    0.0000 C   0  0  0  0  0  0  0  0  0  0  0  0
    7.7022   -9.3019    0.0000 C   0  0  0  0  0  0  0  0  0  0  0  0
    7.7022   -8.4769    0.0000 C   0  0  0  0  0  0  0  0  0  0  0  0
    6.9877   -8.0644    0.0000 C   0  0  0  0  0  0  0  0  0  0  0  0
    5.5588   -9.7144    0.0000 C   0  0  0  0  0  0  0  0  0  0  0  0
    6.5752   -7.3499    0.0000 C   0  0  0  0  0  0  0  0  0  0  0  0
    7.4002   -7.3499    0.0000 C   0  0  0  0  0  0  0  0  0  0  0  0
    5.5588   -8.0644    0.0000 C   0  0  0  0  0  0  0  0  0  0  0  0
  1  2  1  0  0  0  0
  2  3  2  0  0  0  0
  3  4  1  0  0  0  0
  4  5  1  0  0  0  0
  5  6  1  0  0  0  0
  6  1  1  0  0  0  0
  2  7  1  0  0  0  0
  6  8  1  0  0  0  0
  6  9  1  0  0  0  0
  1 10  2  0  0  0  0
M  END
>  <cdx:fragmentId>
5

$$$$
