174867.cdx
  Mrv1902 05222410262D          

 26 28  0  0  0  0            999 V2000
   17.2240  -15.4498    0.0000 C   0  0  0  0  0  0  0  0  0  0  0  0
   18.0490  -15.4498    0.0000 C   0  0  0  0  0  0  0  0  0  0  0  0
   16.8115  -16.1643    0.0000 O   0  0  0  0  0  0  0  0  0  0  0  0
   16.8115  -14.7353    0.0000 O   0  0  0  0  0  0  0  0  0  0  0  0
   14.7503  -12.9868    0.0000 O   0  0  0  0  0  0  0  0  0  0  0  0
   14.8243  -13.8085    0.0000 C   0  0  1  0  0  0  0  0  0  0  0  0
   15.6286  -13.9920    0.0000 C   0  0  2  0  0  0  0  0  0  0  0  0
   16.0517  -13.2838    0.0000 C   0  0  0  0  0  0  0  0  0  0  0  0
   15.5089  -12.6625    0.0000 C   0  0  0  0  0  0  0  0  0  0  0  0
   13.3946  -15.4028    0.0000 C   0  0  0  0  0  0  0  0  0  0  0  0
   12.9097  -14.7353    0.0000 C   0  0  0  0  0  0  0  0  0  0  0  0
   13.3946  -14.0679    0.0000 C   0  0  0  0  0  0  0  0  0  0  0  0
   14.1793  -14.3228    0.0000 C   0  0  1  0  0  0  0  0  0  0  0  0
   15.9865  -14.7353    0.0000 C   0  0  2  0  0  0  0  0  0  0  0  0
   15.6286  -15.4786    0.0000 C   0  0  0  0  0  0  0  0  0  0  0  0
   14.8243  -15.6622    0.0000 C   0  0  1  0  0  0  0  0  0  0  0  0
   14.1793  -15.1478    0.0000 C   0  0  2  0  0  0  0  0  0  0  0  0
   15.6925  -11.8582    0.0000 O   0  0  0  0  0  0  0  0  0  0  0  0
   16.8734  -13.2099    0.0000 C   0  0  0  0  0  0  0  0  0  0  0  0
   13.1397  -13.2833    0.0000 C   0  0  0  0  0  0  0  0  0  0  0  0
   14.2631  -16.2670    0.0000 C   0  0  0  0  0  0  0  0  0  0  0  0
   15.0674  -16.4506    0.0000 O   0  0  0  0  0  0  0  0  0  0  0  0
   16.4536  -13.9920    0.0000 H   0  0  0  0  0  0  0  0  0  0  0  0
   13.8932  -15.9217    0.0000 H   0  0  0  0  0  0  0  0  0  0  0  0
   14.1793  -13.4978    0.0000 H   0  0  0  0  0  0  0  0  0  0  0  0
   14.8243  -14.6335    0.0000 H   0  0  0  0  0  0  0  0  0  0  0  0
  1  2  1  0  0  0  0
  1  3  2  0  0  0  0
  1  4  1  0  0  0  0
  5  6  1  0  0  0  0
  6  7  1  0  0  0  0
  7  8  1  0  0  0  0
  8  9  1  0  0  0  0
  5  9  1  0  0  0  0
 10 11  1  0  0  0  0
 11 12  2  0  0  0  0
 12 13  1  0  0  0  0
 14 15  1  0  0  0  0
 15 16  1  0  0  0  0
 16 17  1  0  0  0  0
 10 17  1  0  0  0  0
 13 17  1  0  0  0  0
 13  6  1  0  0  0  0
 14  7  1  0  0  0  0
  9 18  2  0  0  0  0
  8 19  2  0  0  0  0
 12 20  1  0  0  0  0
 16 21  1  6  0  0  0
 16 22  1  1  0  0  0
 14  4  1  1  0  0  0
  7 23  1  1  0  0  0
 17 24  1  1  0  0  0
 13 25  1  1  0  0  0
  6 26  1  6  0  0  0
M  END
>  <cdx:groupId>
12635

>  <cdx:fragmentId>
12584

$$$$
