1748.cdx
  Mrv1902 05222410252D          

 15 16  0  0  0  0            999 V2000
    4.1695   -6.4969    0.0000 C   0  0  0  0  0  0  0  0  0  0  0  0
    4.1695   -7.3219    0.0000 C   0  0  0  0  0  0  0  0  0  0  0  0
    4.8840   -7.7344    0.0000 C   0  0  0  0  0  0  0  0  0  0  0  0
    5.5985   -7.3219    0.0000 C   0  0  0  0  0  0  0  0  0  0  0  0
    5.5985   -6.4969    0.0000 C   0  0  0  0  0  0  0  0  0  0  0  0
    4.8840   -6.0844    0.0000 C   0  0  0  0  0  0  0  0  0  0  0  0
    6.3129   -7.7344    0.0000 C   0  0  0  0  0  0  0  0  0  0  0  0
    7.0274   -7.3219    0.0000 C   0  0  0  0  0  0  0  0  0  0  0  0
    7.0274   -6.4969    0.0000 C   0  0  0  0  0  0  0  0  0  0  0  0
    6.3129   -6.0844    0.0000 C   0  0  0  0  0  0  0  0  0  0  0  0
    4.8840   -5.2594    0.0000 C   0  0  0  0  0  0  0  0  0  0  0  0
    4.8840   -8.5594    0.0000 C   0  0  0  0  0  0  0  0  0  0  0  0
    4.1695   -8.9719    0.0000 C   0  0  0  0  0  0  0  0  0  0  0  0
    7.7419   -7.7344    0.0000 C   0  0  0  0  0  0  0  0  0  0  0  0
    8.4564   -7.3219    0.0000 O   0  0  0  0  0  0  0  0  0  0  0  0
  1  2  1  0  0  0  0
  2  3  1  0  0  0  0
  3  4  1  0  0  0  0
  4  5  1  0  0  0  0
  5  6  1  0  0  0  0
  6  1  1  0  0  0  0
  4  7  1  0  0  0  0
  7  8  1  0  0  0  0
  8  9  1  0  0  0  0
  9 10  1  0  0  0  0
 10  5  1  0  0  0  0
  6 11  2  0  0  0  0
  3 12  1  0  0  0  0
 12 13  2  0  0  0  0
  8 14  1  0  0  0  0
 14 15  1  0  0  0  0
M  END
>  <cdx:fragmentId>
5

$$$$
