17492.cdx
  Mrv1902 05222410262D          

 29 32  0  0  0  0            999 V2000
    8.1926   -5.8781    0.0000 C   0  0  0  0  0  0  0  0  0  0  0  0
    7.3678   -5.8969    0.0000 C   0  0  0  0  0  0  0  0  0  0  0  0
    6.7979   -6.4934    0.0000 C   0  0  0  0  0  0  0  0  0  0  0  0
    6.8167   -7.3182    0.0000 C   0  0  0  0  0  0  0  0  0  0  0  0
    7.4133   -7.8881    0.0000 C   0  0  0  0  0  0  0  0  0  0  0  0
    8.2380   -7.8693    0.0000 C   0  0  0  0  0  0  0  0  0  0  0  0
    8.8079   -7.2727    0.0000 C   0  0  2  0  0  0  0  0  0  0  0  0
    8.7891   -6.4479    0.0000 C   0  0  1  0  0  0  0  0  0  0  0  0
    9.5439   -6.1149    0.0000 C   0  0  0  0  0  0  0  0  0  0  0  0
    9.5772   -7.5710    0.0000 C   0  0  0  0  0  0  0  0  0  0  0  0
    7.1361   -5.1051    0.0000 C   0  0  0  0  0  0  0  0  0  0  0  0
    6.3346   -4.9098    0.0000 C   0  0  0  0  0  0  0  0  0  0  0  0
    5.7647   -5.5063    0.0000 C   0  0  0  0  0  0  0  0  0  0  0  0
    5.9963   -6.2981    0.0000 C   0  0  0  0  0  0  0  0  0  0  0  0
    6.0249   -7.5499    0.0000 C   0  0  0  0  0  0  0  0  0  0  0  0
    5.8297   -8.3514    0.0000 C   0  0  0  0  0  0  0  0  0  0  0  0
    6.4262   -8.9213    0.0000 C   0  0  0  0  0  0  0  0  0  0  0  0
    7.2180   -8.6897    0.0000 C   0  0  0  0  0  0  0  0  0  0  0  0
    5.2941   -6.7312    0.0000 O   0  0  0  0  0  0  0  0  0  0  0  0
    4.5680   -6.3396    0.0000 C   0  0  0  0  0  0  0  0  0  0  0  0
    5.2988   -7.1583    0.0000 O   0  0  0  0  0  0  0  0  0  0  0  0
    4.5966   -7.5913    0.0000 C   0  0  0  0  0  0  0  0  0  0  0  0
    5.0378   -8.5831    0.0000 O   0  0  0  0  0  0  0  0  0  0  0  0
    4.8426   -9.3846    0.0000 C   0  0  0  0  0  0  0  0  0  0  0  0
    6.2309   -9.7229    0.0000 O   0  0  0  0  0  0  0  0  0  0  0  0
    6.8309  -10.2891    0.0000 C   0  0  0  0  0  0  0  0  0  0  0  0
    5.9433   -4.1835    0.0000 O   0  0  0  0  0  0  0  0  0  0  0  0
    5.1317   -4.3311    0.0000 C   0  0  0  0  0  0  0  0  0  0  0  0
    5.0212   -5.1487    0.0000 O   0  0  0  0  0  0  0  0  0  0  0  0
  1  2  1  0  0  0  0
  2  3  2  0  0  0  0
  3  4  1  0  0  0  0
  4  5  2  0  0  0  0
  5  6  1  0  0  0  0
  6  7  1  0  0  0  0
  7  8  1  0  0  0  0
  8  1  1  0  0  0  0
  8  9  1  6  0  0  0
  7 10  1  6  0  0  0
  2 11  1  0  0  0  0
 11 12  2  0  0  0  0
 12 13  1  0  0  0  0
 13 14  2  0  0  0  0
 14  3  1  0  0  0  0
  4 15  1  0  0  0  0
 15 16  2  0  0  0  0
 16 17  1  0  0  0  0
 17 18  2  0  0  0  0
 18  5  1  0  0  0  0
 14 19  1  0  0  0  0
 19 20  1  0  0  0  0
 15 21  1  0  0  0  0
 21 22  1  0  0  0  0
 16 23  1  0  0  0  0
 23 24  1  0  0  0  0
 17 25  1  0  0  0  0
 25 26  1  0  0  0  0
 12 27  1  0  0  0  0
 27 28  1  0  0  0  0
 28 29  1  0  0  0  0
 29 13  1  0  0  0  0
M  END
>  <cdx:fragmentId>
760

$$$$
