175002.cdx
  Mrv1902 05222410282D          

 15 16  0  0  0  0            999 V2000
    8.6075   -6.9025    0.0000 C   0  0  0  0  0  0  0  0  0  0  0  0
    7.8650   -5.6375    0.0000 O   0  0  0  0  0  0  0  0  0  0  0  0
    8.3875   -5.2800    0.0000 C   0  0  0  0  0  0  0  0  0  0  0  0
    8.8275   -6.1050    0.0000 C   0  0  0  0  0  0  0  0  0  0  0  0
    7.5528   -6.2620    0.0000 C   0  0  0  0  0  0  0  0  0  0  0  0
    7.5528   -7.0870    0.0000 C   0  0  0  0  0  0  0  0  0  0  0  0
    9.5150   -7.3425    0.0000 C   0  0  0  0  0  0  0  0  0  0  0  0
    9.9275   -6.6000    0.0000 C   0  0  0  0  0  0  0  0  0  0  0  0
    7.9750   -4.5655    0.0000 C   0  0  0  0  0  0  0  0  0  0  0  0
    8.8000   -4.5655    0.0000 C   0  0  0  0  0  0  0  0  0  0  0  0
    8.1950   -7.6170    0.0000 C   0  0  0  0  0  0  0  0  0  0  0  0
    6.1238   -7.0870    0.0000 C   0  0  0  0  0  0  0  0  0  0  0  0
    5.4094   -7.4995    0.0000 C   0  0  0  0  0  0  0  0  0  0  0  0
    6.1238   -6.2620    0.0000 O   0  0  0  0  0  0  0  0  0  0  0  0
    6.8383   -7.4995    0.0000 O   0  0  0  0  0  0  0  0  0  0  0  0
  1  2  1  0  0  0  0
  2  3  1  0  0  0  0
  3  4  1  0  0  0  0
  4  5  1  0  0  0  0
  5  6  1  0  0  0  0
  7  8  1  0  0  0  0
  1  6  1  0  0  0  0
  1  7  1  0  0  0  0
  8  4  1  0  0  0  0
  3  9  1  0  0  0  0
  3 10  1  0  0  0  0
  1 11  1  0  0  0  0
 12 13  1  0  0  0  0
 12 14  2  0  0  0  0
 12 15  1  0  0  0  0
  6 15  1  0  0  0  0
M  END
>  <cdx:fragmentId>
12644

$$$$
