17525.cdx
  Mrv1902 05222410252D          

 12 11  0  0  0  0            999 V2000
    5.9026   -3.7064    0.0000 C   0  0  0  0  0  0  0  0  0  0  0  0
    5.1881   -3.2939    0.0000 C   0  0  0  0  0  0  0  0  0  0  0  0
    4.4736   -3.7064    0.0000 C   0  0  0  0  0  0  0  0  0  0  0  0
    3.7591   -3.2939    0.0000 C   0  0  0  0  0  0  0  0  0  0  0  0
    5.9026   -4.5314    0.0000 O   0  0  0  0  0  0  0  0  0  0  0  0
    6.6170   -3.2939    0.0000 O   0  0  0  0  0  0  0  0  0  0  0  0
    7.3315   -3.7064    0.0000 C   0  0  0  0  0  0  0  0  0  0  0  0
    8.0460   -3.2939    0.0000 C   0  0  0  0  0  0  0  0  0  0  0  0
    8.7604   -3.7064    0.0000 C   0  0  0  0  0  0  0  0  0  0  0  0
    9.4749   -3.2939    0.0000 C   0  0  0  0  0  0  0  0  0  0  0  0
   10.1894   -3.7064    0.0000 C   0  0  0  0  0  0  0  0  0  0  0  0
   10.9039   -3.2939    0.0000 C   0  0  0  0  0  0  0  0  0  0  0  0
  1  2  1  0  0  0  0
  2  3  1  0  0  0  0
  3  4  1  0  0  0  0
  1  5  2  0  0  0  0
  1  6  1  0  0  0  0
  7  8  1  0  0  0  0
  8  9  1  0  0  0  0
  9 10  1  0  0  0  0
 10 11  1  0  0  0  0
 11 12  1  0  0  0  0
  6  7  1  0  0  0  0
M  END
>  <cdx:fragmentId>
17

$$$$
