17531.cdx
  Mrv1902 05222410252D          

 15 15  0  0  0  0            999 V2000
    5.6894   -4.3535    0.0000 C   0  0  0  0  0  0  0  0  0  0  0  0
    6.5144   -4.3535    0.0000 C   0  0  0  0  0  0  0  0  0  0  0  0
    7.3276   -4.3468    0.0000 C   0  0  0  0  0  0  0  0  0  0  0  0
    9.0769   -5.4451    0.0000 C   0  0  0  0  0  0  0  0  0  0  0  0
    8.3421   -4.2195    0.0000 C   0  0  0  0  0  0  0  0  0  0  0  0
    8.3557   -5.0444    0.0000 C   0  0  0  0  0  0  0  0  0  0  0  0
    7.6890   -7.9433    0.0000 C   0  0  0  0  0  0  0  0  0  0  0  0
    6.2602   -7.9669    0.0000 C   0  0  0  0  0  0  0  0  0  0  0  0
    6.9678   -7.5427    0.0000 C   0  0  0  0  0  0  0  0  0  0  0  0
    6.2330   -6.3171    0.0000 C   0  0  0  0  0  0  0  0  0  0  0  0
    6.9542   -6.7178    0.0000 C   0  0  0  0  0  0  0  0  0  0  0  0
    7.6617   -6.2936    0.0000 C   0  0  0  0  0  0  0  0  0  0  0  0
    7.6481   -5.4687    0.0000 C   0  0  1  0  0  0  0  0  0  0  0  0
    6.9269   -5.0680    0.0000 C   0  0  2  0  0  0  0  0  0  0  0  0
    6.2194   -5.4922    0.0000 C   0  0  0  0  0  0  0  0  0  0  0  0
  2  1  2  0  0  0  0
 14  2  1  0  0  0  0
 14  3  1  1  0  0  0
  6  4  1  0  0  0  0
  6  5  2  0  0  0  0
 13  6  1  1  0  0  0
  9  7  1  0  0  0  0
  9  8  1  0  0  0  0
 11  9  1  0  0  0  0
 10 15  1  0  0  0  0
 11 10  1  0  0  0  0
 12 11  2  0  0  0  0
 13 12  1  0  0  0  0
 14 13  1  0  0  0  0
 15 14  1  0  0  0  0
M  END
>  <cdx:fragmentId>
5

$$$$
