1755.cdx
  Mrv1902 05222410232D          

 24 27  0  0  0  0            999 V2000
    7.5477   -7.5612    0.0000 C   0  0  1  0  0  0  0  0  0  0  0  0
    6.8332   -7.9736    0.0000 C   0  0  2  0  0  0  0  0  0  0  0  0
    7.5478   -6.7362    0.0000 C   0  0  0  0  0  0  0  0  0  0  0  0
    6.8333   -6.3236    0.0000 O   0  0  0  0  0  0  0  0  0  0  0  0
    6.1188   -6.7360    0.0000 C   0  0  0  0  0  0  0  0  0  0  0  0
    6.1187   -7.5610    0.0000 C   0  0  0  0  0  0  0  0  0  0  0  0
    5.4044   -6.3235    0.0000 C   0  0  0  0  0  0  0  0  0  0  0  0
    4.6899   -6.7359    0.0000 C   0  0  0  0  0  0  0  0  0  0  0  0
    4.6898   -7.5609    0.0000 C   0  0  0  0  0  0  0  0  0  0  0  0
    5.4042   -7.9735    0.0000 C   0  0  0  0  0  0  0  0  0  0  0  0
    3.9755   -6.3233    0.0000 O   0  0  0  0  0  0  0  0  0  0  0  0
    6.1187   -8.3860    0.0000 H   0  0  0  0  0  0  0  0  0  0  0  0
    8.3446   -7.3478    0.0000 H   0  0  0  0  0  0  0  0  0  0  0  0
    7.0046   -8.7806    0.0000 O   0  0  0  0  0  0  0  0  0  0  0  0
    7.8251   -8.8669    0.0000 C   0  0  0  0  0  0  0  0  0  0  0  0
    8.1607   -8.1133    0.0000 C   0  0  0  0  0  0  0  0  0  0  0  0
    8.3099   -9.5344    0.0000 C   0  0  0  0  0  0  0  0  0  0  0  0
    9.1304   -9.4483    0.0000 C   0  0  0  0  0  0  0  0  0  0  0  0
    9.4661   -8.6946    0.0000 C   0  0  0  0  0  0  0  0  0  0  0  0
    8.9812   -8.0271    0.0000 C   0  0  0  0  0  0  0  0  0  0  0  0
    7.9743  -10.2881    0.0000 O   0  0  0  0  0  0  0  0  0  0  0  0
    9.6153  -10.1158    0.0000 O   0  0  0  0  0  0  0  0  0  0  0  0
   10.4403  -10.1158    0.0000 C   0  0  0  0  0  0  0  0  0  0  0  0
    3.2610   -6.7357    0.0000 C   0  0  0  0  0  0  0  0  0  0  0  0
  1  2  1  0  0  0  0
  1  3  1  0  0  0  0
  3  4  1  0  0  0  0
  4  5  1  0  0  0  0
  5  6  2  0  0  0  0
  6  2  1  0  0  0  0
  5  7  1  0  0  0  0
  7  8  2  0  0  0  0
  8  9  1  0  0  0  0
  9 10  2  0  0  0  0
 10  6  1  0  0  0  0
  8 11  1  0  0  0  0
  2 12  1  6  0  0  0
  1 13  1  6  0  0  0
  2 14  1  0  0  0  0
 14 15  1  0  0  0  0
 15 16  2  0  0  0  0
 16  1  1  0  0  0  0
 15 17  1  0  0  0  0
 17 18  2  0  0  0  0
 18 19  1  0  0  0  0
 19 20  2  0  0  0  0
 20 16  1  0  0  0  0
 17 21  1  0  0  0  0
 18 22  1  0  0  0  0
 22 23  1  0  0  0  0
 11 24  1  0  0  0  0
M  END
>  <cdx:fragmentId>
124

$$$$
