17574.cdx
  Mrv1902 05222410192D          

  8  8  0  0  0  0            999 V2000
    6.5070   -5.2663    0.0000 C   0  0  0  0  0  0  0  0  0  0  0  0
    6.5070   -6.0912    0.0000 C   0  0  0  0  0  0  0  0  0  0  0  0
    7.2215   -6.5038    0.0000 C   0  0  0  0  0  0  0  0  0  0  0  0
    7.9360   -6.0912    0.0000 C   0  0  0  0  0  0  0  0  0  0  0  0
    7.9360   -5.2663    0.0000 C   0  0  0  0  0  0  0  0  0  0  0  0
    7.2215   -4.8538    0.0000 C   0  0  0  0  0  0  0  0  0  0  0  0
    7.2215   -7.3287    0.0000 C   0  0  0  0  0  0  0  0  0  0  0  0
    7.2215   -4.0287    0.0000 O   0  0  0  0  0  0  0  0  0  0  0  0
  1  2  2  0  0  0  0
  2  3  1  0  0  0  0
  3  4  2  0  0  0  0
  4  5  1  0  0  0  0
  5  6  2  0  0  0  0
  6  1  1  0  0  0  0
  3  7  1  0  0  0  0
  6  8  1  0  0  0  0
M  END
>  <cdx:fragmentId>
5

$$$$
