175789.cdx
  Mrv1902 05222410272D          

 82 92  0  0  0  0            999 V2000
    8.9650   -5.8025    0.0000 O   0  0  0  0  0  0  0  0  0  0  0  0
    9.0451  -11.1582    0.0000 C   0  0  0  0  0  0  0  0  0  0  0  0
    9.4129  -10.4197    0.0000 C   0  0  0  0  0  0  0  0  0  0  0  0
   10.0862  -10.8963    0.0000 C   0  0  0  0  0  0  0  0  0  0  0  0
   10.8357  -10.5515    0.0000 C   0  0  0  0  0  0  0  0  0  0  0  0
   10.9118   -9.7300    0.0000 C   0  0  0  0  0  0  0  0  0  0  0  0
   10.2385   -9.2534    0.0000 C   0  0  0  0  0  0  0  0  0  0  0  0
    9.4890   -9.5982    0.0000 C   0  0  0  0  0  0  0  0  0  0  0  0
    9.2632   -8.8047    0.0000 C   0  0  0  0  0  0  0  0  0  0  0  0
    8.7660   -8.1463    0.0000 O   0  0  0  0  0  0  0  0  0  0  0  0
    8.0646   -7.7120    0.0000 C   0  0  1  0  0  0  0  0  0  0  0  0
    8.6014   -7.0855    0.0000 C   0  0  1  0  0  0  0  0  0  0  0  0
    8.3272   -6.3074    0.0000 C   0  0  2  0  0  0  0  0  0  0  0  0
    7.5162   -6.1558    0.0000 C   0  0  0  0  0  0  0  0  0  0  0  0
    6.9795   -6.7823    0.0000 O   0  0  0  0  0  0  0  0  0  0  0  0
    7.2536   -7.5604    0.0000 C   0  0  2  0  0  0  0  0  0  0  0  0
    5.4175   -7.6175    0.0000 C   0  0  0  0  0  0  0  0  0  0  0  0
    3.9875   -8.4700    0.0000 O   0  0  0  0  0  0  0  0  0  0  0  0
    3.3550   -9.6525    0.0000 C   0  0  0  0  0  0  0  0  0  0  0  0
    3.3699  -11.1817    0.0000 C   0  0  0  0  0  0  0  0  0  0  0  0
    2.5604  -11.0225    0.0000 C   0  0  0  0  0  0  0  0  0  0  0  0
    2.0178  -11.6438    0.0000 C   0  0  0  0  0  0  0  0  0  0  0  0
    2.2846  -12.4245    0.0000 C   0  0  0  0  0  0  0  0  0  0  0  0
    3.0940  -12.5838    0.0000 C   0  0  0  0  0  0  0  0  0  0  0  0
    3.6367  -11.9624    0.0000 C   0  0  0  0  0  0  0  0  0  0  0  0
    2.5581   -9.4390    0.0000 O   0  0  0  0  0  0  0  0  0  0  0  0
    9.9777   -8.3922    0.0000 O   0  0  0  0  0  0  0  0  0  0  0  0
    3.3608  -13.3645    0.0000 O   0  0  0  0  0  0  0  0  0  0  0  0
    1.7419  -13.0459    0.0000 O   0  0  0  0  0  0  0  0  0  0  0  0
    1.2083  -11.4846    0.0000 O   0  0  0  0  0  0  0  0  0  0  0  0
    7.2420   -5.3777    0.0000 O   0  0  0  0  0  0  0  0  0  0  0  0
    9.4264   -7.0855    0.0000 O   0  0  0  0  0  0  0  0  0  0  0  0
   11.6613   -9.3852    0.0000 O   0  0  0  0  0  0  0  0  0  0  0  0
   11.5091  -11.0282    0.0000 O   0  0  0  0  0  0  0  0  0  0  0  0
   10.0101  -11.7178    0.0000 O   0  0  0  0  0  0  0  0  0  0  0  0
    8.0646   -8.5370    0.0000 H   0  0  0  0  0  0  0  0  0  0  0  0
    6.5392   -7.1479    0.0000 H   0  0  0  0  0  0  0  0  0  0  0  0
    9.0444  -10.3024    0.0000 C   0  0  0  0  0  0  0  0  0  0  0  0
    8.3340   -9.8829    0.0000 C   0  0  0  0  0  0  0  0  0  0  0  0
    7.6155  -10.2885    0.0000 C   0  0  0  0  0  0  0  0  0  0  0  0
    7.6075  -11.1134    0.0000 C   0  0  0  0  0  0  0  0  0  0  0  0
    8.3179  -11.5329    0.0000 C   0  0  0  0  0  0  0  0  0  0  0  0
    6.9051   -9.8690    0.0000 O   0  0  0  0  0  0  0  0  0  0  0  0
    6.1866  -10.2746    0.0000 C   0  0  0  0  0  0  0  0  0  0  0  0
    6.1786  -11.0995    0.0000 C   0  0  0  0  0  0  0  0  0  0  0  0
    6.8890  -11.5190    0.0000 C   0  0  0  0  0  0  0  0  0  0  0  0
    6.8810  -12.3439    0.0000 C   0  0  0  0  0  0  0  0  0  0  0  0
    7.5914  -12.7633    0.0000 O   0  0  0  0  0  0  0  0  0  0  0  0
    8.3099  -12.3578    0.0000 C   0  0  0  0  0  0  0  0  0  0  0  0
    5.4602  -11.5051    0.0000 C   0  0  0  0  0  0  0  0  0  0  0  0
    5.4521  -12.3300    0.0000 C   0  0  0  0  0  0  0  0  0  0  0  0
    6.1626  -12.7494    0.0000 C   0  0  0  0  0  0  0  0  0  0  0  0
    5.4762   -9.8551    0.0000 O   0  0  0  0  0  0  0  0  0  0  0  0
    9.0203  -12.7773    0.0000 O   0  0  0  0  0  0  0  0  0  0  0  0
    4.7337  -12.7355    0.0000 O   0  0  0  0  0  0  0  0  0  0  0  0
    8.3420   -9.0580    0.0000 O   0  0  0  0  0  0  0  0  0  0  0  0
    9.7607   -9.8930    0.0000 O   0  0  0  0  0  0  0  0  0  0  0  0
    9.6717   -6.2971    0.0000 C   0  0  0  0  0  0  0  0  0  0  0  0
   10.4367   -5.9883    0.0000 C   0  0  0  0  0  0  0  0  0  0  0  0
   10.4288   -5.1633    0.0000 C   0  0  0  0  0  0  0  0  0  0  0  0
   11.1392   -4.7439    0.0000 C   0  0  0  0  0  0  0  0  0  0  0  0
   11.8576   -5.1495    0.0000 C   0  0  0  0  0  0  0  0  0  0  0  0
   11.8656   -5.9745    0.0000 C   0  0  0  0  0  0  0  0  0  0  0  0
   11.1552   -6.3939    0.0000 C   0  0  0  0  0  0  0  0  0  0  0  0
   11.2860   -7.2084    0.0000 C   0  0  0  0  0  0  0  0  0  0  0  0
   12.0921   -7.3842    0.0000 C   0  0  0  0  0  0  0  0  0  0  0  0
   12.3429   -8.1702    0.0000 C   0  0  0  0  0  0  0  0  0  0  0  0
   11.7876   -8.7803    0.0000 C   0  0  0  0  0  0  0  0  0  0  0  0
   10.9816   -8.6045    0.0000 C   0  0  0  0  0  0  0  0  0  0  0  0
   10.7308   -7.8186    0.0000 C   0  0  0  0  0  0  0  0  0  0  0  0
    9.9075   -7.7649    0.0000 C   0  0  0  0  0  0  0  0  0  0  0  0
    9.7623   -5.4771    0.0000 O   0  0  0  0  0  0  0  0  0  0  0  0
    9.3772   -8.3969    0.0000 O   0  0  0  0  0  0  0  0  0  0  0  0
   12.1711   -9.5108    0.0000 O   0  0  0  0  0  0  0  0  0  0  0  0
   13.1489   -8.3459    0.0000 O   0  0  0  0  0  0  0  0  0  0  0  0
   12.7449   -6.8797    0.0000 O   0  0  0  0  0  0  0  0  0  0  0  0
   12.6409   -6.2566    0.0000 O   0  0  0  0  0  0  0  0  0  0  0  0
   12.5721   -4.7370    0.0000 O   0  0  0  0  0  0  0  0  0  0  0  0
   11.1392   -3.9189    0.0000 O   0  0  0  0  0  0  0  0  0  0  0  0
    8.3272   -5.4824    0.0000 H   0  0  0  0  0  0  0  0  0  0  0  0
    9.1847   -7.6688    0.0000 H   0  0  0  0  0  0  0  0  0  0  0  0
    6.1545  -13.5744    0.0000 O   0  0  0  0  0  0  0  0  0  0  0  0
  2  3  1  0  0  0  0
  3  4  2  0  0  0  0
  4  5  1  0  0  0  0
  5  6  2  0  0  0  0
  6  7  1  0  0  0  0
  7  8  2  0  0  0  0
  8  9  1  0  0  0  0
  9 10  1  0  0  0  0
 10 11  1  0  0  0  0
 11 12  1  0  0  0  0
 12 13  1  0  0  0  0
 13 14  1  0  0  0  0
 14 15  1  0  0  0  0
 15 16  1  0  0  0  0
 16 17  1  0  0  0  0
 17 18  1  0  0  0  0
 18 19  1  0  0  0  0
 19 20  1  0  0  0  0
 20 21  2  0  0  0  0
 21 22  1  0  0  0  0
 22 23  2  0  0  0  0
 23 24  1  0  0  0  0
 24 25  2  0  0  0  0
 20 25  1  0  0  0  0
 11 16  1  0  0  0  0
  3  8  1  0  0  0  0
 19 26  2  0  0  0  0
  9 27  2  0  0  0  0
 24 28  1  0  0  0  0
 23 29  1  0  0  0  0
 22 30  1  0  0  0  0
 14 31  1  0  0  0  0
 12 32  1  0  0  0  0
  6 33  1  0  0  0  0
  5 34  1  0  0  0  0
  4 35  1  0  0  0  0
 13  1  1  0  0  0  0
 11 36  1  1  0  0  0
 16 37  1  6  0  0  0
 38 39  1  0  0  0  0
 39 40  2  0  0  0  0
 40 41  1  0  0  0  0
 41 42  2  0  0  0  0
 40 43  1  0  0  0  0
 43 44  1  0  0  0  0
 44 45  1  0  0  0  0
 45 46  2  0  0  0  0
 46 41  1  0  0  0  0
 46 47  1  0  0  0  0
 47 48  1  0  0  0  0
 48 49  1  0  0  0  0
 49 42  1  0  0  0  0
 45 50  1  0  0  0  0
 50 51  2  0  0  0  0
 51 52  1  0  0  0  0
 52 47  2  0  0  0  0
  2 38  2  0  0  0  0
  2 42  1  0  0  0  0
 44 53  2  0  0  0  0
 49 54  2  0  0  0  0
 51 55  1  0  0  0  0
 39 56  1  0  0  0  0
 38 57  1  0  0  0  0
 58 59  1  0  0  0  0
 59 60  2  0  0  0  0
 60 61  1  0  0  0  0
 61 62  2  0  0  0  0
 62 63  1  0  0  0  0
 63 64  2  0  0  0  0
 64 65  1  0  0  0  0
 65 66  2  0  0  0  0
 66 67  1  0  0  0  0
 67 68  2  0  0  0  0
 68 69  1  0  0  0  0
 69 70  2  0  0  0  0
 70 71  1  0  0  0  0
 65 70  1  0  0  0  0
 59 64  1  0  0  0  0
 58 72  2  0  0  0  0
 71 73  2  0  0  0  0
 68 74  1  0  0  0  0
 67 75  1  0  0  0  0
 66 76  1  0  0  0  0
 63 77  1  0  0  0  0
 62 78  1  0  0  0  0
 61 79  1  0  0  0  0
 32 71  1  0  0  0  0
  1 58  1  0  0  0  0
 13 80  1  1  0  0  0
 12 81  1  6  0  0  0
 52 82  1  0  0  0  0
 25 55  1  0  0  0  0
M  END
>  <cdx:fragmentId>
29

$$$$
