17575.cdx
  Mrv1902 05222410192D          

 11 11  0  0  0  0            999 V2000
    6.4795   -7.7138    0.0000 C   0  0  0  0  0  0  0  0  0  0  0  0
    6.4795   -8.5388    0.0000 C   0  0  0  0  0  0  0  0  0  0  0  0
    7.1940   -8.9513    0.0000 C   0  0  0  0  0  0  0  0  0  0  0  0
    7.9085   -8.5388    0.0000 C   0  0  0  0  0  0  0  0  0  0  0  0
    7.9085   -7.7138    0.0000 C   0  0  0  0  0  0  0  0  0  0  0  0
    7.1940   -7.3012    0.0000 C   0  0  0  0  0  0  0  0  0  0  0  0
    7.1940   -9.7763    0.0000 C   0  0  0  0  0  0  0  0  0  0  0  0
    7.1940   -6.4763    0.0000 C   0  0  0  0  0  0  0  0  0  0  0  0
    6.3690   -6.4763    0.0000 C   0  0  0  0  0  0  0  0  0  0  0  0
    8.0190   -6.4763    0.0000 C   0  0  0  0  0  0  0  0  0  0  0  0
    7.1940   -5.6512    0.0000 O   0  0  0  0  0  0  0  0  0  0  0  0
  1  2  2  0  0  0  0
  2  3  1  0  0  0  0
  3  4  2  0  0  0  0
  4  5  1  0  0  0  0
  5  6  2  0  0  0  0
  6  1  1  0  0  0  0
  3  7  1  0  0  0  0
  6  8  1  0  0  0  0
  8  9  1  0  0  0  0
  8 10  1  0  0  0  0
  8 11  1  0  0  0  0
M  END
>  <cdx:fragmentId>
5

$$$$
