17572.cdx
  Mrv1902 05222410202D          

 14 15  0  0  0  0            999 V2000
    6.8370   -6.8131    0.0000 C   0  0  0  0  0  0  0  0  0  0  0  0
    6.8370   -7.6381    0.0000 C   0  0  0  0  0  0  0  0  0  0  0  0
    7.5515   -8.0506    0.0000 C   0  0  0  0  0  0  0  0  0  0  0  0
    8.2660   -7.6381    0.0000 C   0  0  0  0  0  0  0  0  0  0  0  0
    8.2660   -6.8131    0.0000 C   0  0  0  0  0  0  0  0  0  0  0  0
    7.5515   -6.4006    0.0000 C   0  0  0  0  0  0  0  0  0  0  0  0
    7.5515   -5.5756    0.0000 C   0  0  0  0  0  0  0  0  0  0  0  0
    8.2660   -5.1631    0.0000 C   0  0  0  0  0  0  0  0  0  0  0  0
    8.2660   -4.3381    0.0000 C   0  0  0  0  0  0  0  0  0  0  0  0
    7.5515   -3.9256    0.0000 C   0  0  0  0  0  0  0  0  0  0  0  0
    6.8370   -4.3381    0.0000 C   0  0  0  0  0  0  0  0  0  0  0  0
    6.8370   -5.1631    0.0000 C   0  0  0  0  0  0  0  0  0  0  0  0
    7.5515   -3.1006    0.0000 C   0  0  0  0  0  0  0  0  0  0  0  0
    8.2660   -2.6881    0.0000 O   0  0  0  0  0  0  0  0  0  0  0  0
  1  2  2  0  0  0  0
  2  3  1  0  0  0  0
  3  4  2  0  0  0  0
  4  5  1  0  0  0  0
  5  6  2  0  0  0  0
  6  1  1  0  0  0  0
  6  7  1  0  0  0  0
  7  8  2  0  0  0  0
  8  9  1  0  0  0  0
  9 10  2  0  0  0  0
 10 11  1  0  0  0  0
 11 12  2  0  0  0  0
 12  7  1  0  0  0  0
 10 13  1  0  0  0  0
 13 14  2  0  0  0  0
M  END
>  <cdx:fragmentId>
5

$$$$
