17580.cdx
  Mrv1902 05222410262D          

 11 11  0  0  0  0            999 V2000
    5.4483   -7.9612    0.0000 C   0  0  0  0  0  0  0  0  0  0  0  0
    5.4483   -8.7862    0.0000 C   0  0  0  0  0  0  0  0  0  0  0  0
    6.1627   -9.1987    0.0000 C   0  0  0  0  0  0  0  0  0  0  0  0
    6.8772   -8.7862    0.0000 C   0  0  0  0  0  0  0  0  0  0  0  0
    6.8772   -7.9612    0.0000 C   0  0  0  0  0  0  0  0  0  0  0  0
    6.1627   -7.5488    0.0000 C   0  0  0  0  0  0  0  0  0  0  0  0
    6.1627  -10.0238    0.0000 C   0  0  0  0  0  0  0  0  0  0  0  0
    6.1627   -6.7237    0.0000 C   0  0  0  0  0  0  0  0  0  0  0  0
    5.4483   -6.3113    0.0000 C   0  0  0  0  0  0  0  0  0  0  0  0
    6.8772   -6.3113    0.0000 C   0  0  0  0  0  0  0  0  0  0  0  0
    6.8772   -5.4863    0.0000 O   0  0  0  0  0  0  0  0  0  0  0  0
  1  2  1  0  0  0  0
  2  3  1  0  0  0  0
  3  4  2  0  0  0  0
  4  5  1  0  0  0  0
  5  6  1  0  0  0  0
  6  1  1  0  0  0  0
  3  7  1  0  0  0  0
  6  8  1  0  0  0  0
  8  9  1  0  0  0  0
  8 10  1  0  0  0  0
 10 11  1  0  0  0  0
M  END
>  <cdx:fragmentId>
5

$$$$
