17581.cdx
  Mrv1902 05222410262D          

 18 19  0  0  0  0            999 V2000
    4.5614   -7.7138    0.0000 C   0  0  0  0  0  0  0  0  0  0  0  0
    4.5614   -8.5388    0.0000 C   0  0  0  0  0  0  0  0  0  0  0  0
    5.2759   -8.9513    0.0000 C   0  0  2  0  0  0  0  0  0  0  0  0
    5.9903   -8.5388    0.0000 C   0  0  2  0  0  0  0  0  0  0  0  0
    5.9903   -7.7138    0.0000 C   0  0  1  0  0  0  0  0  0  0  0  0
    5.2759   -7.3012    0.0000 C   0  0  2  0  0  0  0  0  0  0  0  0
    6.7048   -8.9513    0.0000 C   0  0  0  0  0  0  0  0  0  0  0  0
    7.4193   -8.5388    0.0000 C   0  0  0  0  0  0  0  0  0  0  0  0
    7.4193   -7.7138    0.0000 C   0  0  0  0  0  0  0  0  0  0  0  0
    6.7048   -7.3012    0.0000 C   0  0  0  0  0  0  0  0  0  0  0  0
    8.1338   -7.3012    0.0000 C   0  0  0  0  0  0  0  0  0  0  0  0
    4.8634   -9.6657    0.0000 O   0  0  0  0  0  0  0  0  0  0  0  0
    5.6884   -9.6657    0.0000 C   0  0  0  0  0  0  0  0  0  0  0  0
    5.2759   -6.4763    0.0000 C   0  0  0  0  0  0  0  0  0  0  0  0
    4.5614   -6.0638    0.0000 C   0  0  0  0  0  0  0  0  0  0  0  0
    5.9903   -6.0638    0.0000 C   0  0  0  0  0  0  0  0  0  0  0  0
    5.9903   -6.8888    0.0000 H   0  0  0  0  0  0  0  0  0  0  0  0
    5.9903   -9.3637    0.0000 H   0  0  0  0  0  0  0  0  0  0  0  0
  1  2  1  0  0  0  0
  2  3  1  0  0  0  0
  3  4  1  0  0  0  0
  4  5  1  0  0  0  0
  5  6  1  0  0  0  0
  6  1  1  0  0  0  0
  4  7  1  0  0  0  0
  7  8  1  0  0  0  0
  8  9  1  0  0  0  0
  9 10  2  0  0  0  0
 10  5  1  0  0  0  0
  9 11  1  0  0  0  0
  3 12  1  6  0  0  0
  3 13  1  0  0  0  0
  6 14  1  1  0  0  0
 14 15  1  0  0  0  0
 14 16  1  0  0  0  0
  5 17  1  6  0  0  0
  4 18  1  1  0  0  0
M  END
>  <cdx:fragmentId>
5

$$$$
