176.cdx
  Mrv1902 05222410222D          

  9  8  0  0  0  0            999 V2000
    6.5497  -10.2935    0.0000 N   0  0  0  0  0  0  0  0  0  0  0  0
    7.2641   -9.8810    0.0000 C   0  0  2  0  0  0  0  0  0  0  0  0
    7.9786  -10.2935    0.0000 C   0  0  0  0  0  0  0  0  0  0  0  0
    8.6931   -9.8810    0.0000 O   0  0  0  0  0  0  0  0  0  0  0  0
    7.9786  -11.1185    0.0000 O   0  0  0  0  0  0  0  0  0  0  0  0
    7.2641   -9.0560    0.0000 C   0  0  0  0  0  0  0  0  0  0  0  0
    6.5497   -8.6435    0.0000 C   0  0  0  0  0  0  0  0  0  0  0  0
    6.5497   -7.8185    0.0000 O   0  0  0  0  0  0  0  0  0  0  0  0
    5.8352   -9.0560    0.0000 O   0  0  0  0  0  0  0  0  0  0  0  0
  2  1  1  1  0  0  0
  2  3  1  0  0  0  0
  3  4  1  0  0  0  0
  3  5  2  0  0  0  0
  2  6  1  0  0  0  0
  6  7  1  0  0  0  0
  7  8  2  0  0  0  0
  7  9  1  0  0  0  0
M  END
>  <cdx:fragmentId>
27

$$$$
