176079.cdx
  Mrv1902 05222410272D          

 48 53  0  0  0  0            999 V2000
   10.0847  -11.7635    0.0000 C   0  0  2  0  0  0  0  0  0  0  0  0
   10.7991  -12.1760    0.0000 O   0  0  0  0  0  0  0  0  0  0  0  0
   12.2281  -10.5260    0.0000 C   0  0  0  0  0  0  0  0  0  0  0  0
   11.5136  -10.9385    0.0000 C   0  0  0  0  0  0  0  0  0  0  0  0
   11.5136  -11.7635    0.0000 C   0  0  1  0  0  0  0  0  0  0  0  0
   12.2281  -12.1760    0.0000 C   0  0  0  0  0  0  0  0  0  0  0  0
   12.9426  -11.7635    0.0000 C   0  0  2  0  0  0  0  0  0  0  0  0
   13.6570  -12.1760    0.0000 C   0  0  0  0  0  0  0  0  0  0  0  0
   14.3715  -11.7635    0.0000 C   0  0  0  0  0  0  0  0  0  0  0  0
   14.3715  -10.9385    0.0000 C   0  0  1  0  0  0  0  0  0  0  0  0
   15.0860  -10.5260    0.0000 C   0  0  2  0  0  0  0  0  0  0  0  0
   15.8004  -10.9385    0.0000 C   0  0  0  0  0  0  0  0  0  0  0  0
   16.5149  -10.5260    0.0000 C   0  0  0  0  0  0  0  0  0  0  0  0
   16.5149   -9.7010    0.0000 C   0  0  1  0  0  0  0  0  0  0  0  0
   17.2294   -9.2885    0.0000 C   0  0  0  0  0  0  0  0  0  0  0  0
   17.2294   -8.4635    0.0000 C   0  0  0  0  0  0  0  0  0  0  0  0
   16.5149   -8.0510    0.0000 C   0  0  0  0  0  0  0  0  0  0  0  0
   15.8004   -8.4635    0.0000 C   0  0  0  0  0  0  0  0  0  0  0  0
   15.8004   -9.2885    0.0000 C   0  0  1  0  0  0  0  0  0  0  0  0
   15.0860   -9.7010    0.0000 C   0  0  0  0  0  0  0  0  0  0  0  0
   14.3715   -9.2885    0.0000 C   0  0  0  0  0  0  0  0  0  0  0  0
   13.6570   -9.7010    0.0000 C   0  0  0  0  0  0  0  0  0  0  0  0
   13.6570  -10.5260    0.0000 C   0  0  2  0  0  0  0  0  0  0  0  0
   12.9426  -10.9385    0.0000 C   0  0  1  0  0  0  0  0  0  0  0  0
   17.2294  -10.1135    0.0000 C   0  0  0  0  0  0  0  0  0  0  0  0
   17.2294  -10.9385    0.0000 O   0  0  0  0  0  0  0  0  0  0  0  0
   17.9439   -9.7010    0.0000 O   0  0  0  0  0  0  0  0  0  0  0  0
   12.9426  -10.1135    0.0000 C   0  0  0  0  0  0  0  0  0  0  0  0
   16.1024   -7.3365    0.0000 C   0  0  0  0  0  0  0  0  0  0  0  0
   16.9274   -7.3365    0.0000 C   0  0  0  0  0  0  0  0  0  0  0  0
   15.0860  -11.3510    0.0000 C   0  0  0  0  0  0  0  0  0  0  0  0
   14.3715  -10.1135    0.0000 C   0  0  0  0  0  0  0  0  0  0  0  0
   12.6406  -12.8905    0.0000 C   0  0  0  0  0  0  0  0  0  0  0  0
   11.8156  -12.8905    0.0000 C   0  0  0  0  0  0  0  0  0  0  0  0
   12.9426  -12.5885    0.0000 H   0  0  0  0  0  0  0  0  0  0  0  0
   15.8004  -10.1135    0.0000 H   0  0  0  0  0  0  0  0  0  0  0  0
   13.6570  -11.3510    0.0000 H   0  0  0  0  0  0  0  0  0  0  0  0
   10.0847  -10.9385    0.0000 O   0  0  0  0  0  0  0  0  0  0  0  0
    9.3702  -10.5260    0.0000 C   0  0  1  0  0  0  0  0  0  0  0  0
    8.6557  -10.9385    0.0000 C   0  0  2  0  0  0  0  0  0  0  0  0
    8.6557  -11.7635    0.0000 C   0  0  1  0  0  0  0  0  0  0  0  0
    9.3702  -12.1760    0.0000 C   0  0  1  0  0  0  0  0  0  0  0  0
    9.3702  -13.0010    0.0000 O   0  0  0  0  0  0  0  0  0  0  0  0
    9.3702   -9.7010    0.0000 C   0  0  0  0  0  0  0  0  0  0  0  0
    7.9413  -12.1760    0.0000 O   0  0  0  0  0  0  0  0  0  0  0  0
    7.9413  -10.5260    0.0000 O   0  0  0  0  0  0  0  0  0  0  0  0
    8.6557   -9.2885    0.0000 O   0  0  0  0  0  0  0  0  0  0  0  0
   10.0847   -9.2885    0.0000 O   0  0  0  0  0  0  0  0  0  0  0  0
  3  4  1  0  0  0  0
  4  5  1  0  0  0  0
  5  6  1  0  0  0  0
  6  7  1  0  0  0  0
  7  8  1  0  0  0  0
  8  9  1  0  0  0  0
  9 10  1  0  0  0  0
 10 11  1  0  0  0  0
 11 12  1  0  0  0  0
 12 13  1  0  0  0  0
 13 14  1  0  0  0  0
 14 15  1  0  0  0  0
 15 16  1  0  0  0  0
 16 17  1  0  0  0  0
 17 18  1  0  0  0  0
 18 19  1  0  0  0  0
 14 19  1  0  0  0  0
 19 20  1  0  0  0  0
 11 20  1  0  0  0  0
 20 21  2  0  0  0  0
 21 22  1  0  0  0  0
 22 23  1  0  0  0  0
 10 23  1  0  0  0  0
 23 24  1  0  0  0  0
  7 24  1  0  0  0  0
  3 24  1  0  0  0  0
 25 26  1  0  0  0  0
 25 27  2  0  0  0  0
 14 25  1  1  0  0  0
 24 28  1  1  0  0  0
 17 29  1  0  0  0  0
 17 30  1  0  0  0  0
 11 31  1  6  0  0  0
 10 32  1  1  0  0  0
  6 33  1  0  0  0  0
  6 34  1  0  0  0  0
  5  2  1  1  0  0  0
  1  2  1  1  0  0  0
  7 35  1  6  0  0  0
 19 36  1  1  0  0  0
 23 37  1  6  0  0  0
  1 38  1  0  0  0  0
 38 39  1  0  0  0  0
 39 40  1  0  0  0  0
 40 41  1  0  0  0  0
 41 42  1  0  0  0  0
 42  1  1  0  0  0  0
 42 43  1  6  0  0  0
 39 44  1  1  0  0  0
 41 45  1  1  0  0  0
 40 46  1  6  0  0  0
 44 47  1  0  0  0  0
 44 48  2  0  0  0  0
M  END
>  <cdx:fragmentId>
19825

$$$$
