17600.cdx
  Mrv1902 05222410182D          

 16 16  0  0  0  0            999 V2000
    6.4608   -6.8198    0.0000 C   0  0  0  0  0  0  0  0  0  0  0  0
    7.1750   -6.4068    0.0000 C   0  0  0  0  0  0  0  0  0  0  0  0
    7.1745   -5.5818    0.0000 C   0  0  0  0  0  0  0  0  0  0  0  0
    7.8919  -10.1188    0.0000 C   0  0  0  0  0  0  0  0  0  0  0  0
    7.8914   -9.2938    0.0000 O   0  0  0  0  0  0  0  0  0  0  0  0
    7.8887   -5.1688    0.0000 O   0  0  0  0  0  0  0  0  0  0  0  0
    5.7477   -8.8827    0.0000 C   0  0  0  0  0  0  0  0  0  0  0  0
    5.7472   -8.0577    0.0000 C   0  0  0  0  0  0  0  0  0  0  0  0
    6.4614   -7.6448    0.0000 C   0  0  0  0  0  0  0  0  0  0  0  0
    7.1761   -8.0568    0.0000 C   0  0  0  0  0  0  0  0  0  0  0  0
    7.1767   -8.8818    0.0000 C   0  0  0  0  0  0  0  0  0  0  0  0
    6.4625   -9.2948    0.0000 C   0  0  0  0  0  0  0  0  0  0  0  0
    6.4630  -10.1198    0.0000 O   0  0  0  0  0  0  0  0  0  0  0  0
    5.0341  -10.1207    0.0000 O   0  0  0  0  0  0  0  0  0  0  0  0
    5.7493  -11.3577    0.0000 C   0  0  0  0  0  0  0  0  0  0  0  0
    5.7488  -10.5327    0.0000 C   0  0  0  0  0  0  0  0  0  0  0  0
 13 12  1  0  0  0  0
 11  5  1  0  0  0  0
  5  4  1  0  0  0  0
  9  1  1  0  0  0  0
 12  7  2  0  0  0  0
  8  7  1  0  0  0  0
  9  8  2  0  0  0  0
 10  9  1  0  0  0  0
 11 10  2  0  0  0  0
 12 11  1  0  0  0  0
 16 13  1  0  0  0  0
 16 14  2  0  0  0  0
 16 15  1  0  0  0  0
  1  2  2  0  0  0  0
  2  3  1  0  0  0  0
  3  6  2  0  0  0  0
M  END
>  <cdx:fragmentId>
11282

$$$$
