176162.cdx
  Mrv1902 05222410212D          

 36 38  0  0  0  0            999 V2000
    5.2461   -6.4852    0.0000 C   0  0  0  0  0  0  0  0  0  0  0  0
    4.4965   -6.8296    0.0000 C   0  0  0  0  0  0  0  0  0  0  0  0
    3.8234   -6.3526    0.0000 C   0  0  0  0  0  0  0  0  0  0  0  0
    3.8999   -5.5312    0.0000 C   0  0  0  0  0  0  0  0  0  0  0  0
    5.3036   -5.8692    0.0000 O   0  0  0  0  0  0  0  0  0  0  0  0
    5.9192   -6.9623    0.0000 O   0  0  0  0  0  0  0  0  0  0  0  0
    4.4199   -7.6511    0.0000 C   0  0  0  0  0  0  0  0  0  0  0  0
    7.4599   -7.6609    0.0000 C   0  0  0  0  0  0  0  0  0  0  0  0
    7.4646   -6.8359    0.0000 C   0  0  0  0  0  0  0  0  0  0  0  0
    6.6689   -6.6179    0.0000 C   0  0  0  0  0  0  0  0  0  0  0  0
    6.4599   -5.8198    0.0000 C   0  0  0  0  0  0  0  0  0  0  0  0
    7.0466   -5.2398    0.0000 C   0  0  0  0  0  0  0  0  0  0  0  0
    7.8423   -5.4578    0.0000 C   0  0  0  0  0  0  0  0  0  0  0  0
    8.0512   -6.2559    0.0000 C   0  0  0  0  0  0  0  0  0  0  0  0
    8.8762   -6.2606    0.0000 C   0  0  0  0  0  0  0  0  0  0  0  0
    9.4563   -6.8473    0.0000 C   0  0  1  0  0  0  0  0  0  0  0  0
    9.4516   -7.6723    0.0000 C   0  0  2  0  0  0  0  0  0  0  0  0
    8.8649   -8.2523    0.0000 C   0  0  2  0  0  0  0  0  0  0  0  0
    8.0399   -8.2476    0.0000 C   0  0  0  0  0  0  0  0  0  0  0  0
    7.8219   -9.0433    0.0000 C   0  0  0  0  0  0  0  0  0  0  0  0
    7.0238   -9.2522    0.0000 C   0  0  0  0  0  0  0  0  0  0  0  0
    6.4437   -8.6656    0.0000 C   0  0  0  0  0  0  0  0  0  0  0  0
    6.6618   -7.8699    0.0000 C   0  0  0  0  0  0  0  0  0  0  0  0
   10.2120   -7.9923    0.0000 C   0  0  0  0  0  0  0  0  0  0  0  0
   10.2203   -6.5359    0.0000 C   0  0  0  0  0  0  0  0  0  0  0  0
    5.9161   -7.5170    0.0000 O   0  0  0  0  0  0  0  0  0  0  0  0
    5.2376   -7.9864    0.0000 C   0  0  0  0  0  0  0  0  0  0  0  0
    5.6456   -8.8746    0.0000 O   0  0  0  0  0  0  0  0  0  0  0  0
    5.4276   -9.6702    0.0000 C   0  0  0  0  0  0  0  0  0  0  0  0
    6.8057  -10.0479    0.0000 O   0  0  0  0  0  0  0  0  0  0  0  0
    7.3857  -10.6346    0.0000 C   0  0  0  0  0  0  0  0  0  0  0  0
    6.8376   -4.4417    0.0000 O   0  0  0  0  0  0  0  0  0  0  0  0
    6.0420   -4.2236    0.0000 C   0  0  0  0  0  0  0  0  0  0  0  0
    5.6643   -5.6017    0.0000 O   0  0  0  0  0  0  0  0  0  0  0  0
    5.4553   -4.8036    0.0000 C   0  0  0  0  0  0  0  0  0  0  0  0
    9.1763   -9.0163    0.0000 O   0  0  0  0  0  0  0  0  0  0  0  0
  1  2  1  0  0  0  0
  2  3  2  0  0  0  0
  3  4  1  0  0  0  0
  1  5  2  0  0  0  0
  1  6  1  0  0  0  0
  2  7  1  0  0  0  0
  8  9  1  0  0  0  0
  9 10  2  0  0  0  0
 10 11  1  0  0  0  0
 11 12  2  0  0  0  0
 12 13  1  0  0  0  0
 13 14  2  0  0  0  0
 14 15  1  0  0  0  0
 15 16  1  0  0  0  0
 16 17  1  0  0  0  0
 17 18  1  0  0  0  0
 18 19  1  0  0  0  0
 19 20  2  0  0  0  0
 20 21  1  0  0  0  0
 21 22  2  0  0  0  0
 22 23  1  0  0  0  0
  8 23  2  0  0  0  0
  8 19  1  0  0  0  0
  9 14  1  0  0  0  0
 17 24  1  1  0  0  0
 16 25  1  6  0  0  0
 26 27  1  0  0  0  0
 23 26  1  0  0  0  0
 28 29  1  0  0  0  0
 22 28  1  0  0  0  0
 30 31  1  0  0  0  0
 21 30  1  0  0  0  0
 32 33  1  0  0  0  0
 12 32  1  0  0  0  0
 34 35  1  0  0  0  0
 11 34  1  0  0  0  0
 18 36  1  1  0  0  0
  6 10  1  0  0  0  0
M  END
>  <cdx:fragmentId>
22727

$$$$
