17611.cdx
  Mrv1902 05222410202D          

 35 39  0  0  0  0            999 V2000
    3.6745   -8.3944    0.0000 C   0  0  0  0  0  0  0  0  0  0  0  0
    3.6745   -9.2194    0.0000 C   0  0  1  0  0  0  0  0  0  0  0  0
    4.3890   -9.6319    0.0000 C   0  0  0  0  0  0  0  0  0  0  0  0
    5.1035   -9.2194    0.0000 C   0  0  1  0  0  0  0  0  0  0  0  0
    5.1035   -8.3944    0.0000 C   0  0  2  0  0  0  0  0  0  0  0  0
    4.3890   -7.9819    0.0000 C   0  0  0  0  0  0  0  0  0  0  0  0
    5.8179   -9.6319    0.0000 C   0  0  0  0  0  0  0  0  0  0  0  0
    6.5324   -9.2194    0.0000 C   0  0  0  0  0  0  0  0  0  0  0  0
    6.5324   -8.3944    0.0000 C   0  0  2  0  0  0  0  0  0  0  0  0
    5.8179   -7.9819    0.0000 C   0  0  2  0  0  0  0  0  0  0  0  0
    7.2469   -7.9819    0.0000 C   0  0  1  0  0  0  0  0  0  0  0  0
    7.2469   -7.1569    0.0000 C   0  0  2  0  0  0  0  0  0  0  0  0
    6.5324   -6.7444    0.0000 C   0  0  0  0  0  0  0  0  0  0  0  0
    5.8179   -7.1569    0.0000 C   0  0  0  0  0  0  0  0  0  0  0  0
    7.9614   -8.3944    0.0000 C   0  0  0  0  0  0  0  0  0  0  0  0
    8.6758   -7.9819    0.0000 C   0  0  0  0  0  0  0  0  0  0  0  0
    8.6758   -7.1569    0.0000 C   0  0  2  0  0  0  0  0  0  0  0  0
    7.9614   -6.7444    0.0000 C   0  0  2  0  0  0  0  0  0  0  0  0
    9.3903   -6.7444    0.0000 C   0  0  0  0  0  0  0  0  0  0  0  0
    9.3903   -5.9194    0.0000 C   0  0  0  0  0  0  0  0  0  0  0  0
    8.6758   -5.5069    0.0000 C   0  0  0  0  0  0  0  0  0  0  0  0
    7.9614   -5.9194    0.0000 C   0  0  1  0  0  0  0  0  0  0  0  0
    3.9765  -10.3463    0.0000 C   0  0  0  0  0  0  0  0  0  0  0  0
    4.8015  -10.3463    0.0000 C   0  0  0  0  0  0  0  0  0  0  0  0
    5.1035  -10.0444    0.0000 H   0  0  0  0  0  0  0  0  0  0  0  0
    5.8179   -8.8069    0.0000 H   0  0  0  0  0  0  0  0  0  0  0  0
    7.2469   -6.3319    0.0000 H   0  0  0  0  0  0  0  0  0  0  0  0
    7.9614   -7.5694    0.0000 H   0  0  0  0  0  0  0  0  0  0  0  0
    8.6758   -4.6819    0.0000 C   0  0  0  0  0  0  0  0  0  0  0  0
    2.9601   -9.6319    0.0000 O   0  0  0  0  0  0  0  0  0  0  0  0
    5.1035   -7.5694    0.0000 C   0  0  0  0  0  0  0  0  0  0  0  0
    6.5324   -7.5694    0.0000 C   0  0  0  0  0  0  0  0  0  0  0  0
    9.3903   -7.5694    0.0000 C   0  0  0  0  0  0  0  0  0  0  0  0
    7.2469   -8.8069    0.0000 C   0  0  0  0  0  0  0  0  0  0  0  0
    7.2469   -5.5069    0.0000 C   0  0  0  0  0  0  0  0  0  0  0  0
  1  2  1  0  0  0  0
  2  3  1  0  0  0  0
  3  4  1  0  0  0  0
  4  5  1  0  0  0  0
  5  6  1  0  0  0  0
  6  1  1  0  0  0  0
  4  7  1  0  0  0  0
  7  8  1  0  0  0  0
  8  9  1  0  0  0  0
  9 10  1  0  0  0  0
 10  5  1  0  0  0  0
  9 11  1  0  0  0  0
 11 12  1  0  0  0  0
 12 13  1  0  0  0  0
 13 14  1  0  0  0  0
 14 10  1  0  0  0  0
 11 15  1  0  0  0  0
 15 16  1  0  0  0  0
 16 17  1  0  0  0  0
 17 18  1  0  0  0  0
 18 12  1  0  0  0  0
 17 19  1  0  0  0  0
 19 20  1  0  0  0  0
 20 21  2  0  0  0  0
 21 22  1  0  0  0  0
 22 18  1  0  0  0  0
  3 23  1  0  0  0  0
  3 24  1  0  0  0  0
  4 25  1  6  0  0  0
 10 26  1  6  0  0  0
 12 27  1  1  0  0  0
 18 28  1  6  0  0  0
 21 29  1  0  0  0  0
  2 30  1  1  0  0  0
  5 31  1  1  0  0  0
  9 32  1  1  0  0  0
 17 33  1  1  0  0  0
 11 34  1  6  0  0  0
 22 35  1  6  0  0  0
M  END
>  <cdx:fragmentId>
5

$$$$
