17626.cdx
  Mrv1902 05222410272D          

 44 49  0  0  0  0            999 V2000
    4.8380   -9.4119    0.0000 C   0  0  0  0  0  0  0  0  0  0  0  0
    4.1235   -9.8244    0.0000 C   0  0  0  0  0  0  0  0  0  0  0  0
    4.1235  -10.6494    0.0000 C   0  0  0  0  0  0  0  0  0  0  0  0
    4.8380  -11.0619    0.0000 C   0  0  0  0  0  0  0  0  0  0  0  0
    5.5525  -10.6494    0.0000 C   0  0  2  0  0  0  0  0  0  0  0  0
    6.2669  -11.0619    0.0000 C   0  0  0  0  0  0  0  0  0  0  0  0
    6.9814  -10.6494    0.0000 C   0  0  0  0  0  0  0  0  0  0  0  0
    6.9814   -9.8244    0.0000 C   0  0  2  0  0  0  0  0  0  0  0  0
    7.6959   -9.4119    0.0000 C   0  0  1  0  0  0  0  0  0  0  0  0
    8.4805   -9.6668    0.0000 C   0  0  0  0  0  0  0  0  0  0  0  0
    8.9654   -8.9994    0.0000 C   0  0  0  0  0  0  0  0  0  0  0  0
    8.4805   -8.3319    0.0000 C   0  0  2  0  0  0  0  0  0  0  0  0
    7.6959   -8.5869    0.0000 C   0  0  1  0  0  0  0  0  0  0  0  0
    6.9814   -8.1744    0.0000 C   0  0  0  0  0  0  0  0  0  0  0  0
    6.2669   -8.5869    0.0000 C   0  0  1  0  0  0  0  0  0  0  0  0
    6.2669   -9.4119    0.0000 C   0  0  1  0  0  0  0  0  0  0  0  0
    5.5525   -9.8244    0.0000 C   0  0  1  0  0  0  0  0  0  0  0  0
    3.4090  -11.0619    0.0000 O   0  0  0  0  0  0  0  0  0  0  0  0
    7.6959  -10.2369    0.0000 C   0  0  0  0  0  0  0  0  0  0  0  0
    5.5525   -8.9994    0.0000 C   0  0  0  0  0  0  0  0  0  0  0  0
    6.9814   -8.9994    0.0000 C   0  0  0  0  0  0  0  0  0  0  0  0
    5.2505  -11.7763    0.0000 C   0  0  0  0  0  0  0  0  0  0  0  0
    4.4255  -11.7763    0.0000 C   0  0  0  0  0  0  0  0  0  0  0  0
    5.5525   -8.1744    0.0000 O   0  0  0  0  0  0  0  0  0  0  0  0
    8.1834   -6.9342    0.0000 C   0  0  0  0  0  0  0  0  0  0  0  0
    8.7354   -7.5473    0.0000 C   0  0  2  0  0  0  0  0  0  0  0  0
    9.5424   -7.3758    0.0000 C   0  0  0  0  0  0  0  0  0  0  0  0
    9.7973   -6.5912    0.0000 C   0  0  2  0  0  0  0  0  0  0  0  0
    9.2453   -5.9781    0.0000 O   0  0  0  0  0  0  0  0  0  0  0  0
   11.3889   -6.6746    0.0000 O   0  0  0  0  0  0  0  0  0  0  0  0
   10.6043   -6.4196    0.0000 C   0  0  1  0  0  0  0  0  0  0  0  0
   11.2174   -5.8676    0.0000 C   0  0  0  0  0  0  0  0  0  0  0  0
   11.0459   -5.0606    0.0000 C   0  0  0  0  0  0  0  0  0  0  0  0
   11.8305   -5.3156    0.0000 C   0  0  0  0  0  0  0  0  0  0  0  0
    5.5525  -11.4744    0.0000 H   0  0  0  0  0  0  0  0  0  0  0  0
    6.2669  -10.2369    0.0000 H   0  0  0  0  0  0  0  0  0  0  0  0
   10.3908   -7.2165    0.0000 H   0  0  0  0  0  0  0  0  0  0  0  0
    9.5002   -5.1935    0.0000 C   0  0  0  0  0  0  0  0  0  0  0  0
    8.9482   -4.5804    0.0000 O   0  0  0  0  0  0  0  0  0  0  0  0
   10.3072   -5.0219    0.0000 C   0  0  0  0  0  0  0  0  0  0  0  0
    7.8100   -7.7000    0.0000 O   0  0  0  0  0  0  0  0  0  0  0  0
    5.5525   -7.3494    0.0000 C   0  0  0  0  0  0  0  0  0  0  0  0
    4.8380   -6.9369    0.0000 O   0  0  0  0  0  0  0  0  0  0  0  0
    6.2669   -6.9369    0.0000 C   0  0  0  0  0  0  0  0  0  0  0  0
  1  2  1  0  0  0  0
  2  3  1  0  0  0  0
  3  4  1  0  0  0  0
  4  5  1  0  0  0  0
  5  6  1  0  0  0  0
  6  7  1  0  0  0  0
  7  8  1  0  0  0  0
  8  9  1  0  0  0  0
  9 10  1  0  0  0  0
 10 11  1  0  0  0  0
 11 12  1  0  0  0  0
 12 13  1  0  0  0  0
  9 13  1  0  0  0  0
 13 14  1  0  0  0  0
 14 15  1  0  0  0  0
 15 16  1  0  0  0  0
  8 16  1  0  0  0  0
 16 17  1  0  0  0  0
  5 17  1  0  0  0  0
  1 17  1  0  0  0  0
  3 18  2  0  0  0  0
  9 19  1  1  0  0  0
 17 20  1  1  0  0  0
  8 21  1  6  0  0  0
  4 22  1  0  0  0  0
  4 23  1  0  0  0  0
 15 24  1  1  0  0  0
 26 25  1  6  0  0  0
 26 27  1  0  0  0  0
 27 28  1  0  0  0  0
 28 29  1  6  0  0  0
 31 30  1  0  0  0  0
 31 32  1  0  0  0  0
 30 32  1  0  0  0  0
 32 33  1  0  0  0  0
 32 34  1  0  0  0  0
 28 31  1  0  0  0  0
 12 26  1  0  0  0  0
  5 35  1  6  0  0  0
 16 36  1  1  0  0  0
 31 37  1  1  0  0  0
 29 38  1  0  0  0  0
 38 39  2  0  0  0  0
 38 40  1  0  0  0  0
 12 41  1  1  0  0  0
 13 41  1  1  0  0  0
 24 42  1  0  0  0  0
 42 43  2  0  0  0  0
 42 44  1  0  0  0  0
M  END
>  <cdx:fragmentId>
238331

$$$$
