17629.cdx
  Mrv1902 05222410182D          

 40 43  0  0  0  0            999 V2000
    4.1489   -8.3325    0.0000 C   0  0  0  0  0  0  0  0  0  0  0  0
    4.1489   -9.1575    0.0000 C   0  0  0  0  0  0  0  0  0  0  0  0
    4.8634   -9.5700    0.0000 C   0  0  0  0  0  0  0  0  0  0  0  0
    5.5778   -9.1575    0.0000 C   0  0  1  0  0  0  0  0  0  0  0  0
    5.5778   -8.3325    0.0000 C   0  0  2  0  0  0  0  0  0  0  0  0
    4.8634   -7.9200    0.0000 C   0  0  0  0  0  0  0  0  0  0  0  0
    6.2923   -9.5700    0.0000 C   0  0  0  0  0  0  0  0  0  0  0  0
    7.0068   -9.1575    0.0000 C   0  0  0  0  0  0  0  0  0  0  0  0
    7.0068   -8.3325    0.0000 C   0  0  1  0  0  0  0  0  0  0  0  0
    6.2923   -7.9200    0.0000 C   0  0  1  0  0  0  0  0  0  0  0  0
    7.7213   -7.9200    0.0000 C   0  0  2  0  0  0  0  0  0  0  0  0
    7.7213   -7.0950    0.0000 C   0  0  0  0  0  0  0  0  0  0  0  0
    7.0068   -6.6825    0.0000 C   0  0  0  0  0  0  0  0  0  0  0  0
    6.2923   -7.0950    0.0000 C   0  0  0  0  0  0  0  0  0  0  0  0
    8.5059   -8.1749    0.0000 C   0  0  0  0  0  0  0  0  0  0  0  0
    8.9908   -7.5075    0.0000 C   0  0  0  0  0  0  0  0  0  0  0  0
    8.5059   -6.8401    0.0000 C   0  0  0  0  0  0  0  0  0  0  0  0
    3.4344   -9.5700    0.0000 O   0  0  0  0  0  0  0  0  0  0  0  0
    4.4509  -10.2845    0.0000 C   0  0  0  0  0  0  0  0  0  0  0  0
    5.5778   -7.5075    0.0000 C   0  0  0  0  0  0  0  0  0  0  0  0
    6.2923   -8.7450    0.0000 H   0  0  0  0  0  0  0  0  0  0  0  0
    7.7213   -8.7450    0.0000 C   0  0  0  0  0  0  0  0  0  0  0  0
    5.2759  -10.2845    0.0000 C   0  0  0  0  0  0  0  0  0  0  0  0
    7.0068   -7.5075    0.0000 C   0  0  0  0  0  0  0  0  0  0  0  0
    9.8158   -7.5075    0.0000 O   0  0  0  0  0  0  0  0  0  0  0  0
    5.5778   -9.9825    0.0000 H   0  0  0  0  0  0  0  0  0  0  0  0
    8.7608   -6.0554    0.0000 C   0  0  2  0  0  0  0  0  0  0  0  0
    8.2088   -5.4423    0.0000 C   0  0  0  0  0  0  0  0  0  0  0  0
    9.5678   -5.8839    0.0000 C   0  0  0  0  0  0  0  0  0  0  0  0
    9.8227   -5.0993    0.0000 C   0  0  2  0  0  0  0  0  0  0  0  0
    9.2707   -4.4862    0.0000 O   0  0  0  0  0  0  0  0  0  0  0  0
   10.6297   -4.9278    0.0000 C   0  0  2  0  0  0  0  0  0  0  0  0
   10.8846   -4.1431    0.0000 C   0  0  0  0  0  0  0  0  0  0  0  0
   11.1817   -5.5409    0.0000 O   0  0  0  0  0  0  0  0  0  0  0  0
   10.0878   -3.9296    0.0000 C   0  0  0  0  0  0  0  0  0  0  0  0
   11.6815   -4.3567    0.0000 C   0  0  0  0  0  0  0  0  0  0  0  0
    9.2707   -3.6612    0.0000 C   0  0  0  0  0  0  0  0  0  0  0  0
    8.5562   -3.2487    0.0000 O   0  0  0  0  0  0  0  0  0  0  0  0
    9.9852   -3.2487    0.0000 C   0  0  0  0  0  0  0  0  0  0  0  0
   11.1396   -3.3585    0.0000 O   0  0  0  0  0  0  0  0  0  0  0  0
  1  2  1  0  0  0  0
  2  3  1  0  0  0  0
  3  4  1  0  0  0  0
  4  5  1  0  0  0  0
  5  6  1  0  0  0  0
  6  1  1  0  0  0  0
  4  7  1  0  0  0  0
  7  8  1  0  0  0  0
  8  9  1  0  0  0  0
  9 10  1  0  0  0  0
 10  5  1  0  0  0  0
  9 11  1  0  0  0  0
 11 12  1  0  0  0  0
 12 13  1  0  0  0  0
 13 14  2  0  0  0  0
 14 10  1  0  0  0  0
 11 15  1  0  0  0  0
 15 16  1  0  0  0  0
 16 17  1  0  0  0  0
 17 12  2  0  0  0  0
  2 18  2  0  0  0  0
  3 19  1  0  0  0  0
  5 20  1  1  0  0  0
 10 21  1  1  0  0  0
 11 22  1  1  0  0  0
  3 23  1  0  0  0  0
  9 24  1  6  0  0  0
 16 25  2  0  0  0  0
  4 26  1  6  0  0  0
 17 27  1  0  0  0  0
 27 28  1  6  0  0  0
 27 29  1  0  0  0  0
 29 30  1  0  0  0  0
 30 31  1  6  0  0  0
 30 32  1  0  0  0  0
 32 33  1  0  0  0  0
 32 34  1  6  0  0  0
 33 35  1  0  0  0  0
 33 36  1  0  0  0  0
 31 37  1  0  0  0  0
 37 38  2  0  0  0  0
 37 39  1  0  0  0  0
 33 40  1  0  0  0  0
M  END
>  <cdx:fragmentId>
5

$$$$
