17639.cdx
  Mrv1902 05222410202D          

 38 42  0  0  0  0            999 V2000
    4.1489   -8.3325    0.0000 C   0  0  0  0  0  0  0  0  0  0  0  0
    4.1489   -9.1575    0.0000 C   0  0  0  0  0  0  0  0  0  0  0  0
    4.8634   -9.5700    0.0000 C   0  0  0  0  0  0  0  0  0  0  0  0
    5.5778   -9.1575    0.0000 C   0  0  1  0  0  0  0  0  0  0  0  0
    5.5778   -8.3325    0.0000 C   0  0  2  0  0  0  0  0  0  0  0  0
    4.8634   -7.9200    0.0000 C   0  0  0  0  0  0  0  0  0  0  0  0
    6.2923   -9.5700    0.0000 C   0  0  0  0  0  0  0  0  0  0  0  0
    7.0068   -9.1575    0.0000 C   0  0  0  0  0  0  0  0  0  0  0  0
    7.0068   -8.3325    0.0000 C   0  0  1  0  0  0  0  0  0  0  0  0
    6.2923   -7.9200    0.0000 C   0  0  1  0  0  0  0  0  0  0  0  0
    7.7213   -7.9200    0.0000 C   0  0  2  0  0  0  0  0  0  0  0  0
    7.7213   -7.0950    0.0000 C   0  0  0  0  0  0  0  0  0  0  0  0
    7.0068   -6.6825    0.0000 C   0  0  0  0  0  0  0  0  0  0  0  0
    6.2923   -7.0950    0.0000 C   0  0  0  0  0  0  0  0  0  0  0  0
    8.5059   -8.1749    0.0000 C   0  0  0  0  0  0  0  0  0  0  0  0
    8.9908   -7.5075    0.0000 C   0  0  1  0  0  0  0  0  0  0  0  0
    8.5059   -6.8401    0.0000 C   0  0  0  0  0  0  0  0  0  0  0  0
    3.4344   -9.5700    0.0000 O   0  0  0  0  0  0  0  0  0  0  0  0
    4.4509  -10.2845    0.0000 C   0  0  0  0  0  0  0  0  0  0  0  0
    5.5778   -7.5075    0.0000 C   0  0  0  0  0  0  0  0  0  0  0  0
    6.2923   -8.7450    0.0000 H   0  0  0  0  0  0  0  0  0  0  0  0
    7.7213   -8.7450    0.0000 C   0  0  0  0  0  0  0  0  0  0  0  0
    5.2759  -10.2845    0.0000 C   0  0  0  0  0  0  0  0  0  0  0  0
    7.0068   -7.5075    0.0000 C   0  0  0  0  0  0  0  0  0  0  0  0
    9.8150   -7.5445    0.0000 O   0  0  0  0  0  0  0  0  0  0  0  0
   10.3578   -6.9232    0.0000 C   0  0  1  0  0  0  0  0  0  0  0  0
   10.2105   -6.1115    0.0000 C   0  0  2  0  0  0  0  0  0  0  0  0
    9.4840   -5.7205    0.0000 C   0  0  0  0  0  0  0  0  0  0  0  0
    8.7254   -6.0448    0.0000 C   0  0  1  0  0  0  0  0  0  0  0  0
   10.7938   -5.5281    0.0000 O   0  0  0  0  0  0  0  0  0  0  0  0
   11.1828   -6.9232    0.0000 C   0  0  0  0  0  0  0  0  0  0  0  0
    8.1420   -5.4614    0.0000 C   0  0  0  0  0  0  0  0  0  0  0  0
   11.1828   -6.0982    0.0000 C   0  0  0  0  0  0  0  0  0  0  0  0
   12.0078   -6.9232    0.0000 O   0  0  0  0  0  0  0  0  0  0  0  0
   11.1828   -7.7482    0.0000 C   0  0  0  0  0  0  0  0  0  0  0  0
    5.5778   -9.9825    0.0000 H   0  0  0  0  0  0  0  0  0  0  0  0
    9.4033   -8.2220    0.0000 H   0  0  0  0  0  0  0  0  0  0  0  0
   10.7703   -7.6377    0.0000 H   0  0  0  0  0  0  0  0  0  0  0  0
  1  2  1  0  0  0  0
  2  3  1  0  0  0  0
  3  4  1  0  0  0  0
  4  5  1  0  0  0  0
  5  6  1  0  0  0  0
  6  1  1  0  0  0  0
  4  7  1  0  0  0  0
  7  8  1  0  0  0  0
  8  9  1  0  0  0  0
  9 10  1  0  0  0  0
 10  5  1  0  0  0  0
  9 11  1  0  0  0  0
 11 12  1  0  0  0  0
 12 13  1  0  0  0  0
 13 14  2  0  0  0  0
 14 10  1  0  0  0  0
 11 15  1  0  0  0  0
 15 16  1  0  0  0  0
 16 17  1  0  0  0  0
 17 12  2  0  0  0  0
  2 18  2  0  0  0  0
  3 19  1  0  0  0  0
  5 20  1  1  0  0  0
 10 21  1  1  0  0  0
 11 22  1  1  0  0  0
  3 23  1  0  0  0  0
  9 24  1  6  0  0  0
 16 25  1  0  0  0  0
 25 26  1  0  0  0  0
 26 27  1  0  0  0  0
 27 28  1  0  0  0  0
 28 29  1  0  0  0  0
 29 17  1  0  0  0  0
 27 30  1  6  0  0  0
 26 31  1  0  0  0  0
 29 32  1  6  0  0  0
 31 33  1  0  0  0  0
 31 34  1  0  0  0  0
 31 35  1  0  0  0  0
  4 36  1  6  0  0  0
 16 37  1  6  0  0  0
 26 38  1  6  0  0  0
M  END
>  <cdx:fragmentId>
5

$$$$
