17640.cdx
  Mrv1902 05222410242D          

 20 21  0  0  0  0            999 V2000
    7.8187   -7.0733    0.0000 C   0  0  1  0  0  0  0  0  0  0  0  0
    7.7756   -6.2494    0.0000 C   0  0  1  0  0  0  0  0  0  0  0  0
    7.1046   -5.7694    0.0000 C   0  0  0  0  0  0  0  0  0  0  0  0
    6.3110   -5.9948    0.0000 C   0  0  0  0  0  0  0  0  0  0  0  0
    5.9924   -6.7557    0.0000 C   0  0  0  0  0  0  0  0  0  0  0  0
    6.3886   -7.4793    0.0000 C   0  0  0  0  0  0  0  0  0  0  0  0
    7.2014   -7.6207    0.0000 C   0  0  2  0  0  0  0  0  0  0  0  0
    8.6156   -7.2869    0.0000 C   0  0  0  0  0  0  0  0  0  0  0  0
    9.0650   -6.5951    0.0000 C   0  0  0  0  0  0  0  0  0  0  0  0
    8.5459   -5.9539    0.0000 C   0  0  2  0  0  0  0  0  0  0  0  0
    6.7889   -8.3351    0.0000 O   0  0  0  0  0  0  0  0  0  0  0  0
    8.3323   -5.1570    0.0000 C   0  0  0  0  0  0  0  0  0  0  0  0
    9.1292   -5.3705    0.0000 O   0  0  0  0  0  0  0  0  0  0  0  0
    5.7262   -5.4129    0.0000 C   0  0  0  0  0  0  0  0  0  0  0  0
    4.9298   -5.6284    0.0000 C   0  0  0  0  0  0  0  0  0  0  0  0
    5.9377   -4.6154    0.0000 C   0  0  0  0  0  0  0  0  0  0  0  0
    7.7735   -5.4244    0.0000 H   0  0  0  0  0  0  0  0  0  0  0  0
    7.8208   -7.8983    0.0000 H   0  0  0  0  0  0  0  0  0  0  0  0
    7.6139   -8.3351    0.0000 C   0  0  0  0  0  0  0  0  0  0  0  0
    7.2014   -9.0496    0.0000 O   0  0  0  0  0  0  0  0  0  0  0  0
  1  2  1  0  0  0  0
  2  3  1  0  0  0  0
  3  4  2  0  0  0  0
  4  5  1  0  0  0  0
  5  6  1  0  0  0  0
  6  7  1  0  0  0  0
  7  1  1  0  0  0  0
  1  8  1  0  0  0  0
  8  9  1  0  0  0  0
  9 10  1  0  0  0  0
 10  2  1  0  0  0  0
  7 11  1  1  0  0  0
 10 12  1  1  0  0  0
 10 13  1  0  0  0  0
  4 14  1  0  0  0  0
 14 15  1  0  0  0  0
 14 16  1  0  0  0  0
  2 17  1  6  0  0  0
  1 18  1  1  0  0  0
  7 19  1  0  0  0  0
 19 20  1  0  0  0  0
M  END
>  <cdx:fragmentId>
5

$$$$
