17641.cdx
  Mrv1902 05222410242D          

 20 21  0  0  0  0            999 V2000
    6.5415   -8.5127    0.0000 C   0  0  1  0  0  0  0  0  0  0  0  0
    6.5224   -7.6879    0.0000 C   0  0  1  0  0  0  0  0  0  0  0  0
    5.8657   -7.1886    0.0000 C   0  0  0  0  0  0  0  0  0  0  0  0
    5.0658   -7.3907    0.0000 C   0  0  0  0  0  0  0  0  0  0  0  0
    4.7252   -8.1421    0.0000 C   0  0  0  0  0  0  0  0  0  0  0  0
    5.1002   -8.8769    0.0000 C   0  0  0  0  0  0  0  0  0  0  0  0
    5.9085   -9.0418    0.0000 C   0  0  2  0  0  0  0  0  0  0  0  0
    7.3318   -8.7494    0.0000 C   0  0  0  0  0  0  0  0  0  0  0  0
    7.8012   -8.0710    0.0000 C   0  0  0  0  0  0  0  0  0  0  0  0
    7.3009   -7.4149    0.0000 C   0  0  1  0  0  0  0  0  0  0  0  0
    6.3210   -9.7563    0.0000 C   0  0  0  0  0  0  0  0  0  0  0  0
    7.8996   -6.8473    0.0000 O   0  0  0  0  0  0  0  0  0  0  0  0
    7.1087   -6.6126    0.0000 C   0  0  0  0  0  0  0  0  0  0  0  0
    4.4982   -6.7920    0.0000 C   0  0  0  0  0  0  0  0  0  0  0  0
    3.6959   -6.9843    0.0000 C   0  0  0  0  0  0  0  0  0  0  0  0
    4.7328   -6.0011    0.0000 C   0  0  0  0  0  0  0  0  0  0  0  0
    5.4960   -9.7563    0.0000 O   0  0  0  0  0  0  0  0  0  0  0  0
    6.5415   -9.3377    0.0000 H   0  0  0  0  0  0  0  0  0  0  0  0
    6.5224   -6.8629    0.0000 H   0  0  0  0  0  0  0  0  0  0  0  0
    5.9085  -10.4708    0.0000 O   0  0  0  0  0  0  0  0  0  0  0  0
  1  2  1  0  0  0  0
  2  3  1  0  0  0  0
  3  4  2  0  0  0  0
  4  5  1  0  0  0  0
  5  6  1  0  0  0  0
  6  7  1  0  0  0  0
  7  1  1  0  0  0  0
  1  8  1  0  0  0  0
  8  9  1  0  0  0  0
  9 10  1  0  0  0  0
 10  2  1  0  0  0  0
 10 12  1  6  0  0  0
 10 13  1  1  0  0  0
  4 14  1  0  0  0  0
 14 15  1  0  0  0  0
 14 16  1  0  0  0  0
  7 11  1  1  0  0  0
  7 17  1  6  0  0  0
  1 18  1  1  0  0  0
  2 19  1  6  0  0  0
 11 20  1  0  0  0  0
M  END
>  <cdx:fragmentId>
5

$$$$
