17643.cdx
  Mrv1902 05222410232D          

 21 22  0  0  0  0            999 V2000
    7.6969   -7.7702    0.0000 C   0  0  2  0  0  0  0  0  0  0  0  0
    7.6806   -6.9454    0.0000 C   0  0  2  0  0  0  0  0  0  0  0  0
    7.0256   -6.4439    0.0000 C   0  0  0  0  0  0  0  0  0  0  0  0
    6.2250   -6.6433    0.0000 C   0  0  0  0  0  0  0  0  0  0  0  0
    5.8818   -7.3935    0.0000 C   0  0  0  0  0  0  0  0  0  0  0  0
    6.2544   -8.1296    0.0000 C   0  0  0  0  0  0  0  0  0  0  0  0
    7.0622   -8.2972    0.0000 C   0  0  2  0  0  0  0  0  0  0  0  0
    8.4864   -8.0096    0.0000 C   0  0  1  0  0  0  0  0  0  0  0  0
    8.9581   -7.3327    0.0000 C   0  0  0  0  0  0  0  0  0  0  0  0
    8.4601   -6.6750    0.0000 C   0  0  1  0  0  0  0  0  0  0  0  0
    8.2469   -5.8780    0.0000 C   0  0  0  0  0  0  0  0  0  0  0  0
    9.0437   -6.0919    0.0000 O   0  0  0  0  0  0  0  0  0  0  0  0
    5.6594   -6.0427    0.0000 C   0  0  0  0  0  0  0  0  0  0  0  0
    4.8565   -6.2323    0.0000 C   0  0  0  0  0  0  0  0  0  0  0  0
    5.8967   -5.2526    0.0000 C   0  0  0  0  0  0  0  0  0  0  0  0
    9.2007   -8.4224    0.0000 O   0  0  0  0  0  0  0  0  0  0  0  0
    8.4861   -8.8346    0.0000 H   0  0  0  0  0  0  0  0  0  0  0  0
    7.4744   -9.0119    0.0000 C   0  0  0  0  0  0  0  0  0  0  0  0
    6.8483   -9.0941    0.0000 O   0  0  0  0  0  0  0  0  0  0  0  0
    7.6966   -8.5952    0.0000 H   0  0  0  0  0  0  0  0  0  0  0  0
    7.7053   -6.1208    0.0000 H   0  0  0  0  0  0  0  0  0  0  0  0
  1  2  1  0  0  0  0
  2  3  1  0  0  0  0
  3  4  2  0  0  0  0
  4  5  1  0  0  0  0
  5  6  1  0  0  0  0
  6  7  1  0  0  0  0
  7  1  1  0  0  0  0
  1  8  1  0  0  0  0
  8  9  1  0  0  0  0
  9 10  1  0  0  0  0
 10  2  1  0  0  0  0
 10 11  1  6  0  0  0
 10 12  1  1  0  0  0
  4 13  1  0  0  0  0
 13 14  1  0  0  0  0
 13 15  1  0  0  0  0
  8 16  1  1  0  0  0
  8 17  1  6  0  0  0
  7 18  1  1  0  0  0
  7 19  1  6  0  0  0
  1 20  1  6  0  0  0
  2 21  1  1  0  0  0
M  END
>  <cdx:fragmentId>
5

$$$$
