176475.cdx
  Mrv1902 05222410192D          

 20 21  0  0  0  0            999 V2000
    8.0402   -7.7269    0.0000 O   0  0  0  0  0  0  0  0  0  0  0  0
   10.1836   -8.1394    0.0000 O   0  0  0  0  0  0  0  0  0  0  0  0
    9.4691   -8.5519    0.0000 C   0  0  0  0  0  0  0  0  0  0  0  0
   10.1836   -7.3144    0.0000 C   0  0  0  0  0  0  0  0  0  0  0  0
    9.4691   -7.7269    0.0000 C   0  0  0  0  0  0  0  0  0  0  0  0
    8.7546   -7.3144    0.0000 C   0  0  1  0  0  0  0  0  0  0  0  0
    8.7546   -6.4894    0.0000 C   0  0  0  0  0  0  0  0  0  0  0  0
    9.4691   -5.2519    0.0000 C   0  0  0  0  0  0  0  0  0  0  0  0
    8.7546   -4.8394    0.0000 O   0  0  0  0  0  0  0  0  0  0  0  0
    4.4678   -4.8394    0.0000 O   0  0  0  0  0  0  0  0  0  0  0  0
    5.8968   -4.8394    0.0000 O   0  0  0  0  0  0  0  0  0  0  0  0
    6.6112   -5.2519    0.0000 C   0  0  0  0  0  0  0  0  0  0  0  0
    7.3257   -4.8394    0.0000 C   0  0  0  0  0  0  0  0  0  0  0  0
    8.0402   -5.2519    0.0000 C   0  0  0  0  0  0  0  0  0  0  0  0
    8.0402   -6.0769    0.0000 C   0  0  0  0  0  0  0  0  0  0  0  0
    7.3257   -6.4894    0.0000 C   0  0  0  0  0  0  0  0  0  0  0  0
    6.6112   -6.0769    0.0000 C   0  0  0  0  0  0  0  0  0  0  0  0
    5.8968   -6.4894    0.0000 C   0  0  0  0  0  0  0  0  0  0  0  0
    5.1823   -6.0769    0.0000 C   0  0  0  0  0  0  0  0  0  0  0  0
    5.1823   -5.2519    0.0000 C   0  0  0  0  0  0  0  0  0  0  0  0
 15  7  1  0  0  0  0
  6  1  1  6  0  0  0
  5  2  1  0  0  0  0
  5  3  1  0  0  0  0
  5  4  1  0  0  0  0
  6  5  1  0  0  0  0
  7  6  1  0  0  0  0
 14  9  1  0  0  0  0
  9  8  1  0  0  0  0
 20 10  2  0  0  0  0
 20 11  1  0  0  0  0
 12 11  1  0  0  0  0
 17 12  2  0  0  0  0
 13 12  1  0  0  0  0
 14 13  2  0  0  0  0
 15 14  1  0  0  0  0
 16 15  2  0  0  0  0
 17 16  1  0  0  0  0
 18 17  1  0  0  0  0
 19 18  2  0  0  0  0
 20 19  1  0  0  0  0
M  END
>  <cdx:fragmentId>
5

$$$$
