17644.cdx
  Mrv1902 05222410252D          

 33 35  0  0  0  0            999 V2000
    5.7594  -13.0180    0.0000 C   0  0  1  0  0  0  0  0  0  0  0  0
    5.0136  -11.7991    0.0000 C   0  0  1  0  0  0  0  0  0  0  0  0
    5.7173  -11.3685    0.0000 C   0  0  0  0  0  0  0  0  0  0  0  0
    6.4210  -10.9379    0.0000 C   0  0  0  0  0  0  0  0  0  0  0  0
    5.0346  -12.6238    0.0000 C   0  0  0  0  0  0  0  0  0  0  0  0
    7.8705  -11.7262    0.0000 C   0  0  0  0  0  0  0  0  0  0  0  0
    7.8916  -12.5509    0.0000 C   0  0  0  0  0  0  0  0  0  0  0  0
    7.1879  -12.9815    0.0000 C   0  0  0  0  0  0  0  0  0  0  0  0
    6.4631  -12.5874    0.0000 C   0  0  0  0  0  0  0  0  0  0  0  0
    6.4420  -11.7626    0.0000 C   0  0  1  0  0  0  0  0  0  0  0  0
    7.1458  -11.3320    0.0000 C   0  0  0  0  0  0  0  0  0  0  0  0
    7.1247  -10.5073    0.0000 C   0  0  0  0  0  0  0  0  0  0  0  0
    7.8284  -10.0767    0.0000 C   0  0  0  0  0  0  0  0  0  0  0  0
    8.5532  -10.4708    0.0000 C   0  0  0  0  0  0  0  0  0  0  0  0
    8.5742  -11.2956    0.0000 C   0  0  0  0  0  0  0  0  0  0  0  0
    5.3469  -13.7324    0.0000 C   0  0  0  0  0  0  0  0  0  0  0  0
    6.1719  -13.7324    0.0000 C   0  0  0  0  0  0  0  0  0  0  0  0
    9.2569  -10.0403    0.0000 C   0  0  0  0  0  0  0  0  0  0  0  0
    9.9817  -10.4344    0.0000 C   0  0  0  0  0  0  0  0  0  0  0  0
    9.2358   -9.2155    0.0000 C   0  0  0  0  0  0  0  0  0  0  0  0
    4.2888  -11.4050    0.0000 C   0  0  0  0  0  0  0  0  0  0  0  0
    3.5851  -11.8355    0.0000 O   0  0  0  0  0  0  0  0  0  0  0  0
    4.2678  -10.5802    0.0000 O   0  0  0  0  0  0  0  0  0  0  0  0
    5.7594  -14.4469    0.0000 O   0  0  0  0  0  0  0  0  0  0  0  0
    6.9969  -13.7324    0.0000 C   0  0  0  0  0  0  0  0  0  0  0  0
    7.4094  -14.4469    0.0000 C   0  0  0  0  0  0  0  0  0  0  0  0
    8.2344  -14.4469    0.0000 C   0  0  0  0  0  0  0  0  0  0  0  0
    8.6469  -15.1614    0.0000 C   0  0  0  0  0  0  0  0  0  0  0  0
    9.4719  -15.1614    0.0000 C   0  0  0  0  0  0  0  0  0  0  0  0
    9.8844  -15.8758    0.0000 C   0  0  0  0  0  0  0  0  0  0  0  0
   10.7094  -15.8758    0.0000 C   0  0  0  0  0  0  0  0  0  0  0  0
   11.1219  -16.5903    0.0000 C   0  0  0  0  0  0  0  0  0  0  0  0
   11.9469  -16.5903    0.0000 C   0  0  0  0  0  0  0  0  0  0  0  0
 10  3  1  0  0  0  0
  3  2  1  0  0  0  0
 10  4  1  1  0  0  0
  9  1  1  0  0  0  0
 11  6  2  0  0  0  0
 15  6  1  0  0  0  0
  7  6  1  0  0  0  0
  8  7  1  0  0  0  0
  9  8  1  0  0  0  0
 10  9  1  0  0  0  0
 11 10  1  0  0  0  0
 12 11  1  0  0  0  0
 13 12  2  0  0  0  0
 14 13  1  0  0  0  0
 15 14  2  0  0  0  0
  1  5  1  0  0  0  0
  2  5  1  0  0  0  0
  1 16  1  1  0  0  0
  1 17  1  6  0  0  0
 14 18  1  0  0  0  0
 18 19  1  0  0  0  0
 18 20  1  0  0  0  0
  2 21  1  1  0  0  0
 21 22  1  0  0  0  0
 21 23  2  0  0  0  0
 17 24  2  0  0  0  0
 17 25  1  0  0  0  0
 25 26  1  0  0  0  0
 26 27  1  0  0  0  0
 27 28  1  0  0  0  0
 28 29  1  0  0  0  0
 29 30  1  0  0  0  0
 30 31  1  0  0  0  0
 31 32  1  0  0  0  0
 32 33  1  0  0  0  0
M  END
>  <cdx:fragmentId>
123564

$$$$
