17642.cdx
  Mrv1902 05222410242D          

 19 21  0  0  0  0            999 V2000
    6.5481   -9.2152    0.0000 C   0  0  1  0  0  0  0  0  0  0  0  0
    6.5230   -8.3906    0.0000 C   0  0  2  0  0  0  0  0  0  0  0  0
    5.8626   -7.8961    0.0000 C   0  0  1  0  0  0  0  0  0  0  0  0
    5.0642   -8.1041    0.0000 C   0  0  2  0  0  0  0  0  0  0  0  0
    4.7291   -8.8579    0.0000 C   0  0  0  0  0  0  0  0  0  0  0  0
    5.1095   -9.5900    0.0000 C   0  0  0  0  0  0  0  0  0  0  0  0
    5.9190   -9.7490    0.0000 C   0  0  0  0  0  0  0  0  0  0  0  0
    7.3401   -9.4461    0.0000 C   0  0  0  0  0  0  0  0  0  0  0  0
    7.8045   -8.7642    0.0000 C   0  0  0  0  0  0  0  0  0  0  0  0
    7.2994   -8.1119    0.0000 C   0  0  1  0  0  0  0  0  0  0  0  0
    7.0859   -7.3150    0.0000 C   0  0  0  0  0  0  0  0  0  0  0  0
    7.8828   -7.5285    0.0000 O   0  0  0  0  0  0  0  0  0  0  0  0
    4.4922   -7.5096    0.0000 C   0  0  0  0  0  0  0  0  0  0  0  0
    3.6914   -7.7077    0.0000 C   0  0  0  0  0  0  0  0  0  0  0  0
    4.7210   -6.7169    0.0000 C   0  0  0  0  0  0  0  0  0  0  0  0
    5.2931   -7.3114    0.0000 O   0  0  0  0  0  0  0  0  0  0  0  0
    6.1172  -10.5498    0.0000 C   0  0  0  0  0  0  0  0  0  0  0  0
    6.5732  -10.0398    0.0000 H   0  0  0  0  0  0  0  0  0  0  0  0
    6.5230   -7.5656    0.0000 H   0  0  0  0  0  0  0  0  0  0  0  0
  1  2  1  0  0  0  0
  2  3  1  0  0  0  0
  3  4  1  0  0  0  0
  4  5  1  0  0  0  0
  5  6  1  0  0  0  0
  6  7  1  0  0  0  0
  7  1  1  0  0  0  0
  1  8  1  0  0  0  0
  8  9  1  0  0  0  0
  9 10  1  0  0  0  0
 10  2  1  0  0  0  0
 10 11  1  6  0  0  0
 10 12  1  1  0  0  0
  4 13  1  6  0  0  0
 13 14  1  0  0  0  0
 13 15  1  0  0  0  0
  4 16  1  0  0  0  0
  3 16  1  1  0  0  0
  7 17  2  0  0  0  0
  1 18  1  1  0  0  0
  2 19  1  1  0  0  0
M  END
>  <cdx:fragmentId>
5

$$$$
