1765.cdx
  Mrv1902 05222410232D          

 36 40  0  0  0  0            999 V2000
    6.8852   -6.4419    0.0000 C   0  0  0  0  0  0  0  0  0  0  0  0
    6.8852   -7.2669    0.0000 C   0  0  0  0  0  0  0  0  0  0  0  0
    7.5996   -7.6794    0.0000 C   0  0  0  0  0  0  0  0  0  0  0  0
    8.3141   -7.2669    0.0000 C   0  0  0  0  0  0  0  0  0  0  0  0
    8.3141   -6.4419    0.0000 C   0  0  0  0  0  0  0  0  0  0  0  0
    7.5996   -6.0294    0.0000 C   0  0  0  0  0  0  0  0  0  0  0  0
    9.0286   -7.6794    0.0000 C   0  0  1  0  0  0  0  0  0  0  0  0
    9.7430   -7.2669    0.0000 C   0  0  1  0  0  0  0  0  0  0  0  0
    9.7430   -6.4419    0.0000 C   0  0  0  0  0  0  0  0  0  0  0  0
    9.0286   -6.0294    0.0000 O   0  0  0  0  0  0  0  0  0  0  0  0
    6.1707   -6.0294    0.0000 O   0  0  0  0  0  0  0  0  0  0  0  0
   10.4575   -6.8544    0.0000 H   0  0  0  0  0  0  0  0  0  0  0  0
    8.3141   -8.0919    0.0000 H   0  0  0  0  0  0  0  0  0  0  0  0
    4.0389   -6.4419    0.0000 C   0  0  2  0  0  0  0  0  0  0  0  0
    4.0389   -7.2669    0.0000 C   0  0  2  0  0  0  0  0  0  0  0  0
    4.7534   -7.6794    0.0000 C   0  0  1  0  0  0  0  0  0  0  0  0
    5.4678   -7.2669    0.0000 C   0  0  2  0  0  0  0  0  0  0  0  0
    5.4678   -6.4419    0.0000 C   0  0  1  0  0  0  0  0  0  0  0  0
    4.7534   -6.0294    0.0000 O   0  0  0  0  0  0  0  0  0  0  0  0
    3.3244   -6.0294    0.0000 C   0  0  0  0  0  0  0  0  0  0  0  0
    4.7534   -8.5044    0.0000 O   0  0  0  0  0  0  0  0  0  0  0  0
    6.1823   -7.6794    0.0000 O   0  0  0  0  0  0  0  0  0  0  0  0
    3.3244   -7.6794    0.0000 O   0  0  0  0  0  0  0  0  0  0  0  0
    2.6100   -6.4419    0.0000 O   0  0  0  0  0  0  0  0  0  0  0  0
    9.2001   -8.4863    0.0000 O   0  0  0  0  0  0  0  0  0  0  0  0
   10.0206   -8.5726    0.0000 C   0  0  0  0  0  0  0  0  0  0  0  0
   10.3561   -7.8189    0.0000 C   0  0  0  0  0  0  0  0  0  0  0  0
   10.5055   -9.2400    0.0000 C   0  0  0  0  0  0  0  0  0  0  0  0
   11.3260   -9.1538    0.0000 C   0  0  0  0  0  0  0  0  0  0  0  0
   11.6615   -8.4001    0.0000 C   0  0  0  0  0  0  0  0  0  0  0  0
   11.1766   -7.7327    0.0000 C   0  0  0  0  0  0  0  0  0  0  0  0
   10.1699   -9.9937    0.0000 O   0  0  0  0  0  0  0  0  0  0  0  0
   11.8109   -9.8212    0.0000 O   0  0  0  0  0  0  0  0  0  0  0  0
   10.6549  -10.6611    0.0000 C   0  0  0  0  0  0  0  0  0  0  0  0
   11.4753  -10.5749    0.0000 C   0  0  0  0  0  0  0  0  0  0  0  0
    3.3244   -5.2044    0.0000 O   0  0  0  0  0  0  0  0  0  0  0  0
  1  2  2  0  0  0  0
  2  3  1  0  0  0  0
  3  4  2  0  0  0  0
  4  5  1  0  0  0  0
  5  6  2  0  0  0  0
  6  1  1  0  0  0  0
  4  7  1  0  0  0  0
  7  8  1  0  0  0  0
  8  9  1  0  0  0  0
  9 10  1  0  0  0  0
 10  5  1  0  0  0  0
  1 11  1  0  0  0  0
  8 12  1  6  0  0  0
  7 13  1  6  0  0  0
 14 15  1  0  0  0  0
 15 16  1  0  0  0  0
 16 17  1  0  0  0  0
 17 18  1  0  0  0  0
 18 19  1  0  0  0  0
 19 14  1  0  0  0  0
 14 20  1  1  0  0  0
 16 21  1  1  0  0  0
 17 22  1  6  0  0  0
 15 23  1  6  0  0  0
 20 24  1  0  0  0  0
 18 11  1  1  0  0  0
  7 25  1  0  0  0  0
 25 26  1  0  0  0  0
 26 27  2  0  0  0  0
 27  8  1  0  0  0  0
 26 28  1  0  0  0  0
 28 29  2  0  0  0  0
 29 30  1  0  0  0  0
 30 31  2  0  0  0  0
 31 27  1  0  0  0  0
 28 32  1  0  0  0  0
 29 33  1  0  0  0  0
 32 34  1  0  0  0  0
 33 35  1  0  0  0  0
 20 36  2  0  0  0  0
M  END
>  <cdx:fragmentId>
5

$$$$
