1766.cdx
  Mrv1902 05222410242D          

 44 49  0  0  0  0            999 V2000
    6.5689   -6.5794    0.0000 C   0  0  0  0  0  0  0  0  0  0  0  0
    6.5689   -7.4044    0.0000 C   0  0  0  0  0  0  0  0  0  0  0  0
    7.2834   -7.8169    0.0000 C   0  0  0  0  0  0  0  0  0  0  0  0
    7.9978   -7.4044    0.0000 C   0  0  0  0  0  0  0  0  0  0  0  0
    7.9978   -6.5794    0.0000 C   0  0  0  0  0  0  0  0  0  0  0  0
    7.2834   -6.1669    0.0000 C   0  0  0  0  0  0  0  0  0  0  0  0
    8.7123   -7.8169    0.0000 C   0  0  1  0  0  0  0  0  0  0  0  0
    9.4268   -7.4044    0.0000 C   0  0  1  0  0  0  0  0  0  0  0  0
    9.4268   -6.5794    0.0000 C   0  0  0  0  0  0  0  0  0  0  0  0
    8.7123   -6.1669    0.0000 O   0  0  0  0  0  0  0  0  0  0  0  0
    5.8544   -6.1669    0.0000 O   0  0  0  0  0  0  0  0  0  0  0  0
   10.1413   -6.9919    0.0000 H   0  0  0  0  0  0  0  0  0  0  0  0
    7.9978   -8.2294    0.0000 H   0  0  0  0  0  0  0  0  0  0  0  0
    3.7227   -6.5794    0.0000 C   0  0  2  0  0  0  0  0  0  0  0  0
    3.7227   -7.4044    0.0000 C   0  0  2  0  0  0  0  0  0  0  0  0
    4.4371   -7.8169    0.0000 C   0  0  1  0  0  0  0  0  0  0  0  0
    5.1516   -7.4044    0.0000 C   0  0  2  0  0  0  0  0  0  0  0  0
    5.1516   -6.5794    0.0000 C   0  0  1  0  0  0  0  0  0  0  0  0
    4.4371   -6.1669    0.0000 O   0  0  0  0  0  0  0  0  0  0  0  0
    3.0082   -6.1669    0.0000 C   0  0  0  0  0  0  0  0  0  0  0  0
    4.4371   -8.6419    0.0000 O   0  0  0  0  0  0  0  0  0  0  0  0
    5.8661   -7.8169    0.0000 O   0  0  0  0  0  0  0  0  0  0  0  0
    3.0082   -7.8169    0.0000 O   0  0  0  0  0  0  0  0  0  0  0  0
    2.2937   -6.5794    0.0000 O   0  0  0  0  0  0  0  0  0  0  0  0
    8.8838   -8.6238    0.0000 O   0  0  0  0  0  0  0  0  0  0  0  0
    9.7043   -8.7101    0.0000 C   0  0  0  0  0  0  0  0  0  0  0  0
   10.0399   -7.9564    0.0000 C   0  0  0  0  0  0  0  0  0  0  0  0
   10.1892   -9.3775    0.0000 C   0  0  0  0  0  0  0  0  0  0  0  0
   11.0097   -9.2913    0.0000 C   0  0  0  0  0  0  0  0  0  0  0  0
   11.3453   -8.5376    0.0000 C   0  0  0  0  0  0  0  0  0  0  0  0
   10.8604   -7.8702    0.0000 C   0  0  0  0  0  0  0  0  0  0  0  0
    9.8537  -10.1312    0.0000 O   0  0  0  0  0  0  0  0  0  0  0  0
   11.4947   -9.9587    0.0000 O   0  0  0  0  0  0  0  0  0  0  0  0
   10.3386  -10.7986    0.0000 C   0  0  0  0  0  0  0  0  0  0  0  0
   11.1591  -10.7124    0.0000 C   0  0  0  0  0  0  0  0  0  0  0  0
    5.8685   -8.6572    0.0000 C   0  0  2  0  0  0  0  0  0  0  0  0
    5.1540   -9.0697    0.0000 O   0  0  0  0  0  0  0  0  0  0  0  0
    5.1540   -9.8947    0.0000 C   0  0  0  0  0  0  0  0  0  0  0  0
    5.8685  -10.3072    0.0000 C   0  0  2  0  0  0  0  0  0  0  0  0
    6.5829   -9.8947    0.0000 C   0  0  1  0  0  0  0  0  0  0  0  0
    6.5829   -9.0697    0.0000 C   0  0  1  0  0  0  0  0  0  0  0  0
    7.2974  -10.3072    0.0000 O   0  0  0  0  0  0  0  0  0  0  0  0
    5.8685  -11.1322    0.0000 O   0  0  0  0  0  0  0  0  0  0  0  0
    7.2974   -8.6572    0.0000 O   0  0  0  0  0  0  0  0  0  0  0  0
  1  2  2  0  0  0  0
  2  3  1  0  0  0  0
  3  4  2  0  0  0  0
  4  5  1  0  0  0  0
  5  6  2  0  0  0  0
  6  1  1  0  0  0  0
  4  7  1  0  0  0  0
  7  8  1  0  0  0  0
  8  9  1  0  0  0  0
  9 10  1  0  0  0  0
 10  5  1  0  0  0  0
  1 11  1  0  0  0  0
  8 12  1  6  0  0  0
  7 13  1  6  0  0  0
 14 15  1  0  0  0  0
 15 16  1  0  0  0  0
 16 17  1  0  0  0  0
 17 18  1  0  0  0  0
 18 19  1  0  0  0  0
 19 14  1  0  0  0  0
 14 20  1  1  0  0  0
 16 21  1  1  0  0  0
 17 22  1  6  0  0  0
 15 23  1  6  0  0  0
 20 24  1  0  0  0  0
 18 11  1  1  0  0  0
  7 25  1  0  0  0  0
 25 26  1  0  0  0  0
 26 27  2  0  0  0  0
 27  8  1  0  0  0  0
 26 28  1  0  0  0  0
 28 29  2  0  0  0  0
 29 30  1  0  0  0  0
 30 31  2  0  0  0  0
 31 27  1  0  0  0  0
 28 32  1  0  0  0  0
 29 33  1  0  0  0  0
 32 34  1  0  0  0  0
 33 35  1  0  0  0  0
 36 37  1  0  0  0  0
 37 38  1  0  0  0  0
 38 39  1  0  0  0  0
 39 40  1  0  0  0  0
 40 41  1  0  0  0  0
 41 36  1  0  0  0  0
 40 42  1  1  0  0  0
 39 43  1  6  0  0  0
 41 44  1  6  0  0  0
 36 22  1  1  0  0  0
M  END
>  <cdx:fragmentId>
5

$$$$
