176898.cdx
  Mrv1902 05222410282D          

 25 24  0  0  0  0            999 V2000
    3.9138  -10.2844    0.0000 C   0  0  0  0  0  0  0  0  0  0  0  0
    4.6283  -10.6969    0.0000 O   0  0  0  0  0  0  0  0  0  0  0  0
    5.3428   -9.4594    0.0000 O   0  0  0  0  0  0  0  0  0  0  0  0
   20.3467  -10.6969    0.0000 C   0  0  0  0  0  0  0  0  0  0  0  0
   19.6322  -10.2844    0.0000 C   0  0  0  0  0  0  0  0  0  0  0  0
   18.9177  -10.6969    0.0000 C   0  0  0  0  0  0  0  0  0  0  0  0
   18.2033  -10.2844    0.0000 C   0  0  0  0  0  0  0  0  0  0  0  0
   17.4888  -10.6969    0.0000 C   0  0  0  0  0  0  0  0  0  0  0  0
   16.7743  -10.2844    0.0000 C   0  0  0  0  0  0  0  0  0  0  0  0
   16.0598  -10.6969    0.0000 C   0  0  0  0  0  0  0  0  0  0  0  0
   15.3454  -10.2844    0.0000 C   0  0  0  0  0  0  0  0  0  0  0  0
   14.6309  -10.6969    0.0000 C   0  0  0  0  0  0  0  0  0  0  0  0
   13.9164  -10.2844    0.0000 C   0  0  0  0  0  0  0  0  0  0  0  0
   13.2020  -10.6969    0.0000 C   0  0  0  0  0  0  0  0  0  0  0  0
   12.4875  -10.2844    0.0000 C   0  0  0  0  0  0  0  0  0  0  0  0
   11.7730  -10.6969    0.0000 C   0  0  0  0  0  0  0  0  0  0  0  0
   11.0585  -10.2844    0.0000 C   0  0  0  0  0  0  0  0  0  0  0  0
   10.3441  -10.6969    0.0000 C   0  0  0  0  0  0  0  0  0  0  0  0
    9.6296  -10.2844    0.0000 C   0  0  0  0  0  0  0  0  0  0  0  0
    8.9151  -10.6969    0.0000 C   0  0  0  0  0  0  0  0  0  0  0  0
    8.2007  -10.2844    0.0000 C   0  0  0  0  0  0  0  0  0  0  0  0
    7.4862  -10.6969    0.0000 C   0  0  0  0  0  0  0  0  0  0  0  0
    6.7717  -10.2844    0.0000 C   0  0  0  0  0  0  0  0  0  0  0  0
    6.0572  -10.6969    0.0000 C   0  0  0  0  0  0  0  0  0  0  0  0
    5.3428  -10.2844    0.0000 C   0  0  0  0  0  0  0  0  0  0  0  0
  2  1  1  0  0  0  0
 25  2  1  0  0  0  0
 25  3  2  0  0  0  0
  5  4  1  0  0  0  0
  6  5  1  0  0  0  0
  7  6  1  0  0  0  0
  8  7  1  0  0  0  0
  9  8  1  0  0  0  0
 10  9  1  0  0  0  0
 11 10  1  0  0  0  0
 12 11  1  0  0  0  0
 13 12  1  0  0  0  0
 14 13  1  0  0  0  0
 15 14  1  0  0  0  0
 16 15  1  0  0  0  0
 17 16  1  0  0  0  0
 18 17  1  0  0  0  0
 19 18  1  0  0  0  0
 20 19  1  0  0  0  0
 21 20  1  0  0  0  0
 22 21  1  0  0  0  0
 23 22  1  0  0  0  0
 24 23  2  0  0  0  0
 25 24  1  0  0  0  0
M  END
>  <cdx:fragmentId>
187796

$$$$
