176951.cdx
  Mrv1902 05222410222D          

  8  8  0  0  0  0            999 V2000
    7.4585   -6.7844    0.0000 C   0  0  1  0  0  0  0  0  0  0  0  0
    8.1730   -6.3719    0.0000 O   0  0  0  0  0  0  0  0  0  0  0  0
    7.4585   -7.6094    0.0000 C   0  0  1  0  0  0  0  0  0  0  0  0
    8.1730   -8.0219    0.0000 O   0  0  0  0  0  0  0  0  0  0  0  0
    6.7440   -8.0219    0.0000 C   0  0  0  0  0  0  0  0  0  0  0  0
    6.0296   -7.6094    0.0000 C   0  0  0  0  0  0  0  0  0  0  0  0
    6.0296   -6.7844    0.0000 C   0  0  0  0  0  0  0  0  0  0  0  0
    6.7440   -6.3719    0.0000 C   0  0  0  0  0  0  0  0  0  0  0  0
  1  2  1  1  0  0  0
  1  3  1  0  0  0  0
  3  4  1  1  0  0  0
  3  5  1  0  0  0  0
  5  6  2  0  0  0  0
  6  7  1  0  0  0  0
  7  8  2  0  0  0  0
  1  8  1  0  0  0  0
M  END
>  <cdx:fragmentId>
13114

$$$$
