176907.cdx
  Mrv1902 05222410282D          

 19 21  0  0  0  0            999 V2000
   15.8260  -15.1856    0.0000 C   0  0  0  0  0  0  0  0  0  0  0  0
   15.8260  -14.3606    0.0000 C   0  0  0  0  0  0  0  0  0  0  0  0
   15.1115  -13.9481    0.0000 C   0  0  0  0  0  0  0  0  0  0  0  0
   14.3970  -14.3606    0.0000 C   0  0  0  0  0  0  0  0  0  0  0  0
   13.6826  -13.9481    0.0000 C   0  0  0  0  0  0  0  0  0  0  0  0
   12.9681  -14.3606    0.0000 C   0  0  0  0  0  0  0  0  0  0  0  0
   12.9681  -15.1856    0.0000 C   0  0  0  0  0  0  0  0  0  0  0  0
   13.6826  -15.5981    0.0000 C   0  0  0  0  0  0  0  0  0  0  0  0
   14.3970  -15.1856    0.0000 C   0  0  0  0  0  0  0  0  0  0  0  0
   15.1115  -15.5981    0.0000 O   0  0  0  0  0  0  0  0  0  0  0  0
   15.1115  -13.1231    0.0000 O   0  0  0  0  0  0  0  0  0  0  0  0
   16.5405  -13.9481    0.0000 C   0  0  0  0  0  0  0  0  0  0  0  0
   16.5405  -13.1231    0.0000 C   0  0  0  0  0  0  0  0  0  0  0  0
   17.2549  -12.7106    0.0000 C   0  0  0  0  0  0  0  0  0  0  0  0
   17.9694  -13.1231    0.0000 C   0  0  0  0  0  0  0  0  0  0  0  0
   17.9694  -13.9481    0.0000 C   0  0  0  0  0  0  0  0  0  0  0  0
   17.2549  -14.3606    0.0000 C   0  0  0  0  0  0  0  0  0  0  0  0
   18.6839  -12.7106    0.0000 O   0  0  0  0  0  0  0  0  0  0  0  0
   12.2536  -15.5981    0.0000 O   0  0  0  0  0  0  0  0  0  0  0  0
  1  2  1  0  0  0  0
  2  3  1  0  0  0  0
  3  4  1  0  0  0  0
  4  5  1  0  0  0  0
  5  6  2  0  0  0  0
  6  7  1  0  0  0  0
  7  8  2  0  0  0  0
  8  9  1  0  0  0  0
  4  9  2  0  0  0  0
  9 10  1  0  0  0  0
  1 10  1  0  0  0  0
  3 11  2  0  0  0  0
 12 13  1  0  0  0  0
 13 14  2  0  0  0  0
 14 15  1  0  0  0  0
 15 16  2  0  0  0  0
 16 17  1  0  0  0  0
 12 17  2  0  0  0  0
 15 18  1  0  0  0  0
  2 12  1  0  0  0  0
  7 19  1  0  0  0  0
M  END
>  <cdx:groupId>
13104

>  <cdx:fragmentId>
13048

$$$$
