17697.cdx
  Mrv1902 05222410242D          

 16 15  0  0  0  0            999 V2000
    2.3650   -2.2621    0.0000 C   0  0  0  0  0  0  0  0  0  0  0  0
    3.0795   -2.6746    0.0000 C   0  0  0  0  0  0  0  0  0  0  0  0
    3.7939   -2.2621    0.0000 C   0  0  0  0  0  0  0  0  0  0  0  0
    4.5084   -2.6746    0.0000 C   0  0  0  0  0  0  0  0  0  0  0  0
    5.2229   -2.2621    0.0000 C   0  0  0  0  0  0  0  0  0  0  0  0
    5.9374   -2.6746    0.0000 C   0  0  0  0  0  0  0  0  0  0  0  0
    6.6518   -2.2621    0.0000 C   0  0  0  0  0  0  0  0  0  0  0  0
    7.3663   -2.6746    0.0000 C   0  0  0  0  0  0  0  0  0  0  0  0
    8.0808   -2.2621    0.0000 C   0  0  0  0  0  0  0  0  0  0  0  0
    8.7952   -2.6746    0.0000 C   0  0  0  0  0  0  0  0  0  0  0  0
    9.5097   -2.2621    0.0000 C   0  0  0  0  0  0  0  0  0  0  0  0
   10.2242   -2.6746    0.0000 C   0  0  0  0  0  0  0  0  0  0  0  0
   10.9387   -2.2621    0.0000 C   0  0  0  0  0  0  0  0  0  0  0  0
   11.6531   -2.6746    0.0000 C   0  0  0  0  0  0  0  0  0  0  0  0
   12.3676   -2.2621    0.0000 C   0  0  0  0  0  0  0  0  0  0  0  0
    1.6505   -2.6746    0.0000 O   0  0  0  0  0  0  0  0  0  0  0  0
  1  2  1  0  0  0  0
  2  3  1  0  0  0  0
  3  4  1  0  0  0  0
  4  5  1  0  0  0  0
  5  6  1  0  0  0  0
  6  7  1  0  0  0  0
  7  8  1  0  0  0  0
  8  9  1  0  0  0  0
  9 10  1  0  0  0  0
 10 11  1  0  0  0  0
 11 12  1  0  0  0  0
 12 13  1  0  0  0  0
 13 14  1  0  0  0  0
 14 15  1  0  0  0  0
  1 16  2  0  0  0  0
M  END
>  <cdx:groupId>
49

>  <cdx:fragmentId>
5

$$$$
