13017695.cdx
  Mrv1902 05222410242D          

 19 18  0  0  0  0            999 V2000
   13.3413  -15.0945    0.0000 C   0  0  0  0  0  0  0  0  0  0  0  0
   12.6268  -15.5070    0.0000 C   0  0  0  0  0  0  0  0  0  0  0  0
   11.9123  -15.0945    0.0000 C   0  0  0  0  0  0  0  0  0  0  0  0
   11.1978  -15.5070    0.0000 C   0  0  0  0  0  0  0  0  0  0  0  0
   10.4834  -15.0945    0.0000 C   0  0  0  0  0  0  0  0  0  0  0  0
    9.7689  -15.5070    0.0000 C   0  0  0  0  0  0  0  0  0  0  0  0
    9.0544  -15.0945    0.0000 C   0  0  0  0  0  0  0  0  0  0  0  0
    8.3400  -15.5070    0.0000 C   0  0  0  0  0  0  0  0  0  0  0  0
    7.6255  -15.0945    0.0000 C   0  0  0  0  0  0  0  0  0  0  0  0
    6.9110  -15.5070    0.0000 C   0  0  0  0  0  0  0  0  0  0  0  0
    6.1965  -15.0945    0.0000 C   0  0  0  0  0  0  0  0  0  0  0  0
    5.4821  -15.5070    0.0000 C   0  0  0  0  0  0  0  0  0  0  0  0
    4.7676  -15.0945    0.0000 C   0  0  0  0  0  0  0  0  0  0  0  0
    4.0531  -15.5070    0.0000 C   0  0  0  0  0  0  0  0  0  0  0  0
    3.3387  -15.0945    0.0000 C   0  0  0  0  0  0  0  0  0  0  0  0
    2.6242  -15.5070    0.0000 C   0  0  0  0  0  0  0  0  0  0  0  0
    1.9097  -15.0945    0.0000 C   0  0  0  0  0  0  0  0  0  0  0  0
    1.1952  -15.5070    0.0000 C   0  0  0  0  0  0  0  0  0  0  0  0
    7.6255  -14.2695    0.0000 O   0  0  0  0  0  0  0  0  0  0  0  0
  1  2  1  0  0  0  0
  2  3  1  0  0  0  0
  3  4  1  0  0  0  0
  4  5  1  0  0  0  0
  5  6  1  0  0  0  0
  6  7  1  0  0  0  0
  7  8  1  0  0  0  0
  8  9  1  0  0  0  0
  9 10  1  0  0  0  0
 10 11  1  0  0  0  0
 11 12  1  0  0  0  0
 12 13  1  0  0  0  0
 13 14  1  0  0  0  0
 14 15  1  0  0  0  0
 15 16  1  0  0  0  0
 16 17  1  0  0  0  0
 17 18  1  0  0  0  0
  9 19  1  0  0  0  0
M  END
>  <cdx:groupId>
94154

>  <cdx:fragmentId>
94101

$$$$
