177.cdx
  Mrv1902 05222410222D          

 10  9  0  0  0  0            999 V2000
    5.2638   -8.1664    0.0000 C   0  0  0  0  0  0  0  0  0  0  0  0
    5.9782   -8.5789    0.0000 C   0  0  0  0  0  0  0  0  0  0  0  0
    5.2638   -7.3414    0.0000 C   0  0  0  0  0  0  0  0  0  0  0  0
    4.5493   -6.9289    0.0000 O   0  0  0  0  0  0  0  0  0  0  0  0
    5.9782   -6.9289    0.0000 O   0  0  0  0  0  0  0  0  0  0  0  0
    5.9782   -9.4039    0.0000 C   0  0  1  0  0  0  0  0  0  0  0  0
    6.6927   -9.8164    0.0000 C   0  0  0  0  0  0  0  0  0  0  0  0
    5.2638   -9.8164    0.0000 N   0  0  0  0  0  0  0  0  0  0  0  0
    7.4072   -9.4039    0.0000 O   0  0  0  0  0  0  0  0  0  0  0  0
    6.6927  -10.6414    0.0000 O   0  0  0  0  0  0  0  0  0  0  0  0
  1  2  1  0  0  0  0
  1  3  1  0  0  0  0
  3  4  1  0  0  0  0
  3  5  2  0  0  0  0
  2  6  1  0  0  0  0
  6  7  1  0  0  0  0
  6  8  1  1  0  0  0
  7  9  1  0  0  0  0
  7 10  2  0  0  0  0
M  END
>  <cdx:fragmentId>
3

$$$$
