177023.cdx
  Mrv1902 05222410182D          

 26 31  0  0  0  0            999 V2000
    4.9960   -9.6819    0.0000 O   0  0  0  0  0  0  0  0  0  0  0  0
    5.2509   -8.8973    0.0000 C   0  0  0  0  0  0  0  0  0  0  0  0
    4.7660   -8.2299    0.0000 O   0  0  0  0  0  0  0  0  0  0  0  0
    5.2509   -7.5624    0.0000 C   0  0  0  0  0  0  0  0  0  0  0  0
    6.0356   -7.8174    0.0000 C   0  0  0  0  0  0  0  0  0  0  0  0
    6.0356   -8.6424    0.0000 C   0  0  0  0  0  0  0  0  0  0  0  0
    6.7500   -9.0549    0.0000 C   0  0  0  0  0  0  0  0  0  0  0  0
    7.4645   -8.6424    0.0000 C   0  0  0  0  0  0  0  0  0  0  0  0
    8.1790   -9.0549    0.0000 C   0  0  0  0  0  0  0  0  0  0  0  0
    8.8934   -8.6424    0.0000 C   0  0  0  0  0  0  0  0  0  0  0  0
    8.8934   -7.8174    0.0000 C   0  0  0  0  0  0  0  0  0  0  0  0
    8.1790   -7.4049    0.0000 C   0  0  0  0  0  0  0  0  0  0  0  0
    8.3505   -6.5979    0.0000 O   0  0  0  0  0  0  0  0  0  0  0  0
    9.1710   -6.5116    0.0000 C   0  0  0  0  0  0  0  0  0  0  0  0
    9.5065   -7.2653    0.0000 O   0  0  0  0  0  0  0  0  0  0  0  0
    7.4645   -7.8174    0.0000 C   0  0  0  0  0  0  0  0  0  0  0  0
    6.7500   -7.4049    0.0000 C   0  0  0  0  0  0  0  0  0  0  0  0
    6.7500   -6.5799    0.0000 C   0  0  0  0  0  0  0  0  0  0  0  0
    6.0356   -6.1674    0.0000 C   0  0  0  0  0  0  0  0  0  0  0  0
    6.0356   -5.3424    0.0000 C   0  0  0  0  0  0  0  0  0  0  0  0
    6.7500   -4.9299    0.0000 C   0  0  0  0  0  0  0  0  0  0  0  0
    6.5785   -4.1229    0.0000 O   0  0  0  0  0  0  0  0  0  0  0  0
    5.7580   -4.0366    0.0000 C   0  0  0  0  0  0  0  0  0  0  0  0
    5.4225   -4.7903    0.0000 O   0  0  0  0  0  0  0  0  0  0  0  0
    7.4645   -5.3424    0.0000 C   0  0  0  0  0  0  0  0  0  0  0  0
    7.4645   -6.1674    0.0000 C   0  0  0  0  0  0  0  0  0  0  0  0
  1  2  2  0  0  0  0
  2  3  1  0  0  0  0
  3  4  1  0  0  0  0
  4  5  1  0  0  0  0
  5  6  2  0  0  0  0
  2  6  1  0  0  0  0
  6  7  1  0  0  0  0
  7  8  2  0  0  0  0
  8  9  1  0  0  0  0
  9 10  2  0  0  0  0
 10 11  1  0  0  0  0
 11 12  2  0  0  0  0
 12 13  1  0  0  0  0
 13 14  1  0  0  0  0
 14 15  1  0  0  0  0
 11 15  1  0  0  0  0
 12 16  1  0  0  0  0
  8 16  1  0  0  0  0
 16 17  2  0  0  0  0
  5 17  1  0  0  0  0
 17 18  1  0  0  0  0
 18 19  2  0  0  0  0
 19 20  1  0  0  0  0
 20 21  2  0  0  0  0
 21 22  1  0  0  0  0
 22 23  1  0  0  0  0
 23 24  1  0  0  0  0
 20 24  1  0  0  0  0
 21 25  1  0  0  0  0
 25 26  2  0  0  0  0
 18 26  1  0  0  0  0
M  END
>  <cdx:fragmentId>
13354

$$$$
