177048.cdx
  Mrv1902 05222410232D          

 26 27  0  0  0  0            999 V2000
    7.5459   -6.3818    0.0000 C   0  0  0  0  0  0  0  0  0  0  0  0
    8.2604   -6.7943    0.0000 C   0  0  0  0  0  0  0  0  0  0  0  0
    8.2604   -7.6193    0.0000 C   0  0  2  0  0  0  0  0  0  0  0  0
    7.5459   -8.0318    0.0000 C   0  0  0  0  0  0  0  0  0  0  0  0
    6.8314   -7.6193    0.0000 C   0  0  1  0  0  0  0  0  0  0  0  0
    6.8314   -6.7943    0.0000 C   0  0  0  0  0  0  0  0  0  0  0  0
    7.9584   -5.6673    0.0000 C   0  0  0  0  0  0  0  0  0  0  0  0
    7.5459   -8.8568    0.0000 O   0  0  0  0  0  0  0  0  0  0  0  0
    6.8314   -9.2693    0.0000 C   0  0  0  0  0  0  0  0  0  0  0  0
    6.8314  -10.0943    0.0000 C   0  0  0  0  0  0  0  0  0  0  0  0
    6.1170  -10.5068    0.0000 C   0  0  0  0  0  0  0  0  0  0  0  0
    6.1170   -8.8568    0.0000 O   0  0  0  0  0  0  0  0  0  0  0  0
    6.1170  -11.3318    0.0000 C   0  0  0  0  0  0  0  0  0  0  0  0
    5.4025  -11.7443    0.0000 C   0  0  0  0  0  0  0  0  0  0  0  0
    5.4025  -12.5693    0.0000 C   0  0  0  0  0  0  0  0  0  0  0  0
    6.1170  -12.9818    0.0000 C   0  0  0  0  0  0  0  0  0  0  0  0
    6.8314  -12.5693    0.0000 C   0  0  0  0  0  0  0  0  0  0  0  0
    6.8314  -11.7443    0.0000 C   0  0  0  0  0  0  0  0  0  0  0  0
    4.6880  -12.9818    0.0000 O   0  0  0  0  0  0  0  0  0  0  0  0
    4.6880  -13.8068    0.0000 C   0  0  0  0  0  0  0  0  0  0  0  0
    6.1170  -13.8068    0.0000 O   0  0  0  0  0  0  0  0  0  0  0  0
    6.1170   -8.0318    0.0000 O   0  0  0  0  0  0  0  0  0  0  0  0
    8.9748   -8.0318    0.0000 O   0  0  0  0  0  0  0  0  0  0  0  0
    7.1334   -5.6673    0.0000 O   0  0  0  0  0  0  0  0  0  0  0  0
    7.5459   -4.9528    0.0000 O   0  0  0  0  0  0  0  0  0  0  0  0
    8.7834   -5.6673    0.0000 O   0  0  0  0  0  0  0  0  0  0  0  0
  1  2  1  0  0  0  0
  2  3  1  0  0  0  0
  3  4  1  0  0  0  0
  4  5  1  0  0  0  0
  5  6  1  0  0  0  0
  1  6  1  0  0  0  0
  1  7  1  0  0  0  0
  9 10  1  0  0  0  0
 10 11  2  0  0  0  0
  9 12  2  0  0  0  0
 13 14  1  0  0  0  0
 14 15  2  0  0  0  0
 15 16  1  0  0  0  0
 16 17  2  0  0  0  0
 17 18  1  0  0  0  0
 13 18  2  0  0  0  0
 19 20  1  0  0  0  0
 15 19  1  0  0  0  0
 16 21  1  0  0  0  0
 11 13  1  0  0  0  0
  8  9  1  0  0  0  0
  4  8  1  0  0  0  0
  5 22  1  6  0  0  0
  3 23  1  1  0  0  0
  1 24  1  0  0  0  0
  7 25  2  0  0  0  0
  7 26  1  0  0  0  0
M  END
>  <cdx:fragmentId>
42150

$$$$
