177014.cdx
  Mrv1902 05222410272D          

 28 33  0  0  0  0            999 V2000
    5.3967   -7.6402    0.0000 C   0  0  0  0  0  0  0  0  0  0  0  0
    4.6698   -8.0326    0.0000 C   0  0  0  0  0  0  0  0  0  0  0  0
    4.6655   -8.8872    0.0000 C   0  0  0  0  0  0  0  0  0  0  0  0
    5.3783   -9.2915    0.0000 C   0  0  0  0  0  0  0  0  0  0  0  0
    6.0886   -8.9030    0.0000 C   0  0  0  0  0  0  0  0  0  0  0  0
    6.0978   -8.0774    0.0000 C   0  0  0  0  0  0  0  0  0  0  0  0
    6.7982   -9.3238    0.0000 C   0  0  0  0  0  0  0  0  0  0  0  0
    7.5170   -8.9189    0.0000 N   0  0  0  0  0  0  0  0  0  0  0  0
    7.5262   -8.0933    0.0000 C   0  0  1  0  0  0  0  0  0  0  0  0
    6.8166   -7.6725    0.0000 C   0  0  2  0  0  0  0  0  0  0  0  0
    8.2450   -7.6884    0.0000 C   0  0  0  0  0  0  0  0  0  0  0  0
    8.2542   -6.8628    0.0000 C   0  0  0  0  0  0  0  0  0  0  0  0
    7.5445   -6.4420    0.0000 C   0  0  0  0  0  0  0  0  0  0  0  0
    6.8258   -6.8468    0.0000 C   0  0  2  0  0  0  0  0  0  0  0  0
    8.9545   -8.1092    0.0000 C   0  0  0  0  0  0  0  0  0  0  0  0
    9.6733   -7.7043    0.0000 C   0  0  0  0  0  0  0  0  0  0  0  0
    9.6825   -6.8787    0.0000 C   0  0  0  0  0  0  0  0  0  0  0  0
    8.9729   -6.4579    0.0000 C   0  0  0  0  0  0  0  0  0  0  0  0
    4.0337   -9.4072    0.0000 O   0  0  0  0  0  0  0  0  0  0  0  0
    4.3306  -10.1799    0.0000 C   0  0  0  0  0  0  0  0  0  0  0  0
    5.1583  -10.1354    0.0000 O   0  0  0  0  0  0  0  0  0  0  0  0
   10.4548   -7.9690    0.0000 O   0  0  0  0  0  0  0  0  0  0  0  0
   10.9479   -7.3085    0.0000 C   0  0  0  0  0  0  0  0  0  0  0  0
   10.4696   -6.6355    0.0000 O   0  0  0  0  0  0  0  0  0  0  0  0
    6.1162   -6.4261    0.0000 O   0  0  0  0  0  0  0  0  0  0  0  0
    6.1070   -7.2518    0.0000 C   0  0  0  0  0  0  0  0  0  0  0  0
    8.2358   -8.5141    0.0000 H   0  0  0  0  0  0  0  0  0  0  0  0
    8.2266   -9.3397    0.0000 C   0  0  0  0  0  0  0  0  0  0  0  0
  1  2  2  0  0  0  0
  2  3  1  0  0  0  0
  3  4  2  0  0  0  0
  4  5  1  0  0  0  0
  5  6  2  0  0  0  0
  1  6  1  0  0  0  0
  5  7  1  0  0  0  0
  7  8  1  0  0  0  0
  8  9  1  0  0  0  0
  9 10  1  0  0  0  0
  6 10  1  0  0  0  0
  9 11  1  0  0  0  0
 11 12  1  0  0  0  0
 12 13  1  0  0  0  0
 13 14  1  0  0  0  0
 10 14  1  0  0  0  0
 11 15  2  0  0  0  0
 15 16  1  0  0  0  0
 16 17  2  0  0  0  0
 17 18  1  0  0  0  0
 12 18  2  0  0  0  0
  3 19  1  0  0  0  0
 19 20  1  0  0  0  0
 20 21  1  0  0  0  0
  4 21  1  0  0  0  0
 16 22  1  0  0  0  0
 22 23  1  0  0  0  0
 23 24  1  0  0  0  0
 17 24  1  0  0  0  0
 14 25  1  1  0  0  0
 10 26  1  6  0  0  0
  9 27  1  6  0  0  0
  8 28  1  0  0  0  0
M  END
>  <cdx:fragmentId>
13205

$$$$
