177032.cdx
  Mrv1902 05222410202D          

 21 23  0  0  0  0            999 V2000
    8.3922   -6.0413    0.0000 C   0  0  2  0  0  0  0  0  0  0  0  0
    8.3922   -6.8663    0.0000 C   0  0  0  0  0  0  0  0  0  0  0  0
    7.6777   -7.2788    0.0000 C   0  0  0  0  0  0  0  0  0  0  0  0
    6.9632   -6.8663    0.0000 C   0  0  0  0  0  0  0  0  0  0  0  0
    6.2488   -7.2788    0.0000 C   0  0  0  0  0  0  0  0  0  0  0  0
    5.5343   -6.8663    0.0000 C   0  0  0  0  0  0  0  0  0  0  0  0
    5.5343   -6.0413    0.0000 C   0  0  0  0  0  0  0  0  0  0  0  0
    6.2488   -5.6288    0.0000 C   0  0  0  0  0  0  0  0  0  0  0  0
    6.9632   -6.0413    0.0000 C   0  0  0  0  0  0  0  0  0  0  0  0
    7.6777   -5.6288    0.0000 O   0  0  0  0  0  0  0  0  0  0  0  0
    7.6777   -8.1038    0.0000 O   0  0  0  0  0  0  0  0  0  0  0  0
    9.1066   -5.6288    0.0000 C   0  0  0  0  0  0  0  0  0  0  0  0
    9.1066   -4.8038    0.0000 C   0  0  0  0  0  0  0  0  0  0  0  0
    9.8211   -4.3913    0.0000 C   0  0  0  0  0  0  0  0  0  0  0  0
   10.5356   -4.8038    0.0000 C   0  0  0  0  0  0  0  0  0  0  0  0
   10.5356   -5.6288    0.0000 C   0  0  0  0  0  0  0  0  0  0  0  0
    9.8211   -6.0413    0.0000 C   0  0  0  0  0  0  0  0  0  0  0  0
    4.8198   -7.2788    0.0000 O   0  0  0  0  0  0  0  0  0  0  0  0
    4.1054   -6.8663    0.0000 C   0  0  0  0  0  0  0  0  0  0  0  0
    4.8198   -5.6288    0.0000 O   0  0  0  0  0  0  0  0  0  0  0  0
    6.2488   -8.1038    0.0000 O   0  0  0  0  0  0  0  0  0  0  0  0
  1  2  1  0  0  0  0
  2  3  1  0  0  0  0
  3  4  1  0  0  0  0
  4  5  1  0  0  0  0
  5  6  2  0  0  0  0
  6  7  1  0  0  0  0
  7  8  2  0  0  0  0
  8  9  1  0  0  0  0
  4  9  2  0  0  0  0
  9 10  1  0  0  0  0
  1 10  1  0  0  0  0
  3 11  2  0  0  0  0
 12 13  1  0  0  0  0
 13 14  2  0  0  0  0
 14 15  1  0  0  0  0
 15 16  2  0  0  0  0
 16 17  1  0  0  0  0
 12 17  2  0  0  0  0
  1 12  1  6  0  0  0
 18 19  1  0  0  0  0
  6 18  1  0  0  0  0
  7 20  1  0  0  0  0
  5 21  1  0  0  0  0
M  END
>  <cdx:fragmentId>
34892

$$$$
