17739.cdx
  Mrv1902 05222410222D          

 12 12  0  0  0  0            999 V2000
    3.8123   -1.8021    0.0000 C   0  0  0  0  0  0  0  0  0  0  0  0
    3.8123   -2.6271    0.0000 C   0  0  0  0  0  0  0  0  0  0  0  0
    4.5268   -3.0396    0.0000 C   0  0  0  0  0  0  0  0  0  0  0  0
    5.2412   -2.6271    0.0000 C   0  0  0  0  0  0  0  0  0  0  0  0
    5.2412   -1.8021    0.0000 C   0  0  0  0  0  0  0  0  0  0  0  0
    4.5268   -1.3896    0.0000 C   0  0  0  0  0  0  0  0  0  0  0  0
    3.0978   -1.3896    0.0000 O   0  0  0  0  0  0  0  0  0  0  0  0
    5.9557   -3.0396    0.0000 C   0  0  0  0  0  0  0  0  0  0  0  0
    6.6702   -2.6271    0.0000 C   0  0  0  0  0  0  0  0  0  0  0  0
    7.3846   -3.0396    0.0000 C   0  0  0  0  0  0  0  0  0  0  0  0
    3.0978   -3.0396    0.0000 O   0  0  0  0  0  0  0  0  0  0  0  0
    2.3834   -2.6271    0.0000 C   0  0  0  0  0  0  0  0  0  0  0  0
  1  2  1  0  0  0  0
  2  3  2  0  0  0  0
  3  4  1  0  0  0  0
  4  5  2  0  0  0  0
  5  6  1  0  0  0  0
  1  6  2  0  0  0  0
  1  7  1  0  0  0  0
  8  9  1  0  0  0  0
  9 10  1  0  0  0  0
  4  8  1  0  0  0  0
 11 12  1  0  0  0  0
  2 11  1  0  0  0  0
M  END
>  <cdx:groupId>
38

>  <cdx:fragmentId>
5

$$$$
