1773.cdx
  Mrv1902 05222410242D          

 13 12  0  0  0  0            999 V2000
   11.4825   -7.7966    0.0000 C   0  0  0  0  0  0  0  0  0  0  0  0
   10.7680   -8.2091    0.0000 C   0  0  0  0  0  0  0  0  0  0  0  0
   10.0535   -7.7966    0.0000 C   0  0  0  0  0  0  0  0  0  0  0  0
    9.3391   -8.2091    0.0000 C   0  0  0  0  0  0  0  0  0  0  0  0
    8.6246   -8.6216    0.0000 C   0  0  0  0  0  0  0  0  0  0  0  0
    7.9101   -9.0341    0.0000 C   0  0  0  0  0  0  0  0  0  0  0  0
    7.1956   -8.6216    0.0000 C   0  0  0  0  0  0  0  0  0  0  0  0
    6.4812   -9.0341    0.0000 C   0  0  0  0  0  0  0  0  0  0  0  0
    5.7667   -8.6216    0.0000 C   0  0  0  0  0  0  0  0  0  0  0  0
    5.0522   -9.0341    0.0000 C   0  0  0  0  0  0  0  0  0  0  0  0
    4.3378   -8.6216    0.0000 C   0  0  0  0  0  0  0  0  0  0  0  0
    3.6233   -9.0341    0.0000 C   0  0  0  0  0  0  0  0  0  0  0  0
    2.9088   -8.6216    0.0000 C   0  0  0  0  0  0  0  0  0  0  0  0
  1  2  1  0  0  0  0
  2  3  1  0  0  0  0
  3  4  1  0  0  0  0
  4  5  3  0  0  0  0
  5  6  1  0  0  0  0
  6  7  2  0  0  0  0
  7  8  1  0  0  0  0
  8  9  1  0  0  0  0
  9 10  1  0  0  0  0
 10 11  1  0  0  0  0
 11 12  1  0  0  0  0
 12 13  1  0  0  0  0
M  END
>  <cdx:fragmentId>
5

$$$$
