177316.cdx
  Mrv1902 05222410232D          

 61 66  0  0  0  0            999 V2000
   17.2619  -13.1221    0.0000 N   0  0  0  0  0  0  0  0  0  0  0  0
   16.5474  -12.7096    0.0000 C   0  0  0  0  0  0  0  0  0  0  0  0
   16.5474  -11.8846    0.0000 C   0  0  1  0  0  0  0  0  0  0  0  0
   15.8330  -11.4721    0.0000 N   0  0  0  0  0  0  0  0  0  0  0  0
   15.1185  -11.8846    0.0000 C   0  0  0  0  0  0  0  0  0  0  0  0
   14.4040  -11.4721    0.0000 C   0  0  1  0  0  0  0  0  0  0  0  0
   13.6896  -11.8846    0.0000 N   0  0  0  0  0  0  0  0  0  0  0  0
   13.6896  -12.7096    0.0000 C   0  0  0  0  0  0  0  0  0  0  0  0
   12.9751  -13.1221    0.0000 C   0  0  2  0  0  0  0  0  0  0  0  0
   12.1905  -12.8672    0.0000 C   0  0  0  0  0  0  0  0  0  0  0  0
   11.7055  -13.5346    0.0000 C   0  0  0  0  0  0  0  0  0  0  0  0
   12.1905  -14.2021    0.0000 C   0  0  0  0  0  0  0  0  0  0  0  0
   12.9751  -13.9471    0.0000 N   0  0  0  0  0  0  0  0  0  0  0  0
   13.6896  -14.3596    0.0000 C   0  0  0  0  0  0  0  0  0  0  0  0
   13.6896  -15.1846    0.0000 C   0  0  1  0  0  0  0  0  0  0  0  0
   14.4040  -15.5971    0.0000 N   0  0  0  0  0  0  0  0  0  0  0  0
   14.4103  -16.4112    0.0000 C   0  0  0  0  0  0  0  0  0  0  0  0
   15.1248  -16.8237    0.0000 C   0  0  1  0  0  0  0  0  0  0  0  0
   15.8393  -16.4112    0.0000 N   0  0  0  0  0  0  0  0  0  0  0  0
   16.6541  -16.5402    0.0000 C   0  0  0  0  0  0  0  0  0  0  0  0
   17.0666  -15.8258    0.0000 C   0  0  0  0  0  0  0  0  0  0  0  0
   16.5474  -15.1846    0.0000 N   0  0  0  0  0  0  0  0  0  0  0  0
   16.5474  -14.3596    0.0000 C   0  0  0  0  0  0  0  0  0  0  0  0
   17.2619  -13.9471    0.0000 C   0  0  2  0  0  0  0  0  0  0  0  0
   18.0465  -14.2021    0.0000 C   0  0  0  0  0  0  0  0  0  0  0  0
   18.5315  -13.5346    0.0000 C   0  0  0  0  0  0  0  0  0  0  0  0
   18.0465  -12.8672    0.0000 C   0  0  0  0  0  0  0  0  0  0  0  0
   15.8330  -13.1221    0.0000 O   0  0  0  0  0  0  0  0  0  0  0  0
   15.1185  -12.7096    0.0000 O   0  0  0  0  0  0  0  0  0  0  0  0
   14.4040  -13.1221    0.0000 O   0  0  0  0  0  0  0  0  0  0  0  0
   14.4040  -13.9471    0.0000 O   0  0  0  0  0  0  0  0  0  0  0  0
   13.6959  -16.8237    0.0000 O   0  0  0  0  0  0  0  0  0  0  0  0
   17.0666  -17.2547    0.0000 O   0  0  0  0  0  0  0  0  0  0  0  0
   15.8330  -13.9471    0.0000 O   0  0  0  0  0  0  0  0  0  0  0  0
   12.9751  -16.4221    0.0000 C   0  0  0  0  0  0  0  0  0  0  0  0
   12.9751  -15.5971    0.0000 C   0  0  0  0  0  0  0  0  0  0  0  0
   12.2606  -15.1846    0.0000 C   0  0  0  0  0  0  0  0  0  0  0  0
   14.4040  -10.6471    0.0000 C   0  0  0  0  0  0  0  0  0  0  0  0
   13.6896  -10.2346    0.0000 C   0  0  0  0  0  0  0  0  0  0  0  0
   12.9751  -10.6471    0.0000 C   0  0  0  0  0  0  0  0  0  0  0  0
   13.6896   -9.4096    0.0000 C   0  0  0  0  0  0  0  0  0  0  0  0
   17.2619  -11.4721    0.0000 C   0  0  0  0  0  0  0  0  0  0  0  0
   16.8494   -9.3776    0.0000 N   0  0  0  0  0  0  0  0  0  0  0  0
   16.5945  -10.1622    0.0000 C   0  0  0  0  0  0  0  0  0  0  0  0
   17.2619  -10.6471    0.0000 C   0  0  0  0  0  0  0  0  0  0  0  0
   17.9293  -10.1622    0.0000 C   0  0  0  0  0  0  0  0  0  0  0  0
   18.7363  -10.3337    0.0000 C   0  0  0  0  0  0  0  0  0  0  0  0
   19.2884   -9.7206    0.0000 C   0  0  0  0  0  0  0  0  0  0  0  0
   19.0334   -8.9360    0.0000 C   0  0  0  0  0  0  0  0  0  0  0  0
   18.2264   -8.7645    0.0000 C   0  0  0  0  0  0  0  0  0  0  0  0
   17.6744   -9.3776    0.0000 C   0  0  0  0  0  0  0  0  0  0  0  0
   15.1248  -17.6487    0.0000 C   0  0  0  0  0  0  0  0  0  0  0  0
   14.4103  -18.0612    0.0000 C   0  0  0  0  0  0  0  0  0  0  0  0
   14.4103  -18.8862    0.0000 C   0  0  0  0  0  0  0  0  0  0  0  0
   13.6959  -19.2987    0.0000 C   0  0  0  0  0  0  0  0  0  0  0  0
   12.9814  -18.8862    0.0000 C   0  0  0  0  0  0  0  0  0  0  0  0
   12.9814  -18.0612    0.0000 C   0  0  0  0  0  0  0  0  0  0  0  0
   13.6959  -17.6487    0.0000 C   0  0  0  0  0  0  0  0  0  0  0  0
   12.2669  -19.2987    0.0000 O   0  0  0  0  0  0  0  0  0  0  0  0
   12.8888  -12.3016    0.0000 H   0  0  0  0  0  0  0  0  0  0  0  0
   17.3481  -14.7676    0.0000 H   0  0  0  0  0  0  0  0  0  0  0  0
  1  2  1  0  0  0  0
  2  3  1  0  0  0  0
  3  4  1  0  0  0  0
  4  5  1  0  0  0  0
  5  6  1  0  0  0  0
  6  7  1  0  0  0  0
  7  8  1  0  0  0  0
  8  9  1  0  0  0  0
  9 10  1  0  0  0  0
 10 11  1  0  0  0  0
 11 12  1  0  0  0  0
 12 13  1  0  0  0  0
 13 14  1  0  0  0  0
 14 15  1  0  0  0  0
 15 16  1  0  0  0  0
 16 17  1  0  0  0  0
 17 18  1  0  0  0  0
 18 19  1  0  0  0  0
 19 20  1  0  0  0  0
 20 21  1  0  0  0  0
 21 22  1  0  0  0  0
 22 23  1  0  0  0  0
 23 24  1  0  0  0  0
 24 25  1  0  0  0  0
 25 26  1  0  0  0  0
 26 27  1  0  0  0  0
  1 27  1  0  0  0  0
  1 24  1  0  0  0  0
  9 13  1  0  0  0  0
  2 28  2  0  0  0  0
  5 29  2  0  0  0  0
  8 30  2  0  0  0  0
 14 31  2  0  0  0  0
 17 32  2  0  0  0  0
 20 33  2  0  0  0  0
 23 34  2  0  0  0  0
 35 36  1  0  0  0  0
 36 37  1  0  0  0  0
 15 36  1  1  0  0  0
 38 39  1  0  0  0  0
 39 40  1  0  0  0  0
 39 41  1  0  0  0  0
  6 38  1  1  0  0  0
 43 44  1  0  0  0  0
 44 45  2  0  0  0  0
 45 46  1  0  0  0  0
 46 47  1  0  0  0  0
 47 48  2  0  0  0  0
 48 49  1  0  0  0  0
 49 50  2  0  0  0  0
 50 51  1  0  0  0  0
 43 51  1  0  0  0  0
 46 51  2  0  0  0  0
 42 45  1  0  0  0  0
  3 42  1  1  0  0  0
 53 54  1  0  0  0  0
 54 55  2  0  0  0  0
 55 56  1  0  0  0  0
 56 57  2  0  0  0  0
 57 58  1  0  0  0  0
 53 58  2  0  0  0  0
 56 59  1  0  0  0  0
 52 53  1  0  0  0  0
 18 52  1  1  0  0  0
  9 60  1  6  0  0  0
 24 61  1  6  0  0  0
M  END
>  <cdx:groupId>
13659

>  <cdx:fragmentId>
13474

$$$$
