1775.cdx
  Mrv1902 05222410252D          

 16 15  0  0  0  0            999 V2000
    1.8109   -6.9094    0.0000 C   0  0  0  0  0  0  0  0  0  0  0  0
    2.5253   -6.4969    0.0000 C   0  0  0  0  0  0  0  0  0  0  0  0
    3.2398   -6.9094    0.0000 C   0  0  0  0  0  0  0  0  0  0  0  0
    3.9543   -6.4969    0.0000 C   0  0  0  0  0  0  0  0  0  0  0  0
    4.6688   -6.0844    0.0000 C   0  0  0  0  0  0  0  0  0  0  0  0
    5.3832   -5.6719    0.0000 C   0  0  0  0  0  0  0  0  0  0  0  0
    6.0977   -5.2594    0.0000 C   0  0  0  0  0  0  0  0  0  0  0  0
    6.8122   -4.8469    0.0000 C   0  0  0  0  0  0  0  0  0  0  0  0
    7.5266   -5.2594    0.0000 C   0  0  0  0  0  0  0  0  0  0  0  0
    8.2411   -4.8469    0.0000 C   0  0  0  0  0  0  0  0  0  0  0  0
    8.9556   -5.2594    0.0000 C   0  0  0  0  0  0  0  0  0  0  0  0
    9.6701   -4.8469    0.0000 C   0  0  0  0  0  0  0  0  0  0  0  0
   10.3845   -5.2594    0.0000 C   0  0  0  0  0  0  0  0  0  0  0  0
    9.6701   -4.0219    0.0000 O   0  0  0  0  0  0  0  0  0  0  0  0
   10.3845   -6.0844    0.0000 C   0  0  0  0  0  0  0  0  0  0  0  0
   11.0990   -6.4969    0.0000 O   0  0  0  0  0  0  0  0  0  0  0  0
  1  2  1  0  0  0  0
  2  3  2  0  0  0  0
  3  4  1  0  0  0  0
  4  5  3  0  0  0  0
  5  6  1  0  0  0  0
  6  7  3  0  0  0  0
  7  8  1  0  0  0  0
  8  9  2  0  0  0  0
  9 10  1  0  0  0  0
 10 11  1  0  0  0  0
 11 12  1  0  0  0  0
 12 13  1  0  0  0  0
 12 14  1  0  0  0  0
 13 15  1  0  0  0  0
 15 16  1  0  0  0  0
M  END
>  <cdx:fragmentId>
3

$$$$
