177556.cdx
  Mrv1902 05222410202D          

 39 42  0  0  0  0            999 V2000
    4.8776   -8.9864    0.0000 O   0  0  0  0  0  0  0  0  0  0  0  0
    4.1631   -8.5739    0.0000 C   0  0  2  0  0  0  0  0  0  0  0  0
    4.1631   -7.7489    0.0000 C   0  0  2  0  0  0  0  0  0  0  0  0
    4.8776   -7.3364    0.0000 O   0  0  0  0  0  0  0  0  0  0  0  0
    5.5921   -7.7489    0.0000 C   0  0  0  0  0  0  0  0  0  0  0  0
    5.5921   -8.5739    0.0000 C   0  0  0  0  0  0  0  0  0  0  0  0
    6.3065   -7.3364    0.0000 C   0  0  0  0  0  0  0  0  0  0  0  0
    7.0210   -7.7489    0.0000 C   0  0  0  0  0  0  0  0  0  0  0  0
    7.0210   -8.5739    0.0000 C   0  0  0  0  0  0  0  0  0  0  0  0
    6.3065   -8.9864    0.0000 C   0  0  0  0  0  0  0  0  0  0  0  0
    3.4487   -7.3364    0.0000 C   0  0  0  0  0  0  0  0  0  0  0  0
    3.4487   -8.9864    0.0000 C   0  0  0  0  0  0  0  0  0  0  0  0
    7.7355   -7.3364    0.0000 C   0  0  0  0  0  0  0  0  0  0  0  0
    8.4500   -7.7489    0.0000 C   0  0  0  0  0  0  0  0  0  0  0  0
    9.1644   -7.3364    0.0000 C   0  0  0  0  0  0  0  0  0  0  0  0
    9.1644   -6.5114    0.0000 O   0  0  0  0  0  0  0  0  0  0  0  0
    9.8789   -8.5739    0.0000 C   0  0  2  0  0  0  0  0  0  0  0  0
    9.1644   -8.9864    0.0000 C   0  0  0  0  0  0  0  0  0  0  0  0
    8.4500   -8.5739    0.0000 O   0  0  0  0  0  0  0  0  0  0  0  0
    9.1644   -9.8114    0.0000 O   0  0  0  0  0  0  0  0  0  0  0  0
   13.4513   -7.3364    0.0000 O   0  0  0  0  0  0  0  0  0  0  0  0
   12.0223   -8.9864    0.0000 C   0  0  0  0  0  0  0  0  0  0  0  0
   12.7368   -8.5739    0.0000 C   0  0  0  0  0  0  0  0  0  0  0  0
   12.7368   -7.7489    0.0000 C   0  0  0  0  0  0  0  0  0  0  0  0
   12.0223   -7.3364    0.0000 C   0  0  0  0  0  0  0  0  0  0  0  0
   11.3078   -7.7489    0.0000 C   0  0  0  0  0  0  0  0  0  0  0  0
   11.3078   -8.5739    0.0000 C   0  0  0  0  0  0  0  0  0  0  0  0
   10.5934   -8.9864    0.0000 C   0  0  0  0  0  0  0  0  0  0  0  0
    9.8789   -7.7489    0.0000 O   0  0  0  0  0  0  0  0  0  0  0  0
   13.4513   -8.9864    0.0000 O   0  0  0  0  0  0  0  0  0  0  0  0
    2.7342   -8.5739    0.0000 O   0  0  0  0  0  0  0  0  0  0  0  0
    3.4487   -9.8114    0.0000 O   0  0  0  0  0  0  0  0  0  0  0  0
    3.4487   -6.5114    0.0000 C   0  0  0  0  0  0  0  0  0  0  0  0
    2.7342   -6.0989    0.0000 C   0  0  0  0  0  0  0  0  0  0  0  0
    2.0197   -6.5114    0.0000 C   0  0  0  0  0  0  0  0  0  0  0  0
    2.0197   -7.3364    0.0000 C   0  0  0  0  0  0  0  0  0  0  0  0
    2.7342   -7.7489    0.0000 C   0  0  0  0  0  0  0  0  0  0  0  0
    1.3052   -6.0989    0.0000 O   0  0  0  0  0  0  0  0  0  0  0  0
    1.3052   -7.7489    0.0000 O   0  0  0  0  0  0  0  0  0  0  0  0
 28 27  1  0  0  0  0
 24 21  1  0  0  0  0
 27 22  2  0  0  0  0
 23 22  1  0  0  0  0
 24 23  2  0  0  0  0
 25 24  1  0  0  0  0
 26 25  2  0  0  0  0
 27 26  1  0  0  0  0
 29 17  1  0  0  0  0
  1  2  1  0  0  0  0
  2  3  1  0  0  0  0
  3  4  1  0  0  0  0
  4  5  1  0  0  0  0
  5  6  1  0  0  0  0
  1  6  1  0  0  0  0
  7  8  1  0  0  0  0
  8  9  2  0  0  0  0
  9 10  1  0  0  0  0
 10  6  2  0  0  0  0
  7  5  2  0  0  0  0
  3 11  1  1  0  0  0
  2 12  1  1  0  0  0
 13 14  2  0  0  0  0
 14 15  1  0  0  0  0
 15 16  2  0  0  0  0
 17 28  1  0  0  0  0
 18 19  2  0  0  0  0
 18 20  1  0  0  0  0
 17 18  1  1  0  0  0
 15 29  1  0  0  0  0
  8 13  1  0  0  0  0
 23 30  1  0  0  0  0
 12 31  1  0  0  0  0
 12 32  2  0  0  0  0
 11 33  2  0  0  0  0
 33 34  1  0  0  0  0
 34 35  2  0  0  0  0
 35 36  1  0  0  0  0
 36 37  2  0  0  0  0
 37 11  1  0  0  0  0
 35 38  1  0  0  0  0
 36 39  1  0  0  0  0
M  END
>  <cdx:fragmentId>
146223

$$$$
