1777.cdx
  Mrv1902 05222410252D          

 23 23  0  0  0  0            999 V2000
    4.8639   -9.8420    0.0000 O   0  0  0  0  0  0  0  0  0  0  0  0
    5.4473   -9.2587    0.0000 C   0  0  2  0  0  0  0  0  0  0  0  0
    6.0306   -9.8420    0.0000 C   0  0  0  0  0  0  0  0  0  0  0  0
    6.1617   -8.8462    0.0000 C   0  0  0  0  0  0  0  0  0  0  0  0
    6.1617   -8.0212    0.0000 C   0  0  0  0  0  0  0  0  0  0  0  0
    5.4473   -7.6087    0.0000 C   0  0  0  0  0  0  0  0  0  0  0  0
    4.7328   -8.0212    0.0000 C   0  0  0  0  0  0  0  0  0  0  0  0
    4.7328   -8.8462    0.0000 C   0  0  0  0  0  0  0  0  0  0  0  0
    5.4473   -6.7837    0.0000 C   0  0  0  0  0  0  0  0  0  0  0  0
    4.7328   -6.3712    0.0000 C   0  0  0  0  0  0  0  0  0  0  0  0
    6.1617   -6.3712    0.0000 C   0  0  0  0  0  0  0  0  0  0  0  0
    4.0183   -6.7837    0.0000 O   0  0  0  0  0  0  0  0  0  0  0  0
    4.7328   -5.5462    0.0000 O   0  0  0  0  0  0  0  0  0  0  0  0
    4.1513  -10.2577    0.0000 C   0  0  2  0  0  0  0  0  0  0  0  0
    3.4350   -9.8483    0.0000 O   0  0  0  0  0  0  0  0  0  0  0  0
    2.7223  -10.2640    0.0000 C   0  0  1  0  0  0  0  0  0  0  0  0
    2.7260  -11.0890    0.0000 C   0  0  2  0  0  0  0  0  0  0  0  0
    3.4422  -11.4983    0.0000 C   0  0  1  0  0  0  0  0  0  0  0  0
    4.1549  -11.0827    0.0000 C   0  0  1  0  0  0  0  0  0  0  0  0
    2.0060   -9.8546    0.0000 C   0  0  0  0  0  0  0  0  0  0  0  0
    3.4459  -12.3233    0.0000 O   0  0  0  0  0  0  0  0  0  0  0  0
    4.8712  -11.4920    0.0000 O   0  0  0  0  0  0  0  0  0  0  0  0
    2.0133  -11.5046    0.0000 O   0  0  0  0  0  0  0  0  0  0  0  0
  2  1  1  1  0  0  0
  2  3  1  6  0  0  0
  2  4  1  0  0  0  0
  4  5  1  0  0  0  0
  5  6  1  0  0  0  0
  7  8  2  0  0  0  0
  8  2  1  0  0  0  0
  6  9  2  0  0  0  0
  9 10  1  0  0  0  0
  9 11  1  0  0  0  0
 10 12  1  0  0  0  0
 10 13  2  0  0  0  0
 14  1  1  1  0  0  0
 14 15  1  0  0  0  0
 15 16  1  0  0  0  0
 16 17  1  0  0  0  0
 17 18  1  0  0  0  0
 18 19  1  0  0  0  0
 19 14  1  0  0  0  0
 16 20  1  1  0  0  0
 18 21  1  1  0  0  0
 19 22  1  6  0  0  0
 17 23  1  6  0  0  0
M  END
>  <cdx:fragmentId>
424

$$$$
