177773.cdx
  Mrv1902 05222410272D          

 15 16  0  0  0  0            999 V2000
    8.4773   -8.6263    0.0000 C   0  0  0  0  0  0  0  0  0  0  0  0
    8.9622   -7.9588    0.0000 C   0  0  0  0  0  0  0  0  0  0  0  0
    8.4773   -7.2914    0.0000 C   0  0  0  0  0  0  0  0  0  0  0  0
    7.6927   -7.5463    0.0000 C   0  0  0  0  0  0  0  0  0  0  0  0
    7.0477   -7.0320    0.0000 C   0  0  0  0  0  0  0  0  0  0  0  0
    6.2434   -7.2155    0.0000 C   0  0  0  0  0  0  0  0  0  0  0  0
    5.8854   -7.9588    0.0000 C   0  0  0  0  0  0  0  0  0  0  0  0
    6.2434   -8.7021    0.0000 C   0  0  0  0  0  0  0  0  0  0  0  0
    7.0477   -8.8857    0.0000 C   0  0  0  0  0  0  0  0  0  0  0  0
    7.6927   -8.3713    0.0000 C   0  0  0  0  0  0  0  0  0  0  0  0
    8.1802   -5.8937    0.0000 C   0  0  0  0  0  0  0  0  0  0  0  0
    8.7323   -6.5068    0.0000 C   0  0  0  0  0  0  0  0  0  0  0  0
    9.5392   -6.3352    0.0000 C   0  0  0  0  0  0  0  0  0  0  0  0
    7.8400   -9.1831    0.0000 C   0  0  0  0  0  0  0  0  0  0  0  0
    5.0604   -7.9588    0.0000 C   0  0  0  0  0  0  0  0  0  0  0  0
  1  2  1  0  0  0  0
  2  3  1  0  0  0  0
  3  4  2  0  0  0  0
  4  5  1  0  0  0  0
  5  6  1  0  0  0  0
  6  7  1  0  0  0  0
  7  8  2  0  0  0  0
  8  9  1  0  0  0  0
  9 10  1  0  0  0  0
  1 10  1  0  0  0  0
  4 10  1  0  0  0  0
 11 12  1  0  0  0  0
 12 13  1  0  0  0  0
  3 12  1  0  0  0  0
 10 14  1  0  0  0  0
  7 15  1  0  0  0  0
M  END
>  <cdx:groupId>
13873

>  <cdx:fragmentId>
13830

$$$$
