177761.cdx
  Mrv1902 05222410282D          

 25 28  0  0  0  0            999 V2000
    7.3146   -8.3516    0.0000 C   0  0  2  0  0  0  0  0  0  0  0  0
    7.8411   -7.7165    0.0000 C   0  0  0  0  0  0  0  0  0  0  0  0
    8.6078   -8.0209    0.0000 C   0  0  0  0  0  0  0  0  0  0  0  0
    8.5552   -8.8443    0.0000 N   0  0  0  0  0  0  0  0  0  0  0  0
    9.1938   -9.3666    0.0000 C   0  0  0  0  0  0  0  0  0  0  0  0
    9.1870  -10.1916    0.0000 C   0  0  0  0  0  0  0  0  0  0  0  0
    8.5400  -10.7034    0.0000 C   0  0  0  0  0  0  0  0  0  0  0  0
    7.7356  -10.5200    0.0000 C   0  0  0  0  0  0  0  0  0  0  0  0
    7.3730   -9.7794    0.0000 C   0  0  2  0  0  0  0  0  0  0  0  0
    6.5487   -9.8131    0.0000 C   0  0  2  0  0  0  0  0  0  0  0  0
    6.1073   -9.1161    0.0000 C   0  0  2  0  0  0  0  0  0  0  0  0
    5.2940   -8.9777    0.0000 O   0  0  0  0  0  0  0  0  0  0  0  0
    5.1743   -8.1614    0.0000 C   0  0  0  0  0  0  0  0  0  0  0  0
    5.9136   -7.7953    0.0000 C   0  0  2  0  0  0  0  0  0  0  0  0
    6.4903   -8.3853    0.0000 C   0  0  2  0  0  0  0  0  0  0  0  0
    7.7559   -9.0486    0.0000 C   0  0  2  0  0  0  0  0  0  0  0  0
    4.4436   -7.7785    0.0000 O   0  0  0  0  0  0  0  0  0  0  0  0
    6.0520   -6.9820    0.0000 C   0  0  0  0  0  0  0  0  0  0  0  0
    6.1657  -10.5438    0.0000 C   0  0  0  0  0  0  0  0  0  0  0  0
    5.3422  -10.5938    0.0000 C   0  0  0  0  0  0  0  0  0  0  0  0
    7.1010   -7.5547    0.0000 H   0  0  0  0  0  0  0  0  0  0  0  0
    6.9900  -10.5101    0.0000 H   0  0  0  0  0  0  0  0  0  0  0  0
    5.6501   -9.8028    0.0000 H   0  0  0  0  0  0  0  0  0  0  0  0
    6.7038   -7.5885    0.0000 H   0  0  0  0  0  0  0  0  0  0  0  0
    8.1389   -8.3179    0.0000 H   0  0  0  0  0  0  0  0  0  0  0  0
  1  2  1  0  0  0  0
  2  3  1  0  0  0  0
  3  4  1  0  0  0  0
  4  5  1  0  0  0  0
  5  6  1  0  0  0  0
  6  7  1  0  0  0  0
  7  8  1  0  0  0  0
  8  9  1  0  0  0  0
  9 10  1  0  0  0  0
 10 11  1  0  0  0  0
 11 12  1  0  0  0  0
 12 13  1  0  0  0  0
 13 14  1  0  0  0  0
 14 15  1  0  0  0  0
  1 15  1  0  0  0  0
  1 16  1  0  0  0  0
 16  9  1  0  0  0  0
 11 15  1  0  0  0  0
  4 16  1  0  0  0  0
 13 17  2  0  0  0  0
 14 18  1  1  0  0  0
 19 20  1  0  0  0  0
 10 19  1  1  0  0  0
  1 21  1  6  0  0  0
  9 22  1  1  0  0  0
 11 23  1  1  0  0  0
 15 24  1  1  0  0  0
 16 25  1  1  0  0  0
M  END
>  <cdx:fragmentId>
13746

$$$$
