177744.cdx
  Mrv1902 05222410182D          

 25 29  0  0  0  0            999 V2000
    9.2205   -8.0614    0.0000 N   0  0  0  0  0  0  0  0  0  0  0  0
    9.9348   -7.6487    0.0000 C   0  0  0  0  0  0  0  0  0  0  0  0
    9.9351   -6.8237    0.0000 C   0  0  0  0  0  0  0  0  0  0  0  0
    9.2201   -6.4122    0.0000 C   0  0  0  0  0  0  0  0  0  0  0  0
    8.5056   -6.8247    0.0000 C   0  0  0  0  0  0  0  0  0  0  0  0
    7.7912   -6.4121    0.0000 C   0  0  0  0  0  0  0  0  0  0  0  0
    7.0767   -6.8246    0.0000 C   0  0  0  0  0  0  0  0  0  0  0  0
    7.0767   -7.6496    0.0000 C   0  0  0  0  0  0  0  0  0  0  0  0
    7.7912   -8.0621    0.0000 C   0  0  0  0  0  0  0  0  0  0  0  0
    8.5056   -7.6496    0.0000 C   0  0  0  0  0  0  0  0  0  0  0  0
    8.3341   -4.3677    0.0000 O   0  0  0  0  0  0  0  0  0  0  0  0
    7.5136   -4.2814    0.0000 C   0  0  0  0  0  0  0  0  0  0  0  0
    7.1781   -5.0351    0.0000 O   0  0  0  0  0  0  0  0  0  0  0  0
    7.7912   -5.5871    0.0000 C   0  0  0  0  0  0  0  0  0  0  0  0
    8.5056   -5.1746    0.0000 C   0  0  0  0  0  0  0  0  0  0  0  0
    9.2201   -5.5871    0.0000 C   0  0  0  0  0  0  0  0  0  0  0  0
    6.3622   -8.0622    0.0000 C   0  0  0  0  0  0  0  0  0  0  0  0
    5.6477   -7.6496    0.0000 C   0  0  0  0  0  0  0  0  0  0  0  0
    5.6477   -6.8247    0.0000 C   0  0  0  0  0  0  0  0  0  0  0  0
    6.3622   -6.4121    0.0000 C   0  0  0  0  0  0  0  0  0  0  0  0
    7.7912   -8.8871    0.0000 O   0  0  0  0  0  0  0  0  0  0  0  0
    4.9333   -6.4122    0.0000 O   0  0  0  0  0  0  0  0  0  0  0  0
    4.2188   -6.8247    0.0000 C   0  0  0  0  0  0  0  0  0  0  0  0
    4.9333   -8.0622    0.0000 O   0  0  0  0  0  0  0  0  0  0  0  0
    4.2188   -7.6496    0.0000 C   0  0  0  0  0  0  0  0  0  0  0  0
  1  2  2  0  0  0  0
  2  3  1  0  0  0  0
  3  4  2  0  0  0  0
  4  5  1  0  0  0  0
  5  6  1  0  0  0  0
  6  7  1  0  0  0  0
  7  8  1  0  0  0  0
  8  9  1  0  0  0  0
  9 10  1  0  0  0  0
  1 10  1  0  0  0  0
  5 10  2  0  0  0  0
 11 12  1  0  0  0  0
 12 13  1  0  0  0  0
 13 14  1  0  0  0  0
 14 15  1  0  0  0  0
 11 15  1  0  0  0  0
 16 15  2  0  0  0  0
 16  4  1  0  0  0  0
 14  6  2  0  0  0  0
 17 18  1  0  0  0  0
 18 19  2  0  0  0  0
 19 20  1  0  0  0  0
 20  7  2  0  0  0  0
 17  8  2  0  0  0  0
  9 21  2  0  0  0  0
 22 23  1  0  0  0  0
 19 22  1  0  0  0  0
 24 25  1  0  0  0  0
 18 24  1  0  0  0  0
M  END
>  <cdx:fragmentId>
13680

$$$$
