1778.cdx
  Mrv1902 05222410212D          

 15 15  0  0  0  0            999 V2000
    9.8787   -6.0079    0.0000 O   0  0  0  0  0  0  0  0  0  0  0  0
   10.6092   -7.2360    0.0000 C   0  0  0  0  0  0  0  0  0  0  0  0
    9.8894   -6.8329    0.0000 C   0  0  0  0  0  0  0  0  0  0  0  0
    9.1803   -7.2546    0.0000 C   0  0  0  0  0  0  0  0  0  0  0  0
    8.4606   -6.8514    0.0000 C   0  0  0  0  0  0  0  0  0  0  0  0
    7.4349   -6.1502    0.0000 C   0  0  0  0  0  0  0  0  0  0  0  0
    6.6100   -6.1609    0.0000 C   0  0  0  0  0  0  0  0  0  0  0  0
    5.6243   -8.5384    0.0000 O   0  0  0  0  0  0  0  0  0  0  0  0
    8.4820   -8.5013    0.0000 C   0  0  0  0  0  0  0  0  0  0  0  0
    7.0532   -8.5198    0.0000 C   0  0  0  0  0  0  0  0  0  0  0  0
    7.7622   -8.0981    0.0000 C   0  0  0  0  0  0  0  0  0  0  0  0
    7.7515   -7.2731    0.0000 C   0  0  1  0  0  0  0  0  0  0  0  0
    7.0317   -6.8700    0.0000 C   0  0  0  0  0  0  0  0  0  0  0  0
    6.3227   -7.2917    0.0000 C   0  0  0  0  0  0  0  0  0  0  0  0
    6.3334   -8.1166    0.0000 C   0  0  0  0  0  0  0  0  0  0  0  0
  3  1  1  0  0  0  0
  3  2  1  0  0  0  0
  4  3  1  0  0  0  0
  5  4  2  0  0  0  0
 12  5  1  1  0  0  0
 13  6  1  0  0  0  0
 13  7  1  0  0  0  0
 15  8  2  0  0  0  0
 11  9  1  0  0  0  0
 10 15  1  0  0  0  0
 11 10  2  0  0  0  0
 12 11  1  0  0  0  0
 13 12  1  0  0  0  0
 14 13  1  0  0  0  0
 15 14  1  0  0  0  0
M  END
>  <cdx:fragmentId>
5

$$$$
