1780.cdx
  Mrv1902 05222410222D          

 22 21  0  0  0  0            999 V2000
   15.6366   -2.4917    0.0000 C   0  0  0  0  0  0  0  0  0  0  0  0
   14.9221   -2.9042    0.0000 C   0  0  0  0  0  0  0  0  0  0  0  0
   14.2076   -2.4917    0.0000 C   0  0  0  0  0  0  0  0  0  0  0  0
   13.4931   -2.9042    0.0000 C   0  0  0  0  0  0  0  0  0  0  0  0
   12.7787   -2.4917    0.0000 C   0  0  0  0  0  0  0  0  0  0  0  0
   12.0642   -2.0792    0.0000 C   0  0  0  0  0  0  0  0  0  0  0  0
   11.3497   -1.6667    0.0000 C   0  0  0  0  0  0  0  0  0  0  0  0
   10.6353   -2.0792    0.0000 C   0  0  0  0  0  0  0  0  0  0  0  0
    9.9208   -2.4917    0.0000 C   0  0  0  0  0  0  0  0  0  0  0  0
    9.2063   -2.9042    0.0000 C   0  0  0  0  0  0  0  0  0  0  0  0
    8.4918   -2.4917    0.0000 C   0  0  0  0  0  0  0  0  0  0  0  0
    7.7774   -2.0792    0.0000 C   0  0  0  0  0  0  0  0  0  0  0  0
    7.0629   -1.6667    0.0000 C   0  0  0  0  0  0  0  0  0  0  0  0
    6.3484   -2.0792    0.0000 C   0  0  0  0  0  0  0  0  0  0  0  0
    5.6340   -2.4917    0.0000 C   0  0  0  0  0  0  0  0  0  0  0  0
    4.9195   -2.9042    0.0000 C   0  0  0  0  0  0  0  0  0  0  0  0
    4.2050   -2.4917    0.0000 C   0  0  0  0  0  0  0  0  0  0  0  0
    3.4905   -2.9042    0.0000 C   0  0  0  0  0  0  0  0  0  0  0  0
    2.7761   -2.4917    0.0000 C   0  0  0  0  0  0  0  0  0  0  0  0
    2.0616   -2.9042    0.0000 C   0  0  0  0  0  0  0  0  0  0  0  0
   15.6366   -1.6667    0.0000 O   0  0  0  0  0  0  0  0  0  0  0  0
   16.3510   -2.9042    0.0000 O   0  0  0  0  0  0  0  0  0  0  0  0
  1  2  1  0  0  0  0
  2  3  1  0  0  0  0
  3  4  1  0  0  0  0
  4  5  1  0  0  0  0
  5  6  3  0  0  0  0
  6  7  1  0  0  0  0
  7  8  1  0  0  0  0
  8  9  3  0  0  0  0
  9 10  1  0  0  0  0
 10 11  1  0  0  0  0
 11 12  3  0  0  0  0
 12 13  1  0  0  0  0
 13 14  1  0  0  0  0
 14 15  3  0  0  0  0
 15 16  1  0  0  0  0
 16 17  1  0  0  0  0
 17 18  1  0  0  0  0
 18 19  1  0  0  0  0
 19 20  1  0  0  0  0
  1 21  2  0  0  0  0
  1 22  1  0  0  0  0
M  END
>  <cdx:groupId>
67

>  <cdx:fragmentId>
5

$$$$
