178130.cdx
  Mrv1902 05222410272D          

 25 24  0  0  0  0            999 V2000
    2.3041  -10.7299    0.0000 O   0  0  0  0  0  0  0  0  0  0  0  0
    0.8752  -11.5549    0.0000 O   0  0  0  0  0  0  0  0  0  0  0  0
    1.5896  -11.9674    0.0000 C   0  0  0  0  0  0  0  0  0  0  0  0
    2.3041  -11.5549    0.0000 C   0  0  1  0  0  0  0  0  0  0  0  0
    3.0186  -11.9674    0.0000 C   0  0  0  0  0  0  0  0  0  0  0  0
    3.7330  -11.5549    0.0000 O   0  0  0  0  0  0  0  0  0  0  0  0
    4.4475  -12.7924    0.0000 O   0  0  0  0  0  0  0  0  0  0  0  0
   10.1633  -11.9674    0.0000 C   0  0  0  0  0  0  0  0  0  0  0  0
    9.4488  -11.5549    0.0000 C   0  0  0  0  0  0  0  0  0  0  0  0
    8.7343  -11.9674    0.0000 C   0  0  0  0  0  0  0  0  0  0  0  0
    8.0199  -11.5549    0.0000 C   0  0  0  0  0  0  0  0  0  0  0  0
    7.3054  -11.9674    0.0000 C   0  0  0  0  0  0  0  0  0  0  0  0
    6.5909  -11.5549    0.0000 C   0  0  0  0  0  0  0  0  0  0  0  0
    5.8764  -11.9674    0.0000 C   0  0  0  0  0  0  0  0  0  0  0  0
    5.1620  -11.5549    0.0000 C   0  0  0  0  0  0  0  0  0  0  0  0
    4.4475  -11.9674    0.0000 C   0  0  0  0  0  0  0  0  0  0  0  0
   10.8777  -11.5549    0.0000 C   0  0  0  0  0  0  0  0  0  0  0  0
   10.8777  -10.7299    0.0000 C   0  0  0  0  0  0  0  0  0  0  0  0
   11.5922  -10.3174    0.0000 C   0  0  0  0  0  0  0  0  0  0  0  0
   11.5922   -9.4924    0.0000 C   0  0  0  0  0  0  0  0  0  0  0  0
   12.3067   -9.0799    0.0000 C   0  0  0  0  0  0  0  0  0  0  0  0
   12.3067   -8.2549    0.0000 C   0  0  0  0  0  0  0  0  0  0  0  0
   13.0212   -7.8424    0.0000 C   0  0  0  0  0  0  0  0  0  0  0  0
   13.0212   -7.0174    0.0000 C   0  0  0  0  0  0  0  0  0  0  0  0
   13.7356   -6.6049    0.0000 C   0  0  0  0  0  0  0  0  0  0  0  0
  6  5  1  0  0  0  0
  4  1  1  6  0  0  0
  3  2  1  0  0  0  0
  4  3  1  0  0  0  0
  5  4  1  0  0  0  0
 16  6  1  0  0  0  0
 16  7  2  0  0  0  0
  9  8  1  0  0  0  0
 10  9  1  0  0  0  0
 11 10  1  0  0  0  0
 12 11  1  0  0  0  0
 13 12  1  0  0  0  0
 14 13  1  0  0  0  0
 15 14  1  0  0  0  0
 16 15  1  0  0  0  0
  8 17  2  0  0  0  0
 17 18  1  0  0  0  0
 18 19  1  0  0  0  0
 19 20  1  0  0  0  0
 20 21  1  0  0  0  0
 21 22  1  0  0  0  0
 22 23  1  0  0  0  0
 23 24  1  0  0  0  0
 24 25  1  0  0  0  0
M  END
>  <cdx:groupId>
14331

>  <cdx:fragmentId>
14260

$$$$
