178116.cdx
  Mrv1902 05222410202D          

 59 64  0  0  0  0            999 V2000
    3.6135  -11.0787    0.0000 O   0  0  0  0  0  0  0  0  0  0  0  0
    2.7888  -11.0699    0.0000 C   0  0  2  0  0  0  0  0  0  0  0  0
    2.3688  -11.7797    0.0000 C   0  0  2  0  0  0  0  0  0  0  0  0
    2.7735  -12.4983    0.0000 O   0  0  0  0  0  0  0  0  0  0  0  0
    2.3841  -10.3513    0.0000 O   0  0  0  0  0  0  0  0  0  0  0  0
    2.8041   -9.6415    0.0000 C   0  0  0  0  0  0  0  0  0  0  0  0
    2.3994   -8.9229    0.0000 C   0  0  0  0  0  0  0  0  0  0  0  0
    2.8194   -8.2131    0.0000 O   0  0  0  0  0  0  0  0  0  0  0  0
    1.5747   -8.9140    0.0000 O   0  0  0  0  0  0  0  0  0  0  0  0
    1.5441  -11.7709    0.0000 C   0  0  0  0  0  0  0  0  0  0  0  0
    1.1394  -11.0522    0.0000 O   0  0  0  0  0  0  0  0  0  0  0  0
    8.0223   -9.3788    0.0000 C   0  0  0  0  0  0  0  0  0  0  0  0
    7.3080   -9.7912    0.0000 C   0  0  0  0  0  0  0  0  0  0  0  0
    7.3080  -10.6160    0.0000 C   0  0  1  0  0  0  0  0  0  0  0  0
    8.0223  -11.0283    0.0000 C   0  0  2  0  0  0  0  0  0  0  0  0
    8.7365  -10.6160    0.0000 C   0  0  2  0  0  0  0  0  0  0  0  0
    9.4508  -11.0283    0.0000 C   0  0  0  0  0  0  0  0  0  0  0  0
   10.1650  -10.6160    0.0000 C   0  0  0  0  0  0  0  0  0  0  0  0
   10.1650   -9.7912    0.0000 C   0  0  1  0  0  0  0  0  0  0  0  0
   10.8792   -9.3788    0.0000 C   0  0  2  0  0  0  0  0  0  0  0  0
   11.5935   -9.7912    0.0000 C   0  0  0  0  0  0  0  0  0  0  0  0
   12.3077   -9.3788    0.0000 C   0  0  0  0  0  0  0  0  0  0  0  0
   12.3077   -8.5541    0.0000 C   0  0  1  0  0  0  0  0  0  0  0  0
   13.0220   -8.1417    0.0000 C   0  0  0  0  0  0  0  0  0  0  0  0
   13.0220   -7.3170    0.0000 C   0  0  0  0  0  0  0  0  0  0  0  0
   12.3077   -6.9046    0.0000 C   0  0  1  0  0  0  0  0  0  0  0  0
   11.5935   -7.3170    0.0000 C   0  0  0  0  0  0  0  0  0  0  0  0
   11.5935   -8.1417    0.0000 C   0  0  1  0  0  0  0  0  0  0  0  0
   10.8792   -8.5541    0.0000 C   0  0  0  0  0  0  0  0  0  0  0  0
   10.1650   -8.1417    0.0000 C   0  0  0  0  0  0  0  0  0  0  0  0
    9.4508   -8.5541    0.0000 C   0  0  0  0  0  0  0  0  0  0  0  0
    9.4508   -9.3788    0.0000 C   0  0  2  0  0  0  0  0  0  0  0  0
    8.7365   -9.7912    0.0000 C   0  0  1  0  0  0  0  0  0  0  0  0
   13.0220   -8.9665    0.0000 C   0  0  0  0  0  0  0  0  0  0  0  0
   13.0220   -9.7912    0.0000 O   0  0  0  0  0  0  0  0  0  0  0  0
    8.7365   -8.9665    0.0000 C   0  0  0  0  0  0  0  0  0  0  0  0
   11.8954   -6.1904    0.0000 C   0  0  0  0  0  0  0  0  0  0  0  0
   12.7201   -6.1904    0.0000 C   0  0  0  0  0  0  0  0  0  0  0  0
   10.8792  -10.2036    0.0000 C   0  0  0  0  0  0  0  0  0  0  0  0
   10.1650   -8.9665    0.0000 C   0  0  0  0  0  0  0  0  0  0  0  0
    8.4346  -11.7426    0.0000 C   0  0  0  0  0  0  0  0  0  0  0  0
    7.6099  -11.7426    0.0000 C   0  0  0  0  0  0  0  0  0  0  0  0
    6.5938  -11.0283    0.0000 O   0  0  0  0  0  0  0  0  0  0  0  0
    1.1241  -12.4807    0.0000 O   0  0  0  0  0  0  0  0  0  0  0  0
    3.7592   -9.3406    0.0000 O   0  0  0  0  0  0  0  0  0  0  0  0
    5.1543  -11.8338    0.0000 O   0  0  0  0  0  0  0  0  0  0  0  0
    4.4901   -8.1132    0.0000 O   0  0  0  0  0  0  0  0  0  0  0  0
    5.9184   -8.1324    0.0000 O   0  0  0  0  0  0  0  0  0  0  0  0
    5.1987   -8.5351    0.0000 C   0  0  0  0  0  0  0  0  0  0  0  0
    5.8851  -10.6064    0.0000 C   0  0  1  0  0  0  0  0  0  0  0  0
    5.1654  -11.0091    0.0000 C   0  0  1  0  0  0  0  0  0  0  0  0
    4.4568  -10.5872    0.0000 C   0  0  2  0  0  0  0  0  0  0  0  0
    4.4679   -9.7625    0.0000 C   0  0  1  0  0  0  0  0  0  0  0  0
    5.1876   -9.3598    0.0000 C   0  0  2  0  0  0  0  0  0  0  0  0
   13.7362   -8.5541    0.0000 O   0  0  0  0  0  0  0  0  0  0  0  0
    5.8962   -9.7817    0.0000 O   0  0  0  0  0  0  0  0  0  0  0  0
    8.7365  -11.4407    0.0000 H   0  0  0  0  0  0  0  0  0  0  0  0
    9.4508  -10.2036    0.0000 H   0  0  0  0  0  0  0  0  0  0  0  0
   11.5935   -8.9665    0.0000 H   0  0  0  0  0  0  0  0  0  0  0  0
 50 43  1  1  0  0  0
 52  1  1  1  0  0  0
 53 45  1  6  0  0  0
 51 46  1  6  0  0  0
 54 49  1  1  0  0  0
 49 47  1  0  0  0  0
 49 48  2  0  0  0  0
 56 50  1  0  0  0  0
 51 50  1  0  0  0  0
 52 51  1  0  0  0  0
 53 52  1  0  0  0  0
 54 53  1  0  0  0  0
 56 54  1  0  0  0  0
  2  3  1  0  0  0  0
  2  1  1  6  0  0  0
  3  4  1  6  0  0  0
  5  6  1  0  0  0  0
  7  8  2  0  0  0  0
  7  9  1  0  0  0  0
  6  7  1  0  0  0  0
  2  5  1  0  0  0  0
 10 11  2  0  0  0  0
 10 44  1  0  0  0  0
  3 10  1  0  0  0  0
 12 13  1  0  0  0  0
 13 14  1  0  0  0  0
 14 15  1  0  0  0  0
 15 16  1  0  0  0  0
 16 17  1  0  0  0  0
 17 18  1  0  0  0  0
 18 19  1  0  0  0  0
 19 20  1  0  0  0  0
 20 21  1  0  0  0  0
 21 22  1  0  0  0  0
 22 23  1  0  0  0  0
 23 24  1  0  0  0  0
 24 25  1  0  0  0  0
 25 26  1  0  0  0  0
 26 27  1  0  0  0  0
 27 28  1  0  0  0  0
 23 28  1  0  0  0  0
 28 29  1  0  0  0  0
 20 29  1  0  0  0  0
 29 30  2  0  0  0  0
 30 31  1  0  0  0  0
 31 32  1  0  0  0  0
 19 32  1  0  0  0  0
 32 33  1  0  0  0  0
 16 33  1  0  0  0  0
 12 33  1  0  0  0  0
 34 35  2  0  0  0  0
 34 55  1  0  0  0  0
 23 34  1  1  0  0  0
 33 36  1  1  0  0  0
 26 37  1  1  0  0  0
 26 38  1  6  0  0  0
 20 39  1  6  0  0  0
 19 40  1  1  0  0  0
 15 41  1  6  0  0  0
 15 42  1  1  0  0  0
 14 43  1  1  0  0  0
 16 57  1  6  0  0  0
 32 58  1  6  0  0  0
 28 59  1  1  0  0  0
M  END
>  <cdx:fragmentId>
246

$$$$
