17835.cdx
  Mrv1902 05222410202D          

 11 10  0  0  0  0            999 V2000
    1.9164   -3.4983    0.0000 C   0  0  0  0  0  0  0  0  0  0  0  0
    2.6309   -3.0858    0.0000 C   0  0  0  0  0  0  0  0  0  0  0  0
    3.3453   -3.4983    0.0000 C   0  0  0  0  0  0  0  0  0  0  0  0
    4.0598   -3.0858    0.0000 C   0  0  0  0  0  0  0  0  0  0  0  0
    4.7743   -3.4983    0.0000 C   0  0  0  0  0  0  0  0  0  0  0  0
    5.4887   -3.0858    0.0000 C   0  0  0  0  0  0  0  0  0  0  0  0
    6.2032   -3.4983    0.0000 C   0  0  0  0  0  0  0  0  0  0  0  0
    6.9177   -3.0858    0.0000 C   0  0  0  0  0  0  0  0  0  0  0  0
    7.6321   -3.4983    0.0000 C   0  0  0  0  0  0  0  0  0  0  0  0
    8.3466   -3.0858    0.0000 C   0  0  0  0  0  0  0  0  0  0  0  0
    4.0598   -2.2608    0.0000 C   0  0  0  0  0  0  0  0  0  0  0  0
  1  2  1  0  0  0  0
  2  3  1  0  0  0  0
  3  4  1  0  0  0  0
  4  5  1  0  0  0  0
  5  6  1  0  0  0  0
  6  7  1  0  0  0  0
  7  8  1  0  0  0  0
  8  9  1  0  0  0  0
  9 10  1  0  0  0  0
  4 11  1  0  0  0  0
M  END
>  <cdx:groupId>
34

>  <cdx:fragmentId>
5

$$$$
