1786.cdx
  Mrv1902 05222410202D          

 13 12  0  0  0  0            999 V2000
    3.5227   -7.3012    0.0000 C   0  0  0  0  0  0  0  0  0  0  0  0
    4.2372   -6.8888    0.0000 C   0  0  0  0  0  0  0  0  0  0  0  0
    4.9517   -7.3012    0.0000 C   0  0  1  0  0  0  0  0  0  0  0  0
    5.6662   -6.8888    0.0000 C   0  0  0  0  0  0  0  0  0  0  0  0
    6.3806   -7.3012    0.0000 C   0  0  0  0  0  0  0  0  0  0  0  0
    7.0951   -6.8888    0.0000 C   0  0  0  0  0  0  0  0  0  0  0  0
    7.8096   -7.3012    0.0000 C   0  0  0  0  0  0  0  0  0  0  0  0
    8.5240   -6.8888    0.0000 C   0  0  0  0  0  0  0  0  0  0  0  0
    9.2385   -7.3012    0.0000 O   0  0  0  0  0  0  0  0  0  0  0  0
    7.8096   -8.1263    0.0000 C   0  0  0  0  0  0  0  0  0  0  0  0
    8.5240   -6.0638    0.0000 O   0  0  0  0  0  0  0  0  0  0  0  0
    5.5351   -7.8846    0.0000 C   0  0  0  0  0  0  0  0  0  0  0  0
    4.3683   -7.8846    0.0000 O   0  0  0  0  0  0  0  0  0  0  0  0
  1  2  2  0  0  0  0
  2  3  1  0  0  0  0
  3  4  1  0  0  0  0
  4  5  1  0  0  0  0
  5  6  1  0  0  0  0
  6  7  2  0  0  0  0
  7  8  1  0  0  0  0
  8  9  1  0  0  0  0
  7 10  1  0  0  0  0
  8 11  2  0  0  0  0
  3 12  1  1  0  0  0
  3 13  1  6  0  0  0
M  END
>  <cdx:fragmentId>
3

$$$$
