1787.cdx
  Mrv1902 05222410212D          

 20 22  0  0  0  0            999 V2000
    5.9331   -9.4967    0.0000 C   0  0  0  0  0  0  0  0  0  0  0  0
    5.6737  -10.2799    0.0000 C   0  0  0  0  0  0  0  0  0  0  0  0
    6.0441  -11.0171    0.0000 C   0  0  2  0  0  0  0  0  0  0  0  0
    6.8273  -11.2765    0.0000 C   0  0  1  0  0  0  0  0  0  0  0  0
    7.5645  -10.9061    0.0000 C   0  0  0  0  0  0  0  0  0  0  0  0
    7.8238  -10.1229    0.0000 C   0  0  0  0  0  0  0  0  0  0  0  0
    7.4534   -9.3857    0.0000 C   0  0  2  0  0  0  0  0  0  0  0  0
    6.6703   -9.1263    0.0000 C   0  0  2  0  0  0  0  0  0  0  0  0
    6.6102   -8.3035    0.0000 C   0  0  0  0  0  0  0  0  0  0  0  0
    7.9928   -8.7614    0.0000 O   0  0  0  0  0  0  0  0  0  0  0  0
    5.2472  -10.8036    0.0000 H   0  0  0  0  0  0  0  0  0  0  0  0
    5.5554  -11.6818    0.0000 C   0  0  0  0  0  0  0  0  0  0  0  0
    6.0441  -12.3520    0.0000 C   0  0  0  0  0  0  0  0  0  0  0  0
    6.8273  -12.1014    0.0000 C   0  0  2  0  0  0  0  0  0  0  0  0
    7.4936  -12.5879    0.0000 O   0  0  0  0  0  0  0  0  0  0  0  0
    4.8410  -11.2693    0.0000 C   0  0  0  0  0  0  0  0  0  0  0  0
    4.9721  -12.2652    0.0000 C   0  0  0  0  0  0  0  0  0  0  0  0
    6.4292  -10.1570    0.0000 C   0  0  0  0  0  0  0  0  0  0  0  0
    8.2481  -12.2541    0.0000 C   0  0  0  0  0  0  0  0  0  0  0  0
    8.9144  -12.7405    0.0000 O   0  0  0  0  0  0  0  0  0  0  0  0
  1  2  1  0  0  0  0
  2  3  1  0  0  0  0
  3  4  1  0  0  0  0
  4  5  1  1  0  0  0
  5  6  1  0  0  0  0
  6  7  1  0  0  0  0
  7  8  1  0  0  0  0
  8  1  1  0  0  0  0
  8  9  1  6  0  0  0
  7 10  1  6  0  0  0
  3 11  1  1  0  0  0
  3 12  1  0  0  0  0
 12 13  1  0  0  0  0
 13 14  1  0  0  0  0
 14  4  1  0  0  0  0
 14 15  1  1  0  0  0
 12 16  1  0  0  0  0
 12 17  1  0  0  0  0
  8 18  1  0  0  0  0
 18  4  1  0  0  0  0
 15 19  1  0  0  0  0
 19 20  2  0  0  0  0
M  END
>  <cdx:fragmentId>
195

$$$$
