17877.cdx
  Mrv1902 05222410252D          

 10 10  0  0  0  0            999 V2000
    3.7943   -1.8642    0.0000 C   0  0  0  0  0  0  0  0  0  0  0  0
    3.7943   -2.6892    0.0000 C   0  0  0  0  0  0  0  0  0  0  0  0
    3.0798   -3.1017    0.0000 C   0  0  0  0  0  0  0  0  0  0  0  0
    2.3654   -2.6892    0.0000 C   0  0  0  0  0  0  0  0  0  0  0  0
    2.3654   -1.8642    0.0000 C   0  0  0  0  0  0  0  0  0  0  0  0
    3.0798   -1.4517    0.0000 C   0  0  0  0  0  0  0  0  0  0  0  0
    3.0798   -3.9267    0.0000 C   0  0  0  0  0  0  0  0  0  0  0  0
    4.5088   -1.4517    0.0000 C   0  0  0  0  0  0  0  0  0  0  0  0
    4.5088   -3.1017    0.0000 C   0  0  0  0  0  0  0  0  0  0  0  0
    5.2233   -2.6892    0.0000 C   0  0  0  0  0  0  0  0  0  0  0  0
  1  2  1  0  0  0  0
  2  3  2  0  0  0  0
  3  4  1  0  0  0  0
  4  5  2  0  0  0  0
  5  6  1  0  0  0  0
  1  6  2  0  0  0  0
  3  7  1  0  0  0  0
  1  8  1  0  0  0  0
  9 10  1  0  0  0  0
  2  9  1  0  0  0  0
M  END
>  <cdx:groupId>
32

>  <cdx:fragmentId>
5

$$$$
