1788.cdx
  Mrv1902 05222410252D          

 22 24  0  0  0  0            999 V2000
    6.4556   -9.3042    0.0000 C   0  0  0  0  0  0  0  0  0  0  0  0
    6.1962  -10.0874    0.0000 C   0  0  0  0  0  0  0  0  0  0  0  0
    6.5666  -10.8246    0.0000 C   0  0  2  0  0  0  0  0  0  0  0  0
    7.3498  -11.0840    0.0000 C   0  0  1  0  0  0  0  0  0  0  0  0
    8.0870  -10.7136    0.0000 C   0  0  0  0  0  0  0  0  0  0  0  0
    8.3463   -9.9304    0.0000 C   0  0  0  0  0  0  0  0  0  0  0  0
    7.9759   -9.1932    0.0000 C   0  0  2  0  0  0  0  0  0  0  0  0
    7.1928   -8.9338    0.0000 C   0  0  2  0  0  0  0  0  0  0  0  0
    7.1327   -8.1110    0.0000 C   0  0  0  0  0  0  0  0  0  0  0  0
    8.5153   -8.5689    0.0000 O   0  0  0  0  0  0  0  0  0  0  0  0
    5.7697  -10.6111    0.0000 H   0  0  0  0  0  0  0  0  0  0  0  0
    6.0779  -11.4893    0.0000 C   0  0  0  0  0  0  0  0  0  0  0  0
    6.5666  -12.1595    0.0000 C   0  0  0  0  0  0  0  0  0  0  0  0
    7.3498  -11.9089    0.0000 C   0  0  2  0  0  0  0  0  0  0  0  0
    8.0161  -12.3954    0.0000 O   0  0  0  0  0  0  0  0  0  0  0  0
    5.3635  -11.0768    0.0000 C   0  0  0  0  0  0  0  0  0  0  0  0
    5.4946  -12.0727    0.0000 C   0  0  0  0  0  0  0  0  0  0  0  0
    6.9517   -9.9645    0.0000 C   0  0  0  0  0  0  0  0  0  0  0  0
    9.3256   -8.7238    0.0000 C   0  0  0  0  0  0  0  0  0  0  0  0
    8.7706  -12.0616    0.0000 C   0  0  0  0  0  0  0  0  0  0  0  0
    9.8649   -8.0995    0.0000 O   0  0  0  0  0  0  0  0  0  0  0  0
    9.4369  -12.5480    0.0000 O   0  0  0  0  0  0  0  0  0  0  0  0
  1  2  1  0  0  0  0
  2  3  1  0  0  0  0
  3  4  1  0  0  0  0
  4  5  1  1  0  0  0
  5  6  1  0  0  0  0
  6  7  1  0  0  0  0
  7  8  1  0  0  0  0
  8  1  1  0  0  0  0
  8  9  1  6  0  0  0
  7 10  1  6  0  0  0
  3 11  1  1  0  0  0
  3 12  1  0  0  0  0
 12 13  1  0  0  0  0
 13 14  1  0  0  0  0
 14  4  1  0  0  0  0
 14 15  1  1  0  0  0
 12 16  1  0  0  0  0
 12 17  1  0  0  0  0
  8 18  1  0  0  0  0
 18  4  1  0  0  0  0
 10 19  1  0  0  0  0
 15 20  1  0  0  0  0
 19 21  2  0  0  0  0
 20 22  2  0  0  0  0
M  END
>  <cdx:fragmentId>
5

$$$$
