1789.cdx
  Mrv1902 05222410252D          

 27 28  0  0  0  0            999 V2000
    4.0458   -8.7450    0.0000 C   0  0  2  0  0  0  0  0  0  0  0  0
    4.0458   -9.5700    0.0000 C   0  0  2  0  0  0  0  0  0  0  0  0
    4.7602   -9.9825    0.0000 C   0  0  1  0  0  0  0  0  0  0  0  0
    5.4747   -9.5700    0.0000 C   0  0  2  0  0  0  0  0  0  0  0  0
    5.4747   -8.7450    0.0000 C   0  0  1  0  0  0  0  0  0  0  0  0
    4.7602   -8.3325    0.0000 O   0  0  0  0  0  0  0  0  0  0  0  0
    6.1892   -8.3325    0.0000 O   0  0  0  0  0  0  0  0  0  0  0  0
    6.1892   -7.5075    0.0000 C   0  0  2  0  0  0  0  0  0  0  0  0
    5.4747   -7.0950    0.0000 C   0  0  0  0  0  0  0  0  0  0  0  0
    6.9037   -7.0950    0.0000 C   0  0  0  0  0  0  0  0  0  0  0  0
    6.9037   -6.2700    0.0000 C   0  0  0  0  0  0  0  0  0  0  0  0
    7.6181   -5.8575    0.0000 C   0  0  2  0  0  0  0  0  0  0  0  0
    8.4431   -5.8476    0.0000 C   0  0  0  0  0  0  0  0  0  0  0  0
    8.8469   -5.1282    0.0000 C   0  0  0  0  0  0  0  0  0  0  0  0
    8.4259   -4.4187    0.0000 C   0  0  0  0  0  0  0  0  0  0  0  0
    7.6009   -4.4287    0.0000 C   0  0  0  0  0  0  0  0  0  0  0  0
    7.1971   -5.1480    0.0000 C   0  0  0  0  0  0  0  0  0  0  0  0
    6.3721   -5.1480    0.0000 C   0  0  0  0  0  0  0  0  0  0  0  0
    8.4431   -6.6726    0.0000 C   0  0  0  0  0  0  0  0  0  0  0  0
    9.1575   -6.2601    0.0000 C   0  0  0  0  0  0  0  0  0  0  0  0
    8.8384   -3.7043    0.0000 O   0  0  0  0  0  0  0  0  0  0  0  0
    3.3313   -8.3325    0.0000 C   0  0  0  0  0  0  0  0  0  0  0  0
    2.6168   -8.7450    0.0000 O   0  0  0  0  0  0  0  0  0  0  0  0
    4.7602  -10.8075    0.0000 O   0  0  0  0  0  0  0  0  0  0  0  0
    7.6181   -6.6825    0.0000 O   0  0  0  0  0  0  0  0  0  0  0  0
    3.3313   -9.9825    0.0000 O   0  0  0  0  0  0  0  0  0  0  0  0
    6.1892   -9.9825    0.0000 O   0  0  0  0  0  0  0  0  0  0  0  0
  1  2  1  0  0  0  0
  2  3  1  0  0  0  0
  3  4  1  0  0  0  0
  4  5  1  0  0  0  0
  5  6  1  0  0  0  0
  6  1  1  0  0  0  0
  5  7  1  1  0  0  0
  8  7  1  6  0  0  0
  8  9  1  0  0  0  0
  8 10  1  0  0  0  0
 10 11  2  0  0  0  0
 11 12  1  0  0  0  0
 12 13  1  0  0  0  0
 13 14  1  0  0  0  0
 14 15  1  0  0  0  0
 15 16  1  0  0  0  0
 16 17  2  0  0  0  0
 17 12  1  0  0  0  0
 17 18  1  0  0  0  0
 13 19  1  0  0  0  0
 13 20  1  0  0  0  0
 15 21  2  0  0  0  0
  1 22  1  1  0  0  0
 22 23  1  0  0  0  0
  3 24  1  1  0  0  0
 12 25  1  6  0  0  0
  2 26  1  6  0  0  0
  4 27  1  6  0  0  0
M  END
>  <cdx:fragmentId>
5

$$$$
