17899.cdx
  Mrv1902 05222410242D          

 16 15  0  0  0  0            999 V2000
   11.9107   -3.1889    0.0000 C   0  0  0  0  0  0  0  0  0  0  0  0
   11.1962   -3.6014    0.0000 C   0  0  0  0  0  0  0  0  0  0  0  0
   10.4817   -3.1889    0.0000 C   0  0  0  0  0  0  0  0  0  0  0  0
    9.7673   -3.6014    0.0000 C   0  0  0  0  0  0  0  0  0  0  0  0
    9.0528   -3.1889    0.0000 C   0  0  0  0  0  0  0  0  0  0  0  0
    8.3383   -3.6014    0.0000 C   0  0  0  0  0  0  0  0  0  0  0  0
    7.6238   -3.1889    0.0000 C   0  0  0  0  0  0  0  0  0  0  0  0
    6.9094   -3.6014    0.0000 C   0  0  0  0  0  0  0  0  0  0  0  0
    6.1949   -3.1889    0.0000 C   0  0  0  0  0  0  0  0  0  0  0  0
    5.4804   -3.6014    0.0000 C   0  0  0  0  0  0  0  0  0  0  0  0
    4.7660   -3.1889    0.0000 C   0  0  0  0  0  0  0  0  0  0  0  0
    4.0515   -3.6014    0.0000 C   0  0  0  0  0  0  0  0  0  0  0  0
    3.3370   -3.1889    0.0000 C   0  0  0  0  0  0  0  0  0  0  0  0
    2.6225   -3.6014    0.0000 C   0  0  0  0  0  0  0  0  0  0  0  0
    1.9081   -3.1889    0.0000 C   0  0  0  0  0  0  0  0  0  0  0  0
   10.4817   -2.3639    0.0000 C   0  0  0  0  0  0  0  0  0  0  0  0
  1  2  1  0  0  0  0
  2  3  1  0  0  0  0
  3  4  1  0  0  0  0
  4  5  1  0  0  0  0
  5  6  1  0  0  0  0
  6  7  1  0  0  0  0
  7  8  1  0  0  0  0
  8  9  1  0  0  0  0
  9 10  1  0  0  0  0
 10 11  1  0  0  0  0
 11 12  1  0  0  0  0
 12 13  1  0  0  0  0
 13 14  1  0  0  0  0
 14 15  1  0  0  0  0
  3 16  1  0  0  0  0
M  END
>  <cdx:groupId>
49

>  <cdx:fragmentId>
5

$$$$
