179370.cdx
  Mrv1902 05222410262D          

 16 17  0  0  0  0            999 V2000
    8.1681  -14.5730    0.0000 C   0  0  1  0  0  0  0  0  0  0  0  0
    7.3835  -14.3181    0.0000 C   0  0  0  0  0  0  0  0  0  0  0  0
    7.3835  -13.4931    0.0000 C   0  0  0  0  0  0  0  0  0  0  0  0
    8.1681  -13.2382    0.0000 C   0  0  2  0  0  0  0  0  0  0  0  0
    8.6531  -13.9056    0.0000 C   0  0  0  0  0  0  0  0  0  0  0  0
    9.0656  -14.6201    0.0000 C   0  0  0  0  0  0  0  0  0  0  0  0
    9.8906  -14.6201    0.0000 C   0  0  0  0  0  0  0  0  0  0  0  0
   10.3031  -13.9056    0.0000 C   0  0  0  0  0  0  0  0  0  0  0  0
    9.8906  -13.1911    0.0000 C   0  0  0  0  0  0  0  0  0  0  0  0
    9.0656  -13.1911    0.0000 C   0  0  0  0  0  0  0  0  0  0  0  0
   10.3031  -12.4767    0.0000 O   0  0  0  0  0  0  0  0  0  0  0  0
    7.8710  -11.8404    0.0000 C   0  0  0  0  0  0  0  0  0  0  0  0
    8.4231  -12.4535    0.0000 C   0  0  0  0  0  0  0  0  0  0  0  0
    9.2300  -12.2820    0.0000 C   0  0  0  0  0  0  0  0  0  0  0  0
   11.1281  -13.9056    0.0000 C   0  0  0  0  0  0  0  0  0  0  0  0
    8.4231  -15.3577    0.0000 C   0  0  0  0  0  0  0  0  0  0  0  0
  1  2  1  0  0  0  0
  2  3  1  0  0  0  0
  3  4  1  0  0  0  0
  4  5  1  0  0  0  0
  5  6  1  0  0  0  0
  6  7  1  0  0  0  0
  7  8  2  0  0  0  0
  8  9  1  0  0  0  0
  9 10  1  0  0  0  0
  1  5  1  0  0  0  0
  5 10  1  0  0  0  0
  9 11  2  0  0  0  0
 12 13  1  0  0  0  0
 13 14  1  0  0  0  0
  4 13  1  1  0  0  0
  8 15  1  0  0  0  0
  1 16  1  1  0  0  0
M  END
>  <cdx:fragmentId>
38759

$$$$
