179652.cdx
  Mrv1902 05222410232D          

 37 43  0  0  0  0            999 V2000
    6.5628   -9.0281    0.0000 C   0  0  2  0  0  0  0  0  0  0  0  0
    5.8539   -9.4500    0.0000 C   0  0  0  0  0  0  0  0  0  0  0  0
    6.3299   -8.7762    0.0000 C   0  0  0  0  0  0  0  0  0  0  0  0
    6.1026   -7.9832    0.0000 O   0  0  0  0  0  0  0  0  0  0  0  0
    5.2962   -7.8092    0.0000 C   0  0  0  0  0  0  0  0  0  0  0  0
    4.7626   -8.4384    0.0000 C   0  0  0  0  0  0  0  0  0  0  0  0
    5.0659   -9.2056    0.0000 C   0  0  0  0  0  0  0  0  0  0  0  0
    4.5899   -9.8794    0.0000 O   0  0  0  0  0  0  0  0  0  0  0  0
    5.0837  -10.5403    0.0000 C   0  0  0  0  0  0  0  0  0  0  0  0
    5.8649  -10.2750    0.0000 C   0  0  0  0  0  0  0  0  0  0  0  0
    6.5848  -10.6779    0.0000 C   0  0  0  0  0  0  0  0  0  0  0  0
    7.2937  -10.2560    0.0000 C   0  0  0  0  0  0  0  0  0  0  0  0
    7.2827   -9.4310    0.0000 C   0  0  1  0  0  0  0  0  0  0  0  0
    7.9916   -9.0091    0.0000 C   0  0  1  0  0  0  0  0  0  0  0  0
    8.0026   -9.8340    0.0000 O   0  0  0  0  0  0  0  0  0  0  0  0
    8.7115   -9.4120    0.0000 C   0  0  2  0  0  0  0  0  0  0  0  0
    9.4204   -8.9901    0.0000 C   0  0  0  0  0  0  0  0  0  0  0  0
    9.4095   -8.1651    0.0000 O   0  0  0  0  0  0  0  0  0  0  0  0
    8.6896   -7.7622    0.0000 C   0  0  2  0  0  0  0  0  0  0  0  0
    7.9806   -8.1841    0.0000 C   0  0  2  0  0  0  0  0  0  0  0  0
    7.2608   -7.7812    0.0000 C   0  0  0  0  0  0  0  0  0  0  0  0
    6.5518   -8.2031    0.0000 C   0  0  0  0  0  0  0  0  0  0  0  0
    5.0308   -7.0280    0.0000 O   0  0  0  0  0  0  0  0  0  0  0  0
    8.0136  -10.6589    0.0000 O   0  0  0  0  0  0  0  0  0  0  0  0
   10.1403   -9.3930    0.0000 O   0  0  0  0  0  0  0  0  0  0  0  0
    7.9697   -7.3592    0.0000 C   0  0  0  0  0  0  0  0  0  0  0  0
    7.2717   -8.6061    0.0000 C   0  0  0  0  0  0  0  0  0  0  0  0
    5.2659  -11.3449    0.0000 C   0  0  0  0  0  0  0  0  0  0  0  0
    4.4780  -11.1005    0.0000 C   0  0  0  0  0  0  0  0  0  0  0  0
    9.0742   -5.6623    0.0000 O   0  0  0  0  0  0  0  0  0  0  0  0
    9.3395   -6.4435    0.0000 C   0  0  0  0  0  0  0  0  0  0  0  0
    8.6786   -6.9372    0.0000 C   0  0  0  0  0  0  0  0  0  0  0  0
    8.0048   -6.4612    0.0000 C   0  0  0  0  0  0  0  0  0  0  0  0
    8.2492   -5.6733    0.0000 C   0  0  0  0  0  0  0  0  0  0  0  0
    6.5738   -9.8530    0.0000 H   0  0  0  0  0  0  0  0  0  0  0  0
    9.1335  -10.1209    0.0000 H   0  0  0  0  0  0  0  0  0  0  0  0
    6.5957  -11.5029    0.0000 O   0  0  0  0  0  0  0  0  0  0  0  0
  1  2  1  0  0  0  0
  2  3  1  0  0  0  0
  3  4  1  0  0  0  0
  4  5  1  0  0  0  0
  5  6  1  0  0  0  0
  6  7  1  0  0  0  0
  7  8  1  0  0  0  0
  8  9  1  0  0  0  0
  9 10  1  0  0  0  0
 10 11  2  0  0  0  0
 11 12  1  0  0  0  0
 12 13  1  0  0  0  0
 13 14  1  0  0  0  0
 14 15  1  1  0  0  0
 15 16  1  0  0  0  0
 16 17  1  0  0  0  0
 17 18  1  0  0  0  0
 18 19  1  0  0  0  0
 19 20  1  0  0  0  0
 20 21  1  0  0  0  0
 21 22  1  0  0  0  0
  1 22  1  0  0  0  0
  1 13  1  0  0  0  0
 14 20  1  0  0  0  0
 14 16  1  0  0  0  0
  2 10  1  0  0  0  0
  2  7  1  0  0  0  0
  5 23  2  0  0  0  0
 12 24  2  0  0  0  0
 17 25  2  0  0  0  0
 20 26  1  6  0  0  0
 13 27  1  1  0  0  0
  9 28  1  0  0  0  0
  9 29  1  0  0  0  0
 30 31  1  0  0  0  0
 31 32  2  0  0  0  0
 32 33  1  0  0  0  0
 33 34  2  0  0  0  0
 30 34  1  0  0  0  0
 19 32  1  6  0  0  0
  1 35  1  6  0  0  0
 16 36  1  6  0  0  0
 11 37  1  0  0  0  0
M  END
>  <cdx:fragmentId>
5

$$$$
