179874.cdx
  Mrv1902 05222410222D          

 28 30  0  0  0  0            999 V2000
    8.2685   -5.4289    0.0000 C   0  0  0  0  0  0  0  0  0  0  0  0
    8.9414   -4.9516    0.0000 C   0  0  0  0  0  0  0  0  0  0  0  0
    8.6955   -4.1642    0.0000 O   0  0  0  0  0  0  0  0  0  0  0  0
    7.8705   -4.1547    0.0000 C   0  0  0  0  0  0  0  0  0  0  0  0
    7.6066   -4.9364    0.0000 C   0  0  0  0  0  0  0  0  0  0  0  0
    9.7231   -5.2155    0.0000 O   0  0  0  0  0  0  0  0  0  0  0  0
    8.2591   -6.2539    0.0000 C   0  0  0  0  0  0  0  0  0  0  0  0
    7.5399   -6.6582    0.0000 C   0  0  0  0  0  0  0  0  0  0  0  0
    8.9594   -7.4994    0.0000 C   0  0  0  0  0  0  0  0  0  0  0  0
    6.7925   -9.5373    0.0000 H   0  0  0  0  0  0  0  0  0  0  0  0
    6.8208   -7.0625    0.0000 C   0  0  0  0  0  0  0  0  0  0  0  0
    4.6540   -9.1003    0.0000 O   0  0  0  0  0  0  0  0  0  0  0  0
    5.6622   -9.8264    0.0000 C   0  0  0  0  0  0  0  0  0  0  0  0
    4.8376   -9.8003    0.0000 O   0  0  0  0  0  0  0  0  0  0  0  0
    4.4027  -10.5014    0.0000 C   0  0  0  0  0  0  0  0  0  0  0  0
    3.6130  -10.2629    0.0000 C   0  0  0  0  0  0  0  0  0  0  0  0
    4.6942  -11.2732    0.0000 O   0  0  0  0  0  0  0  0  0  0  0  0
    7.5117   -9.1330    0.0000 C   0  0  0  0  0  0  0  0  0  0  0  0
    8.2308   -8.7287    0.0000 C   0  0  0  0  0  0  0  0  0  0  0  0
    8.2402   -7.9037    0.0000 C   0  0  0  0  0  0  0  0  0  0  0  0
    7.5305   -7.4831    0.0000 C   0  0  2  0  0  0  0  0  0  0  0  0
    5.3825   -7.8711    0.0000 C   0  0  0  0  0  0  0  0  0  0  0  0
    5.3731   -8.6960    0.0000 C   0  0  2  0  0  0  0  0  0  0  0  0
    6.0828   -9.1167    0.0000 C   0  0  2  0  0  0  0  0  0  0  0  0
    6.8019   -8.7124    0.0000 C   0  0  2  0  0  0  0  0  0  0  0  0
    6.8114   -7.8874    0.0000 C   0  0  2  0  0  0  0  0  0  0  0  0
    6.1017   -7.4668    0.0000 C   0  0  0  0  0  0  0  0  0  0  0  0
    6.4953   -9.8311    0.0000 C   0  0  0  0  0  0  0  0  0  0  0  0
  1  2  1  0  0  0  0
  2  3  1  0  0  0  0
  3  4  1  0  0  0  0
  4  5  1  0  0  0  0
  5  1  2  0  0  0  0
  7  1  1  0  0  0  0
  2  6  2  0  0  0  0
  8  7  2  0  0  0  0
 21  8  1  6  0  0  0
 20  9  2  0  0  0  0
 25 10  1  1  0  0  0
 26 11  1  6  0  0  0
 23 12  1  6  0  0  0
 13 14  1  0  0  0  0
 14 15  1  0  0  0  0
 15 16  1  0  0  0  0
 24 13  1  6  0  0  0
 15 17  2  0  0  0  0
 18 25  1  0  0  0  0
 19 18  1  0  0  0  0
 20 19  1  0  0  0  0
 21 20  1  0  0  0  0
 26 21  1  0  0  0  0
 22 27  1  0  0  0  0
 23 22  1  0  0  0  0
 24 23  1  0  0  0  0
 25 24  1  0  0  0  0
 26 25  1  0  0  0  0
 27 26  1  0  0  0  0
 24 28  1  1  0  0  0
M  END
>  <cdx:fragmentId>
47826

$$$$
