180.cdx
  Mrv1902 05222410242D          

 11 11  0  0  0  0            999 V2000
    8.5211   -6.7996    0.0000 O   0  0  0  0  0  0  0  0  0  0  0  0
    7.8066   -7.2121    0.0000 C   0  0  0  0  0  0  0  0  0  0  0  0
    7.0922   -6.7996    0.0000 C   0  0  1  0  0  0  0  0  0  0  0  0
    6.3777   -7.2121    0.0000 N   0  0  0  0  0  0  0  0  0  0  0  0
    7.8066   -8.0371    0.0000 O   0  0  0  0  0  0  0  0  0  0  0  0
    7.0922   -5.9746    0.0000 C   0  0  0  0  0  0  0  0  0  0  0  0
    6.3777   -5.5621    0.0000 C   0  0  0  0  0  0  0  0  0  0  0  0
    6.2914   -4.7416    0.0000 C   0  0  0  0  0  0  0  0  0  0  0  0
    5.4845   -4.5701    0.0000 N   0  0  0  0  0  0  0  0  0  0  0  0
    5.0720   -5.2845    0.0000 C   0  0  0  0  0  0  0  0  0  0  0  0
    5.6240   -5.8976    0.0000 N   0  0  0  0  0  0  0  0  0  0  0  0
  1  2  1  0  0  0  0
  2  3  1  0  0  0  0
  3  4  1  1  0  0  0
  2  5  2  0  0  0  0
  3  6  1  0  0  0  0
  6  7  1  0  0  0  0
  7  8  2  0  0  0  0
  8  9  1  0  0  0  0
  9 10  2  0  0  0  0
 10 11  1  0  0  0  0
 11  7  1  0  0  0  0
M  END
>  <cdx:fragmentId>
35

$$$$
