180538.cdx
  Mrv1902 05222410282D          

 25 27  0  0  0  0            999 V2000
    6.4649   -7.8359    0.0000 O   0  0  0  0  0  0  0  0  0  0  0  0
    7.1794   -8.2484    0.0000 C   0  0  2  0  0  0  0  0  0  0  0  0
    7.1794   -9.0734    0.0000 C   0  0  1  0  0  0  0  0  0  0  0  0
    6.4649   -9.4859    0.0000 C   0  0  2  0  0  0  0  0  0  0  0  0
    5.7504   -9.0734    0.0000 C   0  0  1  0  0  0  0  0  0  0  0  0
    5.7504   -8.2484    0.0000 C   0  0  1  0  0  0  0  0  0  0  0  0
    7.8938   -9.4859    0.0000 O   0  0  0  0  0  0  0  0  0  0  0  0
    6.4649  -10.3109    0.0000 O   0  0  0  0  0  0  0  0  0  0  0  0
    5.0360   -9.4859    0.0000 O   0  0  0  0  0  0  0  0  0  0  0  0
    5.0360   -7.8359    0.0000 C   0  0  0  0  0  0  0  0  0  0  0  0
    4.3215   -8.2484    0.0000 O   0  0  0  0  0  0  0  0  0  0  0  0
    7.8938   -7.8359    0.0000 O   0  0  0  0  0  0  0  0  0  0  0  0
    7.8938   -7.0109    0.0000 C   0  0  1  0  0  0  0  0  0  0  0  0
    8.6083   -6.5984    0.0000 C   0  0  1  0  0  0  0  0  0  0  0  0
    8.6083   -5.7734    0.0000 C   0  0  1  0  0  0  0  0  0  0  0  0
    7.8938   -5.3609    0.0000 C   0  0  0  0  0  0  0  0  0  0  0  0
    7.1794   -5.7734    0.0000 C   0  0  0  0  0  0  0  0  0  0  0  0
    7.1794   -6.5984    0.0000 O   0  0  0  0  0  0  0  0  0  0  0  0
    9.3929   -5.5184    0.0000 C   0  0  0  0  0  0  0  0  0  0  0  0
    9.8779   -6.1859    0.0000 C   0  0  0  0  0  0  0  0  0  0  0  0
    9.3929   -6.8533    0.0000 C   0  0  1  0  0  0  0  0  0  0  0  0
    9.2214   -7.6603    0.0000 C   0  0  0  0  0  0  0  0  0  0  0  0
   10.0060   -7.4053    0.0000 O   0  0  0  0  0  0  0  0  0  0  0  0
    8.6945   -4.9529    0.0000 H   0  0  0  0  0  0  0  0  0  0  0  0
    8.6945   -7.4188    0.0000 H   0  0  0  0  0  0  0  0  0  0  0  0
  1  2  1  0  0  0  0
  2  3  1  0  0  0  0
  3  4  1  0  0  0  0
  4  5  1  0  0  0  0
  5  6  1  0  0  0  0
  1  6  1  0  0  0  0
  3  7  1  6  0  0  0
  4  8  1  1  0  0  0
  5  9  1  6  0  0  0
 10 11  1  0  0  0  0
  6 10  1  1  0  0  0
 13 14  1  0  0  0  0
 14 15  1  0  0  0  0
 15 16  1  0  0  0  0
 16 17  2  0  0  0  0
 17 18  1  0  0  0  0
 13 18  1  0  0  0  0
 19 20  1  0  0  0  0
 20 21  1  0  0  0  0
 21 14  1  0  0  0  0
 19 15  1  0  0  0  0
 21 22  1  1  0  0  0
 21 23  1  6  0  0  0
 13 12  1  6  0  0  0
  2 12  1  1  0  0  0
 15 24  1  6  0  0  0
 14 25  1  6  0  0  0
M  END
>  <cdx:groupId>
14115

>  <cdx:fragmentId>
14065

$$$$
