(7R,7ﾡￇR,8S,8ﾡￇS,7ﾡￇﾡￇS,8ﾡￇﾡￇS)-threo-neo-olivil-4ﾡￇ-O-8-guaiacylglycerol ether.cdx
  Mrv1902 05222410242D          

 41 44  0  0  0  0            999 V2000
    4.4198   -4.6819    0.0000 C   0  0  1  0  0  0  0  0  0  0  0  0
    4.1835   -5.4723    0.0000 C   0  0  1  0  0  0  0  0  0  0  0  0
    4.8622   -5.9413    0.0000 O   0  0  0  0  0  0  0  0  0  0  0  0
    5.5180   -5.4407    0.0000 C   0  0  2  0  0  0  0  0  0  0  0  0
    5.2446   -4.6624    0.0000 C   0  0  2  0  0  0  0  0  0  0  0  0
    5.8279   -4.0790    0.0000 C   0  0  0  0  0  0  0  0  0  0  0  0
    3.4690   -5.8848    0.0000 C   0  0  0  0  0  0  0  0  0  0  0  0
    3.8364   -4.0985    0.0000 C   0  0  0  0  0  0  0  0  0  0  0  0
    2.7546   -5.4723    0.0000 C   0  0  0  0  0  0  0  0  0  0  0  0
    2.0401   -5.8848    0.0000 C   0  0  0  0  0  0  0  0  0  0  0  0
    2.0401   -6.7098    0.0000 C   0  0  0  0  0  0  0  0  0  0  0  0
    2.7546   -7.1223    0.0000 C   0  0  0  0  0  0  0  0  0  0  0  0
    3.4690   -6.7098    0.0000 C   0  0  0  0  0  0  0  0  0  0  0  0
    6.6529   -4.0790    0.0000 O   0  0  0  0  0  0  0  0  0  0  0  0
    3.0114   -4.0985    0.0000 O   0  0  0  0  0  0  0  0  0  0  0  0
    6.2325   -5.8532    0.0000 C   0  0  0  0  0  0  0  0  0  0  0  0
    6.2325   -6.6782    0.0000 C   0  0  0  0  0  0  0  0  0  0  0  0
    6.9469   -7.0907    0.0000 C   0  0  0  0  0  0  0  0  0  0  0  0
    7.6614   -6.6782    0.0000 C   0  0  0  0  0  0  0  0  0  0  0  0
    7.6614   -5.8532    0.0000 C   0  0  0  0  0  0  0  0  0  0  0  0
    6.9469   -5.4407    0.0000 C   0  0  0  0  0  0  0  0  0  0  0  0
    1.3256   -7.1223    0.0000 O   0  0  0  0  0  0  0  0  0  0  0  0
    2.7546   -7.9473    0.0000 O   0  0  0  0  0  0  0  0  0  0  0  0
    2.7546   -8.7723    0.0000 C   0  0  0  0  0  0  0  0  0  0  0  0
    6.9469   -7.9157    0.0000 O   0  0  0  0  0  0  0  0  0  0  0  0
    8.3759   -7.0907    0.0000 O   0  0  0  0  0  0  0  0  0  0  0  0
    9.0904   -6.6782    0.0000 C   0  0  2  0  0  0  0  0  0  0  0  0
    9.0904   -5.8532    0.0000 C   0  0  2  0  0  0  0  0  0  0  0  0
    9.8048   -5.4407    0.0000 C   0  0  0  0  0  0  0  0  0  0  0  0
   10.5193   -5.8532    0.0000 C   0  0  0  0  0  0  0  0  0  0  0  0
   11.2338   -5.4407    0.0000 C   0  0  0  0  0  0  0  0  0  0  0  0
   11.2338   -4.6157    0.0000 C   0  0  0  0  0  0  0  0  0  0  0  0
   10.5193   -4.2032    0.0000 C   0  0  0  0  0  0  0  0  0  0  0  0
    9.8048   -4.6157    0.0000 C   0  0  0  0  0  0  0  0  0  0  0  0
    8.3759   -5.4407    0.0000 O   0  0  0  0  0  0  0  0  0  0  0  0
    9.8048   -7.0907    0.0000 C   0  0  0  0  0  0  0  0  0  0  0  0
   10.5193   -6.6782    0.0000 O   0  0  0  0  0  0  0  0  0  0  0  0
   11.9482   -4.2032    0.0000 O   0  0  0  0  0  0  0  0  0  0  0  0
   11.9482   -5.8532    0.0000 O   0  0  0  0  0  0  0  0  0  0  0  0
    6.9469   -8.7407    0.0000 C   0  0  0  0  0  0  0  0  0  0  0  0
   12.6627   -6.2657    0.0000 C   0  0  0  0  0  0  0  0  0  0  0  0
  1  2  1  0  0  0  0
  2  3  1  0  0  0  0
  3  4  1  0  0  0  0
  4  5  1  0  0  0  0
  5  1  1  0  0  0  0
  5  6  1  1  0  0  0
  2  7  1  1  0  0  0
  1  8  1  6  0  0  0
  7  9  2  0  0  0  0
  9 10  1  0  0  0  0
 10 11  2  0  0  0  0
 11 12  1  0  0  0  0
 12 13  2  0  0  0  0
 13  7  1  0  0  0  0
  6 14  1  0  0  0  0
  8 15  1  0  0  0  0
  4 16  1  6  0  0  0
 16 17  2  0  0  0  0
 17 18  1  0  0  0  0
 18 19  2  0  0  0  0
 19 20  1  0  0  0  0
 20 21  2  0  0  0  0
 21 16  1  0  0  0  0
 11 22  1  0  0  0  0
 12 23  1  0  0  0  0
 18 25  1  0  0  0  0
 19 26  1  0  0  0  0
 26 27  1  0  0  0  0
 27 28  1  0  0  0  0
 28 29  1  0  0  0  0
 29 30  2  0  0  0  0
 30 31  1  0  0  0  0
 31 32  2  0  0  0  0
 32 33  1  0  0  0  0
 33 34  2  0  0  0  0
 34 29  1  0  0  0  0
 28 35  1  1  0  0  0
 27 36  1  6  0  0  0
 36 37  1  0  0  0  0
 32 38  1  0  0  0  0
 31 39  1  0  0  0  0
 23 24  1  0  0  0  0
 25 40  1  0  0  0  0
 39 41  1  0  0  0  0
M  STY  3   1 SUP   2 SUP   3 SUP
M  SAL   1  2  23  24
M  SBL   1  1  25
M  SMT   1 OCH3
M  SAP   1  1  23  12  1
M  SAL   2  2  25  40
M  SBL   2  1  26
M  SMT   2 OCH3
M  SAP   2  1  25  18  1
M  SAL   3  2  39  41
M  SBL   3  1  41
M  SMT   3 OCH3
M  SAP   3  1  39  31  1
M  END
>  <cdx:fragmentId>
5

$$$$
