181154.cdx
  Mrv1902 05222410282D          

 23 22  0  0  0  0            999 V2000
    1.0096   -8.2037    0.0000 C   0  0  0  0  0  0  0  0  0  0  0  0
    1.7240   -7.7912    0.0000 C   0  0  0  0  0  0  0  0  0  0  0  0
    2.4385   -8.2037    0.0000 C   0  0  0  0  0  0  0  0  0  0  0  0
    3.1530   -7.7912    0.0000 C   0  0  0  0  0  0  0  0  0  0  0  0
    3.8675   -8.2037    0.0000 C   0  0  0  0  0  0  0  0  0  0  0  0
    4.5819   -7.7912    0.0000 C   0  0  0  0  0  0  0  0  0  0  0  0
    5.2964   -8.2037    0.0000 C   0  0  0  0  0  0  0  0  0  0  0  0
    6.0109   -7.7912    0.0000 C   0  0  0  0  0  0  0  0  0  0  0  0
    6.7253   -8.2037    0.0000 C   0  0  0  0  0  0  0  0  0  0  0  0
    7.4398   -7.7912    0.0000 C   0  0  0  0  0  0  0  0  0  0  0  0
    8.1543   -8.2037    0.0000 C   0  0  0  0  0  0  0  0  0  0  0  0
    8.8688   -7.7912    0.0000 C   0  0  0  0  0  0  0  0  0  0  0  0
    9.5832   -8.2037    0.0000 C   0  0  0  0  0  0  0  0  0  0  0  0
   10.2977   -7.7912    0.0000 C   0  0  0  0  0  0  0  0  0  0  0  0
   11.0122   -8.2037    0.0000 C   0  0  0  0  0  0  0  0  0  0  0  0
   11.7266   -7.7912    0.0000 C   0  0  0  0  0  0  0  0  0  0  0  0
   12.4411   -8.2037    0.0000 C   0  0  0  0  0  0  0  0  0  0  0  0
   13.1556   -7.7912    0.0000 C   0  0  0  0  0  0  0  0  0  0  0  0
   13.8701   -8.2037    0.0000 C   0  0  0  0  0  0  0  0  0  0  0  0
   14.5845   -7.7912    0.0000 C   0  0  0  0  0  0  0  0  0  0  0  0
   15.2990   -8.2037    0.0000 C   0  0  0  0  0  0  0  0  0  0  0  0
   16.0135   -7.7912    0.0000 C   0  0  0  0  0  0  0  0  0  0  0  0
   16.7279   -8.2037    0.0000 C   0  0  0  0  0  0  0  0  0  0  0  0
  1  2  2  0  0  0  0
  2  3  1  0  0  0  0
  3  4  1  0  0  0  0
  4  5  1  0  0  0  0
  5  6  1  0  0  0  0
  6  7  1  0  0  0  0
  7  8  1  0  0  0  0
  8  9  1  0  0  0  0
  9 10  1  0  0  0  0
 10 11  1  0  0  0  0
 11 12  1  0  0  0  0
 12 13  1  0  0  0  0
 13 14  1  0  0  0  0
 14 15  1  0  0  0  0
 15 16  1  0  0  0  0
 16 17  1  0  0  0  0
 17 18  1  0  0  0  0
 18 19  1  0  0  0  0
 19 20  1  0  0  0  0
 20 21  1  0  0  0  0
 21 22  1  0  0  0  0
 22 23  1  0  0  0  0
M  END
>  <cdx:fragmentId>
14124

$$$$
