181174.cdx
  Mrv1902 05222410202D          

 26 25  0  0  0  0            999 V2000
    6.4612   -7.7437    0.0000 C   0  0  0  0  0  0  0  0  0  0  0  0
    7.1757   -8.1562    0.0000 C   0  0  0  0  0  0  0  0  0  0  0  0
    7.8901   -7.7437    0.0000 C   0  0  0  0  0  0  0  0  0  0  0  0
    8.6046   -8.1562    0.0000 C   0  0  0  0  0  0  0  0  0  0  0  0
    9.3191   -7.7437    0.0000 C   0  0  0  0  0  0  0  0  0  0  0  0
   10.0336   -8.1562    0.0000 C   0  0  0  0  0  0  0  0  0  0  0  0
   10.7480   -7.7437    0.0000 C   0  0  0  0  0  0  0  0  0  0  0  0
   11.4625   -8.1562    0.0000 C   0  0  0  0  0  0  0  0  0  0  0  0
   12.1770   -7.7437    0.0000 C   0  0  0  0  0  0  0  0  0  0  0  0
   12.8914   -8.1562    0.0000 C   0  0  0  0  0  0  0  0  0  0  0  0
   13.6059   -7.7437    0.0000 C   0  0  0  0  0  0  0  0  0  0  0  0
   14.3204   -8.1562    0.0000 C   0  0  0  0  0  0  0  0  0  0  0  0
   15.0349   -7.7437    0.0000 C   0  0  0  0  0  0  0  0  0  0  0  0
   15.7493   -8.1562    0.0000 C   0  0  0  0  0  0  0  0  0  0  0  0
   16.4638   -7.7437    0.0000 C   0  0  0  0  0  0  0  0  0  0  0  0
   17.1783   -8.1562    0.0000 C   0  0  0  0  0  0  0  0  0  0  0  0
   17.8927   -7.7437    0.0000 C   0  0  0  0  0  0  0  0  0  0  0  0
   18.6072   -8.1562    0.0000 C   0  0  0  0  0  0  0  0  0  0  0  0
   19.3217   -7.7437    0.0000 C   0  0  0  0  0  0  0  0  0  0  0  0
   20.0361   -8.1562    0.0000 C   0  0  0  0  0  0  0  0  0  0  0  0
   20.7506   -7.7437    0.0000 C   0  0  0  0  0  0  0  0  0  0  0  0
   21.4651   -8.1562    0.0000 C   0  0  0  0  0  0  0  0  0  0  0  0
   22.1796   -7.7437    0.0000 C   0  0  0  0  0  0  0  0  0  0  0  0
   22.8940   -8.1562    0.0000 C   0  0  0  0  0  0  0  0  0  0  0  0
   23.6085   -7.7437    0.0000 C   0  0  0  0  0  0  0  0  0  0  0  0
    5.7467   -8.1562    0.0000 O   0  0  0  0  0  0  0  0  0  0  0  0
  1  2  1  0  0  0  0
  2  3  1  0  0  0  0
  3  4  1  0  0  0  0
  4  5  1  0  0  0  0
  5  6  1  0  0  0  0
  6  7  1  0  0  0  0
  7  8  1  0  0  0  0
  8  9  1  0  0  0  0
  9 10  1  0  0  0  0
 10 11  1  0  0  0  0
 11 12  1  0  0  0  0
 12 13  1  0  0  0  0
 13 14  1  0  0  0  0
 14 15  1  0  0  0  0
 15 16  1  0  0  0  0
 16 17  1  0  0  0  0
 17 18  1  0  0  0  0
 18 19  1  0  0  0  0
 19 20  1  0  0  0  0
 20 21  1  0  0  0  0
 21 22  1  0  0  0  0
 22 23  1  0  0  0  0
 23 24  1  0  0  0  0
 24 25  1  0  0  0  0
  1 26  2  0  0  0  0
M  END
>  <cdx:fragmentId>
14283

$$$$
