1814.cdx
  Mrv1902 05222410222D          

 36 39  0  0  0  0            999 V2000
    7.7102   -4.7025    0.0000 C   0  0  0  0  0  0  0  0  0  0  0  0
    7.7102   -5.5275    0.0000 C   0  0  0  0  0  0  0  0  0  0  0  0
    8.4246   -5.9400    0.0000 C   0  0  0  0  0  0  0  0  0  0  0  0
    9.1391   -5.5275    0.0000 C   0  0  0  0  0  0  0  0  0  0  0  0
    9.1391   -4.7025    0.0000 C   0  0  0  0  0  0  0  0  0  0  0  0
    8.4246   -4.2900    0.0000 C   0  0  0  0  0  0  0  0  0  0  0  0
    6.9957   -4.2900    0.0000 O   0  0  0  0  0  0  0  0  0  0  0  0
    9.8536   -4.2900    0.0000 C   0  0  0  0  0  0  0  0  0  0  0  0
   10.5680   -4.7025    0.0000 C   0  0  0  0  0  0  0  0  0  0  0  0
   11.2825   -4.2900    0.0000 C   0  0  0  0  0  0  0  0  0  0  0  0
   11.9970   -4.7025    0.0000 O   0  0  0  0  0  0  0  0  0  0  0  0
    7.0971   -6.0795    0.0000 O   0  0  0  0  0  0  0  0  0  0  0  0
    7.4326   -6.8332    0.0000 C   0  0  2  0  0  0  0  0  0  0  0  0
    8.2531   -6.7470    0.0000 C   0  0  2  0  0  0  0  0  0  0  0  0
    7.0201   -7.5477    0.0000 C   0  0  0  0  0  0  0  0  0  0  0  0
    8.8365   -7.3303    0.0000 C   0  0  0  0  0  0  0  0  0  0  0  0
    6.1951   -7.5477    0.0000 C   0  0  0  0  0  0  0  0  0  0  0  0
    5.7826   -8.2621    0.0000 C   0  0  0  0  0  0  0  0  0  0  0  0
    6.1951   -8.9766    0.0000 C   0  0  0  0  0  0  0  0  0  0  0  0
    7.0201   -8.9766    0.0000 C   0  0  0  0  0  0  0  0  0  0  0  0
    7.4326   -8.2621    0.0000 C   0  0  0  0  0  0  0  0  0  0  0  0
    7.4326   -9.6911    0.0000 O   0  0  0  0  0  0  0  0  0  0  0  0
    3.6470  -10.1475    0.0000 C   0  0  2  0  0  0  0  0  0  0  0  0
    3.6470  -10.9725    0.0000 C   0  0  2  0  0  0  0  0  0  0  0  0
    4.3615  -11.3850    0.0000 C   0  0  1  0  0  0  0  0  0  0  0  0
    5.0760  -10.9725    0.0000 C   0  0  2  0  0  0  0  0  0  0  0  0
    5.0760  -10.1475    0.0000 C   0  0  1  0  0  0  0  0  0  0  0  0
    4.3615   -9.7350    0.0000 O   0  0  0  0  0  0  0  0  0  0  0  0
    5.7904   -9.7350    0.0000 O   0  0  0  0  0  0  0  0  0  0  0  0
    2.9326   -9.7350    0.0000 C   0  0  0  0  0  0  0  0  0  0  0  0
    4.3615  -12.2100    0.0000 O   0  0  0  0  0  0  0  0  0  0  0  0
    5.7904  -11.3850    0.0000 O   0  0  0  0  0  0  0  0  0  0  0  0
    2.9326  -11.3850    0.0000 O   0  0  0  0  0  0  0  0  0  0  0  0
    2.2181  -10.1475    0.0000 O   0  0  0  0  0  0  0  0  0  0  0  0
    6.2812   -4.7025    0.0000 C   0  0  0  0  0  0  0  0  0  0  0  0
    7.0201  -10.4056    0.0000 C   0  0  0  0  0  0  0  0  0  0  0  0
  1  2  2  0  0  0  0
  2  3  1  0  0  0  0
  3  4  2  0  0  0  0
  4  5  1  0  0  0  0
  5  6  2  0  0  0  0
  6  1  1  0  0  0  0
  1  7  1  0  0  0  0
  5  8  1  0  0  0  0
  8  9  1  0  0  0  0
  9 10  1  0  0  0  0
 10 11  1  0  0  0  0
  2 12  1  0  0  0  0
 12 13  1  0  0  0  0
 13 14  1  0  0  0  0
 14  3  1  0  0  0  0
 13 15  1  6  0  0  0
 14 16  1  1  0  0  0
 15 17  2  0  0  0  0
 17 18  1  0  0  0  0
 18 19  2  0  0  0  0
 19 20  1  0  0  0  0
 20 21  2  0  0  0  0
 21 15  1  0  0  0  0
 20 22  1  0  0  0  0
 23 24  1  0  0  0  0
 24 25  1  0  0  0  0
 25 26  1  0  0  0  0
 26 27  1  0  0  0  0
 27 28  1  0  0  0  0
 28 23  1  0  0  0  0
 27 29  1  1  0  0  0
 23 30  1  1  0  0  0
 25 31  1  1  0  0  0
 26 32  1  6  0  0  0
 24 33  1  6  0  0  0
 30 34  1  0  0  0  0
 19 29  1  0  0  0  0
  7 35  1  0  0  0  0
 22 36  1  0  0  0  0
M  END
>  <cdx:fragmentId>
5

$$$$
