181538.cdx
  Mrv1902 05222410222D          

 29 34  0  0  0  0            999 V2000
    7.9355   -7.5292    0.0000 O   0  0  0  0  0  0  0  0  0  0  0  0
    6.5069   -7.5598    0.0000 C   0  0  0  0  0  0  0  0  0  0  0  0
    6.4892   -6.7350    0.0000 C   0  0  0  0  0  0  0  0  0  0  0  0
    5.7660   -6.3379    0.0000 C   0  0  0  0  0  0  0  0  0  0  0  0
    5.7483   -5.5131    0.0000 C   0  0  0  0  0  0  0  0  0  0  0  0
    5.0252   -5.1160    0.0000 C   0  0  0  0  0  0  0  0  0  0  0  0
    4.3197   -5.5437    0.0000 C   0  0  0  0  0  0  0  0  0  0  0  0
    4.3374   -6.3686    0.0000 C   0  0  0  0  0  0  0  0  0  0  0  0
    5.0606   -6.7656    0.0000 C   0  0  0  0  0  0  0  0  0  0  0  0
    4.9064   -7.5761    0.0000 O   0  0  0  0  0  0  0  0  0  0  0  0
    4.0879   -7.6799    0.0000 C   0  0  0  0  0  0  0  0  0  0  0  0
    3.7363   -6.9336    0.0000 O   0  0  0  0  0  0  0  0  0  0  0  0
    6.4538   -5.0854    0.0000 C   0  0  0  0  0  0  0  0  0  0  0  0
    7.1770   -5.4824    0.0000 C   0  0  0  0  0  0  0  0  0  0  0  0
    7.1947   -6.3073    0.0000 N   0  0  0  0  0  0  0  0  0  0  0  0
    7.9178   -6.7044    0.0000 C   0  0  0  0  0  0  0  0  0  0  0  0
    7.8824   -5.0547    0.0000 C   0  0  0  0  0  0  0  0  0  0  0  0
    8.6056   -5.4518    0.0000 C   0  0  0  0  0  0  0  0  0  0  0  0
    9.3111   -5.0241    0.0000 C   0  0  0  0  0  0  0  0  0  0  0  0
    9.2934   -4.1992    0.0000 C   0  0  0  0  0  0  0  0  0  0  0  0
    8.5702   -3.8022    0.0000 C   0  0  0  0  0  0  0  0  0  0  0  0
    7.8647   -4.2299    0.0000 C   0  0  0  0  0  0  0  0  0  0  0  0
    7.1416   -3.8328    0.0000 C   0  0  0  0  0  0  0  0  0  0  0  0
    6.4361   -4.2605    0.0000 C   0  0  0  0  0  0  0  0  0  0  0  0
   10.0724   -3.9276    0.0000 O   0  0  0  0  0  0  0  0  0  0  0  0
   10.5715   -4.5844    0.0000 C   0  0  0  0  0  0  0  0  0  0  0  0
   10.1010   -5.2621    0.0000 O   0  0  0  0  0  0  0  0  0  0  0  0
    7.2300   -7.9569    0.0000 C   0  0  0  0  0  0  0  0  0  0  0  0
    7.2477   -8.7817    0.0000 C   0  0  0  0  0  0  0  0  0  0  0  0
 28  1  2  0  0  0  0
 29 28  1  0  0  0  0
 28  2  1  0  0  0  0
  2  3  1  0  0  0  0
  3  4  1  0  0  0  0
  4  5  2  0  0  0  0
  5  6  1  0  0  0  0
  6  7  2  0  0  0  0
  7  8  1  0  0  0  0
  8  9  2  0  0  0  0
  4  9  1  0  0  0  0
  9 10  1  0  0  0  0
 10 11  1  0  0  0  0
 11 12  1  0  0  0  0
  8 12  1  0  0  0  0
  5 13  1  0  0  0  0
 13 14  2  0  0  0  0
 14 15  1  0  0  0  0
  3 15  1  0  0  0  0
 15 16  1  0  0  0  0
 14 17  1  0  0  0  0
 17 18  2  0  0  0  0
 18 19  1  0  0  0  0
 19 20  2  0  0  0  0
 20 21  1  0  0  0  0
 21 22  2  0  0  0  0
 17 22  1  0  0  0  0
 22 23  1  0  0  0  0
 23 24  2  0  0  0  0
 13 24  1  0  0  0  0
 20 25  1  0  0  0  0
 25 26  1  0  0  0  0
 26 27  1  0  0  0  0
 19 27  1  0  0  0  0
M  END
>  <cdx:fragmentId>
14364

$$$$
