1819.cdx
  Mrv1902 05222410242D          

 25 26  0  0  0  0            999 V2000
    4.9395  -10.0238    0.0000 C   0  0  0  0  0  0  0  0  0  0  0  0
    4.9395  -10.8488    0.0000 C   0  0  0  0  0  0  0  0  0  0  0  0
    5.6540  -11.2613    0.0000 C   0  0  0  0  0  0  0  0  0  0  0  0
    6.3685  -10.8488    0.0000 C   0  0  0  0  0  0  0  0  0  0  0  0
    6.3685  -10.0238    0.0000 C   0  0  0  0  0  0  0  0  0  0  0  0
    5.6540   -9.6112    0.0000 C   0  0  0  0  0  0  0  0  0  0  0  0
    5.6540  -12.0862    0.0000 O   0  0  0  0  0  0  0  0  0  0  0  0
    7.0829  -11.2613    0.0000 O   0  0  0  0  0  0  0  0  0  0  0  0
    5.6540   -8.7862    0.0000 C   0  0  2  0  0  0  0  0  0  0  0  0
    4.9395   -8.3737    0.0000 C   0  0  2  0  0  0  0  0  0  0  0  0
    4.2251   -8.7862    0.0000 C   0  0  0  0  0  0  0  0  0  0  0  0
    4.9395   -7.5488    0.0000 O   0  0  0  0  0  0  0  0  0  0  0  0
    6.3685   -8.3737    0.0000 O   0  0  0  0  0  0  0  0  0  0  0  0
    5.6540   -7.1362    0.0000 C   0  0  0  0  0  0  0  0  0  0  0  0
    5.6540   -6.3113    0.0000 C   0  0  0  0  0  0  0  0  0  0  0  0
    6.3685   -7.5488    0.0000 C   0  0  0  0  0  0  0  0  0  0  0  0
    7.0829   -7.1362    0.0000 C   0  0  0  0  0  0  0  0  0  0  0  0
    7.0829   -6.3113    0.0000 C   0  0  0  0  0  0  0  0  0  0  0  0
    6.3685   -5.8988    0.0000 C   0  0  0  0  0  0  0  0  0  0  0  0
    4.9395   -5.8988    0.0000 O   0  0  0  0  0  0  0  0  0  0  0  0
    7.7974   -5.8988    0.0000 C   0  0  0  0  0  0  0  0  0  0  0  0
    8.5119   -6.3113    0.0000 C   0  0  0  0  0  0  0  0  0  0  0  0
    9.2264   -5.8988    0.0000 C   0  0  0  0  0  0  0  0  0  0  0  0
    9.9408   -6.3113    0.0000 O   0  0  0  0  0  0  0  0  0  0  0  0
    7.7974  -10.8487    0.0000 C   0  0  0  0  0  0  0  0  0  0  0  0
  1  2  2  0  0  0  0
  2  3  1  0  0  0  0
  3  4  2  0  0  0  0
  4  5  1  0  0  0  0
  5  6  2  0  0  0  0
  6  1  1  0  0  0  0
  3  7  1  0  0  0  0
  4  8  1  0  0  0  0
  6  9  1  0  0  0  0
  9 10  1  0  0  0  0
 10 11  1  0  0  0  0
 10 12  1  6  0  0  0
  9 13  1  6  0  0  0
 12 14  1  0  0  0  0
 14 15  2  0  0  0  0
 14 16  1  0  0  0  0
 16 17  2  0  0  0  0
 17 18  1  0  0  0  0
 18 19  2  0  0  0  0
 19 15  1  0  0  0  0
 15 20  1  0  0  0  0
 18 21  1  0  0  0  0
 21 22  1  0  0  0  0
 22 23  1  0  0  0  0
 23 24  1  0  0  0  0
  8 25  1  0  0  0  0
M  END
>  <cdx:fragmentId>
5

$$$$
