182.cdx
  Mrv1902 05222410252D          

  8  7  0  0  0  0            999 V2000
    6.5288   -5.5473    0.0000 C   0  0  2  0  0  0  0  0  0  0  0  0
    7.2432   -7.6098    0.0000 O   0  0  0  0  0  0  0  0  0  0  0  0
    5.8143   -6.7848    0.0000 N   0  0  0  0  0  0  0  0  0  0  0  0
    6.5288   -6.3723    0.0000 C   0  0  2  0  0  0  0  0  0  0  0  0
    7.2432   -6.7848    0.0000 C   0  0  0  0  0  0  0  0  0  0  0  0
    7.9577   -6.3723    0.0000 O   0  0  0  0  0  0  0  0  0  0  0  0
    5.8143   -5.1348    0.0000 O   0  0  0  0  0  0  0  0  0  0  0  0
    7.2432   -5.1348    0.0000 C   0  0  0  0  0  0  0  0  0  0  0  0
  4  1  1  0  0  0  0
  5  2  2  0  0  0  0
  4  3  1  1  0  0  0
  5  4  1  0  0  0  0
  6  5  1  0  0  0  0
  1  7  1  6  0  0  0
  1  8  1  0  0  0  0
M  END
>  <cdx:fragmentId>
24

$$$$
