182071.cdx
  Mrv1902 05222410282D          

 16 17  0  0  0  0            999 V2000
    3.3571   -9.2677    0.0000 C   0  0  0  0  0  0  0  0  0  0  0  0
    4.1414   -9.5238    0.0000 C   0  0  0  0  0  0  0  0  0  0  0  0
    4.9256   -9.7800    0.0000 C   0  0  0  0  0  0  0  0  0  0  0  0
    6.3780   -9.5522    0.0000 S   0  0  0  0  0  0  0  0  0  0  0  0
    5.7098  -10.0361    0.0000 C   0  0  0  0  0  0  0  0  0  0  0  0
    5.9635  -10.8211    0.0000 C   0  0  0  0  0  0  0  0  0  0  0  0
    6.7885  -10.8224    0.0000 C   0  0  0  0  0  0  0  0  0  0  0  0
    7.0447  -10.0382    0.0000 C   0  0  0  0  0  0  0  0  0  0  0  0
   10.5628   -9.4916    0.0000 O   0  0  0  0  0  0  0  0  0  0  0  0
   10.1191  -10.8499    0.0000 O   0  0  0  0  0  0  0  0  0  0  0  0
    9.9488  -10.0427    0.0000 C   0  0  0  0  0  0  0  0  0  0  0  0
    8.4964  -10.2704    0.0000 S   0  0  0  0  0  0  0  0  0  0  0  0
    7.8297   -9.7845    0.0000 C   0  0  0  0  0  0  0  0  0  0  0  0
    8.0859   -9.0002    0.0000 C   0  0  0  0  0  0  0  0  0  0  0  0
    8.9109   -9.0015    0.0000 C   0  0  0  0  0  0  0  0  0  0  0  0
    9.1646   -9.7865    0.0000 C   0  0  0  0  0  0  0  0  0  0  0  0
 13  8  1  0  0  0  0
  5  3  1  0  0  0  0
  2  1  1  0  0  0  0
  3  2  3  0  0  0  0
  8  4  1  0  0  0  0
  5  4  1  0  0  0  0
  6  5  2  0  0  0  0
  7  6  1  0  0  0  0
  8  7  2  0  0  0  0
 16 11  1  0  0  0  0
 11  9  1  0  0  0  0
 11 10  2  0  0  0  0
 16 12  1  0  0  0  0
 13 12  1  0  0  0  0
 14 13  2  0  0  0  0
 15 14  1  0  0  0  0
 16 15  2  0  0  0  0
M  END
>  <cdx:fragmentId>
21

$$$$
