182145.cdx
  Mrv1902 05222410222D          

 32 35  0  0  0  0            999 V2000
    4.8768   -7.9526    0.0000 C   0  0  0  0  0  0  0  0  0  0  0  0
    4.1624   -8.3651    0.0000 C   0  0  0  0  0  0  0  0  0  0  0  0
    4.1624   -9.1901    0.0000 C   0  0  0  0  0  0  0  0  0  0  0  0
    4.8768   -9.6026    0.0000 C   0  0  0  0  0  0  0  0  0  0  0  0
    5.5913   -9.1901    0.0000 C   0  0  0  0  0  0  0  0  0  0  0  0
    6.3058   -9.6026    0.0000 C   0  0  0  0  0  0  0  0  0  0  0  0
    7.0203   -9.1901    0.0000 C   0  0  0  0  0  0  0  0  0  0  0  0
    7.0203   -8.3651    0.0000 C   0  0  0  0  0  0  0  0  0  0  0  0
    7.7347   -7.9526    0.0000 C   0  0  2  0  0  0  0  0  0  0  0  0
    8.5194   -8.2075    0.0000 C   0  0  0  0  0  0  0  0  0  0  0  0
    9.0043   -7.5401    0.0000 C   0  0  0  0  0  0  0  0  0  0  0  0
    8.5194   -6.8726    0.0000 C   0  0  1  0  0  0  0  0  0  0  0  0
    7.7347   -7.1276    0.0000 C   0  0  1  0  0  0  0  0  0  0  0  0
    7.0203   -6.7151    0.0000 C   0  0  0  0  0  0  0  0  0  0  0  0
    6.3058   -7.1276    0.0000 C   0  0  0  0  0  0  0  0  0  0  0  0
    6.3058   -7.9526    0.0000 C   0  0  2  0  0  0  0  0  0  0  0  0
    5.5913   -8.3651    0.0000 C   0  0  1  0  0  0  0  0  0  0  0  0
    3.4479   -9.6026    0.0000 O   0  0  0  0  0  0  0  0  0  0  0  0
    7.8210   -6.3071    0.0000 C   0  0  0  0  0  0  0  0  0  0  0  0
    5.5913   -7.5401    0.0000 C   0  0  0  0  0  0  0  0  0  0  0  0
    8.2223   -5.4749    0.0000 C   0  0  0  0  0  0  0  0  0  0  0  0
    8.7743   -6.0880    0.0000 C   0  0  2  0  0  0  0  0  0  0  0  0
    9.5813   -5.9165    0.0000 C   0  0  0  0  0  0  0  0  0  0  0  0
    9.8362   -5.1319    0.0000 C   0  0  0  0  0  0  0  0  0  0  0  0
   10.6432   -4.9603    0.0000 C   0  0  1  0  0  0  0  0  0  0  0  0
   10.8981   -4.1757    0.0000 C   0  0  0  0  0  0  0  0  0  0  0  0
   10.3461   -3.5626    0.0000 C   0  0  0  0  0  0  0  0  0  0  0  0
   11.7051   -4.0042    0.0000 C   0  0  0  0  0  0  0  0  0  0  0  0
   11.1952   -5.5734    0.0000 C   0  0  0  0  0  0  0  0  0  0  0  0
    6.3058   -8.7776    0.0000 H   0  0  0  0  0  0  0  0  0  0  0  0
    7.7347   -8.7776    0.0000 H   0  0  0  0  0  0  0  0  0  0  0  0
    9.3040   -6.6177    0.0000 H   0  0  0  0  0  0  0  0  0  0  0  0
  1  2  1  0  0  0  0
  2  3  1  0  0  0  0
  3  4  1  0  0  0  0
  4  5  1  0  0  0  0
  5  6  2  0  0  0  0
  6  7  1  0  0  0  0
  7  8  2  0  0  0  0
  8  9  1  0  0  0  0
  9 10  1  0  0  0  0
 10 11  1  0  0  0  0
 12 11  1  0  0  0  0
 12 13  1  0  0  0  0
  9 13  1  0  0  0  0
 13 14  1  0  0  0  0
 14 15  1  0  0  0  0
 15 16  1  0  0  0  0
  8 16  1  0  0  0  0
 16 17  1  0  0  0  0
  5 17  1  0  0  0  0
  1 17  1  0  0  0  0
  3 18  1  0  0  0  0
 13 19  1  1  0  0  0
 17 20  1  1  0  0  0
 22 21  1  6  0  0  0
 22 23  1  0  0  0  0
 23 24  2  0  0  0  0
 24 25  1  0  0  0  0
 25 26  1  0  0  0  0
 26 27  1  0  0  0  0
 26 28  1  0  0  0  0
 25 29  1  1  0  0  0
 12 22  1  0  0  0  0
 16 30  1  6  0  0  0
  9 31  1  6  0  0  0
 12 32  1  6  0  0  0
M  END
>  <cdx:groupId>
98

>  <cdx:fragmentId>
5

$$$$
