182214.cdx
  Mrv1902 05222410232D          

 31 33  0  0  0  0            999 V2000
    9.0387  -12.5976    0.0000 C   0  0  2  0  0  0  0  0  0  0  0  0
    9.7531  -13.0101    0.0000 C   0  0  0  0  0  0  0  0  0  0  0  0
    9.7531  -13.8351    0.0000 C   0  0  0  0  0  0  0  0  0  0  0  0
    9.0387  -14.2476    0.0000 C   0  0  0  0  0  0  0  0  0  0  0  0
    9.0387  -15.0726    0.0000 C   0  0  0  0  0  0  0  0  0  0  0  0
    8.3242  -15.4851    0.0000 C   0  0  0  0  0  0  0  0  0  0  0  0
    7.6097  -15.0726    0.0000 C   0  0  0  0  0  0  0  0  0  0  0  0
    7.6097  -14.2476    0.0000 C   0  0  0  0  0  0  0  0  0  0  0  0
    8.3242  -13.8351    0.0000 C   0  0  0  0  0  0  0  0  0  0  0  0
    8.3242  -13.0101    0.0000 O   0  0  0  0  0  0  0  0  0  0  0  0
   10.4676  -14.2476    0.0000 O   0  0  0  0  0  0  0  0  0  0  0  0
    8.3242  -16.3101    0.0000 C   0  0  0  0  0  0  0  0  0  0  0  0
    9.0387  -16.7226    0.0000 C   0  0  1  0  0  0  0  0  0  0  0  0
    9.7531  -16.3101    0.0000 C   0  0  0  0  0  0  0  0  0  0  0  0
   10.4676  -16.7226    0.0000 C   0  0  0  0  0  0  0  0  0  0  0  0
   11.1821  -16.3101    0.0000 C   0  0  0  0  0  0  0  0  0  0  0  0
   11.1821  -15.4851    0.0000 C   0  0  0  0  0  0  0  0  0  0  0  0
    9.7531  -17.9601    0.0000 C   0  0  0  0  0  0  0  0  0  0  0  0
    9.0387  -17.5476    0.0000 C   0  0  0  0  0  0  0  0  0  0  0  0
    8.3242  -17.9601    0.0000 C   0  0  0  0  0  0  0  0  0  0  0  0
   11.8965  -16.7226    0.0000 C   0  0  0  0  0  0  0  0  0  0  0  0
    6.8952  -15.4851    0.0000 O   0  0  0  0  0  0  0  0  0  0  0  0
    9.7531  -15.4851    0.0000 O   0  0  0  0  0  0  0  0  0  0  0  0
    9.0387  -11.7726    0.0000 C   0  0  0  0  0  0  0  0  0  0  0  0
    8.3242  -11.3601    0.0000 C   0  0  0  0  0  0  0  0  0  0  0  0
    8.3242  -10.5351    0.0000 C   0  0  0  0  0  0  0  0  0  0  0  0
    9.0387  -10.1226    0.0000 C   0  0  0  0  0  0  0  0  0  0  0  0
    9.7531  -10.5351    0.0000 C   0  0  0  0  0  0  0  0  0  0  0  0
    9.7531  -11.3601    0.0000 C   0  0  0  0  0  0  0  0  0  0  0  0
    9.0387   -9.2976    0.0000 O   0  0  0  0  0  0  0  0  0  0  0  0
    7.6097  -11.7726    0.0000 O   0  0  0  0  0  0  0  0  0  0  0  0
  1  2  1  0  0  0  0
  2  3  1  0  0  0  0
  3  4  1  0  0  0  0
  4  5  1  0  0  0  0
  5  6  2  0  0  0  0
  6  7  1  0  0  0  0
  7  8  2  0  0  0  0
  8  9  1  0  0  0  0
  4  9  2  0  0  0  0
  9 10  1  0  0  0  0
  1 10  1  0  0  0  0
  3 11  2  0  0  0  0
 12 13  1  0  0  0  0
 13 14  1  0  0  0  0
 14 15  1  0  0  0  0
 15 16  2  0  0  0  0
 16 17  1  0  0  0  0
 18 19  2  0  0  0  0
 19 20  1  0  0  0  0
 13 19  1  1  0  0  0
 16 21  1  0  0  0  0
  6 12  1  0  0  0  0
  7 22  1  0  0  0  0
  5 23  1  0  0  0  0
 24 25  1  0  0  0  0
 25 26  2  0  0  0  0
 26 27  1  0  0  0  0
 27 28  2  0  0  0  0
 28 29  1  0  0  0  0
 24 29  2  0  0  0  0
 27 30  1  0  0  0  0
 25 31  1  0  0  0  0
  1 24  1  6  0  0  0
M  END
>  <cdx:fragmentId>
39422

$$$$
