182251.cdx
  Mrv1902 05222410192D          

 21 24  0  0  0  0            999 V2000
    5.5341   -9.7850    0.0000 C   0  0  0  0  0  0  0  0  0  0  0  0
    5.5341  -10.6100    0.0000 C   0  0  0  0  0  0  0  0  0  0  0  0
    6.2486  -11.0225    0.0000 C   0  0  0  0  0  0  0  0  0  0  0  0
    6.9631  -10.6100    0.0000 C   0  0  0  0  0  0  0  0  0  0  0  0
    7.6776  -11.0225    0.0000 C   0  0  0  0  0  0  0  0  0  0  0  0
    8.3920  -10.6100    0.0000 C   0  0  0  0  0  0  0  0  0  0  0  0
    8.3920   -9.7850    0.0000 C   0  0  0  0  0  0  0  0  0  0  0  0
    7.6776   -9.3725    0.0000 C   0  0  0  0  0  0  0  0  0  0  0  0
    6.9631   -9.7850    0.0000 C   0  0  0  0  0  0  0  0  0  0  0  0
    6.2486   -9.3725    0.0000 O   0  0  0  0  0  0  0  0  0  0  0  0
    9.1767   -9.5300    0.0000 O   0  0  0  0  0  0  0  0  0  0  0  0
    9.1767  -10.8649    0.0000 C   0  0  0  0  0  0  0  0  0  0  0  0
    9.6616  -10.1975    0.0000 C   0  0  0  0  0  0  0  0  0  0  0  0
    4.8197   -9.3725    0.0000 O   0  0  0  0  0  0  0  0  0  0  0  0
    7.6776   -8.5475    0.0000 O   0  0  0  0  0  0  0  0  0  0  0  0
    8.3920   -8.1350    0.0000 C   0  0  0  0  0  0  0  0  0  0  0  0
    8.8045   -6.5955    0.0000 O   0  0  0  0  0  0  0  0  0  0  0  0
    8.3920   -7.3100    0.0000 C   0  0  0  0  0  0  0  0  0  0  0  0
    7.9795   -6.5955    0.0000 C   0  0  0  0  0  0  0  0  0  0  0  0
    7.1545   -6.5955    0.0000 C   0  0  0  0  0  0  0  0  0  0  0  0
    7.5670   -5.8810    0.0000 C   0  0  0  0  0  0  0  0  0  0  0  0
  1  2  1  0  0  0  0
  2  3  2  0  0  0  0
  3  4  1  0  0  0  0
  4  5  2  0  0  0  0
  5  6  1  0  0  0  0
  6  7  2  0  0  0  0
  7  8  1  0  0  0  0
  8  9  2  0  0  0  0
  4  9  1  0  0  0  0
  9 10  1  0  0  0  0
  1 10  1  0  0  0  0
 12 13  2  0  0  0  0
 11 13  1  0  0  0  0
 12  6  1  0  0  0  0
 11  7  1  0  0  0  0
  1 14  2  0  0  0  0
 15 16  1  0  0  0  0
 17 18  1  0  0  0  0
 18 19  1  0  0  0  0
 17 19  1  0  0  0  0
 19 20  1  0  0  0  0
 19 21  1  0  0  0  0
 16 18  1  0  0  0  0
  8 15  1  0  0  0  0
M  END
>  <cdx:fragmentId>
5

$$$$
