1822.cdx
  Mrv1902 05222410242D          

 29 31  0  0  0  0            999 V2000
    8.5542   -5.7615    0.0000 C   0  0  0  0  0  0  0  0  0  0  0  0
    3.7932   -5.6806    0.0000 C   0  0  0  0  0  0  0  0  0  0  0  0
    3.3807   -6.3951    0.0000 O   0  0  0  0  0  0  0  0  0  0  0  0
    2.5557   -7.8240    0.0000 O   0  0  0  0  0  0  0  0  0  0  0  0
    4.6182   -7.1096    0.0000 C   0  0  0  0  0  0  0  0  0  0  0  0
    3.7932   -7.1096    0.0000 C   0  0  0  0  0  0  0  0  0  0  0  0
    3.3807   -7.8240    0.0000 C   0  0  0  0  0  0  0  0  0  0  0  0
    3.7932   -8.5385    0.0000 C   0  0  0  0  0  0  0  0  0  0  0  0
    4.6182   -8.5385    0.0000 C   0  0  0  0  0  0  0  0  0  0  0  0
    5.0307   -7.8240    0.0000 C   0  0  0  0  0  0  0  0  0  0  0  0
    5.6586  -10.8699    0.0000 O   0  0  0  0  0  0  0  0  0  0  0  0
    4.2784  -10.5000    0.0000 C   0  0  0  0  0  0  0  0  0  0  0  0
    5.0753  -10.2865    0.0000 C   0  0  0  0  0  0  0  0  0  0  0  0
    5.2888   -9.4896    0.0000 O   0  0  0  0  0  0  0  0  0  0  0  0
    6.0857   -9.2761    0.0000 C   0  0  0  0  0  0  0  0  0  0  0  0
    6.3406   -7.1566    0.0000 O   0  0  0  0  0  0  0  0  0  0  0  0
    5.8557   -7.8240    0.0000 C   0  0  2  0  0  0  0  0  0  0  0  0
    6.3406   -8.4915    0.0000 C   0  0  1  0  0  0  0  0  0  0  0  0
   10.6976   -8.6490    0.0000 C   0  0  0  0  0  0  0  0  0  0  0  0
   11.4121   -8.2365    0.0000 O   0  0  0  0  0  0  0  0  0  0  0  0
    9.2687   -8.6490    0.0000 C   0  0  0  0  0  0  0  0  0  0  0  0
    9.9831   -8.2365    0.0000 C   0  0  0  0  0  0  0  0  0  0  0  0
    7.1252   -8.2365    0.0000 C   0  0  0  0  0  0  0  0  0  0  0  0
    7.8397   -8.6490    0.0000 C   0  0  0  0  0  0  0  0  0  0  0  0
    8.5542   -8.2365    0.0000 C   0  0  0  0  0  0  0  0  0  0  0  0
    8.5542   -7.4115    0.0000 C   0  0  0  0  0  0  0  0  0  0  0  0
    7.1252   -7.4115    0.0000 C   0  0  0  0  0  0  0  0  0  0  0  0
    7.8397   -6.9990    0.0000 C   0  0  0  0  0  0  0  0  0  0  0  0
    7.8397   -6.1740    0.0000 O   0  0  0  0  0  0  0  0  0  0  0  0
 29  1  1  0  0  0  0
  3  2  1  0  0  0  0
  6  3  1  0  0  0  0
  7  4  1  0  0  0  0
  5 10  1  0  0  0  0
  6  5  2  0  0  0  0
  7  6  1  0  0  0  0
  8  7  2  0  0  0  0
  9  8  1  0  0  0  0
 10  9  2  0  0  0  0
 17 10  1  6  0  0  0
 13 11  2  0  0  0  0
 13 12  1  0  0  0  0
 14 13  1  0  0  0  0
 15 14  1  0  0  0  0
 18 15  1  1  0  0  0
 16 27  1  0  0  0  0
 17 16  1  0  0  0  0
 18 17  1  0  0  0  0
 23 18  1  0  0  0  0
 19 22  1  0  0  0  0
 20 19  1  0  0  0  0
 21 25  1  0  0  0  0
 22 21  2  0  0  0  0
 23 27  2  0  0  0  0
 24 23  1  0  0  0  0
 25 24  2  0  0  0  0
 26 25  1  0  0  0  0
 28 26  2  0  0  0  0
 28 27  1  0  0  0  0
 29 28  1  0  0  0  0
M  END
>  <cdx:fragmentId>
125

$$$$
