182265.cdx
  Mrv1902 05222410272D          

 39 43  0  0  0  0            999 V2000
    8.2101   -9.4456    0.0000 C   0  0  0  0  0  0  0  0  0  0  0  0
    8.8232   -9.9976    0.0000 C   0  0  0  0  0  0  0  0  0  0  0  0
    9.6078   -9.7427    0.0000 C   0  0  0  0  0  0  0  0  0  0  0  0
   10.2209  -10.2947    0.0000 C   0  0  0  0  0  0  0  0  0  0  0  0
   10.0494  -11.1017    0.0000 C   0  0  0  0  0  0  0  0  0  0  0  0
    9.2648  -11.3566    0.0000 C   0  0  0  0  0  0  0  0  0  0  0  0
    8.6517  -10.8046    0.0000 C   0  0  0  0  0  0  0  0  0  0  0  0
    7.4255   -9.7005    0.0000 O   0  0  0  0  0  0  0  0  0  0  0  0
    8.3816   -8.6386    0.0000 O   0  0  0  0  0  0  0  0  0  0  0  0
   11.0055  -10.0397    0.0000 O   0  0  0  0  0  0  0  0  0  0  0  0
   11.5889  -10.6231    0.0000 C   0  0  0  0  0  0  0  0  0  0  0  0
   10.6625  -11.6537    0.0000 O   0  0  0  0  0  0  0  0  0  0  0  0
    7.7685   -8.0866    0.0000 C   0  0  0  0  0  0  0  0  0  0  0  0
    7.1555   -7.0246    0.0000 C   0  0  2  0  0  0  0  0  0  0  0  0
    7.9401   -7.2796    0.0000 C   0  0  2  0  0  0  0  0  0  0  0  0
    8.7606   -7.3658    0.0000 O   0  0  0  0  0  0  0  0  0  0  0  0
    8.4250   -6.6121    0.0000 C   0  0  1  0  0  0  0  0  0  0  0  0
    7.9401   -5.9447    0.0000 C   0  0  2  0  0  0  0  0  0  0  0  0
    7.1555   -6.1996    0.0000 C   0  0  2  0  0  0  0  0  0  0  0  0
    6.4410   -5.7871    0.0000 C   0  0  0  0  0  0  0  0  0  0  0  0
    5.7265   -6.1996    0.0000 C   0  0  0  0  0  0  0  0  0  0  0  0
    5.7265   -7.0246    0.0000 O   0  0  0  0  0  0  0  0  0  0  0  0
    6.4410   -7.4371    0.0000 C   0  0  1  0  0  0  0  0  0  0  0  0
    6.4410   -8.2621    0.0000 O   0  0  0  0  0  0  0  0  0  0  0  0
    5.0120   -8.2621    0.0000 O   0  0  0  0  0  0  0  0  0  0  0  0
    5.7265   -8.6746    0.0000 C   0  0  2  0  0  0  0  0  0  0  0  0
    5.7265   -9.4996    0.0000 C   0  0  1  0  0  0  0  0  0  0  0  0
    5.0120   -9.9121    0.0000 C   0  0  2  0  0  0  0  0  0  0  0  0
    4.2976   -9.4996    0.0000 C   0  0  1  0  0  0  0  0  0  0  0  0
    4.2976   -8.6746    0.0000 C   0  0  1  0  0  0  0  0  0  0  0  0
    3.5831   -8.2621    0.0000 C   0  0  0  0  0  0  0  0  0  0  0  0
    2.8686   -8.6746    0.0000 O   0  0  0  0  0  0  0  0  0  0  0  0
    3.5831   -9.9121    0.0000 O   0  0  0  0  0  0  0  0  0  0  0  0
    5.0120  -10.7371    0.0000 O   0  0  0  0  0  0  0  0  0  0  0  0
    6.4410   -9.9121    0.0000 O   0  0  0  0  0  0  0  0  0  0  0  0
    8.1950   -5.1601    0.0000 O   0  0  0  0  0  0  0  0  0  0  0  0
    9.1395   -6.1996    0.0000 H   0  0  0  0  0  0  0  0  0  0  0  0
    7.1555   -5.3746    0.0000 H   0  0  0  0  0  0  0  0  0  0  0  0
    7.1555   -7.8496    0.0000 H   0  0  0  0  0  0  0  0  0  0  0  0
  1  2  1  0  0  0  0
  2  3  1  0  0  0  0
  3  4  2  0  0  0  0
  4  5  1  0  0  0  0
  5  6  2  0  0  0  0
  6  7  1  0  0  0  0
  2  7  2  0  0  0  0
  1  8  2  0  0  0  0
  1  9  1  0  0  0  0
 10 11  1  0  0  0  0
  4 10  1  0  0  0  0
  5 12  1  0  0  0  0
 14 15  1  0  0  0  0
 15 16  1  0  0  0  0
 16 17  1  0  0  0  0
 17 18  1  0  0  0  0
 18 19  1  0  0  0  0
 19 20  1  0  0  0  0
 20 21  2  0  0  0  0
 21 22  1  0  0  0  0
 22 23  1  0  0  0  0
 14 23  1  0  0  0  0
 14 19  1  0  0  0  0
 15 17  1  0  0  0  0
 25 26  1  0  0  0  0
 26 27  1  0  0  0  0
 27 28  1  0  0  0  0
 28 29  1  0  0  0  0
 29 30  1  0  0  0  0
 25 30  1  0  0  0  0
 31 32  1  0  0  0  0
 30 31  1  1  0  0  0
 29 33  1  6  0  0  0
 28 34  1  1  0  0  0
 27 35  1  6  0  0  0
 26 24  1  1  0  0  0
 23 24  1  6  0  0  0
 18 36  1  6  0  0  0
 15 13  1  1  0  0  0
  9 13  1  0  0  0  0
 17 37  1  1  0  0  0
 19 38  1  6  0  0  0
 14 39  1  6  0  0  0
M  END
>  <cdx:groupId>
14854

>  <cdx:fragmentId>
14793

$$$$
