182423.cdx
  Mrv1902 05222410232D          

 29 31  0  0  0  0            999 V2000
    7.6415   -8.2609    0.0000 C   0  0  1  0  0  0  0  0  0  0  0  0
    8.3560   -7.8484    0.0000 C   0  0  1  0  0  0  0  0  0  0  0  0
    8.3560   -7.0234    0.0000 C   0  0  1  0  0  0  0  0  0  0  0  0
    7.6415   -6.6109    0.0000 C   0  0  0  0  0  0  0  0  0  0  0  0
    6.9270   -7.0234    0.0000 C   0  0  0  0  0  0  0  0  0  0  0  0
    6.9270   -7.8484    0.0000 O   0  0  0  0  0  0  0  0  0  0  0  0
    9.1406   -6.7684    0.0000 C   0  0  0  0  0  0  0  0  0  0  0  0
    9.6255   -7.4359    0.0000 C   0  0  0  0  0  0  0  0  0  0  0  0
    9.1406   -8.1033    0.0000 C   0  0  1  0  0  0  0  0  0  0  0  0
    7.6415   -5.7859    0.0000 C   0  0  0  0  0  0  0  0  0  0  0  0
    8.3560   -5.3734    0.0000 O   0  0  0  0  0  0  0  0  0  0  0  0
    6.9270   -5.3734    0.0000 O   0  0  0  0  0  0  0  0  0  0  0  0
    7.6415   -9.0859    0.0000 O   0  0  0  0  0  0  0  0  0  0  0  0
    6.2125   -9.0859    0.0000 O   0  0  0  0  0  0  0  0  0  0  0  0
    6.9270   -9.4984    0.0000 C   0  0  2  0  0  0  0  0  0  0  0  0
    6.9270  -10.3234    0.0000 C   0  0  1  0  0  0  0  0  0  0  0  0
    6.2125  -10.7359    0.0000 C   0  0  2  0  0  0  0  0  0  0  0  0
    5.4981  -10.3234    0.0000 C   0  0  1  0  0  0  0  0  0  0  0  0
    5.4981   -9.4984    0.0000 C   0  0  1  0  0  0  0  0  0  0  0  0
    4.7836   -9.0859    0.0000 C   0  0  0  0  0  0  0  0  0  0  0  0
    4.0691   -9.4984    0.0000 O   0  0  0  0  0  0  0  0  0  0  0  0
    4.7836  -10.7359    0.0000 O   0  0  0  0  0  0  0  0  0  0  0  0
    6.2125  -11.5609    0.0000 O   0  0  0  0  0  0  0  0  0  0  0  0
    7.6415  -10.7359    0.0000 O   0  0  0  0  0  0  0  0  0  0  0  0
    8.9691   -8.9103    0.0000 C   0  0  0  0  0  0  0  0  0  0  0  0
    9.7537   -8.6553    0.0000 O   0  0  0  0  0  0  0  0  0  0  0  0
    8.4422   -6.2029    0.0000 H   0  0  0  0  0  0  0  0  0  0  0  0
    8.4422   -8.6689    0.0000 H   0  0  0  0  0  0  0  0  0  0  0  0
    6.9270   -4.5484    0.0000 C   0  0  0  0  0  0  0  0  0  0  0  0
  1  2  1  0  0  0  0
  2  3  1  0  0  0  0
  3  4  1  0  0  0  0
  4  5  2  0  0  0  0
  5  6  1  0  0  0  0
  1  6  1  0  0  0  0
  7  8  1  0  0  0  0
  8  9  1  0  0  0  0
  2  9  1  0  0  0  0
  3  7  1  0  0  0  0
 10 11  2  0  0  0  0
 10 12  1  0  0  0  0
  4 10  1  0  0  0  0
 14 15  1  0  0  0  0
 15 16  1  0  0  0  0
 16 17  1  0  0  0  0
 17 18  1  0  0  0  0
 18 19  1  0  0  0  0
 14 19  1  0  0  0  0
 20 21  1  0  0  0  0
 19 20  1  1  0  0  0
 18 22  1  6  0  0  0
 17 23  1  1  0  0  0
 16 24  1  6  0  0  0
 15 13  1  1  0  0  0
  1 13  1  6  0  0  0
  9 25  1  1  0  0  0
  9 26  1  6  0  0  0
  3 27  1  6  0  0  0
  2 28  1  6  0  0  0
 12 29  1  0  0  0  0
M  END
>  <cdx:fragmentId>
39810

$$$$
