1826.cdx
  Mrv1902 05222410252D          

 14 15  0  0  0  0            999 V2000
    7.7786   -3.3074    0.0000 C   0  0  0  0  0  0  0  0  0  0  0  0
    6.9716   -3.4789    0.0000 C   0  0  0  0  0  0  0  0  0  0  0  0
    8.0335   -2.5228    0.0000 O   0  0  0  0  0  0  0  0  0  0  0  0
    8.3306   -3.9205    0.0000 O   0  0  0  0  0  0  0  0  0  0  0  0
    6.7167   -5.5984    0.0000 N   0  0  0  0  0  0  0  0  0  0  0  0
    7.2016   -4.9310    0.0000 C   0  0  0  0  0  0  0  0  0  0  0  0
    6.7167   -4.2636    0.0000 C   0  0  0  0  0  0  0  0  0  0  0  0
    5.9320   -4.5185    0.0000 C   0  0  0  0  0  0  0  0  0  0  0  0
    5.2176   -4.1060    0.0000 C   0  0  0  0  0  0  0  0  0  0  0  0
    4.5031   -4.5185    0.0000 C   0  0  0  0  0  0  0  0  0  0  0  0
    4.5031   -5.3435    0.0000 C   0  0  0  0  0  0  0  0  0  0  0  0
    5.2176   -5.7560    0.0000 C   0  0  0  0  0  0  0  0  0  0  0  0
    5.9320   -5.3435    0.0000 C   0  0  0  0  0  0  0  0  0  0  0  0
    3.7886   -4.1060    0.0000 O   0  0  0  0  0  0  0  0  0  0  0  0
  1  2  1  0  0  0  0
  1  3  2  0  0  0  0
  1  4  1  0  0  0  0
  5  6  1  0  0  0  0
  6  7  2  0  0  0  0
  7  8  1  0  0  0  0
  8  9  1  0  0  0  0
  9 10  2  0  0  0  0
 10 11  1  0  0  0  0
 11 12  2  0  0  0  0
 12 13  1  0  0  0  0
  5 13  1  0  0  0  0
  8 13  2  0  0  0  0
 10 14  1  0  0  0  0
  2  7  1  0  0  0  0
M  END
>  <cdx:groupId>
45

>  <cdx:fragmentId>
13

$$$$
