183.cdx
  Mrv1902 05222410252D          

 12 11  0  0  0  0            999 V2000
    6.2082   -5.2407    0.0000 C   0  0  0  0  0  0  0  0  0  0  0  0
    6.2038   -6.0657    0.0000 N   0  0  0  0  0  0  0  0  0  0  0  0
    6.9161   -6.4819    0.0000 C   0  0  0  0  0  0  0  0  0  0  0  0
    6.9118   -7.3069    0.0000 C   0  0  0  0  0  0  0  0  0  0  0  0
    7.6241   -7.7232    0.0000 C   0  0  0  0  0  0  0  0  0  0  0  0
    7.6197   -8.5482    0.0000 C   0  0  1  0  0  0  0  0  0  0  0  0
    8.3320   -8.9644    0.0000 C   0  0  0  0  0  0  0  0  0  0  0  0
    5.4959   -4.8245    0.0000 N   0  0  0  0  0  0  0  0  0  0  0  0
    6.9248   -4.8320    0.0000 N   0  0  0  0  0  0  0  0  0  0  0  0
    8.3277   -9.7894    0.0000 O   0  0  0  0  0  0  0  0  0  0  0  0
    9.0487   -8.5557    0.0000 O   0  0  0  0  0  0  0  0  0  0  0  0
    6.9031   -8.9569    0.0000 N   0  0  0  0  0  0  0  0  0  0  0  0
  1  2  2  0  0  0  0
  2  3  1  0  0  0  0
  3  4  1  0  0  0  0
  4  5  1  0  0  0  0
  5  6  1  0  0  0  0
  6  7  1  0  0  0  0
  1  8  1  0  0  0  0
  1  9  1  0  0  0  0
  7 10  2  0  0  0  0
  7 11  1  0  0  0  0
  6 12  1  1  0  0  0
M  END
>  <cdx:fragmentId>
3

$$$$
