(7S,7ﾡￇR,8S,8ﾡￇS)-neo-olivil.cdx
  Mrv1902 05222410242D          

 27 29  0  0  0  0            999 V2000
    5.8017   -4.9706    0.0000 C   0  0  1  0  0  0  0  0  0  0  0  0
    5.5654   -5.7611    0.0000 C   0  0  2  0  0  0  0  0  0  0  0  0
    6.2441   -6.2301    0.0000 O   0  0  0  0  0  0  0  0  0  0  0  0
    6.8999   -5.7295    0.0000 C   0  0  0  0  0  0  0  0  0  0  0  0
    6.6265   -4.9511    0.0000 C   0  0  2  0  0  0  0  0  0  0  0  0
    7.2098   -4.3677    0.0000 C   0  0  0  0  0  0  0  0  0  0  0  0
    4.8509   -6.1736    0.0000 C   0  0  0  0  0  0  0  0  0  0  0  0
    5.2183   -4.3873    0.0000 C   0  0  0  0  0  0  0  0  0  0  0  0
    4.1364   -5.7611    0.0000 C   0  0  0  0  0  0  0  0  0  0  0  0
    3.4220   -6.1736    0.0000 C   0  0  0  0  0  0  0  0  0  0  0  0
    3.4220   -6.9986    0.0000 C   0  0  0  0  0  0  0  0  0  0  0  0
    4.1364   -7.4111    0.0000 C   0  0  0  0  0  0  0  0  0  0  0  0
    4.8509   -6.9986    0.0000 C   0  0  0  0  0  0  0  0  0  0  0  0
    8.0348   -4.3677    0.0000 O   0  0  0  0  0  0  0  0  0  0  0  0
    4.3933   -4.3873    0.0000 O   0  0  0  0  0  0  0  0  0  0  0  0
    7.6144   -6.1420    0.0000 C   0  0  0  0  0  0  0  0  0  0  0  0
    7.6144   -6.9670    0.0000 C   0  0  0  0  0  0  0  0  0  0  0  0
    8.3288   -7.3795    0.0000 C   0  0  0  0  0  0  0  0  0  0  0  0
    9.0433   -6.9670    0.0000 C   0  0  0  0  0  0  0  0  0  0  0  0
    9.0433   -6.1420    0.0000 C   0  0  0  0  0  0  0  0  0  0  0  0
    8.3288   -5.7295    0.0000 C   0  0  0  0  0  0  0  0  0  0  0  0
    2.7075   -7.4111    0.0000 O   0  0  0  0  0  0  0  0  0  0  0  0
    4.1364   -8.2361    0.0000 O   0  0  0  0  0  0  0  0  0  0  0  0
    4.1364   -9.0611    0.0000 C   0  0  0  0  0  0  0  0  0  0  0  0
    8.3288   -8.2045    0.0000 O   0  0  0  0  0  0  0  0  0  0  0  0
    9.7578   -7.3795    0.0000 O   0  0  0  0  0  0  0  0  0  0  0  0
    8.3288   -9.0295    0.0000 C   0  0  0  0  0  0  0  0  0  0  0  0
  1  2  1  0  0  0  0
  2  3  1  0  0  0  0
  3  4  1  0  0  0  0
  4  5  1  0  0  0  0
  5  1  1  0  0  0  0
  5  6  1  1  0  0  0
  2  7  1  6  0  0  0
  1  8  1  6  0  0  0
  7  9  2  0  0  0  0
  9 10  1  0  0  0  0
 10 11  2  0  0  0  0
 11 12  1  0  0  0  0
 12 13  2  0  0  0  0
 13  7  1  0  0  0  0
  6 14  1  0  0  0  0
  8 15  1  0  0  0  0
 16  4  1  6  0  0  0
 16 17  2  0  0  0  0
 17 18  1  0  0  0  0
 18 19  2  0  0  0  0
 19 20  1  0  0  0  0
 20 21  2  0  0  0  0
 21 16  1  0  0  0  0
 11 22  1  0  0  0  0
 12 23  1  0  0  0  0
 18 25  1  0  0  0  0
 19 26  1  0  0  0  0
 23 24  1  0  0  0  0
 25 27  1  0  0  0  0
M  STY  2   1 SUP   2 SUP
M  SAL   1  2  23  24
M  SBL   1  1  25
M  SMT   1 OCH3
M  SAP   1  1  23  12  1
M  SAL   2  2  25  27
M  SBL   2  1  26
M  SMT   2 OCH3
M  SAP   2  1  25  18  1
M  END
>  <cdx:fragmentId>
5

$$$$
