183193.cdx
  Mrv1902 05222410282D          

 28 30  0  0  0  0            999 V2000
    8.1090   -4.6259    0.0000 C   0  0  0  0  0  0  0  0  0  0  0  0
    8.1121   -5.4509    0.0000 C   0  0  0  0  0  0  0  0  0  0  0  0
    8.8280   -5.8608    0.0000 C   0  0  1  0  0  0  0  0  0  0  0  0
    9.5410   -5.4456    0.0000 C   0  0  0  0  0  0  0  0  0  0  0  0
    9.5379   -4.6206    0.0000 C   0  0  0  0  0  0  0  0  0  0  0  0
    8.8219   -4.2108    0.0000 O   0  0  0  0  0  0  0  0  0  0  0  0
    7.3991   -5.8661    0.0000 C   0  0  0  0  0  0  0  0  0  0  0  0
    8.8311   -6.6858    0.0000 C   0  0  2  0  0  0  0  0  0  0  0  0
    8.1182   -7.1009    0.0000 C   0  0  1  0  0  0  0  0  0  0  0  0
    7.4022   -6.6911    0.0000 O   0  0  0  0  0  0  0  0  0  0  0  0
    7.3930   -4.2161    0.0000 O   0  0  0  0  0  0  0  0  0  0  0  0
   10.2509   -4.2055    0.0000 O   0  0  0  0  0  0  0  0  0  0  0  0
   10.2478   -3.3805    0.0000 C   0  0  0  0  0  0  0  0  0  0  0  0
    9.5471   -7.0956    0.0000 C   0  0  0  0  0  0  0  0  0  0  0  0
    9.5471   -7.9206    0.0000 C   0  0  0  0  0  0  0  0  0  0  0  0
    9.5440   -6.2706    0.0000 H   0  0  0  0  0  0  0  0  0  0  0  0
    8.1108   -9.5759    0.0000 O   0  0  0  0  0  0  0  0  0  0  0  0
    6.6767  -10.3919    0.0000 O   0  0  0  0  0  0  0  0  0  0  0  0
    5.2530   -9.5578    0.0000 O   0  0  0  0  0  0  0  0  0  0  0  0
    4.5464   -8.3159    0.0000 O   0  0  0  0  0  0  0  0  0  0  0  0
    5.2634   -7.9079    0.0000 C   0  0  0  0  0  0  0  0  0  0  0  0
    5.9753   -8.3249    0.0000 C   0  0  2  0  0  0  0  0  0  0  0  0
    5.9701   -9.1499    0.0000 C   0  0  2  0  0  0  0  0  0  0  0  0
    6.6819   -9.5669    0.0000 C   0  0  1  0  0  0  0  0  0  0  0  0
    7.3990   -9.1589    0.0000 C   0  0  2  0  0  0  0  0  0  0  0  0
    7.4042   -8.3339    0.0000 C   0  0  1  0  0  0  0  0  0  0  0  0
    6.6923   -7.9169    0.0000 O   0  0  0  0  0  0  0  0  0  0  0  0
    8.1212   -7.9259    0.0000 O   0  0  0  0  0  0  0  0  0  0  0  0
 26 28  1  1  0  0  0
 25 17  1  6  0  0  0
 24 18  1  1  0  0  0
 23 19  1  6  0  0  0
 22 21  1  1  0  0  0
 21 20  1  0  0  0  0
 27 22  1  0  0  0  0
 23 22  1  0  0  0  0
 24 23  1  0  0  0  0
 25 24  1  0  0  0  0
 26 25  1  0  0  0  0
 27 26  1  0  0  0  0
  1  2  1  0  0  0  0
  2  3  1  0  0  0  0
  3  4  1  0  0  0  0
  4  5  1  0  0  0  0
  5  6  1  0  0  0  0
  1  6  1  0  0  0  0
  8  9  1  0  0  0  0
  9 10  1  0  0  0  0
  7 10  1  0  0  0  0
  7  2  2  0  0  0  0
  8  3  1  0  0  0  0
  1 11  2  0  0  0  0
  9 28  1  6  0  0  0
 12 13  1  0  0  0  0
  5 12  1  0  0  0  0
 14 15  2  0  0  0  0
  8 14  1  1  0  0  0
  3 16  1  6  0  0  0
M  END
>  <cdx:fragmentId>
22857

$$$$
