183195.cdx
  Mrv1902 05222410272D          

 53 56  0  0  0  0            999 V2000
   10.4711  -13.5404    0.0000 C   0  0  0  0  0  0  0  0  0  0  0  0
    6.8987  -10.6529    0.0000 C   0  0  0  0  0  0  0  0  0  0  0  0
    7.6132  -11.0654    0.0000 C   0  0  0  0  0  0  0  0  0  0  0  0
   11.9000   -9.4154    0.0000 C   0  0  0  0  0  0  0  0  0  0  0  0
   11.1855   -9.8279    0.0000 C   0  0  0  0  0  0  0  0  0  0  0  0
    6.8987   -9.8279    0.0000 C   0  0  0  0  0  0  0  0  0  0  0  0
    7.6132   -9.4154    0.0000 O   0  0  0  0  0  0  0  0  0  0  0  0
    8.3276  -10.6529    0.0000 O   0  0  0  0  0  0  0  0  0  0  0  0
    8.3276   -9.8279    0.0000 C   0  0  0  0  0  0  0  0  0  0  0  0
    9.7566   -7.3529    0.0000 O   0  0  0  0  0  0  0  0  0  0  0  0
    9.7566   -5.7029    0.0000 O   0  0  0  0  0  0  0  0  0  0  0  0
   11.1855   -4.8779    0.0000 O   0  0  0  0  0  0  0  0  0  0  0  0
   12.6145   -4.8779    0.0000 O   0  0  0  0  0  0  0  0  0  0  0  0
   12.6145   -5.7029    0.0000 C   0  0  0  0  0  0  0  0  0  0  0  0
   11.9000   -6.1154    0.0000 C   0  0  2  0  0  0  0  0  0  0  0  0
   11.1855   -5.7029    0.0000 C   0  0  2  0  0  0  0  0  0  0  0  0
   10.4711   -6.1154    0.0000 C   0  0  1  0  0  0  0  0  0  0  0  0
   10.4711   -6.9404    0.0000 C   0  0  2  0  0  0  0  0  0  0  0  0
   11.1855   -7.3529    0.0000 C   0  0  1  0  0  0  0  0  0  0  0  0
   11.9000   -6.9404    0.0000 O   0  0  0  0  0  0  0  0  0  0  0  0
   11.1855   -8.1779    0.0000 O   0  0  0  0  0  0  0  0  0  0  0  0
    9.7566   -8.1779    0.0000 O   0  0  0  0  0  0  0  0  0  0  0  0
    9.0421   -8.5904    0.0000 C   0  0  0  0  0  0  0  0  0  0  0  0
    9.0421   -9.4154    0.0000 C   0  0  0  0  0  0  0  0  0  0  0  0
    9.7566   -9.8279    0.0000 C   0  0  1  0  0  0  0  0  0  0  0  0
   10.4711   -9.4154    0.0000 C   0  0  2  0  0  0  0  0  0  0  0  0
   10.4711   -8.5904    0.0000 C   0  0  2  0  0  0  0  0  0  0  0  0
   11.1855  -10.6529    0.0000 O   0  0  0  0  0  0  0  0  0  0  0  0
   10.4711  -11.0654    0.0000 C   0  0  0  0  0  0  0  0  0  0  0  0
    9.7566  -10.6529    0.0000 C   0  0  0  0  0  0  0  0  0  0  0  0
    9.0421  -11.0654    0.0000 C   0  0  0  0  0  0  0  0  0  0  0  0
    9.0421  -11.8904    0.0000 C   0  0  0  0  0  0  0  0  0  0  0  0
    6.1842  -13.5404    0.0000 O   0  0  0  0  0  0  0  0  0  0  0  0
    4.7553  -14.3654    0.0000 O   0  0  0  0  0  0  0  0  0  0  0  0
    3.3263  -13.5404    0.0000 O   0  0  0  0  0  0  0  0  0  0  0  0
    2.6119  -12.3029    0.0000 O   0  0  0  0  0  0  0  0  0  0  0  0
    3.3263  -11.8904    0.0000 C   0  0  0  0  0  0  0  0  0  0  0  0
    4.0408  -12.3029    0.0000 C   0  0  2  0  0  0  0  0  0  0  0  0
    4.0408  -13.1279    0.0000 C   0  0  2  0  0  0  0  0  0  0  0  0
    4.7553  -13.5404    0.0000 C   0  0  1  0  0  0  0  0  0  0  0  0
    5.4698  -13.1279    0.0000 C   0  0  2  0  0  0  0  0  0  0  0  0
    5.4698  -12.3029    0.0000 C   0  0  1  0  0  0  0  0  0  0  0  0
    4.7553  -11.8904    0.0000 O   0  0  0  0  0  0  0  0  0  0  0  0
    6.1842  -11.8904    0.0000 O   0  0  0  0  0  0  0  0  0  0  0  0
    9.7566  -13.1279    0.0000 O   0  0  0  0  0  0  0  0  0  0  0  0
    9.0421  -14.3654    0.0000 O   0  0  0  0  0  0  0  0  0  0  0  0
    9.0421  -13.5404    0.0000 C   0  0  0  0  0  0  0  0  0  0  0  0
    6.8987  -13.1279    0.0000 O   0  0  0  0  0  0  0  0  0  0  0  0
    7.6132  -13.5404    0.0000 C   0  0  0  0  0  0  0  0  0  0  0  0
    8.3276  -13.1279    0.0000 C   0  0  0  0  0  0  0  0  0  0  0  0
    8.3276  -12.3029    0.0000 C   0  0  2  0  0  0  0  0  0  0  0  0
    7.6132  -11.8904    0.0000 C   0  0  2  0  0  0  0  0  0  0  0  0
    6.8987  -12.3029    0.0000 C   0  0  2  0  0  0  0  0  0  0  0  0
 45  1  1  0  0  0  0
 52  3  1  6  0  0  0
  3  2  2  0  0  0  0
 51 32  1  6  0  0  0
 25 30  1  1  0  0  0
 26  5  1  6  0  0  0
  5  4  2  0  0  0  0
 24  9  1  0  0  0  0
  9  7  1  0  0  0  0
  7  6  1  0  0  0  0
  9  8  2  0  0  0  0
 27 21  1  1  0  0  0
 19 21  1  1  0  0  0
 18 10  1  6  0  0  0
 17 11  1  1  0  0  0
 16 12  1  6  0  0  0
 15 14  1  1  0  0  0
 14 13  1  0  0  0  0
 20 15  1  0  0  0  0
 16 15  1  0  0  0  0
 17 16  1  0  0  0  0
 18 17  1  0  0  0  0
 19 18  1  0  0  0  0
 20 19  1  0  0  0  0
 27 22  1  0  0  0  0
 23 22  1  0  0  0  0
 24 23  2  0  0  0  0
 25 24  1  0  0  0  0
 26 25  1  0  0  0  0
 27 26  1  0  0  0  0
 29 28  2  0  0  0  0
 30 29  1  0  0  0  0
 31 30  2  0  0  0  0
 32 31  1  0  0  0  0
 53 44  1  1  0  0  0
 42 44  1  1  0  0  0
 41 33  1  6  0  0  0
 40 34  1  1  0  0  0
 39 35  1  6  0  0  0
 38 37  1  1  0  0  0
 37 36  1  0  0  0  0
 43 38  1  0  0  0  0
 39 38  1  0  0  0  0
 40 39  1  0  0  0  0
 41 40  1  0  0  0  0
 42 41  1  0  0  0  0
 43 42  1  0  0  0  0
 50 47  1  0  0  0  0
 47 45  1  0  0  0  0
 47 46  2  0  0  0  0
 53 48  1  0  0  0  0
 49 48  1  0  0  0  0
 50 49  2  0  0  0  0
 51 50  1  0  0  0  0
 52 51  1  0  0  0  0
 53 52  1  0  0  0  0
M  END
>  <cdx:fragmentId>
13967

$$$$
