1833.cdx
  Mrv1902 05222410262D          

 25 26  0  0  0  0            999 V2000
    9.2228  -10.0512    0.0000 C   0  0  0  0  0  0  0  0  0  0  0  0
    9.2228  -10.8762    0.0000 C   0  0  0  0  0  0  0  0  0  0  0  0
    8.5084  -11.2888    0.0000 C   0  0  0  0  0  0  0  0  0  0  0  0
    7.7939  -10.8762    0.0000 C   0  0  0  0  0  0  0  0  0  0  0  0
    7.7939  -10.0512    0.0000 C   0  0  0  0  0  0  0  0  0  0  0  0
    8.5084   -9.6387    0.0000 C   0  0  0  0  0  0  0  0  0  0  0  0
    8.5084  -12.1138    0.0000 O   0  0  0  0  0  0  0  0  0  0  0  0
    7.0794  -11.2888    0.0000 O   0  0  0  0  0  0  0  0  0  0  0  0
    8.5084   -8.8138    0.0000 C   0  0  1  0  0  0  0  0  0  0  0  0
    9.2228   -8.4013    0.0000 C   0  0  1  0  0  0  0  0  0  0  0  0
    9.9373   -8.8138    0.0000 C   0  0  0  0  0  0  0  0  0  0  0  0
    9.2228   -7.5762    0.0000 O   0  0  0  0  0  0  0  0  0  0  0  0
    7.7939   -8.4013    0.0000 O   0  0  0  0  0  0  0  0  0  0  0  0
    8.5084   -7.1638    0.0000 C   0  0  0  0  0  0  0  0  0  0  0  0
    8.5084   -6.3388    0.0000 C   0  0  0  0  0  0  0  0  0  0  0  0
    7.7939   -7.5762    0.0000 C   0  0  0  0  0  0  0  0  0  0  0  0
    7.0794   -7.1638    0.0000 C   0  0  0  0  0  0  0  0  0  0  0  0
    7.0794   -6.3388    0.0000 C   0  0  0  0  0  0  0  0  0  0  0  0
    7.7939   -5.9262    0.0000 C   0  0  0  0  0  0  0  0  0  0  0  0
    9.2228   -5.9262    0.0000 O   0  0  0  0  0  0  0  0  0  0  0  0
    6.3649   -5.9262    0.0000 C   0  0  0  0  0  0  0  0  0  0  0  0
    5.6505   -6.3388    0.0000 C   0  0  0  0  0  0  0  0  0  0  0  0
    4.9360   -5.9262    0.0000 C   0  0  0  0  0  0  0  0  0  0  0  0
    4.2215   -6.3388    0.0000 O   0  0  0  0  0  0  0  0  0  0  0  0
    6.3649  -10.8762    0.0000 C   0  0  0  0  0  0  0  0  0  0  0  0
  1  2  2  0  0  0  0
  2  3  1  0  0  0  0
  3  4  2  0  0  0  0
  4  5  1  0  0  0  0
  5  6  2  0  0  0  0
  6  1  1  0  0  0  0
  3  7  1  0  0  0  0
  4  8  1  0  0  0  0
  6  9  1  0  0  0  0
  9 10  1  0  0  0  0
 10 11  1  0  0  0  0
 10 12  1  6  0  0  0
  9 13  1  6  0  0  0
 12 14  1  0  0  0  0
 14 15  2  0  0  0  0
 14 16  1  0  0  0  0
 16 17  2  0  0  0  0
 17 18  1  0  0  0  0
 18 19  2  0  0  0  0
 19 15  1  0  0  0  0
 15 20  1  0  0  0  0
 18 21  1  0  0  0  0
 21 22  1  0  0  0  0
 22 23  1  0  0  0  0
 23 24  1  0  0  0  0
  8 25  1  0  0  0  0
M  END
>  <cdx:fragmentId>
5

$$$$
