183520.cdx
  Mrv1902 05222410242D          

 23 26  0  0  0  0            999 V2000
   16.8974  -15.6805    0.0000 N   0  0  0  0  0  0  0  0  0  0  0  0
   17.6117  -15.2678    0.0000 C   0  0  0  0  0  0  0  0  0  0  0  0
   17.6120  -14.4428    0.0000 C   0  0  0  0  0  0  0  0  0  0  0  0
   16.8979  -14.0296    0.0000 C   0  0  0  0  0  0  0  0  0  0  0  0
   16.1834  -14.4421    0.0000 C   0  0  0  0  0  0  0  0  0  0  0  0
   15.4690  -14.0296    0.0000 C   0  0  0  0  0  0  0  0  0  0  0  0
   14.7545  -14.4421    0.0000 C   0  0  0  0  0  0  0  0  0  0  0  0
   14.7545  -15.2671    0.0000 C   0  0  0  0  0  0  0  0  0  0  0  0
   15.4690  -15.6796    0.0000 C   0  0  1  0  0  0  0  0  0  0  0  0
   16.1834  -15.2671    0.0000 C   0  0  1  0  0  0  0  0  0  0  0  0
   15.4690  -13.2046    0.0000 C   0  0  0  0  0  0  0  0  0  0  0  0
   16.1834  -12.7921    0.0000 C   0  0  0  0  0  0  0  0  0  0  0  0
   16.8979  -13.2046    0.0000 C   0  0  0  0  0  0  0  0  0  0  0  0
   14.0400  -15.6796    0.0000 C   0  0  0  0  0  0  0  0  0  0  0  0
   13.3255  -15.2671    0.0000 C   0  0  0  0  0  0  0  0  0  0  0  0
   13.3255  -14.4421    0.0000 C   0  0  0  0  0  0  0  0  0  0  0  0
   14.0400  -14.0296    0.0000 C   0  0  0  0  0  0  0  0  0  0  0  0
   15.4690  -16.5046    0.0000 O   0  0  0  0  0  0  0  0  0  0  0  0
   16.1834  -11.9671    0.0000 O   0  0  0  0  0  0  0  0  0  0  0  0
   16.8979  -11.5546    0.0000 C   0  0  0  0  0  0  0  0  0  0  0  0
   14.7545  -12.7921    0.0000 O   0  0  0  0  0  0  0  0  0  0  0  0
   14.0400  -13.2046    0.0000 C   0  0  0  0  0  0  0  0  0  0  0  0
   16.1834  -16.0921    0.0000 H   0  0  0  0  0  0  0  0  0  0  0  0
  1  2  1  0  0  0  0
  2  3  1  0  0  0  0
  3  4  1  0  0  0  0
  4  5  1  0  0  0  0
  5  6  2  0  0  0  0
  6  7  1  0  0  0  0
  7  8  1  0  0  0  0
  8  9  1  0  0  0  0
  9 10  1  0  0  0  0
  1 10  1  0  0  0  0
  5 10  1  0  0  0  0
 11 12  2  0  0  0  0
 12 13  1  0  0  0  0
 13  4  2  0  0  0  0
 11  6  1  0  0  0  0
 14 15  1  0  0  0  0
 15 16  2  0  0  0  0
 16 17  1  0  0  0  0
 17  7  2  0  0  0  0
 14  8  2  0  0  0  0
  9 18  1  1  0  0  0
 19 20  1  0  0  0  0
 12 19  1  0  0  0  0
 21 22  1  0  0  0  0
 11 21  1  0  0  0  0
 10 23  1  1  0  0  0
M  END
>  <cdx:groupId>
14995

>  <cdx:fragmentId>
14926

$$$$
