183656.cdx
  Mrv1902 05222410252D          

 23 25  0  0  0  0            999 V2000
   17.1054   -9.5023    0.0000 C   0  0  0  0  0  0  0  0  0  0  0  0
   17.8199   -9.0898    0.0000 O   0  0  0  0  0  0  0  0  0  0  0  0
   16.3909   -9.0898    0.0000 C   0  0  0  0  0  0  0  0  0  0  0  0
   15.6764   -9.5023    0.0000 C   0  0  0  0  0  0  0  0  0  0  0  0
   14.9620   -9.0898    0.0000 C   0  0  0  0  0  0  0  0  0  0  0  0
   14.9620   -8.2648    0.0000 C   0  0  0  0  0  0  0  0  0  0  0  0
   15.6764   -7.8523    0.0000 C   0  0  0  0  0  0  0  0  0  0  0  0
   16.3909   -8.2648    0.0000 C   0  0  0  0  0  0  0  0  0  0  0  0
   14.2475   -7.8523    0.0000 O   0  0  0  0  0  0  0  0  0  0  0  0
   13.5330   -8.2648    0.0000 C   0  0  0  0  0  0  0  0  0  0  0  0
   17.1054  -10.3273    0.0000 C   0  0  0  0  0  0  0  0  0  0  0  0
   17.8199  -10.7398    0.0000 N   0  0  0  0  0  0  0  0  0  0  0  0
   17.8199  -11.5648    0.0000 C   0  0  0  0  0  0  0  0  0  0  0  0
   17.1054  -11.9773    0.0000 C   0  0  0  0  0  0  0  0  0  0  0  0
   16.3909  -11.5648    0.0000 C   0  0  0  0  0  0  0  0  0  0  0  0
   15.6764  -11.9773    0.0000 C   0  0  0  0  0  0  0  0  0  0  0  0
   14.9620  -11.5648    0.0000 C   0  0  0  0  0  0  0  0  0  0  0  0
   14.9620  -10.7398    0.0000 C   0  0  0  0  0  0  0  0  0  0  0  0
   15.6764  -10.3273    0.0000 C   0  0  0  0  0  0  0  0  0  0  0  0
   16.3909  -10.7398    0.0000 C   0  0  0  0  0  0  0  0  0  0  0  0
   14.2475  -11.9773    0.0000 O   0  0  0  0  0  0  0  0  0  0  0  0
   13.5330  -11.5648    0.0000 C   0  0  0  0  0  0  0  0  0  0  0  0
   14.2475  -10.3273    0.0000 O   0  0  0  0  0  0  0  0  0  0  0  0
  1  2  2  0  0  0  0
  3  4  1  0  0  0  0
  4  5  2  0  0  0  0
  5  6  1  0  0  0  0
  6  7  2  0  0  0  0
  7  8  1  0  0  0  0
  3  8  2  0  0  0  0
  9 10  1  0  0  0  0
  6  9  1  0  0  0  0
  1  3  1  0  0  0  0
 11 12  2  0  0  0  0
 12 13  1  0  0  0  0
 13 14  1  0  0  0  0
 14 15  1  0  0  0  0
 15 16  1  0  0  0  0
 16 17  2  0  0  0  0
 17 18  1  0  0  0  0
 18 19  2  0  0  0  0
 19 20  1  0  0  0  0
 11 20  1  0  0  0  0
 15 20  2  0  0  0  0
 21 22  1  0  0  0  0
 17 21  1  0  0  0  0
 18 23  1  0  0  0  0
  1 11  1  0  0  0  0
M  END
>  <cdx:groupId>
15075

>  <cdx:fragmentId>
15027

$$$$
