18386.cdx
  Mrv1902 05222410222D          

 21 23  0  0  0  0            999 V2000
    6.7177   -6.4133    0.0000 C   0  0  0  0  0  0  0  0  0  0  0  0
    7.4322   -6.8258    0.0000 C   0  0  0  0  0  0  0  0  0  0  0  0
    7.4322   -7.6508    0.0000 C   0  0  0  0  0  0  0  0  0  0  0  0
    6.7177   -8.0633    0.0000 C   0  0  0  0  0  0  0  0  0  0  0  0
    6.0032   -7.6508    0.0000 C   0  0  0  0  0  0  0  0  0  0  0  0
    5.2887   -8.0633    0.0000 C   0  0  0  0  0  0  0  0  0  0  0  0
    4.5743   -7.6508    0.0000 C   0  0  0  0  0  0  0  0  0  0  0  0
    4.5743   -6.8258    0.0000 C   0  0  0  0  0  0  0  0  0  0  0  0
    5.2887   -6.4133    0.0000 C   0  0  0  0  0  0  0  0  0  0  0  0
    6.0032   -6.8258    0.0000 C   0  0  0  0  0  0  0  0  0  0  0  0
    8.1466   -6.4133    0.0000 O   0  0  0  0  0  0  0  0  0  0  0  0
    6.7177   -5.5883    0.0000 N   0  0  0  0  0  0  0  0  0  0  0  0
    7.4322   -5.1758    0.0000 N   0  0  0  0  0  0  0  0  0  0  0  0
    7.4322   -4.3508    0.0000 C   0  0  0  0  0  0  0  0  0  0  0  0
    6.7177   -3.9383    0.0000 C   0  0  0  0  0  0  0  0  0  0  0  0
    6.7177   -3.1133    0.0000 C   0  0  0  0  0  0  0  0  0  0  0  0
    7.4322   -2.7008    0.0000 C   0  0  0  0  0  0  0  0  0  0  0  0
    8.1466   -3.1133    0.0000 C   0  0  0  0  0  0  0  0  0  0  0  0
    8.1466   -3.9383    0.0000 C   0  0  0  0  0  0  0  0  0  0  0  0
    7.4322   -1.8758    0.0000 C   0  0  0  0  0  0  0  0  0  0  0  0
    6.0032   -4.3508    0.0000 C   0  0  0  0  0  0  0  0  0  0  0  0
  1  2  1  0  0  0  0
  2  3  2  0  0  0  0
  3  4  1  0  0  0  0
  4  5  2  0  0  0  0
  5  6  1  0  0  0  0
  6  7  2  0  0  0  0
  7  8  1  0  0  0  0
  8  9  2  0  0  0  0
  9 10  1  0  0  0  0
  1 10  2  0  0  0  0
  5 10  1  0  0  0  0
  2 11  1  0  0  0  0
 12 13  2  0  0  0  0
 14 15  1  0  0  0  0
 15 16  2  0  0  0  0
 16 17  1  0  0  0  0
 17 18  2  0  0  0  0
 18 19  1  0  0  0  0
 14 19  2  0  0  0  0
 17 20  1  0  0  0  0
 15 21  1  0  0  0  0
 13 14  1  0  0  0  0
  1 12  1  0  0  0  0
M  END
>  <cdx:fragmentId>
5

$$$$
