18391.cdx
  Mrv1902 05222410222D          

 14 15  0  0  0  0            999 V2000
    5.2200   -6.6614    0.0000 C   0  0  0  0  0  0  0  0  0  0  0  0
    5.2200   -5.8364    0.0000 C   0  0  0  0  0  0  0  0  0  0  0  0
    5.9349   -5.4239    0.0000 C   0  0  0  0  0  0  0  0  0  0  0  0
    6.6225   -5.8364    0.0000 C   0  0  0  0  0  0  0  0  0  0  0  0
    6.6225   -6.6614    0.0000 C   0  0  0  0  0  0  0  0  0  0  0  0
    5.9349   -7.0739    0.0000 C   0  0  0  0  0  0  0  0  0  0  0  0
    7.4199   -5.5889    0.0000 C   0  0  0  0  0  0  0  0  0  0  0  0
    7.9149   -6.2489    0.0000 O   0  0  0  0  0  0  0  0  0  0  0  0
    7.4199   -6.9364    0.0000 C   0  0  0  0  0  0  0  0  0  0  0  0
    7.6674   -7.7064    0.0000 O   0  0  0  0  0  0  0  0  0  0  0  0
    7.8324   -4.8744    0.0000 C   0  0  0  0  0  0  0  0  0  0  0  0
    8.6574   -4.8744    0.0000 C   0  0  0  0  0  0  0  0  0  0  0  0
    9.0698   -4.1600    0.0000 C   0  0  0  0  0  0  0  0  0  0  0  0
    9.8947   -4.1600    0.0000 C   0  0  0  0  0  0  0  0  0  0  0  0
  1  2  1  0  0  0  0
  2  3  1  0  0  0  0
  3  4  1  0  0  0  0
  4  5  1  0  0  0  0
  5  6  2  0  0  0  0
  1  6  1  0  0  0  0
  4  7  1  0  0  0  0
  7  8  1  0  0  0  0
  8  9  1  0  0  0  0
  5  9  1  0  0  0  0
  9 10  2  0  0  0  0
  7 11  1  0  0  0  0
 11 12  1  0  0  0  0
 12 13  1  0  0  0  0
 13 14  1  0  0  0  0
M  END
>  <cdx:fragmentId>
5819

$$$$
