184102.cdx
  Mrv1902 05222410232D          

 23 26  0  0  0  0            999 V2000
    5.9478  -10.1269    0.0000 O   0  0  0  0  0  0  0  0  0  0  0  0
    5.5225   -9.4199    0.0000 C   0  0  0  0  0  0  0  0  0  0  0  0
    6.3475   -9.4206    0.0000 C   0  0  0  0  0  0  0  0  0  0  0  0
   10.2160   -5.8538    0.0000 C   0  0  0  0  0  0  0  0  0  0  0  0
    6.6525   -5.8189    0.0000 O   0  0  0  0  0  0  0  0  0  0  0  0
    9.5090   -7.4713    0.0000 O   0  0  0  0  0  0  0  0  0  0  0  0
    6.6512   -7.4689    0.0000 C   0  0  0  0  0  0  0  0  0  0  0  0
    5.9370   -7.0558    0.0000 C   0  0  0  0  0  0  0  0  0  0  0  0
    5.2222   -7.4677    0.0000 C   0  0  0  0  0  0  0  0  0  0  0  0
    5.2215   -8.2927    0.0000 C   0  0  0  0  0  0  0  0  0  0  0  0
    5.9356   -8.7058    0.0000 C   0  0  1  0  0  0  0  0  0  0  0  0
    6.6505   -8.2939    0.0000 C   0  0  0  0  0  0  0  0  0  0  0  0
    7.3646   -8.7070    0.0000 C   0  0  0  0  0  0  0  0  0  0  0  0
    8.0794   -8.2951    0.0000 C   0  0  0  0  0  0  0  0  0  0  0  0
    8.0815   -5.8201    0.0000 C   0  0  0  0  0  0  0  0  0  0  0  0
    7.3667   -6.2320    0.0000 C   0  0  0  0  0  0  0  0  0  0  0  0
    7.3660   -7.0570    0.0000 C   0  0  0  0  0  0  0  0  0  0  0  0
    8.0801   -7.4701    0.0000 C   0  0  0  0  0  0  0  0  0  0  0  0
    8.7949   -7.0582    0.0000 C   0  0  0  0  0  0  0  0  0  0  0  0
    8.7956   -6.2332    0.0000 C   0  0  0  0  0  0  0  0  0  0  0  0
    9.4092   -5.6816    0.0000 C   0  0  0  0  0  0  0  0  0  0  0  0
    9.0742   -4.9277    0.0000 C   0  0  0  0  0  0  0  0  0  0  0  0
    8.2537   -5.0132    0.0000 O   0  0  0  0  0  0  0  0  0  0  0  0
 11  2  1  1  0  0  0
  2  1  1  0  0  0  0
 11  3  1  6  0  0  0
 21  4  1  0  0  0  0
 16  5  2  0  0  0  0
 19  6  2  0  0  0  0
  7 17  2  0  0  0  0
 14 18  2  0  0  0  0
 12  7  1  0  0  0  0
  8  7  1  0  0  0  0
  9  8  1  0  0  0  0
 10  9  1  0  0  0  0
 11 10  1  0  0  0  0
 12 11  1  0  0  0  0
 13 12  2  0  0  0  0
 14 13  1  0  0  0  0
 23 15  1  0  0  0  0
 20 15  2  0  0  0  0
 16 15  1  0  0  0  0
 17 16  1  0  0  0  0
 18 17  1  0  0  0  0
 19 18  1  0  0  0  0
 20 19  1  0  0  0  0
 21 20  1  0  0  0  0
 22 21  2  0  0  0  0
 23 22  1  0  0  0  0
M  END
>  <cdx:groupId>
15154

>  <cdx:fragmentId>
15085

$$$$
