184103.cdx
  Mrv1902 05222410232D          

 23 25  0  0  0  0            999 V2000
    8.7952   -8.4159    0.0000 O   0  0  0  0  0  0  0  0  0  0  0  0
    9.5139   -5.5295    0.0000 O   0  0  0  0  0  0  0  0  0  0  0  0
    9.5115   -7.1795    0.0000 C   0  0  0  0  0  0  0  0  0  0  0  0
    8.7976   -6.7659    0.0000 C   0  0  0  0  0  0  0  0  0  0  0  0
    8.7989   -5.9409    0.0000 C   0  0  0  0  0  0  0  0  0  0  0  0
    5.6324  -10.3632    0.0000 C   0  0  0  0  0  0  0  0  0  0  0  0
    4.8074  -10.3619    0.0000 C   0  0  0  0  0  0  0  0  0  0  0  0
    5.9397   -6.7617    0.0000 O   0  0  0  0  0  0  0  0  0  0  0  0
    7.3699   -5.9388    0.0000 O   0  0  0  0  0  0  0  0  0  0  0  0
    7.3662   -8.4138    0.0000 C   0  0  0  0  0  0  0  0  0  0  0  0
    7.3650   -9.2388    0.0000 C   0  0  0  0  0  0  0  0  0  0  0  0
    6.6499   -9.6502    0.0000 C   0  0  0  0  0  0  0  0  0  0  0  0
    5.9361   -9.2367    0.0000 C   0  0  0  0  0  0  0  0  0  0  0  0
    5.2210   -9.6481    0.0000 C   0  0  0  0  0  0  0  0  0  0  0  0
    4.5071   -9.2345    0.0000 C   0  0  0  0  0  0  0  0  0  0  0  0
    4.5084   -8.4095    0.0000 C   0  0  0  0  0  0  0  0  0  0  0  0
    5.2234   -7.9981    0.0000 C   0  0  0  0  0  0  0  0  0  0  0  0
    5.9373   -8.4117    0.0000 C   0  0  0  0  0  0  0  0  0  0  0  0
    6.6524   -8.0002    0.0000 C   0  0  0  0  0  0  0  0  0  0  0  0
    6.6536   -7.1752    0.0000 C   0  0  0  0  0  0  0  0  0  0  0  0
    7.3687   -6.7638    0.0000 C   0  0  0  0  0  0  0  0  0  0  0  0
    8.0825   -7.1773    0.0000 C   0  0  0  0  0  0  0  0  0  0  0  0
    8.0813   -8.0023    0.0000 C   0  0  0  0  0  0  0  0  0  0  0  0
 23  1  1  0  0  0  0
 22  4  1  0  0  0  0
  5  2  1  0  0  0  0
  4  3  1  0  0  0  0
  5  4  1  0  0  0  0
 14  6  1  0  0  0  0
 14  7  1  0  0  0  0
 20  8  2  0  0  0  0
 21  9  2  0  0  0  0
 19 10  2  0  0  0  0
 23 10  1  0  0  0  0
 11 10  1  0  0  0  0
 12 11  2  0  0  0  0
 13 12  1  0  0  0  0
 18 13  2  0  0  0  0
 14 13  1  0  0  0  0
 15 14  1  0  0  0  0
 16 15  1  0  0  0  0
 17 16  1  0  0  0  0
 18 17  1  0  0  0  0
 19 18  1  0  0  0  0
 20 19  1  0  0  0  0
 21 20  1  0  0  0  0
 22 21  1  0  0  0  0
 23 22  2  0  0  0  0
M  END
>  <cdx:fragmentId>
40732

$$$$
