12184338.cdx
  Mrv1902 05222410252D          

 16 17  0  0  0  0            999 V2000
    6.1629  -14.0603    0.0000 C   0  0  0  0  0  0  0  0  0  0  0  0
    5.4484  -14.4728    0.0000 C   0  0  0  0  0  0  0  0  0  0  0  0
    5.4484  -15.2978    0.0000 C   0  0  0  0  0  0  0  0  0  0  0  0
    6.1629  -15.7103    0.0000 C   0  0  0  0  0  0  0  0  0  0  0  0
    6.8773  -15.2978    0.0000 C   0  0  2  0  0  0  0  0  0  0  0  0
    7.5918  -15.7103    0.0000 C   0  0  0  0  0  0  0  0  0  0  0  0
    8.3063  -15.2978    0.0000 C   0  0  0  0  0  0  0  0  0  0  0  0
    8.3063  -14.4728    0.0000 C   0  0  0  0  0  0  0  0  0  0  0  0
    7.5918  -14.0603    0.0000 C   0  0  1  0  0  0  0  0  0  0  0  0
    6.8773  -14.4728    0.0000 C   0  0  1  0  0  0  0  0  0  0  0  0
    9.0207  -14.0603    0.0000 C   0  0  0  0  0  0  0  0  0  0  0  0
    6.8773  -13.6478    0.0000 C   0  0  0  0  0  0  0  0  0  0  0  0
    7.5918  -13.2353    0.0000 C   0  0  0  0  0  0  0  0  0  0  0  0
    6.5754  -16.4248    0.0000 C   0  0  0  0  0  0  0  0  0  0  0  0
    5.7504  -16.4248    0.0000 C   0  0  0  0  0  0  0  0  0  0  0  0
    6.8773  -16.1228    0.0000 H   0  0  0  0  0  0  0  0  0  0  0  0
  1  2  1  0  0  0  0
  2  3  1  0  0  0  0
  3  4  1  0  0  0  0
  4  5  1  0  0  0  0
  5  6  1  0  0  0  0
  6  7  1  0  0  0  0
  7  8  1  0  0  0  0
  8  9  1  0  0  0  0
  9 10  1  0  0  0  0
  1 10  1  0  0  0  0
  5 10  1  0  0  0  0
  8 11  2  0  0  0  0
 10 12  1  1  0  0  0
  9 13  1  1  0  0  0
  4 14  1  0  0  0  0
  4 15  1  0  0  0  0
  5 16  1  6  0  0  0
M  END
>  <cdx:groupId>
87646

>  <cdx:fragmentId>
87600

$$$$
