18431.cdx
  Mrv1902 05222410212D          

 24 23  0  0  0  0            999 V2000
    2.1309   -2.1804    0.0000 C   0  0  0  0  0  0  0  0  0  0  0  0
    2.8454   -2.5929    0.0000 C   0  0  0  0  0  0  0  0  0  0  0  0
    3.5599   -2.1804    0.0000 C   0  0  0  0  0  0  0  0  0  0  0  0
    4.2743   -2.5929    0.0000 C   0  0  0  0  0  0  0  0  0  0  0  0
    4.9888   -2.1804    0.0000 C   0  0  0  0  0  0  0  0  0  0  0  0
    5.7033   -2.5929    0.0000 C   0  0  0  0  0  0  0  0  0  0  0  0
    6.4177   -2.1804    0.0000 C   0  0  0  0  0  0  0  0  0  0  0  0
    7.1322   -2.5929    0.0000 C   0  0  0  0  0  0  0  0  0  0  0  0
    7.8467   -2.1804    0.0000 C   0  0  0  0  0  0  0  0  0  0  0  0
    8.5612   -2.5929    0.0000 C   0  0  0  0  0  0  0  0  0  0  0  0
    9.2756   -2.1804    0.0000 C   0  0  0  0  0  0  0  0  0  0  0  0
    9.9901   -2.5929    0.0000 C   0  0  0  0  0  0  0  0  0  0  0  0
   10.7046   -2.1804    0.0000 C   0  0  0  0  0  0  0  0  0  0  0  0
   11.4190   -2.5929    0.0000 C   0  0  0  0  0  0  0  0  0  0  0  0
   12.1335   -2.1804    0.0000 C   0  0  0  0  0  0  0  0  0  0  0  0
   12.8480   -2.5929    0.0000 C   0  0  0  0  0  0  0  0  0  0  0  0
   13.5625   -2.1804    0.0000 C   0  0  0  0  0  0  0  0  0  0  0  0
   14.2769   -2.5929    0.0000 C   0  0  0  0  0  0  0  0  0  0  0  0
   14.9914   -2.1804    0.0000 C   0  0  0  0  0  0  0  0  0  0  0  0
   15.7059   -2.5929    0.0000 C   0  0  0  0  0  0  0  0  0  0  0  0
   16.4203   -2.1804    0.0000 C   0  0  0  0  0  0  0  0  0  0  0  0
   17.1348   -2.5929    0.0000 C   0  0  0  0  0  0  0  0  0  0  0  0
   17.8493   -2.1804    0.0000 C   0  0  0  0  0  0  0  0  0  0  0  0
    1.4164   -2.5929    0.0000 O   0  0  0  0  0  0  0  0  0  0  0  0
  1  2  1  0  0  0  0
  2  3  1  0  0  0  0
  3  4  1  0  0  0  0
  4  5  1  0  0  0  0
  5  6  1  0  0  0  0
  6  7  1  0  0  0  0
  7  8  1  0  0  0  0
  8  9  1  0  0  0  0
  9 10  1  0  0  0  0
 10 11  1  0  0  0  0
 11 12  1  0  0  0  0
 12 13  1  0  0  0  0
 13 14  1  0  0  0  0
 14 15  1  0  0  0  0
 15 16  1  0  0  0  0
 16 17  1  0  0  0  0
 17 18  1  0  0  0  0
 18 19  1  0  0  0  0
 19 20  1  0  0  0  0
 20 21  1  0  0  0  0
 21 22  1  0  0  0  0
 22 23  1  0  0  0  0
  1 24  1  0  0  0  0
M  END
>  <cdx:groupId>
73

>  <cdx:fragmentId>
5

$$$$
