1843.cdx
  Mrv1902 05222410262D          

 25 26  0  0  0  0            999 V2000
   10.5703  -10.1063    0.0000 C   0  0  0  0  0  0  0  0  0  0  0  0
   10.5703  -10.9313    0.0000 C   0  0  0  0  0  0  0  0  0  0  0  0
    9.8559  -11.3438    0.0000 C   0  0  0  0  0  0  0  0  0  0  0  0
    9.1414  -10.9313    0.0000 C   0  0  0  0  0  0  0  0  0  0  0  0
    9.1414  -10.1063    0.0000 C   0  0  0  0  0  0  0  0  0  0  0  0
    9.8559   -9.6937    0.0000 C   0  0  0  0  0  0  0  0  0  0  0  0
    9.8559  -12.1687    0.0000 O   0  0  0  0  0  0  0  0  0  0  0  0
    8.4269  -11.3438    0.0000 O   0  0  0  0  0  0  0  0  0  0  0  0
    9.8559   -8.8688    0.0000 C   0  0  1  0  0  0  0  0  0  0  0  0
   10.5703   -8.4563    0.0000 C   0  0  2  0  0  0  0  0  0  0  0  0
   11.2848   -8.8688    0.0000 C   0  0  0  0  0  0  0  0  0  0  0  0
   10.5703   -7.6313    0.0000 O   0  0  0  0  0  0  0  0  0  0  0  0
    9.1414   -8.4563    0.0000 O   0  0  0  0  0  0  0  0  0  0  0  0
    9.8559   -7.2188    0.0000 C   0  0  0  0  0  0  0  0  0  0  0  0
    9.8559   -6.3937    0.0000 C   0  0  0  0  0  0  0  0  0  0  0  0
    9.1414   -7.6313    0.0000 C   0  0  0  0  0  0  0  0  0  0  0  0
    8.4269   -7.2188    0.0000 C   0  0  0  0  0  0  0  0  0  0  0  0
    8.4269   -6.3937    0.0000 C   0  0  0  0  0  0  0  0  0  0  0  0
    9.1414   -5.9813    0.0000 C   0  0  0  0  0  0  0  0  0  0  0  0
   10.5703   -5.9813    0.0000 O   0  0  0  0  0  0  0  0  0  0  0  0
    7.7124   -5.9813    0.0000 C   0  0  0  0  0  0  0  0  0  0  0  0
    6.9980   -6.3937    0.0000 C   0  0  0  0  0  0  0  0  0  0  0  0
    6.2835   -5.9813    0.0000 C   0  0  0  0  0  0  0  0  0  0  0  0
    5.5690   -6.3937    0.0000 O   0  0  0  0  0  0  0  0  0  0  0  0
    7.7124  -10.9313    0.0000 C   0  0  0  0  0  0  0  0  0  0  0  0
  1  2  2  0  0  0  0
  2  3  1  0  0  0  0
  3  4  2  0  0  0  0
  4  5  1  0  0  0  0
  5  6  2  0  0  0  0
  6  1  1  0  0  0  0
  3  7  1  0  0  0  0
  4  8  1  0  0  0  0
  6  9  1  0  0  0  0
  9 10  1  0  0  0  0
 10 11  1  0  0  0  0
 10 12  1  1  0  0  0
  9 13  1  6  0  0  0
 12 14  1  0  0  0  0
 14 15  2  0  0  0  0
 14 16  1  0  0  0  0
 16 17  2  0  0  0  0
 17 18  1  0  0  0  0
 18 19  2  0  0  0  0
 19 15  1  0  0  0  0
 15 20  1  0  0  0  0
 18 21  1  0  0  0  0
 21 22  1  0  0  0  0
 22 23  1  0  0  0  0
 23 24  1  0  0  0  0
  8 25  1  0  0  0  0
M  END
>  <cdx:fragmentId>
5

$$$$
