184563.cdx
  Mrv1902 05222410272D          

 39 42  0  0  0  0            999 V2000
    8.6267   -6.9372    0.0000 C   0  0  0  0  0  0  0  0  0  0  0  0
    8.3718   -7.7218    0.0000 C   0  0  0  0  0  0  0  0  0  0  0  0
    7.5648   -7.8934    0.0000 C   0  0  1  0  0  0  0  0  0  0  0  0
    7.0128   -7.2803    0.0000 C   0  0  0  0  0  0  0  0  0  0  0  0
    3.6674   -9.7579    0.0000 C   0  0  0  0  0  0  0  0  0  0  0  0
    2.9529  -10.1704    0.0000 C   0  0  0  0  0  0  0  0  0  0  0  0
    2.9529  -10.9954    0.0000 C   0  0  1  0  0  0  0  0  0  0  0  0
    3.6674  -11.4079    0.0000 C   0  0  0  0  0  0  0  0  0  0  0  0
    4.3818  -10.9954    0.0000 C   0  0  2  0  0  0  0  0  0  0  0  0
    5.0963  -11.4079    0.0000 C   0  0  0  0  0  0  0  0  0  0  0  0
    5.8108  -10.9954    0.0000 C   0  0  1  0  0  0  0  0  0  0  0  0
    5.8108  -10.1704    0.0000 C   0  0  0  0  0  0  0  0  0  0  0  0
    6.5252   -9.7579    0.0000 C   0  0  2  0  0  0  0  0  0  0  0  0
    7.3099  -10.0129    0.0000 C   0  0  0  0  0  0  0  0  0  0  0  0
    7.7948   -9.3454    0.0000 C   0  0  0  0  0  0  0  0  0  0  0  0
    7.3099   -8.6780    0.0000 C   0  0  1  0  0  0  0  0  0  0  0  0
    6.5252   -8.9329    0.0000 C   0  0  1  0  0  0  0  0  0  0  0  0
    5.8108   -8.5204    0.0000 C   0  0  0  0  0  0  0  0  0  0  0  0
    5.0963   -8.9329    0.0000 C   0  0  0  0  0  0  0  0  0  0  0  0
    5.0963   -9.7579    0.0000 C   0  0  0  0  0  0  0  0  0  0  0  0
    4.3818  -10.1704    0.0000 C   0  0  1  0  0  0  0  0  0  0  0  0
    7.5648  -10.7975    0.0000 O   0  0  0  0  0  0  0  0  0  0  0  0
    4.3818   -8.5204    0.0000 O   0  0  0  0  0  0  0  0  0  0  0  0
    6.5252  -10.5333    0.0000 C   0  0  0  0  0  0  0  0  0  0  0  0
    6.5252   -8.1386    0.0000 C   0  0  0  0  0  0  0  0  0  0  0  0
    4.3818   -9.3454    0.0000 C   0  0  0  0  0  0  0  0  0  0  0  0
    4.0799  -12.1224    0.0000 C   0  0  0  0  0  0  0  0  0  0  0  0
    3.2549  -12.1224    0.0000 C   0  0  0  0  0  0  0  0  0  0  0  0
    6.5252  -11.4079    0.0000 O   0  0  0  0  0  0  0  0  0  0  0  0
    2.2384  -11.4079    0.0000 O   0  0  0  0  0  0  0  0  0  0  0  0
   11.8124   -4.0688    0.0000 C   0  0  0  0  0  0  0  0  0  0  0  0
    4.3818  -11.8204    0.0000 H   0  0  0  0  0  0  0  0  0  0  0  0
   11.5575   -4.8534    0.0000 C   0  0  0  0  0  0  0  0  0  0  0  0
   10.7505   -5.0249    0.0000 C   0  0  0  0  0  0  0  0  0  0  0  0
   10.4956   -5.8095    0.0000 C   0  0  0  0  0  0  0  0  0  0  0  0
    9.6886   -5.9811    0.0000 O   0  0  0  0  0  0  0  0  0  0  0  0
    9.9857   -7.3788    0.0000 O   0  0  0  0  0  0  0  0  0  0  0  0
    9.4337   -6.7657    0.0000 C   0  0  0  0  0  0  0  0  0  0  0  0
    8.0945   -8.4231    0.0000 H   0  0  0  0  0  0  0  0  0  0  0  0
 36 35  1  0  0  0  0
 33 31  1  0  0  0  0
 34 33  1  0  0  0  0
 35 34  1  0  0  0  0
 38 36  1  0  0  0  0
 38 37  2  0  0  0  0
 38  1  1  0  0  0  0
  1  2  1  0  0  0  0
  2  3  1  0  0  0  0
  3  4  1  6  0  0  0
  5  6  1  0  0  0  0
  6  7  1  0  0  0  0
  7  8  1  0  0  0  0
  8  9  1  0  0  0  0
  9 10  1  0  0  0  0
 10 11  1  0  0  0  0
 11 12  1  0  0  0  0
 12 13  1  0  0  0  0
 13 14  1  0  0  0  0
 14 15  1  0  0  0  0
 16 15  1  0  0  0  0
 16 17  1  0  0  0  0
 13 17  1  0  0  0  0
 17 18  1  0  0  0  0
 18 19  1  0  0  0  0
 19 20  1  0  0  0  0
 12 20  2  0  0  0  0
 20 21  1  0  0  0  0
  9 21  1  0  0  0  0
  5 21  1  0  0  0  0
 14 22  2  0  0  0  0
 19 23  2  0  0  0  0
 13 24  1  6  0  0  0
 17 25  1  1  0  0  0
 21 26  1  1  0  0  0
  8 27  1  0  0  0  0
  8 28  1  0  0  0  0
 11 29  1  1  0  0  0
  7 30  1  1  0  0  0
  3 16  1  0  0  0  0
  9 32  1  6  0  0  0
 16 39  1  6  0  0  0
M  END
>  <cdx:groupId>
176443

>  <cdx:fragmentId>
176343

$$$$
