1846.cdx
  Mrv1902 05222410272D          

 36 39  0  0  0  0            999 V2000
    7.2977   -4.6475    0.0000 C   0  0  0  0  0  0  0  0  0  0  0  0
    7.2977   -5.4725    0.0000 C   0  0  0  0  0  0  0  0  0  0  0  0
    8.0121   -5.8850    0.0000 C   0  0  0  0  0  0  0  0  0  0  0  0
    8.7266   -5.4725    0.0000 C   0  0  0  0  0  0  0  0  0  0  0  0
    8.7266   -4.6475    0.0000 C   0  0  0  0  0  0  0  0  0  0  0  0
    8.0121   -4.2350    0.0000 C   0  0  0  0  0  0  0  0  0  0  0  0
    6.5832   -4.2350    0.0000 O   0  0  0  0  0  0  0  0  0  0  0  0
    9.4411   -4.2350    0.0000 C   0  0  0  0  0  0  0  0  0  0  0  0
   10.1555   -4.6475    0.0000 C   0  0  0  0  0  0  0  0  0  0  0  0
   10.8700   -4.2350    0.0000 C   0  0  0  0  0  0  0  0  0  0  0  0
   11.5845   -4.6475    0.0000 O   0  0  0  0  0  0  0  0  0  0  0  0
    6.6846   -6.0245    0.0000 O   0  0  0  0  0  0  0  0  0  0  0  0
    7.0201   -6.7782    0.0000 C   0  0  1  0  0  0  0  0  0  0  0  0
    7.8406   -6.6920    0.0000 C   0  0  1  0  0  0  0  0  0  0  0  0
    6.6076   -7.4927    0.0000 C   0  0  0  0  0  0  0  0  0  0  0  0
    8.4240   -7.2753    0.0000 C   0  0  0  0  0  0  0  0  0  0  0  0
    5.7826   -7.4927    0.0000 C   0  0  0  0  0  0  0  0  0  0  0  0
    5.3701   -8.2071    0.0000 C   0  0  0  0  0  0  0  0  0  0  0  0
    5.7826   -8.9216    0.0000 C   0  0  0  0  0  0  0  0  0  0  0  0
    6.6076   -8.9216    0.0000 C   0  0  0  0  0  0  0  0  0  0  0  0
    7.0201   -8.2071    0.0000 C   0  0  0  0  0  0  0  0  0  0  0  0
    7.0201   -9.6361    0.0000 O   0  0  0  0  0  0  0  0  0  0  0  0
    3.2345  -10.0925    0.0000 C   0  0  2  0  0  0  0  0  0  0  0  0
    3.2345  -10.9175    0.0000 C   0  0  2  0  0  0  0  0  0  0  0  0
    3.9490  -11.3300    0.0000 C   0  0  1  0  0  0  0  0  0  0  0  0
    4.6635  -10.9175    0.0000 C   0  0  2  0  0  0  0  0  0  0  0  0
    4.6635  -10.0925    0.0000 C   0  0  1  0  0  0  0  0  0  0  0  0
    3.9490   -9.6800    0.0000 O   0  0  0  0  0  0  0  0  0  0  0  0
    5.3779   -9.6800    0.0000 O   0  0  0  0  0  0  0  0  0  0  0  0
    2.5201   -9.6800    0.0000 C   0  0  0  0  0  0  0  0  0  0  0  0
    3.9490  -12.1550    0.0000 O   0  0  0  0  0  0  0  0  0  0  0  0
    5.3779  -11.3300    0.0000 O   0  0  0  0  0  0  0  0  0  0  0  0
    2.5201  -11.3300    0.0000 O   0  0  0  0  0  0  0  0  0  0  0  0
    1.8056  -10.0925    0.0000 O   0  0  0  0  0  0  0  0  0  0  0  0
    5.8687   -4.6475    0.0000 C   0  0  0  0  0  0  0  0  0  0  0  0
    6.6076  -10.3506    0.0000 C   0  0  0  0  0  0  0  0  0  0  0  0
  1  2  2  0  0  0  0
  2  3  1  0  0  0  0
  3  4  2  0  0  0  0
  4  5  1  0  0  0  0
  5  6  2  0  0  0  0
  6  1  1  0  0  0  0
  1  7  1  0  0  0  0
  5  8  1  0  0  0  0
  8  9  1  0  0  0  0
  9 10  1  0  0  0  0
 10 11  1  0  0  0  0
  2 12  1  0  0  0  0
 12 13  1  0  0  0  0
 13 14  1  0  0  0  0
 14  3  1  0  0  0  0
 13 15  1  1  0  0  0
 14 16  1  6  0  0  0
 15 17  2  0  0  0  0
 17 18  1  0  0  0  0
 18 19  2  0  0  0  0
 19 20  1  0  0  0  0
 20 21  2  0  0  0  0
 21 15  1  0  0  0  0
 20 22  1  0  0  0  0
 23 24  1  0  0  0  0
 24 25  1  0  0  0  0
 25 26  1  0  0  0  0
 26 27  1  0  0  0  0
 27 28  1  0  0  0  0
 28 23  1  0  0  0  0
 27 29  1  1  0  0  0
 23 30  1  1  0  0  0
 25 31  1  1  0  0  0
 26 32  1  6  0  0  0
 24 33  1  6  0  0  0
 30 34  1  0  0  0  0
 19 29  1  0  0  0  0
  7 35  1  0  0  0  0
 22 36  1  0  0  0  0
M  END
>  <cdx:fragmentId>
5

$$$$
