184877.cdx
  Mrv1902 05222410202D          

 46 51  0  0  0  0            999 V2000
    6.6987   -8.0201    0.0000 O   0  0  0  0  0  0  0  0  0  0  0  0
    8.0982  -10.5119    0.0000 O   0  0  0  0  0  0  0  0  0  0  0  0
    7.4277   -6.7912    0.0000 O   0  0  0  0  0  0  0  0  0  0  0  0
    8.8370   -8.4580    0.0000 C   0  0  0  0  0  0  0  0  0  0  0  0
    8.8272   -9.2829    0.0000 C   0  0  0  0  0  0  0  0  0  0  0  0
    8.1079   -9.6869    0.0000 C   0  0  0  0  0  0  0  0  0  0  0  0
    7.3984   -9.2660    0.0000 C   0  0  0  0  0  0  0  0  0  0  0  0
    7.4082   -8.4411    0.0000 C   0  0  0  0  0  0  0  0  0  0  0  0
    8.1275   -8.0370    0.0000 C   0  0  0  0  0  0  0  0  0  0  0  0
    8.1373   -7.2121    0.0000 C   0  0  0  0  0  0  0  0  0  0  0  0
   11.4168   -7.8285    0.0000 O   0  0  0  0  0  0  0  0  0  0  0  0
    9.9586  -10.2864    0.0000 O   0  0  0  0  0  0  0  0  0  0  0  0
    9.2686   -8.2156    0.0000 C   0  0  0  0  0  0  0  0  0  0  0  0
    9.2588   -9.0405    0.0000 C   0  0  0  0  0  0  0  0  0  0  0  0
    9.9684   -9.4615    0.0000 C   0  0  0  0  0  0  0  0  0  0  0  0
   10.6877   -9.0575    0.0000 C   0  0  0  0  0  0  0  0  0  0  0  0
   10.6975   -8.2325    0.0000 C   0  0  0  0  0  0  0  0  0  0  0  0
    9.9879   -7.8116    0.0000 C   0  0  0  0  0  0  0  0  0  0  0  0
   11.4461   -5.3537    0.0000 C   0  0  0  0  0  0  0  0  0  0  0  0
    9.2882   -6.5657    0.0000 C   0  0  1  0  0  0  0  0  0  0  0  0
    9.9977   -6.9866    0.0000 C   0  0  1  0  0  0  0  0  0  0  0  0
   10.7170   -6.5826    0.0000 C   0  0  0  0  0  0  0  0  0  0  0  0
   10.7268   -5.7577    0.0000 C   0  0  0  0  0  0  0  0  0  0  0  0
   10.0172   -5.3367    0.0000 C   0  0  0  0  0  0  0  0  0  0  0  0
    9.2979   -5.7408    0.0000 C   0  0  2  0  0  0  0  0  0  0  0  0
    7.8593   -6.5488    0.0000 O   0  0  0  0  0  0  0  0  0  0  0  0
    9.3175   -4.0909    0.0000 O   0  0  0  0  0  0  0  0  0  0  0  0
    7.1693   -4.4779    0.0000 C   0  0  0  0  0  0  0  0  0  0  0  0
    7.8886   -4.0739    0.0000 C   0  0  0  0  0  0  0  0  0  0  0  0
    8.5982   -4.4949    0.0000 C   0  0  0  0  0  0  0  0  0  0  0  0
    8.5884   -5.3198    0.0000 C   0  0  0  0  0  0  0  0  0  0  0  0
    7.8691   -5.7238    0.0000 C   0  0  0  0  0  0  0  0  0  0  0  0
    7.1596   -5.3029    0.0000 C   0  0  0  0  0  0  0  0  0  0  0  0
    4.2726   -7.7438    0.0000 O   0  0  0  0  0  0  0  0  0  0  0  0
    2.8730   -5.2521    0.0000 O   0  0  0  0  0  0  0  0  0  0  0  0
    5.7014   -7.7608    0.0000 O   0  0  0  0  0  0  0  0  0  0  0  0
    5.7307   -5.2860    0.0000 O   0  0  0  0  0  0  0  0  0  0  0  0
    5.0114   -5.6900    0.0000 C   0  0  0  0  0  0  0  0  0  0  0  0
    4.3019   -5.2690    0.0000 C   0  0  0  0  0  0  0  0  0  0  0  0
    3.5826   -5.6730    0.0000 C   0  0  0  0  0  0  0  0  0  0  0  0
    3.5728   -6.4980    0.0000 C   0  0  0  0  0  0  0  0  0  0  0  0
    4.2823   -6.9189    0.0000 C   0  0  0  0  0  0  0  0  0  0  0  0
    5.0016   -6.5149    0.0000 C   0  0  0  0  0  0  0  0  0  0  0  0
    5.7112   -6.9358    0.0000 C   0  0  0  0  0  0  0  0  0  0  0  0
    6.4305   -6.5318    0.0000 C   0  0  0  0  0  0  0  0  0  0  0  0
    6.4403   -5.7069    0.0000 C   0  0  1  0  0  0  0  0  0  0  0  0
 46 33  1  6  0  0  0
 25 31  1  1  0  0  0
 20 10  1  6  0  0  0
  8  1  1  0  0  0  0
  6  2  1  0  0  0  0
 10  3  2  0  0  0  0
  9  4  2  0  0  0  0
  5  4  1  0  0  0  0
  6  5  2  0  0  0  0
  7  6  1  0  0  0  0
  8  7  2  0  0  0  0
  9  8  1  0  0  0  0
 10  9  1  0  0  0  0
 21 18  1  1  0  0  0
 17 11  1  0  0  0  0
 15 12  1  0  0  0  0
 18 13  2  0  0  0  0
 14 13  1  0  0  0  0
 15 14  2  0  0  0  0
 16 15  1  0  0  0  0
 17 16  2  0  0  0  0
 18 17  1  0  0  0  0
 23 19  1  0  0  0  0
 25 20  1  0  0  0  0
 21 20  1  0  0  0  0
 22 21  1  0  0  0  0
 23 22  1  0  0  0  0
 24 23  2  0  0  0  0
 25 24  1  0  0  0  0
 32 26  1  0  0  0  0
 30 27  1  0  0  0  0
 33 28  2  0  0  0  0
 29 28  1  0  0  0  0
 30 29  2  0  0  0  0
 31 30  1  0  0  0  0
 32 31  2  0  0  0  0
 33 32  1  0  0  0  0
 42 34  1  0  0  0  0
 40 35  1  0  0  0  0
 44 36  2  0  0  0  0
 46 37  1  0  0  0  0
 38 37  1  0  0  0  0
 43 38  2  0  0  0  0
 39 38  1  0  0  0  0
 40 39  2  0  0  0  0
 41 40  1  0  0  0  0
 42 41  2  0  0  0  0
 43 42  1  0  0  0  0
 44 43  1  0  0  0  0
 45 44  1  0  0  0  0
 46 45  1  0  0  0  0
M  END
>  <cdx:fragmentId>
15405

$$$$
