1848.cdx
  Mrv1902 05222410182D          

 26 27  0  0  0  0            999 V2000
    2.9870   -7.2394    0.0000 C   0  0  0  0  0  0  0  0  0  0  0  0
    2.9870   -8.0644    0.0000 C   0  0  0  0  0  0  0  0  0  0  0  0
    3.7015   -8.4769    0.0000 C   0  0  0  0  0  0  0  0  0  0  0  0
    4.4160   -8.0644    0.0000 C   0  0  0  0  0  0  0  0  0  0  0  0
    4.4160   -7.2394    0.0000 C   0  0  0  0  0  0  0  0  0  0  0  0
    3.7015   -6.8269    0.0000 C   0  0  0  0  0  0  0  0  0  0  0  0
    5.1304   -8.4769    0.0000 C   0  0  0  0  0  0  0  0  0  0  0  0
    5.8449   -8.0644    0.0000 C   0  0  1  0  0  0  0  0  0  0  0  0
    5.8449   -7.2394    0.0000 C   0  0  0  0  0  0  0  0  0  0  0  0
    6.5594   -8.4769    0.0000 C   0  0  0  0  0  0  0  0  0  0  0  0
    7.2739   -8.0644    0.0000 C   0  0  0  0  0  0  0  0  0  0  0  0
    6.5594   -6.8269    0.0000 O   0  0  0  0  0  0  0  0  0  0  0  0
    7.9883   -8.4769    0.0000 C   0  0  0  0  0  0  0  0  0  0  0  0
    8.7028   -8.0644    0.0000 C   0  0  0  0  0  0  0  0  0  0  0  0
    9.4173   -8.4769    0.0000 C   0  0  0  0  0  0  0  0  0  0  0  0
   10.1317   -8.0644    0.0000 C   0  0  0  0  0  0  0  0  0  0  0  0
    2.2726   -6.8269    0.0000 O   0  0  0  0  0  0  0  0  0  0  0  0
    2.2726   -8.4769    0.0000 O   0  0  0  0  0  0  0  0  0  0  0  0
   10.8462   -8.4769    0.0000 O   0  0  0  0  0  0  0  0  0  0  0  0
    6.5594   -9.3019    0.0000 C   0  0  0  0  0  0  0  0  0  0  0  0
    7.2739   -9.7144    0.0000 C   0  0  0  0  0  0  0  0  0  0  0  0
    7.9883   -9.3019    0.0000 C   0  0  0  0  0  0  0  0  0  0  0  0
    7.2739  -10.5394    0.0000 O   0  0  0  0  0  0  0  0  0  0  0  0
    5.8449   -9.7144    0.0000 O   0  0  0  0  0  0  0  0  0  0  0  0
    2.2726   -9.3019    0.0000 C   0  0  0  0  0  0  0  0  0  0  0  0
    7.9883  -10.9519    0.0000 C   0  0  0  0  0  0  0  0  0  0  0  0
  1  2  1  0  0  0  0
  2  3  2  0  0  0  0
  3  4  1  0  0  0  0
  4  5  2  0  0  0  0
  5  6  1  0  0  0  0
  6  1  2  0  0  0  0
  4  7  1  0  0  0  0
  7  8  1  0  0  0  0
  8  9  1  1  0  0  0
  8 10  1  0  0  0  0
 10 11  2  0  0  0  0
 12  9  1  0  0  0  0
 11 13  1  0  0  0  0
 13 14  1  0  0  0  0
 14 15  2  0  0  0  0
 15 16  1  0  0  0  0
  1 17  1  0  0  0  0
  2 18  1  0  0  0  0
 16 19  1  0  0  0  0
 10 20  1  0  0  0  0
 20 21  2  0  0  0  0
 21 22  1  0  0  0  0
 22 13  2  0  0  0  0
 21 23  1  0  0  0  0
 20 24  1  0  0  0  0
 18 25  1  0  0  0  0
 23 26  1  0  0  0  0
M  END
>  <cdx:fragmentId>
5

$$$$
