1849.cdx
  Mrv1902 05222410182D          

 31 33  0  0  0  0            999 V2000
    6.8647   -3.0886    0.0000 C   0  0  0  0  0  0  0  0  0  0  0  0
    6.8647   -2.2636    0.0000 C   0  0  0  0  0  0  0  0  0  0  0  0
    6.1502   -1.8511    0.0000 C   0  0  0  0  0  0  0  0  0  0  0  0
    5.4358   -2.2636    0.0000 C   0  0  0  0  0  0  0  0  0  0  0  0
    4.7213   -1.8511    0.0000 C   0  0  0  0  0  0  0  0  0  0  0  0
    4.0068   -2.2636    0.0000 C   0  0  0  0  0  0  0  0  0  0  0  0
    4.0068   -3.0886    0.0000 C   0  0  0  0  0  0  0  0  0  0  0  0
    4.7213   -3.5011    0.0000 C   0  0  0  0  0  0  0  0  0  0  0  0
    5.4358   -3.0886    0.0000 C   0  0  0  0  0  0  0  0  0  0  0  0
    6.1502   -3.5011    0.0000 O   0  0  0  0  0  0  0  0  0  0  0  0
    6.1502   -1.0261    0.0000 O   0  0  0  0  0  0  0  0  0  0  0  0
    4.7213   -4.3261    0.0000 C   0  0  0  0  0  0  0  0  0  0  0  0
    4.0068   -4.7386    0.0000 C   0  0  0  0  0  0  0  0  0  0  0  0
    4.0068   -5.5636    0.0000 C   0  0  0  0  0  0  0  0  0  0  0  0
    4.7213   -5.9761    0.0000 C   0  0  0  0  0  0  0  0  0  0  0  0
    3.2924   -5.9761    0.0000 C   0  0  0  0  0  0  0  0  0  0  0  0
    3.2924   -1.8511    0.0000 C   0  0  0  0  0  0  0  0  0  0  0  0
    2.5779   -2.2636    0.0000 C   0  0  0  0  0  0  0  0  0  0  0  0
    1.8634   -1.8511    0.0000 C   0  0  0  0  0  0  0  0  0  0  0  0
    1.8634   -1.0261    0.0000 C   0  0  0  0  0  0  0  0  0  0  0  0
    1.1489   -2.2636    0.0000 C   0  0  0  0  0  0  0  0  0  0  0  0
    7.5792   -3.5011    0.0000 C   0  0  0  0  0  0  0  0  0  0  0  0
    8.2936   -3.0886    0.0000 C   0  0  0  0  0  0  0  0  0  0  0  0
    9.0081   -3.5011    0.0000 C   0  0  0  0  0  0  0  0  0  0  0  0
    9.0081   -4.3261    0.0000 C   0  0  0  0  0  0  0  0  0  0  0  0
    8.2936   -4.7386    0.0000 C   0  0  0  0  0  0  0  0  0  0  0  0
    7.5792   -4.3261    0.0000 C   0  0  0  0  0  0  0  0  0  0  0  0
    9.7226   -4.7386    0.0000 O   0  0  0  0  0  0  0  0  0  0  0  0
    3.2924   -3.5011    0.0000 O   0  0  0  0  0  0  0  0  0  0  0  0
    4.7213   -1.0261    0.0000 O   0  0  0  0  0  0  0  0  0  0  0  0
    7.5792   -1.8511    0.0000 O   0  0  0  0  0  0  0  0  0  0  0  0
  1  2  2  0  0  0  0
  2  3  1  0  0  0  0
  3  4  1  0  0  0  0
  4  5  1  0  0  0  0
  5  6  2  0  0  0  0
  6  7  1  0  0  0  0
  7  8  2  0  0  0  0
  8  9  1  0  0  0  0
  4  9  2  0  0  0  0
  9 10  1  0  0  0  0
  1 10  1  0  0  0  0
  3 11  2  0  0  0  0
 12 13  1  0  0  0  0
 13 14  2  0  0  0  0
 14 15  1  0  0  0  0
 14 16  1  0  0  0  0
  8 12  1  0  0  0  0
 17 18  1  0  0  0  0
 18 19  2  0  0  0  0
 19 20  1  0  0  0  0
 19 21  1  0  0  0  0
  6 17  1  0  0  0  0
 22 23  1  0  0  0  0
 23 24  2  0  0  0  0
 24 25  1  0  0  0  0
 25 26  2  0  0  0  0
 26 27  1  0  0  0  0
 22 27  2  0  0  0  0
 25 28  1  0  0  0  0
  1 22  1  0  0  0  0
  7 29  1  0  0  0  0
  5 30  1  0  0  0  0
  2 31  1  0  0  0  0
M  END
>  <cdx:groupId>
97

>  <cdx:fragmentId>
5

$$$$
