185.cdx
  Mrv1902 05222410242D          

 13 13  0  0  0  0            999 V2000
    9.0163   -7.2519    0.0000 O   0  0  0  0  0  0  0  0  0  0  0  0
    8.3030   -8.4901    0.0000 O   0  0  0  0  0  0  0  0  0  0  0  0
    7.5865   -6.4283    0.0000 C   0  0  0  0  0  0  0  0  0  0  0  0
    8.3022   -7.6651    0.0000 C   0  0  0  0  0  0  0  0  0  0  0  0
    7.5873   -7.2533    0.0000 C   0  0  1  0  0  0  0  0  0  0  0  0
    6.8733   -7.6665    0.0000 N   0  0  0  0  0  0  0  0  0  0  0  0
    6.8721   -6.0158    0.0000 C   0  0  0  0  0  0  0  0  0  0  0  0
    6.8721   -5.1908    0.0000 C   0  0  0  0  0  0  0  0  0  0  0  0
    6.1576   -4.7783    0.0000 C   0  0  0  0  0  0  0  0  0  0  0  0
    5.4431   -5.1908    0.0000 C   0  0  0  0  0  0  0  0  0  0  0  0
    5.4431   -6.0158    0.0000 C   0  0  0  0  0  0  0  0  0  0  0  0
    6.1576   -6.4283    0.0000 C   0  0  0  0  0  0  0  0  0  0  0  0
    4.7286   -4.7783    0.0000 O   0  0  0  0  0  0  0  0  0  0  0  0
  4  1  1  0  0  0  0
  4  2  2  0  0  0  0
  5  3  1  0  0  0  0
  5  4  1  0  0  0  0
  5  6  1  1  0  0  0
  3  7  1  0  0  0  0
  7  8  2  0  0  0  0
  8  9  1  0  0  0  0
  9 10  2  0  0  0  0
 10 11  1  0  0  0  0
 11 12  2  0  0  0  0
 12  7  1  0  0  0  0
 10 13  1  0  0  0  0
M  END
>  <cdx:fragmentId>
64

$$$$
