18522.cdx
  Mrv1902 05222410202D          

  7  7  0  0  0  0            999 V2000
    3.3034   -1.6550    0.0000 O   0  0  0  0  0  0  0  0  0  0  0  0
    4.0881   -1.9099    0.0000 C   0  0  0  0  0  0  0  0  0  0  0  0
    4.0881   -2.7349    0.0000 C   0  0  0  0  0  0  0  0  0  0  0  0
    3.3034   -2.9899    0.0000 C   0  0  0  0  0  0  0  0  0  0  0  0
    2.8185   -2.3224    0.0000 C   0  0  0  0  0  0  0  0  0  0  0  0
    4.7555   -3.2199    0.0000 O   0  0  0  0  0  0  0  0  0  0  0  0
    4.7555   -1.4250    0.0000 C   0  0  0  0  0  0  0  0  0  0  0  0
  1  2  1  0  0  0  0
  2  3  1  0  0  0  0
  3  4  1  0  0  0  0
  4  5  1  0  0  0  0
  1  5  1  0  0  0  0
  3  6  2  0  0  0  0
  2  7  1  0  0  0  0
M  END
>  <cdx:groupId>
23

>  <cdx:fragmentId>
5

$$$$
