1853.cdx
  Mrv1902 05222410272D          

 22 24  0  0  0  0            999 V2000
    5.1859   -8.2684    0.0000 C   0  0  0  0  0  0  0  0  0  0  0  0
    6.7231   -6.2051    0.0000 O   0  0  0  0  0  0  0  0  0  0  0  0
    5.2951   -7.0316    0.0000 O   0  0  0  0  0  0  0  0  0  0  0  0
    5.4891   -9.0383    0.0000 C   0  0  0  0  0  0  0  0  0  0  0  0
    8.8652   -4.9653    0.0000 O   0  0  0  0  0  0  0  0  0  0  0  0
    9.5819   -7.0270    0.0000 C   0  0  0  0  0  0  0  0  0  0  0  0
    9.5810   -6.2020    0.0000 C   0  0  0  0  0  0  0  0  0  0  0  0
    8.8661   -5.7903    0.0000 C   0  0  0  0  0  0  0  0  0  0  0  0
    8.1521   -6.2036    0.0000 O   0  0  0  0  0  0  0  0  0  0  0  0
    8.1547   -8.6786    0.0000 C   0  0  0  0  0  0  0  0  0  0  0  0
    8.8688   -8.2653    0.0000 C   0  0  0  0  0  0  0  0  0  0  0  0
    8.8679   -7.4403    0.0000 C   0  0  0  0  0  0  0  0  0  0  0  0
    8.1530   -7.0286    0.0000 C   0  0  0  0  0  0  0  0  0  0  0  0
    7.4398   -8.2668    0.0000 C   0  0  0  0  0  0  0  0  0  0  0  0
    7.4389   -7.4418    0.0000 C   0  0  0  0  0  0  0  0  0  0  0  0
    6.7240   -7.0301    0.0000 C   0  0  2  0  0  0  0  0  0  0  0  0
    6.0100   -7.4434    0.0000 C   0  0  2  0  0  0  0  0  0  0  0  0
    6.0109   -8.2684    0.0000 C   0  0  0  0  0  0  0  0  0  0  0  0
    6.7258   -8.6801    0.0000 O   0  0  0  0  0  0  0  0  0  0  0  0
    4.5811   -7.4449    0.0000 C   0  0  0  0  0  0  0  0  0  0  0  0
    3.8661   -7.0332    0.0000 C   0  0  0  0  0  0  0  0  0  0  0  0
    4.5819   -8.2699    0.0000 O   0  0  0  0  0  0  0  0  0  0  0  0
 18  1  1  0  0  0  0
 16  2  1  6  0  0  0
 17  3  1  6  0  0  0
 18  4  1  0  0  0  0
  8  5  2  0  0  0  0
  6 12  1  0  0  0  0
  7  6  2  0  0  0  0
  8  7  1  0  0  0  0
  9  8  1  0  0  0  0
 13  9  1  0  0  0  0
 10 14  1  0  0  0  0
 11 10  2  0  0  0  0
 12 11  1  0  0  0  0
 13 12  2  0  0  0  0
 15 13  1  0  0  0  0
 14 19  1  0  0  0  0
 15 14  2  0  0  0  0
 16 15  1  0  0  0  0
 17 16  1  0  0  0  0
 18 17  1  0  0  0  0
 19 18  1  0  0  0  0
  3 20  1  0  0  0  0
 20 21  1  0  0  0  0
 20 22  2  0  0  0  0
M  END
>  <cdx:fragmentId>
5

$$$$
