185516.cdx
  Mrv1902 05222410192D          

 30 34  0  0  0  0            999 V2000
    7.9355   -7.5292    0.0000 O   0  0  0  0  0  0  0  0  0  0  0  0
    6.5069   -7.5598    0.0000 C   0  0  0  0  0  0  0  0  0  0  0  0
    6.4892   -6.7350    0.0000 C   0  0  0  0  0  0  0  0  0  0  0  0
    5.7660   -6.3379    0.0000 C   0  0  0  0  0  0  0  0  0  0  0  0
    5.7483   -5.5131    0.0000 C   0  0  0  0  0  0  0  0  0  0  0  0
    5.0252   -5.1160    0.0000 C   0  0  0  0  0  0  0  0  0  0  0  0
    4.3197   -5.5437    0.0000 C   0  0  0  0  0  0  0  0  0  0  0  0
    4.3374   -6.3686    0.0000 C   0  0  0  0  0  0  0  0  0  0  0  0
    5.0606   -6.7656    0.0000 C   0  0  0  0  0  0  0  0  0  0  0  0
    6.4538   -5.0854    0.0000 C   0  0  0  0  0  0  0  0  0  0  0  0
    7.1770   -5.4824    0.0000 C   0  0  0  0  0  0  0  0  0  0  0  0
    7.1947   -6.3073    0.0000 N   0  0  0  0  0  0  0  0  0  0  0  0
    7.9178   -6.7044    0.0000 C   0  0  0  0  0  0  0  0  0  0  0  0
    7.8824   -5.0547    0.0000 C   0  0  0  0  0  0  0  0  0  0  0  0
    8.6056   -5.4518    0.0000 C   0  0  0  0  0  0  0  0  0  0  0  0
    9.3111   -5.0241    0.0000 C   0  0  0  0  0  0  0  0  0  0  0  0
    9.2934   -4.1992    0.0000 C   0  0  0  0  0  0  0  0  0  0  0  0
    8.5702   -3.8022    0.0000 C   0  0  0  0  0  0  0  0  0  0  0  0
    7.8647   -4.2299    0.0000 C   0  0  0  0  0  0  0  0  0  0  0  0
    7.1416   -3.8328    0.0000 C   0  0  0  0  0  0  0  0  0  0  0  0
    6.4361   -4.2605    0.0000 C   0  0  0  0  0  0  0  0  0  0  0  0
   10.0724   -3.9276    0.0000 O   0  0  0  0  0  0  0  0  0  0  0  0
   10.5715   -4.5844    0.0000 C   0  0  0  0  0  0  0  0  0  0  0  0
   10.1010   -5.2621    0.0000 O   0  0  0  0  0  0  0  0  0  0  0  0
    7.2300   -7.9569    0.0000 C   0  0  0  0  0  0  0  0  0  0  0  0
    7.2477   -8.7817    0.0000 C   0  0  0  0  0  0  0  0  0  0  0  0
    3.6320   -6.7963    0.0000 O   0  0  0  0  0  0  0  0  0  0  0  0
    5.0782   -7.5905    0.0000 O   0  0  0  0  0  0  0  0  0  0  0  0
    4.3728   -8.0182    0.0000 C   0  0  0  0  0  0  0  0  0  0  0  0
    2.9088   -6.3992    0.0000 C   0  0  0  0  0  0  0  0  0  0  0  0
 25  1  2  0  0  0  0
 26 25  1  0  0  0  0
 25  2  1  0  0  0  0
  2  3  1  0  0  0  0
  3  4  1  0  0  0  0
  4  5  2  0  0  0  0
  5  6  1  0  0  0  0
  6  7  2  0  0  0  0
  7  8  1  0  0  0  0
  8  9  2  0  0  0  0
  4  9  1  0  0  0  0
  5 10  1  0  0  0  0
 10 11  2  0  0  0  0
 11 12  1  0  0  0  0
  3 12  1  0  0  0  0
 12 13  1  0  0  0  0
 11 14  1  0  0  0  0
 14 15  2  0  0  0  0
 15 16  1  0  0  0  0
 16 17  2  0  0  0  0
 17 18  1  0  0  0  0
 18 19  2  0  0  0  0
 14 19  1  0  0  0  0
 19 20  1  0  0  0  0
 20 21  2  0  0  0  0
 10 21  1  0  0  0  0
 17 22  1  0  0  0  0
 22 23  1  0  0  0  0
 23 24  1  0  0  0  0
 16 24  1  0  0  0  0
  8 27  1  0  0  0  0
  9 28  1  0  0  0  0
 28 29  1  0  0  0  0
 27 30  1  0  0  0  0
M  END
>  <cdx:fragmentId>
14364

$$$$
