185518.cdx
  Mrv1902 05222410262D          

 18 19  0  0  0  0            999 V2000
    5.8116   -7.6817    0.0000 O   0  0  0  0  0  0  0  0  0  0  0  0
    5.3266   -7.0142    0.0000 C   0  0  0  0  0  0  0  0  0  0  0  0
    5.8116   -6.3468    0.0000 O   0  0  0  0  0  0  0  0  0  0  0  0
    6.5962   -6.6017    0.0000 C   0  0  0  0  0  0  0  0  0  0  0  0
    6.5962   -7.4267    0.0000 C   0  0  0  0  0  0  0  0  0  0  0  0
    7.3106   -6.1892    0.0000 C   0  0  0  0  0  0  0  0  0  0  0  0
    8.0251   -6.6017    0.0000 C   0  0  0  0  0  0  0  0  0  0  0  0
    8.0251   -7.4267    0.0000 C   0  0  0  0  0  0  0  0  0  0  0  0
    7.3106   -7.8392    0.0000 C   0  0  0  0  0  0  0  0  0  0  0  0
    8.7396   -7.8392    0.0000 C   0  0  0  0  0  0  0  0  0  0  0  0
    9.4541   -7.4267    0.0000 C   0  0  0  0  0  0  0  0  0  0  0  0
   10.1685   -7.8392    0.0000 C   0  0  0  0  0  0  0  0  0  0  0  0
    7.3106   -8.6642    0.0000 O   0  0  0  0  0  0  0  0  0  0  0  0
    8.0251   -9.0767    0.0000 C   0  0  0  0  0  0  0  0  0  0  0  0
    8.7396   -6.1892    0.0000 O   0  0  0  0  0  0  0  0  0  0  0  0
    9.4541   -6.6017    0.0000 C   0  0  0  0  0  0  0  0  0  0  0  0
    7.3106   -5.3642    0.0000 O   0  0  0  0  0  0  0  0  0  0  0  0
    8.0251   -4.9517    0.0000 C   0  0  0  0  0  0  0  0  0  0  0  0
  1  2  1  0  0  0  0
  2  3  1  0  0  0  0
  3  4  1  0  0  0  0
  4  5  1  0  0  0  0
  1  5  1  0  0  0  0
  6  7  1  0  0  0  0
  7  8  2  0  0  0  0
  8  9  1  0  0  0  0
  9  5  2  0  0  0  0
  6  4  2  0  0  0  0
 10 11  1  0  0  0  0
 11 12  2  0  0  0  0
  8 10  1  0  0  0  0
 13 14  1  0  0  0  0
  9 13  1  0  0  0  0
 15 16  1  0  0  0  0
  7 15  1  0  0  0  0
 17 18  1  0  0  0  0
  6 17  1  0  0  0  0
M  END
>  <cdx:fragmentId>
15507

$$$$
