18554.cdx
  Mrv1902 05222410222D          

  7  7  0  0  0  0            999 V2000
    3.7305   -2.1091    0.0000 O   0  0  0  0  0  0  0  0  0  0  0  0
    3.8168   -2.9296    0.0000 C   0  0  0  0  0  0  0  0  0  0  0  0
    3.0631   -3.2651    0.0000 C   0  0  0  0  0  0  0  0  0  0  0  0
    2.5111   -2.6520    0.0000 C   0  0  0  0  0  0  0  0  0  0  0  0
    2.9236   -1.9376    0.0000 C   0  0  0  0  0  0  0  0  0  0  0  0
    4.5312   -3.3421    0.0000 C   0  0  0  0  0  0  0  0  0  0  0  0
    5.2457   -2.9296    0.0000 C   0  0  0  0  0  0  0  0  0  0  0  0
  1  2  1  0  0  0  0
  2  3  2  0  0  0  0
  3  4  1  0  0  0  0
  4  5  2  0  0  0  0
  1  5  1  0  0  0  0
  6  7  1  0  0  0  0
  2  6  1  0  0  0  0
M  END
>  <cdx:groupId>
23

>  <cdx:fragmentId>
5

$$$$
