185716.cdx
  Mrv1902 05222410202D          

 30 32  0  0  0  0            999 V2000
    9.7950   -5.0919    0.0000 C   0  0  0  0  0  0  0  0  0  0  0  0
   10.6081   -4.9519    0.0000 C   0  0  0  0  0  0  0  0  0  0  0  0
    9.2673   -4.4578    0.0000 O   0  0  0  0  0  0  0  0  0  0  0  0
    9.5098   -5.8660    0.0000 O   0  0  0  0  0  0  0  0  0  0  0  0
    5.5344   -7.3832    0.0000 C   0  0  2  0  0  0  0  0  0  0  0  0
    6.3588   -7.4153    0.0000 O   0  0  0  0  0  0  0  0  0  0  0  0
    6.8866   -8.0494    0.0000 C   0  0  0  0  0  0  0  0  0  0  0  0
    7.6996   -7.9094    0.0000 C   0  0  1  0  0  0  0  0  0  0  0  0
    7.9849   -7.1353    0.0000 C   0  0  0  0  0  0  0  0  0  0  0  0
    8.7510   -6.8293    0.0000 C   0  0  2  0  0  0  0  0  0  0  0  0
    8.6968   -6.0061    0.0000 C   0  0  1  0  0  0  0  0  0  0  0  0
    7.8971   -5.8033    0.0000 C   0  0  0  0  0  0  0  0  0  0  0  0
    7.4571   -6.5012    0.0000 O   0  0  0  0  0  0  0  0  0  0  0  0
    6.6441   -6.6412    0.0000 C   0  0  0  0  0  0  0  0  0  0  0  0
    5.9960   -6.1307    0.0000 C   0  0  0  0  0  0  0  0  0  0  0  0
    5.7717   -5.3368    0.0000 C   0  0  0  0  0  0  0  0  0  0  0  0
    4.9474   -5.3047    0.0000 C   0  0  0  0  0  0  0  0  0  0  0  0
    4.6621   -6.0788    0.0000 N   0  0  0  0  0  0  0  0  0  0  0  0
    4.2557   -6.7968    0.0000 C   0  0  0  0  0  0  0  0  0  0  0  0
    4.7143   -7.4826    0.0000 C   0  0  0  0  0  0  0  0  0  0  0  0
    5.3102   -6.5893    0.0000 C   0  0  1  0  0  0  0  0  0  0  0  0
    7.5911   -5.0371    0.0000 O   0  0  0  0  0  0  0  0  0  0  0  0
    6.6013   -8.8235    0.0000 O   0  0  0  0  0  0  0  0  0  0  0  0
    8.9820   -5.2319    0.0000 C   0  0  0  0  0  0  0  0  0  0  0  0
    9.4655   -7.2418    0.0000 C   0  0  0  0  0  0  0  0  0  0  0  0
    7.8396   -8.7224    0.0000 O   0  0  0  0  0  0  0  0  0  0  0  0
    8.4737   -8.1946    0.0000 C   0  0  0  0  0  0  0  0  0  0  0  0
    9.1078   -7.6669    0.0000 C   0  0  0  0  0  0  0  0  0  0  0  0
    5.5344   -8.2082    0.0000 H   0  0  0  0  0  0  0  0  0  0  0  0
    5.3102   -5.7643    0.0000 H   0  0  0  0  0  0  0  0  0  0  0  0
  1  2  1  0  0  0  0
  1  3  2  0  0  0  0
  1  4  1  0  0  0  0
  5  6  1  0  0  0  0
  6  7  1  0  0  0  0
  7  8  1  0  0  0  0
  8  9  1  0  0  0  0
  9 10  1  0  0  0  0
 10 11  1  0  0  0  0
 11 12  1  0  0  0  0
 12 13  1  0  0  0  0
 13 14  1  0  0  0  0
 14 15  1  0  0  0  0
 15 16  2  0  0  0  0
 16 17  1  0  0  0  0
 17 18  1  0  0  0  0
 18 19  1  0  0  0  0
 19 20  1  0  0  0  0
  5 20  1  0  0  0  0
  5 21  1  0  0  0  0
 21 15  1  0  0  0  0
 18 21  1  0  0  0  0
 12 22  2  0  0  0  0
  7 23  2  0  0  0  0
 11 24  1  6  0  0  0
 10 25  1  6  0  0  0
  8 26  1  1  0  0  0
 27 28  1  0  0  0  0
  8 27  1  6  0  0  0
 11  4  1  1  0  0  0
  5 29  1  1  0  0  0
 21 30  1  1  0  0  0
M  END
>  <cdx:groupId>
94

>  <cdx:fragmentId>
13

$$$$
