185740.cdx
  Mrv1902 05222410252D          

 16 17  0  0  0  0            999 V2000
    6.0482   -6.6504    0.0000 C   0  0  0  0  0  0  0  0  0  0  0  0
    6.0482   -7.4754    0.0000 C   0  0  0  0  0  0  0  0  0  0  0  0
    6.7626   -7.8879    0.0000 C   0  0  0  0  0  0  0  0  0  0  0  0
    7.4771   -7.4754    0.0000 C   0  0  0  0  0  0  0  0  0  0  0  0
    7.4771   -6.6504    0.0000 C   0  0  0  0  0  0  0  0  0  0  0  0
    6.7626   -6.2379    0.0000 C   0  0  0  0  0  0  0  0  0  0  0  0
    8.1916   -7.8879    0.0000 O   0  0  0  0  0  0  0  0  0  0  0  0
    8.9060   -7.4754    0.0000 C   0  0  0  0  0  0  0  0  0  0  0  0
    8.9060   -6.6504    0.0000 C   0  0  0  0  0  0  0  0  0  0  0  0
    8.1916   -6.2379    0.0000 C   0  0  0  0  0  0  0  0  0  0  0  0
    9.6205   -7.8879    0.0000 O   0  0  0  0  0  0  0  0  0  0  0  0
    8.1916   -5.4129    0.0000 O   0  0  0  0  0  0  0  0  0  0  0  0
    8.9060   -5.0004    0.0000 C   0  0  0  0  0  0  0  0  0  0  0  0
    6.7626   -5.4129    0.0000 C   0  0  0  0  0  0  0  0  0  0  0  0
    5.3337   -7.8879    0.0000 O   0  0  0  0  0  0  0  0  0  0  0  0
    4.6192   -7.4754    0.0000 C   0  0  0  0  0  0  0  0  0  0  0  0
  1  2  1  0  0  0  0
  2  3  2  0  0  0  0
  3  4  1  0  0  0  0
  4  5  2  0  0  0  0
  5  6  1  0  0  0  0
  6  1  2  0  0  0  0
  4  7  1  0  0  0  0
  7  8  1  0  0  0  0
  8  9  1  0  0  0  0
  9 10  2  0  0  0  0
 10  5  1  0  0  0  0
  8 11  2  0  0  0  0
 10 12  1  0  0  0  0
 12 13  1  0  0  0  0
  6 14  1  0  0  0  0
  2 15  1  0  0  0  0
 15 16  1  0  0  0  0
M  END
>  <cdx:fragmentId>
15764

$$$$
