185774.cdx
  Mrv1902 05222410232D          

 30 32  0  0  0  0            999 V2000
    7.0890  -10.2134    0.0000 C   0  0  1  0  0  0  0  0  0  0  0  0
    7.8035   -9.8009    0.0000 C   0  0  1  0  0  0  0  0  0  0  0  0
    7.8035   -8.9759    0.0000 C   0  0  1  0  0  0  0  0  0  0  0  0
    7.0890   -8.5634    0.0000 C   0  0  0  0  0  0  0  0  0  0  0  0
    6.3746   -8.9759    0.0000 C   0  0  0  0  0  0  0  0  0  0  0  0
    6.3746   -9.8009    0.0000 O   0  0  0  0  0  0  0  0  0  0  0  0
    8.5881   -8.7210    0.0000 C   0  0  0  0  0  0  0  0  0  0  0  0
    9.0730   -9.3884    0.0000 C   0  0  0  0  0  0  0  0  0  0  0  0
    8.5881  -10.0558    0.0000 C   0  0  2  0  0  0  0  0  0  0  0  0
    7.0890   -7.7384    0.0000 C   0  0  0  0  0  0  0  0  0  0  0  0
    7.8035   -7.3259    0.0000 O   0  0  0  0  0  0  0  0  0  0  0  0
    6.3746   -7.3259    0.0000 O   0  0  0  0  0  0  0  0  0  0  0  0
    7.0890  -11.0384    0.0000 O   0  0  0  0  0  0  0  0  0  0  0  0
    5.6601  -11.0384    0.0000 O   0  0  0  0  0  0  0  0  0  0  0  0
    6.3746  -11.4509    0.0000 C   0  0  2  0  0  0  0  0  0  0  0  0
    6.3746  -12.2759    0.0000 C   0  0  1  0  0  0  0  0  0  0  0  0
    5.6601  -12.6884    0.0000 C   0  0  2  0  0  0  0  0  0  0  0  0
    4.9456  -12.2759    0.0000 C   0  0  1  0  0  0  0  0  0  0  0  0
    4.9456  -11.4509    0.0000 C   0  0  1  0  0  0  0  0  0  0  0  0
    4.2311  -11.0384    0.0000 C   0  0  0  0  0  0  0  0  0  0  0  0
    3.5167  -11.4509    0.0000 O   0  0  0  0  0  0  0  0  0  0  0  0
    4.2311  -12.6884    0.0000 O   0  0  0  0  0  0  0  0  0  0  0  0
    5.6601  -13.5134    0.0000 O   0  0  0  0  0  0  0  0  0  0  0  0
    7.0890  -12.6884    0.0000 O   0  0  0  0  0  0  0  0  0  0  0  0
    9.2012  -10.6079    0.0000 C   0  0  0  0  0  0  0  0  0  0  0  0
    9.9858  -10.3529    0.0000 O   0  0  0  0  0  0  0  0  0  0  0  0
    8.4166  -10.8628    0.0000 O   0  0  0  0  0  0  0  0  0  0  0  0
    7.8897   -8.1554    0.0000 H   0  0  0  0  0  0  0  0  0  0  0  0
    7.8897  -10.6214    0.0000 H   0  0  0  0  0  0  0  0  0  0  0  0
    6.3746   -6.5009    0.0000 C   0  0  0  0  0  0  0  0  0  0  0  0
  1  2  1  0  0  0  0
  2  3  1  0  0  0  0
  3  4  1  0  0  0  0
  4  5  2  0  0  0  0
  5  6  1  0  0  0  0
  1  6  1  0  0  0  0
  7  8  2  0  0  0  0
  8  9  1  0  0  0  0
  9  2  1  0  0  0  0
  7  3  1  0  0  0  0
 10 11  2  0  0  0  0
 10 12  1  0  0  0  0
  4 10  1  0  0  0  0
 14 15  1  0  0  0  0
 15 16  1  0  0  0  0
 16 17  1  0  0  0  0
 17 18  1  0  0  0  0
 18 19  1  0  0  0  0
 14 19  1  0  0  0  0
 20 21  1  0  0  0  0
 19 20  1  1  0  0  0
 18 22  1  6  0  0  0
 17 23  1  1  0  0  0
 16 24  1  6  0  0  0
 15 13  1  1  0  0  0
  1 13  1  6  0  0  0
 25 26  1  0  0  0  0
  9 25  1  6  0  0  0
  9 27  1  1  0  0  0
  3 28  1  6  0  0  0
  2 29  1  6  0  0  0
 12 30  1  0  0  0  0
M  END
>  <cdx:fragmentId>
15842

$$$$
