185914.cdx
  Mrv1902 05222410262D          

 17 18  0  0  0  0            999 V2000
    4.0378  -10.5347    0.0000 O   0  0  0  0  0  0  0  0  0  0  0  0
    6.1855  -10.1450    0.0000 C   0  0  0  0  0  0  0  0  0  0  0  0
    5.4666  -10.5499    0.0000 C   0  0  0  0  0  0  0  0  0  0  0  0
    4.7566  -10.1298    0.0000 C   0  0  0  0  0  0  0  0  0  0  0  0
    4.7654   -9.3049    0.0000 C   0  0  0  0  0  0  0  0  0  0  0  0
    5.4842   -8.9000    0.0000 C   0  0  0  0  0  0  0  0  0  0  0  0
    6.1942   -9.3201    0.0000 C   0  0  0  0  0  0  0  0  0  0  0  0
    6.9130   -8.9152    0.0000 C   0  0  0  0  0  0  0  0  0  0  0  0
    7.6231   -9.3353    0.0000 C   0  0  0  0  0  0  0  0  0  0  0  0
    9.0783   -6.8756    0.0000 O   0  0  0  0  0  0  0  0  0  0  0  0
   10.4808   -9.3656    0.0000 O   0  0  0  0  0  0  0  0  0  0  0  0
    9.0519   -9.3504    0.0000 C   0  0  0  0  0  0  0  0  0  0  0  0
    8.3419   -8.9304    0.0000 C   0  0  0  0  0  0  0  0  0  0  0  0
    8.3507   -8.1054    0.0000 C   0  0  0  0  0  0  0  0  0  0  0  0
    9.0695   -7.7005    0.0000 C   0  0  0  0  0  0  0  0  0  0  0  0
    9.7795   -8.1206    0.0000 C   0  0  0  0  0  0  0  0  0  0  0  0
    9.7708   -8.9456    0.0000 C   0  0  0  0  0  0  0  0  0  0  0  0
 13  9  1  0  0  0  0
  8  7  1  0  0  0  0
  4  1  1  0  0  0  0
  7  2  2  0  0  0  0
  3  2  1  0  0  0  0
  4  3  2  0  0  0  0
  5  4  1  0  0  0  0
  6  5  2  0  0  0  0
  7  6  1  0  0  0  0
  9  8  1  0  0  0  0
 15 10  1  0  0  0  0
 17 11  1  0  0  0  0
 17 12  2  0  0  0  0
 13 12  1  0  0  0  0
 14 13  2  0  0  0  0
 15 14  1  0  0  0  0
 16 15  2  0  0  0  0
 17 16  1  0  0  0  0
M  END
>  <cdx:groupId>
16359

>  <cdx:fragmentId>
16330

$$$$
