18597.cdx
  Mrv1902 05222410222D          

 11 11  0  0  0  0            999 V2000
    7.2153   -6.3309    0.0000 C   0  0  0  0  0  0  0  0  0  0  0  0
    6.5074   -5.9071    0.0000 C   0  0  0  0  0  0  0  0  0  0  0  0
    6.5205   -5.0822    0.0000 C   0  0  0  0  0  0  0  0  0  0  0  0
    7.2415   -4.6811    0.0000 C   0  0  0  0  0  0  0  0  0  0  0  0
    7.9493   -5.1049    0.0000 C   0  0  0  0  0  0  0  0  0  0  0  0
    7.9362   -5.9298    0.0000 C   0  0  0  0  0  0  0  0  0  0  0  0
    7.2022   -7.1558    0.0000 O   0  0  0  0  0  0  0  0  0  0  0  0
    7.2546   -3.8562    0.0000 C   0  0  0  0  0  0  0  0  0  0  0  0
    7.9755   -3.4551    0.0000 C   0  0  0  0  0  0  0  0  0  0  0  0
    6.5468   -3.4324    0.0000 C   0  0  0  0  0  0  0  0  0  0  0  0
    5.8127   -4.6584    0.0000 C   0  0  0  0  0  0  0  0  0  0  0  0
  1  2  1  0  0  0  0
  2  3  2  0  0  0  0
  3  4  1  0  0  0  0
  4  5  2  0  0  0  0
  5  6  1  0  0  0  0
  1  6  2  0  0  0  0
  1  7  1  0  0  0  0
  8  9  1  0  0  0  0
  8 10  1  0  0  0  0
  4  8  1  0  0  0  0
  3 11  1  0  0  0  0
M  END
>  <cdx:fragmentId>
5

$$$$
