18591.cdx
  Mrv1902 05222410212D          

  9  8  0  0  0  0            999 V2000
    6.2577   -1.9308    0.0000 C   0  0  0  0  0  0  0  0  0  0  0  0
    6.2577   -2.7558    0.0000 C   0  0  0  0  0  0  0  0  0  0  0  0
    5.5432   -3.1683    0.0000 C   0  0  0  0  0  0  0  0  0  0  0  0
    4.8287   -2.7558    0.0000 C   0  0  0  0  0  0  0  0  0  0  0  0
    4.1143   -3.1683    0.0000 C   0  0  0  0  0  0  0  0  0  0  0  0
    3.3998   -2.7558    0.0000 C   0  0  0  0  0  0  0  0  0  0  0  0
    2.6853   -3.1683    0.0000 C   0  0  0  0  0  0  0  0  0  0  0  0
    1.9709   -2.7558    0.0000 C   0  0  0  0  0  0  0  0  0  0  0  0
    6.9721   -3.1683    0.0000 C   0  0  0  0  0  0  0  0  0  0  0  0
  1  2  1  0  0  0  0
  2  3  1  0  0  0  0
  3  4  1  0  0  0  0
  4  5  1  0  0  0  0
  5  6  1  0  0  0  0
  6  7  1  0  0  0  0
  7  8  1  0  0  0  0
  2  9  1  0  0  0  0
M  END
>  <cdx:groupId>
28

>  <cdx:fragmentId>
5

$$$$
