186.cdx
  Mrv1902 05222410232D          

  8  7  0  0  0  0            999 V2000
    5.3188   -7.9601    0.0000 N   0  0  0  0  0  0  0  0  0  0  0  0
    6.0332   -7.5476    0.0000 C   0  0  2  0  0  0  0  0  0  0  0  0
    6.7477   -7.9601    0.0000 C   0  0  0  0  0  0  0  0  0  0  0  0
    7.4622   -7.5476    0.0000 O   0  0  0  0  0  0  0  0  0  0  0  0
    6.7477   -8.7851    0.0000 O   0  0  0  0  0  0  0  0  0  0  0  0
    6.0332   -6.7226    0.0000 C   0  0  0  0  0  0  0  0  0  0  0  0
    5.3188   -6.3101    0.0000 C   0  0  0  0  0  0  0  0  0  0  0  0
    6.7477   -6.3101    0.0000 C   0  0  0  0  0  0  0  0  0  0  0  0
  2  1  1  1  0  0  0
  2  3  1  0  0  0  0
  3  4  1  0  0  0  0
  3  5  2  0  0  0  0
  2  6  1  0  0  0  0
  6  7  1  0  0  0  0
  6  8  1  0  0  0  0
M  END
>  <cdx:fragmentId>
3

$$$$
