1862.cdx
  Mrv1902 05222410182D          

 22 23  0  0  0  0            999 V2000
    2.5608   -6.3113    0.0000 C   0  0  0  0  0  0  0  0  0  0  0  0
    2.5608   -7.1362    0.0000 C   0  0  0  0  0  0  0  0  0  0  0  0
    3.2752   -7.5488    0.0000 C   0  0  0  0  0  0  0  0  0  0  0  0
    3.9897   -7.1362    0.0000 C   0  0  0  0  0  0  0  0  0  0  0  0
    3.9897   -6.3113    0.0000 C   0  0  0  0  0  0  0  0  0  0  0  0
    3.2752   -5.8988    0.0000 C   0  0  0  0  0  0  0  0  0  0  0  0
    5.4187   -6.3113    0.0000 C   0  0  0  0  0  0  0  0  0  0  0  0
    4.7042   -5.8988    0.0000 C   0  0  0  0  0  0  0  0  0  0  0  0
    6.8476   -6.3113    0.0000 C   0  0  0  0  0  0  0  0  0  0  0  0
    6.1331   -5.8988    0.0000 C   0  0  0  0  0  0  0  0  0  0  0  0
    8.2765   -6.3113    0.0000 C   0  0  0  0  0  0  0  0  0  0  0  0
    7.5621   -5.8988    0.0000 C   0  0  0  0  0  0  0  0  0  0  0  0
    9.7055   -7.1362    0.0000 C   0  0  0  0  0  0  0  0  0  0  0  0
    9.7055   -6.3113    0.0000 C   0  0  0  0  0  0  0  0  0  0  0  0
    8.9910   -5.8988    0.0000 C   0  0  0  0  0  0  0  0  0  0  0  0
   10.4200   -7.5488    0.0000 C   0  0  0  0  0  0  0  0  0  0  0  0
   11.1344   -7.1362    0.0000 C   0  0  0  0  0  0  0  0  0  0  0  0
   11.1344   -6.3113    0.0000 C   0  0  0  0  0  0  0  0  0  0  0  0
   10.4200   -5.8988    0.0000 C   0  0  0  0  0  0  0  0  0  0  0  0
    1.8463   -7.5488    0.0000 O   0  0  0  0  0  0  0  0  0  0  0  0
    6.1331   -5.0737    0.0000 O   0  0  0  0  0  0  0  0  0  0  0  0
   11.8489   -7.5488    0.0000 O   0  0  0  0  0  0  0  0  0  0  0  0
  1  2  2  0  0  0  0
  2  3  1  0  0  0  0
  3  4  2  0  0  0  0
  4  5  1  0  0  0  0
  5  6  2  0  0  0  0
  6  1  1  0  0  0  0
  7  8  1  0  0  0  0
  8  5  1  0  0  0  0
  9 10  1  0  0  0  0
 10  7  1  0  0  0  0
 11 12  1  0  0  0  0
 12  9  1  0  0  0  0
 13 14  2  0  0  0  0
 14 15  1  0  0  0  0
 15 11  2  0  0  0  0
 13 16  1  0  0  0  0
 16 17  2  0  0  0  0
 17 18  1  0  0  0  0
 18 19  2  0  0  0  0
 19 14  1  0  0  0  0
  2 20  1  0  0  0  0
 10 21  2  0  0  0  0
 17 22  1  0  0  0  0
M  END
>  <cdx:fragmentId>
5

$$$$
