18635.cdx
  Mrv1902 05222410222D          

  6  5  0  0  0  0            999 V2000
    3.3345   -2.6953    0.0000 C   0  0  0  0  0  0  0  0  0  0  0  0
    4.0490   -3.1078    0.0000 C   0  0  0  0  0  0  0  0  0  0  0  0
    4.7634   -2.6953    0.0000 C   0  0  0  0  0  0  0  0  0  0  0  0
    2.6200   -3.1078    0.0000 O   0  0  0  0  0  0  0  0  0  0  0  0
    5.4779   -3.1078    0.0000 S   0  0  0  0  0  0  0  0  0  0  0  0
    6.1924   -2.6953    0.0000 C   0  0  0  0  0  0  0  0  0  0  0  0
  1  2  1  0  0  0  0
  2  3  1  0  0  0  0
  1  4  2  0  0  0  0
  5  6  1  0  0  0  0
  3  5  1  0  0  0  0
M  END
>  <cdx:groupId>
19

>  <cdx:fragmentId>
5

$$$$
