1863.cdx
  Mrv1902 05222410192D          

 24 24  0  0  0  0            999 V2000
    2.1758   -5.3625    0.0000 C   0  0  0  0  0  0  0  0  0  0  0  0
    2.1758   -6.1875    0.0000 C   0  0  0  0  0  0  0  0  0  0  0  0
    2.8902   -6.6000    0.0000 C   0  0  0  0  0  0  0  0  0  0  0  0
    3.6047   -6.1875    0.0000 C   0  0  0  0  0  0  0  0  0  0  0  0
    3.6047   -5.3625    0.0000 C   0  0  0  0  0  0  0  0  0  0  0  0
    2.8902   -4.9500    0.0000 C   0  0  0  0  0  0  0  0  0  0  0  0
    1.4613   -6.6000    0.0000 O   0  0  0  0  0  0  0  0  0  0  0  0
    1.4613   -4.9500    0.0000 O   0  0  0  0  0  0  0  0  0  0  0  0
    0.7468   -5.3625    0.0000 C   0  0  0  0  0  0  0  0  0  0  0  0
    4.3472   -4.9294    0.0000 C   0  0  0  0  0  0  0  0  0  0  0  0
    5.0617   -5.3419    0.0000 C   0  0  0  0  0  0  0  0  0  0  0  0
    5.7762   -4.9294    0.0000 C   0  0  0  0  0  0  0  0  0  0  0  0
    5.7762   -6.5794    0.0000 O   0  0  0  0  0  0  0  0  0  0  0  0
   10.0630  -11.5294    0.0000 C   0  0  0  0  0  0  0  0  0  0  0  0
    9.3485  -11.1169    0.0000 C   0  0  0  0  0  0  0  0  0  0  0  0
    9.3485  -10.2919    0.0000 C   0  0  0  0  0  0  0  0  0  0  0  0
    8.6340   -9.8794    0.0000 C   0  0  0  0  0  0  0  0  0  0  0  0
    8.6340   -9.0544    0.0000 C   0  0  0  0  0  0  0  0  0  0  0  0
    7.9196   -8.6419    0.0000 C   0  0  0  0  0  0  0  0  0  0  0  0
    7.9196   -7.8169    0.0000 C   0  0  0  0  0  0  0  0  0  0  0  0
    7.2051   -7.4044    0.0000 C   0  0  0  0  0  0  0  0  0  0  0  0
    7.2051   -6.5794    0.0000 C   0  0  0  0  0  0  0  0  0  0  0  0
    6.4906   -6.1669    0.0000 C   0  0  0  0  0  0  0  0  0  0  0  0
    6.4906   -5.3419    0.0000 C   0  0  0  0  0  0  0  0  0  0  0  0
  1  2  2  0  0  0  0
  2  3  1  0  0  0  0
  3  4  2  0  0  0  0
  4  5  1  0  0  0  0
  5  6  2  0  0  0  0
  6  1  1  0  0  0  0
  2  7  1  0  0  0  0
  1  8  1  0  0  0  0
  8  9  1  0  0  0  0
 10 11  1  0  0  0  0
 11 12  1  0  0  0  0
 23 13  2  0  0  0  0
 12 24  2  0  0  0  0
 15 14  1  0  0  0  0
 16 15  1  0  0  0  0
 17 16  1  0  0  0  0
 18 17  1  0  0  0  0
 19 18  1  0  0  0  0
 20 19  1  0  0  0  0
 21 20  1  0  0  0  0
 22 21  1  0  0  0  0
 23 22  1  0  0  0  0
 24 23  1  0  0  0  0
 10  5  1  0  0  0  0
M  END
>  <cdx:fragmentId>
27

$$$$
