1864.cdx
  Mrv1902 05222410202D          

 24 24  0  0  0  0            999 V2000
    2.1758   -5.3625    0.0000 C   0  0  0  0  0  0  0  0  0  0  0  0
    2.1758   -6.1875    0.0000 C   0  0  0  0  0  0  0  0  0  0  0  0
    2.8902   -6.6000    0.0000 C   0  0  0  0  0  0  0  0  0  0  0  0
    3.6047   -6.1875    0.0000 C   0  0  0  0  0  0  0  0  0  0  0  0
    3.6047   -5.3625    0.0000 C   0  0  0  0  0  0  0  0  0  0  0  0
    2.8902   -4.9500    0.0000 C   0  0  0  0  0  0  0  0  0  0  0  0
    1.4613   -6.6000    0.0000 O   0  0  0  0  0  0  0  0  0  0  0  0
    1.4613   -4.9500    0.0000 O   0  0  0  0  0  0  0  0  0  0  0  0
    0.7468   -5.3625    0.0000 C   0  0  0  0  0  0  0  0  0  0  0  0
    4.3472   -4.9294    0.0000 C   0  0  0  0  0  0  0  0  0  0  0  0
    5.0617   -5.3419    0.0000 C   0  0  0  0  0  0  0  0  0  0  0  0
    5.7762   -4.9294    0.0000 C   0  0  0  0  0  0  0  0  0  0  0  0
    6.4906   -5.3419    0.0000 C   0  0  0  0  0  0  0  0  0  0  0  0
    7.2051   -4.9294    0.0000 C   0  0  0  0  0  0  0  0  0  0  0  0
    7.9196   -5.3419    0.0000 C   0  0  0  0  0  0  0  0  0  0  0  0
    8.6340   -4.9294    0.0000 C   0  0  0  0  0  0  0  0  0  0  0  0
    9.3485   -5.3419    0.0000 C   0  0  0  0  0  0  0  0  0  0  0  0
   10.0630   -4.9294    0.0000 C   0  0  0  0  0  0  0  0  0  0  0  0
   10.7775   -5.3419    0.0000 C   0  0  0  0  0  0  0  0  0  0  0  0
   11.4919   -4.9294    0.0000 C   0  0  0  0  0  0  0  0  0  0  0  0
   12.2064   -5.3419    0.0000 C   0  0  0  0  0  0  0  0  0  0  0  0
   12.9209   -4.9294    0.0000 C   0  0  0  0  0  0  0  0  0  0  0  0
   13.6353   -5.3419    0.0000 C   0  0  0  0  0  0  0  0  0  0  0  0
    7.2051   -4.1044    0.0000 O   0  0  0  0  0  0  0  0  0  0  0  0
  1  2  2  0  0  0  0
  2  3  1  0  0  0  0
  3  4  2  0  0  0  0
  4  5  1  0  0  0  0
  5  6  2  0  0  0  0
  6  1  1  0  0  0  0
  2  7  1  0  0  0  0
  1  8  1  0  0  0  0
  8  9  1  0  0  0  0
 10 11  1  0  0  0  0
 11 12  1  0  0  0  0
 12 13  2  0  0  0  0
 13 14  1  0  0  0  0
 14 15  1  0  0  0  0
 15 16  1  0  0  0  0
 16 17  1  0  0  0  0
 17 18  1  0  0  0  0
 18 19  1  0  0  0  0
 19 20  1  0  0  0  0
 20 21  1  0  0  0  0
 21 22  1  0  0  0  0
 22 23  1  0  0  0  0
 10  5  1  0  0  0  0
 14 24  2  0  0  0  0
M  END
>  <cdx:fragmentId>
27

$$$$
