1865.cdx
  Mrv1902 05222410202D          

 26 26  0  0  0  0            999 V2000
    2.8633   -6.2631    0.0000 C   0  0  0  0  0  0  0  0  0  0  0  0
    2.8633   -7.0881    0.0000 C   0  0  0  0  0  0  0  0  0  0  0  0
    3.5777   -7.5006    0.0000 C   0  0  0  0  0  0  0  0  0  0  0  0
    4.2922   -7.0881    0.0000 C   0  0  0  0  0  0  0  0  0  0  0  0
    4.2922   -6.2631    0.0000 C   0  0  0  0  0  0  0  0  0  0  0  0
    3.5777   -5.8506    0.0000 C   0  0  0  0  0  0  0  0  0  0  0  0
    2.1488   -5.8506    0.0000 O   0  0  0  0  0  0  0  0  0  0  0  0
    2.1488   -7.5006    0.0000 O   0  0  0  0  0  0  0  0  0  0  0  0
    5.0067   -5.8506    0.0000 C   0  0  0  0  0  0  0  0  0  0  0  0
    5.7212   -6.2631    0.0000 C   0  0  0  0  0  0  0  0  0  0  0  0
    6.4356   -5.8506    0.0000 C   0  0  0  0  0  0  0  0  0  0  0  0
    7.1501   -6.2631    0.0000 C   0  0  0  0  0  0  0  0  0  0  0  0
    7.8646   -5.8506    0.0000 C   0  0  0  0  0  0  0  0  0  0  0  0
    6.4356   -5.0256    0.0000 O   0  0  0  0  0  0  0  0  0  0  0  0
    1.4343   -6.2631    0.0000 C   0  0  0  0  0  0  0  0  0  0  0  0
    8.5790   -6.2631    0.0000 C   0  0  0  0  0  0  0  0  0  0  0  0
    9.2935   -5.8506    0.0000 C   0  0  0  0  0  0  0  0  0  0  0  0
   10.0080   -6.2631    0.0000 C   0  0  0  0  0  0  0  0  0  0  0  0
   10.7225   -5.8506    0.0000 C   0  0  0  0  0  0  0  0  0  0  0  0
   11.4369   -6.2631    0.0000 C   0  0  0  0  0  0  0  0  0  0  0  0
   12.1514   -5.8506    0.0000 C   0  0  0  0  0  0  0  0  0  0  0  0
   12.8659   -6.2631    0.0000 C   0  0  0  0  0  0  0  0  0  0  0  0
   13.5803   -5.8506    0.0000 C   0  0  0  0  0  0  0  0  0  0  0  0
   14.2948   -6.2631    0.0000 C   0  0  0  0  0  0  0  0  0  0  0  0
   15.0093   -5.8506    0.0000 C   0  0  0  0  0  0  0  0  0  0  0  0
   15.7238   -6.2631    0.0000 C   0  0  0  0  0  0  0  0  0  0  0  0
  1  2  2  0  0  0  0
  2  3  1  0  0  0  0
  3  4  2  0  0  0  0
  4  5  1  0  0  0  0
  5  6  2  0  0  0  0
  6  1  1  0  0  0  0
  1  7  1  0  0  0  0
  2  8  1  0  0  0  0
  5  9  1  0  0  0  0
  9 10  1  0  0  0  0
 10 11  1  0  0  0  0
 11 12  1  0  0  0  0
 12 13  2  0  0  0  0
 11 14  2  0  0  0  0
  7 15  1  0  0  0  0
 13 16  1  0  0  0  0
 16 17  1  0  0  0  0
 17 18  1  0  0  0  0
 18 19  1  0  0  0  0
 19 20  1  0  0  0  0
 20 21  1  0  0  0  0
 21 22  1  0  0  0  0
 22 23  1  0  0  0  0
 23 24  1  0  0  0  0
 24 25  1  0  0  0  0
 25 26  1  0  0  0  0
M  END
>  <cdx:fragmentId>
5

$$$$
