1866.cdx
  Mrv1902 05222410202D          

 25 27  0  0  0  0            999 V2000
    5.2833   -8.5456    0.0000 C   0  0  0  0  0  0  0  0  0  0  0  0
    5.2833   -9.3706    0.0000 C   0  0  0  0  0  0  0  0  0  0  0  0
    5.9977   -9.7831    0.0000 C   0  0  1  0  0  0  0  0  0  0  0  0
    6.7122   -9.3706    0.0000 C   0  0  1  0  0  0  0  0  0  0  0  0
    6.7122   -8.5456    0.0000 C   0  0  2  0  0  0  0  0  0  0  0  0
    5.9977   -8.1331    0.0000 C   0  0  0  0  0  0  0  0  0  0  0  0
    7.4267   -9.7831    0.0000 C   0  0  0  0  0  0  0  0  0  0  0  0
    8.1412   -9.3706    0.0000 C   0  0  0  0  0  0  0  0  0  0  0  0
    8.1412   -8.5456    0.0000 C   0  0  0  0  0  0  0  0  0  0  0  0
    7.4267   -8.1331    0.0000 C   0  0  2  0  0  0  0  0  0  0  0  0
    5.5852  -10.4976    0.0000 C   0  0  0  0  0  0  0  0  0  0  0  0
    6.7122   -7.7206    0.0000 C   0  0  0  0  0  0  0  0  0  0  0  0
    6.4102  -10.4976    0.0000 C   0  0  0  0  0  0  0  0  0  0  0  0
    6.7122  -10.1956    0.0000 H   0  0  0  0  0  0  0  0  0  0  0  0
    8.1412   -7.7206    0.0000 H   0  0  0  0  0  0  0  0  0  0  0  0
    8.8556   -8.1331    0.0000 C   0  0  0  0  0  0  0  0  0  0  0  0
    7.4267   -7.3081    0.0000 C   0  0  0  0  0  0  0  0  0  0  0  0
    8.1412   -6.8956    0.0000 C   0  0  0  0  0  0  0  0  0  0  0  0
    8.1412   -6.0706    0.0000 C   0  0  0  0  0  0  0  0  0  0  0  0
    8.8086   -5.5857    0.0000 C   0  0  0  0  0  0  0  0  0  0  0  0
    8.5537   -4.8011    0.0000 C   0  0  0  0  0  0  0  0  0  0  0  0
    7.7287   -4.8011    0.0000 O   0  0  0  0  0  0  0  0  0  0  0  0
    7.4737   -5.5857    0.0000 C   0  0  0  0  0  0  0  0  0  0  0  0
    6.6768   -5.7992    0.0000 O   0  0  0  0  0  0  0  0  0  0  0  0
    8.9662   -4.0866    0.0000 O   0  0  0  0  0  0  0  0  0  0  0  0
  1  2  1  0  0  0  0
  2  3  1  0  0  0  0
  3  4  1  0  0  0  0
  4  5  1  0  0  0  0
  5  6  1  0  0  0  0
  6  1  1  0  0  0  0
  4  7  1  0  0  0  0
  7  8  1  0  0  0  0
  8  9  1  0  0  0  0
  9 10  1  0  0  0  0
 10  5  1  0  0  0  0
  3 11  1  1  0  0  0
  5 12  1  1  0  0  0
  3 13  1  6  0  0  0
  4 14  1  6  0  0  0
 10 15  1  6  0  0  0
  9 16  2  0  0  0  0
 10 17  1  0  0  0  0
 17 18  2  0  0  0  0
 18 19  1  0  0  0  0
 19 20  2  0  0  0  0
 20 21  1  0  0  0  0
 21 22  1  0  0  0  0
 22 23  1  0  0  0  0
 23 19  1  0  0  0  0
 23 24  2  0  0  0  0
 21 25  1  0  0  0  0
M  END
>  <cdx:fragmentId>
5

$$$$
