1867.cdx
  Mrv1902 05222410192D          

 25 27  0  0  0  0            999 V2000
    4.4377   -8.7244    0.0000 C   0  0  0  0  0  0  0  0  0  0  0  0
    4.4377   -9.5494    0.0000 C   0  0  0  0  0  0  0  0  0  0  0  0
    5.1521   -9.9619    0.0000 C   0  0  1  0  0  0  0  0  0  0  0  0
    5.8666   -9.5494    0.0000 C   0  0  1  0  0  0  0  0  0  0  0  0
    5.8666   -8.7244    0.0000 C   0  0  2  0  0  0  0  0  0  0  0  0
    5.1521   -8.3119    0.0000 C   0  0  0  0  0  0  0  0  0  0  0  0
    6.5811   -9.9619    0.0000 C   0  0  0  0  0  0  0  0  0  0  0  0
    7.2955   -9.5494    0.0000 C   0  0  0  0  0  0  0  0  0  0  0  0
    7.2955   -8.7244    0.0000 C   0  0  0  0  0  0  0  0  0  0  0  0
    6.5811   -8.3119    0.0000 C   0  0  2  0  0  0  0  0  0  0  0  0
    8.0100   -8.3119    0.0000 C   0  0  0  0  0  0  0  0  0  0  0  0
    7.2955   -7.0744    0.0000 C   0  0  0  0  0  0  0  0  0  0  0  0
    6.5811   -7.4869    0.0000 C   0  0  0  0  0  0  0  0  0  0  0  0
    7.2955   -6.2494    0.0000 C   0  0  0  0  0  0  0  0  0  0  0  0
    6.5811   -5.8369    0.0000 C   0  0  0  0  0  0  0  0  0  0  0  0
    7.9086   -5.6973    0.0000 C   0  0  0  0  0  0  0  0  0  0  0  0
    7.5731   -4.9437    0.0000 C   0  0  0  0  0  0  0  0  0  0  0  0
    6.7526   -5.0299    0.0000 O   0  0  0  0  0  0  0  0  0  0  0  0
    7.9856   -4.2292    0.0000 O   0  0  0  0  0  0  0  0  0  0  0  0
    5.8666   -6.2494    0.0000 O   0  0  0  0  0  0  0  0  0  0  0  0
    5.8666   -7.8994    0.0000 C   0  0  0  0  0  0  0  0  0  0  0  0
    4.7396  -10.6763    0.0000 C   0  0  0  0  0  0  0  0  0  0  0  0
    5.5646  -10.6763    0.0000 C   0  0  0  0  0  0  0  0  0  0  0  0
    5.8666  -10.3744    0.0000 H   0  0  0  0  0  0  0  0  0  0  0  0
    7.2955   -7.8994    0.0000 H   0  0  0  0  0  0  0  0  0  0  0  0
  1  2  1  0  0  0  0
  2  3  1  0  0  0  0
  3  4  1  0  0  0  0
  4  5  1  0  0  0  0
  5  6  1  0  0  0  0
  6  1  1  0  0  0  0
  4  7  1  0  0  0  0
  7  8  1  0  0  0  0
  8  9  1  0  0  0  0
  9 10  1  0  0  0  0
 10  5  1  0  0  0  0
  9 11  2  0  0  0  0
 12 13  2  0  0  0  0
 13 10  1  0  0  0  0
 12 14  1  0  0  0  0
 14 15  1  0  0  0  0
 14 16  2  0  0  0  0
 16 17  1  0  0  0  0
 17 18  1  0  0  0  0
 18 15  1  0  0  0  0
 17 19  2  0  0  0  0
 15 20  1  0  0  0  0
  5 21  1  1  0  0  0
  3 22  1  1  0  0  0
  3 23  1  6  0  0  0
  4 24  1  6  0  0  0
 10 25  1  6  0  0  0
M  END
>  <cdx:fragmentId>
5

$$$$
