1862.cdx
  Mrv1902 05222410262D          

 26 27  0  0  0  0            999 V2000
    3.7708   -8.0781    0.0000 C   0  0  0  0  0  0  0  0  0  0  0  0
    3.7708   -8.9031    0.0000 C   0  0  0  0  0  0  0  0  0  0  0  0
    4.4852   -9.3156    0.0000 C   0  0  0  0  0  0  0  0  0  0  0  0
    5.1997   -8.9031    0.0000 C   0  0  0  0  0  0  0  0  0  0  0  0
    5.1997   -8.0781    0.0000 C   0  0  0  0  0  0  0  0  0  0  0  0
    4.4852   -7.6656    0.0000 C   0  0  0  0  0  0  0  0  0  0  0  0
    5.9010   -7.6450    0.0000 C   0  0  0  0  0  0  0  0  0  0  0  0
    6.6154   -8.0575    0.0000 C   0  0  0  0  0  0  0  0  0  0  0  0
    7.3299   -7.6450    0.0000 C   0  0  0  0  0  0  0  0  0  0  0  0
    8.0444   -8.0575    0.0000 C   0  0  0  0  0  0  0  0  0  0  0  0
    9.4733   -3.1075    0.0000 O   0  0  0  0  0  0  0  0  0  0  0  0
   10.9023   -3.1075    0.0000 C   0  0  0  0  0  0  0  0  0  0  0  0
   10.9023   -3.9325    0.0000 O   0  0  0  0  0  0  0  0  0  0  0  0
    3.0563   -9.3156    0.0000 O   0  0  0  0  0  0  0  0  0  0  0  0
    3.0563   -7.6656    0.0000 O   0  0  0  0  0  0  0  0  0  0  0  0
    2.3418   -8.0781    0.0000 C   0  0  0  0  0  0  0  0  0  0  0  0
    7.3299   -6.8200    0.0000 O   0  0  0  0  0  0  0  0  0  0  0  0
   10.1878   -5.1700    0.0000 C   0  0  0  0  0  0  0  0  0  0  0  0
   10.1878   -4.3450    0.0000 C   0  0  0  0  0  0  0  0  0  0  0  0
    9.4733   -3.9325    0.0000 C   0  0  0  0  0  0  0  0  0  0  0  0
    8.7589   -4.3450    0.0000 C   0  0  0  0  0  0  0  0  0  0  0  0
    8.7589   -5.1700    0.0000 C   0  0  0  0  0  0  0  0  0  0  0  0
    9.4733   -5.5825    0.0000 C   0  0  0  0  0  0  0  0  0  0  0  0
    9.4733   -6.4075    0.0000 C   0  0  0  0  0  0  0  0  0  0  0  0
    8.7589   -6.8200    0.0000 C   0  0  0  0  0  0  0  0  0  0  0  0
    8.7589   -7.6450    0.0000 C   0  0  0  0  0  0  0  0  0  0  0  0
  1  2  2  0  0  0  0
  2  3  1  0  0  0  0
  3  4  2  0  0  0  0
  4  5  1  0  0  0  0
  5  6  2  0  0  0  0
  6  1  1  0  0  0  0
  7  8  1  0  0  0  0
  8  9  1  0  0  0  0
  9 10  1  0  0  0  0
 20 11  1  0  0  0  0
 10 26  2  0  0  0  0
 13 12  1  0  0  0  0
 19 13  1  0  0  0  0
 18 23  1  0  0  0  0
  7  5  1  0  0  0  0
  2 14  1  0  0  0  0
  1 15  1  0  0  0  0
 15 16  1  0  0  0  0
  9 17  2  0  0  0  0
 19 18  2  0  0  0  0
 20 19  1  0  0  0  0
 21 20  2  0  0  0  0
 22 21  1  0  0  0  0
 23 22  2  0  0  0  0
 24 23  1  0  0  0  0
 25 24  1  0  0  0  0
 26 25  1  0  0  0  0
M  END
>  <cdx:fragmentId>
21

$$$$
