102186880.cdx
  Mrv1902 05222410262D          

 69 76  0  0  0  0            999 V2000
    8.9009  -13.1417    0.0000 C   0  0  0  0  0  0  0  0  0  0  0  0
    8.1865  -12.7292    0.0000 C   0  0  0  0  0  0  0  0  0  0  0  0
    7.4720  -13.1417    0.0000 C   0  0  0  0  0  0  0  0  0  0  0  0
    6.7575  -12.7292    0.0000 C   0  0  0  0  0  0  0  0  0  0  0  0
    8.9009  -13.9667    0.0000 O   0  0  0  0  0  0  0  0  0  0  0  0
    9.6154  -12.7292    0.0000 O   0  0  0  0  0  0  0  0  0  0  0  0
    8.1865  -11.9042    0.0000 C   0  0  0  0  0  0  0  0  0  0  0  0
   11.4730  -14.6267    0.0000 C   0  0  2  0  0  0  0  0  0  0  0  0
   12.1875  -15.0392    0.0000 O   0  0  0  0  0  0  0  0  0  0  0  0
   12.1875  -14.2142    0.0000 C   0  0  1  0  0  0  0  0  0  0  0  0
   12.9721  -14.4691    0.0000 C   0  0  0  0  0  0  0  0  0  0  0  0
   13.4570  -13.8017    0.0000 C   0  0  0  0  0  0  0  0  0  0  0  0
   12.9721  -13.1342    0.0000 C   0  0  2  0  0  0  0  0  0  0  0  0
   12.1875  -13.3892    0.0000 C   0  0  1  0  0  0  0  0  0  0  0  0
   11.4730  -12.9767    0.0000 C   0  0  1  0  0  0  0  0  0  0  0  0
   10.7586  -13.3892    0.0000 C   0  0  2  0  0  0  0  0  0  0  0  0
   10.7586  -14.2142    0.0000 C   0  0  2  0  0  0  0  0  0  0  0  0
   10.0441  -14.6267    0.0000 C   0  0  1  0  0  0  0  0  0  0  0  0
    9.3296  -14.2142    0.0000 C   0  0  0  0  0  0  0  0  0  0  0  0
    8.6151  -14.6267    0.0000 C   0  0  0  0  0  0  0  0  0  0  0  0
    8.6151  -15.4517    0.0000 C   0  0  1  0  0  0  0  0  0  0  0  0
    9.3296  -15.8642    0.0000 C   0  0  0  0  0  0  0  0  0  0  0  0
   10.0441  -15.4517    0.0000 C   0  0  2  0  0  0  0  0  0  0  0  0
   10.7586  -15.8642    0.0000 C   0  0  0  0  0  0  0  0  0  0  0  0
   11.4730  -15.4517    0.0000 C   0  0  0  0  0  0  0  0  0  0  0  0
   10.0441  -13.8017    0.0000 C   0  0  0  0  0  0  0  0  0  0  0  0
   12.2737  -12.5687    0.0000 C   0  0  0  0  0  0  0  0  0  0  0  0
    7.9007  -15.8642    0.0000 O   0  0  0  0  0  0  0  0  0  0  0  0
    7.1862  -14.6267    0.0000 O   0  0  0  0  0  0  0  0  0  0  0  0
    7.1862  -15.4517    0.0000 C   0  0  2  0  0  0  0  0  0  0  0  0
    6.4717  -15.8642    0.0000 C   0  0  0  0  0  0  0  0  0  0  0  0
    5.7573  -15.4517    0.0000 C   0  0  2  0  0  0  0  0  0  0  0  0
    5.7573  -14.6267    0.0000 C   0  0  1  0  0  0  0  0  0  0  0  0
    6.4717  -14.2142    0.0000 C   0  0  1  0  0  0  0  0  0  0  0  0
    6.4717  -13.3892    0.0000 C   0  0  0  0  0  0  0  0  0  0  0  0
    5.0428  -15.8642    0.0000 O   0  0  0  0  0  0  0  0  0  0  0  0
    5.0428  -16.6892    0.0000 C   0  0  0  0  0  0  0  0  0  0  0  0
    5.0428  -14.2142    0.0000 O   0  0  0  0  0  0  0  0  0  0  0  0
    4.3283  -15.4517    0.0000 O   0  0  0  0  0  0  0  0  0  0  0  0
    4.3283  -14.6267    0.0000 C   0  0  2  0  0  0  0  0  0  0  0  0
    3.6138  -14.2142    0.0000 C   0  0  1  0  0  0  0  0  0  0  0  0
    2.8994  -14.6267    0.0000 C   0  0  1  0  0  0  0  0  0  0  0  0
    2.8994  -15.4517    0.0000 C   0  0  1  0  0  0  0  0  0  0  0  0
    3.6138  -15.8642    0.0000 C   0  0  1  0  0  0  0  0  0  0  0  0
    2.1849  -15.8642    0.0000 O   0  0  0  0  0  0  0  0  0  0  0  0
    2.8994  -17.1017    0.0000 O   0  0  0  0  0  0  0  0  0  0  0  0
    2.1849  -16.6892    0.0000 C   0  0  2  0  0  0  0  0  0  0  0  0
    1.4704  -17.1017    0.0000 C   0  0  1  0  0  0  0  0  0  0  0  0
    1.4704  -17.9267    0.0000 C   0  0  2  0  0  0  0  0  0  0  0  0
    2.1849  -18.3392    0.0000 C   0  0  1  0  0  0  0  0  0  0  0  0
    2.8994  -17.9267    0.0000 C   0  0  1  0  0  0  0  0  0  0  0  0
    3.6138  -18.3392    0.0000 C   0  0  0  0  0  0  0  0  0  0  0  0
    4.3283  -17.9267    0.0000 O   0  0  0  0  0  0  0  0  0  0  0  0
    2.1849  -19.1642    0.0000 O   0  0  0  0  0  0  0  0  0  0  0  0
    0.7560  -18.3392    0.0000 O   0  0  0  0  0  0  0  0  0  0  0  0
    0.7560  -16.6892    0.0000 O   0  0  0  0  0  0  0  0  0  0  0  0
    3.6138  -16.6892    0.0000 C   0  0  0  0  0  0  0  0  0  0  0  0
    2.1849  -14.2142    0.0000 O   0  0  0  0  0  0  0  0  0  0  0  0
    1.4704  -14.6267    0.0000 C   0  0  0  0  0  0  0  0  0  0  0  0
    3.6138  -13.3892    0.0000 O   0  0  0  0  0  0  0  0  0  0  0  0
   11.4730  -12.1517    0.0000 O   0  0  0  0  0  0  0  0  0  0  0  0
   10.7586  -11.7392    0.0000 C   0  0  0  0  0  0  0  0  0  0  0  0
   10.7586  -10.9142    0.0000 O   0  0  0  0  0  0  0  0  0  0  0  0
   10.0441  -12.1517    0.0000 C   0  0  0  0  0  0  0  0  0  0  0  0
   13.2271  -12.3496    0.0000 C   0  0  0  0  0  0  0  0  0  0  0  0
   12.6750  -11.7365    0.0000 O   0  0  0  0  0  0  0  0  0  0  0  0
   14.0340  -12.1781    0.0000 C   0  0  0  0  0  0  0  0  0  0  0  0
   10.7586  -15.0392    0.0000 H   0  0  0  0  0  0  0  0  0  0  0  0
   10.0441  -16.2767    0.0000 H   0  0  0  0  0  0  0  0  0  0  0  0
  1  2  1  0  0  0  0
  2  3  2  0  0  0  0
  3  4  1  0  0  0  0
  1  5  2  0  0  0  0
  1  6  1  0  0  0  0
  2  7  1  0  0  0  0
  8  9  1  1  0  0  0
 10  9  1  1  0  0  0
 10 11  1  0  0  0  0
 11 12  1  0  0  0  0
 12 13  1  0  0  0  0
 13 14  1  0  0  0  0
 14 15  1  0  0  0  0
 15 16  1  0  0  0  0
 16 17  1  0  0  0  0
 17 18  1  0  0  0  0
 18 19  1  0  0  0  0
 19 20  1  0  0  0  0
 20 21  1  0  0  0  0
 21 22  1  0  0  0  0
 22 23  1  0  0  0  0
 23 24  1  0  0  0  0
 24 25  1  0  0  0  0
  8 25  1  0  0  0  0
  8 17  1  0  0  0  0
 18 23  1  0  0  0  0
 10 14  1  0  0  0  0
  8 10  1  0  0  0  0
 18 26  1  1  0  0  0
 14 27  1  1  0  0  0
 29 30  1  0  0  0  0
 30 31  1  0  0  0  0
 31 32  1  0  0  0  0
 32 33  1  0  0  0  0
 33 34  1  0  0  0  0
 29 34  1  0  0  0  0
 34 35  1  1  0  0  0
 36 37  1  0  0  0  0
 32 36  1  1  0  0  0
 39 40  1  0  0  0  0
 40 41  1  0  0  0  0
 41 42  1  0  0  0  0
 42 43  1  0  0  0  0
 43 44  1  0  0  0  0
 39 44  1  0  0  0  0
 46 47  1  0  0  0  0
 47 48  1  0  0  0  0
 48 49  1  0  0  0  0
 49 50  1  0  0  0  0
 50 51  1  0  0  0  0
 46 51  1  0  0  0  0
 52 53  1  0  0  0  0
 51 52  1  6  0  0  0
 50 54  1  1  0  0  0
 49 55  1  6  0  0  0
 48 56  1  1  0  0  0
 47 45  1  6  0  0  0
 43 45  1  1  0  0  0
 44 57  1  6  0  0  0
 58 59  1  0  0  0  0
 42 58  1  1  0  0  0
 41 60  1  1  0  0  0
 40 38  1  6  0  0  0
 33 38  1  6  0  0  0
 30 28  1  1  0  0  0
 21 28  1  1  0  0  0
 62 63  2  0  0  0  0
 62 64  1  0  0  0  0
 61 62  1  0  0  0  0
 15 61  1  1  0  0  0
 65 66  2  0  0  0  0
 65 67  1  0  0  0  0
 13 65  1  6  0  0  0
 16  6  1  6  0  0  0
 17 68  1  6  0  0  0
 23 69  1  6  0  0  0
M  END
>  <cdx:groupId>
23389

>  <cdx:fragmentId>
23268

$$$$
