1869.cdx
  Mrv1902 05222410262D          

 46 48  0  0  0  0            999 V2000
    0.9245   -8.7450    0.0000 C   0  0  0  0  0  0  0  0  0  0  0  0
    1.6390   -9.9825    0.0000 O   0  0  0  0  0  0  0  0  0  0  0  0
    2.3535   -9.5700    0.0000 C   0  0  0  0  0  0  0  0  0  0  0  0
    2.3535   -8.7450    0.0000 C   0  0  0  0  0  0  0  0  0  0  0  0
    1.6390   -8.3325    0.0000 O   0  0  0  0  0  0  0  0  0  0  0  0
    3.0679   -9.9825    0.0000 C   0  0  0  0  0  0  0  0  0  0  0  0
    3.7824   -9.5700    0.0000 C   0  0  0  0  0  0  0  0  0  0  0  0
    3.7824   -8.7450    0.0000 C   0  0  0  0  0  0  0  0  0  0  0  0
    3.0679   -8.3325    0.0000 C   0  0  0  0  0  0  0  0  0  0  0  0
    5.2114   -8.7450    0.0000 C   0  0  0  0  0  0  0  0  0  0  0  0
    4.4969   -8.3325    0.0000 C   0  0  0  0  0  0  0  0  0  0  0  0
    6.6403   -8.7450    0.0000 O   0  0  0  0  0  0  0  0  0  0  0  0
    8.7837   -3.3825    0.0000 C   0  0  0  0  0  0  0  0  0  0  0  0
    8.0692   -4.6200    0.0000 N   0  0  0  0  0  0  0  0  0  0  0  0
    8.0692   -3.7950    0.0000 C   0  0  0  0  0  0  0  0  0  0  0  0
    7.3548   -3.3825    0.0000 O   0  0  0  0  0  0  0  0  0  0  0  0
    7.3548   -5.8575    0.0000 C   0  0  0  0  0  0  0  0  0  0  0  0
    7.3548   -5.0325    0.0000 C   0  0  0  0  0  0  0  0  0  0  0  0
    6.6403   -7.0950    0.0000 C   0  0  0  0  0  0  0  0  0  0  0  0
   11.6416   -8.3325    0.0000 C   0  0  0  0  0  0  0  0  0  0  0  0
    6.6403   -6.2700    0.0000 C   0  0  0  0  0  0  0  0  0  0  0  0
    5.2114   -9.5700    0.0000 C   0  0  0  0  0  0  0  0  0  0  0  0
    4.4969   -9.9825    0.0000 C   0  0  0  0  0  0  0  0  0  0  0  0
    4.4969  -10.8075    0.0000 C   0  0  0  0  0  0  0  0  0  0  0  0
    5.2114  -11.2200    0.0000 C   0  0  0  0  0  0  0  0  0  0  0  0
    5.9258  -10.8075    0.0000 C   0  0  0  0  0  0  0  0  0  0  0  0
    5.9258   -9.9825    0.0000 C   0  0  0  0  0  0  0  0  0  0  0  0
    7.3548   -9.9825    0.0000 C   0  0  0  0  0  0  0  0  0  0  0  0
    6.6403   -9.5700    0.0000 C   0  0  0  0  0  0  0  0  0  0  0  0
    8.7837   -9.9825    0.0000 N   0  0  0  0  0  0  0  0  0  0  0  0
    8.0692   -9.5700    0.0000 C   0  0  0  0  0  0  0  0  0  0  0  0
   10.2127   -9.9825    0.0000 C   0  0  0  0  0  0  0  0  0  0  0  0
    9.4982   -9.5700    0.0000 C   0  0  0  0  0  0  0  0  0  0  0  0
   11.6416   -9.9825    0.0000 C   0  0  0  0  0  0  0  0  0  0  0  0
   10.9271   -9.5700    0.0000 C   0  0  0  0  0  0  0  0  0  0  0  0
   12.3561   -9.5700    0.0000 C   0  0  0  0  0  0  0  0  0  0  0  0
   12.3561   -8.7450    0.0000 C   0  0  0  0  0  0  0  0  0  0  0  0
   10.9271   -8.7450    0.0000 C   0  0  0  0  0  0  0  0  0  0  0  0
    3.0679  -10.8075    0.0000 O   0  0  0  0  0  0  0  0  0  0  0  0
    5.9258   -8.3325    0.0000 C   0  0  0  0  0  0  0  0  0  0  0  0
    5.9258   -7.5075    0.0000 N   0  0  0  0  0  0  0  0  0  0  0  0
    3.7824  -11.2200    0.0000 O   0  0  0  0  0  0  0  0  0  0  0  0
    5.2114  -12.0450    0.0000 O   0  0  0  0  0  0  0  0  0  0  0  0
    8.0692   -8.7450    0.0000 O   0  0  0  0  0  0  0  0  0  0  0  0
   13.0705   -8.3325    0.0000 O   0  0  0  0  0  0  0  0  0  0  0  0
    2.3535  -11.2200    0.0000 C   0  0  0  0  0  0  0  0  0  0  0  0
  2  3  1  0  0  0  0
  3  4  2  0  0  0  0
  4  5  1  0  0  0  0
  5  1  1  0  0  0  0
  3  6  1  0  0  0  0
  6  7  2  0  0  0  0
  7  8  1  0  0  0  0
  8  9  2  0  0  0  0
  9  4  1  0  0  0  0
 10 11  2  0  0  0  0
 11  8  1  0  0  0  0
 40 12  2  0  0  0  0
 13 15  1  0  0  0  0
 40 10  1  0  0  0  0
 14 18  1  0  0  0  0
 15 14  1  0  0  0  0
 16 15  2  0  0  0  0
 17 21  1  0  0  0  0
 18 17  1  0  0  0  0
 19 41  1  0  0  0  0
 21 19  1  0  0  0  0
 41 40  1  0  0  0  0
 22 23  2  0  0  0  0
 23 24  1  0  0  0  0
 24 25  2  0  0  0  0
 25 26  1  0  0  0  0
 26 27  2  0  0  0  0
 27 22  1  0  0  0  0
 28 29  1  0  0  0  0
 29 27  1  0  0  0  0
 30 31  1  0  0  0  0
 31 28  1  0  0  0  0
 32 33  1  0  0  0  0
 33 30  1  0  0  0  0
 34 35  1  0  0  0  0
 35 32  1  0  0  0  0
 34 36  2  0  0  0  0
 36 37  1  0  0  0  0
 37 20  2  0  0  0  0
 20 38  1  0  0  0  0
 38 35  2  0  0  0  0
 10 22  1  0  0  0  0
  6 39  1  0  0  0  0
 24 42  1  0  0  0  0
 25 43  1  0  0  0  0
 31 44  2  0  0  0  0
 37 45  1  0  0  0  0
 39 46  1  0  0  0  0
M  END
>  <cdx:fragmentId>
5

$$$$
