187.cdx
  Mrv1902 05222410232D          

  9  8  0  0  0  0            999 V2000
    5.6434   -4.8240    0.0000 C   0  0  0  0  0  0  0  0  0  0  0  0
    6.3525   -5.2457    0.0000 S   0  0  0  0  0  0  0  0  0  0  0  0
    6.3418   -6.0706    0.0000 C   0  0  0  0  0  0  0  0  0  0  0  0
    7.0509   -6.4923    0.0000 C   0  0  0  0  0  0  0  0  0  0  0  0
    7.0402   -7.3173    0.0000 C   0  0  1  0  0  0  0  0  0  0  0  0
    7.7493   -7.7390    0.0000 C   0  0  0  0  0  0  0  0  0  0  0  0
    7.7386   -8.5639    0.0000 O   0  0  0  0  0  0  0  0  0  0  0  0
    8.4690   -7.3358    0.0000 O   0  0  0  0  0  0  0  0  0  0  0  0
    6.3204   -7.7205    0.0000 N   0  0  0  0  0  0  0  0  0  0  0  0
  1  2  1  0  0  0  0
  2  3  1  0  0  0  0
  3  4  1  0  0  0  0
  4  5  1  0  0  0  0
  5  6  1  0  0  0  0
  6  7  2  0  0  0  0
  6  8  1  0  0  0  0
  5  9  1  1  0  0  0
M  END
>  <cdx:fragmentId>
3

$$$$
