1870.cdx
  Mrv1902 05222410202D          

 47 50  0  0  0  0            999 V2000
    0.9795   -9.5150    0.0000 C   0  0  0  0  0  0  0  0  0  0  0  0
    1.6940  -10.7525    0.0000 O   0  0  0  0  0  0  0  0  0  0  0  0
    2.4085  -10.3400    0.0000 C   0  0  0  0  0  0  0  0  0  0  0  0
    2.4085   -9.5150    0.0000 C   0  0  0  0  0  0  0  0  0  0  0  0
    1.6940   -9.1025    0.0000 O   0  0  0  0  0  0  0  0  0  0  0  0
    3.1229  -10.7525    0.0000 C   0  0  0  0  0  0  0  0  0  0  0  0
    3.8374  -10.3400    0.0000 C   0  0  0  0  0  0  0  0  0  0  0  0
    3.8374   -9.5150    0.0000 C   0  0  0  0  0  0  0  0  0  0  0  0
    3.1229   -9.1025    0.0000 C   0  0  0  0  0  0  0  0  0  0  0  0
    5.2664   -9.5150    0.0000 C   0  0  0  0  0  0  0  0  0  0  0  0
    4.5519   -9.1025    0.0000 C   0  0  0  0  0  0  0  0  0  0  0  0
    9.5532   -5.3900    0.0000 O   0  0  0  0  0  0  0  0  0  0  0  0
    8.1242   -7.0400    0.0000 C   0  0  0  0  0  0  0  0  0  0  0  0
   11.6966   -9.1300    0.0000 C   0  0  0  0  0  0  0  0  0  0  0  0
    5.2664  -10.3675    0.0000 C   0  0  0  0  0  0  0  0  0  0  0  0
    4.5519  -10.7800    0.0000 C   0  0  0  0  0  0  0  0  0  0  0  0
    4.5519  -11.6050    0.0000 C   0  0  0  0  0  0  0  0  0  0  0  0
    5.2664  -12.0175    0.0000 C   0  0  0  0  0  0  0  0  0  0  0  0
    5.9808  -11.6050    0.0000 C   0  0  0  0  0  0  0  0  0  0  0  0
    5.9808  -10.7800    0.0000 C   0  0  0  0  0  0  0  0  0  0  0  0
    7.4098  -10.7800    0.0000 C   0  0  0  0  0  0  0  0  0  0  0  0
    6.6953  -10.3675    0.0000 C   0  0  0  0  0  0  0  0  0  0  0  0
    8.8387  -10.7800    0.0000 N   0  0  0  0  0  0  0  0  0  0  0  0
    8.1242  -10.3675    0.0000 C   0  0  0  0  0  0  0  0  0  0  0  0
   10.2677  -10.7800    0.0000 C   0  0  0  0  0  0  0  0  0  0  0  0
    9.5532  -10.3675    0.0000 C   0  0  0  0  0  0  0  0  0  0  0  0
   11.6966  -10.7800    0.0000 C   0  0  0  0  0  0  0  0  0  0  0  0
   10.9821  -10.3675    0.0000 C   0  0  0  0  0  0  0  0  0  0  0  0
   12.4111  -10.3675    0.0000 C   0  0  0  0  0  0  0  0  0  0  0  0
   12.4111   -9.5425    0.0000 C   0  0  0  0  0  0  0  0  0  0  0  0
   10.9821   -9.5425    0.0000 C   0  0  0  0  0  0  0  0  0  0  0  0
    3.1229  -11.5775    0.0000 O   0  0  0  0  0  0  0  0  0  0  0  0
    8.8387   -6.6275    0.0000 C   0  0  0  0  0  0  0  0  0  0  0  0
    8.8387   -5.8025    0.0000 C   0  0  0  0  0  0  0  0  0  0  0  0
    3.8374  -12.0175    0.0000 O   0  0  0  0  0  0  0  0  0  0  0  0
    5.2664  -12.8425    0.0000 O   0  0  0  0  0  0  0  0  0  0  0  0
    8.1242   -9.5425    0.0000 O   0  0  0  0  0  0  0  0  0  0  0  0
   13.1255   -9.1300    0.0000 O   0  0  0  0  0  0  0  0  0  0  0  0
    8.1242   -5.3900    0.0000 C   0  0  0  0  0  0  0  0  0  0  0  0
    7.4098   -5.8025    0.0000 C   0  0  0  0  0  0  0  0  0  0  0  0
    6.6953   -9.5150    0.0000 O   0  0  0  0  0  0  0  0  0  0  0  0
    7.4098   -6.6275    0.0000 C   0  0  0  0  0  0  0  0  0  0  0  0
    6.6953   -7.8650    0.0000 C   0  0  0  0  0  0  0  0  0  0  0  0
    6.6953   -7.0400    0.0000 C   0  0  0  0  0  0  0  0  0  0  0  0
    5.9808   -9.1025    0.0000 C   0  0  0  0  0  0  0  0  0  0  0  0
    5.9808   -8.2775    0.0000 N   0  0  0  0  0  0  0  0  0  0  0  0
    2.4085  -11.9900    0.0000 C   0  0  0  0  0  0  0  0  0  0  0  0
  2  3  1  0  0  0  0
  3  4  2  0  0  0  0
  4  5  1  0  0  0  0
  5  1  1  0  0  0  0
  3  6  1  0  0  0  0
  6  7  2  0  0  0  0
  7  8  1  0  0  0  0
  8  9  2  0  0  0  0
  9  4  1  0  0  0  0
 10 11  2  0  0  0  0
 11  8  1  0  0  0  0
 34 12  1  0  0  0  0
 13 42  1  0  0  0  0
 45 10  1  0  0  0  0
 33 13  2  0  0  0  0
 34 33  1  0  0  0  0
 39 34  2  0  0  0  0
 40 39  1  0  0  0  0
 42 40  2  0  0  0  0
 15 16  2  0  0  0  0
 16 17  1  0  0  0  0
 17 18  2  0  0  0  0
 18 19  1  0  0  0  0
 19 20  2  0  0  0  0
 20 15  1  0  0  0  0
 21 22  1  0  0  0  0
 22 20  1  0  0  0  0
 23 24  1  0  0  0  0
 24 21  1  0  0  0  0
 25 26  1  0  0  0  0
 26 23  1  0  0  0  0
 27 28  1  0  0  0  0
 28 25  1  0  0  0  0
 27 29  2  0  0  0  0
 29 30  1  0  0  0  0
 30 14  2  0  0  0  0
 14 31  1  0  0  0  0
 31 28  2  0  0  0  0
 10 15  1  0  0  0  0
  6 32  1  0  0  0  0
 17 35  1  0  0  0  0
 18 36  1  0  0  0  0
 24 37  2  0  0  0  0
 30 38  1  0  0  0  0
 45 41  2  0  0  0  0
 42 44  1  0  0  0  0
 43 46  1  0  0  0  0
 44 43  1  0  0  0  0
 46 45  1  0  0  0  0
 32 47  1  0  0  0  0
M  END
>  <cdx:fragmentId>
5

$$$$
