187192.cdx
  Mrv1902 05222410242D          

 22 24  0  0  0  0            999 V2000
    7.7114   -7.1394    0.0000 C   0  0  0  0  0  0  0  0  0  0  0  0
    8.4259   -7.5519    0.0000 C   0  0  0  0  0  0  0  0  0  0  0  0
    8.4259   -8.3769    0.0000 C   0  0  0  0  0  0  0  0  0  0  0  0
    7.7114   -8.7894    0.0000 C   0  0  0  0  0  0  0  0  0  0  0  0
    7.7114   -9.6144    0.0000 C   0  0  0  0  0  0  0  0  0  0  0  0
    6.9970  -10.0269    0.0000 C   0  0  0  0  0  0  0  0  0  0  0  0
    6.2825   -9.6144    0.0000 C   0  0  0  0  0  0  0  0  0  0  0  0
    6.2825   -8.7894    0.0000 C   0  0  0  0  0  0  0  0  0  0  0  0
    6.9970   -8.3769    0.0000 C   0  0  0  0  0  0  0  0  0  0  0  0
    6.9970   -7.5519    0.0000 O   0  0  0  0  0  0  0  0  0  0  0  0
    5.5680   -8.3769    0.0000 C   0  0  0  0  0  0  0  0  0  0  0  0
    4.8535   -8.7894    0.0000 C   0  0  0  0  0  0  0  0  0  0  0  0
    4.8535   -9.6144    0.0000 C   0  0  0  0  0  0  0  0  0  0  0  0
    5.5680  -10.0269    0.0000 C   0  0  0  0  0  0  0  0  0  0  0  0
    8.4259  -10.0269    0.0000 C   0  0  0  0  0  0  0  0  0  0  0  0
    8.4259  -10.8519    0.0000 O   0  0  0  0  0  0  0  0  0  0  0  0
    9.1404   -9.6144    0.0000 O   0  0  0  0  0  0  0  0  0  0  0  0
    7.2989   -6.4250    0.0000 C   0  0  0  0  0  0  0  0  0  0  0  0
    8.1239   -6.4250    0.0000 C   0  0  0  0  0  0  0  0  0  0  0  0
    6.9970  -10.8519    0.0000 O   0  0  0  0  0  0  0  0  0  0  0  0
    9.1404   -7.1394    0.0000 O   0  0  0  0  0  0  0  0  0  0  0  0
    9.8548  -10.0269    0.0000 C   0  0  0  0  0  0  0  0  0  0  0  0
  1  2  1  0  0  0  0
  2  3  2  0  0  0  0
  3  4  1  0  0  0  0
  4  5  1  0  0  0  0
  5  6  2  0  0  0  0
  6  7  1  0  0  0  0
  7  8  1  0  0  0  0
  8  9  1  0  0  0  0
  4  9  2  0  0  0  0
  9 10  1  0  0  0  0
  1 10  1  0  0  0  0
 11 12  1  0  0  0  0
 12 13  2  0  0  0  0
 13 14  1  0  0  0  0
 14  7  2  0  0  0  0
 11  8  2  0  0  0  0
 15 16  2  0  0  0  0
 15 17  1  0  0  0  0
  5 15  1  0  0  0  0
  1 18  1  0  0  0  0
  1 19  1  0  0  0  0
  6 20  1  0  0  0  0
  2 21  1  0  0  0  0
 17 22  1  0  0  0  0
M  END
>  <cdx:fragmentId>
176452

$$$$
