1873.cdx
  Mrv1902 05222410192D          

 44 46  0  0  0  0            999 V2000
    0.7320   -6.5450    0.0000 C   0  0  0  0  0  0  0  0  0  0  0  0
    1.4465   -7.7825    0.0000 O   0  0  0  0  0  0  0  0  0  0  0  0
    2.1610   -7.3700    0.0000 C   0  0  0  0  0  0  0  0  0  0  0  0
    2.1610   -6.5450    0.0000 C   0  0  0  0  0  0  0  0  0  0  0  0
    1.4465   -6.1325    0.0000 O   0  0  0  0  0  0  0  0  0  0  0  0
    2.8754   -7.7825    0.0000 C   0  0  0  0  0  0  0  0  0  0  0  0
    3.5899   -7.3700    0.0000 C   0  0  0  0  0  0  0  0  0  0  0  0
    3.5899   -6.5450    0.0000 C   0  0  0  0  0  0  0  0  0  0  0  0
    2.8754   -6.1325    0.0000 C   0  0  0  0  0  0  0  0  0  0  0  0
    5.0189   -6.5450    0.0000 C   0  0  0  0  0  0  0  0  0  0  0  0
    4.3044   -6.1325    0.0000 C   0  0  0  0  0  0  0  0  0  0  0  0
    6.4478   -6.5450    0.0000 O   0  0  0  0  0  0  0  0  0  0  0  0
    8.5912   -1.1825    0.0000 C   0  0  0  0  0  0  0  0  0  0  0  0
    7.8767   -2.4200    0.0000 N   0  0  0  0  0  0  0  0  0  0  0  0
    7.8767   -1.5950    0.0000 C   0  0  0  0  0  0  0  0  0  0  0  0
    7.1623   -1.1825    0.0000 O   0  0  0  0  0  0  0  0  0  0  0  0
    7.1623   -3.6575    0.0000 C   0  0  0  0  0  0  0  0  0  0  0  0
    7.1623   -2.8325    0.0000 C   0  0  0  0  0  0  0  0  0  0  0  0
    6.4478   -4.8950    0.0000 C   0  0  0  0  0  0  0  0  0  0  0  0
   11.4491   -6.1875    0.0000 C   0  0  0  0  0  0  0  0  0  0  0  0
    6.4478   -4.0700    0.0000 C   0  0  0  0  0  0  0  0  0  0  0  0
    5.0189   -7.4250    0.0000 C   0  0  0  0  0  0  0  0  0  0  0  0
    4.3044   -7.8375    0.0000 C   0  0  0  0  0  0  0  0  0  0  0  0
    4.3044   -8.6625    0.0000 C   0  0  0  0  0  0  0  0  0  0  0  0
    5.0189   -9.0750    0.0000 C   0  0  0  0  0  0  0  0  0  0  0  0
    5.7333   -8.6625    0.0000 C   0  0  0  0  0  0  0  0  0  0  0  0
    5.7333   -7.8375    0.0000 C   0  0  0  0  0  0  0  0  0  0  0  0
    7.1623   -7.8375    0.0000 C   0  0  0  0  0  0  0  0  0  0  0  0
    6.4478   -7.4250    0.0000 C   0  0  0  0  0  0  0  0  0  0  0  0
    8.5912   -7.8375    0.0000 N   0  0  0  0  0  0  0  0  0  0  0  0
    7.8767   -7.4250    0.0000 C   0  0  0  0  0  0  0  0  0  0  0  0
   10.0202   -7.8375    0.0000 C   0  0  0  0  0  0  0  0  0  0  0  0
    9.3057   -7.4250    0.0000 C   0  0  0  0  0  0  0  0  0  0  0  0
   11.4491   -7.8375    0.0000 C   0  0  0  0  0  0  0  0  0  0  0  0
   10.7346   -7.4250    0.0000 C   0  0  0  0  0  0  0  0  0  0  0  0
   12.1636   -7.4250    0.0000 C   0  0  0  0  0  0  0  0  0  0  0  0
   12.1636   -6.6000    0.0000 C   0  0  0  0  0  0  0  0  0  0  0  0
   10.7346   -6.6000    0.0000 C   0  0  0  0  0  0  0  0  0  0  0  0
    5.7333   -6.1325    0.0000 C   0  0  0  0  0  0  0  0  0  0  0  0
    5.7333   -5.3075    0.0000 N   0  0  0  0  0  0  0  0  0  0  0  0
    3.5899   -9.0750    0.0000 O   0  0  0  0  0  0  0  0  0  0  0  0
    5.0189   -9.9000    0.0000 O   0  0  0  0  0  0  0  0  0  0  0  0
    7.8767   -6.6000    0.0000 O   0  0  0  0  0  0  0  0  0  0  0  0
   12.8780   -6.1875    0.0000 O   0  0  0  0  0  0  0  0  0  0  0  0
  2  3  1  0  0  0  0
  3  4  2  0  0  0  0
  4  5  1  0  0  0  0
  5  1  1  0  0  0  0
  3  6  1  0  0  0  0
  6  7  2  0  0  0  0
  7  8  1  0  0  0  0
  8  9  2  0  0  0  0
  9  4  1  0  0  0  0
 10 11  2  0  0  0  0
 11  8  1  0  0  0  0
 39 12  2  0  0  0  0
 13 15  1  0  0  0  0
 39 10  1  0  0  0  0
 14 18  1  0  0  0  0
 15 14  1  0  0  0  0
 16 15  2  0  0  0  0
 17 21  1  0  0  0  0
 18 17  1  0  0  0  0
 19 40  1  0  0  0  0
 21 19  1  0  0  0  0
 40 39  1  0  0  0  0
 22 23  2  0  0  0  0
 23 24  1  0  0  0  0
 24 25  2  0  0  0  0
 25 26  1  0  0  0  0
 26 27  2  0  0  0  0
 27 22  1  0  0  0  0
 28 29  1  0  0  0  0
 29 27  1  0  0  0  0
 30 31  1  0  0  0  0
 31 28  1  0  0  0  0
 32 33  1  0  0  0  0
 33 30  1  0  0  0  0
 34 35  1  0  0  0  0
 35 32  1  0  0  0  0
 34 36  2  0  0  0  0
 36 37  1  0  0  0  0
 37 20  2  0  0  0  0
 20 38  1  0  0  0  0
 38 35  2  0  0  0  0
 10 22  1  0  0  0  0
 24 41  1  0  0  0  0
 25 42  1  0  0  0  0
 31 43  2  0  0  0  0
 37 44  1  0  0  0  0
M  END
>  <cdx:fragmentId>
5

$$$$
