14187587.cdx
  Mrv1902 05222410242D          

 27 30  0  0  0  0            999 V2000
   10.5810  -13.9017    0.0000 C   0  0  0  0  0  0  0  0  0  0  0  0
   10.5810  -14.7267    0.0000 C   0  0  0  0  0  0  0  0  0  0  0  0
    9.8666  -15.1392    0.0000 C   0  0  0  0  0  0  0  0  0  0  0  0
    9.1521  -14.7267    0.0000 C   0  0  0  0  0  0  0  0  0  0  0  0
    8.4376  -15.1392    0.0000 C   0  0  0  0  0  0  0  0  0  0  0  0
    7.7231  -14.7267    0.0000 C   0  0  0  0  0  0  0  0  0  0  0  0
    7.7231  -13.9017    0.0000 C   0  0  0  0  0  0  0  0  0  0  0  0
    8.4376  -13.4892    0.0000 C   0  0  0  0  0  0  0  0  0  0  0  0
    9.1521  -13.9017    0.0000 C   0  0  0  0  0  0  0  0  0  0  0  0
    9.8666  -13.4892    0.0000 O   0  0  0  0  0  0  0  0  0  0  0  0
    7.0087  -15.1392    0.0000 C   0  0  0  0  0  0  0  0  0  0  0  0
    6.2942  -14.7267    0.0000 C   0  0  0  0  0  0  0  0  0  0  0  0
    6.2942  -13.9017    0.0000 C   0  0  0  0  0  0  0  0  0  0  0  0
    7.0087  -13.4892    0.0000 O   0  0  0  0  0  0  0  0  0  0  0  0
    5.5797  -13.4892    0.0000 O   0  0  0  0  0  0  0  0  0  0  0  0
   10.9935  -13.1872    0.0000 C   0  0  0  0  0  0  0  0  0  0  0  0
   11.4060  -13.9017    0.0000 C   0  0  0  0  0  0  0  0  0  0  0  0
    8.4376  -15.9642    0.0000 O   0  0  0  0  0  0  0  0  0  0  0  0
    9.1521  -16.3767    0.0000 C   0  0  0  0  0  0  0  0  0  0  0  0
    5.5797  -15.1392    0.0000 C   0  0  0  0  0  0  0  0  0  0  0  0
    5.5797  -15.9642    0.0000 C   0  0  0  0  0  0  0  0  0  0  0  0
    4.8653  -16.3767    0.0000 C   0  0  0  0  0  0  0  0  0  0  0  0
    4.1508  -15.9642    0.0000 C   0  0  0  0  0  0  0  0  0  0  0  0
    4.1508  -15.1392    0.0000 C   0  0  0  0  0  0  0  0  0  0  0  0
    4.8653  -14.7267    0.0000 C   0  0  0  0  0  0  0  0  0  0  0  0
    3.4363  -16.3767    0.0000 O   0  0  0  0  0  0  0  0  0  0  0  0
    6.2942  -16.3767    0.0000 O   0  0  0  0  0  0  0  0  0  0  0  0
  1  2  1  0  0  0  0
  2  3  1  0  0  0  0
  3  4  1  0  0  0  0
  4  5  1  0  0  0  0
  5  6  2  0  0  0  0
  6  7  1  0  0  0  0
  7  8  2  0  0  0  0
  8  9  1  0  0  0  0
  4  9  2  0  0  0  0
  9 10  1  0  0  0  0
  1 10  1  0  0  0  0
 11 12  2  0  0  0  0
 12 13  1  0  0  0  0
 13 14  1  0  0  0  0
 11  6  1  0  0  0  0
 14  7  1  0  0  0  0
 13 15  2  0  0  0  0
  1 16  1  0  0  0  0
  1 17  1  0  0  0  0
 18 19  1  0  0  0  0
  5 18  1  0  0  0  0
 20 21  1  0  0  0  0
 21 22  2  0  0  0  0
 22 23  1  0  0  0  0
 23 24  2  0  0  0  0
 24 25  1  0  0  0  0
 20 25  2  0  0  0  0
 23 26  1  0  0  0  0
 21 27  1  0  0  0  0
 12 20  1  0  0  0  0
M  END
>  <cdx:fragmentId>
103840

$$$$
