187808.cdx
  Mrv1902 05222410222D          

 32 35  0  0  0  0            999 V2000
    5.0576   -8.7244    0.0000 O   0  0  0  0  0  0  0  0  0  0  0  0
    5.7717   -7.4868    0.0000 O   0  0  0  0  0  0  0  0  0  0  0  0
    5.0574   -7.8994    0.0000 C   0  0  2  0  0  0  0  0  0  0  0  0
    4.3428   -7.4871    0.0000 C   0  0  1  0  0  0  0  0  0  0  0  0
    4.3426   -6.6621    0.0000 C   0  0  2  0  0  0  0  0  0  0  0  0
    5.0570   -6.2494    0.0000 C   0  0  1  0  0  0  0  0  0  0  0  0
    5.7715   -6.6618    0.0000 C   0  0  1  0  0  0  0  0  0  0  0  0
    6.4859   -6.2491    0.0000 C   0  0  0  0  0  0  0  0  0  0  0  0
    7.2005   -6.6614    0.0000 O   0  0  0  0  0  0  0  0  0  0  0  0
    5.0568   -5.4244    0.0000 O   0  0  0  0  0  0  0  0  0  0  0  0
    3.6280   -6.2498    0.0000 O   0  0  0  0  0  0  0  0  0  0  0  0
    3.6284   -7.8998    0.0000 O   0  0  0  0  0  0  0  0  0  0  0  0
   11.5536  -11.4607    0.0000 O   0  0  0  0  0  0  0  0  0  0  0  0
   10.0864   -9.8446    0.0000 C   0  0  0  0  0  0  0  0  0  0  0  0
   10.8104  -10.2402    0.0000 C   0  0  0  0  0  0  0  0  0  0  0  0
   10.8297  -11.0650    0.0000 C   0  0  0  0  0  0  0  0  0  0  0  0
   10.1251  -11.4941    0.0000 C   0  0  0  0  0  0  0  0  0  0  0  0
    9.4011  -11.0984    0.0000 C   0  0  0  0  0  0  0  0  0  0  0  0
    9.3818  -10.2737    0.0000 C   0  0  0  0  0  0  0  0  0  0  0  0
    4.3722   -9.9783    0.0000 C   0  0  0  0  0  0  0  0  0  0  0  0
    5.0962  -10.3740    0.0000 O   0  0  0  0  0  0  0  0  0  0  0  0
    7.9726  -11.1319    0.0000 O   0  0  0  0  0  0  0  0  0  0  0  0
    7.9147   -8.6576    0.0000 O   0  0  0  0  0  0  0  0  0  0  0  0
    7.2100   -9.0867    0.0000 C   0  0  0  0  0  0  0  0  0  0  0  0
    6.4861   -8.6910    0.0000 C   0  0  0  0  0  0  0  0  0  0  0  0
    5.7815   -9.1201    0.0000 C   0  0  0  0  0  0  0  0  0  0  0  0
    5.8008   -9.9449    0.0000 C   0  0  0  0  0  0  0  0  0  0  0  0
    6.5247  -10.3406    0.0000 C   0  0  0  0  0  0  0  0  0  0  0  0
    7.2293   -9.9114    0.0000 C   0  0  0  0  0  0  0  0  0  0  0  0
    7.9533  -10.3071    0.0000 C   0  0  0  0  0  0  0  0  0  0  0  0
    8.6579   -9.8780    0.0000 C   0  0  0  0  0  0  0  0  0  0  0  0
    8.6386   -9.0532    0.0000 C   0  0  0  0  0  0  0  0  0  0  0  0
 31 19  1  0  0  0  0
 16 13  1  0  0  0  0
 19 14  2  0  0  0  0
 15 14  1  0  0  0  0
 16 15  2  0  0  0  0
 17 16  1  0  0  0  0
 18 17  2  0  0  0  0
 19 18  1  0  0  0  0
 27 21  1  0  0  0  0
 21 20  1  0  0  0  0
 26  1  1  0  0  0  0
 30 22  2  0  0  0  0
 32 23  1  0  0  0  0
 24 23  1  0  0  0  0
 29 24  2  0  0  0  0
 25 24  1  0  0  0  0
 26 25  2  0  0  0  0
 27 26  1  0  0  0  0
 28 27  2  0  0  0  0
 29 28  1  0  0  0  0
 30 29  1  0  0  0  0
 31 30  1  0  0  0  0
 32 31  2  0  0  0  0
  2  3  1  0  0  0  0
  3  4  1  0  0  0  0
  4  5  1  0  0  0  0
  5  6  1  0  0  0  0
  6  7  1  0  0  0  0
  2  7  1  0  0  0  0
  8  9  1  0  0  0  0
  7  8  1  1  0  0  0
  6 10  1  6  0  0  0
  5 11  1  1  0  0  0
  4 12  1  6  0  0  0
  3  1  1  1  0  0  0
M  END
>  <cdx:fragmentId>
29

$$$$
