188.cdx
  Mrv1902 05222410222D          

 15 16  0  0  0  0            999 V2000
    6.4311   -9.2939    0.0000 N   0  0  0  0  0  0  0  0  0  0  0  0
    7.1396   -8.8712    0.0000 C   0  0  2  0  0  0  0  0  0  0  0  0
    7.8599   -9.2735    0.0000 C   0  0  0  0  0  0  0  0  0  0  0  0
    7.1278   -8.0463    0.0000 C   0  0  0  0  0  0  0  0  0  0  0  0
    7.8717  -10.0984    0.0000 O   0  0  0  0  0  0  0  0  0  0  0  0
    8.5684   -8.8508    0.0000 O   0  0  0  0  0  0  0  0  0  0  0  0
    6.3987   -5.4642    0.0000 C   0  0  0  0  0  0  0  0  0  0  0  0
    5.5796   -5.3655    0.0000 C   0  0  0  0  0  0  0  0  0  0  0  0
    5.0846   -6.0254    0.0000 C   0  0  0  0  0  0  0  0  0  0  0  0
    5.4085   -6.7841    0.0000 C   0  0  0  0  0  0  0  0  0  0  0  0
    6.2276   -6.8829    0.0000 C   0  0  0  0  0  0  0  0  0  0  0  0
    6.7227   -6.2229    0.0000 C   0  0  0  0  0  0  0  0  0  0  0  0
    5.0615   -7.5326    0.0000 N   0  0  0  0  0  0  0  0  0  0  0  0
    5.6661   -8.0939    0.0000 C   0  0  0  0  0  0  0  0  0  0  0  0
    6.3868   -7.6924    0.0000 C   0  0  0  0  0  0  0  0  0  0  0  0
  2  1  1  1  0  0  0
  2  3  1  0  0  0  0
  2  4  1  0  0  0  0
  3  5  2  0  0  0  0
  3  6  1  0  0  0  0
  7  8  2  0  0  0  0
  8  9  1  0  0  0  0
  9 10  2  0  0  0  0
 10 11  1  0  0  0  0
 11 12  2  0  0  0  0
 12  7  1  0  0  0  0
 10 13  1  0  0  0  0
 13 14  1  0  0  0  0
 14 15  2  0  0  0  0
 15 11  1  0  0  0  0
 15  4  1  0  0  0  0
M  END
>  <cdx:fragmentId>
77

$$$$
