1880.cdx
  Mrv1902 05222410262D          

 19 21  0  0  0  0            999 V2000
    5.4764   -3.6229    0.0000 C   0  0  0  0  0  0  0  0  0  0  0  0
    5.4764   -2.7979    0.0000 C   0  0  0  0  0  0  0  0  0  0  0  0
    4.7619   -2.3854    0.0000 C   0  0  0  0  0  0  0  0  0  0  0  0
    4.0475   -2.7979    0.0000 C   0  0  0  0  0  0  0  0  0  0  0  0
    3.3330   -2.3854    0.0000 C   0  0  0  0  0  0  0  0  0  0  0  0
    2.6185   -2.7979    0.0000 C   0  0  0  0  0  0  0  0  0  0  0  0
    2.6185   -3.6229    0.0000 C   0  0  0  0  0  0  0  0  0  0  0  0
    3.3330   -4.0354    0.0000 C   0  0  0  0  0  0  0  0  0  0  0  0
    4.0475   -3.6229    0.0000 C   0  0  0  0  0  0  0  0  0  0  0  0
    4.7619   -4.0354    0.0000 O   0  0  0  0  0  0  0  0  0  0  0  0
    4.7619   -1.5604    0.0000 O   0  0  0  0  0  0  0  0  0  0  0  0
    6.1909   -4.0354    0.0000 C   0  0  0  0  0  0  0  0  0  0  0  0
    6.9053   -3.6229    0.0000 C   0  0  0  0  0  0  0  0  0  0  0  0
    7.6198   -4.0354    0.0000 C   0  0  0  0  0  0  0  0  0  0  0  0
    7.6198   -4.8604    0.0000 C   0  0  0  0  0  0  0  0  0  0  0  0
    6.9053   -5.2729    0.0000 C   0  0  0  0  0  0  0  0  0  0  0  0
    6.1909   -4.8604    0.0000 C   0  0  0  0  0  0  0  0  0  0  0  0
    3.3330   -4.8604    0.0000 O   0  0  0  0  0  0  0  0  0  0  0  0
    1.9040   -4.0354    0.0000 O   0  0  0  0  0  0  0  0  0  0  0  0
  1  2  2  0  0  0  0
  2  3  1  0  0  0  0
  3  4  1  0  0  0  0
  4  5  1  0  0  0  0
  5  6  2  0  0  0  0
  6  7  1  0  0  0  0
  7  8  2  0  0  0  0
  8  9  1  0  0  0  0
  4  9  2  0  0  0  0
  9 10  1  0  0  0  0
  1 10  1  0  0  0  0
  3 11  2  0  0  0  0
 12 13  1  0  0  0  0
 13 14  2  0  0  0  0
 14 15  1  0  0  0  0
 15 16  2  0  0  0  0
 16 17  1  0  0  0  0
 12 17  2  0  0  0  0
  1 12  1  0  0  0  0
  8 18  1  0  0  0  0
  7 19  1  0  0  0  0
M  END
>  <cdx:groupId>
61

>  <cdx:fragmentId>
5

$$$$
