18815.cdx
  Mrv1902 05222410212D          

 19 18  0  0  0  0            999 V2000
    0.7322   -2.9608    0.0000 C   0  0  0  0  0  0  0  0  0  0  0  0
    1.4467   -2.5483    0.0000 C   0  0  0  0  0  0  0  0  0  0  0  0
    2.1612   -2.9608    0.0000 C   0  0  0  0  0  0  0  0  0  0  0  0
    2.8756   -2.5483    0.0000 C   0  0  0  0  0  0  0  0  0  0  0  0
    3.5901   -2.9608    0.0000 C   0  0  0  0  0  0  0  0  0  0  0  0
    4.3046   -2.5483    0.0000 C   0  0  0  0  0  0  0  0  0  0  0  0
    5.0191   -2.9608    0.0000 C   0  0  0  0  0  0  0  0  0  0  0  0
    5.7335   -2.5483    0.0000 C   0  0  0  0  0  0  0  0  0  0  0  0
    6.4480   -2.9608    0.0000 C   0  0  0  0  0  0  0  0  0  0  0  0
    7.1625   -2.5483    0.0000 C   0  0  0  0  0  0  0  0  0  0  0  0
    7.8769   -2.9608    0.0000 C   0  0  0  0  0  0  0  0  0  0  0  0
    8.5914   -2.5483    0.0000 C   0  0  0  0  0  0  0  0  0  0  0  0
    9.3059   -2.9608    0.0000 C   0  0  0  0  0  0  0  0  0  0  0  0
   10.0203   -2.5483    0.0000 C   0  0  0  0  0  0  0  0  0  0  0  0
   10.7348   -2.9608    0.0000 C   0  0  0  0  0  0  0  0  0  0  0  0
   11.4493   -2.5483    0.0000 C   0  0  0  0  0  0  0  0  0  0  0  0
   12.1638   -2.9608    0.0000 C   0  0  0  0  0  0  0  0  0  0  0  0
   12.8782   -2.5483    0.0000 C   0  0  0  0  0  0  0  0  0  0  0  0
   13.5927   -2.9608    0.0000 Cl  0  0  0  0  0  0  0  0  0  0  0  0
  1  2  1  0  0  0  0
  2  3  1  0  0  0  0
  3  4  1  0  0  0  0
  4  5  1  0  0  0  0
  5  6  1  0  0  0  0
  6  7  1  0  0  0  0
  7  8  1  0  0  0  0
  8  9  1  0  0  0  0
  9 10  1  0  0  0  0
 10 11  1  0  0  0  0
 11 12  1  0  0  0  0
 12 13  1  0  0  0  0
 13 14  1  0  0  0  0
 14 15  1  0  0  0  0
 15 16  1  0  0  0  0
 16 17  1  0  0  0  0
 17 18  1  0  0  0  0
 18 19  1  0  0  0  0
M  END
>  <cdx:groupId>
58

>  <cdx:fragmentId>
5

$$$$
