18818.cdx
  Mrv1902 05222410252D          

 10 11  0  0  0  0            999 V2000
    8.1003   -2.5154    0.0000 C   0  0  0  0  0  0  0  0  0  0  0  0
    5.9047   -5.2199    0.0000 C   0  0  0  0  0  0  0  0  0  0  0  0
    7.2101   -5.8011    0.0000 C   0  0  0  0  0  0  0  0  0  0  0  0
    6.7252   -5.1336    0.0000 C   0  0  0  0  0  0  0  0  0  0  0  0
    6.3462   -3.9675    0.0000 C   0  0  0  0  0  0  0  0  0  0  0  0
    7.0607   -3.5550    0.0000 C   0  0  0  0  0  0  0  0  0  0  0  0
    7.8453   -3.3000    0.0000 C   0  0  0  0  0  0  0  0  0  0  0  0
    8.3303   -3.9675    0.0000 C   0  0  0  0  0  0  0  0  0  0  0  0
    7.8453   -4.6349    0.0000 C   0  0  0  0  0  0  0  0  0  0  0  0
    7.0607   -4.3800    0.0000 C   0  0  0  0  0  0  0  0  0  0  0  0
  7  1  2  0  0  0  0
 10  4  1  0  0  0  0
  4  2  1  0  0  0  0
  4  3  1  0  0  0  0
 10  6  1  0  0  0  0
 10  5  1  0  0  0  0
  6  5  1  0  0  0  0
  7  6  1  0  0  0  0
  8  7  1  0  0  0  0
  9  8  1  0  0  0  0
 10  9  1  0  0  0  0
M  END
>  <cdx:fragmentId>
5

$$$$
