18820.cdx
  Mrv1902 05222410232D          

 11 12  0  0  0  0            999 V2000
    7.8253   -1.7454    0.0000 C   0  0  0  0  0  0  0  0  0  0  0  0
    5.6297   -4.4499    0.0000 C   0  0  0  0  0  0  0  0  0  0  0  0
    6.9351   -5.0311    0.0000 C   0  0  0  0  0  0  0  0  0  0  0  0
    6.4502   -4.3636    0.0000 C   0  0  0  0  0  0  0  0  0  0  0  0
    6.0712   -3.1975    0.0000 C   0  0  0  0  0  0  0  0  0  0  0  0
    6.7857   -2.7850    0.0000 C   0  0  1  0  0  0  0  0  0  0  0  0
    7.5703   -2.5300    0.0000 C   0  0  0  0  0  0  0  0  0  0  0  0
    8.0553   -3.1975    0.0000 C   0  0  0  0  0  0  0  0  0  0  0  0
    7.5703   -3.8649    0.0000 C   0  0  0  0  0  0  0  0  0  0  0  0
    6.7857   -3.6100    0.0000 C   0  0  2  0  0  0  0  0  0  0  0  0
    6.4502   -2.0313    0.0000 H   0  0  0  0  0  0  0  0  0  0  0  0
  7  1  2  0  0  0  0
 10  4  1  6  0  0  0
  4  2  1  0  0  0  0
  4  3  1  0  0  0  0
 10  6  1  0  0  0  0
 10  5  1  0  0  0  0
  6  5  1  0  0  0  0
  7  6  1  0  0  0  0
  8  7  1  0  0  0  0
  9  8  1  0  0  0  0
 10  9  1  0  0  0  0
  6 11  1  6  0  0  0
M  END
>  <cdx:fragmentId>
5

$$$$
