18827.cdx
  Mrv1902 05222410252D          

  9  8  0  0  0  0            999 V2000
    9.3646   -2.6604    0.0000 C   0  0  0  0  0  0  0  0  0  0  0  0
    8.6502   -3.0729    0.0000 C   0  0  0  0  0  0  0  0  0  0  0  0
    7.9357   -2.6604    0.0000 C   0  0  0  0  0  0  0  0  0  0  0  0
    7.2212   -3.0729    0.0000 C   0  0  0  0  0  0  0  0  0  0  0  0
    6.5068   -2.6604    0.0000 C   0  0  0  0  0  0  0  0  0  0  0  0
    5.7923   -3.0729    0.0000 C   0  0  0  0  0  0  0  0  0  0  0  0
    5.0778   -2.6604    0.0000 C   0  0  0  0  0  0  0  0  0  0  0  0
    4.3634   -3.0729    0.0000 C   0  0  0  0  0  0  0  0  0  0  0  0
    7.9357   -1.8354    0.0000 O   0  0  0  0  0  0  0  0  0  0  0  0
  1  2  2  0  0  0  0
  2  3  1  0  0  0  0
  3  4  1  0  0  0  0
  4  5  1  0  0  0  0
  5  6  1  0  0  0  0
  6  7  1  0  0  0  0
  7  8  1  0  0  0  0
  3  9  1  0  0  0  0
M  END
>  <cdx:fragmentId>
5

$$$$
