1882.cdx
  Mrv1902 05222410262D          

 22 23  0  0  0  0            999 V2000
    7.0621  -12.4553    0.0000 C   0  0  0  0  0  0  0  0  0  0  0  0
    6.3429  -12.0511    0.0000 C   0  0  0  0  0  0  0  0  0  0  0  0
    5.6333  -12.4718    0.0000 C   0  0  0  0  0  0  0  0  0  0  0  0
    5.6428  -13.2967    0.0000 C   0  0  0  0  0  0  0  0  0  0  0  0
    6.3619  -13.7010    0.0000 C   0  0  0  0  0  0  0  0  0  0  0  0
    7.0716  -13.2803    0.0000 C   0  0  0  0  0  0  0  0  0  0  0  0
    6.3334  -11.2261    0.0000 C   0  0  0  0  0  0  0  0  0  0  0  0
    7.0431  -10.8054    0.0000 C   0  0  0  0  0  0  0  0  0  0  0  0
    6.3144   -9.5762    0.0000 O   0  0  0  0  0  0  0  0  0  0  0  0
    7.7433   -9.5598    0.0000 O   0  0  0  0  0  0  0  0  0  0  0  0
    7.0336   -9.9805    0.0000 C   0  0  0  0  0  0  0  0  0  0  0  0
    4.9141  -12.0675    0.0000 O   0  0  0  0  0  0  0  0  0  0  0  0
    7.7338   -8.7348    0.0000 C   0  0  0  0  0  0  0  0  0  0  0  0
    8.4434   -8.3141    0.0000 C   0  0  0  0  0  0  0  0  0  0  0  0
    7.0146   -8.3306    0.0000 O   0  0  0  0  0  0  0  0  0  0  0  0
    8.4339   -7.4892    0.0000 C   0  0  0  0  0  0  0  0  0  0  0  0
    9.1436   -7.0685    0.0000 C   0  0  0  0  0  0  0  0  0  0  0  0
    9.8674   -7.4644    0.0000 C   0  0  0  0  0  0  0  0  0  0  0  0
   10.5722   -7.0356    0.0000 C   0  0  0  0  0  0  0  0  0  0  0  0
   10.5722   -6.2108    0.0000 C   0  0  0  0  0  0  0  0  0  0  0  0
    9.8674   -5.8149    0.0000 C   0  0  0  0  0  0  0  0  0  0  0  0
    9.1436   -6.2437    0.0000 C   0  0  0  0  0  0  0  0  0  0  0  0
  1  2  2  0  0  0  0
  2  3  1  0  0  0  0
  3  4  2  0  0  0  0
  4  5  1  0  0  0  0
  5  6  2  0  0  0  0
  6  1  1  0  0  0  0
  2  7  1  0  0  0  0
  7  8  1  0  0  0  0
 11  9  2  0  0  0  0
  8 11  1  0  0  0  0
 11 10  1  0  0  0  0
  3 12  1  0  0  0  0
 10 13  1  0  0  0  0
 13 14  1  0  0  0  0
 13 15  2  0  0  0  0
 14 16  2  0  0  0  0
 16 17  1  0  0  0  0
 17 18  2  0  0  0  0
 18 19  1  0  0  0  0
 19 20  2  0  0  0  0
 20 21  1  0  0  0  0
 21 22  2  0  0  0  0
 22 17  1  0  0  0  0
M  END
>  <cdx:fragmentId>
5

$$$$
