188309.cdx
  Mrv1902 05222410212D          

 21 23  0  0  0  0            999 V2000
    5.8599   -8.7694    0.0000 O   0  0  0  0  0  0  0  0  0  0  0  0
    4.4477   -6.2848    0.0000 O   0  0  0  0  0  0  0  0  0  0  0  0
   10.8862   -5.0908    0.0000 O   0  0  0  0  0  0  0  0  0  0  0  0
    8.7401   -5.4888    0.0000 C   0  0  0  0  0  0  0  0  0  0  0  0
    9.4573   -5.0811    0.0000 C   0  0  0  0  0  0  0  0  0  0  0  0
   10.1690   -5.4984    0.0000 C   0  0  0  0  0  0  0  0  0  0  0  0
   10.1634   -6.3234    0.0000 C   0  0  0  0  0  0  0  0  0  0  0  0
    9.4461   -6.7311    0.0000 C   0  0  0  0  0  0  0  0  0  0  0  0
    8.7345   -6.3138    0.0000 C   0  0  0  0  0  0  0  0  0  0  0  0
    7.2888   -8.7790    0.0000 O   0  0  0  0  0  0  0  0  0  0  0  0
    7.3056   -6.3041    0.0000 O   0  0  0  0  0  0  0  0  0  0  0  0
    6.5883   -6.7118    0.0000 C   0  0  0  0  0  0  0  0  0  0  0  0
    5.8767   -6.2944    0.0000 C   0  0  0  0  0  0  0  0  0  0  0  0
    5.1594   -6.7021    0.0000 C   0  0  0  0  0  0  0  0  0  0  0  0
    5.1538   -7.5271    0.0000 C   0  0  0  0  0  0  0  0  0  0  0  0
    5.8655   -7.9444    0.0000 C   0  0  0  0  0  0  0  0  0  0  0  0
    6.5827   -7.5367    0.0000 C   0  0  0  0  0  0  0  0  0  0  0  0
    7.2944   -7.9541    0.0000 C   0  0  0  0  0  0  0  0  0  0  0  0
    8.0117   -7.5464    0.0000 C   0  0  0  0  0  0  0  0  0  0  0  0
    8.0172   -6.7214    0.0000 C   0  0  1  0  0  0  0  0  0  0  0  0
    4.4366   -7.9347    0.0000 O   0  0  0  0  0  0  0  0  0  0  0  0
 16  1  1  0  0  0  0
 14  2  1  0  0  0  0
 20  9  1  6  0  0  0
  6  3  1  0  0  0  0
  9  4  2  0  0  0  0
  5  4  1  0  0  0  0
  6  5  2  0  0  0  0
  7  6  1  0  0  0  0
  8  7  2  0  0  0  0
  9  8  1  0  0  0  0
 18 10  2  0  0  0  0
 20 11  1  0  0  0  0
 12 11  1  0  0  0  0
 17 12  2  0  0  0  0
 13 12  1  0  0  0  0
 14 13  2  0  0  0  0
 15 14  1  0  0  0  0
 16 15  2  0  0  0  0
 17 16  1  0  0  0  0
 18 17  1  0  0  0  0
 19 18  1  0  0  0  0
 20 19  1  0  0  0  0
 15 21  1  0  0  0  0
M  END
>  <cdx:fragmentId>
16661

$$$$
