188316.cdx
  Mrv1902 05222410242D          

 22 24  0  0  0  0            999 V2000
   16.5362  -13.8258    0.0000 C   0  0  0  0  0  0  0  0  0  0  0  0
   16.5362  -14.6508    0.0000 C   0  0  0  0  0  0  0  0  0  0  0  0
   15.8217  -15.0633    0.0000 C   0  0  0  0  0  0  0  0  0  0  0  0
   15.8217  -15.8883    0.0000 O   0  0  0  0  0  0  0  0  0  0  0  0
   15.1072  -14.6508    0.0000 C   0  0  0  0  0  0  0  0  0  0  0  0
   14.3928  -15.0633    0.0000 C   0  0  0  0  0  0  0  0  0  0  0  0
   13.6783  -14.6508    0.0000 C   0  0  0  0  0  0  0  0  0  0  0  0
   13.6783  -13.8258    0.0000 C   0  0  0  0  0  0  0  0  0  0  0  0
   14.3928  -13.4133    0.0000 C   0  0  0  0  0  0  0  0  0  0  0  0
   15.1072  -13.8258    0.0000 C   0  0  0  0  0  0  0  0  0  0  0  0
   15.8217  -13.4133    0.0000 O   0  0  0  0  0  0  0  0  0  0  0  0
   17.2506  -13.4133    0.0000 C   0  0  0  0  0  0  0  0  0  0  0  0
   17.2506  -12.5883    0.0000 C   0  0  0  0  0  0  0  0  0  0  0  0
   17.9651  -12.1758    0.0000 C   0  0  0  0  0  0  0  0  0  0  0  0
   18.6796  -12.5883    0.0000 C   0  0  0  0  0  0  0  0  0  0  0  0
   18.6796  -13.4133    0.0000 C   0  0  0  0  0  0  0  0  0  0  0  0
   17.9651  -13.8258    0.0000 C   0  0  0  0  0  0  0  0  0  0  0  0
   14.3928  -12.5883    0.0000 O   0  0  0  0  0  0  0  0  0  0  0  0
   13.6783  -12.1758    0.0000 C   0  0  0  0  0  0  0  0  0  0  0  0
   12.9638  -13.4133    0.0000 O   0  0  0  0  0  0  0  0  0  0  0  0
   12.2493  -13.8258    0.0000 C   0  0  0  0  0  0  0  0  0  0  0  0
   14.3928  -15.8883    0.0000 O   0  0  0  0  0  0  0  0  0  0  0  0
  1  2  2  0  0  0  0
  2  3  1  0  0  0  0
  3  4  2  0  0  0  0
  3  5  1  0  0  0  0
  5  6  1  0  0  0  0
  6  7  2  0  0  0  0
  7  8  1  0  0  0  0
  8  9  2  0  0  0  0
  9 10  1  0  0  0  0
  5 10  2  0  0  0  0
 10 11  1  0  0  0  0
  1 11  1  0  0  0  0
  1 12  1  0  0  0  0
 12 13  1  0  0  0  0
 13 14  2  0  0  0  0
 14 15  1  0  0  0  0
 15 16  2  0  0  0  0
 16 17  1  0  0  0  0
 12 17  2  0  0  0  0
 18 19  1  0  0  0  0
  9 18  1  0  0  0  0
 20 21  1  0  0  0  0
  8 20  1  0  0  0  0
  6 22  1  0  0  0  0
M  END
>  <cdx:groupId>
16797

>  <cdx:fragmentId>
16732

$$$$
