188384.cdx
  Mrv1902 05222410202D          

 68 75  0  0  0  0            999 V2000
    4.6104  -10.8143    0.0000 O   0  0  0  0  0  0  0  0  0  0  0  0
    3.0277  -10.9238    0.0000 O   0  0  0  0  0  0  0  0  0  0  0  0
    3.7421  -11.3365    0.0000 C   0  0  2  0  0  0  0  0  0  0  0  0
    3.7419  -12.1615    0.0000 C   0  0  1  0  0  0  0  0  0  0  0  0
    3.0273  -12.5738    0.0000 C   0  0  2  0  0  0  0  0  0  0  0  0
    2.3129  -12.1612    0.0000 C   0  0  2  0  0  0  0  0  0  0  0  0
    2.3131  -11.3362    0.0000 C   0  0  1  0  0  0  0  0  0  0  0  0
    4.4562  -12.5742    0.0000 O   0  0  0  0  0  0  0  0  0  0  0  0
    3.7414  -13.8115    0.0000 O   0  0  0  0  0  0  0  0  0  0  0  0
    4.4560  -13.3992    0.0000 C   0  0  2  0  0  0  0  0  0  0  0  0
    5.1704  -13.8119    0.0000 C   0  0  1  0  0  0  0  0  0  0  0  0
    5.1702  -14.6369    0.0000 C   0  0  1  0  0  0  0  0  0  0  0  0
    4.4556  -15.0492    0.0000 C   0  0  2  0  0  0  0  0  0  0  0  0
    3.7412  -14.6365    0.0000 C   0  0  2  0  0  0  0  0  0  0  0  0
    3.0267  -15.0488    0.0000 C   0  0  0  0  0  0  0  0  0  0  0  0
    4.4554  -15.8742    0.0000 O   0  0  0  0  0  0  0  0  0  0  0  0
    5.8846  -15.0495    0.0000 O   0  0  0  0  0  0  0  0  0  0  0  0
    5.8850  -13.3995    0.0000 O   0  0  0  0  0  0  0  0  0  0  0  0
    1.5987  -10.9235    0.0000 C   0  0  0  0  0  0  0  0  0  0  0  0
    0.8843  -11.3360    0.0000 O   0  0  0  0  0  0  0  0  0  0  0  0
    1.5983  -12.5735    0.0000 O   0  0  0  0  0  0  0  0  0  0  0  0
    3.0271  -13.3988    0.0000 O   0  0  0  0  0  0  0  0  0  0  0  0
    7.4607   -8.3264    0.0000 C   0  0  0  0  0  0  0  0  0  0  0  0
    6.7463   -8.7389    0.0000 C   0  0  0  0  0  0  0  0  0  0  0  0
    6.7463   -9.5639    0.0000 C   0  0  1  0  0  0  0  0  0  0  0  0
    7.4607   -9.9764    0.0000 C   0  0  0  0  0  0  0  0  0  0  0  0
    8.1752   -9.5639    0.0000 C   0  0  2  0  0  0  0  0  0  0  0  0
    8.8897   -9.9764    0.0000 C   0  0  0  0  0  0  0  0  0  0  0  0
    9.6042   -9.5639    0.0000 C   0  0  0  0  0  0  0  0  0  0  0  0
    9.6042   -8.7389    0.0000 C   0  0  1  0  0  0  0  0  0  0  0  0
   10.3186   -8.3264    0.0000 C   0  0  2  0  0  0  0  0  0  0  0  0
   11.0331   -8.7389    0.0000 C   0  0  0  0  0  0  0  0  0  0  0  0
   11.7476   -8.3264    0.0000 C   0  0  0  0  0  0  0  0  0  0  0  0
   11.7476   -7.5014    0.0000 C   0  0  1  0  0  0  0  0  0  0  0  0
   12.4620   -7.0889    0.0000 C   0  0  1  0  0  0  0  0  0  0  0  0
   12.4620   -6.2639    0.0000 C   0  0  0  0  0  0  0  0  0  0  0  0
   11.7476   -5.8514    0.0000 C   0  0  0  0  0  0  0  0  0  0  0  0
   11.0331   -6.2639    0.0000 C   0  0  0  0  0  0  0  0  0  0  0  0
   11.0331   -7.0889    0.0000 C   0  0  1  0  0  0  0  0  0  0  0  0
   10.3186   -7.5014    0.0000 C   0  0  0  0  0  0  0  0  0  0  0  0
    9.6042   -7.0889    0.0000 C   0  0  0  0  0  0  0  0  0  0  0  0
    8.8897   -7.5014    0.0000 C   0  0  0  0  0  0  0  0  0  0  0  0
    8.8897   -8.3264    0.0000 C   0  0  2  0  0  0  0  0  0  0  0  0
    8.1752   -8.7389    0.0000 C   0  0  1  0  0  0  0  0  0  0  0  0
    8.1752   -7.9139    0.0000 C   0  0  0  0  0  0  0  0  0  0  0  0
   11.3351   -5.1370    0.0000 C   0  0  0  0  0  0  0  0  0  0  0  0
   12.1601   -5.1370    0.0000 C   0  0  0  0  0  0  0  0  0  0  0  0
   12.4620   -7.9139    0.0000 C   0  0  0  0  0  0  0  0  0  0  0  0
   10.3186   -9.1514    0.0000 C   0  0  0  0  0  0  0  0  0  0  0  0
    9.6042   -7.9139    0.0000 C   0  0  0  0  0  0  0  0  0  0  0  0
    7.8732  -10.6909    0.0000 C   0  0  0  0  0  0  0  0  0  0  0  0
    7.0482  -10.6909    0.0000 C   0  0  0  0  0  0  0  0  0  0  0  0
   13.1765   -7.5014    0.0000 O   0  0  0  0  0  0  0  0  0  0  0  0
    8.1752  -10.3889    0.0000 H   0  0  0  0  0  0  0  0  0  0  0  0
   11.0331   -7.9139    0.0000 H   0  0  0  0  0  0  0  0  0  0  0  0
    8.8897   -9.1514    0.0000 H   0  0  0  0  0  0  0  0  0  0  0  0
    6.0318   -9.9764    0.0000 O   0  0  0  0  0  0  0  0  0  0  0  0
    3.1591   -8.3523    0.0000 O   0  0  0  0  0  0  0  0  0  0  0  0
    3.1740  -10.0022    0.0000 O   0  0  0  0  0  0  0  0  0  0  0  0
    3.8624   -7.1084    0.0000 O   0  0  0  0  0  0  0  0  0  0  0  0
    5.2913   -7.0955    0.0000 O   0  0  0  0  0  0  0  0  0  0  0  0
    4.5806   -7.5144    0.0000 C   0  0  0  0  0  0  0  0  0  0  0  0
    5.3136   -9.5704    0.0000 C   0  0  1  0  0  0  0  0  0  0  0  0
    4.6029   -9.9893    0.0000 C   0  0  1  0  0  0  0  0  0  0  0  0
    3.8848   -9.5833    0.0000 C   0  0  2  0  0  0  0  0  0  0  0  0
    3.8773   -8.7583    0.0000 C   0  0  1  0  0  0  0  0  0  0  0  0
    4.5880   -8.3394    0.0000 C   0  0  2  0  0  0  0  0  0  0  0  0
    5.3062   -8.7454    0.0000 O   0  0  0  0  0  0  0  0  0  0  0  0
 63 57  1  1  0  0  0
 64  1  1  6  0  0  0
  2  3  1  0  0  0  0
 66 58  1  6  0  0  0
 65 59  1  1  0  0  0
 67 62  1  1  0  0  0
 62 60  1  0  0  0  0
 62 61  2  0  0  0  0
 68 63  1  0  0  0  0
 64 63  1  0  0  0  0
 65 64  1  0  0  0  0
 66 65  1  0  0  0  0
 67 66  1  0  0  0  0
 68 67  1  0  0  0  0
  3  4  1  0  0  0  0
  4  5  1  0  0  0  0
  5  6  1  0  0  0  0
  6  7  1  0  0  0  0
  2  7  1  0  0  0  0
  9 10  1  0  0  0  0
 10 11  1  0  0  0  0
 11 12  1  0  0  0  0
 12 13  1  0  0  0  0
 13 14  1  0  0  0  0
  9 14  1  0  0  0  0
 14 15  1  6  0  0  0
 13 16  1  1  0  0  0
 12 17  1  6  0  0  0
 11 18  1  6  0  0  0
 10  8  1  1  0  0  0
  4  8  1  6  0  0  0
 19 20  1  0  0  0  0
  7 19  1  1  0  0  0
  6 21  1  1  0  0  0
  5 22  1  1  0  0  0
  3  1  1  1  0  0  0
 23 24  1  0  0  0  0
 24 25  1  0  0  0  0
 25 26  1  0  0  0  0
 26 27  1  0  0  0  0
 27 28  1  0  0  0  0
 28 29  1  0  0  0  0
 29 30  1  0  0  0  0
 30 31  1  0  0  0  0
 31 32  1  0  0  0  0
 32 33  1  0  0  0  0
 33 34  1  0  0  0  0
 34 35  1  0  0  0  0
 35 36  1  0  0  0  0
 36 37  1  0  0  0  0
 37 38  1  0  0  0  0
 38 39  1  0  0  0  0
 34 39  1  0  0  0  0
 39 40  1  0  0  0  0
 31 40  1  0  0  0  0
 40 41  2  0  0  0  0
 41 42  1  0  0  0  0
 42 43  1  0  0  0  0
 30 43  1  0  0  0  0
 43 44  1  0  0  0  0
 27 44  1  0  0  0  0
 23 44  1  0  0  0  0
 44 45  1  1  0  0  0
 37 46  1  0  0  0  0
 37 47  1  0  0  0  0
 34 48  1  1  0  0  0
 31 49  1  6  0  0  0
 30 50  1  1  0  0  0
 26 51  1  0  0  0  0
 26 52  1  0  0  0  0
 35 53  1  1  0  0  0
 25 57  1  1  0  0  0
 27 54  1  6  0  0  0
 39 55  1  1  0  0  0
 43 56  1  6  0  0  0
M  END
>  <cdx:groupId>
249158

>  <cdx:fragmentId>
249159

$$$$
