1884.cdx
  Mrv1902 05222410272D          

 25 26  0  0  0  0            999 V2000
    9.4625   -5.5713    0.0000 C   0  0  0  0  0  0  0  0  0  0  0  0
    9.4625   -6.3963    0.0000 C   0  0  0  0  0  0  0  0  0  0  0  0
    8.7481   -6.8088    0.0000 C   0  0  0  0  0  0  0  0  0  0  0  0
    8.7481   -7.6338    0.0000 C   0  0  0  0  0  0  0  0  0  0  0  0
    8.0336   -8.0463    0.0000 C   0  0  0  0  0  0  0  0  0  0  0  0
    8.0336   -8.8713    0.0000 C   0  0  0  0  0  0  0  0  0  0  0  0
    8.7481   -9.2838    0.0000 C   0  0  0  0  0  0  0  0  0  0  0  0
    9.4625   -8.8713    0.0000 C   0  0  0  0  0  0  0  0  0  0  0  0
    9.4625   -8.0463    0.0000 C   0  0  0  0  0  0  0  0  0  0  0  0
    8.7481   -5.1588    0.0000 O   0  0  0  0  0  0  0  0  0  0  0  0
   10.1770   -5.1588    0.0000 O   0  0  0  0  0  0  0  0  0  0  0  0
    8.7481  -10.1088    0.0000 O   0  0  0  0  0  0  0  0  0  0  0  0
    9.4625  -10.5213    0.0000 C   0  0  0  0  0  0  0  0  0  0  0  0
    7.3191   -7.6338    0.0000 O   0  0  0  0  0  0  0  0  0  0  0  0
    6.6047   -8.0463    0.0000 C   0  0  1  0  0  0  0  0  0  0  0  0
    6.6047   -8.8713    0.0000 C   0  0  2  0  0  0  0  0  0  0  0  0
    7.3191   -9.2838    0.0000 O   0  0  0  0  0  0  0  0  0  0  0  0
    5.8902   -9.2838    0.0000 C   0  0  1  0  0  0  0  0  0  0  0  0
    5.8902  -10.1088    0.0000 O   0  0  0  0  0  0  0  0  0  0  0  0
    5.1757   -8.8713    0.0000 C   0  0  2  0  0  0  0  0  0  0  0  0
    4.4613   -9.2838    0.0000 O   0  0  0  0  0  0  0  0  0  0  0  0
    5.1757   -8.0463    0.0000 C   0  0  2  0  0  0  0  0  0  0  0  0
    5.8902   -7.6338    0.0000 O   0  0  0  0  0  0  0  0  0  0  0  0
    4.4613   -7.6338    0.0000 C   0  0  0  0  0  0  0  0  0  0  0  0
    3.7468   -8.0463    0.0000 O   0  0  0  0  0  0  0  0  0  0  0  0
  1  2  1  0  0  0  0
  2  3  2  0  0  0  0
  3  4  1  0  0  0  0
  4  5  1  0  0  0  0
  5  6  2  0  0  0  0
  6  7  1  0  0  0  0
  7  8  2  0  0  0  0
  8  9  1  0  0  0  0
  4  9  2  0  0  0  0
  1 10  2  0  0  0  0
  1 11  1  0  0  0  0
 12 13  1  0  0  0  0
  7 12  1  0  0  0  0
 15 16  1  0  0  0  0
 16 17  1  6  0  0  0
 16 18  1  0  0  0  0
 18 19  1  1  0  0  0
 18 20  1  0  0  0  0
 20 21  1  6  0  0  0
 20 22  1  0  0  0  0
 22 23  1  0  0  0  0
 22 24  1  1  0  0  0
 24 25  1  0  0  0  0
 15 23  1  0  0  0  0
 15 14  1  1  0  0  0
  5 14  1  0  0  0  0
M  END
>  <cdx:fragmentId>
5

$$$$
