188641.cdx
  Mrv1902 05222410222D          

 45 48  0  0  0  0            999 V2000
    9.7117   -9.1111    0.0000 O   0  0  0  0  0  0  0  0  0  0  0  0
    9.7123   -7.4611    0.0000 O   0  0  0  0  0  0  0  0  0  0  0  0
    3.2817   -8.6962    0.0000 O   0  0  0  0  0  0  0  0  0  0  0  0
    3.2811  -10.3462    0.0000 O   0  0  0  0  0  0  0  0  0  0  0  0
    4.7097  -11.1717    0.0000 O   0  0  0  0  0  0  0  0  0  0  0  0
    6.1398   -7.8723    0.0000 O   0  0  0  0  0  0  0  0  0  0  0  0
    5.4246   -9.9345    0.0000 C   0  0  0  0  0  0  0  0  0  0  0  0
    4.7100  -10.3467    0.0000 C   0  0  0  0  0  0  0  0  0  0  0  0
    3.9957   -9.9340    0.0000 C   0  0  0  0  0  0  0  0  0  0  0  0
    3.9960   -9.1090    0.0000 C   0  0  0  0  0  0  0  0  0  0  0  0
    4.7106   -8.6967    0.0000 C   0  0  0  0  0  0  0  0  0  0  0  0
    5.4249   -9.1095    0.0000 C   0  0  0  0  0  0  0  0  0  0  0  0
    6.1395   -8.6973    0.0000 C   0  0  0  0  0  0  0  0  0  0  0  0
    6.8539   -9.1100    0.0000 O   0  0  0  0  0  0  0  0  0  0  0  0
    7.5670  -12.8228    0.0000 O   0  0  0  0  0  0  0  0  0  0  0  0
    8.9956  -13.6483    0.0000 O   0  0  0  0  0  0  0  0  0  0  0  0
   10.4249  -12.8238    0.0000 O   0  0  0  0  0  0  0  0  0  0  0  0
    9.7114   -9.9361    0.0000 O   0  0  0  0  0  0  0  0  0  0  0  0
    9.7108  -11.5861    0.0000 C   0  0  0  0  0  0  0  0  0  0  0  0
    9.7105  -12.4111    0.0000 C   0  0  0  0  0  0  0  0  0  0  0  0
    8.9959  -12.8233    0.0000 C   0  0  0  0  0  0  0  0  0  0  0  0
    8.2816  -12.4105    0.0000 C   0  0  0  0  0  0  0  0  0  0  0  0
    8.2819  -11.5855    0.0000 C   0  0  0  0  0  0  0  0  0  0  0  0
    8.9965  -11.1733    0.0000 C   0  0  0  0  0  0  0  0  0  0  0  0
    8.9968  -10.3483    0.0000 C   0  0  0  0  0  0  0  0  0  0  0  0
    8.2825   -9.9355    0.0000 O   0  0  0  0  0  0  0  0  0  0  0  0
    8.9977   -7.8733    0.0000 C   0  0  1  0  0  0  0  0  0  0  0  0
    8.9974   -8.6983    0.0000 C   0  0  1  0  0  0  0  0  0  0  0  0
    8.2828   -9.1105    0.0000 C   0  0  2  0  0  0  0  0  0  0  0  0
    7.5685   -8.6978    0.0000 C   0  0  1  0  0  0  0  0  0  0  0  0
    7.5688   -7.8728    0.0000 C   0  0  2  0  0  0  0  0  0  0  0  0
    8.2834   -7.4605    0.0000 O   0  0  0  0  0  0  0  0  0  0  0  0
    6.8545   -7.4600    0.0000 C   0  0  0  0  0  0  0  0  0  0  0  0
    7.5703   -3.7478    0.0000 O   0  0  0  0  0  0  0  0  0  0  0  0
    6.1416   -2.9223    0.0000 O   0  0  0  0  0  0  0  0  0  0  0  0
    4.7124   -3.7467    0.0000 O   0  0  0  0  0  0  0  0  0  0  0  0
    6.8548   -6.6350    0.0000 O   0  0  0  0  0  0  0  0  0  0  0  0
    5.4258   -6.6345    0.0000 O   0  0  0  0  0  0  0  0  0  0  0  0
    5.4264   -4.9845    0.0000 C   0  0  0  0  0  0  0  0  0  0  0  0
    5.4267   -4.1595    0.0000 C   0  0  0  0  0  0  0  0  0  0  0  0
    6.1413   -3.7473    0.0000 C   0  0  0  0  0  0  0  0  0  0  0  0
    6.8557   -4.1600    0.0000 C   0  0  0  0  0  0  0  0  0  0  0  0
    6.8554   -4.9850    0.0000 C   0  0  0  0  0  0  0  0  0  0  0  0
    6.1407   -5.3973    0.0000 C   0  0  0  0  0  0  0  0  0  0  0  0
    6.1404   -6.2223    0.0000 C   0  0  0  0  0  0  0  0  0  0  0  0
 37 33  1  0  0  0  0
 31 33  1  1  0  0  0
 28  1  1  6  0  0  0
 27  2  1  1  0  0  0
 30 14  1  6  0  0  0
 14 13  1  0  0  0  0
 10  3  1  0  0  0  0
  9  4  1  0  0  0  0
  8  5  1  0  0  0  0
 13  6  2  0  0  0  0
 12  7  2  0  0  0  0
  8  7  1  0  0  0  0
  9  8  2  0  0  0  0
 10  9  1  0  0  0  0
 11 10  2  0  0  0  0
 12 11  1  0  0  0  0
 13 12  1  0  0  0  0
 29 26  1  1  0  0  0
 26 25  1  0  0  0  0
 22 15  1  0  0  0  0
 21 16  1  0  0  0  0
 20 17  1  0  0  0  0
 25 18  2  0  0  0  0
 24 19  2  0  0  0  0
 20 19  1  0  0  0  0
 21 20  2  0  0  0  0
 22 21  1  0  0  0  0
 23 22  2  0  0  0  0
 24 23  1  0  0  0  0
 25 24  1  0  0  0  0
 32 27  1  0  0  0  0
 28 27  1  0  0  0  0
 29 28  1  0  0  0  0
 30 29  1  0  0  0  0
 31 30  1  0  0  0  0
 32 31  1  0  0  0  0
 42 34  1  0  0  0  0
 41 35  1  0  0  0  0
 40 36  1  0  0  0  0
 45 37  1  0  0  0  0
 45 38  2  0  0  0  0
 44 39  2  0  0  0  0
 40 39  1  0  0  0  0
 41 40  2  0  0  0  0
 42 41  1  0  0  0  0
 43 42  2  0  0  0  0
 44 43  1  0  0  0  0
 45 44  1  0  0  0  0
M  END
>  <cdx:fragmentId>
103971

$$$$
