1887.cdx
  Mrv1902 05222410282D          

 22 24  0  0  0  0            999 V2000
    5.0495   -8.6831    0.0000 C   0  0  0  0  0  0  0  0  0  0  0  0
    5.0495   -9.5081    0.0000 C   0  0  0  0  0  0  0  0  0  0  0  0
    5.7640   -9.9206    0.0000 C   0  0  0  0  0  0  0  0  0  0  0  0
    6.4785   -9.5081    0.0000 C   0  0  0  0  0  0  0  0  0  0  0  0
    6.4785   -8.6831    0.0000 C   0  0  0  0  0  0  0  0  0  0  0  0
    5.7640   -8.2706    0.0000 C   0  0  0  0  0  0  0  0  0  0  0  0
    7.2631   -9.7631    0.0000 N   0  0  0  0  0  0  0  0  0  0  0  0
    7.7480   -9.0956    0.0000 C   0  0  0  0  0  0  0  0  0  0  0  0
    7.2631   -8.4282    0.0000 C   0  0  0  0  0  0  0  0  0  0  0  0
    8.5730   -9.0956    0.0000 O   0  0  0  0  0  0  0  0  0  0  0  0
    4.1340   -6.3038    0.0000 C   0  0  0  0  0  0  0  0  0  0  0  0
    6.1590   -4.2853    0.0000 C   0  0  0  0  0  0  0  0  0  0  0  0
    4.7173   -6.8871    0.0000 O   0  0  0  0  0  0  0  0  0  0  0  0
    5.1470   -5.2941    0.0000 O   0  0  0  0  0  0  0  0  0  0  0  0
    6.7414   -4.8696    0.0000 O   0  0  0  0  0  0  0  0  0  0  0  0
    7.1090   -6.2504    0.0000 C   0  0  0  0  0  0  0  0  0  0  0  0
    6.5266   -5.6661    0.0000 C   0  0  0  0  0  0  0  0  0  0  0  0
    5.7294   -5.8784    0.0000 C   0  0  0  0  0  0  0  0  0  0  0  0
    5.5146   -6.6749    0.0000 C   0  0  0  0  0  0  0  0  0  0  0  0
    6.0970   -7.2592    0.0000 C   0  0  0  0  0  0  0  0  0  0  0  0
    6.8942   -7.0470    0.0000 C   0  0  0  0  0  0  0  0  0  0  0  0
    7.4766   -7.6313    0.0000 C   0  0  0  0  0  0  0  0  0  0  0  0
  1  2  2  0  0  0  0
  2  3  1  0  0  0  0
  3  4  2  0  0  0  0
  4  5  1  0  0  0  0
  5  6  2  0  0  0  0
  6  1  1  0  0  0  0
  4  7  1  0  0  0  0
  7  8  1  0  0  0  0
  8  9  1  0  0  0  0
  9  5  1  0  0  0  0
  8 10  2  0  0  0  0
 13 11  1  0  0  0  0
  9 22  2  0  0  0  0
 15 12  1  0  0  0  0
 19 13  1  0  0  0  0
 18 14  1  0  0  0  0
 17 15  1  0  0  0  0
 16 21  1  0  0  0  0
 17 16  2  0  0  0  0
 18 17  1  0  0  0  0
 19 18  2  0  0  0  0
 20 19  1  0  0  0  0
 21 20  2  0  0  0  0
 22 21  1  0  0  0  0
M  END
>  <cdx:fragmentId>
5

$$$$
