1888.cdx
  Mrv1902 05222410192D          

 15 16  0  0  0  0            999 V2000
    9.0634   -8.2740    0.0000 N   0  0  0  0  0  0  0  0  0  0  0  0
    8.5442   -7.6329    0.0000 C   0  0  2  0  0  0  0  0  0  0  0  0
    7.7293   -7.7620    0.0000 C   0  0  0  0  0  0  0  0  0  0  0  0
    9.6546   -6.7336    0.0000 O   0  0  0  0  0  0  0  0  0  0  0  0
    8.3205   -6.2216    0.0000 O   0  0  0  0  0  0  0  0  0  0  0  0
    8.8398   -6.8627    0.0000 C   0  0  0  0  0  0  0  0  0  0  0  0
    5.2774   -8.8513    0.0000 C   0  0  0  0  0  0  0  0  0  0  0  0
    5.2962   -9.6761    0.0000 C   0  0  0  0  0  0  0  0  0  0  0  0
    6.0199  -10.0722    0.0000 C   0  0  0  0  0  0  0  0  0  0  0  0
    6.7248   -9.6435    0.0000 C   0  0  0  0  0  0  0  0  0  0  0  0
    6.7059   -8.8187    0.0000 C   0  0  0  0  0  0  0  0  0  0  0  0
    5.9822   -8.4226    0.0000 C   0  0  0  0  0  0  0  0  0  0  0  0
    7.5150   -9.8804    0.0000 N   0  0  0  0  0  0  0  0  0  0  0  0
    7.9846   -9.2021    0.0000 C   0  0  0  0  0  0  0  0  0  0  0  0
    7.4845   -8.5459    0.0000 C   0  0  0  0  0  0  0  0  0  0  0  0
  2  1  1  6  0  0  0
  6  4  1  0  0  0  0
  2  6  1  0  0  0  0
  2  3  1  0  0  0  0
  6  5  2  0  0  0  0
  7  8  2  0  0  0  0
  8  9  1  0  0  0  0
  9 10  2  0  0  0  0
 10 11  1  0  0  0  0
 11 12  2  0  0  0  0
 12  7  1  0  0  0  0
 10 13  1  0  0  0  0
 13 14  1  0  0  0  0
 14 15  2  0  0  0  0
 15 11  1  0  0  0  0
 15  3  1  0  0  0  0
M  END
>  <cdx:fragmentId>
77

$$$$
