1889.cdx
  Mrv1902 05222410182D          

 26 27  0  0  0  0            999 V2000
    7.7938   -7.5476    0.0000 N   0  0  0  0  0  0  0  0  0  0  0  0
    8.5082   -7.1351    0.0000 C   0  0  2  0  0  0  0  0  0  0  0  0
    9.2227   -7.5476    0.0000 C   0  0  0  0  0  0  0  0  0  0  0  0
    9.9372   -7.1351    0.0000 O   0  0  0  0  0  0  0  0  0  0  0  0
    9.2227   -8.3726    0.0000 O   0  0  0  0  0  0  0  0  0  0  0  0
    8.5082   -6.3101    0.0000 C   0  0  0  0  0  0  0  0  0  0  0  0
    7.7938   -5.8976    0.0000 C   0  0  0  0  0  0  0  0  0  0  0  0
    7.7938   -5.0726    0.0000 C   0  0  0  0  0  0  0  0  0  0  0  0
    7.0793   -4.6601    0.0000 C   0  0  0  0  0  0  0  0  0  0  0  0
    6.3648   -5.0726    0.0000 C   0  0  0  0  0  0  0  0  0  0  0  0
    6.3648   -5.8976    0.0000 C   0  0  0  0  0  0  0  0  0  0  0  0
    7.0793   -6.3101    0.0000 C   0  0  0  0  0  0  0  0  0  0  0  0
    7.7938   -8.3726    0.0000 C   0  0  0  0  0  0  0  0  0  0  0  0
    7.0793   -8.7851    0.0000 C   0  0  0  0  0  0  0  0  0  0  0  0
    8.5082   -8.7851    0.0000 O   0  0  0  0  0  0  0  0  0  0  0  0
    7.0793   -9.6101    0.0000 C   0  0  2  0  0  0  0  0  0  0  0  0
    6.4119  -10.0951    0.0000 C   0  0  2  0  0  0  0  0  0  0  0  0
    6.6668  -10.8797    0.0000 C   0  0  0  0  0  0  0  0  0  0  0  0
    7.4918  -10.8797    0.0000 C   0  0  0  0  0  0  0  0  0  0  0  0
    7.7467  -10.0951    0.0000 C   0  0  0  0  0  0  0  0  0  0  0  0
    5.6272   -9.8401    0.0000 C   0  0  0  0  0  0  0  0  0  0  0  0
    5.0141  -10.3922    0.0000 C   0  0  0  0  0  0  0  0  0  0  0  0
    4.2295  -10.1372    0.0000 C   0  0  0  0  0  0  0  0  0  0  0  0
    4.0580   -9.3303    0.0000 C   0  0  0  0  0  0  0  0  0  0  0  0
    3.2734   -9.0753    0.0000 C   0  0  0  0  0  0  0  0  0  0  0  0
    6.1819  -11.5471    0.0000 O   0  0  0  0  0  0  0  0  0  0  0  0
  2  1  1  1  0  0  0
  2  3  1  0  0  0  0
  3  4  1  0  0  0  0
  3  5  2  0  0  0  0
  2  6  1  0  0  0  0
  6  7  1  0  0  0  0
  7  8  2  0  0  0  0
  8  9  1  0  0  0  0
  9 10  2  0  0  0  0
 10 11  1  0  0  0  0
 11 12  2  0  0  0  0
 12  7  1  0  0  0  0
  1 13  1  0  0  0  0
 13 14  1  0  0  0  0
 13 15  2  0  0  0  0
 16 14  1  1  0  0  0
 16 17  1  0  0  0  0
 17 18  1  0  0  0  0
 18 19  1  0  0  0  0
 19 20  1  0  0  0  0
 20 16  1  0  0  0  0
 17 21  1  6  0  0  0
 21 22  1  0  0  0  0
 22 23  2  0  0  0  0
 23 24  1  0  0  0  0
 24 25  1  0  0  0  0
 18 26  2  0  0  0  0
M  END
>  <cdx:fragmentId>
3

$$$$
