188976.cdx
  Mrv1902 05222410192D          

 26 28  0  0  0  0            999 V2000
    6.7161   -9.6594    0.0000 O   0  0  0  0  0  0  0  0  0  0  0  0
    6.2311   -8.9919    0.0000 C   0  0  1  0  0  0  0  0  0  0  0  0
    6.7161   -8.3245    0.0000 C   0  0  2  0  0  0  0  0  0  0  0  0
    7.5007   -8.5794    0.0000 C   0  0  0  0  0  0  0  0  0  0  0  0
    7.5007   -9.4044    0.0000 C   0  0  0  0  0  0  0  0  0  0  0  0
    8.2152   -9.8169    0.0000 C   0  0  0  0  0  0  0  0  0  0  0  0
    8.9296   -9.4044    0.0000 C   0  0  0  0  0  0  0  0  0  0  0  0
    8.9296   -8.5794    0.0000 C   0  0  0  0  0  0  0  0  0  0  0  0
    8.2152   -8.1669    0.0000 C   0  0  0  0  0  0  0  0  0  0  0  0
    8.2152  -10.6419    0.0000 O   0  0  0  0  0  0  0  0  0  0  0  0
    8.9296  -11.0544    0.0000 C   0  0  0  0  0  0  0  0  0  0  0  0
    9.6441   -8.1669    0.0000 C   0  0  0  0  0  0  0  0  0  0  0  0
   10.3586   -8.5794    0.0000 C   0  0  0  0  0  0  0  0  0  0  0  0
   11.0730   -8.1669    0.0000 C   0  0  0  0  0  0  0  0  0  0  0  0
   11.7875   -8.5794    0.0000 O   0  0  0  0  0  0  0  0  0  0  0  0
    6.4611   -7.5399    0.0000 C   0  0  0  0  0  0  0  0  0  0  0  0
    7.0445   -6.9565    0.0000 O   0  0  0  0  0  0  0  0  0  0  0  0
    4.1686  -11.1353    0.0000 C   0  0  0  0  0  0  0  0  0  0  0  0
    3.7561  -10.4209    0.0000 O   0  0  0  0  0  0  0  0  0  0  0  0
    2.9311   -8.9919    0.0000 O   0  0  0  0  0  0  0  0  0  0  0  0
    4.1686   -8.2774    0.0000 C   0  0  0  0  0  0  0  0  0  0  0  0
    4.9936   -8.2774    0.0000 C   0  0  0  0  0  0  0  0  0  0  0  0
    5.4061   -8.9919    0.0000 C   0  0  0  0  0  0  0  0  0  0  0  0
    4.9936   -9.7064    0.0000 C   0  0  0  0  0  0  0  0  0  0  0  0
    4.1686   -9.7064    0.0000 C   0  0  0  0  0  0  0  0  0  0  0  0
    3.7561   -8.9919    0.0000 C   0  0  0  0  0  0  0  0  0  0  0  0
  2 23  1  6  0  0  0
  1  2  1  0  0  0  0
 25 19  1  0  0  0  0
 19 18  1  0  0  0  0
 26 20  1  0  0  0  0
 26 21  2  0  0  0  0
 22 21  1  0  0  0  0
 23 22  2  0  0  0  0
 24 23  1  0  0  0  0
 25 24  2  0  0  0  0
 26 25  1  0  0  0  0
  2  3  1  0  0  0  0
  3  4  1  0  0  0  0
  4  5  1  0  0  0  0
  1  5  1  0  0  0  0
  6  7  1  0  0  0  0
  7  8  2  0  0  0  0
  8  9  1  0  0  0  0
  4  9  2  0  0  0  0
  5  6  2  0  0  0  0
 10 11  1  0  0  0  0
  6 10  1  0  0  0  0
 12 13  2  0  0  0  0
 13 14  1  0  0  0  0
 14 15  1  0  0  0  0
  8 12  1  0  0  0  0
 16 17  1  0  0  0  0
  3 16  1  1  0  0  0
M  END
>  <cdx:fragmentId>
43228

$$$$
