188977.cdx
  Mrv1902 05222410192D          

 26 28  0  0  0  0            999 V2000
    3.7561   -8.9883    0.0000 C   0  0  0  0  0  0  0  0  0  0  0  0
    4.1686   -8.2738    0.0000 C   0  0  0  0  0  0  0  0  0  0  0  0
    4.9936   -8.2738    0.0000 C   0  0  0  0  0  0  0  0  0  0  0  0
    5.4061   -8.9883    0.0000 C   0  0  0  0  0  0  0  0  0  0  0  0
    4.9936   -9.7028    0.0000 C   0  0  0  0  0  0  0  0  0  0  0  0
    4.1686   -9.7028    0.0000 C   0  0  0  0  0  0  0  0  0  0  0  0
    2.9311   -8.9883    0.0000 O   0  0  0  0  0  0  0  0  0  0  0  0
    3.7561   -7.5594    0.0000 O   0  0  0  0  0  0  0  0  0  0  0  0
    4.1686   -6.8449    0.0000 C   0  0  0  0  0  0  0  0  0  0  0  0
    7.0445  -11.0237    0.0000 O   0  0  0  0  0  0  0  0  0  0  0  0
    6.4611  -10.4404    0.0000 C   0  0  0  0  0  0  0  0  0  0  0  0
   11.7875   -9.4008    0.0000 O   0  0  0  0  0  0  0  0  0  0  0  0
   11.0730   -9.8133    0.0000 C   0  0  0  0  0  0  0  0  0  0  0  0
   10.3586   -9.4008    0.0000 C   0  0  0  0  0  0  0  0  0  0  0  0
    9.6441   -9.8133    0.0000 C   0  0  0  0  0  0  0  0  0  0  0  0
    8.9296   -6.9258    0.0000 C   0  0  0  0  0  0  0  0  0  0  0  0
    8.2152   -7.3383    0.0000 O   0  0  0  0  0  0  0  0  0  0  0  0
    8.2152   -9.8133    0.0000 C   0  0  0  0  0  0  0  0  0  0  0  0
    8.9296   -9.4008    0.0000 C   0  0  0  0  0  0  0  0  0  0  0  0
    8.9296   -8.5758    0.0000 C   0  0  0  0  0  0  0  0  0  0  0  0
    8.2152   -8.1633    0.0000 C   0  0  0  0  0  0  0  0  0  0  0  0
    7.5007   -8.5758    0.0000 C   0  0  0  0  0  0  0  0  0  0  0  0
    7.5007   -9.4008    0.0000 C   0  0  0  0  0  0  0  0  0  0  0  0
    6.7161   -9.6557    0.0000 C   0  0  2  0  0  0  0  0  0  0  0  0
    6.2311   -8.9883    0.0000 C   0  0  1  0  0  0  0  0  0  0  0  0
    6.7161   -8.3209    0.0000 O   0  0  0  0  0  0  0  0  0  0  0  0
 24 11  1  1  0  0  0
 11 10  1  0  0  0  0
 19 15  1  0  0  0  0
 13 12  1  0  0  0  0
 14 13  1  0  0  0  0
 15 14  2  0  0  0  0
 21 17  1  0  0  0  0
 17 16  1  0  0  0  0
 22 21  2  0  0  0  0
 23 18  2  0  0  0  0
 19 18  1  0  0  0  0
 20 19  2  0  0  0  0
 21 20  1  0  0  0  0
 26 22  1  0  0  0  0
 23 22  1  0  0  0  0
 24 23  1  0  0  0  0
 25 24  1  0  0  0  0
  1  2  1  0  0  0  0
  2  3  2  0  0  0  0
  3  4  1  0  0  0  0
  4  5  2  0  0  0  0
  5  6  1  0  0  0  0
  1  6  2  0  0  0  0
  1  7  1  0  0  0  0
  8  9  1  0  0  0  0
  2  8  1  0  0  0  0
 26 25  1  0  0  0  0
 25  4  1  6  0  0  0
M  END
>  <cdx:fragmentId>
43228

$$$$
