18898.cdx
  Mrv1902 05222410202D          

  9  9  0  0  0  0            999 V2000
    7.8037   -4.7252    0.0000 C   0  0  0  0  0  0  0  0  0  0  0  0
    8.5182   -5.1377    0.0000 C   0  0  0  0  0  0  0  0  0  0  0  0
    6.3356   -4.8021    0.0000 O   0  0  0  0  0  0  0  0  0  0  0  0
    7.0893   -5.1377    0.0000 C   0  0  0  0  0  0  0  0  0  0  0  0
    7.0030   -5.9582    0.0000 C   0  0  0  0  0  0  0  0  0  0  0  0
    6.1961   -6.1297    0.0000 C   0  0  0  0  0  0  0  0  0  0  0  0
    5.7836   -5.4152    0.0000 C   0  0  0  0  0  0  0  0  0  0  0  0
    7.6161   -6.5102    0.0000 O   0  0  0  0  0  0  0  0  0  0  0  0
    7.8037   -3.9002    0.0000 O   0  0  0  0  0  0  0  0  0  0  0  0
  1  2  1  0  0  0  0
  3  4  1  0  0  0  0
  4  5  2  0  0  0  0
  5  6  1  0  0  0  0
  6  7  2  0  0  0  0
  3  7  1  0  0  0  0
  5  8  1  0  0  0  0
  1  4  1  0  0  0  0
  1  9  2  0  0  0  0
M  END
>  <cdx:fragmentId>
9

$$$$
