189045.cdx
  Mrv1902 05222410282D          

 35 39  0  0  0  0            999 V2000
    4.4498   -7.3120    0.0000 C   0  0  0  0  0  0  0  0  0  0  0  0
    4.4498   -8.1370    0.0000 C   0  0  1  0  0  0  0  0  0  0  0  0
    5.1642   -8.5495    0.0000 C   0  0  0  0  0  0  0  0  0  0  0  0
    5.8787   -8.1370    0.0000 C   0  0  1  0  0  0  0  0  0  0  0  0
    5.8787   -7.3120    0.0000 C   0  0  2  0  0  0  0  0  0  0  0  0
    5.1642   -6.8995    0.0000 C   0  0  0  0  0  0  0  0  0  0  0  0
    6.5932   -8.5495    0.0000 C   0  0  0  0  0  0  0  0  0  0  0  0
    7.3076   -8.1370    0.0000 C   0  0  0  0  0  0  0  0  0  0  0  0
    7.3076   -7.3120    0.0000 C   0  0  2  0  0  0  0  0  0  0  0  0
    6.5932   -6.8995    0.0000 C   0  0  0  0  0  0  0  0  0  0  0  0
    8.0221   -6.8995    0.0000 C   0  0  1  0  0  0  0  0  0  0  0  0
    8.0221   -6.0745    0.0000 C   0  0  2  0  0  0  0  0  0  0  0  0
    7.3076   -5.6620    0.0000 C   0  0  0  0  0  0  0  0  0  0  0  0
    6.5932   -6.0745    0.0000 C   0  0  0  0  0  0  0  0  0  0  0  0
    8.7366   -7.3120    0.0000 C   0  0  0  0  0  0  0  0  0  0  0  0
    9.4511   -6.8995    0.0000 C   0  0  0  0  0  0  0  0  0  0  0  0
    9.4511   -6.0745    0.0000 C   0  0  2  0  0  0  0  0  0  0  0  0
    8.7366   -5.6620    0.0000 C   0  0  2  0  0  0  0  0  0  0  0  0
   10.0641   -5.5225    0.0000 C   0  0  1  0  0  0  0  0  0  0  0  0
    9.7286   -4.7688    0.0000 C   0  0  0  0  0  0  0  0  0  0  0  0
    8.9081   -4.8551    0.0000 C   0  0  0  0  0  0  0  0  0  0  0  0
    4.7517   -9.2640    0.0000 C   0  0  0  0  0  0  0  0  0  0  0  0
    5.5767   -9.2640    0.0000 C   0  0  0  0  0  0  0  0  0  0  0  0
    3.7353   -8.5495    0.0000 O   0  0  0  0  0  0  0  0  0  0  0  0
    3.0208   -8.1370    0.0000 C   0  0  0  0  0  0  0  0  0  0  0  0
    5.8787   -8.9620    0.0000 H   0  0  0  0  0  0  0  0  0  0  0  0
    5.8787   -6.4870    0.0000 C   0  0  0  0  0  0  0  0  0  0  0  0
    7.3076   -6.4870    0.0000 H   0  0  0  0  0  0  0  0  0  0  0  0
    8.0221   -5.2495    0.0000 C   0  0  0  0  0  0  0  0  0  0  0  0
   10.1655   -6.4870    0.0000 C   0  0  0  0  0  0  0  0  0  0  0  0
    8.7366   -6.4870    0.0000 H   0  0  0  0  0  0  0  0  0  0  0  0
    8.0221   -7.7245    0.0000 C   0  0  0  0  0  0  0  0  0  0  0  0
   10.8711   -5.6940    0.0000 C   0  0  0  0  0  0  0  0  0  0  0  0
   11.4232   -5.0809    0.0000 C   0  0  0  0  0  0  0  0  0  0  0  0
   11.1261   -6.4787    0.0000 C   0  0  0  0  0  0  0  0  0  0  0  0
  1  2  1  0  0  0  0
  2  3  1  0  0  0  0
  3  4  1  0  0  0  0
  4  5  1  0  0  0  0
  5  6  1  0  0  0  0
  6  1  1  0  0  0  0
  4  7  1  0  0  0  0
  7  8  1  0  0  0  0
  8  9  1  0  0  0  0
  9 10  1  0  0  0  0
 10  5  1  0  0  0  0
  9 11  1  0  0  0  0
 11 12  1  0  0  0  0
 12 13  1  0  0  0  0
 13 14  1  0  0  0  0
 14 10  2  0  0  0  0
 11 15  1  0  0  0  0
 15 16  1  0  0  0  0
 16 17  1  0  0  0  0
 17 18  1  0  0  0  0
 18 12  1  0  0  0  0
 17 19  1  0  0  0  0
 19 20  1  0  0  0  0
 20 21  1  0  0  0  0
 21 18  1  0  0  0  0
  3 22  1  0  0  0  0
  3 23  1  0  0  0  0
  2 24  1  1  0  0  0
 24 25  1  0  0  0  0
  4 26  1  6  0  0  0
  5 27  1  1  0  0  0
  9 28  1  1  0  0  0
 12 29  1  1  0  0  0
 17 30  1  1  0  0  0
 18 31  1  6  0  0  0
 11 32  1  6  0  0  0
 19 33  1  1  0  0  0
 33 34  1  0  0  0  0
 33 35  1  0  0  0  0
M  END
>  <cdx:fragmentId>
17133

$$$$
