1890.cdx
  Mrv1902 05222410272D          

 17 19  0  0  0  0            999 V2000
    6.0734   -8.1950    0.0000 C   0  0  0  0  0  0  0  0  0  0  0  0
    6.0734   -9.0200    0.0000 C   0  0  0  0  0  0  0  0  0  0  0  0
    6.7184   -9.5344    0.0000 C   0  0  0  0  0  0  0  0  0  0  0  0
    7.5228   -9.3508    0.0000 N   0  0  0  0  0  0  0  0  0  0  0  0
    7.8807   -8.6075    0.0000 C   0  0  2  0  0  0  0  0  0  0  0  0
    7.5228   -7.8642    0.0000 C   0  0  0  0  0  0  0  0  0  0  0  0
    6.7184   -7.6806    0.0000 N   0  0  0  0  0  0  0  0  0  0  0  0
    5.3590   -7.7825    0.0000 C   0  0  0  0  0  0  0  0  0  0  0  0
    4.6445   -8.1950    0.0000 C   0  0  0  0  0  0  0  0  0  0  0  0
    4.6445   -9.0200    0.0000 C   0  0  0  0  0  0  0  0  0  0  0  0
    5.3590   -9.4325    0.0000 C   0  0  0  0  0  0  0  0  0  0  0  0
    8.0371   -7.2192    0.0000 O   0  0  0  0  0  0  0  0  0  0  0  0
    6.5349  -10.3387    0.0000 O   0  0  0  0  0  0  0  0  0  0  0  0
    8.1191   -9.9209    0.0000 C   0  0  0  0  0  0  0  0  0  0  0  0
    8.8456   -9.5300    0.0000 C   0  0  0  0  0  0  0  0  0  0  0  0
    8.6982   -8.7182    0.0000 C   0  0  0  0  0  0  0  0  0  0  0  0
    8.4538   -8.0344    0.0000 H   0  0  0  0  0  0  0  0  0  0  0  0
  1  2  2  0  0  0  0
  2  3  1  0  0  0  0
  3  4  1  0  0  0  0
  4  5  1  0  0  0  0
  5  6  1  0  0  0  0
  6  7  1  0  0  0  0
  7  1  1  0  0  0  0
  1  8  1  0  0  0  0
  8  9  2  0  0  0  0
  9 10  1  0  0  0  0
 10 11  2  0  0  0  0
 11  2  1  0  0  0  0
  6 12  2  0  0  0  0
  3 13  2  0  0  0  0
  4 14  1  0  0  0  0
 14 15  1  0  0  0  0
 15 16  1  0  0  0  0
 16  5  1  0  0  0  0
  5 17  1  1  0  0  0
M  END
>  <cdx:fragmentId>
107

$$$$
