189151.cdx
  Mrv1902 05222410252D          

 24 27  0  0  0  0            999 V2000
    6.4785   -8.2415    0.0000 C   0  0  0  0  0  0  0  0  0  0  0  0
    6.4873   -9.0665    0.0000 C   0  0  0  0  0  0  0  0  0  0  0  0
    5.7772   -9.4865    0.0000 C   0  0  0  0  0  0  0  0  0  0  0  0
    5.7860  -10.3115    0.0000 C   0  0  0  0  0  0  0  0  0  0  0  0
    6.5049  -10.7164    0.0000 C   0  0  0  0  0  0  0  0  0  0  0  0
    7.2149  -10.2963    0.0000 C   0  0  0  0  0  0  0  0  0  0  0  0
    7.2061   -9.4713    0.0000 C   0  0  0  0  0  0  0  0  0  0  0  0
    7.9161   -9.0512    0.0000 C   0  0  0  0  0  0  0  0  0  0  0  0
    7.9073   -8.2263    0.0000 C   0  0  0  0  0  0  0  0  0  0  0  0
    8.6179   -7.8071    0.0000 N   0  0  0  0  0  0  0  0  0  0  0  0
    8.6089   -6.9821    0.0000 C   0  0  0  0  0  0  0  0  0  0  0  0
    7.8902   -6.5771    0.0000 C   0  0  0  0  0  0  0  0  0  0  0  0
    7.1797   -6.9965    0.0000 C   0  0  0  0  0  0  0  0  0  0  0  0
    6.4609   -6.5916    0.0000 C   0  0  0  0  0  0  0  0  0  0  0  0
    5.7509   -7.0117    0.0000 C   0  0  0  0  0  0  0  0  0  0  0  0
    5.7597   -7.8366    0.0000 C   0  0  0  0  0  0  0  0  0  0  0  0
    7.1885   -7.8214    0.0000 C   0  0  0  0  0  0  0  0  0  0  0  0
    9.3189   -6.5621    0.0000 O   0  0  0  0  0  0  0  0  0  0  0  0
    7.8814   -5.7521    0.0000 O   0  0  0  0  0  0  0  0  0  0  0  0
    9.3368   -8.2120    0.0000 C   0  0  0  0  0  0  0  0  0  0  0  0
    5.0496   -8.2567    0.0000 O   0  0  0  0  0  0  0  0  0  0  0  0
    5.0584   -9.0817    0.0000 C   0  0  0  0  0  0  0  0  0  0  0  0
    5.0320   -6.6068    0.0000 O   0  0  0  0  0  0  0  0  0  0  0  0
    4.3176   -7.0193    0.0000 C   0  0  0  0  0  0  0  0  0  0  0  0
  1  2  1  0  0  0  0
  2  3  2  0  0  0  0
  3  4  1  0  0  0  0
  4  5  2  0  0  0  0
  5  6  1  0  0  0  0
  6  7  2  0  0  0  0
  7  8  1  0  0  0  0
  8  9  2  0  0  0  0
  9 10  1  0  0  0  0
 10 11  1  0  0  0  0
 11 12  1  0  0  0  0
 12 13  1  0  0  0  0
 13 14  2  0  0  0  0
 14 15  1  0  0  0  0
 15 16  2  0  0  0  0
  1 16  1  0  0  0  0
  1 17  2  0  0  0  0
 17  9  1  0  0  0  0
  2  7  1  0  0  0  0
 13 17  1  0  0  0  0
 11 18  2  0  0  0  0
 12 19  2  0  0  0  0
 10 20  1  0  0  0  0
 21 22  1  0  0  0  0
 16 21  1  0  0  0  0
 23 24  1  0  0  0  0
 15 23  1  0  0  0  0
M  END
>  <cdx:groupId>
17376

>  <cdx:fragmentId>
17304

$$$$
