1891.cdx
  Mrv1902 05222410272D          

 16 16  0  0  0  0            999 V2000
    6.2705   -6.3800    0.0000 C   0  0  0  0  0  0  0  0  0  0  0  0
    6.2705   -7.2050    0.0000 C   0  0  0  0  0  0  0  0  0  0  0  0
    6.9850   -7.6175    0.0000 C   0  0  0  0  0  0  0  0  0  0  0  0
    7.6995   -7.2050    0.0000 C   0  0  0  0  0  0  0  0  0  0  0  0
    7.6995   -6.3800    0.0000 C   0  0  0  0  0  0  0  0  0  0  0  0
    6.9850   -5.9675    0.0000 C   0  0  0  0  0  0  0  0  0  0  0  0
    6.9850   -5.1425    0.0000 O   0  0  0  0  0  0  0  0  0  0  0  0
    8.4139   -5.9675    0.0000 O   0  0  0  0  0  0  0  0  0  0  0  0
    9.1284   -6.3800    0.0000 C   0  0  0  0  0  0  0  0  0  0  0  0
    5.5561   -5.9675    0.0000 O   0  0  0  0  0  0  0  0  0  0  0  0
    4.8416   -6.3800    0.0000 C   0  0  0  0  0  0  0  0  0  0  0  0
    6.9850   -8.4425    0.0000 C   0  0  0  0  0  0  0  0  0  0  0  0
    7.6995   -8.8550    0.0000 C   0  0  0  0  0  0  0  0  0  0  0  0
    7.6995   -9.6800    0.0000 C   0  0  0  0  0  0  0  0  0  0  0  0
    8.4139  -10.0925    0.0000 C   0  0  0  0  0  0  0  0  0  0  0  0
    6.9850  -10.0925    0.0000 O   0  0  0  0  0  0  0  0  0  0  0  0
  1  2  2  0  0  0  0
  2  3  1  0  0  0  0
  3  4  2  0  0  0  0
  4  5  1  0  0  0  0
  5  6  2  0  0  0  0
  6  1  1  0  0  0  0
  6  7  1  0  0  0  0
  5  8  1  0  0  0  0
  8  9  1  0  0  0  0
  1 10  1  0  0  0  0
 10 11  1  0  0  0  0
  3 12  1  0  0  0  0
 12 13  2  0  0  0  0
 13 14  1  0  0  0  0
 14 15  1  0  0  0  0
 14 16  2  0  0  0  0
M  END
>  <cdx:fragmentId>
194

$$$$
