18915.cdx
  Mrv1902 05222410192D          

 14 13  0  0  0  0            999 V2000
    2.6460   -6.2219    0.0000 C   0  0  0  0  0  0  0  0  0  0  0  0
    3.3605   -5.8094    0.0000 C   0  0  0  0  0  0  0  0  0  0  0  0
   11.2196   -6.2219    0.0000 O   0  0  0  0  0  0  0  0  0  0  0  0
    4.0749   -6.2219    0.0000 O   0  0  0  0  0  0  0  0  0  0  0  0
    4.7894   -4.9844    0.0000 O   0  0  0  0  0  0  0  0  0  0  0  0
   10.5052   -5.8094    0.0000 C   0  0  0  0  0  0  0  0  0  0  0  0
    9.7907   -6.2219    0.0000 C   0  0  0  0  0  0  0  0  0  0  0  0
    9.0762   -5.8094    0.0000 C   0  0  0  0  0  0  0  0  0  0  0  0
    8.3618   -6.2219    0.0000 C   0  0  0  0  0  0  0  0  0  0  0  0
    7.6473   -5.8094    0.0000 C   0  0  0  0  0  0  0  0  0  0  0  0
    6.9328   -6.2219    0.0000 C   0  0  0  0  0  0  0  0  0  0  0  0
    6.2183   -5.8094    0.0000 C   0  0  0  0  0  0  0  0  0  0  0  0
    5.5039   -6.2219    0.0000 C   0  0  0  0  0  0  0  0  0  0  0  0
    4.7894   -5.8094    0.0000 C   0  0  0  0  0  0  0  0  0  0  0  0
  4  2  1  0  0  0  0
  2  1  1  0  0  0  0
  6  3  2  0  0  0  0
 14  4  1  0  0  0  0
 14  5  2  0  0  0  0
  7  6  1  0  0  0  0
  8  7  1  0  0  0  0
  9  8  1  0  0  0  0
 10  9  1  0  0  0  0
 11 10  1  0  0  0  0
 12 11  1  0  0  0  0
 13 12  1  0  0  0  0
 14 13  1  0  0  0  0
M  END
>  <cdx:groupId>
43

>  <cdx:fragmentId>
5

$$$$
