1892.cdx
  Mrv1902 05222410282D          

 16 17  0  0  0  0            999 V2000
    8.1433   -5.5272    0.0000 N   0  0  0  0  0  0  0  0  0  0  0  0
    8.6293   -6.1939    0.0000 C   0  0  0  0  0  0  0  0  0  0  0  0
    8.1454   -6.8621    0.0000 N   0  0  0  0  0  0  0  0  0  0  0  0
    7.3604   -6.6084    0.0000 C   0  0  0  0  0  0  0  0  0  0  0  0
    6.6466   -7.0220    0.0000 N   0  0  0  0  0  0  0  0  0  0  0  0
    5.9315   -6.6106    0.0000 C   0  0  0  0  0  0  0  0  0  0  0  0
    5.9302   -5.7856    0.0000 N   0  0  0  0  0  0  0  0  0  0  0  0
    6.6440   -5.3720    0.0000 C   0  0  0  0  0  0  0  0  0  0  0  0
    7.3591   -5.7834    0.0000 C   0  0  0  0  0  0  0  0  0  0  0  0
    5.2176   -7.0242    0.0000 O   0  0  0  0  0  0  0  0  0  0  0  0
    6.6427   -4.5470    0.0000 O   0  0  0  0  0  0  0  0  0  0  0  0
    6.6478   -7.8470    0.0000 C   0  0  0  0  0  0  0  0  0  0  0  0
    5.2151   -5.3742    0.0000 C   0  0  0  0  0  0  0  0  0  0  0  0
    8.3971   -4.7422    0.0000 C   0  0  0  0  0  0  0  0  0  0  0  0
    9.2038   -4.5694    0.0000 C   0  0  0  0  0  0  0  0  0  0  0  0
    9.4575   -3.7844    0.0000 O   0  0  0  0  0  0  0  0  0  0  0  0
  1  2  1  0  0  0  0
  2  3  2  0  0  0  0
  3  4  1  0  0  0  0
  4  5  1  0  0  0  0
  5  6  1  0  0  0  0
  6  7  1  0  0  0  0
  7  8  1  0  0  0  0
  8  9  1  0  0  0  0
  1  9  1  0  0  0  0
  4  9  2  0  0  0  0
  6 10  2  0  0  0  0
  8 11  2  0  0  0  0
  5 12  1  0  0  0  0
  7 13  1  0  0  0  0
 14 15  1  0  0  0  0
 15 16  1  0  0  0  0
  1 14  1  0  0  0  0
M  END
>  <cdx:fragmentId>
5

$$$$
