18940.cdx
  Mrv1902 05222410242D          

 10 10  0  0  0  0            999 V2000
    6.9655   -2.9494    0.0000 C   0  0  0  0  0  0  0  0  0  0  0  0
    6.2511   -3.3619    0.0000 C   0  0  0  0  0  0  0  0  0  0  0  0
    5.5366   -2.9494    0.0000 C   0  0  0  0  0  0  0  0  0  0  0  0
    4.8221   -3.3619    0.0000 C   0  0  0  0  0  0  0  0  0  0  0  0
    4.1077   -2.9494    0.0000 C   0  0  0  0  0  0  0  0  0  0  0  0
    4.1077   -2.1244    0.0000 C   0  0  0  0  0  0  0  0  0  0  0  0
    4.8221   -1.7119    0.0000 C   0  0  0  0  0  0  0  0  0  0  0  0
    5.5366   -2.1244    0.0000 C   0  0  0  0  0  0  0  0  0  0  0  0
    3.3932   -1.7119    0.0000 C   0  0  0  0  0  0  0  0  0  0  0  0
    2.6787   -2.1244    0.0000 C   0  0  0  0  0  0  0  0  0  0  0  0
  1  2  2  0  0  0  0
  2  3  1  0  0  0  0
  3  4  1  0  0  0  0
  4  5  2  0  0  0  0
  5  6  1  0  0  0  0
  6  7  2  0  0  0  0
  7  8  1  0  0  0  0
  3  8  2  0  0  0  0
  9 10  1  0  0  0  0
  6  9  1  0  0  0  0
M  END
>  <cdx:groupId>
32

>  <cdx:fragmentId>
5

$$$$
