1894.cdx
  Mrv1902 05222410262D          

 28 33  0  0  0  0            999 V2000
    3.9431   -6.7195    0.0000 C   0  0  0  0  0  0  0  0  0  0  0  0
    3.6963   -7.5067    0.0000 C   0  0  0  0  0  0  0  0  0  0  0  0
    4.2547   -8.1141    0.0000 C   0  0  0  0  0  0  0  0  0  0  0  0
    5.0598   -7.9342    0.0000 C   0  0  0  0  0  0  0  0  0  0  0  0
    5.3066   -7.1470    0.0000 C   0  0  0  0  0  0  0  0  0  0  0  0
    4.7483   -6.5397    0.0000 C   0  0  0  0  0  0  0  0  0  0  0  0
    5.6182   -8.5416    0.0000 N   0  0  0  0  0  0  0  0  0  0  0  0
    6.4233   -8.3618    0.0000 C   0  0  0  0  0  0  0  0  0  0  0  0
    6.6701   -7.5745    0.0000 N   0  0  0  0  0  0  0  0  0  0  0  0
    6.1118   -6.9672    0.0000 C   0  0  0  0  0  0  0  0  0  0  0  0
    7.0957   -8.8398    0.0000 C   0  0  0  0  0  0  0  0  0  0  0  0
    7.7581   -8.3480    0.0000 C   0  0  0  0  0  0  0  0  0  0  0  0
    7.4951   -7.5660    0.0000 C   0  0  0  0  0  0  0  0  0  0  0  0
    8.5668   -8.5111    0.0000 C   0  0  0  0  0  0  0  0  0  0  0  0
    9.1125   -7.8924    0.0000 C   0  0  0  0  0  0  0  0  0  0  0  0
    8.8495   -7.1104    0.0000 C   0  0  0  0  0  0  0  0  0  0  0  0
    8.0408   -6.9472    0.0000 C   0  0  0  0  0  0  0  0  0  0  0  0
    7.1043   -9.6647    0.0000 C   0  0  0  0  0  0  0  0  0  0  0  0
    6.4419  -10.1565    0.0000 N   0  0  0  0  0  0  0  0  0  0  0  0
    6.7049  -10.9384    0.0000 C   0  0  0  0  0  0  0  0  0  0  0  0
    7.5299  -10.9299    0.0000 C   0  0  0  0  0  0  0  0  0  0  0  0
    7.7767  -10.1427    0.0000 C   0  0  0  0  0  0  0  0  0  0  0  0
    8.5586   -9.8797    0.0000 O   0  0  0  0  0  0  0  0  0  0  0  0
    6.2998  -11.6571    0.0000 C   0  0  0  0  0  0  0  0  0  0  0  0
    6.7197  -12.3673    0.0000 C   0  0  0  0  0  0  0  0  0  0  0  0
    7.5446  -12.3588    0.0000 C   0  0  0  0  0  0  0  0  0  0  0  0
    7.9497  -11.6401    0.0000 C   0  0  0  0  0  0  0  0  0  0  0  0
    6.3586   -6.1800    0.0000 O   0  0  0  0  0  0  0  0  0  0  0  0
  1  2  2  0  0  0  0
  2  3  1  0  0  0  0
  3  4  2  0  0  0  0
  4  5  1  0  0  0  0
  5  6  2  0  0  0  0
  6  1  1  0  0  0  0
  4  7  1  0  0  0  0
  7  8  2  0  0  0  0
  8  9  1  0  0  0  0
  9 10  1  0  0  0  0
 10  5  1  0  0  0  0
  8 11  1  0  0  0  0
 11 12  1  0  0  0  0
 12 13  2  0  0  0  0
 13  9  1  0  0  0  0
 12 14  1  0  0  0  0
 14 15  2  0  0  0  0
 15 16  1  0  0  0  0
 16 17  2  0  0  0  0
 17 13  1  0  0  0  0
 11 18  2  0  0  0  0
 18 19  1  0  0  0  0
 19 20  1  0  0  0  0
 20 21  2  0  0  0  0
 21 22  1  0  0  0  0
 22 18  1  0  0  0  0
 22 23  2  0  0  0  0
 20 24  1  0  0  0  0
 24 25  2  0  0  0  0
 25 26  1  0  0  0  0
 26 27  2  0  0  0  0
 27 21  1  0  0  0  0
 10 28  2  0  0  0  0
M  END
>  <cdx:fragmentId>
275

$$$$
