189600.cdx
  Mrv1902 05222410232D          

 29 32  0  0  0  0            999 V2000
    9.7312  -12.5978    0.0000 C   0  0  2  0  0  0  0  0  0  0  0  0
    8.9066  -12.6216    0.0000 C   0  0  2  0  0  0  0  0  0  0  0  0
    8.3361  -13.2175    0.0000 C   0  0  2  0  0  0  0  0  0  0  0  0
    7.5478  -12.9741    0.0000 C   0  0  0  0  0  0  0  0  0  0  0  0
    7.0727  -13.6487    0.0000 C   0  0  1  0  0  0  0  0  0  0  0  0
    7.5674  -14.3089    0.0000 C   0  0  0  0  0  0  0  0  0  0  0  0
    8.3482  -14.0424    0.0000 C   0  0  1  0  0  0  0  0  0  0  0  0
    8.9361  -14.6212    0.0000 C   0  0  1  0  0  0  0  0  0  0  0  0
    9.7611  -14.6206    0.0000 C   0  0  0  0  0  0  0  0  0  0  0  0
   10.3480  -14.0408    0.0000 C   0  0  2  0  0  0  0  0  0  0  0  0
   11.1524  -14.2243    0.0000 C   0  0  0  0  0  0  0  0  0  0  0  0
   11.5755  -13.5161    0.0000 C   0  0  2  0  0  0  0  0  0  0  0  0
   11.0327  -12.8948    0.0000 C   0  0  2  0  0  0  0  0  0  0  0  0
   10.9587  -12.0732    0.0000 C   0  0  0  0  0  0  0  0  0  0  0  0
   10.1544  -11.8896    0.0000 C   0  0  0  0  0  0  0  0  0  0  0  0
   10.2741  -13.2191    0.0000 C   0  0  0  0  0  0  0  0  0  0  0  0
    8.2396  -12.1360    0.0000 O   0  0  0  0  0  0  0  0  0  0  0  0
    6.2477  -13.6487    0.0000 O   0  0  0  0  0  0  0  0  0  0  0  0
    8.1647  -14.8467    0.0000 O   0  0  0  0  0  0  0  0  0  0  0  0
    8.6236  -15.3848    0.0000 O   0  0  0  0  0  0  0  0  0  0  0  0
   10.5740  -14.8342    0.0000 O   0  0  0  0  0  0  0  0  0  0  0  0
   12.2501  -13.0412    0.0000 O   0  0  0  0  0  0  0  0  0  0  0  0
   12.3241  -13.8629    0.0000 C   0  0  0  0  0  0  0  0  0  0  0  0
    7.7509  -15.1132    0.0000 C   0  0  0  0  0  0  0  0  0  0  0  0
    6.9626  -14.8699    0.0000 C   0  0  0  0  0  0  0  0  0  0  0  0
    8.9936  -11.8012    0.0000 C   0  0  0  0  0  0  0  0  0  0  0  0
    9.4491  -11.8226    0.0000 H   0  0  0  0  0  0  0  0  0  0  0  0
    7.9933  -12.4670    0.0000 H   0  0  0  0  0  0  0  0  0  0  0  0
   11.7913  -12.5706    0.0000 H   0  0  0  0  0  0  0  0  0  0  0  0
  1  2  1  0  0  0  0
  2  3  1  0  0  0  0
  3  4  1  0  0  0  0
  4  5  1  0  0  0  0
  5  6  1  0  0  0  0
  6  7  1  0  0  0  0
  7  8  1  0  0  0  0
  8  9  1  0  0  0  0
  9 10  1  0  0  0  0
 10 11  1  0  0  0  0
 11 12  1  0  0  0  0
 12 13  1  0  0  0  0
 13 14  1  0  0  0  0
 14 15  1  0  0  0  0
  1 15  1  0  0  0  0
  1 16  1  0  0  0  0
 10 16  1  0  0  0  0
  3  7  1  0  0  0  0
 13 16  1  0  0  0  0
  2 17  1  6  0  0  0
  5 18  1  1  0  0  0
  7 19  1  1  0  0  0
  8 20  1  1  0  0  0
 10 21  1  6  0  0  0
 12 22  1  6  0  0  0
 12 23  1  1  0  0  0
  6 24  1  0  0  0  0
  6 25  1  0  0  0  0
  2 26  1  1  0  0  0
  1 27  1  1  0  0  0
  3 28  1  6  0  0  0
 13 29  1  6  0  0  0
M  END
>  <cdx:fragmentId>
43537

$$$$
