189685.cdx
  Mrv1902 05222410262D          

 29 34  0  0  0  0            999 V2000
   13.7882   -6.9370    0.0000 C   0  0  0  0  0  0  0  0  0  0  0  0
   13.7882   -7.7620    0.0000 C   0  0  0  0  0  0  0  0  0  0  0  0
   14.5026   -8.1745    0.0000 C   0  0  0  0  0  0  0  0  0  0  0  0
   15.2171   -7.7620    0.0000 C   0  0  0  0  0  0  0  0  0  0  0  0
   15.2171   -6.9370    0.0000 C   0  0  0  0  0  0  0  0  0  0  0  0
   14.5026   -6.5245    0.0000 C   0  0  0  0  0  0  0  0  0  0  0  0
   15.9316   -8.1745    0.0000 C   0  0  1  0  0  0  0  0  0  0  0  0
   16.6460   -7.7620    0.0000 N   0  0  0  0  0  0  0  0  0  0  0  0
   16.6460   -6.9370    0.0000 C   0  0  0  0  0  0  0  0  0  0  0  0
   15.9316   -6.5245    0.0000 C   0  0  0  0  0  0  0  0  0  0  0  0
   17.3605   -8.1745    0.0000 C   0  0  0  0  0  0  0  0  0  0  0  0
   15.9316   -8.9995    0.0000 C   0  0  2  0  0  0  0  0  0  0  0  0
   13.0035   -6.6821    0.0000 O   0  0  0  0  0  0  0  0  0  0  0  0
   12.5186   -7.3495    0.0000 C   0  0  0  0  0  0  0  0  0  0  0  0
   13.0035   -8.0170    0.0000 O   0  0  0  0  0  0  0  0  0  0  0  0
   15.2641   -9.4844    0.0000 C   0  0  0  0  0  0  0  0  0  0  0  0
   15.5191  -10.2691    0.0000 C   0  0  0  0  0  0  0  0  0  0  0  0
   16.3441  -10.2691    0.0000 C   0  0  0  0  0  0  0  0  0  0  0  0
   16.5990   -9.4844    0.0000 O   0  0  0  0  0  0  0  0  0  0  0  0
   16.8290  -10.9365    0.0000 O   0  0  0  0  0  0  0  0  0  0  0  0
   14.4572   -9.3129    0.0000 C   0  0  0  0  0  0  0  0  0  0  0  0
   13.9051   -9.9260    0.0000 C   0  0  0  0  0  0  0  0  0  0  0  0
   14.1601  -10.7106    0.0000 C   0  0  0  0  0  0  0  0  0  0  0  0
   14.9670  -10.8822    0.0000 C   0  0  0  0  0  0  0  0  0  0  0  0
   13.7476  -11.4251    0.0000 O   0  0  0  0  0  0  0  0  0  0  0  0
   14.2996  -12.0382    0.0000 C   0  0  0  0  0  0  0  0  0  0  0  0
   15.0533  -11.7026    0.0000 O   0  0  0  0  0  0  0  0  0  0  0  0
   16.7285   -8.3880    0.0000 H   0  0  0  0  0  0  0  0  0  0  0  0
   15.1347   -8.7860    0.0000 H   0  0  0  0  0  0  0  0  0  0  0  0
  1  2  2  0  0  0  0
  2  3  1  0  0  0  0
  3  4  2  0  0  0  0
  4  5  1  0  0  0  0
  5  6  2  0  0  0  0
  6  1  1  0  0  0  0
  4  7  1  0  0  0  0
  7  8  1  0  0  0  0
  8  9  1  0  0  0  0
  9 10  1  0  0  0  0
 10  5  1  0  0  0  0
  8 11  1  0  0  0  0
  7 12  1  0  0  0  0
  1 13  1  0  0  0  0
 13 14  1  0  0  0  0
 14 15  1  0  0  0  0
 15  2  1  0  0  0  0
 12 16  1  0  0  0  0
 16 17  2  0  0  0  0
 17 18  1  0  0  0  0
 18 19  1  0  0  0  0
 19 12  1  0  0  0  0
 18 20  1  0  0  0  0
 16 21  1  0  0  0  0
 21 22  2  0  0  0  0
 22 23  1  0  0  0  0
 23 24  2  0  0  0  0
 24 17  1  0  0  0  0
 23 25  1  0  0  0  0
 25 26  1  0  0  0  0
 26 27  1  0  0  0  0
 27 24  1  0  0  0  0
  7 28  1  6  0  0  0
 12 29  1  6  0  0  0
M  END
>  <cdx:fragmentId>
17459

$$$$
