189695.cdx
  Mrv1902 05222410282D          

 14 15  0  0  0  0            999 V2000
    5.3534   -9.3792    0.0000 O   0  0  0  0  0  0  0  0  0  0  0  0
    4.6784   -8.9049    0.0000 C   0  0  0  0  0  0  0  0  0  0  0  0
    4.9209   -8.1164    0.0000 C   0  0  0  0  0  0  0  0  0  0  0  0
    5.7458   -8.1033    0.0000 C   0  0  0  0  0  0  0  0  0  0  0  0
    6.0131   -8.8838    0.0000 C   0  0  0  0  0  0  0  0  0  0  0  0
    6.2201   -7.4283    0.0000 C   0  0  0  0  0  0  0  0  0  0  0  0
    7.0419   -7.5016    0.0000 O   0  0  0  0  0  0  0  0  0  0  0  0
    7.5162   -6.8266    0.0000 C   0  0  0  0  0  0  0  0  0  0  0  0
    8.3380   -6.8998    0.0000 C   0  0  0  0  0  0  0  0  0  0  0  0
    7.1688   -6.0783    0.0000 O   0  0  0  0  0  0  0  0  0  0  0  0
    8.7617   -7.6077    0.0000 C   0  0  0  0  0  0  0  0  0  0  0  0
    9.5658   -7.4234    0.0000 C   0  0  0  0  0  0  0  0  0  0  0  0
    9.6391   -6.6017    0.0000 C   0  0  0  0  0  0  0  0  0  0  0  0
    8.8802   -6.2781    0.0000 N   0  0  0  0  0  0  0  0  0  0  0  0
  5  1  1  0  0  0  0
  2  1  1  0  0  0  0
  3  2  2  0  0  0  0
  4  3  1  0  0  0  0
  5  4  2  0  0  0  0
  4  6  1  0  0  0  0
  6  7  1  0  0  0  0
  7  8  1  0  0  0  0
  8  9  1  0  0  0  0
  8 10  2  0  0  0  0
  9 11  2  0  0  0  0
 11 12  1  0  0  0  0
 12 13  2  0  0  0  0
 13 14  1  0  0  0  0
 14  9  1  0  0  0  0
M  END
>  <cdx:groupId>
17571

>  <cdx:fragmentId>
17531

$$$$
