189670.cdx
  Mrv1902 05222410192D          

 23 24  0  0  0  0            999 V2000
    6.9288   -6.5358    0.0000 C   0  0  0  0  0  0  0  0  0  0  0  0
    7.6433   -6.9483    0.0000 C   0  0  0  0  0  0  0  0  0  0  0  0
    8.3578   -6.5358    0.0000 C   0  0  0  0  0  0  0  0  0  0  0  0
    6.9288   -5.7108    0.0000 O   0  0  0  0  0  0  0  0  0  0  0  0
    9.0723   -6.9483    0.0000 C   0  0  0  0  0  0  0  0  0  0  0  0
    9.7867   -6.5358    0.0000 C   0  0  0  0  0  0  0  0  0  0  0  0
   10.5012   -6.9483    0.0000 C   0  0  0  0  0  0  0  0  0  0  0  0
   10.5012   -7.7733    0.0000 C   0  0  0  0  0  0  0  0  0  0  0  0
    9.7867   -8.1858    0.0000 C   0  0  0  0  0  0  0  0  0  0  0  0
    9.0723   -7.7733    0.0000 C   0  0  0  0  0  0  0  0  0  0  0  0
    8.3578   -8.1858    0.0000 O   0  0  0  0  0  0  0  0  0  0  0  0
    7.6433   -7.7733    0.0000 C   0  0  0  0  0  0  0  0  0  0  0  0
   11.2157   -8.1858    0.0000 O   0  0  0  0  0  0  0  0  0  0  0  0
   11.9301   -7.7733    0.0000 C   0  0  0  0  0  0  0  0  0  0  0  0
    9.7867   -5.7108    0.0000 O   0  0  0  0  0  0  0  0  0  0  0  0
   10.5012   -5.2983    0.0000 C   0  0  0  0  0  0  0  0  0  0  0  0
    6.2144   -6.9483    0.0000 C   0  0  0  0  0  0  0  0  0  0  0  0
    6.2144   -7.7733    0.0000 C   0  0  0  0  0  0  0  0  0  0  0  0
    5.4999   -8.1858    0.0000 C   0  0  0  0  0  0  0  0  0  0  0  0
    4.7854   -7.7733    0.0000 C   0  0  0  0  0  0  0  0  0  0  0  0
    4.7854   -6.9483    0.0000 C   0  0  0  0  0  0  0  0  0  0  0  0
    5.4999   -6.5358    0.0000 C   0  0  0  0  0  0  0  0  0  0  0  0
    4.0710   -8.1858    0.0000 O   0  0  0  0  0  0  0  0  0  0  0  0
  1  2  1  0  0  0  0
  2  3  1  0  0  0  0
  1  4  2  0  0  0  0
  5  6  1  0  0  0  0
  6  7  2  0  0  0  0
  7  8  1  0  0  0  0
  8  9  2  0  0  0  0
  9 10  1  0  0  0  0
  5 10  2  0  0  0  0
 11 12  1  0  0  0  0
 10 11  1  0  0  0  0
 13 14  1  0  0  0  0
  8 13  1  0  0  0  0
 15 16  1  0  0  0  0
  6 15  1  0  0  0  0
  3  5  1  0  0  0  0
 17 18  1  0  0  0  0
 18 19  2  0  0  0  0
 19 20  1  0  0  0  0
 20 21  2  0  0  0  0
 21 22  1  0  0  0  0
 17 22  2  0  0  0  0
 20 23  1  0  0  0  0
  1 17  1  0  0  0  0
M  END
>  <cdx:fragmentId>
17392

$$$$
