11018996.cdx
  Mrv1902 05222410232D          

 11 11  0  0  0  0            999 V2000
    8.3118  -12.3259    0.0000 C   0  0  0  0  0  0  0  0  0  0  0  0
    8.3118  -11.5009    0.0000 C   0  0  0  0  0  0  0  0  0  0  0  0
    9.0262  -11.0884    0.0000 C   0  0  0  0  0  0  0  0  0  0  0  0
    9.7407  -11.5009    0.0000 C   0  0  0  0  0  0  0  0  0  0  0  0
    9.7407  -12.3259    0.0000 C   0  0  0  0  0  0  0  0  0  0  0  0
    9.0262  -12.7384    0.0000 C   0  0  0  0  0  0  0  0  0  0  0  0
    7.5973  -12.7384    0.0000 C   0  0  0  0  0  0  0  0  0  0  0  0
    6.8828  -12.3259    0.0000 C   0  0  0  0  0  0  0  0  0  0  0  0
    6.1684  -12.7384    0.0000 C   0  0  0  0  0  0  0  0  0  0  0  0
    5.4539  -12.3259    0.0000 C   0  0  0  0  0  0  0  0  0  0  0  0
    4.7394  -12.7384    0.0000 C   0  0  0  0  0  0  0  0  0  0  0  0
  1  2  1  0  0  0  0
  2  3  2  0  0  0  0
  3  4  1  0  0  0  0
  4  5  2  0  0  0  0
  5  6  1  0  0  0  0
  1  6  2  0  0  0  0
  7  8  1  0  0  0  0
  8  9  2  0  0  0  0
  9 10  1  0  0  0  0
 10 11  2  0  0  0  0
  1  7  1  0  0  0  0
M  END
>  <cdx:groupId>
65111

>  <cdx:fragmentId>
65081

$$$$
