190.cdx
  Mrv1902 05222410242D          

  9  8  0  0  0  0            999 V2000
    7.1353   -6.0561    0.0000 C   0  0  2  0  0  0  0  0  0  0  0  0
    7.8497   -8.1186    0.0000 O   0  0  0  0  0  0  0  0  0  0  0  0
    6.4208   -7.2936    0.0000 N   0  0  0  0  0  0  0  0  0  0  0  0
    7.1353   -6.8811    0.0000 C   0  0  2  0  0  0  0  0  0  0  0  0
    7.8497   -7.2936    0.0000 C   0  0  0  0  0  0  0  0  0  0  0  0
    8.5642   -6.8811    0.0000 O   0  0  0  0  0  0  0  0  0  0  0  0
    6.4208   -5.6436    0.0000 C   0  0  0  0  0  0  0  0  0  0  0  0
    6.4208   -4.8186    0.0000 C   0  0  0  0  0  0  0  0  0  0  0  0
    7.8497   -5.6436    0.0000 C   0  0  0  0  0  0  0  0  0  0  0  0
  4  1  1  0  0  0  0
  5  2  2  0  0  0  0
  4  3  1  1  0  0  0
  5  4  1  0  0  0  0
  6  5  1  0  0  0  0
  1  7  1  0  0  0  0
  7  8  1  0  0  0  0
  1  9  1  6  0  0  0
M  END
>  <cdx:fragmentId>
27

$$$$
