19009.cdx
  Mrv1902 05222410272D          

 26 29  0  0  0  0            999 V2000
    7.0540   -7.0441    0.0000 C   0  0  0  0  0  0  0  0  0  0  0  0
    7.7685   -6.6316    0.0000 N   0  3  0  0  0  0  0  0  0  0  0  0
    7.7685   -5.8066    0.0000 C   0  0  0  0  0  0  0  0  0  0  0  0
    7.0540   -5.3941    0.0000 C   0  0  0  0  0  0  0  0  0  0  0  0
    6.3395   -5.8066    0.0000 C   0  0  0  0  0  0  0  0  0  0  0  0
    5.6251   -5.3941    0.0000 C   0  0  0  0  0  0  0  0  0  0  0  0
    4.9106   -5.8066    0.0000 C   0  0  0  0  0  0  0  0  0  0  0  0
    4.9106   -6.6316    0.0000 C   0  0  0  0  0  0  0  0  0  0  0  0
    5.6251   -7.0441    0.0000 C   0  0  0  0  0  0  0  0  0  0  0  0
    6.3395   -6.6316    0.0000 C   0  0  0  0  0  0  0  0  0  0  0  0
    8.4830   -7.0441    0.0000 C   0  0  0  0  0  0  0  0  0  0  0  0
    9.1974   -6.6316    0.0000 C   0  0  0  0  0  0  0  0  0  0  0  0
    9.1974   -5.8066    0.0000 C   0  0  0  0  0  0  0  0  0  0  0  0
    9.9119   -5.3941    0.0000 C   0  0  0  0  0  0  0  0  0  0  0  0
    9.9119   -4.5691    0.0000 C   0  0  0  0  0  0  0  0  0  0  0  0
    9.1974   -4.1566    0.0000 C   0  0  0  0  0  0  0  0  0  0  0  0
    8.4830   -4.5691    0.0000 C   0  0  0  0  0  0  0  0  0  0  0  0
    8.4830   -5.3941    0.0000 C   0  0  0  0  0  0  0  0  0  0  0  0
    4.1961   -7.0441    0.0000 O   0  0  0  0  0  0  0  0  0  0  0  0
    3.4817   -6.6316    0.0000 C   0  0  0  0  0  0  0  0  0  0  0  0
    5.6251   -7.8691    0.0000 O   0  0  0  0  0  0  0  0  0  0  0  0
    4.9106   -8.2816    0.0000 C   0  0  0  0  0  0  0  0  0  0  0  0
   10.6264   -4.1566    0.0000 O   0  0  0  0  0  0  0  0  0  0  0  0
   11.3408   -4.5691    0.0000 C   0  0  0  0  0  0  0  0  0  0  0  0
    9.1974   -3.3316    0.0000 O   0  0  0  0  0  0  0  0  0  0  0  0
    9.9119   -2.9191    0.0000 C   0  0  0  0  0  0  0  0  0  0  0  0
  1  2  1  0  0  0  0
  2  3  2  0  0  0  0
  3  4  1  0  0  0  0
  4  5  2  0  0  0  0
  5  6  1  0  0  0  0
  6  7  2  0  0  0  0
  7  8  1  0  0  0  0
  8  9  2  0  0  0  0
  9 10  1  0  0  0  0
  1 10  2  0  0  0  0
  5 10  1  0  0  0  0
 11 12  1  0  0  0  0
 12 13  1  0  0  0  0
 13 14  1  0  0  0  0
 14 15  2  0  0  0  0
 15 16  1  0  0  0  0
 16 17  2  0  0  0  0
 17 18  1  0  0  0  0
 13 18  2  0  0  0  0
 11  2  1  0  0  0  0
 18  3  1  0  0  0  0
 19 20  1  0  0  0  0
  8 19  1  0  0  0  0
 21 22  1  0  0  0  0
  9 21  1  0  0  0  0
 23 24  1  0  0  0  0
 15 23  1  0  0  0  0
 25 26  1  0  0  0  0
 16 25  1  0  0  0  0
M  CHG  1   2   1
M  END
>  <cdx:fragmentId>
5

$$$$
