190081.cdx
  Mrv1902 05222410192D          

 49 52  0  0  0  0            999 V2000
    7.8946   -7.1030    0.0000 C   0  0  2  0  0  0  0  0  0  0  0  0
    7.1795   -7.5144    0.0000 C   0  0  0  0  0  0  0  0  0  0  0  0
    7.1782   -8.3394    0.0000 C   0  0  2  0  0  0  0  0  0  0  0  0
    7.8920   -8.7530    0.0000 C   0  0  1  0  0  0  0  0  0  0  0  0
    8.6072   -8.3416    0.0000 C   0  0  1  0  0  0  0  0  0  0  0  0
    8.6084   -7.5166    0.0000 C   0  0  0  0  0  0  0  0  0  0  0  0
    9.3210   -8.7552    0.0000 O   0  0  0  0  0  0  0  0  0  0  0  0
    7.8908   -9.5780    0.0000 O   0  0  0  0  0  0  0  0  0  0  0  0
    2.8904  -10.8127    0.0000 O   0  0  0  0  0  0  0  0  0  0  0  0
    1.4616   -9.9875    0.0000 O   0  0  0  0  0  0  0  0  0  0  0  0
    2.8908   -8.3377    0.0000 C   0  0  0  0  0  0  0  0  0  0  0  0
    2.1763   -8.7501    0.0000 C   0  0  0  0  0  0  0  0  0  0  0  0
    2.1761   -9.5751    0.0000 C   0  0  0  0  0  0  0  0  0  0  0  0
    2.8905   -9.9877    0.0000 C   0  0  0  0  0  0  0  0  0  0  0  0
    3.6051   -9.5753    0.0000 C   0  0  0  0  0  0  0  0  0  0  0  0
    3.6052   -8.7503    0.0000 C   0  0  0  0  0  0  0  0  0  0  0  0
    5.7488   -7.5132    0.0000 O   0  0  0  0  0  0  0  0  0  0  0  0
    4.3198   -8.3379    0.0000 C   0  0  0  0  0  0  0  0  0  0  0  0
    5.0342   -8.7506    0.0000 C   0  0  0  0  0  0  0  0  0  0  0  0
    5.7487   -8.3382    0.0000 C   0  0  0  0  0  0  0  0  0  0  0  0
    6.4631   -8.7508    0.0000 O   0  0  0  0  0  0  0  0  0  0  0  0
    7.4821   -6.3885    0.0000 O   0  0  0  0  0  0  0  0  0  0  0  0
    8.3071   -6.3885    0.0000 C   0  0  0  0  0  0  0  0  0  0  0  0
    7.8946   -5.6741    0.0000 O   0  0  0  0  0  0  0  0  0  0  0  0
    9.1321   -6.3885    0.0000 O   0  0  0  0  0  0  0  0  0  0  0  0
    6.6505   -6.3642    0.0000 C   0  0  0  0  0  0  0  0  0  0  0  0
    6.2445   -5.6461    0.0000 C   0  0  0  0  0  0  0  0  0  0  0  0
    5.4195   -5.6387    0.0000 C   0  0  0  0  0  0  0  0  0  0  0  0
    6.2316   -7.0750    0.0000 O   0  0  0  0  0  0  0  0  0  0  0  0
    5.0134   -4.9205    0.0000 C   0  0  0  0  0  0  0  0  0  0  0  0
    5.4323   -4.2098    0.0000 C   0  0  0  0  0  0  0  0  0  0  0  0
    5.0263   -3.4917    0.0000 C   0  0  0  0  0  0  0  0  0  0  0  0
    4.2013   -3.4842    0.0000 C   0  0  0  0  0  0  0  0  0  0  0  0
    3.7824   -4.1950    0.0000 C   0  0  0  0  0  0  0  0  0  0  0  0
    4.1885   -4.9131    0.0000 C   0  0  0  0  0  0  0  0  0  0  0  0
    3.7952   -2.7661    0.0000 O   0  0  0  0  0  0  0  0  0  0  0  0
    5.4452   -2.7809    0.0000 O   0  0  0  0  0  0  0  0  0  0  0  0
   12.8855  -10.8251    0.0000 O   0  0  0  0  0  0  0  0  0  0  0  0
   12.8815  -12.4751    0.0000 O   0  0  0  0  0  0  0  0  0  0  0  0
   10.7391  -12.0574    0.0000 C   0  0  0  0  0  0  0  0  0  0  0  0
   11.4526  -12.4716    0.0000 C   0  0  0  0  0  0  0  0  0  0  0  0
   12.1680  -12.0608    0.0000 C   0  0  0  0  0  0  0  0  0  0  0  0
   12.1700  -11.2358    0.0000 C   0  0  0  0  0  0  0  0  0  0  0  0
   11.4566  -10.8216    0.0000 C   0  0  0  0  0  0  0  0  0  0  0  0
   10.7411  -11.2324    0.0000 C   0  0  0  0  0  0  0  0  0  0  0  0
    8.6007   -9.9896    0.0000 O   0  0  0  0  0  0  0  0  0  0  0  0
   10.0276  -10.8181    0.0000 C   0  0  0  0  0  0  0  0  0  0  0  0
   10.0297   -9.9931    0.0000 C   0  0  0  0  0  0  0  0  0  0  0  0
    9.3162   -9.5789    0.0000 C   0  0  0  0  0  0  0  0  0  0  0  0
 21 20  1  0  0  0  0
 18 16  1  0  0  0  0
 14  9  1  0  0  0  0
 13 10  1  0  0  0  0
 16 11  2  0  0  0  0
 12 11  1  0  0  0  0
 13 12  2  0  0  0  0
 14 13  1  0  0  0  0
 15 14  2  0  0  0  0
 16 15  1  0  0  0  0
 20 17  2  0  0  0  0
 19 18  2  0  0  0  0
 20 19  1  0  0  0  0
  1  2  1  0  0  0  0
  2  3  1  0  0  0  0
  3  4  1  0  0  0  0
  4  5  1  0  0  0  0
  5  6  1  0  0  0  0
  1  6  1  0  0  0  0
  5  7  1  1  0  0  0
  4  8  1  1  0  0  0
  3 21  1  6  0  0  0
  1 22  1  1  0  0  0
  1 23  1  0  0  0  0
 23 24  2  0  0  0  0
 23 25  1  0  0  0  0
 26 27  1  0  0  0  0
 27 28  2  0  0  0  0
 26 29  2  0  0  0  0
 30 31  1  0  0  0  0
 31 32  2  0  0  0  0
 32 33  1  0  0  0  0
 33 34  2  0  0  0  0
 34 35  1  0  0  0  0
 30 35  2  0  0  0  0
 33 36  1  0  0  0  0
 32 37  1  0  0  0  0
 28 30  1  0  0  0  0
 26 22  1  0  0  0  0
 47 45  1  0  0  0  0
 43 38  1  0  0  0  0
 42 39  1  0  0  0  0
 45 40  2  0  0  0  0
 41 40  1  0  0  0  0
 42 41  2  0  0  0  0
 43 42  1  0  0  0  0
 44 43  2  0  0  0  0
 45 44  1  0  0  0  0
 49 46  2  0  0  0  0
 48 47  2  0  0  0  0
 49 48  1  0  0  0  0
 49  7  1  0  0  0  0
M  END
>  <cdx:fragmentId>
37

$$$$
