190285.cdx
  Mrv1902 05222410202D          

 28 31  0  0  0  0            999 V2000
    8.1782  -12.6415    0.0000 O   0  0  0  0  0  0  0  0  0  0  0  0
    8.1665  -11.8166    0.0000 C   0  0  1  0  0  0  0  0  0  0  0  0
    8.8868  -12.2189    0.0000 C   0  0  0  0  0  0  0  0  0  0  0  0
    7.5949  -10.0532    0.0000 C   0  0  2  0  0  0  0  0  0  0  0  0
    6.8864  -10.4758    0.0000 C   0  0  0  0  0  0  0  0  0  0  0  0
    6.2341   -9.9707    0.0000 C   0  0  0  0  0  0  0  0  0  0  0  0
    5.4705  -10.2830    0.0000 C   0  0  0  0  0  0  0  0  0  0  0  0
    5.3592  -11.1004    0.0000 C   0  0  1  0  0  0  0  0  0  0  0  0
    5.2479  -11.9179    0.0000 C   0  0  0  0  0  0  0  0  0  0  0  0
    6.0115  -11.6056    0.0000 C   0  0  1  0  0  0  0  0  0  0  0  0
    6.7751  -11.2933    0.0000 C   0  0  0  0  0  0  0  0  0  0  0  0
    7.3448  -11.8900    0.0000 C   0  0  0  0  0  0  0  0  0  0  0  0
    8.6215  -11.1284    0.0000 C   0  0  2  0  0  0  0  0  0  0  0  0
    8.3671  -10.3436    0.0000 C   0  0  1  0  0  0  0  0  0  0  0  0
    8.8819   -9.6990    0.0000 C   0  0  2  0  0  0  0  0  0  0  0  0
    8.4279   -9.0101    0.0000 C   0  0  2  0  0  0  0  0  0  0  0  0
    7.6325   -9.2290    0.0000 C   0  0  0  0  0  0  0  0  0  0  0  0
    6.3188  -11.0745    0.0000 O   0  0  0  0  0  0  0  0  0  0  0  0
    8.7184   -8.2379    0.0000 C   0  0  0  0  0  0  0  0  0  0  0  0
    5.1365  -12.7353    0.0000 C   0  0  0  0  0  0  0  0  0  0  0  0
    4.4843  -12.2302    0.0000 C   0  0  0  0  0  0  0  0  0  0  0  0
    6.3455   -9.1532    0.0000 C   0  0  0  0  0  0  0  0  0  0  0  0
    9.7061   -9.7366    0.0000 O   0  0  0  0  0  0  0  0  0  0  0  0
    9.4389  -11.2398    0.0000 O   0  0  0  0  0  0  0  0  0  0  0  0
    6.8870   -9.6295    0.0000 O   0  0  0  0  0  0  0  0  0  0  0  0
    4.5417  -10.9891    0.0000 H   0  0  0  0  0  0  0  0  0  0  0  0
    6.3238  -12.3692    0.0000 H   0  0  0  0  0  0  0  0  0  0  0  0
    9.1787  -10.4915    0.0000 H   0  0  0  0  0  0  0  0  0  0  0  0
  2  1  1  1  0  0  0
  2  3  1  6  0  0  0
  1  3  1  0  0  0  0
  4  5  1  0  0  0  0
  5  6  1  0  0  0  0
  6  7  2  0  0  0  0
  7  8  1  0  0  0  0
  8  9  1  0  0  0  0
  9 10  1  0  0  0  0
 10 11  1  0  0  0  0
 11 12  1  0  0  0  0
 13 14  1  0  0  0  0
 14 15  1  0  0  0  0
 15 16  1  0  0  0  0
 16 17  1  0  0  0  0
  4 17  1  0  0  0  0
  4 14  1  0  0  0  0
  8 10  1  0  0  0  0
 12  2  1  0  0  0  0
 13  2  1  0  0  0  0
  5 18  2  0  0  0  0
 16 19  1  6  0  0  0
  9 20  1  0  0  0  0
  9 21  1  0  0  0  0
  6 22  1  0  0  0  0
 15 23  1  6  0  0  0
 13 24  1  6  0  0  0
  4 25  1  6  0  0  0
  8 26  1  1  0  0  0
 10 27  1  1  0  0  0
 14 28  1  1  0  0  0
M  END
>  <cdx:fragmentId>
527

$$$$
