10090416.cdx
  Mrv1902 05222410252D          

 27 29  0  0  0  0            999 V2000
    6.8863  -13.4854    0.0000 C   0  0  0  0  0  0  0  0  0  0  0  0
    6.8863  -12.6604    0.0000 C   0  0  0  0  0  0  0  0  0  0  0  0
    7.6007  -12.2479    0.0000 C   0  0  0  0  0  0  0  0  0  0  0  0
    8.3152  -12.6604    0.0000 C   0  0  0  0  0  0  0  0  0  0  0  0
    9.0297  -12.2479    0.0000 C   0  0  0  0  0  0  0  0  0  0  0  0
    9.7441  -12.6604    0.0000 C   0  0  0  0  0  0  0  0  0  0  0  0
    9.7441  -13.4854    0.0000 C   0  0  0  0  0  0  0  0  0  0  0  0
    9.0297  -13.8979    0.0000 C   0  0  0  0  0  0  0  0  0  0  0  0
    8.3152  -13.4854    0.0000 C   0  0  0  0  0  0  0  0  0  0  0  0
    7.6007  -13.8979    0.0000 O   0  0  0  0  0  0  0  0  0  0  0  0
    6.1718  -13.8979    0.0000 O   0  0  0  0  0  0  0  0  0  0  0  0
    8.6172  -15.4374    0.0000 C   0  0  0  0  0  0  0  0  0  0  0  0
    9.0297  -14.7229    0.0000 C   0  0  0  0  0  0  0  0  0  0  0  0
    9.7441  -15.1354    0.0000 C   0  0  0  0  0  0  0  0  0  0  0  0
    9.7441  -15.9604    0.0000 C   0  0  0  0  0  0  0  0  0  0  0  0
    8.2047  -14.7229    0.0000 C   0  0  0  0  0  0  0  0  0  0  0  0
    9.0297  -11.4229    0.0000 O   0  0  0  0  0  0  0  0  0  0  0  0
    9.7441  -11.0104    0.0000 C   0  0  0  0  0  0  0  0  0  0  0  0
   10.4586  -13.8979    0.0000 O   0  0  0  0  0  0  0  0  0  0  0  0
    6.1718  -12.2479    0.0000 C   0  0  0  0  0  0  0  0  0  0  0  0
    6.1718  -11.4229    0.0000 C   0  0  0  0  0  0  0  0  0  0  0  0
    5.4573  -11.0104    0.0000 C   0  0  0  0  0  0  0  0  0  0  0  0
    4.7429  -11.4229    0.0000 C   0  0  0  0  0  0  0  0  0  0  0  0
    4.7429  -12.2479    0.0000 C   0  0  0  0  0  0  0  0  0  0  0  0
    5.4573  -12.6604    0.0000 C   0  0  0  0  0  0  0  0  0  0  0  0
    4.0284  -11.0104    0.0000 O   0  0  0  0  0  0  0  0  0  0  0  0
    6.8863  -11.0104    0.0000 O   0  0  0  0  0  0  0  0  0  0  0  0
  1  2  1  0  0  0  0
  2  3  2  0  0  0  0
  3  4  1  0  0  0  0
  4  5  1  0  0  0  0
  5  6  2  0  0  0  0
  6  7  1  0  0  0  0
  7  8  2  0  0  0  0
  8  9  1  0  0  0  0
  4  9  2  0  0  0  0
  9 10  1  0  0  0  0
  1 10  1  0  0  0  0
  1 11  2  0  0  0  0
 12 13  1  0  0  0  0
 13 14  1  0  0  0  0
 14 15  2  0  0  0  0
 13 16  1  0  0  0  0
  8 13  1  0  0  0  0
 17 18  1  0  0  0  0
  5 17  1  0  0  0  0
  7 19  1  0  0  0  0
 20 21  1  0  0  0  0
 21 22  2  0  0  0  0
 22 23  1  0  0  0  0
 23 24  2  0  0  0  0
 24 25  1  0  0  0  0
 20 25  2  0  0  0  0
 23 26  1  0  0  0  0
 21 27  1  0  0  0  0
  2 20  1  0  0  0  0
M  END
>  <cdx:fragmentId>
40582

$$$$
