190763.cdx
  Mrv1902 05222410252D          

 54 59  0  0  0  0            999 V2000
   12.4114   -6.3591    0.0000 O   0  0  0  0  0  0  0  0  0  0  0  0
   12.4259   -4.7092    0.0000 O   0  0  0  0  0  0  0  0  0  0  0  0
   10.2790   -5.1028    0.0000 C   0  0  0  0  0  0  0  0  0  0  0  0
   10.9971   -4.6966    0.0000 C   0  0  0  0  0  0  0  0  0  0  0  0
   11.7079   -5.1154    0.0000 C   0  0  0  0  0  0  0  0  0  0  0  0
   11.7006   -5.9403    0.0000 C   0  0  0  0  0  0  0  0  0  0  0  0
   10.9825   -6.3465    0.0000 C   0  0  0  0  0  0  0  0  0  0  0  0
   10.2717   -5.9278    0.0000 C   0  0  0  0  0  0  0  0  0  0  0  0
    7.3922   -8.3776    0.0000 O   0  0  0  0  0  0  0  0  0  0  0  0
    5.9706   -7.5400    0.0000 O   0  0  0  0  0  0  0  0  0  0  0  0
    4.5344   -8.3524    0.0000 O   0  0  0  0  0  0  0  0  0  0  0  0
    3.1128   -7.5149    0.0000 O   0  0  0  0  0  0  0  0  0  0  0  0
    2.4092   -6.2712    0.0000 O   0  0  0  0  0  0  0  0  0  0  0  0
    3.1273   -5.8650    0.0000 C   0  0  0  0  0  0  0  0  0  0  0  0
    3.8381   -6.2837    0.0000 C   0  0  2  0  0  0  0  0  0  0  0  0
    3.8309   -7.1087    0.0000 C   0  0  2  0  0  0  0  0  0  0  0  0
    4.5417   -7.5275    0.0000 C   0  0  1  0  0  0  0  0  0  0  0  0
    5.2597   -7.1213    0.0000 C   0  0  2  0  0  0  0  0  0  0  0  0
    5.2670   -6.2963    0.0000 C   0  0  1  0  0  0  0  0  0  0  0  0
    4.5562   -5.8775    0.0000 O   0  0  0  0  0  0  0  0  0  0  0  0
    5.9851   -5.8901    0.0000 O   0  0  0  0  0  0  0  0  0  0  0  0
   11.6789   -8.4153    0.0000 O   0  0  0  0  0  0  0  0  0  0  0  0
   11.6643  -10.0652    0.0000 O   0  0  0  0  0  0  0  0  0  0  0  0
   10.2282  -10.8776    0.0000 O   0  0  0  0  0  0  0  0  0  0  0  0
    8.0812  -11.2712    0.0000 O   0  0  0  0  0  0  0  0  0  0  0  0
    6.6451  -12.0836    0.0000 O   0  0  0  0  0  0  0  0  0  0  0  0
    5.2235  -11.2461    0.0000 O   0  0  0  0  0  0  0  0  0  0  0  0
    5.2380   -9.5962    0.0000 C   0  0  0  0  0  0  0  0  0  0  0  0
    5.9488  -10.0149    0.0000 C   0  0  1  0  0  0  0  0  0  0  0  0
    5.9415  -10.8399    0.0000 C   0  0  1  0  0  0  0  0  0  0  0  0
    6.6524  -11.2587    0.0000 C   0  0  2  0  0  0  0  0  0  0  0  0
    7.3704  -10.8525    0.0000 C   0  0  2  0  0  0  0  0  0  0  0  0
    7.3777  -10.0275    0.0000 C   0  0  1  0  0  0  0  0  0  0  0  0
    6.6669   -9.6087    0.0000 O   0  0  0  0  0  0  0  0  0  0  0  0
    8.0958   -9.6213    0.0000 O   0  0  0  0  0  0  0  0  0  0  0  0
    8.8066  -10.0401    0.0000 C   0  0  0  0  0  0  0  0  0  0  0  0
    9.5246   -9.6339    0.0000 C   0  0  2  0  0  0  0  0  0  0  0  0
   10.2355  -10.0526    0.0000 C   0  0  2  0  0  0  0  0  0  0  0  0
   10.9535   -9.6464    0.0000 C   0  0  1  0  0  0  0  0  0  0  0  0
   10.9608   -8.8215    0.0000 C   0  0  2  0  0  0  0  0  0  0  0  0
   10.2500   -8.4027    0.0000 C   0  0  1  0  0  0  0  0  0  0  0  0
    9.5319   -8.8089    0.0000 O   0  0  0  0  0  0  0  0  0  0  0  0
   10.2572   -7.5777    0.0000 O   0  0  0  0  0  0  0  0  0  0  0  0
    8.8211   -8.3901    0.0000 O   0  0  0  0  0  0  0  0  0  0  0  0
    8.8428   -5.9152    0.0000 O   0  0  0  0  0  0  0  0  0  0  0  0
    8.1248   -6.3214    0.0000 C   0  0  0  0  0  0  0  0  0  0  0  0
    7.4140   -5.9027    0.0000 C   0  0  0  0  0  0  0  0  0  0  0  0
    6.6959   -6.3089    0.0000 C   0  0  0  0  0  0  0  0  0  0  0  0
    6.6886   -7.1338    0.0000 C   0  0  0  0  0  0  0  0  0  0  0  0
    7.3994   -7.5526    0.0000 C   0  0  0  0  0  0  0  0  0  0  0  0
    8.1175   -7.1464    0.0000 C   0  0  0  0  0  0  0  0  0  0  0  0
    8.8283   -7.5652    0.0000 C   0  0  0  0  0  0  0  0  0  0  0  0
    9.5464   -7.1590    0.0000 C   0  0  0  0  0  0  0  0  0  0  0  0
    9.5537   -6.3340    0.0000 C   0  0  0  0  0  0  0  0  0  0  0  0
 54  8  1  0  0  0  0
  6  1  1  0  0  0  0
  5  2  1  0  0  0  0
  8  3  2  0  0  0  0
  4  3  1  0  0  0  0
  5  4  2  0  0  0  0
  6  5  1  0  0  0  0
  7  6  2  0  0  0  0
  8  7  1  0  0  0  0
 50  9  1  0  0  0  0
 48 21  1  0  0  0  0
 19 21  1  1  0  0  0
 18 10  1  6  0  0  0
 17 11  1  1  0  0  0
 16 12  1  6  0  0  0
 15 14  1  1  0  0  0
 14 13  1  0  0  0  0
 20 15  1  0  0  0  0
 16 15  1  0  0  0  0
 17 16  1  0  0  0  0
 18 17  1  0  0  0  0
 19 18  1  0  0  0  0
 20 19  1  0  0  0  0
 53 43  1  0  0  0  0
 41 43  1  1  0  0  0
 40 22  1  6  0  0  0
 39 23  1  1  0  0  0
 38 24  1  6  0  0  0
 37 36  1  1  0  0  0
 36 35  1  0  0  0  0
 33 35  1  1  0  0  0
 32 25  1  6  0  0  0
 31 26  1  6  0  0  0
 30 27  1  1  0  0  0
 29 28  1  6  0  0  0
 34 29  1  0  0  0  0
 30 29  1  0  0  0  0
 31 30  1  0  0  0  0
 32 31  1  0  0  0  0
 33 32  1  0  0  0  0
 34 33  1  0  0  0  0
 42 37  1  0  0  0  0
 38 37  1  0  0  0  0
 39 38  1  0  0  0  0
 40 39  1  0  0  0  0
 41 40  1  0  0  0  0
 42 41  1  0  0  0  0
 52 44  2  0  0  0  0
 54 45  1  0  0  0  0
 46 45  1  0  0  0  0
 51 46  2  0  0  0  0
 47 46  1  0  0  0  0
 48 47  2  0  0  0  0
 49 48  1  0  0  0  0
 50 49  2  0  0  0  0
 51 50  1  0  0  0  0
 52 51  1  0  0  0  0
 53 52  1  0  0  0  0
 54 53  2  0  0  0  0
M  END
>  <cdx:fragmentId>
42512

$$$$
