19089.cdx
  Mrv1902 05222410212D          

 10 10  0  0  0  0            999 V2000
    6.9998   -6.0334    0.0000 C   0  0  0  0  0  0  0  0  0  0  0  0
    7.7131   -6.4478    0.0000 C   0  0  0  0  0  0  0  0  0  0  0  0
    7.7109   -7.2728    0.0000 C   0  0  0  0  0  0  0  0  0  0  0  0
    6.9953   -7.6834    0.0000 C   0  0  0  0  0  0  0  0  0  0  0  0
    6.2820   -7.2690    0.0000 C   0  0  0  0  0  0  0  0  0  0  0  0
    6.2842   -6.4440    0.0000 C   0  0  0  0  0  0  0  0  0  0  0  0
    7.0020   -5.2084    0.0000 C   0  0  0  0  0  0  0  0  0  0  0  0
    7.7175   -4.7979    0.0000 C   0  0  0  0  0  0  0  0  0  0  0  0
    7.7198   -3.9729    0.0000 O   0  0  0  0  0  0  0  0  0  0  0  0
    8.4353   -3.5623    0.0000 C   0  0  0  0  0  0  0  0  0  0  0  0
  1  2  1  0  0  0  0
  2  3  2  0  0  0  0
  3  4  1  0  0  0  0
  4  5  2  0  0  0  0
  5  6  1  0  0  0  0
  1  6  2  0  0  0  0
  7  8  1  0  0  0  0
  9 10  1  0  0  0  0
  8  9  1  0  0  0  0
  1  7  1  0  0  0  0
M  END
>  <cdx:fragmentId>
5

$$$$
