191.cdx
  Mrv1902 05222410242D          

  9  8  0  0  0  0            999 V2000
    6.4881   -5.8479    0.0000 C   0  0  0  0  0  0  0  0  0  0  0  0
    7.2025   -5.4354    0.0000 C   0  0  0  0  0  0  0  0  0  0  0  0
    7.9170   -5.8479    0.0000 C   0  0  0  0  0  0  0  0  0  0  0  0
    7.9170   -6.6729    0.0000 C   0  0  2  0  0  0  0  0  0  0  0  0
    7.2025   -7.0854    0.0000 N   0  0  0  0  0  0  0  0  0  0  0  0
    7.2025   -4.6104    0.0000 C   0  0  0  0  0  0  0  0  0  0  0  0
    8.6315   -7.0854    0.0000 C   0  0  0  0  0  0  0  0  0  0  0  0
    9.3459   -6.6729    0.0000 O   0  0  0  0  0  0  0  0  0  0  0  0
    8.6315   -7.9104    0.0000 O   0  0  0  0  0  0  0  0  0  0  0  0
  1  2  1  0  0  0  0
  2  3  1  0  0  0  0
  3  4  1  0  0  0  0
  4  5  1  1  0  0  0
  2  6  1  0  0  0  0
  4  7  1  0  0  0  0
  7  8  1  0  0  0  0
  7  9  2  0  0  0  0
M  END
>  <cdx:fragmentId>
5

$$$$
