1915.cdx
  Mrv1902 05222410182D          

 27 28  0  0  0  0            999 V2000
    6.1083   -8.6419    0.0000 C   0  0  0  0  0  0  0  0  0  0  0  0
    6.1083   -9.4669    0.0000 C   0  0  0  0  0  0  0  0  0  0  0  0
    6.8227   -9.8794    0.0000 C   0  0  0  0  0  0  0  0  0  0  0  0
    7.5372   -9.4669    0.0000 C   0  0  0  0  0  0  0  0  0  0  0  0
    7.5372   -8.6419    0.0000 C   0  0  0  0  0  0  0  0  0  0  0  0
    6.8227   -8.2294    0.0000 C   0  0  0  0  0  0  0  0  0  0  0  0
    6.8227  -10.7044    0.0000 O   0  0  0  0  0  0  0  0  0  0  0  0
    5.3938   -9.8794    0.0000 O   0  0  0  0  0  0  0  0  0  0  0  0
    4.6793   -9.4669    0.0000 C   0  0  0  0  0  0  0  0  0  0  0  0
    6.8227   -7.4044    0.0000 C   0  0  0  0  0  0  0  0  0  0  0  0
    7.5372   -6.9919    0.0000 C   0  0  0  0  0  0  0  0  0  0  0  0
    7.5372   -6.1669    0.0000 C   0  0  0  0  0  0  0  0  0  0  0  0
    8.2517   -5.7544    0.0000 O   0  0  0  0  0  0  0  0  0  0  0  0
    8.2517   -4.9294    0.0000 C   0  0  0  0  0  0  0  0  0  0  0  0
    8.9662   -4.5169    0.0000 C   0  0  0  0  0  0  0  0  0  0  0  0
    6.8227   -5.7544    0.0000 O   0  0  0  0  0  0  0  0  0  0  0  0
    4.6852  -11.1169    0.0000 C   0  0  2  0  0  0  0  0  0  0  0  0
    4.6852  -11.9419    0.0000 C   0  0  2  0  0  0  0  0  0  0  0  0
    5.3996  -12.3544    0.0000 C   0  0  1  0  0  0  0  0  0  0  0  0
    6.1141  -11.9419    0.0000 C   0  0  2  0  0  0  0  0  0  0  0  0
    6.1141  -11.1169    0.0000 C   0  0  1  0  0  0  0  0  0  0  0  0
    5.3996  -10.7044    0.0000 O   0  0  0  0  0  0  0  0  0  0  0  0
    3.9707  -10.7044    0.0000 C   0  0  0  0  0  0  0  0  0  0  0  0
    5.3996  -13.1794    0.0000 O   0  0  0  0  0  0  0  0  0  0  0  0
    6.8286  -12.3544    0.0000 O   0  0  0  0  0  0  0  0  0  0  0  0
    3.9707  -12.3544    0.0000 O   0  0  0  0  0  0  0  0  0  0  0  0
    3.2562  -11.1169    0.0000 O   0  0  0  0  0  0  0  0  0  0  0  0
  1  2  2  0  0  0  0
  2  3  1  0  0  0  0
  3  4  2  0  0  0  0
  4  5  1  0  0  0  0
  5  6  2  0  0  0  0
  6  1  1  0  0  0  0
  3  7  1  0  0  0  0
  2  8  1  0  0  0  0
  8  9  1  0  0  0  0
  6 10  1  0  0  0  0
 10 11  2  0  0  0  0
 11 12  1  0  0  0  0
 12 13  1  0  0  0  0
 13 14  1  0  0  0  0
 14 15  1  0  0  0  0
 12 16  2  0  0  0  0
 17 18  1  0  0  0  0
 18 19  1  0  0  0  0
 19 20  1  0  0  0  0
 20 21  1  0  0  0  0
 21 22  1  0  0  0  0
 22 17  1  0  0  0  0
 17 23  1  1  0  0  0
 19 24  1  1  0  0  0
 20 25  1  6  0  0  0
 18 26  1  6  0  0  0
 23 27  1  0  0  0  0
 21  7  1  1  0  0  0
M  END
>  <cdx:fragmentId>
5

$$$$
