(E)-labda-12,14-dien-15(16)-olide-17-oic acid.cdx
  Mrv1902 05222410192D          

 25 27  0  0  0  0            999 V2000
    3.0970   -8.4150    0.0000 C   0  0  0  0  0  0  0  0  0  0  0  0
    3.0970   -9.2400    0.0000 C   0  0  0  0  0  0  0  0  0  0  0  0
    3.8115   -9.6525    0.0000 C   0  0  1  0  0  0  0  0  0  0  0  0
    4.5260   -9.2400    0.0000 C   0  0  1  0  0  0  0  0  0  0  0  0
    4.5260   -8.4150    0.0000 C   0  0  2  0  0  0  0  0  0  0  0  0
    3.8115   -8.0025    0.0000 C   0  0  0  0  0  0  0  0  0  0  0  0
    5.2404   -9.6525    0.0000 C   0  0  0  0  0  0  0  0  0  0  0  0
    5.9549   -9.2400    0.0000 C   0  0  0  0  0  0  0  0  0  0  0  0
    5.9549   -8.4150    0.0000 C   0  0  1  0  0  0  0  0  0  0  0  0
    5.2404   -8.0025    0.0000 C   0  0  2  0  0  0  0  0  0  0  0  0
    3.3990  -10.3670    0.0000 C   0  0  0  0  0  0  0  0  0  0  0  0
    4.5260   -7.5900    0.0000 C   0  0  0  0  0  0  0  0  0  0  0  0
    5.2404   -7.1775    0.0000 C   0  0  0  0  0  0  0  0  0  0  0  0
    6.6694   -8.0025    0.0000 C   0  0  0  0  0  0  0  0  0  0  0  0
    4.2240  -10.3670    0.0000 C   0  0  0  0  0  0  0  0  0  0  0  0
    4.5260  -10.0650    0.0000 H   0  0  0  0  0  0  0  0  0  0  0  0
    7.3839   -8.4150    0.0000 O   0  0  0  0  0  0  0  0  0  0  0  0
    6.6694   -7.1775    0.0000 O   0  0  0  0  0  0  0  0  0  0  0  0
    5.9549   -6.7650    0.0000 C   0  0  0  0  0  0  0  0  0  0  0  0
    5.9549   -5.9400    0.0000 C   0  0  0  0  0  0  0  0  0  0  0  0
    6.6224   -5.4551    0.0000 C   0  0  0  0  0  0  0  0  0  0  0  0
    6.3674   -4.6705    0.0000 O   0  0  0  0  0  0  0  0  0  0  0  0
    5.5424   -4.6705    0.0000 C   0  0  0  0  0  0  0  0  0  0  0  0
    5.2875   -5.4551    0.0000 C   0  0  0  0  0  0  0  0  0  0  0  0
    7.4192   -5.6686    0.0000 O   0  0  0  0  0  0  0  0  0  0  0  0
  1  2  1  0  0  0  0
  2  3  1  0  0  0  0
  3  4  1  0  0  0  0
  4  5  1  0  0  0  0
  5  6  1  0  0  0  0
  6  1  1  0  0  0  0
  4  7  1  0  0  0  0
  7  8  1  0  0  0  0
  8  9  1  0  0  0  0
  9 10  1  0  0  0  0
 10  5  1  0  0  0  0
  3 11  1  1  0  0  0
  5 12  1  1  0  0  0
 10 13  1  1  0  0  0
  9 14  1  1  0  0  0
  3 15  1  6  0  0  0
  4 16  1  6  0  0  0
 14 17  1  0  0  0  0
 14 18  2  0  0  0  0
 13 19  1  0  0  0  0
 19 20  2  0  0  0  0
 20 21  1  0  0  0  0
 21 22  1  0  0  0  0
 22 23  1  0  0  0  0
 23 24  2  0  0  0  0
 24 20  1  0  0  0  0
 21 25  2  0  0  0  0
M  END
>  <cdx:fragmentId>
5

$$$$
