19223.cdx
  Mrv1902 05222410272D          

 13 12  0  0  0  0            999 V2000
    4.7862   -4.3373    0.0000 C   0  0  0  0  0  0  0  0  0  0  0  0
    5.5006   -4.7498    0.0000 C   0  0  0  0  0  0  0  0  0  0  0  0
    6.2151   -4.3373    0.0000 C   0  0  0  0  0  0  0  0  0  0  0  0
    6.9296   -4.7498    0.0000 C   0  0  0  0  0  0  0  0  0  0  0  0
    7.6440   -4.3373    0.0000 C   0  0  0  0  0  0  0  0  0  0  0  0
    8.3585   -4.7498    0.0000 C   0  0  0  0  0  0  0  0  0  0  0  0
    9.0730   -4.3373    0.0000 C   0  0  0  0  0  0  0  0  0  0  0  0
    8.6605   -3.6228    0.0000 C   0  0  0  0  0  0  0  0  0  0  0  0
    4.0717   -4.7498    0.0000 O   0  0  0  0  0  0  0  0  0  0  0  0
    9.4855   -3.6228    0.0000 C   0  0  0  0  0  0  0  0  0  0  0  0
    6.2151   -3.5123    0.0000 C   0  0  0  0  0  0  0  0  0  0  0  0
    9.7875   -4.7498    0.0000 O   0  0  0  0  0  0  0  0  0  0  0  0
   10.5019   -4.3373    0.0000 C   0  0  0  0  0  0  0  0  0  0  0  0
  1  2  1  0  0  0  0
  2  3  1  0  0  0  0
  3  4  1  0  0  0  0
  4  5  1  0  0  0  0
  5  6  1  0  0  0  0
  6  7  1  0  0  0  0
  7  8  1  0  0  0  0
  1  9  2  0  0  0  0
  7 10  1  0  0  0  0
  3 11  1  0  0  0  0
 12 13  1  0  0  0  0
  7 12  1  0  0  0  0
M  END
>  <cdx:groupId>
40

>  <cdx:fragmentId>
5

$$$$
