192240.cdx
  Mrv1902 05222410192D          

 33 35  0  0  0  0            999 V2000
    5.7523   -7.9868    0.0000 O   0  0  0  0  0  0  0  0  0  0  0  0
    6.4688   -8.3958    0.0000 C   0  0  2  0  0  0  0  0  0  0  0  0
    6.4728   -9.2207    0.0000 C   0  0  1  0  0  0  0  0  0  0  0  0
    5.7604   -9.6368    0.0000 C   0  0  1  0  0  0  0  0  0  0  0  0
    5.0439   -9.2278    0.0000 C   0  0  2  0  0  0  0  0  0  0  0  0
    5.0398   -8.4028    0.0000 C   0  0  2  0  0  0  0  0  0  0  0  0
    7.1893   -9.6297    0.0000 O   0  0  0  0  0  0  0  0  0  0  0  0
    5.7644  -10.4617    0.0000 O   0  0  0  0  0  0  0  0  0  0  0  0
    4.3315   -9.6438    0.0000 O   0  0  0  0  0  0  0  0  0  0  0  0
    4.3234   -7.9938    0.0000 C   0  0  0  0  0  0  0  0  0  0  0  0
    7.1812   -7.9797    0.0000 O   0  0  0  0  0  0  0  0  0  0  0  0
    7.1690   -5.5048    0.0000 O   0  0  0  0  0  0  0  0  0  0  0  0
    7.8855   -5.9138    0.0000 C   0  0  2  0  0  0  0  0  0  0  0  0
    7.8896   -6.7388    0.0000 C   0  0  1  0  0  0  0  0  0  0  0  0
    7.1771   -7.1548    0.0000 C   0  0  2  0  0  0  0  0  0  0  0  0
    6.4607   -6.7458    0.0000 C   0  0  1  0  0  0  0  0  0  0  0  0
    6.4566   -5.9208    0.0000 C   0  0  1  0  0  0  0  0  0  0  0  0
    5.7401   -5.5118    0.0000 C   0  0  0  0  0  0  0  0  0  0  0  0
    5.0256   -5.9243    0.0000 O   0  0  0  0  0  0  0  0  0  0  0  0
    8.6061   -7.1477    0.0000 O   0  0  0  0  0  0  0  0  0  0  0  0
    5.7482   -7.1618    0.0000 O   0  0  0  0  0  0  0  0  0  0  0  0
   12.8814   -5.4640    0.0000 O   0  0  0  0  0  0  0  0  0  0  0  0
   12.8988   -7.1161    0.0000 O   0  0  0  0  0  0  0  0  0  0  0  0
   10.7495   -6.7247    0.0000 C   0  0  0  0  0  0  0  0  0  0  0  0
   11.4680   -7.1301    0.0000 C   0  0  0  0  0  0  0  0  0  0  0  0
   12.1804   -6.7106    0.0000 C   0  0  0  0  0  0  0  0  0  0  0  0
   12.1712   -5.8839    0.0000 C   0  0  0  0  0  0  0  0  0  0  0  0
   11.4527   -5.4785    0.0000 C   0  0  0  0  0  0  0  0  0  0  0  0
   10.7434   -5.8997    0.0000 C   0  0  0  0  0  0  0  0  0  0  0  0
   10.0269   -5.4907    0.0000 C   0  0  0  0  0  0  0  0  0  0  0  0
    9.3144   -5.9067    0.0000 C   0  0  0  0  0  0  0  0  0  0  0  0
    8.5980   -5.4978    0.0000 O   0  0  0  0  0  0  0  0  0  0  0  0
   13.6092   -6.6966    0.0000 C   0  0  0  0  0  0  0  0  0  0  0  0
 27 22  1  0  0  0  0
  1  2  1  0  0  0  0
  2  3  1  0  0  0  0
  3  4  1  0  0  0  0
  4  5  1  0  0  0  0
  5  6  1  0  0  0  0
  1  6  1  0  0  0  0
  3  7  1  6  0  0  0
  4  8  1  6  0  0  0
  5  9  1  1  0  0  0
  6 10  1  6  0  0  0
 12 13  1  0  0  0  0
 13 14  1  0  0  0  0
 14 15  1  0  0  0  0
 15 16  1  0  0  0  0
 16 17  1  0  0  0  0
 12 17  1  0  0  0  0
 18 19  1  0  0  0  0
 17 18  1  1  0  0  0
 14 20  1  6  0  0  0
 16 21  1  6  0  0  0
 26 23  1  0  0  0  0
 13 32  1  1  0  0  0
 15 11  1  1  0  0  0
  2 11  1  1  0  0  0
 24 29  1  0  0  0  0
 25 24  2  0  0  0  0
 26 25  1  0  0  0  0
 27 26  2  0  0  0  0
 28 27  1  0  0  0  0
 29 28  2  0  0  0  0
 30 29  1  0  0  0  0
 32 31  1  0  0  0  0
 31 30  1  0  0  0  0
 23 33  1  0  0  0  0
M  END
>  <cdx:fragmentId>
17668

$$$$
