192465.cdx
  Mrv1902 05222410282D          

 49 55  0  0  0  0            999 V2000
    4.6575  -11.6146    0.0000 O   0  0  0  0  0  0  0  0  0  0  0  0
    3.9534  -10.3711    0.0000 O   0  0  0  0  0  0  0  0  0  0  0  0
    3.9465  -11.1961    0.0000 C   0  0  2  0  0  0  0  0  0  0  0  0
    3.2286  -11.6026    0.0000 C   0  0  1  0  0  0  0  0  0  0  0  0
    2.5176  -11.1842    0.0000 C   0  0  2  0  0  0  0  0  0  0  0  0
    2.5245  -10.3592    0.0000 C   0  0  1  0  0  0  0  0  0  0  0  0
    3.2424   -9.9527    0.0000 C   0  0  1  0  0  0  0  0  0  0  0  0
    3.2493   -9.1277    0.0000 C   0  0  0  0  0  0  0  0  0  0  0  0
    2.5383   -8.7093    0.0000 O   0  0  0  0  0  0  0  0  0  0  0  0
    1.8135   -9.9408    0.0000 O   0  0  0  0  0  0  0  0  0  0  0  0
    1.7998  -11.5907    0.0000 O   0  0  0  0  0  0  0  0  0  0  0  0
    3.2218  -12.4276    0.0000 O   0  0  0  0  0  0  0  0  0  0  0  0
    7.5291  -10.8135    0.0000 H   0  0  0  0  0  0  0  0  0  0  0  0
    6.7974  -12.0450    0.0000 H   0  0  0  0  0  0  0  0  0  0  0  0
    8.9546  -10.8195    0.0000 H   0  0  0  0  0  0  0  0  0  0  0  0
    9.2703  -10.5745    0.0000 H   0  0  0  0  0  0  0  0  0  0  0  0
    9.4263   -7.8189    0.0000 H   0  0  0  0  0  0  0  0  0  0  0  0
    9.5875   -6.3990    0.0000 H   0  0  0  0  0  0  0  0  0  0  0  0
    9.4315   -9.1547    0.0000 H   0  0  0  0  0  0  0  0  0  0  0  0
    8.1160   -8.3891    0.0000 H   0  0  0  0  0  0  0  0  0  0  0  0
    9.0122   -4.8442    0.0000 C   0  0  0  0  0  0  0  0  0  0  0  0
   11.1490   -7.9631    0.0000 C   0  0  0  0  0  0  0  0  0  0  0  0
    6.8112   -9.5700    0.0000 C   0  0  0  0  0  0  0  0  0  0  0  0
    7.5084  -12.4634    0.0000 O   0  0  0  0  0  0  0  0  0  0  0  0
    7.7074   -9.1830    0.0000 C   0  0  0  0  0  0  0  0  0  0  0  0
    7.5291   -9.9885    0.0000 C   0  0  2  0  0  0  0  0  0  0  0  0
    6.8112  -10.3950    0.0000 C   0  0  2  0  0  0  0  0  0  0  0  0
    6.1002   -9.9766    0.0000 C   0  0  0  0  0  0  0  0  0  0  0  0
    5.3823  -10.3831    0.0000 C   0  0  0  0  0  0  0  0  0  0  0  0
    5.3754  -11.2081    0.0000 C   0  0  1  0  0  0  0  0  0  0  0  0
    6.0864  -11.6265    0.0000 C   0  0  0  0  0  0  0  0  0  0  0  0
    6.8043  -11.2200    0.0000 C   0  0  2  0  0  0  0  0  0  0  0  0
    7.5153  -11.6384    0.0000 C   0  0  0  0  0  0  0  0  0  0  0  0
    8.2332  -11.2319    0.0000 C   0  0  0  0  0  0  0  0  0  0  0  0
    8.2401  -10.4070    0.0000 C   0  0  1  0  0  0  0  0  0  0  0  0
    8.8578   -9.8601    0.0000 C   0  0  2  0  0  0  0  0  0  0  0  0
    9.6775   -9.9532    0.0000 C   0  0  0  0  0  0  0  0  0  0  0  0
   10.1680   -9.2898    0.0000 C   0  0  0  0  0  0  0  0  0  0  0  0
    9.8388   -8.5333    0.0000 C   0  0  1  0  0  0  0  0  0  0  0  0
   10.3292   -7.8700    0.0000 C   0  0  2  0  0  0  0  0  0  0  0  0
   10.0000   -7.1135    0.0000 C   0  0  2  0  0  0  0  0  0  0  0  0
   10.4905   -6.4502    0.0000 C   0  0  0  0  0  0  0  0  0  0  0  0
   10.1612   -5.6937    0.0000 C   0  0  0  0  0  0  0  0  0  0  0  0
    9.3415   -5.6006    0.0000 C   0  0  1  0  0  0  0  0  0  0  0  0
    8.8510   -6.2640    0.0000 C   0  0  0  0  0  0  0  0  0  0  0  0
    9.1803   -7.0204    0.0000 N   0  0  0  0  0  0  0  0  0  0  0  0
    8.6898   -7.6838    0.0000 C   0  0  0  0  0  0  0  0  0  0  0  0
    9.0190   -8.4403    0.0000 C   0  0  1  0  0  0  0  0  0  0  0  0
    8.5285   -9.1036    0.0000 C   0  0  2  0  0  0  0  0  0  0  0  0
 26 13  1  6  0  0  0
 32 14  1  6  0  0  0
 35 15  1  1  0  0  0
 36 16  1  6  0  0  0
 39 17  1  1  0  0  0
 41 18  1  6  0  0  0
 48 19  1  1  0  0  0
 49 20  1  6  0  0  0
 44 21  1  1  0  0  0
 40 22  1  6  0  0  0
 27 23  1  1  0  0  0
 30  1  1  1  0  0  0
 33 24  2  0  0  0  0
 46 41  1  0  0  0  0
 48 39  1  0  0  0  0
 32 27  1  0  0  0  0
 35 26  1  0  0  0  0
 49 36  1  0  0  0  0
 49 25  1  0  0  0  0
 26 25  1  0  0  0  0
 27 26  1  0  0  0  0
 28 27  1  0  0  0  0
 29 28  1  0  0  0  0
 30 29  1  0  0  0  0
 31 30  1  0  0  0  0
 32 31  1  0  0  0  0
 33 32  1  0  0  0  0
 34 33  1  0  0  0  0
 35 34  1  0  0  0  0
 36 35  1  0  0  0  0
 37 36  1  0  0  0  0
 38 37  1  0  0  0  0
 39 38  1  0  0  0  0
 40 39  1  0  0  0  0
 41 40  1  0  0  0  0
 42 41  1  0  0  0  0
 43 42  1  0  0  0  0
 44 43  1  0  0  0  0
 45 44  1  0  0  0  0
 46 45  1  0  0  0  0
 47 46  1  0  0  0  0
 48 47  1  0  0  0  0
 49 48  1  0  0  0  0
  2  3  1  0  0  0  0
  3  4  1  0  0  0  0
  4  5  1  0  0  0  0
  5  6  1  0  0  0  0
  6  7  1  0  0  0  0
  2  7  1  0  0  0  0
  8  9  1  0  0  0  0
  7  8  1  1  0  0  0
  6 10  1  6  0  0  0
  5 11  1  1  0  0  0
  4 12  1  6  0  0  0
  3  1  1  1  0  0  0
M  END
>  <cdx:fragmentId>
17812

$$$$
