192590.cdx
  Mrv1902 05222410222D          

 28 30  0  0  0  0            999 V2000
    8.1530   -7.0850    0.0000 C   0  0  0  0  0  0  0  0  0  0  0  0
    8.1534   -7.9100    0.0000 C   0  0  0  0  0  0  0  0  0  0  0  0
    8.8680   -8.3222    0.0000 C   0  0  1  0  0  0  0  0  0  0  0  0
    9.5823   -7.9094    0.0000 C   0  0  0  0  0  0  0  0  0  0  0  0
    9.5820   -7.0844    0.0000 C   0  0  2  0  0  0  0  0  0  0  0  0
    8.8673   -6.6722    0.0000 O   0  0  0  0  0  0  0  0  0  0  0  0
    7.4391   -8.3228    0.0000 C   0  0  0  0  0  0  0  0  0  0  0  0
    8.8684   -9.1472    0.0000 C   0  0  2  0  0  0  0  0  0  0  0  0
    8.1541   -9.5600    0.0000 C   0  0  1  0  0  0  0  0  0  0  0  0
    7.4394   -9.1478    0.0000 O   0  0  0  0  0  0  0  0  0  0  0  0
    7.4384   -6.6728    0.0000 O   0  0  0  0  0  0  0  0  0  0  0  0
   10.2963   -6.6716    0.0000 O   0  0  0  0  0  0  0  0  0  0  0  0
   10.2959   -5.8466    0.0000 C   0  0  0  0  0  0  0  0  0  0  0  0
    9.5830   -9.5594    0.0000 C   0  0  0  0  0  0  0  0  0  0  0  0
    9.5834  -10.3844    0.0000 C   0  0  0  0  0  0  0  0  0  0  0  0
    9.5827   -8.7344    0.0000 H   0  0  0  0  0  0  0  0  0  0  0  0
    8.1410  -12.0350    0.0000 O   0  0  0  0  0  0  0  0  0  0  0  0
    6.7053  -12.8483    0.0000 O   0  0  0  0  0  0  0  0  0  0  0  0
    5.2832  -12.0117    0.0000 O   0  0  0  0  0  0  0  0  0  0  0  0
    4.5788  -10.7684    0.0000 O   0  0  0  0  0  0  0  0  0  0  0  0
    5.2966  -10.3617    0.0000 C   0  0  0  0  0  0  0  0  0  0  0  0
    6.0077  -10.7800    0.0000 C   0  0  2  0  0  0  0  0  0  0  0  0
    6.0010  -11.6050    0.0000 C   0  0  2  0  0  0  0  0  0  0  0  0
    6.7121  -12.0233    0.0000 C   0  0  1  0  0  0  0  0  0  0  0  0
    7.4299  -11.6167    0.0000 C   0  0  2  0  0  0  0  0  0  0  0  0
    7.4366  -10.7917    0.0000 C   0  0  1  0  0  0  0  0  0  0  0  0
    6.7255  -10.3734    0.0000 O   0  0  0  0  0  0  0  0  0  0  0  0
    8.1544  -10.3850    0.0000 O   0  0  0  0  0  0  0  0  0  0  0  0
 26 28  1  1  0  0  0
 25 17  1  6  0  0  0
 24 18  1  1  0  0  0
 23 19  1  6  0  0  0
 22 21  1  1  0  0  0
 21 20  1  0  0  0  0
 27 22  1  0  0  0  0
 23 22  1  0  0  0  0
 24 23  1  0  0  0  0
 25 24  1  0  0  0  0
 26 25  1  0  0  0  0
 27 26  1  0  0  0  0
  1  2  1  0  0  0  0
  2  3  1  0  0  0  0
  3  4  1  0  0  0  0
  4  5  1  0  0  0  0
  5  6  1  0  0  0  0
  1  6  1  0  0  0  0
  8  9  1  0  0  0  0
  9 10  1  0  0  0  0
  7 10  1  0  0  0  0
  7  2  2  0  0  0  0
  8  3  1  0  0  0  0
  1 11  2  0  0  0  0
  9 28  1  6  0  0  0
 12 13  1  0  0  0  0
  5 12  1  6  0  0  0
 14 15  2  0  0  0  0
  8 14  1  1  0  0  0
  3 16  1  6  0  0  0
M  END
>  <cdx:fragmentId>
104107

$$$$
