19255.cdx
  Mrv1902 05222410242D          

 34 33  0  0  0  0            999 V2000
    2.2214   -8.6839    0.0000 O   0  0  0  0  0  0  0  0  0  0  0  0
    2.9359   -7.4464    0.0000 O   0  0  0  0  0  0  0  0  0  0  0  0
   25.0845   -8.6839    0.0000 C   0  0  0  0  0  0  0  0  0  0  0  0
   24.3700   -8.2714    0.0000 C   0  0  0  0  0  0  0  0  0  0  0  0
   23.6556   -8.6839    0.0000 C   0  0  0  0  0  0  0  0  0  0  0  0
   22.9411   -8.2714    0.0000 C   0  0  0  0  0  0  0  0  0  0  0  0
   22.2266   -8.6839    0.0000 C   0  0  0  0  0  0  0  0  0  0  0  0
   21.5122   -8.2714    0.0000 C   0  0  0  0  0  0  0  0  0  0  0  0
   20.7977   -8.6839    0.0000 C   0  0  0  0  0  0  0  0  0  0  0  0
   20.0832   -8.2714    0.0000 C   0  0  0  0  0  0  0  0  0  0  0  0
   19.3687   -8.6839    0.0000 C   0  0  0  0  0  0  0  0  0  0  0  0
   18.6543   -8.2714    0.0000 C   0  0  0  0  0  0  0  0  0  0  0  0
   17.9398   -8.6839    0.0000 C   0  0  0  0  0  0  0  0  0  0  0  0
   17.2253   -8.2714    0.0000 C   0  0  0  0  0  0  0  0  0  0  0  0
   16.5109   -8.6839    0.0000 C   0  0  0  0  0  0  0  0  0  0  0  0
   15.7964   -8.2714    0.0000 C   0  0  0  0  0  0  0  0  0  0  0  0
   15.0819   -8.6839    0.0000 C   0  0  0  0  0  0  0  0  0  0  0  0
   14.3674   -8.2714    0.0000 C   0  0  0  0  0  0  0  0  0  0  0  0
   13.6530   -8.6839    0.0000 C   0  0  0  0  0  0  0  0  0  0  0  0
   12.9385   -8.2714    0.0000 C   0  0  0  0  0  0  0  0  0  0  0  0
   12.2240   -8.6839    0.0000 C   0  0  0  0  0  0  0  0  0  0  0  0
   11.5096   -8.2714    0.0000 C   0  0  0  0  0  0  0  0  0  0  0  0
   10.7951   -8.6839    0.0000 C   0  0  0  0  0  0  0  0  0  0  0  0
   10.0806   -8.2714    0.0000 C   0  0  0  0  0  0  0  0  0  0  0  0
    9.3661   -8.6839    0.0000 C   0  0  0  0  0  0  0  0  0  0  0  0
    8.6517   -8.2714    0.0000 C   0  0  0  0  0  0  0  0  0  0  0  0
    7.9372   -8.6839    0.0000 C   0  0  0  0  0  0  0  0  0  0  0  0
    7.2227   -8.2714    0.0000 C   0  0  0  0  0  0  0  0  0  0  0  0
    6.5083   -8.6839    0.0000 C   0  0  0  0  0  0  0  0  0  0  0  0
    5.7938   -8.2714    0.0000 C   0  0  0  0  0  0  0  0  0  0  0  0
    5.0793   -8.6839    0.0000 C   0  0  0  0  0  0  0  0  0  0  0  0
    4.3649   -8.2714    0.0000 C   0  0  0  0  0  0  0  0  0  0  0  0
    3.6504   -8.6839    0.0000 C   0  0  0  0  0  0  0  0  0  0  0  0
    2.9359   -8.2714    0.0000 C   0  0  0  0  0  0  0  0  0  0  0  0
 34  1  1  0  0  0  0
 34  2  2  0  0  0  0
  4  3  1  0  0  0  0
  5  4  1  0  0  0  0
  6  5  1  0  0  0  0
  7  6  1  0  0  0  0
  8  7  1  0  0  0  0
  9  8  1  0  0  0  0
 10  9  1  0  0  0  0
 11 10  1  0  0  0  0
 12 11  1  0  0  0  0
 13 12  1  0  0  0  0
 14 13  1  0  0  0  0
 15 14  1  0  0  0  0
 16 15  1  0  0  0  0
 17 16  1  0  0  0  0
 18 17  1  0  0  0  0
 19 18  1  0  0  0  0
 20 19  1  0  0  0  0
 21 20  1  0  0  0  0
 22 21  1  0  0  0  0
 23 22  1  0  0  0  0
 24 23  1  0  0  0  0
 25 24  1  0  0  0  0
 26 25  1  0  0  0  0
 27 26  1  0  0  0  0
 28 27  1  0  0  0  0
 29 28  1  0  0  0  0
 30 29  1  0  0  0  0
 31 30  1  0  0  0  0
 32 31  1  0  0  0  0
 33 32  1  0  0  0  0
 34 33  1  0  0  0  0
M  END
>  <cdx:fragmentId>
5

$$$$
