1926.cdx
  Mrv1902 05222410272D          

 12 13  0  0  0  0            999 V2000
    5.5958   -8.6921    0.0000 C   0  0  0  0  0  0  0  0  0  0  0  0
    6.3925   -8.4780    0.0000 C   0  0  0  0  0  0  0  0  0  0  0  0
    7.1892   -8.6921    0.0000 C   0  0  0  0  0  0  0  0  0  0  0  0
    7.6029   -7.9784    0.0000 C   0  0  0  0  0  0  0  0  0  0  0  0
    6.0094   -7.9784    0.0000 C   0  0  0  0  0  0  0  0  0  0  0  0
    6.8062   -7.7643    0.0000 C   0  0  0  0  0  0  0  0  0  0  0  0
    6.3940   -7.0505    0.0000 C   0  0  0  0  0  0  0  0  0  0  0  0
    8.1863   -7.3950    0.0000 C   0  0  0  0  0  0  0  0  0  0  0  0
    8.3998   -8.1919    0.0000 C   0  0  0  0  0  0  0  0  0  0  0  0
    7.9861   -8.9056    0.0000 C   0  0  0  0  0  0  0  0  0  0  0  0
    8.1997   -9.7025    0.0000 C   0  0  0  0  0  0  0  0  0  0  0  0
    8.9966   -9.9160    0.0000 O   0  0  0  0  0  0  0  0  0  0  0  0
  1  2  1  0  0  0  0
  2  3  1  0  0  0  0
  3  4  1  0  0  0  0
  1  5  1  0  0  0  0
  5  6  1  0  0  0  0
  4  6  1  0  0  0  0
  6  7  1  0  0  0  0
  2  7  1  0  0  0  0
  4  8  1  0  0  0  0
  4  9  1  0  0  0  0
  3 10  2  0  0  0  0
 10 11  1  0  0  0  0
 11 12  1  0  0  0  0
M  END
>  <cdx:groupId>
799

>  <cdx:fragmentId>
800

$$$$
