192762.cdx
  Mrv1902 05222410242D          

 11 10  0  0  0  0            999 V2000
   17.2979  -13.8880    0.0000 C   0  0  0  0  0  0  0  0  0  0  0  0
   16.5834  -15.1255    0.0000 N   0  0  0  0  0  0  0  0  0  0  0  0
   16.5834  -14.3005    0.0000 C   0  0  1  0  0  0  0  0  0  0  0  0
   15.8689  -13.8880    0.0000 C   0  0  0  0  0  0  0  0  0  0  0  0
   15.1545  -14.3005    0.0000 S   0  0  0  0  0  0  0  0  0  0  0  0
   17.2979  -13.0630    0.0000 O   0  0  0  0  0  0  0  0  0  0  0  0
   18.0123  -14.3005    0.0000 O   0  0  0  0  0  0  0  0  0  0  0  0
   14.4400  -13.8880    0.0000 S   0  0  0  0  0  0  0  0  0  0  0  0
   13.7255  -14.3005    0.0000 C   0  0  0  0  0  0  0  0  0  0  0  0
   13.0111  -13.8880    0.0000 C   0  0  0  0  0  0  0  0  0  0  0  0
   12.2966  -14.3005    0.0000 C   0  0  0  0  0  0  0  0  0  0  0  0
  3  2  1  1  0  0  0
  1  3  1  0  0  0  0
  3  4  1  0  0  0  0
  4  5  1  0  0  0  0
  1  6  2  0  0  0  0
  1  7  1  0  0  0  0
  9 10  1  0  0  0  0
 10 11  1  0  0  0  0
  8  9  1  0  0  0  0
  5  8  1  0  0  0  0
M  END
>  <cdx:groupId>
18220

>  <cdx:fragmentId>
18191

$$$$
