1927.cdx
  Mrv1902 05222410272D          

 12 12  0  0  0  0            999 V2000
    3.3033   -7.0537    0.0000 C   0  0  0  0  0  0  0  0  0  0  0  0
    3.3033   -7.8788    0.0000 C   0  0  0  0  0  0  0  0  0  0  0  0
    4.0177   -8.2912    0.0000 C   0  0  0  0  0  0  0  0  0  0  0  0
    4.7322   -7.8788    0.0000 C   0  0  0  0  0  0  0  0  0  0  0  0
    4.7322   -7.0537    0.0000 C   0  0  0  0  0  0  0  0  0  0  0  0
    4.0177   -6.6413    0.0000 C   0  0  0  0  0  0  0  0  0  0  0  0
    2.5888   -8.2912    0.0000 O   0  0  0  0  0  0  0  0  0  0  0  0
    5.4467   -6.6413    0.0000 C   0  0  0  0  0  0  0  0  0  0  0  0
    6.1612   -7.0537    0.0000 C   0  0  0  0  0  0  0  0  0  0  0  0
    6.8756   -6.6413    0.0000 C   0  0  0  0  0  0  0  0  0  0  0  0
    7.5901   -7.0537    0.0000 O   0  0  0  0  0  0  0  0  0  0  0  0
    8.3046   -6.6413    0.0000 C   0  0  0  0  0  0  0  0  0  0  0  0
  1  2  2  0  0  0  0
  2  3  1  0  0  0  0
  3  4  2  0  0  0  0
  4  5  1  0  0  0  0
  5  6  2  0  0  0  0
  6  1  1  0  0  0  0
  2  7  1  0  0  0  0
  5  8  1  0  0  0  0
  8  9  2  0  0  0  0
  9 10  1  0  0  0  0
 10 11  1  0  0  0  0
 11 12  1  0  0  0  0
M  END
>  <cdx:fragmentId>
5

$$$$
