19284.cdx
  Mrv1902 05222410252D          

 26 26  0  0  0  0            999 V2000
    3.1705   -4.1946    0.0000 C   0  0  0  0  0  0  0  0  0  0  0  0
    3.1705   -3.3696    0.0000 C   0  0  0  0  0  0  0  0  0  0  0  0
    2.4561   -2.9571    0.0000 C   0  0  0  0  0  0  0  0  0  0  0  0
    1.7416   -3.3696    0.0000 C   0  0  0  0  0  0  0  0  0  0  0  0
    1.7416   -4.1946    0.0000 C   0  0  0  0  0  0  0  0  0  0  0  0
    2.4561   -4.6071    0.0000 C   0  0  0  0  0  0  0  0  0  0  0  0
    3.8850   -4.6071    0.0000 C   0  0  0  0  0  0  0  0  0  0  0  0
    3.8850   -5.4321    0.0000 O   0  0  0  0  0  0  0  0  0  0  0  0
    4.5995   -4.1946    0.0000 O   0  0  0  0  0  0  0  0  0  0  0  0
    3.8850   -2.9571    0.0000 C   0  0  0  0  0  0  0  0  0  0  0  0
    3.8850   -2.1321    0.0000 O   0  0  0  0  0  0  0  0  0  0  0  0
    4.5995   -3.3696    0.0000 O   0  0  0  0  0  0  0  0  0  0  0  0
    5.3140   -4.6071    0.0000 C   0  0  0  0  0  0  0  0  0  0  0  0
    6.0284   -4.1946    0.0000 C   0  0  0  0  0  0  0  0  0  0  0  0
    6.7429   -4.6071    0.0000 C   0  0  0  0  0  0  0  0  0  0  0  0
    7.4574   -4.1946    0.0000 C   0  0  0  0  0  0  0  0  0  0  0  0
    8.1718   -4.6071    0.0000 C   0  0  0  0  0  0  0  0  0  0  0  0
    8.8863   -4.1946    0.0000 C   0  0  0  0  0  0  0  0  0  0  0  0
    9.6008   -4.6071    0.0000 C   0  0  0  0  0  0  0  0  0  0  0  0
    5.3140   -2.9571    0.0000 C   0  0  0  0  0  0  0  0  0  0  0  0
    6.0284   -3.3696    0.0000 C   0  0  0  0  0  0  0  0  0  0  0  0
    6.7429   -2.9571    0.0000 C   0  0  0  0  0  0  0  0  0  0  0  0
    7.4574   -3.3696    0.0000 C   0  0  0  0  0  0  0  0  0  0  0  0
    8.1718   -2.9571    0.0000 C   0  0  0  0  0  0  0  0  0  0  0  0
    8.8863   -3.3696    0.0000 C   0  0  0  0  0  0  0  0  0  0  0  0
    9.6008   -2.9571    0.0000 C   0  0  0  0  0  0  0  0  0  0  0  0
  1  2  1  0  0  0  0
  2  3  2  0  0  0  0
  3  4  1  0  0  0  0
  4  5  2  0  0  0  0
  5  6  1  0  0  0  0
  1  6  2  0  0  0  0
  7  8  2  0  0  0  0
  7  9  1  0  0  0  0
  1  7  1  0  0  0  0
 10 11  2  0  0  0  0
 10 12  1  0  0  0  0
  2 10  1  0  0  0  0
 13 14  1  0  0  0  0
 14 15  1  0  0  0  0
 15 16  1  0  0  0  0
 16 17  1  0  0  0  0
 17 18  1  0  0  0  0
 18 19  1  0  0  0  0
  9 13  1  0  0  0  0
 20 21  1  0  0  0  0
 21 22  1  0  0  0  0
 22 23  1  0  0  0  0
 23 24  1  0  0  0  0
 24 25  1  0  0  0  0
 25 26  1  0  0  0  0
 12 20  1  0  0  0  0
M  END
>  <cdx:groupId>
80

>  <cdx:fragmentId>
5

$$$$
