193.cdx
  Mrv1902 05222410232D          

  8  8  0  0  0  0            999 V2000
    6.1793   -9.4269    0.0000 C   0  0  0  0  0  0  0  0  0  0  0  0
    5.7644  -10.1400    0.0000 C   0  0  0  0  0  0  0  0  0  0  0  0
    6.3143  -10.7550    0.0000 N   0  0  0  0  0  0  0  0  0  0  0  0
    7.0691  -10.4220    0.0000 C   0  0  1  0  0  0  0  0  0  0  0  0
    6.9857   -9.6013    0.0000 C   0  0  0  0  0  0  0  0  0  0  0  0
    7.7822  -10.8370    0.0000 C   0  0  0  0  0  0  0  0  0  0  0  0
    8.4980  -10.4270    0.0000 O   0  0  0  0  0  0  0  0  0  0  0  0
    7.7793  -11.6620    0.0000 O   0  0  0  0  0  0  0  0  0  0  0  0
  1  2  1  0  0  0  0
  2  3  1  0  0  0  0
  3  4  1  0  0  0  0
  4  5  1  0  0  0  0
  5  1  1  0  0  0  0
  4  6  1  1  0  0  0
  6  7  1  0  0  0  0
  6  8  2  0  0  0  0
M  END
>  <cdx:fragmentId>
5

$$$$
