1930.cdx
  Mrv1902 05222410282D          

 20 19  0  0  0  0            999 V2000
    2.1409   -6.7174    0.0000 N   0  0  0  0  0  0  0  0  0  0  0  0
    2.8553   -6.3049    0.0000 C   0  0  0  0  0  0  0  0  0  0  0  0
    3.5698   -6.7174    0.0000 C   0  0  0  0  0  0  0  0  0  0  0  0
    4.2843   -6.3049    0.0000 C   0  0  0  0  0  0  0  0  0  0  0  0
    4.9988   -6.7174    0.0000 C   0  0  0  0  0  0  0  0  0  0  0  0
    5.7132   -6.3049    0.0000 C   0  0  0  0  0  0  0  0  0  0  0  0
    6.4277   -6.7174    0.0000 C   0  0  0  0  0  0  0  0  0  0  0  0
    7.1422   -6.3049    0.0000 C   0  0  0  0  0  0  0  0  0  0  0  0
    7.8566   -6.7174    0.0000 C   0  0  0  0  0  0  0  0  0  0  0  0
    8.5711   -6.3049    0.0000 C   0  0  0  0  0  0  0  0  0  0  0  0
    9.2856   -6.7174    0.0000 C   0  0  0  0  0  0  0  0  0  0  0  0
    9.2856   -7.5424    0.0000 C   0  0  0  0  0  0  0  0  0  0  0  0
   10.0001   -7.9549    0.0000 C   0  0  0  0  0  0  0  0  0  0  0  0
   10.0001   -8.7799    0.0000 C   0  0  0  0  0  0  0  0  0  0  0  0
   10.7145   -9.1924    0.0000 C   0  0  0  0  0  0  0  0  0  0  0  0
   10.7145  -10.0174    0.0000 C   0  0  0  0  0  0  0  0  0  0  0  0
   11.4290  -10.4299    0.0000 C   0  0  0  0  0  0  0  0  0  0  0  0
   11.4290  -11.2549    0.0000 C   0  0  0  0  0  0  0  0  0  0  0  0
   12.1435  -11.6674    0.0000 C   0  0  0  0  0  0  0  0  0  0  0  0
    2.8553   -5.4799    0.0000 O   0  0  0  0  0  0  0  0  0  0  0  0
  1  2  1  0  0  0  0
  2  3  1  0  0  0  0
  3  4  1  0  0  0  0
  4  5  1  0  0  0  0
  5  6  1  0  0  0  0
  6  7  1  0  0  0  0
  7  8  1  0  0  0  0
  8  9  1  0  0  0  0
  9 10  1  0  0  0  0
 10 11  2  0  0  0  0
 11 12  1  0  0  0  0
 12 13  1  0  0  0  0
 13 14  1  0  0  0  0
 14 15  1  0  0  0  0
 15 16  1  0  0  0  0
 16 17  1  0  0  0  0
 17 18  1  0  0  0  0
 18 19  1  0  0  0  0
  2 20  2  0  0  0  0
M  END
>  <cdx:fragmentId>
3

$$$$
