19309.cdx
  Mrv1902 05222410242D          

  9  9  0  0  0  0            999 V2000
    3.2070   -3.9278    0.0000 O   0  0  0  0  0  0  0  0  0  0  0  0
    2.9520   -3.1432    0.0000 C   0  0  0  0  0  0  0  0  0  0  0  0
    3.6195   -2.6583    0.0000 C   0  0  0  0  0  0  0  0  0  0  0  0
    4.2869   -3.1432    0.0000 C   0  0  0  0  0  0  0  0  0  0  0  0
    4.0320   -3.9278    0.0000 C   0  0  0  0  0  0  0  0  0  0  0  0
    3.6195   -1.8333    0.0000 O   0  0  0  0  0  0  0  0  0  0  0  0
    5.0715   -2.8883    0.0000 O   0  0  0  0  0  0  0  0  0  0  0  0
    4.5169   -4.5953    0.0000 C   0  0  0  0  0  0  0  0  0  0  0  0
    2.1674   -2.8883    0.0000 C   0  0  0  0  0  0  0  0  0  0  0  0
  1  2  1  0  0  0  0
  2  3  1  0  0  0  0
  3  4  1  0  0  0  0
  4  5  2  0  0  0  0
  1  5  1  0  0  0  0
  3  6  2  0  0  0  0
  4  7  1  0  0  0  0
  5  8  1  0  0  0  0
  2  9  1  0  0  0  0
M  END
>  <cdx:groupId>
29

>  <cdx:fragmentId>
5

$$$$
