193195.cdx
  Mrv1902 05222410272D          

 23 25  0  0  0  0            999 V2000
   10.6282   -8.0406    0.0000 C   0  0  0  0  0  0  0  0  0  0  0  0
   10.6282   -7.2156    0.0000 C   0  0  0  0  0  0  0  0  0  0  0  0
    9.9138   -6.8031    0.0000 C   0  0  0  0  0  0  0  0  0  0  0  0
    9.1993   -7.2156    0.0000 C   0  0  0  0  0  0  0  0  0  0  0  0
    9.1993   -8.0406    0.0000 C   0  0  0  0  0  0  0  0  0  0  0  0
    9.9138   -8.4531    0.0000 C   0  0  0  0  0  0  0  0  0  0  0  0
   11.3427   -8.4531    0.0000 O   0  0  0  0  0  0  0  0  0  0  0  0
    8.4848   -6.8031    0.0000 C   0  0  0  0  0  0  0  0  0  0  0  0
    7.7703   -7.2156    0.0000 C   0  0  0  0  0  0  0  0  0  0  0  0
    7.0559   -6.8031    0.0000 C   0  0  0  0  0  0  0  0  0  0  0  0
    6.3414   -7.2156    0.0000 C   0  0  0  0  0  0  0  0  0  0  0  0
    6.3414   -8.0406    0.0000 C   0  0  0  0  0  0  0  0  0  0  0  0
    7.0559   -8.4531    0.0000 C   0  0  0  0  0  0  0  0  0  0  0  0
    7.7703   -8.0406    0.0000 C   0  0  0  0  0  0  0  0  0  0  0  0
    5.6269   -8.4531    0.0000 O   0  0  0  0  0  0  0  0  0  0  0  0
    5.6269   -6.8031    0.0000 C   0  0  0  0  0  0  0  0  0  0  0  0
    4.9125   -7.2156    0.0000 C   0  0  0  0  0  0  0  0  0  0  0  0
    4.1980   -6.8031    0.0000 C   0  0  0  0  0  0  0  0  0  0  0  0
    3.4835   -7.2156    0.0000 C   0  0  0  0  0  0  0  0  0  0  0  0
    3.4835   -8.0406    0.0000 C   0  0  0  0  0  0  0  0  0  0  0  0
    4.1980   -8.4531    0.0000 C   0  0  0  0  0  0  0  0  0  0  0  0
    4.9125   -8.0406    0.0000 C   0  0  0  0  0  0  0  0  0  0  0  0
    2.7690   -8.4531    0.0000 O   0  0  0  0  0  0  0  0  0  0  0  0
  1  2  1  0  0  0  0
  2  3  2  0  0  0  0
  3  4  1  0  0  0  0
  4  5  2  0  0  0  0
  5  6  1  0  0  0  0
  1  6  2  0  0  0  0
  1  7  1  0  0  0  0
  8  9  1  0  0  0  0
  9 10  1  0  0  0  0
 10 11  2  0  0  0  0
 11 12  1  0  0  0  0
 12 13  2  0  0  0  0
 13 14  1  0  0  0  0
  9 14  2  0  0  0  0
 12 15  1  0  0  0  0
  4  8  1  0  0  0  0
 11 16  1  0  0  0  0
 16 17  1  0  0  0  0
 17 18  2  0  0  0  0
 18 19  1  0  0  0  0
 19 20  2  0  0  0  0
 20 21  1  0  0  0  0
 21 22  2  0  0  0  0
 22 17  1  0  0  0  0
 20 23  1  0  0  0  0
M  END
>  <cdx:fragmentId>
18322

$$$$
