19310.cdx
  Mrv1902 05222410222D          

  5  4  0  0  0  0            999 V2000
    5.8608   -3.5346    0.0000 S   0  0  0  0  0  0  0  0  0  0  0  0
    6.5752   -3.9471    0.0000 S   0  0  0  0  0  0  0  0  0  0  0  0
    7.2897   -3.5346    0.0000 S   0  0  0  0  0  0  0  0  0  0  0  0
    5.1463   -3.9471    0.0000 C   0  0  0  0  0  0  0  0  0  0  0  0
    8.0042   -3.9471    0.0000 C   0  0  0  0  0  0  0  0  0  0  0  0
  1  2  1  0  0  0  0
  2  3  1  0  0  0  0
  1  4  1  0  0  0  0
  3  5  1  0  0  0  0
M  END
>  <cdx:groupId>
16

>  <cdx:fragmentId>
5

$$$$
