1933.cdx
  Mrv1902 05222410272D          

 17 18  0  0  0  0            999 V2000
    7.9069   -8.6998    0.0000 C   0  0  2  0  0  0  0  0  0  0  0  0
    7.3280   -7.8635    0.0000 C   0  0  1  0  0  0  0  0  0  0  0  0
    5.9538   -8.8729    0.0000 C   0  0  0  0  0  0  0  0  0  0  0  0
    5.2867   -8.4345    0.0000 C   0  0  0  0  0  0  0  0  0  0  0  0
    5.7478   -7.8927    0.0000 C   0  0  0  0  0  0  0  0  0  0  0  0
    6.8364   -8.5564    0.0000 C   0  0  2  0  0  0  0  0  0  0  0  0
    6.6722   -6.9744    0.0000 C   0  0  0  0  0  0  0  0  0  0  0  0
    5.9538   -9.6979    0.0000 C   0  0  0  0  0  0  0  0  0  0  0  0
    8.3194   -9.4143    0.0000 C   0  0  0  0  0  0  0  0  0  0  0  0
    9.1444   -9.4143    0.0000 C   0  0  0  0  0  0  0  0  0  0  0  0
    9.5569  -10.1287    0.0000 C   0  0  0  0  0  0  0  0  0  0  0  0
   10.3819  -10.1287    0.0000 C   0  0  0  0  0  0  0  0  0  0  0  0
   10.7944   -9.4143    0.0000 C   0  0  0  0  0  0  0  0  0  0  0  0
   10.7944  -10.8432    0.0000 C   0  0  0  0  0  0  0  0  0  0  0  0
    6.6229   -9.3533    0.0000 H   0  0  0  0  0  0  0  0  0  0  0  0
    7.7405   -7.1490    0.0000 H   0  0  0  0  0  0  0  0  0  0  0  0
    8.7038   -8.4863    0.0000 C   0  0  0  0  0  0  0  0  0  0  0  0
  6  1  1  0  0  0  0
  1  2  1  0  0  0  0
  2  7  1  0  0  0  0
  6  3  1  0  0  0  0
  3  4  2  0  0  0  0
  4  5  1  0  0  0  0
  2  5  1  0  0  0  0
  6  7  1  0  0  0  0
  3  8  1  0  0  0  0
  1  9  1  0  0  0  0
  9 10  1  0  0  0  0
 10 11  1  0  0  0  0
 11 12  2  0  0  0  0
 12 13  1  0  0  0  0
 12 14  1  0  0  0  0
  6 15  1  1  0  0  0
  2 16  1  6  0  0  0
  1 17  1  6  0  0  0
M  END
>  <cdx:fragmentId>
814

$$$$
