193311.cdx
  Mrv1902 05222410212D          

 27 31  0  0  0  0            999 V2000
    5.4433   -4.9894    0.0000 H   0  0  0  0  0  0  0  0  0  0  0  0
    6.6627   -5.8754    0.0000 H   0  0  0  0  0  0  0  0  0  0  0  0
    9.7062   -5.5821    0.0000 O   0  0  0  0  0  0  0  0  0  0  0  0
    3.8293   -4.6464    0.0000 O   0  0  0  0  0  0  0  0  0  0  0  0
    4.4739   -3.7923    0.0000 C   0  0  0  0  0  0  0  0  0  0  0  0
    9.5253   -4.0971    0.0000 C   0  0  0  0  0  0  0  0  0  0  0  0
    5.3075   -3.1562    0.0000 O   0  0  0  0  0  0  0  0  0  0  0  0
    5.9483   -2.6539    0.0000 O   0  0  0  0  0  0  0  0  0  0  0  0
    7.3772   -2.6539    0.0000 O   0  0  0  0  0  0  0  0  0  0  0  0
    6.6627   -3.0664    0.0000 C   0  0  0  0  0  0  0  0  0  0  0  0
    7.8525   -5.3112    0.0000 C   0  0  0  0  0  0  0  0  0  0  0  0
    5.5962   -3.7331    0.0000 C   0  0  0  0  0  0  0  0  0  0  0  0
    6.6825   -4.5169    0.0000 O   0  0  0  0  0  0  0  0  0  0  0  0
    5.6982   -5.7741    0.0000 C   0  0  0  0  0  0  0  0  0  0  0  0
    4.8912   -5.6025    0.0000 C   0  0  0  0  0  0  0  0  0  0  0  0
    4.6363   -4.8179    0.0000 C   0  0  1  0  0  0  0  0  0  0  0  0
    5.1883   -4.2048    0.0000 C   0  0  1  0  0  0  0  0  0  0  0  0
    5.9953   -4.3763    0.0000 C   0  0  1  0  0  0  0  0  0  0  0  0
    6.6627   -3.8914    0.0000 C   0  0  1  0  0  0  0  0  0  0  0  0
    7.3302   -4.3763    0.0000 C   0  0  1  0  0  0  0  0  0  0  0  0
    8.1026   -4.0865    0.0000 C   0  0  0  0  0  0  0  0  0  0  0  0
    8.8108   -4.5096    0.0000 C   0  0  0  0  0  0  0  0  0  0  0  0
    8.9215   -5.3271    0.0000 C   0  0  1  0  0  0  0  0  0  0  0  0
    8.3514   -5.9234    0.0000 C   0  0  0  0  0  0  0  0  0  0  0  0
    7.5297   -5.8495    0.0000 C   0  0  0  0  0  0  0  0  0  0  0  0
    7.0752   -5.1610    0.0000 C   0  0  1  0  0  0  0  0  0  0  0  0
    6.2502   -5.1610    0.0000 C   0  0  1  0  0  0  0  0  0  0  0  0
 18  1  1  6  0  0  0
 26  2  1  6  0  0  0
 23  3  1  1  0  0  0
 16  4  1  6  0  0  0
 17  5  1  6  0  0  0
 22  6  2  0  0  0  0
 12  7  2  0  0  0  0
 19 10  1  6  0  0  0
 10  8  1  0  0  0  0
 10  9  2  0  0  0  0
 26 20  1  0  0  0  0
 23 11  1  0  0  0  0
 20 11  1  1  0  0  0
 27 18  1  0  0  0  0
 17 12  1  0  0  0  0
 27 13  1  1  0  0  0
 27 14  1  0  0  0  0
 13 12  1  0  0  0  0
 15 14  1  0  0  0  0
 16 15  1  0  0  0  0
 17 16  1  0  0  0  0
 18 17  1  0  0  0  0
 19 18  1  0  0  0  0
 20 19  1  0  0  0  0
 21 20  1  0  0  0  0
 22 21  1  0  0  0  0
 23 22  1  0  0  0  0
 24 23  1  0  0  0  0
 25 24  1  0  0  0  0
 26 25  1  0  0  0  0
 27 26  1  0  0  0  0
M  END
>  <cdx:groupId>
87

>  <cdx:fragmentId>
5

$$$$
