193530.cdx
  Mrv1902 05222410252D          

 11 10  0  0  0  0            999 V2000
   17.2549  -13.9481    0.0000 C   0  0  0  0  0  0  0  0  0  0  0  0
   16.5405  -14.3606    0.0000 C   0  0  0  0  0  0  0  0  0  0  0  0
   15.8260  -13.9481    0.0000 C   0  0  0  0  0  0  0  0  0  0  0  0
   15.1115  -14.3606    0.0000 C   0  0  0  0  0  0  0  0  0  0  0  0
   14.3970  -13.9481    0.0000 C   0  0  0  0  0  0  0  0  0  0  0  0
   13.6826  -14.3606    0.0000 C   0  0  0  0  0  0  0  0  0  0  0  0
   17.2549  -13.1231    0.0000 O   0  0  0  0  0  0  0  0  0  0  0  0
   17.9694  -14.3606    0.0000 O   0  0  0  0  0  0  0  0  0  0  0  0
   13.6826  -15.1856    0.0000 O   0  0  0  0  0  0  0  0  0  0  0  0
   12.9681  -13.9481    0.0000 O   0  0  0  0  0  0  0  0  0  0  0  0
   16.5405  -15.1856    0.0000 O   0  0  0  0  0  0  0  0  0  0  0  0
  1  2  1  0  0  0  0
  2  3  1  0  0  0  0
  3  4  1  0  0  0  0
  4  5  1  0  0  0  0
  5  6  1  0  0  0  0
  1  7  2  0  0  0  0
  1  8  1  0  0  0  0
  6  9  2  0  0  0  0
  6 10  1  0  0  0  0
  2 11  1  0  0  0  0
M  END
>  <cdx:groupId>
18415

>  <cdx:fragmentId>
18386

$$$$
