193679.cdx
  Mrv1902 05222410252D          

 24 26  0  0  0  0            999 V2000
    7.9286   -8.0056    0.0000 C   0  0  2  0  0  0  0  0  0  0  0  0
    7.9286   -8.8306    0.0000 C   0  0  0  0  0  0  0  0  0  0  0  0
    7.2142   -9.2431    0.0000 C   0  0  0  0  0  0  0  0  0  0  0  0
    6.4997   -8.8306    0.0000 C   0  0  0  0  0  0  0  0  0  0  0  0
    5.7852   -9.2431    0.0000 C   0  0  0  0  0  0  0  0  0  0  0  0
    5.0708   -8.8306    0.0000 C   0  0  0  0  0  0  0  0  0  0  0  0
    5.0708   -8.0056    0.0000 C   0  0  0  0  0  0  0  0  0  0  0  0
    5.7852   -7.5931    0.0000 C   0  0  0  0  0  0  0  0  0  0  0  0
    6.4997   -8.0056    0.0000 C   0  0  0  0  0  0  0  0  0  0  0  0
    7.2142   -7.5931    0.0000 O   0  0  0  0  0  0  0  0  0  0  0  0
    7.2142  -10.0681    0.0000 O   0  0  0  0  0  0  0  0  0  0  0  0
    5.7852   -6.7681    0.0000 C   0  0  0  0  0  0  0  0  0  0  0  0
    5.0708   -6.3556    0.0000 C   0  0  0  0  0  0  0  0  0  0  0  0
    5.0708   -5.5306    0.0000 C   0  0  0  0  0  0  0  0  0  0  0  0
    5.7852   -5.1181    0.0000 C   0  0  0  0  0  0  0  0  0  0  0  0
    4.3563   -5.1181    0.0000 C   0  0  0  0  0  0  0  0  0  0  0  0
    8.6431   -7.5931    0.0000 C   0  0  0  0  0  0  0  0  0  0  0  0
    8.6431   -6.7681    0.0000 C   0  0  0  0  0  0  0  0  0  0  0  0
    9.3576   -6.3556    0.0000 C   0  0  0  0  0  0  0  0  0  0  0  0
   10.0721   -6.7681    0.0000 C   0  0  0  0  0  0  0  0  0  0  0  0
   10.0721   -7.5931    0.0000 C   0  0  0  0  0  0  0  0  0  0  0  0
    9.3576   -8.0056    0.0000 C   0  0  0  0  0  0  0  0  0  0  0  0
   10.7865   -6.3556    0.0000 O   0  0  0  0  0  0  0  0  0  0  0  0
    4.3563   -7.5931    0.0000 O   0  0  0  0  0  0  0  0  0  0  0  0
  1  2  1  0  0  0  0
  2  3  1  0  0  0  0
  3  4  1  0  0  0  0
  4  5  1  0  0  0  0
  5  6  2  0  0  0  0
  6  7  1  0  0  0  0
  7  8  2  0  0  0  0
  8  9  1  0  0  0  0
  4  9  2  0  0  0  0
  9 10  1  0  0  0  0
  1 10  1  0  0  0  0
  3 11  2  0  0  0  0
 12 13  1  0  0  0  0
 13 14  2  0  0  0  0
 14 15  1  0  0  0  0
 14 16  1  0  0  0  0
  8 12  1  0  0  0  0
 17 18  1  0  0  0  0
 18 19  2  0  0  0  0
 19 20  1  0  0  0  0
 20 21  2  0  0  0  0
 21 22  1  0  0  0  0
 17 22  2  0  0  0  0
 20 23  1  0  0  0  0
  1 17  1  6  0  0  0
  7 24  1  0  0  0  0
M  END
>  <cdx:fragmentId>
44680

$$$$
