193686.cdx
  Mrv1902 05222410252D          

 23 26  0  0  0  0            999 V2000
    7.4074   -8.1797    0.0000 C   0  0  0  0  0  0  0  0  0  0  0  0
    7.7081   -7.4114    0.0000 C   0  0  0  0  0  0  0  0  0  0  0  0
    8.5331   -7.4114    0.0000 C   0  0  0  0  0  0  0  0  0  0  0  0
    8.8364   -8.1797    0.0000 C   0  0  1  0  0  0  0  0  0  0  0  0
    9.5508   -8.5922    0.0000 N   0  0  0  0  0  0  0  0  0  0  0  0
    9.5508   -9.4172    0.0000 C   0  0  0  0  0  0  0  0  0  0  0  0
    8.8364   -9.8297    0.0000 C   0  0  0  0  0  0  0  0  0  0  0  0
    8.1219   -9.4172    0.0000 C   0  0  0  0  0  0  0  0  0  0  0  0
    7.4074   -9.8297    0.0000 C   0  0  0  0  0  0  0  0  0  0  0  0
    6.6930   -9.4172    0.0000 C   0  0  0  0  0  0  0  0  0  0  0  0
    6.6930   -8.5922    0.0000 C   0  0  0  0  0  0  0  0  0  0  0  0
    8.1219   -8.5922    0.0000 C   0  0  0  0  0  0  0  0  0  0  0  0
    6.7780   -6.0486    0.0000 C   0  0  0  0  0  0  0  0  0  0  0  0
    6.4204   -6.7920    0.0000 C   0  0  0  0  0  0  0  0  0  0  0  0
    6.8855   -7.4735    0.0000 C   0  0  0  0  0  0  0  0  0  0  0  0
    8.0657   -6.6680    0.0000 C   0  0  0  0  0  0  0  0  0  0  0  0
    7.6007   -5.9865    0.0000 C   0  0  0  0  0  0  0  0  0  0  0  0
    6.3655   -5.3341    0.0000 O   0  0  0  0  0  0  0  0  0  0  0  0
    5.9785   -8.1797    0.0000 O   0  0  0  0  0  0  0  0  0  0  0  0
    5.2640   -8.5922    0.0000 C   0  0  0  0  0  0  0  0  0  0  0  0
    5.9785   -9.8297    0.0000 O   0  0  0  0  0  0  0  0  0  0  0  0
    5.2640   -9.4172    0.0000 C   0  0  0  0  0  0  0  0  0  0  0  0
    9.4612   -7.6409    0.0000 H   0  0  0  0  0  0  0  0  0  0  0  0
  1  2  1  0  0  0  0
  2  3  1  0  0  0  0
  3  4  1  0  0  0  0
  4  5  1  0  0  0  0
  5  6  1  0  0  0  0
  6  7  1  0  0  0  0
  7  8  1  0  0  0  0
  8  9  2  0  0  0  0
  9 10  1  0  0  0  0
 10 11  2  0  0  0  0
  1 11  1  0  0  0  0
  1 12  2  0  0  0  0
 12  8  1  0  0  0  0
  4 12  1  0  0  0  0
 13 14  1  0  0  0  0
 14 15  2  0  0  0  0
 16 17  2  0  0  0  0
 13 17  1  0  0  0  0
 15  2  1  0  0  0  0
 16  2  1  0  0  0  0
 13 18  2  0  0  0  0
 19 20  1  0  0  0  0
 11 19  1  0  0  0  0
 21 22  1  0  0  0  0
 10 21  1  0  0  0  0
  4 23  1  6  0  0  0
M  END
>  <cdx:fragmentId>
18461

$$$$
