193746.cdx
  Mrv1902 05222410282D          

 72 78  0  0  0  0            999 V2000
    5.0880  -12.3200    0.0000 C   0  0  2  0  0  0  0  0  0  0  0  0
    5.0880  -13.1450    0.0000 O   0  0  0  0  0  0  0  0  0  0  0  0
    5.8025  -13.5575    0.0000 C   0  0  0  0  0  0  0  0  0  0  0  0
    6.5170  -13.1450    0.0000 C   0  0  0  0  0  0  0  0  0  0  0  0
    6.5170  -12.3200    0.0000 C   0  0  0  0  0  0  0  0  0  0  0  0
    5.8025  -11.9075    0.0000 C   0  0  2  0  0  0  0  0  0  0  0  0
    7.2314  -13.5575    0.0000 C   0  0  0  0  0  0  0  0  0  0  0  0
    7.9459  -13.1450    0.0000 C   0  0  0  0  0  0  0  0  0  0  0  0
    7.9459  -12.3200    0.0000 C   0  0  0  0  0  0  0  0  0  0  0  0
    7.2314  -11.9075    0.0000 C   0  0  0  0  0  0  0  0  0  0  0  0
    8.6604  -13.5575    0.0000 O   0  0  0  0  0  0  0  0  0  0  0  0
    4.3736  -11.9075    0.0000 C   0  0  0  0  0  0  0  0  0  0  0  0
    5.8025  -11.0825    0.0000 C   0  0  2  0  0  0  0  0  0  0  0  0
    3.8840  -11.4395    0.0000 O   0  0  0  0  0  0  0  0  0  0  0  0
    3.8196  -10.0121    0.0000 O   0  0  0  0  0  0  0  0  0  0  0  0
    4.2639  -10.7072    0.0000 C   0  0  0  0  0  0  0  0  0  0  0  0
    5.0880  -10.6700    0.0000 C   0  0  0  0  0  0  0  0  0  0  0  0
    6.2150  -10.3680    0.0000 C   0  0  0  0  0  0  0  0  0  0  0  0
    5.8025   -9.6536    0.0000 O   0  0  0  0  0  0  0  0  0  0  0  0
    7.0400  -10.3680    0.0000 O   0  0  0  0  0  0  0  0  0  0  0  0
    6.6000   -9.1591    0.0000 C   0  0  1  0  0  0  0  0  0  0  0  0
    7.3189   -9.5639    0.0000 C   0  0  1  0  0  0  0  0  0  0  0  0
    8.0289   -9.1437    0.0000 C   0  0  2  0  0  0  0  0  0  0  0  0
    8.0200   -8.3187    0.0000 C   0  0  1  0  0  0  0  0  0  0  0  0
    7.3011   -7.9140    0.0000 O   0  0  0  0  0  0  0  0  0  0  0  0
    6.5911   -8.3341    0.0000 C   0  0  2  0  0  0  0  0  0  0  0  0
    8.7300   -7.8986    0.0000 O   0  0  0  0  0  0  0  0  0  0  0  0
    7.3189   -8.7389    0.0000 O   0  0  0  0  0  0  0  0  0  0  0  0
    9.4488   -8.3034    0.0000 C   0  0  0  0  0  0  0  0  0  0  0  0
   10.1588   -7.8832    0.0000 C   0  0  0  0  0  0  0  0  0  0  0  0
    9.4577   -9.1283    0.0000 O   0  0  0  0  0  0  0  0  0  0  0  0
   10.8820   -8.2802    0.0000 C   0  0  0  0  0  0  0  0  0  0  0  0
   11.5874   -7.8524    0.0000 C   0  0  0  0  0  0  0  0  0  0  0  0
   11.5874   -7.0276    0.0000 C   0  0  0  0  0  0  0  0  0  0  0  0
   10.8820   -6.6306    0.0000 C   0  0  0  0  0  0  0  0  0  0  0  0
   10.1588   -7.0584    0.0000 C   0  0  0  0  0  0  0  0  0  0  0  0
   10.8731   -5.8056    0.0000 O   0  0  0  0  0  0  0  0  0  0  0  0
   12.2996   -6.6112    0.0000 O   0  0  0  0  0  0  0  0  0  0  0  0
   12.3063   -8.2572    0.0000 O   0  0  0  0  0  0  0  0  0  0  0  0
    5.0880  -11.4950    0.0000 H   0  0  0  0  0  0  0  0  0  0  0  0
    5.1132   -3.3846    0.0000 O   0  0  0  0  0  0  0  0  0  0  0  0
    6.5416   -4.1866    0.0000 O   0  0  0  0  0  0  0  0  0  0  0  0
    3.7023   -4.2324    0.0000 O   0  0  0  0  0  0  0  0  0  0  0  0
    5.8409   -5.4470    0.0000 C   0  0  0  0  0  0  0  0  0  0  0  0
    5.8317   -4.6068    0.0000 C   0  0  0  0  0  0  0  0  0  0  0  0
    5.1264   -4.2095    0.0000 C   0  0  0  0  0  0  0  0  0  0  0  0
    4.4211   -4.6372    0.0000 C   0  0  0  0  0  0  0  0  0  0  0  0
    4.4211   -5.4622    0.0000 C   0  0  0  0  0  0  0  0  0  0  0  0
    4.4345   -7.1198    0.0000 O   0  0  0  0  0  0  0  0  0  0  0  0
    5.1356   -5.8747    0.0000 C   0  0  0  0  0  0  0  0  0  0  0  0
    5.1445   -6.6996    0.0000 C   0  0  0  0  0  0  0  0  0  0  0  0
    5.8634   -7.1044    0.0000 O   0  0  0  0  0  0  0  0  0  0  0  0
    5.8722   -7.9294    0.0000 C   0  0  0  0  0  0  0  0  0  0  0  0
    7.9034   -5.4195    0.0000 C   0  0  0  0  0  0  0  0  0  0  0  0
    8.6173   -5.8329    0.0000 C   0  0  0  0  0  0  0  0  0  0  0  0
    9.3323   -5.4213    0.0000 C   0  0  0  0  0  0  0  0  0  0  0  0
    9.3333   -4.5963    0.0000 C   0  0  0  0  0  0  0  0  0  0  0  0
    8.6194   -4.1829    0.0000 C   0  0  0  0  0  0  0  0  0  0  0  0
    7.9044   -4.5945    0.0000 C   0  0  0  0  0  0  0  0  0  0  0  0
    7.1904   -4.1811    0.0000 O   0  0  0  0  0  0  0  0  0  0  0  0
    8.6204   -3.3579    0.0000 O   0  0  0  0  0  0  0  0  0  0  0  0
   10.0483   -4.1846    0.0000 O   0  0  0  0  0  0  0  0  0  0  0  0
    8.6163   -6.6579    0.0000 C   0  0  0  0  0  0  0  0  0  0  0  0
    9.3303   -7.0713    0.0000 O   0  0  0  0  0  0  0  0  0  0  0  0
    7.2314  -11.0825    0.0000 O   0  0  0  0  0  0  0  0  0  0  0  0
    8.6604  -11.9075    0.0000 O   0  0  0  0  0  0  0  0  0  0  0  0
    5.8025  -14.3825    0.0000 O   0  0  0  0  0  0  0  0  0  0  0  0
    3.6591  -12.3200    0.0000 C   0  0  0  0  0  0  0  0  0  0  0  0
    2.9446  -11.9075    0.0000 O   0  0  0  0  0  0  0  0  0  0  0  0
    3.6591  -13.1450    0.0000 O   0  0  0  0  0  0  0  0  0  0  0  0
    2.2301  -12.3200    0.0000 C   0  0  0  0  0  0  0  0  0  0  0  0
    8.7477   -9.5485    0.0000 O   0  0  0  0  0  0  0  0  0  0  0  0
  1  2  1  0  0  0  0
  2  3  1  0  0  0  0
  3  4  1  0  0  0  0
  4  5  2  0  0  0  0
  5  6  1  0  0  0  0
  6  1  1  0  0  0  0
  4  7  1  0  0  0  0
  7  8  2  0  0  0  0
  8  9  1  0  0  0  0
  9 10  2  0  0  0  0
 10  5  1  0  0  0  0
  8 11  1  0  0  0  0
  1 12  1  1  0  0  0
  6 13  1  0  0  0  0
 16 14  1  0  0  0  0
 13 17  1  6  0  0  0
 16 15  2  0  0  0  0
 17 16  1  0  0  0  0
 13 18  1  0  0  0  0
 18 19  1  0  0  0  0
 18 20  2  0  0  0  0
 21 22  1  0  0  0  0
 22 23  1  0  0  0  0
 23 24  1  0  0  0  0
 24 25  1  0  0  0  0
 25 26  1  0  0  0  0
 26 21  1  0  0  0  0
 24 27  1  1  0  0  0
 46 41  1  0  0  0  0
 26 53  1  1  0  0  0
 22 28  1  1  0  0  0
 27 29  1  0  0  0  0
 29 30  1  0  0  0  0
 29 31  2  0  0  0  0
 30 32  2  0  0  0  0
 32 33  1  0  0  0  0
 33 34  2  0  0  0  0
 34 35  1  0  0  0  0
 35 36  2  0  0  0  0
 36 30  1  0  0  0  0
 35 37  1  0  0  0  0
 34 38  1  0  0  0  0
 33 39  1  0  0  0  0
  6 40  1  6  0  0  0
 45 42  1  0  0  0  0
 47 43  1  0  0  0  0
 44 50  1  0  0  0  0
 45 44  2  0  0  0  0
 46 45  1  0  0  0  0
 47 46  2  0  0  0  0
 48 47  1  0  0  0  0
 50 48  2  0  0  0  0
 51 49  2  0  0  0  0
 51 50  1  0  0  0  0
 52 51  1  0  0  0  0
 53 52  1  0  0  0  0
 44 54  1  0  0  0  0
 54 55  2  0  0  0  0
 55 56  1  0  0  0  0
 56 57  2  0  0  0  0
 57 58  1  0  0  0  0
 58 59  2  0  0  0  0
 59 54  1  0  0  0  0
 59 60  1  0  0  0  0
 58 61  1  0  0  0  0
 57 62  1  0  0  0  0
 55 63  1  0  0  0  0
 63 64  2  0  0  0  0
 28 63  1  0  0  0  0
 10 65  1  0  0  0  0
  9 66  1  0  0  0  0
  3 67  2  0  0  0  0
 12 68  1  0  0  0  0
 68 69  1  0  0  0  0
 68 70  2  0  0  0  0
 69 71  1  0  0  0  0
 23 72  1  6  0  0  0
 21 19  1  6  0  0  0
M  END
>  <cdx:fragmentId>
46

$$$$
