194000.cdx
  Mrv1902 05222410282D          

 49 51  0  0  0  0            999 V2000
   17.7193  -12.6374    0.0000 C   0  0  0  0  0  0  0  0  0  0  0  0
   18.4338  -13.0499    0.0000 C   0  0  2  0  0  0  0  0  0  0  0  0
   19.1483  -12.6374    0.0000 C   0  0  0  0  0  0  0  0  0  0  0  0
   19.8628  -13.0499    0.0000 C   0  0  0  0  0  0  0  0  0  0  0  0
   17.7193  -11.8124    0.0000 O   0  0  0  0  0  0  0  0  0  0  0  0
   18.4338  -13.8749    0.0000 C   0  0  0  0  0  0  0  0  0  0  0  0
   17.0049  -13.0499    0.0000 C   0  0  0  0  0  0  0  0  0  0  0  0
   17.0049  -13.8749    0.0000 C   0  0  0  0  0  0  0  0  0  0  0  0
   16.2904  -14.2874    0.0000 C   0  0  0  0  0  0  0  0  0  0  0  0
   15.5759  -13.8749    0.0000 C   0  0  0  0  0  0  0  0  0  0  0  0
   15.5759  -13.0499    0.0000 C   0  0  0  0  0  0  0  0  0  0  0  0
   16.2904  -12.6374    0.0000 C   0  0  0  0  0  0  0  0  0  0  0  0
   16.2904  -11.8124    0.0000 O   0  0  0  0  0  0  0  0  0  0  0  0
   14.8615  -14.2874    0.0000 O   0  0  0  0  0  0  0  0  0  0  0  0
   17.7193  -14.2874    0.0000 O   0  0  0  0  0  0  0  0  0  0  0  0
   14.6471  -12.5136    0.0000 C   0  0  0  0  0  0  0  0  0  0  0  0
   14.6471  -11.4411    0.0000 C   0  0  0  0  0  0  0  0  0  0  0  0
   15.3616  -11.0286    0.0000 C   0  0  0  0  0  0  0  0  0  0  0  0
   15.3616  -10.2036    0.0000 C   0  0  0  0  0  0  0  0  0  0  0  0
   14.6471   -9.7911    0.0000 C   0  0  0  0  0  0  0  0  0  0  0  0
   13.9326  -10.2036    0.0000 C   0  0  0  0  0  0  0  0  0  0  0  0
   13.9326  -11.0286    0.0000 C   0  0  0  0  0  0  0  0  0  0  0  0
   13.2182   -9.7911    0.0000 C   0  0  0  0  0  0  0  0  0  0  0  0
   14.6471   -8.9661    0.0000 O   0  0  0  0  0  0  0  0  0  0  0  0
   13.9326   -8.5536    0.0000 C   0  0  0  0  0  0  0  0  0  0  0  0
   13.2182  -11.4411    0.0000 O   0  0  0  0  0  0  0  0  0  0  0  0
   16.0761  -11.4411    0.0000 O   0  0  0  0  0  0  0  0  0  0  0  0
   16.0761   -9.7911    0.0000 C   0  0  0  0  0  0  0  0  0  0  0  0
   16.7905  -10.2036    0.0000 C   0  0  0  0  0  0  0  0  0  0  0  0
   17.5050   -9.7911    0.0000 C   0  0  0  0  0  0  0  0  0  0  0  0
   18.2195  -10.2036    0.0000 C   0  0  0  0  0  0  0  0  0  0  0  0
   16.0761   -8.9661    0.0000 O   0  0  0  0  0  0  0  0  0  0  0  0
   16.2904  -15.3599    0.0000 C   0  0  0  0  0  0  0  0  0  0  0  0
   15.3616  -15.8961    0.0000 C   0  0  0  0  0  0  0  0  0  0  0  0
   14.6471  -15.4836    0.0000 C   0  0  0  0  0  0  0  0  0  0  0  0
   13.9326  -15.8961    0.0000 C   0  0  0  0  0  0  0  0  0  0  0  0
   13.9326  -16.7211    0.0000 C   0  0  0  0  0  0  0  0  0  0  0  0
   14.6471  -17.1336    0.0000 C   0  0  0  0  0  0  0  0  0  0  0  0
   15.3616  -16.7211    0.0000 C   0  0  0  0  0  0  0  0  0  0  0  0
   14.6471  -17.9586    0.0000 C   0  0  0  0  0  0  0  0  0  0  0  0
   13.2182  -17.1336    0.0000 O   0  0  0  0  0  0  0  0  0  0  0  0
   12.5037  -16.7211    0.0000 C   0  0  0  0  0  0  0  0  0  0  0  0
   16.0761  -17.1336    0.0000 O   0  0  0  0  0  0  0  0  0  0  0  0
   14.6471  -14.6586    0.0000 O   0  0  0  0  0  0  0  0  0  0  0  0
   13.2182  -15.4836    0.0000 C   0  0  0  0  0  0  0  0  0  0  0  0
   12.5037  -15.8961    0.0000 C   0  0  0  0  0  0  0  0  0  0  0  0
   11.7892  -15.4836    0.0000 C   0  0  0  0  0  0  0  0  0  0  0  0
   11.0748  -15.8961    0.0000 C   0  0  0  0  0  0  0  0  0  0  0  0
   13.2182  -14.6586    0.0000 O   0  0  0  0  0  0  0  0  0  0  0  0
  1  2  1  0  0  0  0
  2  3  1  0  0  0  0
  3  4  1  0  0  0  0
  1  5  2  0  0  0  0
  2  6  1  6  0  0  0
  7  8  1  0  0  0  0
  8  9  2  0  0  0  0
  9 10  1  0  0  0  0
 10 11  2  0  0  0  0
 11 12  1  0  0  0  0
  7 12  2  0  0  0  0
 12 13  1  0  0  0  0
 10 14  1  0  0  0  0
  8 15  1  0  0  0  0
 17 18  1  0  0  0  0
 18 19  2  0  0  0  0
 19 20  1  0  0  0  0
 20 21  2  0  0  0  0
 21 22  1  0  0  0  0
 17 22  2  0  0  0  0
 21 23  1  0  0  0  0
 24 25  1  0  0  0  0
 20 24  1  0  0  0  0
 22 26  1  0  0  0  0
 18 27  1  0  0  0  0
 28 29  1  0  0  0  0
 29 30  1  0  0  0  0
 30 31  1  0  0  0  0
 28 32  2  0  0  0  0
 19 28  1  0  0  0  0
 16 17  1  0  0  0  0
 11 16  1  0  0  0  0
 34 35  1  0  0  0  0
 35 36  2  0  0  0  0
 36 37  1  0  0  0  0
 37 38  2  0  0  0  0
 38 39  1  0  0  0  0
 34 39  2  0  0  0  0
 38 40  1  0  0  0  0
 41 42  1  0  0  0  0
 37 41  1  0  0  0  0
 39 43  1  0  0  0  0
 35 44  1  0  0  0  0
 45 46  1  0  0  0  0
 46 47  1  0  0  0  0
 47 48  1  0  0  0  0
 45 49  2  0  0  0  0
 36 45  1  0  0  0  0
 33 34  1  0  0  0  0
  9 33  1  0  0  0  0
  1  7  1  0  0  0  0
M  END
>  <cdx:groupId>
155

>  <cdx:fragmentId>
41

$$$$
