194183.cdx
  Mrv1902 05222410202D          

 38 42  0  0  0  0            999 V2000
    3.3714  -10.4477    0.0000 O   0  0  0  0  0  0  0  0  0  0  0  0
    4.0858  -10.0352    0.0000 C   0  0  2  0  0  0  0  0  0  0  0  0
    4.0858   -9.2102    0.0000 C   0  0  0  0  0  0  0  0  0  0  0  0
    4.8003   -8.7977    0.0000 C   0  0  0  0  0  0  0  0  0  0  0  0
    5.5148   -9.2102    0.0000 C   0  0  1  0  0  0  0  0  0  0  0  0
    5.5148   -8.3852    0.0000 C   0  0  0  0  0  0  0  0  0  0  0  0
    5.5148  -10.0352    0.0000 C   0  0  1  0  0  0  0  0  0  0  0  0
    6.2292  -10.4477    0.0000 C   0  0  0  0  0  0  0  0  0  0  0  0
    6.9438  -10.0352    0.0000 C   0  0  0  0  0  0  0  0  0  0  0  0
    6.9438   -9.2102    0.0000 C   0  0  2  0  0  0  0  0  0  0  0  0
    6.9438   -8.3852    0.0000 C   0  0  0  0  0  0  0  0  0  0  0  0
    6.2292   -8.7977    0.0000 C   0  0  2  0  0  0  0  0  0  0  0  0
    6.2292   -9.6227    0.0000 H   0  0  0  0  0  0  0  0  0  0  0  0
    6.2292   -7.9727    0.0000 C   0  0  0  0  0  0  0  0  0  0  0  0
    6.9438   -7.5602    0.0000 C   0  0  0  0  0  0  0  0  0  0  0  0
    7.6582   -7.9727    0.0000 C   0  0  0  0  0  0  0  0  0  0  0  0
    7.6582   -8.7977    0.0000 C   0  0  2  0  0  0  0  0  0  0  0  0
    7.6582   -9.6227    0.0000 C   0  0  0  0  0  0  0  0  0  0  0  0
    8.3727   -9.2102    0.0000 C   0  0  0  0  0  0  0  0  0  0  0  0
    9.0872   -8.7977    0.0000 C   0  0  0  0  0  0  0  0  0  0  0  0
    9.0872   -7.9727    0.0000 C   0  0  2  0  0  0  0  0  0  0  0  0
    9.8016   -8.3852    0.0000 C   0  0  0  0  0  0  0  0  0  0  0  0
   10.5161   -7.9727    0.0000 O   0  0  0  0  0  0  0  0  0  0  0  0
    9.8016   -9.2102    0.0000 O   0  0  0  0  0  0  0  0  0  0  0  0
    8.3727   -7.5602    0.0000 C   0  0  1  0  0  0  0  0  0  0  0  0
    8.3727   -8.3852    0.0000 H   0  0  0  0  0  0  0  0  0  0  0  0
    8.3727   -6.7352    0.0000 C   0  0  2  0  0  0  0  0  0  0  0  0
    7.9602   -6.0207    0.0000 C   0  0  0  0  0  0  0  0  0  0  0  0
    7.5477   -6.7352    0.0000 O   0  0  0  0  0  0  0  0  0  0  0  0
    9.0872   -6.3227    0.0000 C   0  0  2  0  0  0  0  0  0  0  0  0
    9.0872   -5.4977    0.0000 C   0  0  0  0  0  0  0  0  0  0  0  0
    9.8016   -6.7352    0.0000 C   0  0  0  0  0  0  0  0  0  0  0  0
    9.8016   -7.5602    0.0000 C   0  0  0  0  0  0  0  0  0  0  0  0
    5.5148  -10.8602    0.0000 H   0  0  0  0  0  0  0  0  0  0  0  0
    4.8003  -10.4477    0.0000 C   0  0  2  0  0  0  0  0  0  0  0  0
    5.2128  -11.1621    0.0000 C   0  0  0  0  0  0  0  0  0  0  0  0
    4.3878  -11.1621    0.0000 C   0  0  0  0  0  0  0  0  0  0  0  0
    4.8003  -11.8766    0.0000 O   0  0  0  0  0  0  0  0  0  0  0  0
  2  1  1  6  0  0  0
  2  3  1  0  0  0  0
  3  4  1  0  0  0  0
  4  5  1  0  0  0  0
  5  6  1  1  0  0  0
  5  7  1  0  0  0  0
  7  8  1  0  0  0  0
  8  9  1  0  0  0  0
  9 10  1  0  0  0  0
 10 11  1  1  0  0  0
 10 12  1  0  0  0  0
  5 12  1  0  0  0  0
 12 13  1  6  0  0  0
 12 14  1  0  0  0  0
 14 15  1  0  0  0  0
 15 16  2  0  0  0  0
 16 17  1  0  0  0  0
 10 17  1  0  0  0  0
 17 18  1  6  0  0  0
 17 19  1  0  0  0  0
 19 20  1  0  0  0  0
 20 21  1  0  0  0  0
 21 22  1  1  0  0  0
 22 23  1  0  0  0  0
 22 24  2  0  0  0  0
 21 25  1  0  0  0  0
 16 25  1  0  0  0  0
 25 26  1  1  0  0  0
 25 27  1  0  0  0  0
 27 28  1  1  0  0  0
 27 29  1  6  0  0  0
 27 30  1  0  0  0  0
 30 31  1  6  0  0  0
 30 32  1  0  0  0  0
 32 33  1  0  0  0  0
 21 33  1  0  0  0  0
  7 34  1  6  0  0  0
  7 35  1  0  0  0  0
  2 35  1  0  0  0  0
 35 36  1  6  0  0  0
 35 37  1  1  0  0  0
 37 38  1  0  0  0  0
M  END
>  <cdx:fragmentId>
3

$$$$
