194344.cdx
  Mrv1902 05222410192D          

 20 22  0  0  0  0            999 V2000
   17.9522  -13.2664    0.0000 O   0  0  0  0  0  0  0  0  0  0  0  0
   17.9522  -14.0914    0.0000 C   0  0  1  0  0  0  0  0  0  0  0  0
   17.2377  -14.5039    0.0000 C   0  0  0  0  0  0  0  0  0  0  0  0
   16.5233  -14.0914    0.0000 C   0  0  0  0  0  0  0  0  0  0  0  0
   15.8088  -14.5039    0.0000 C   0  0  0  0  0  0  0  0  0  0  0  0
   15.0943  -14.0914    0.0000 C   0  0  0  0  0  0  0  0  0  0  0  0
   15.0943  -13.2664    0.0000 C   0  0  0  0  0  0  0  0  0  0  0  0
   15.8088  -12.8539    0.0000 C   0  0  0  0  0  0  0  0  0  0  0  0
   16.5233  -13.2664    0.0000 C   0  0  0  0  0  0  0  0  0  0  0  0
   17.2377  -12.8539    0.0000 C   0  0  0  0  0  0  0  0  0  0  0  0
   14.3799  -12.8539    0.0000 C   0  0  0  0  0  0  0  0  0  0  0  0
   13.6654  -13.2664    0.0000 C   0  0  0  0  0  0  0  0  0  0  0  0
   13.6654  -14.0914    0.0000 C   0  0  0  0  0  0  0  0  0  0  0  0
   14.3799  -14.5039    0.0000 C   0  0  0  0  0  0  0  0  0  0  0  0
   17.2377  -12.0289    0.0000 O   0  0  0  0  0  0  0  0  0  0  0  0
   18.6667  -14.5039    0.0000 C   0  0  0  0  0  0  0  0  0  0  0  0
   12.9509  -14.5039    0.0000 O   0  0  0  0  0  0  0  0  0  0  0  0
   12.2364  -14.0914    0.0000 C   0  0  0  0  0  0  0  0  0  0  0  0
   15.8088  -12.0289    0.0000 O   0  0  0  0  0  0  0  0  0  0  0  0
   14.3799  -12.0289    0.0000 O   0  0  0  0  0  0  0  0  0  0  0  0
  1  2  1  0  0  0  0
  2  3  1  0  0  0  0
  3  4  1  0  0  0  0
  4  5  1  0  0  0  0
  5  6  2  0  0  0  0
  6  7  1  0  0  0  0
  7  8  2  0  0  0  0
  8  9  1  0  0  0  0
  4  9  2  0  0  0  0
  9 10  1  0  0  0  0
  1 10  1  0  0  0  0
 11 12  2  0  0  0  0
 12 13  1  0  0  0  0
 13 14  2  0  0  0  0
 14  6  1  0  0  0  0
 11  7  1  0  0  0  0
 10 15  2  0  0  0  0
  2 16  1  6  0  0  0
 17 18  1  0  0  0  0
 13 17  1  0  0  0  0
  8 19  1  0  0  0  0
 11 20  1  0  0  0  0
M  END
>  <cdx:groupId>
319

>  <cdx:fragmentId>
260

$$$$
