19461.cdx
  Mrv1902 05222410232D          

  8  7  0  0  0  0            999 V2000
    9.3296   -6.5809    0.0000 C   0  0  0  0  0  0  0  0  0  0  0  0
    8.6151   -6.9934    0.0000 C   0  0  0  0  0  0  0  0  0  0  0  0
    7.9006   -6.5809    0.0000 C   0  0  0  0  0  0  0  0  0  0  0  0
    7.1861   -6.9934    0.0000 C   0  0  0  0  0  0  0  0  0  0  0  0
    6.4717   -6.5809    0.0000 C   0  0  0  0  0  0  0  0  0  0  0  0
    5.7572   -6.9934    0.0000 C   0  0  0  0  0  0  0  0  0  0  0  0
    5.0427   -6.5809    0.0000 C   0  0  0  0  0  0  0  0  0  0  0  0
    4.3283   -6.9934    0.0000 C   0  0  0  0  0  0  0  0  0  0  0  0
  1  2  2  0  0  0  0
  2  3  1  0  0  0  0
  3  4  1  0  0  0  0
  4  5  1  0  0  0  0
  5  6  1  0  0  0  0
  6  7  2  0  0  0  0
  7  8  1  0  0  0  0
M  END
>  <cdx:fragmentId>
44828

$$$$
