1947.cdx
  Mrv1902 05222410252D          

  8  7  0  0  0  0            999 V2000
    9.3014   -9.2108    0.0000 O   0  0  0  0  0  0  0  0  0  0  0  0
    5.0146   -7.5608    0.0000 C   0  0  0  0  0  0  0  0  0  0  0  0
    5.7290   -7.9733    0.0000 C   0  0  0  0  0  0  0  0  0  0  0  0
    5.7290   -8.7983    0.0000 C   0  0  0  0  0  0  0  0  0  0  0  0
    6.4435   -9.2108    0.0000 C   0  0  0  0  0  0  0  0  0  0  0  0
    7.1580   -8.7983    0.0000 C   0  0  0  0  0  0  0  0  0  0  0  0
    7.8725   -9.2108    0.0000 C   0  0  0  0  0  0  0  0  0  0  0  0
    8.5869   -8.7983    0.0000 C   0  0  0  0  0  0  0  0  0  0  0  0
  8  1  2  0  0  0  0
  3  2  1  0  0  0  0
  4  3  1  0  0  0  0
  5  4  2  0  0  0  0
  6  5  1  0  0  0  0
  7  6  2  0  0  0  0
  8  7  1  0  0  0  0
M  END
>  <cdx:fragmentId>
5

$$$$
