195166.cdx
  Mrv1902 05222410212D          

 19 20  0  0  0  0            999 V2000
    5.5583   -5.0256    0.0000 C   0  0  0  0  0  0  0  0  0  0  0  0
    5.5583   -5.8506    0.0000 C   0  0  0  0  0  0  0  0  0  0  0  0
    6.2727   -6.2631    0.0000 C   0  0  1  0  0  0  0  0  0  0  0  0
    6.9872   -5.8506    0.0000 C   0  0  2  0  0  0  0  0  0  0  0  0
    6.9872   -5.0256    0.0000 C   0  0  2  0  0  0  0  0  0  0  0  0
    6.2727   -4.6131    0.0000 C   0  0  2  0  0  0  0  0  0  0  0  0
    7.7017   -6.2631    0.0000 C   0  0  0  0  0  0  0  0  0  0  0  0
    8.4162   -5.8506    0.0000 C   0  0  0  0  0  0  0  0  0  0  0  0
    8.4162   -5.0256    0.0000 C   0  0  0  0  0  0  0  0  0  0  0  0
    7.7017   -4.6131    0.0000 C   0  0  0  0  0  0  0  0  0  0  0  0
    6.2727   -3.7881    0.0000 C   0  0  0  0  0  0  0  0  0  0  0  0
    6.9872   -4.2006    0.0000 H   0  0  0  0  0  0  0  0  0  0  0  0
    6.9872   -6.6756    0.0000 H   0  0  0  0  0  0  0  0  0  0  0  0
    5.8602   -6.9776    0.0000 O   0  0  0  0  0  0  0  0  0  0  0  0
    5.5583   -3.3756    0.0000 C   0  0  0  0  0  0  0  0  0  0  0  0
    6.9872   -3.3756    0.0000 C   0  0  0  0  0  0  0  0  0  0  0  0
    6.6852   -6.9776    0.0000 C   0  0  0  0  0  0  0  0  0  0  0  0
    9.1306   -4.6131    0.0000 C   0  0  0  0  0  0  0  0  0  0  0  0
    9.8451   -5.0256    0.0000 O   0  0  0  0  0  0  0  0  0  0  0  0
  1  2  1  0  0  0  0
  2  3  1  0  0  0  0
  3  4  1  0  0  0  0
  4  5  1  0  0  0  0
  5  6  1  0  0  0  0
  6  1  1  0  0  0  0
  4  7  1  0  0  0  0
  7  8  1  0  0  0  0
  8  9  1  0  0  0  0
  9 10  2  0  0  0  0
 10  5  1  0  0  0  0
  6 11  1  1  0  0  0
  5 12  1  1  0  0  0
  4 13  1  1  0  0  0
  3 14  1  1  0  0  0
 11 15  1  0  0  0  0
 11 16  1  0  0  0  0
  3 17  1  0  0  0  0
  9 18  1  0  0  0  0
 18 19  1  0  0  0  0
M  END
>  <cdx:fragmentId>
5

$$$$
