195332.cdx
  Mrv1902 05222410262D          

 96106  0  0  0  0            999 V2000
   15.1115  -10.1726    0.0000 C   0  0  0  0  0  0  0  0  0  0  0  0
   15.8260   -9.7601    0.0000 C   0  0  0  0  0  0  0  0  0  0  0  0
   16.5405  -10.1726    0.0000 C   0  0  0  0  0  0  0  0  0  0  0  0
   16.5405  -10.9976    0.0000 C   0  0  0  0  0  0  0  0  0  0  0  0
   15.8260  -11.4101    0.0000 C   0  0  0  0  0  0  0  0  0  0  0  0
   15.8260  -12.2351    0.0000 C   0  0  0  0  0  0  0  0  0  0  0  0
   15.1115  -12.6476    0.0000 C   0  0  0  0  0  0  0  0  0  0  0  0
   14.3970  -12.2351    0.0000 C   0  0  0  0  0  0  0  0  0  0  0  0
   13.6826  -12.6476    0.0000 C   0  0  0  0  0  0  0  0  0  0  0  0
   13.6826  -13.4726    0.0000 C   0  0  0  0  0  0  0  0  0  0  0  0
   12.9681  -13.8851    0.0000 C   0  0  0  0  0  0  0  0  0  0  0  0
   12.2536  -13.4726    0.0000 C   0  0  0  0  0  0  0  0  0  0  0  0
   11.5392  -13.8851    0.0000 C   0  0  0  0  0  0  0  0  0  0  0  0
   10.8247  -13.4726    0.0000 C   0  0  0  0  0  0  0  0  0  0  0  0
   10.8247  -12.6476    0.0000 C   0  0  0  0  0  0  0  0  0  0  0  0
   11.5392  -12.2351    0.0000 C   0  0  0  0  0  0  0  0  0  0  0  0
   12.2536  -12.6476    0.0000 C   0  0  0  0  0  0  0  0  0  0  0  0
   12.9681  -12.2351    0.0000 C   0  0  0  0  0  0  0  0  0  0  0  0
   12.9681  -11.4101    0.0000 C   0  0  0  0  0  0  0  0  0  0  0  0
   13.6826  -10.9976    0.0000 C   0  0  0  0  0  0  0  0  0  0  0  0
   14.3970  -11.4101    0.0000 C   0  0  0  0  0  0  0  0  0  0  0  0
   15.1115  -10.9976    0.0000 C   0  0  0  0  0  0  0  0  0  0  0  0
   16.5405  -11.8226    0.0000 C   0  0  0  0  0  0  0  0  0  0  0  0
   16.5405  -12.6476    0.0000 O   0  0  0  0  0  0  0  0  0  0  0  0
   17.2549  -11.4101    0.0000 O   0  0  0  0  0  0  0  0  0  0  0  0
   12.2536  -11.8226    0.0000 C   0  0  0  0  0  0  0  0  0  0  0  0
   11.1267  -14.5996    0.0000 C   0  0  0  0  0  0  0  0  0  0  0  0
   15.4135   -9.0456    0.0000 C   0  0  0  0  0  0  0  0  0  0  0  0
   16.2385   -9.0456    0.0000 C   0  0  0  0  0  0  0  0  0  0  0  0
   11.9517  -14.5996    0.0000 C   0  0  0  0  0  0  0  0  0  0  0  0
   12.7767  -14.5996    0.0000 O   0  0  0  0  0  0  0  0  0  0  0  0
   10.1102  -13.8851    0.0000 O   0  0  0  0  0  0  0  0  0  0  0  0
    9.3958  -12.6476    0.0000 O   0  0  0  0  0  0  0  0  0  0  0  0
    9.3958  -13.4726    0.0000 C   0  0  0  0  0  0  0  0  0  0  0  0
    8.6813  -13.8851    0.0000 C   0  0  0  0  0  0  0  0  0  0  0  0
    7.9668  -13.4726    0.0000 C   0  0  0  0  0  0  0  0  0  0  0  0
    7.9668  -12.6476    0.0000 C   0  0  0  0  0  0  0  0  0  0  0  0
    8.6813  -12.2351    0.0000 C   0  0  0  0  0  0  0  0  0  0  0  0
    7.2523  -12.2351    0.0000 O   0  0  0  0  0  0  0  0  0  0  0  0
    7.2523  -13.8851    0.0000 O   0  0  0  0  0  0  0  0  0  0  0  0
    8.6813  -14.7101    0.0000 O   0  0  0  0  0  0  0  0  0  0  0  0
    7.2523  -14.7101    0.0000 O   0  0  0  0  0  0  0  0  0  0  0  0
    7.9668  -15.1226    0.0000 C   0  0  0  0  0  0  0  0  0  0  0  0
    7.9668  -15.9476    0.0000 C   0  0  0  0  0  0  0  0  0  0  0  0
    7.2523  -16.3601    0.0000 C   0  0  0  0  0  0  0  0  0  0  0  0
    6.5379  -15.9476    0.0000 C   0  0  0  0  0  0  0  0  0  0  0  0
    6.5379  -15.1226    0.0000 C   0  0  0  0  0  0  0  0  0  0  0  0
    7.2523  -17.1851    0.0000 O   0  0  0  0  0  0  0  0  0  0  0  0
    8.6813  -17.1851    0.0000 O   0  0  0  0  0  0  0  0  0  0  0  0
    7.9668  -17.5976    0.0000 C   0  0  0  0  0  0  0  0  0  0  0  0
    7.9668  -18.4226    0.0000 C   0  0  0  0  0  0  0  0  0  0  0  0
    8.6813  -18.8351    0.0000 C   0  0  0  0  0  0  0  0  0  0  0  0
    9.3958  -18.4226    0.0000 C   0  0  0  0  0  0  0  0  0  0  0  0
    9.3958  -17.5976    0.0000 C   0  0  0  0  0  0  0  0  0  0  0  0
   10.1102  -17.1851    0.0000 C   0  0  0  0  0  0  0  0  0  0  0  0
   10.8247  -17.5976    0.0000 O   0  0  0  0  0  0  0  0  0  0  0  0
   10.1102  -18.8351    0.0000 O   0  0  0  0  0  0  0  0  0  0  0  0
    8.6813  -19.6601    0.0000 O   0  0  0  0  0  0  0  0  0  0  0  0
    7.2523  -18.8351    0.0000 O   0  0  0  0  0  0  0  0  0  0  0  0
    5.8234  -14.7101    0.0000 C   0  0  0  0  0  0  0  0  0  0  0  0
    5.8234  -16.3601    0.0000 O   0  0  0  0  0  0  0  0  0  0  0  0
    8.6813  -16.3601    0.0000 O   0  0  0  0  0  0  0  0  0  0  0  0
   18.6839  -11.4101    0.0000 O   0  0  0  0  0  0  0  0  0  0  0  0
   17.9694  -11.8226    0.0000 C   0  0  0  0  0  0  0  0  0  0  0  0
   17.9694  -12.6476    0.0000 C   0  0  0  0  0  0  0  0  0  0  0  0
   18.6839  -13.0601    0.0000 C   0  0  0  0  0  0  0  0  0  0  0  0
   19.3983  -12.6476    0.0000 C   0  0  0  0  0  0  0  0  0  0  0  0
   19.3983  -11.8226    0.0000 C   0  0  0  0  0  0  0  0  0  0  0  0
   20.1128  -13.0601    0.0000 O   0  0  0  0  0  0  0  0  0  0  0  0
   18.6839  -13.8851    0.0000 O   0  0  0  0  0  0  0  0  0  0  0  0
   17.2549  -13.0601    0.0000 O   0  0  0  0  0  0  0  0  0  0  0  0
   20.1128  -11.4101    0.0000 C   0  0  0  0  0  0  0  0  0  0  0  0
   20.8273  -11.8226    0.0000 O   0  0  0  0  0  0  0  0  0  0  0  0
   22.2562  -11.8226    0.0000 O   0  0  0  0  0  0  0  0  0  0  0  0
   21.5418  -11.4101    0.0000 C   0  0  0  0  0  0  0  0  0  0  0  0
   21.5418  -10.5851    0.0000 C   0  0  0  0  0  0  0  0  0  0  0  0
   22.2562  -10.1726    0.0000 C   0  0  0  0  0  0  0  0  0  0  0  0
   22.9707  -10.5851    0.0000 C   0  0  0  0  0  0  0  0  0  0  0  0
   22.9707  -11.4101    0.0000 C   0  0  0  0  0  0  0  0  0  0  0  0
   23.6852  -10.1726    0.0000 O   0  0  0  0  0  0  0  0  0  0  0  0
   22.9707   -8.9351    0.0000 O   0  0  0  0  0  0  0  0  0  0  0  0
   23.6852   -9.3476    0.0000 C   0  0  0  0  0  0  0  0  0  0  0  0
   24.3996   -8.9351    0.0000 C   0  0  0  0  0  0  0  0  0  0  0  0
   24.3996   -8.1101    0.0000 C   0  0  0  0  0  0  0  0  0  0  0  0
   23.6852   -7.6976    0.0000 C   0  0  0  0  0  0  0  0  0  0  0  0
   22.9707   -8.1101    0.0000 C   0  0  0  0  0  0  0  0  0  0  0  0
   22.2562   -7.6976    0.0000 C   0  0  0  0  0  0  0  0  0  0  0  0
   23.6852   -6.8726    0.0000 O   0  0  0  0  0  0  0  0  0  0  0  0
   25.1141   -7.6976    0.0000 O   0  0  0  0  0  0  0  0  0  0  0  0
   25.1141   -9.3476    0.0000 O   0  0  0  0  0  0  0  0  0  0  0  0
   23.6852  -11.8226    0.0000 C   0  0  0  0  0  0  0  0  0  0  0  0
   24.3996  -11.4101    0.0000 O   0  0  0  0  0  0  0  0  0  0  0  0
   22.2562   -9.3476    0.0000 O   0  0  0  0  0  0  0  0  0  0  0  0
   20.8273  -10.1726    0.0000 O   0  0  0  0  0  0  0  0  0  0  0  0
   14.2659  -13.2310    0.0000 C   0  0  0  0  0  0  0  0  0  0  0  0
   14.6106  -13.0320    0.0000 C   0  0  0  0  0  0  0  0  0  0  0  0
  1  2  1  0  0  0  0
  2  3  1  0  0  0  0
  3  4  1  0  0  0  0
  4  5  1  0  0  0  0
  5  6  1  0  0  0  0
  6  7  1  0  0  0  0
  7  8  1  0  0  0  0
  8  9  1  0  0  0  0
  9 10  1  0  0  0  0
 10 11  1  0  0  0  0
 11 12  1  0  0  0  0
 12 13  1  0  0  0  0
 13 14  1  0  0  0  0
 14 15  1  0  0  0  0
 15 16  1  0  0  0  0
 16 17  1  0  0  0  0
 12 17  1  0  0  0  0
 17 18  1  0  0  0  0
  9 18  1  0  0  0  0
 18 19  1  0  0  0  0
 19 20  1  0  0  0  0
 20 21  2  0  0  0  0
  8 21  1  0  0  0  0
 21 22  1  0  0  0  0
  5 22  1  0  0  0  0
  1 22  1  0  0  0  0
 23 24  2  0  0  0  0
 23 25  1  0  0  0  0
  5 23  1  0  0  0  0
 17 26  1  0  0  0  0
 13 27  1  0  0  0  0
  2 28  1  0  0  0  0
  2 29  1  0  0  0  0
 30 31  1  0  0  0  0
 13 30  1  0  0  0  0
 33 34  1  0  0  0  0
 34 35  1  0  0  0  0
 35 36  1  0  0  0  0
 36 37  1  0  0  0  0
 37 38  1  0  0  0  0
 33 38  1  0  0  0  0
 37 39  1  0  0  0  0
 36 40  1  0  0  0  0
 42 43  1  0  0  0  0
 43 44  1  0  0  0  0
 44 45  1  0  0  0  0
 45 46  1  0  0  0  0
 46 47  1  0  0  0  0
 42 47  1  0  0  0  0
 49 50  1  0  0  0  0
 50 51  1  0  0  0  0
 51 52  1  0  0  0  0
 52 53  1  0  0  0  0
 53 54  1  0  0  0  0
 49 54  1  0  0  0  0
 55 56  1  0  0  0  0
 54 55  1  0  0  0  0
 53 57  1  0  0  0  0
 52 58  1  0  0  0  0
 51 59  1  0  0  0  0
 48 50  1  0  0  0  0
 45 48  1  0  0  0  0
 47 60  1  0  0  0  0
 46 61  1  0  0  0  0
 44 62  1  0  0  0  0
 41 43  1  0  0  0  0
 35 41  1  0  0  0  0
 32 34  1  0  0  0  0
 14 32  1  0  0  0  0
 63 64  1  0  0  0  0
 64 65  1  0  0  0  0
 65 66  1  0  0  0  0
 66 67  1  0  0  0  0
 67 68  1  0  0  0  0
 63 68  1  0  0  0  0
 67 69  1  0  0  0  0
 66 70  1  0  0  0  0
 65 71  1  0  0  0  0
 74 75  1  0  0  0  0
 75 76  1  0  0  0  0
 76 77  1  0  0  0  0
 77 78  1  0  0  0  0
 78 79  1  0  0  0  0
 74 79  1  0  0  0  0
 81 82  1  0  0  0  0
 82 83  1  0  0  0  0
 83 84  1  0  0  0  0
 84 85  1  0  0  0  0
 85 86  1  0  0  0  0
 81 86  1  0  0  0  0
 86 87  1  0  0  0  0
 85 88  1  0  0  0  0
 84 89  1  0  0  0  0
 83 90  1  0  0  0  0
 80 82  1  0  0  0  0
 78 80  1  0  0  0  0
 91 92  1  0  0  0  0
 79 91  1  0  0  0  0
 77 93  1  0  0  0  0
 76 94  1  0  0  0  0
 73 75  1  0  0  0  0
 72 73  1  0  0  0  0
 68 72  1  0  0  0  0
 25 64  1  0  0  0  0
  9 95  1  0  0  0  0
  8 96  1  0  0  0  0
M  END
>  <cdx:groupId>
823

>  <cdx:fragmentId>
528

$$$$
