195343.cdx
  Mrv1902 05222410252D          

 58 64  0  0  0  0            999 V2000
    6.8370   -8.1056    0.0000 C   0  0  0  0  0  0  0  0  0  0  0  0
    6.8370   -8.9306    0.0000 C   0  0  1  0  0  0  0  0  0  0  0  0
    7.5515   -9.3431    0.0000 C   0  0  2  0  0  0  0  0  0  0  0  0
    8.2660   -8.9306    0.0000 C   0  0  1  0  0  0  0  0  0  0  0  0
    8.2660   -8.1056    0.0000 C   0  0  2  0  0  0  0  0  0  0  0  0
    7.5515   -7.6931    0.0000 C   0  0  0  0  0  0  0  0  0  0  0  0
    8.9804   -9.3431    0.0000 C   0  0  0  0  0  0  0  0  0  0  0  0
    9.6949   -8.9306    0.0000 C   0  0  0  0  0  0  0  0  0  0  0  0
    9.6949   -8.1056    0.0000 C   0  0  2  0  0  0  0  0  0  0  0  0
    8.9804   -7.6931    0.0000 C   0  0  2  0  0  0  0  0  0  0  0  0
   10.4094   -7.6931    0.0000 C   0  0  1  0  0  0  0  0  0  0  0  0
   10.4094   -6.8681    0.0000 C   0  0  0  0  0  0  0  0  0  0  0  0
    9.6949   -6.4556    0.0000 C   0  0  0  0  0  0  0  0  0  0  0  0
    8.9804   -6.8681    0.0000 C   0  0  0  0  0  0  0  0  0  0  0  0
   11.1239   -8.1056    0.0000 C   0  0  0  0  0  0  0  0  0  0  0  0
   11.8383   -7.6931    0.0000 C   0  0  0  0  0  0  0  0  0  0  0  0
   11.8383   -6.8681    0.0000 C   0  0  2  0  0  0  0  0  0  0  0  0
   11.1239   -6.4556    0.0000 C   0  0  1  0  0  0  0  0  0  0  0  0
   12.5528   -6.4556    0.0000 C   0  0  0  0  0  0  0  0  0  0  0  0
   12.5528   -5.6306    0.0000 C   0  0  0  0  0  0  0  0  0  0  0  0
   11.8383   -5.2181    0.0000 C   0  0  1  0  0  0  0  0  0  0  0  0
   11.1239   -5.6306    0.0000 C   0  0  0  0  0  0  0  0  0  0  0  0
    7.1390  -10.0576    0.0000 C   0  0  0  0  0  0  0  0  0  0  0  0
    7.9640  -10.0576    0.0000 C   0  0  0  0  0  0  0  0  0  0  0  0
   12.2508   -4.5037    0.0000 C   0  0  0  0  0  0  0  0  0  0  0  0
   13.0758   -4.5037    0.0000 O   0  0  0  0  0  0  0  0  0  0  0  0
   11.8383   -3.7892    0.0000 O   0  0  0  0  0  0  0  0  0  0  0  0
    6.1226   -9.3431    0.0000 O   0  0  0  0  0  0  0  0  0  0  0  0
    8.2660   -7.2806    0.0000 C   0  0  0  0  0  0  0  0  0  0  0  0
    9.6949   -7.2806    0.0000 C   0  0  0  0  0  0  0  0  0  0  0  0
   10.4094   -6.0431    0.0000 H   0  0  0  0  0  0  0  0  0  0  0  0
   12.5528   -7.2806    0.0000 C   0  0  0  0  0  0  0  0  0  0  0  0
   11.4258   -4.5037    0.0000 C   0  0  0  0  0  0  0  0  0  0  0  0
   10.4094   -8.5181    0.0000 C   0  0  0  0  0  0  0  0  0  0  0  0
    8.9804   -8.5181    0.0000 H   0  0  0  0  0  0  0  0  0  0  0  0
    8.2660   -9.7556    0.0000 H   0  0  0  0  0  0  0  0  0  0  0  0
    8.2660   -6.4556    0.0000 O   0  0  0  0  0  0  0  0  0  0  0  0
    5.4081   -8.9306    0.0000 C   0  0  1  0  0  0  0  0  0  0  0  0
    5.4081   -8.1056    0.0000 O   0  0  0  0  0  0  0  0  0  0  0  0
    4.6936   -7.6931    0.0000 C   0  0  1  0  0  0  0  0  0  0  0  0
    3.9791   -8.1056    0.0000 C   0  0  2  0  0  0  0  0  0  0  0  0
    3.9791   -8.9306    0.0000 C   0  0  1  0  0  0  0  0  0  0  0  0
    4.6936   -9.3431    0.0000 C   0  0  1  0  0  0  0  0  0  0  0  0
    4.6936   -6.8681    0.0000 C   0  0  0  0  0  0  0  0  0  0  0  0
    3.2647   -9.3431    0.0000 O   0  0  0  0  0  0  0  0  0  0  0  0
    3.2647   -7.6931    0.0000 O   0  0  0  0  0  0  0  0  0  0  0  0
    4.6936  -10.1681    0.0000 O   0  0  0  0  0  0  0  0  0  0  0  0
    5.4081   -6.4556    0.0000 O   0  0  0  0  0  0  0  0  0  0  0  0
    3.9791   -6.4556    0.0000 O   0  0  0  0  0  0  0  0  0  0  0  0
    5.3614  -10.6526    0.0000 C   0  0  1  0  0  0  0  0  0  0  0  0
    5.3619  -11.4776    0.0000 C   0  0  1  0  0  0  0  0  0  0  0  0
    6.1466  -11.7321    0.0000 C   0  0  1  0  0  0  0  0  0  0  0  0
    6.6311  -11.0644    0.0000 C   0  0  0  0  0  0  0  0  0  0  0  0
    6.1458  -10.3972    0.0000 O   0  0  0  0  0  0  0  0  0  0  0  0
    4.6947  -11.9630    0.0000 O   0  0  0  0  0  0  0  0  0  0  0  0
    6.4021  -12.5166    0.0000 O   0  0  0  0  0  0  0  0  0  0  0  0
    6.9616  -11.8607    0.0000 C   0  0  0  0  0  0  0  0  0  0  0  0
    7.4804  -11.2192    0.0000 O   0  0  0  0  0  0  0  0  0  0  0  0
  1  2  1  0  0  0  0
  2  3  1  0  0  0  0
  3  4  1  0  0  0  0
  4  5  1  0  0  0  0
  5  6  1  0  0  0  0
  6  1  1  0  0  0  0
  4  7  1  0  0  0  0
  7  8  1  0  0  0  0
  8  9  1  0  0  0  0
  9 10  1  0  0  0  0
 10  5  1  0  0  0  0
  9 11  1  0  0  0  0
 11 12  1  0  0  0  0
 12 13  2  0  0  0  0
 13 14  1  0  0  0  0
 14 10  1  0  0  0  0
 11 15  1  0  0  0  0
 15 16  1  0  0  0  0
 16 17  1  0  0  0  0
 17 18  1  0  0  0  0
 18 12  1  0  0  0  0
 17 19  1  0  0  0  0
 19 20  1  0  0  0  0
 20 21  1  0  0  0  0
 21 22  1  0  0  0  0
 22 18  1  0  0  0  0
  3 23  1  6  0  0  0
  3 24  1  1  0  0  0
 21 25  1  1  0  0  0
 25 26  1  0  0  0  0
 25 27  2  0  0  0  0
  2 28  1  1  0  0  0
  5 29  1  1  0  0  0
  9 30  1  1  0  0  0
 18 31  1  1  0  0  0
 17 32  1  1  0  0  0
 21 33  1  6  0  0  0
 11 34  1  6  0  0  0
 10 35  1  6  0  0  0
  4 36  1  6  0  0  0
 14 37  2  0  0  0  0
 38 28  1  6  0  0  0
 38 39  1  0  0  0  0
 39 40  1  0  0  0  0
 40 41  1  0  0  0  0
 41 42  1  0  0  0  0
 42 43  1  0  0  0  0
 43 38  1  0  0  0  0
 40 44  1  1  0  0  0
 42 45  1  1  0  0  0
 41 46  1  6  0  0  0
 43 47  1  6  0  0  0
 44 48  2  0  0  0  0
 44 49  1  0  0  0  0
 50 47  1  6  0  0  0
 50 51  1  0  0  0  0
 51 52  1  0  0  0  0
 52 53  1  0  0  0  0
 53 54  1  0  0  0  0
 54 50  1  0  0  0  0
 51 55  1  1  0  0  0
 52 56  1  1  0  0  0
 52 57  1  0  0  0  0
 57 58  1  0  0  0  0
M  END
>  <cdx:fragmentId>
4796

$$$$
