1954.cdx
  Mrv1902 05222410242D          

 20 22  0  0  0  0            999 V2000
    8.5375   -6.8873    0.0000 O   0  0  0  0  0  0  0  0  0  0  0  0
   10.7049   -4.0178    0.0000 O   0  0  0  0  0  0  0  0  0  0  0  0
    4.2646   -5.2015    0.0000 O   0  0  0  0  0  0  0  0  0  0  0  0
    5.6728   -7.6884    0.0000 O   0  0  0  0  0  0  0  0  0  0  0  0
    9.9801   -5.2493    0.0000 C   0  0  0  0  0  0  0  0  0  0  0  0
    9.9870   -4.4243    0.0000 C   0  0  0  0  0  0  0  0  0  0  0  0
    9.2760   -4.0058    0.0000 C   0  0  0  0  0  0  0  0  0  0  0  0
    8.5581   -4.4124    0.0000 C   0  0  0  0  0  0  0  0  0  0  0  0
    9.2622   -5.6558    0.0000 C   0  0  0  0  0  0  0  0  0  0  0  0
    8.5512   -5.2373    0.0000 C   0  0  0  0  0  0  0  0  0  0  0  0
    7.1086   -6.8753    0.0000 C   0  0  0  0  0  0  0  0  0  0  0  0
    7.8265   -6.4688    0.0000 C   0  0  1  0  0  0  0  0  0  0  0  0
    7.8334   -5.6438    0.0000 C   0  0  1  0  0  0  0  0  0  0  0  0
    7.1224   -5.2254    0.0000 O   0  0  0  0  0  0  0  0  0  0  0  0
    5.6797   -6.8634    0.0000 C   0  0  0  0  0  0  0  0  0  0  0  0
    6.3976   -6.4569    0.0000 C   0  0  0  0  0  0  0  0  0  0  0  0
    6.4045   -5.6319    0.0000 C   0  0  0  0  0  0  0  0  0  0  0  0
    5.6935   -5.2135    0.0000 C   0  0  0  0  0  0  0  0  0  0  0  0
    4.9756   -5.6200    0.0000 C   0  0  0  0  0  0  0  0  0  0  0  0
    4.9687   -6.4449    0.0000 C   0  0  0  0  0  0  0  0  0  0  0  0
 12  1  1  1  0  0  0
  6  2  1  0  0  0  0
 19  3  1  0  0  0  0
 15  4  1  0  0  0  0
  5  9  2  0  0  0  0
  6  5  1  0  0  0  0
  7  6  2  0  0  0  0
  8  7  1  0  0  0  0
 10  8  2  0  0  0  0
 10  9  1  0  0  0  0
 13 10  1  1  0  0  0
 11 16  1  0  0  0  0
 12 11  1  0  0  0  0
 13 12  1  0  0  0  0
 14 13  1  0  0  0  0
 17 14  1  0  0  0  0
 15 20  1  0  0  0  0
 16 15  2  0  0  0  0
 17 16  1  0  0  0  0
 18 17  2  0  0  0  0
 19 18  1  0  0  0  0
 20 19  2  0  0  0  0
M  END
>  <cdx:fragmentId>
5

$$$$
