195428.cdx
  Mrv1902 05222410212D          

 27 28  0  0  0  0            999 V2000
    8.1599  -15.5934    0.0000 C   0  0  0  0  0  0  0  0  0  0  0  0
    8.1599  -14.7684    0.0000 C   0  0  0  0  0  0  0  0  0  0  0  0
    8.8743  -14.3559    0.0000 C   0  0  0  0  0  0  0  0  0  0  0  0
    9.5888  -14.7684    0.0000 C   0  0  0  0  0  0  0  0  0  0  0  0
    9.5888  -15.5934    0.0000 C   0  0  0  0  0  0  0  0  0  0  0  0
    8.8743  -16.0059    0.0000 C   0  0  0  0  0  0  0  0  0  0  0  0
    7.4454  -16.0059    0.0000 O   0  0  0  0  0  0  0  0  0  0  0  0
    7.4454  -14.3559    0.0000 C   0  0  0  0  0  0  0  0  0  0  0  0
    6.7309  -14.7684    0.0000 C   0  0  0  0  0  0  0  0  0  0  0  0
    6.0165  -14.3559    0.0000 C   0  0  0  0  0  0  0  0  0  0  0  0
   10.3033  -16.0059    0.0000 O   0  0  0  0  0  0  0  0  0  0  0  0
   10.3033  -16.8309    0.0000 C   0  0  0  0  0  0  0  0  0  0  0  0
   10.4138  -14.7684    0.0000 O   0  0  0  0  0  0  0  0  0  0  0  0
   10.8263  -15.4829    0.0000 C   0  0  0  0  0  0  0  0  0  0  0  0
    9.5888  -13.3395    0.0000 C   0  0  0  0  0  0  0  0  0  0  0  0
   10.0013  -14.0539    0.0000 C   0  0  0  0  0  0  0  0  0  0  0  0
   10.8263  -14.0539    0.0000 C   0  0  0  0  0  0  0  0  0  0  0  0
   10.0013  -12.6250    0.0000 C   0  0  0  0  0  0  0  0  0  0  0  0
   10.8263  -12.6250    0.0000 C   0  0  0  0  0  0  0  0  0  0  0  0
   11.2388  -11.9105    0.0000 C   0  0  0  0  0  0  0  0  0  0  0  0
   10.8263  -11.1961    0.0000 C   0  0  0  0  0  0  0  0  0  0  0  0
   10.0013  -11.1961    0.0000 C   0  0  0  0  0  0  0  0  0  0  0  0
    9.5888  -11.9105    0.0000 C   0  0  0  0  0  0  0  0  0  0  0  0
   11.2388  -10.4816    0.0000 O   0  0  0  0  0  0  0  0  0  0  0  0
   12.0638  -10.4816    0.0000 C   0  0  0  0  0  0  0  0  0  0  0  0
   12.0638  -11.9105    0.0000 O   0  0  0  0  0  0  0  0  0  0  0  0
   12.4763  -12.6250    0.0000 C   0  0  0  0  0  0  0  0  0  0  0  0
  1  2  1  0  0  0  0
  2  3  2  0  0  0  0
  3  4  1  0  0  0  0
  4  5  1  0  0  0  0
  5  6  2  0  0  0  0
  1  6  1  0  0  0  0
  1  7  2  0  0  0  0
  8  9  1  0  0  0  0
  9 10  2  0  0  0  0
  2  8  1  0  0  0  0
 11 12  1  0  0  0  0
  5 11  1  0  0  0  0
 13 14  1  0  0  0  0
  4 13  1  0  0  0  0
 15 16  2  0  0  0  0
 16 17  1  0  0  0  0
 18 19  1  0  0  0  0
 19 20  2  0  0  0  0
 20 21  1  0  0  0  0
 21 22  2  0  0  0  0
 22 23  1  0  0  0  0
 18 23  2  0  0  0  0
 24 25  1  0  0  0  0
 21 24  1  0  0  0  0
 26 27  1  0  0  0  0
 20 26  1  0  0  0  0
 15 18  1  0  0  0  0
  4 16  1  0  0  0  0
M  END
>  <cdx:fragmentId>
44878

$$$$
