19543.cdx
  Mrv1902 05222410282D          

  7  6  0  0  0  0            999 V2000
    5.2817   -3.1691    0.0000 C   0  0  0  0  0  0  0  0  0  0  0  0
    4.5672   -2.7566    0.0000 C   0  0  0  0  0  0  0  0  0  0  0  0
    3.8527   -3.1691    0.0000 C   0  0  0  0  0  0  0  0  0  0  0  0
    3.1383   -2.7566    0.0000 C   0  0  0  0  0  0  0  0  0  0  0  0
    3.1383   -1.9316    0.0000 C   0  0  0  0  0  0  0  0  0  0  0  0
    4.5672   -1.9316    0.0000 O   0  0  0  0  0  0  0  0  0  0  0  0
    2.4238   -3.1691    0.0000 C   0  0  0  0  0  0  0  0  0  0  0  0
  1  2  1  0  0  0  0
  2  3  1  0  0  0  0
  3  4  1  0  0  0  0
  4  5  2  0  0  0  0
  2  6  2  0  0  0  0
  4  7  1  0  0  0  0
M  END
>  <cdx:groupId>
22

>  <cdx:fragmentId>
5

$$$$
