195743.cdx
  Mrv1902 05222410242D          

 57 61  0  0  0  0            999 V2000
    5.6093   -8.6022    0.0000 C   0  0  0  0  0  0  0  0  0  0  0  0
    4.8948   -9.0147    0.0000 C   0  0  0  0  0  0  0  0  0  0  0  0
    4.1804   -8.6022    0.0000 C   0  0  0  0  0  0  0  0  0  0  0  0
    5.6093   -7.7772    0.0000 O   0  0  0  0  0  0  0  0  0  0  0  0
    6.3238   -9.0147    0.0000 O   0  0  0  0  0  0  0  0  0  0  0  0
    3.4659   -9.0147    0.0000 C   0  0  0  0  0  0  0  0  0  0  0  0
    2.7514   -8.6022    0.0000 C   0  0  0  0  0  0  0  0  0  0  0  0
    2.0370   -9.0147    0.0000 C   0  0  0  0  0  0  0  0  0  0  0  0
    2.0370   -9.8397    0.0000 C   0  0  0  0  0  0  0  0  0  0  0  0
    2.7514  -10.2522    0.0000 C   0  0  0  0  0  0  0  0  0  0  0  0
    3.4659   -9.8397    0.0000 C   0  0  0  0  0  0  0  0  0  0  0  0
    1.3225  -10.2522    0.0000 O   0  0  0  0  0  0  0  0  0  0  0  0
    1.3225   -8.6022    0.0000 O   0  0  0  0  0  0  0  0  0  0  0  0
    7.7527   -7.3647    0.0000 O   0  0  0  0  0  0  0  0  0  0  0  0
    7.0383   -7.7772    0.0000 C   0  0  1  0  0  0  0  0  0  0  0  0
    7.0383   -8.6022    0.0000 C   0  0  2  0  0  0  0  0  0  0  0  0
    7.7527   -9.0147    0.0000 C   0  0  1  0  0  0  0  0  0  0  0  0
    8.4672   -8.6022    0.0000 C   0  0  2  0  0  0  0  0  0  0  0  0
    8.4672   -7.7772    0.0000 C   0  0  2  0  0  0  0  0  0  0  0  0
    6.3238   -7.3647    0.0000 C   0  0  0  0  0  0  0  0  0  0  0  0
    6.3238   -6.5397    0.0000 O   0  0  0  0  0  0  0  0  0  0  0  0
    4.8948   -6.5397    0.0000 O   0  0  0  0  0  0  0  0  0  0  0  0
    5.6093   -6.1272    0.0000 C   0  0  1  0  0  0  0  0  0  0  0  0
    5.6093   -5.3022    0.0000 C   0  0  2  0  0  0  0  0  0  0  0  0
    4.8948   -4.8897    0.0000 C   0  0  2  0  0  0  0  0  0  0  0  0
    4.1804   -5.3022    0.0000 C   0  0  1  0  0  0  0  0  0  0  0  0
    4.1804   -6.1272    0.0000 C   0  0  1  0  0  0  0  0  0  0  0  0
    3.4659   -6.5397    0.0000 C   0  0  0  0  0  0  0  0  0  0  0  0
    3.4659   -4.8897    0.0000 O   0  0  0  0  0  0  0  0  0  0  0  0
    4.8948   -4.0647    0.0000 O   0  0  0  0  0  0  0  0  0  0  0  0
    6.3238   -4.8897    0.0000 O   0  0  0  0  0  0  0  0  0  0  0  0
    7.7527   -9.8397    0.0000 O   0  0  0  0  0  0  0  0  0  0  0  0
    6.3238   -9.8397    0.0000 O   0  0  0  0  0  0  0  0  0  0  0  0
    7.0383  -10.2522    0.0000 C   0  0  2  0  0  0  0  0  0  0  0  0
    7.0383  -11.0772    0.0000 C   0  0  1  0  0  0  0  0  0  0  0  0
    6.3238  -11.4897    0.0000 C   0  0  1  0  0  0  0  0  0  0  0  0
    5.6093  -11.0772    0.0000 C   0  0  2  0  0  0  0  0  0  0  0  0
    5.6093  -10.2522    0.0000 C   0  0  2  0  0  0  0  0  0  0  0  0
    4.8948   -9.8397    0.0000 C   0  0  0  0  0  0  0  0  0  0  0  0
    4.8948  -11.4897    0.0000 O   0  0  0  0  0  0  0  0  0  0  0  0
    6.3238  -12.3147    0.0000 O   0  0  0  0  0  0  0  0  0  0  0  0
    7.7527  -11.4897    0.0000 O   0  0  0  0  0  0  0  0  0  0  0  0
    9.8961  -10.2522    0.0000 C   0  0  0  0  0  0  0  0  0  0  0  0
   12.0396   -9.8397    0.0000 O   0  0  0  0  0  0  0  0  0  0  0  0
   13.4685   -9.0147    0.0000 O   0  0  0  0  0  0  0  0  0  0  0  0
   12.0396   -7.3647    0.0000 C   0  0  0  0  0  0  0  0  0  0  0  0
   12.7540   -7.7772    0.0000 C   0  0  0  0  0  0  0  0  0  0  0  0
   12.7540   -8.6022    0.0000 C   0  0  0  0  0  0  0  0  0  0  0  0
   12.0396   -9.0147    0.0000 C   0  0  0  0  0  0  0  0  0  0  0  0
   11.3251   -8.6022    0.0000 C   0  0  0  0  0  0  0  0  0  0  0  0
   11.3251   -7.7772    0.0000 C   0  0  0  0  0  0  0  0  0  0  0  0
   10.6106   -7.3647    0.0000 C   0  0  0  0  0  0  0  0  0  0  0  0
    9.8961   -7.7772    0.0000 C   0  0  0  0  0  0  0  0  0  0  0  0
    9.1817   -7.3647    0.0000 O   0  0  0  0  0  0  0  0  0  0  0  0
    8.4672  -10.2522    0.0000 O   0  0  0  0  0  0  0  0  0  0  0  0
    9.1817   -9.8397    0.0000 C   0  0  0  0  0  0  0  0  0  0  0  0
    9.1817   -9.0147    0.0000 O   0  0  0  0  0  0  0  0  0  0  0  0
 52 51  1  0  0  0  0
 49 44  1  0  0  0  0
 48 45  1  0  0  0  0
 51 46  2  0  0  0  0
 47 46  1  0  0  0  0
 48 47  2  0  0  0  0
 49 48  1  0  0  0  0
 50 49  2  0  0  0  0
 51 50  1  0  0  0  0
 54 53  1  0  0  0  0
 53 52  1  0  0  0  0
 57 56  1  0  0  0  0
 56 43  1  0  0  0  0
 56 55  2  0  0  0  0
  1  2  1  0  0  0  0
  2  3  2  0  0  0  0
  1  4  2  0  0  0  0
  1  5  1  0  0  0  0
  6  7  1  0  0  0  0
  7  8  2  0  0  0  0
  8  9  1  0  0  0  0
  9 10  2  0  0  0  0
 10 11  1  0  0  0  0
  6 11  2  0  0  0  0
  9 12  1  0  0  0  0
  8 13  1  0  0  0  0
  3  6  1  0  0  0  0
 14 15  1  0  0  0  0
 15 16  1  0  0  0  0
 16 17  1  0  0  0  0
 17 18  1  0  0  0  0
 18 19  1  0  0  0  0
 14 19  1  0  0  0  0
 22 23  1  0  0  0  0
 23 24  1  0  0  0  0
 24 25  1  0  0  0  0
 25 26  1  0  0  0  0
 26 27  1  0  0  0  0
 22 27  1  0  0  0  0
 27 28  1  6  0  0  0
 26 29  1  1  0  0  0
 25 30  1  6  0  0  0
 24 31  1  6  0  0  0
 23 21  1  1  0  0  0
 20 21  1  0  0  0  0
 15 20  1  1  0  0  0
 33 34  1  0  0  0  0
 34 35  1  0  0  0  0
 35 36  1  0  0  0  0
 36 37  1  0  0  0  0
 37 38  1  0  0  0  0
 33 38  1  0  0  0  0
 38 39  1  6  0  0  0
 37 40  1  1  0  0  0
 36 41  1  6  0  0  0
 35 42  1  6  0  0  0
 34 32  1  1  0  0  0
 17 32  1  1  0  0  0
 19 54  1  1  0  0  0
 18 57  1  6  0  0  0
 16  5  1  6  0  0  0
M  END
>  <cdx:fragmentId>
47

$$$$
