19602.cdx
  Mrv1902 05222410192D          

 10 10  0  0  0  0            999 V2000
    6.5391   -2.9884    0.0000 O   0  0  0  0  0  0  0  0  0  0  0  0
    5.7854   -2.6529    0.0000 C   0  0  0  0  0  0  0  0  0  0  0  0
    5.8717   -1.8324    0.0000 C   0  0  0  0  0  0  0  0  0  0  0  0
    6.6786   -1.6609    0.0000 C   0  0  0  0  0  0  0  0  0  0  0  0
    7.0911   -2.3753    0.0000 C   0  0  0  0  0  0  0  0  0  0  0  0
    5.0710   -3.0654    0.0000 C   0  0  0  0  0  0  0  0  0  0  0  0
    4.3565   -2.6529    0.0000 C   0  0  0  0  0  0  0  0  0  0  0  0
    3.6420   -3.0654    0.0000 C   0  0  0  0  0  0  0  0  0  0  0  0
    2.9276   -2.6529    0.0000 C   0  0  0  0  0  0  0  0  0  0  0  0
    2.2131   -3.0654    0.0000 C   0  0  0  0  0  0  0  0  0  0  0  0
  1  2  1  0  0  0  0
  2  3  2  0  0  0  0
  3  4  1  0  0  0  0
  4  5  2  0  0  0  0
  1  5  1  0  0  0  0
  6  7  1  0  0  0  0
  7  8  1  0  0  0  0
  8  9  1  0  0  0  0
  9 10  1  0  0  0  0
  2  6  1  0  0  0  0
M  END
>  <cdx:groupId>
32

>  <cdx:fragmentId>
5

$$$$
