102196065.cdx
  Mrv1902 05222410252D          

 23 24  0  0  0  0            999 V2000
    6.5290  -14.8820    0.0000 C   0  0  0  0  0  0  0  0  0  0  0  0
    5.8146  -15.2945    0.0000 C   0  0  0  0  0  0  0  0  0  0  0  0
    6.5290  -14.0570    0.0000 O   0  0  0  0  0  0  0  0  0  0  0  0
    7.2435  -15.2945    0.0000 O   0  0  0  0  0  0  0  0  0  0  0  0
    3.6711  -14.8820    0.0000 C   0  0  2  0  0  0  0  0  0  0  0  0
    4.3856  -15.2945    0.0000 C   0  0  0  0  0  0  0  0  0  0  0  0
    5.1001  -14.8820    0.0000 C   0  0  1  0  0  0  0  0  0  0  0  0
    5.1001  -14.0570    0.0000 C   0  0  0  0  0  0  0  0  0  0  0  0
    4.3856  -13.6445    0.0000 C   0  0  0  0  0  0  0  0  0  0  0  0
    3.6711  -14.0570    0.0000 O   0  0  0  0  0  0  0  0  0  0  0  0
    2.9567  -15.2945    0.0000 O   0  0  0  0  0  0  0  0  0  0  0  0
    4.3856  -16.1195    0.0000 C   0  0  0  0  0  0  0  0  0  0  0  0
    5.1001  -16.5320    0.0000 C   0  0  0  0  0  0  0  0  0  0  0  0
    7.9580  -14.8820    0.0000 C   0  0  0  0  0  0  0  0  0  0  0  0
    8.6724  -15.2945    0.0000 C   0  0  0  0  0  0  0  0  0  0  0  0
    9.3869  -14.8820    0.0000 C   0  0  0  0  0  0  0  0  0  0  0  0
   10.1014  -15.2945    0.0000 C   0  0  0  0  0  0  0  0  0  0  0  0
   10.8159  -14.8820    0.0000 C   0  0  0  0  0  0  0  0  0  0  0  0
   10.8159  -14.0570    0.0000 C   0  0  0  0  0  0  0  0  0  0  0  0
   10.1014  -13.6445    0.0000 C   0  0  0  0  0  0  0  0  0  0  0  0
    9.3869  -14.0570    0.0000 C   0  0  0  0  0  0  0  0  0  0  0  0
   11.5303  -13.6445    0.0000 O   0  0  0  0  0  0  0  0  0  0  0  0
   11.5303  -15.2945    0.0000 O   0  0  0  0  0  0  0  0  0  0  0  0
  1  2  1  0  0  0  0
  1  3  2  0  0  0  0
  1  4  1  0  0  0  0
  5  6  1  0  0  0  0
  6  7  1  0  0  0  0
  7  8  1  0  0  0  0
  8  9  2  0  0  0  0
  9 10  1  0  0  0  0
  5 10  1  0  0  0  0
  5 11  1  1  0  0  0
 12 13  1  0  0  0  0
  6 12  2  0  0  0  0
  7  2  1  1  0  0  0
 14 15  1  0  0  0  0
 16 17  1  0  0  0  0
 17 18  2  0  0  0  0
 18 19  1  0  0  0  0
 19 20  2  0  0  0  0
 20 21  1  0  0  0  0
 16 21  2  0  0  0  0
 19 22  1  0  0  0  0
 18 23  1  0  0  0  0
 15 16  1  0  0  0  0
  4 14  1  0  0  0  0
M  END
>  <cdx:groupId>
24392

>  <cdx:fragmentId>
24333

$$$$
