19603.cdx
  Mrv1902 05222410192D          

 12 12  0  0  0  0            999 V2000
    9.8908   -5.2778    0.0000 O   0  0  0  0  0  0  0  0  0  0  0  0
    9.1372   -4.9422    0.0000 C   0  0  0  0  0  0  0  0  0  0  0  0
    9.2234   -4.1218    0.0000 C   0  0  0  0  0  0  0  0  0  0  0  0
   10.0304   -3.9502    0.0000 C   0  0  0  0  0  0  0  0  0  0  0  0
   10.4429   -4.6647    0.0000 C   0  0  0  0  0  0  0  0  0  0  0  0
    8.4227   -5.3547    0.0000 C   0  0  0  0  0  0  0  0  0  0  0  0
    7.7082   -4.9422    0.0000 C   0  0  0  0  0  0  0  0  0  0  0  0
    6.9937   -5.3547    0.0000 C   0  0  0  0  0  0  0  0  0  0  0  0
    6.2793   -4.9422    0.0000 C   0  0  0  0  0  0  0  0  0  0  0  0
    5.5648   -5.3547    0.0000 C   0  0  0  0  0  0  0  0  0  0  0  0
    4.8503   -4.9422    0.0000 C   0  0  0  0  0  0  0  0  0  0  0  0
    4.1359   -5.3547    0.0000 C   0  0  0  0  0  0  0  0  0  0  0  0
  1  2  1  0  0  0  0
  2  3  2  0  0  0  0
  3  4  1  0  0  0  0
  4  5  2  0  0  0  0
  1  5  1  0  0  0  0
  6  7  1  0  0  0  0
  7  8  1  0  0  0  0
  8  9  1  0  0  0  0
  9 10  1  0  0  0  0
 10 11  1  0  0  0  0
 11 12  1  0  0  0  0
  2  6  1  0  0  0  0
M  END
>  <cdx:fragmentId>
47

$$$$
