196216.cdx
  Mrv1902 05222410262D          

 17 17  0  0  0  0            999 V2000
    9.7414   -6.2065    0.0000 C   0  0  0  0  0  0  0  0  0  0  0  0
    9.7414   -7.0315    0.0000 C   0  0  0  0  0  0  0  0  0  0  0  0
    9.0269   -7.4440    0.0000 C   0  0  0  0  0  0  0  0  0  0  0  0
    8.3125   -7.0315    0.0000 C   0  0  0  0  0  0  0  0  0  0  0  0
    7.5980   -7.4440    0.0000 C   0  0  0  0  0  0  0  0  0  0  0  0
    6.8835   -7.0315    0.0000 C   0  0  2  0  0  0  0  0  0  0  0  0
    6.8835   -6.2065    0.0000 C   0  0  0  0  0  0  0  0  0  0  0  0
    8.3125   -6.2065    0.0000 O   0  0  0  0  0  0  0  0  0  0  0  0
    6.1690   -7.4440    0.0000 C   0  0  2  0  0  0  0  0  0  0  0  0
    6.1690   -8.2690    0.0000 C   0  0  0  0  0  0  0  0  0  0  0  0
    5.4546   -8.6815    0.0000 C   0  0  0  0  0  0  0  0  0  0  0  0
    4.7401   -8.2690    0.0000 C   0  0  0  0  0  0  0  0  0  0  0  0
    4.7401   -7.4440    0.0000 C   0  0  0  0  0  0  0  0  0  0  0  0
    5.4546   -7.0315    0.0000 C   0  0  0  0  0  0  0  0  0  0  0  0
    4.0256   -8.6815    0.0000 C   0  0  0  0  0  0  0  0  0  0  0  0
   10.4559   -7.4440    0.0000 C   0  0  0  0  0  0  0  0  0  0  0  0
    6.8835   -7.8565    0.0000 H   0  0  0  0  0  0  0  0  0  0  0  0
  1  2  1  0  0  0  0
  2  3  2  0  0  0  0
  3  4  1  0  0  0  0
  4  5  1  0  0  0  0
  5  6  1  0  0  0  0
  6  7  1  1  0  0  0
  4  8  2  0  0  0  0
  9 10  1  0  0  0  0
 10 11  2  0  0  0  0
 11 12  1  0  0  0  0
 12 13  1  0  0  0  0
 13 14  1  0  0  0  0
  9 14  1  0  0  0  0
 12 15  2  0  0  0  0
  6  9  1  0  0  0  0
  2 16  1  0  0  0  0
  9 17  1  1  0  0  0
M  END
>  <cdx:fragmentId>
108476

$$$$
