196402.cdx
  Mrv1902 05222410272D          

 54 63  0  0  0  0            999 V2000
    7.2649   -8.4644    0.0000 C   0  0  0  0  0  0  0  0  0  0  0  0
    6.4400   -8.4497    0.0000 C   0  0  2  0  0  0  0  0  0  0  0  0
    6.2353   -7.6508    0.0000 C   0  0  2  0  0  0  0  0  0  0  0  0
    5.4104   -7.6360    0.0000 O   0  0  0  0  0  0  0  0  0  0  0  0
    5.1762   -8.4271    0.0000 C   0  0  0  0  0  0  0  0  0  0  0  0
    4.3960   -8.6953    0.0000 C   0  0  0  0  0  0  0  0  0  0  0  0
    4.2383   -9.5051    0.0000 C   0  0  0  0  0  0  0  0  0  0  0  0
    4.8607  -10.0466    0.0000 C   0  0  0  0  0  0  0  0  0  0  0  0
    5.6408   -9.7784    0.0000 C   0  0  0  0  0  0  0  0  0  0  0  0
    6.0405  -10.5001    0.0000 C   0  0  1  0  0  0  0  0  0  0  0  0
    5.4509  -11.0768    0.0000 C   0  0  1  0  0  0  0  0  0  0  0  0
    5.8506  -11.7985    0.0000 O   0  0  0  0  0  0  0  0  0  0  0  0
    6.6528  -11.6059    0.0000 C   0  0  0  0  0  0  0  0  0  0  0  0
    7.2752  -12.1474    0.0000 C   0  0  0  0  0  0  0  0  0  0  0  0
    8.0553  -11.8791    0.0000 C   0  0  0  0  0  0  0  0  0  0  0  0
    8.2131  -11.0694    0.0000 C   0  0  0  0  0  0  0  0  0  0  0  0
    7.5907  -10.5278    0.0000 C   0  0  0  0  0  0  0  0  0  0  0  0
    8.0159   -9.8209    0.0000 C   0  0  1  0  0  0  0  0  0  0  0  0
    8.8102  -10.0431    0.0000 C   0  0  1  0  0  0  0  0  0  0  0  0
    9.2354   -9.3361    0.0000 O   0  0  0  0  0  0  0  0  0  0  0  0
    8.6674   -8.7377    0.0000 C   0  0  0  0  0  0  0  0  0  0  0  0
    8.8252   -7.9279    0.0000 C   0  0  0  0  0  0  0  0  0  0  0  0
    8.2028   -7.3864    0.0000 C   0  0  0  0  0  0  0  0  0  0  0  0
    7.4226   -7.6547    0.0000 C   0  0  0  0  0  0  0  0  0  0  0  0
    7.8872   -9.0060    0.0000 C   0  0  0  0  0  0  0  0  0  0  0  0
    6.8106  -10.7961    0.0000 C   0  0  0  0  0  0  0  0  0  0  0  0
    5.7986   -8.9686    0.0000 C   0  0  0  0  0  0  0  0  0  0  0  0
    3.4581   -9.7733    0.0000 O   0  0  0  0  0  0  0  0  0  0  0  0
    8.6777  -12.4207    0.0000 O   0  0  0  0  0  0  0  0  0  0  0  0
    8.3606   -6.5766    0.0000 O   0  0  0  0  0  0  0  0  0  0  0  0
    9.2098  -10.7648    0.0000 C   0  0  0  0  0  0  0  0  0  0  0  0
   10.0347  -10.7796    0.0000 C   0  0  0  0  0  0  0  0  0  0  0  0
   10.4343  -11.5013    0.0000 C   0  0  0  0  0  0  0  0  0  0  0  0
   10.0091  -12.2083    0.0000 C   0  0  0  0  0  0  0  0  0  0  0  0
    9.1842  -12.1935    0.0000 C   0  0  0  0  0  0  0  0  0  0  0  0
    8.7846  -11.4718    0.0000 C   0  0  0  0  0  0  0  0  0  0  0  0
   10.4088  -12.9300    0.0000 O   0  0  0  0  0  0  0  0  0  0  0  0
    4.6261  -11.0620    0.0000 C   0  0  0  0  0  0  0  0  0  0  0  0
    4.2009  -11.7690    0.0000 C   0  0  0  0  0  0  0  0  0  0  0  0
    3.3760  -11.7543    0.0000 C   0  0  0  0  0  0  0  0  0  0  0  0
    2.9763  -11.0325    0.0000 C   0  0  0  0  0  0  0  0  0  0  0  0
    3.4016  -10.3255    0.0000 C   0  0  0  0  0  0  0  0  0  0  0  0
    4.2264  -10.3403    0.0000 C   0  0  0  0  0  0  0  0  0  0  0  0
    2.1515  -11.0178    0.0000 O   0  0  0  0  0  0  0  0  0  0  0  0
    6.6605   -6.9438    0.0000 C   0  0  0  0  0  0  0  0  0  0  0  0
    6.2609   -6.2221    0.0000 C   0  0  0  0  0  0  0  0  0  0  0  0
    6.6861   -5.5151    0.0000 C   0  0  0  0  0  0  0  0  0  0  0  0
    7.5110   -5.5299    0.0000 C   0  0  0  0  0  0  0  0  0  0  0  0
    7.9106   -6.2516    0.0000 C   0  0  0  0  0  0  0  0  0  0  0  0
    7.4854   -6.9586    0.0000 C   0  0  0  0  0  0  0  0  0  0  0  0
    7.9362   -4.8229    0.0000 O   0  0  0  0  0  0  0  0  0  0  0  0
    6.9815   -7.8273    0.0000 H   0  0  0  0  0  0  0  0  0  0  0  0
    5.2307  -10.3423    0.0000 H   0  0  0  0  0  0  0  0  0  0  0  0
    8.2842  -10.6010    0.0000 H   0  0  0  0  0  0  0  0  0  0  0  0
  1  2  1  0  0  0  0
  2  3  1  0  0  0  0
  3  4  1  0  0  0  0
  4  5  1  0  0  0  0
  5  6  2  0  0  0  0
  6  7  1  0  0  0  0
  7  8  2  0  0  0  0
  8  9  1  0  0  0  0
  9 10  1  0  0  0  0
 10 11  1  0  0  0  0
 11 12  1  0  0  0  0
 12 13  1  0  0  0  0
 13 14  2  0  0  0  0
 14 15  1  0  0  0  0
 15 16  2  0  0  0  0
 16 17  1  0  0  0  0
 17 18  1  0  0  0  0
 18 19  1  0  0  0  0
 19 20  1  0  0  0  0
 20 21  1  0  0  0  0
 21 22  2  0  0  0  0
 22 23  1  0  0  0  0
 23 24  2  0  0  0  0
  1 24  1  0  0  0  0
  1 25  2  0  0  0  0
 25 18  1  0  0  0  0
 13 26  1  0  0  0  0
 26 10  1  0  0  0  0
  5 27  1  0  0  0  0
 27  2  1  0  0  0  0
 21 25  1  0  0  0  0
  9 27  2  0  0  0  0
 17 26  2  0  0  0  0
  7 28  1  0  0  0  0
 15 29  1  0  0  0  0
 23 30  1  0  0  0  0
 31 32  1  0  0  0  0
 32 33  2  0  0  0  0
 33 34  1  0  0  0  0
 34 35  2  0  0  0  0
 35 36  1  0  0  0  0
 31 36  2  0  0  0  0
 34 37  1  0  0  0  0
 19 31  1  1  0  0  0
 38 39  1  0  0  0  0
 39 40  2  0  0  0  0
 40 41  1  0  0  0  0
 41 42  2  0  0  0  0
 42 43  1  0  0  0  0
 38 43  2  0  0  0  0
 41 44  1  0  0  0  0
 11 38  1  1  0  0  0
 45 46  1  0  0  0  0
 46 47  2  0  0  0  0
 47 48  1  0  0  0  0
 48 49  2  0  0  0  0
 49 50  1  0  0  0  0
 45 50  2  0  0  0  0
 48 51  1  0  0  0  0
  3 45  1  6  0  0  0
  2 52  1  6  0  0  0
 10 53  1  1  0  0  0
 18 54  1  1  0  0  0
M  END
>  <cdx:fragmentId>
5

$$$$
