19649.cdx
  Mrv1902 05222410222D          

 40 42  0  0  0  0            999 V2000
    2.0532   -2.3434    0.0000 N   0  0  0  0  0  0  0  0  0  0  0  0
    2.7677   -2.7559    0.0000 C   0  0  0  0  0  0  0  0  0  0  0  0
    2.7677   -3.5809    0.0000 N   0  0  0  0  0  0  0  0  0  0  0  0
    3.4821   -2.3434    0.0000 N   0  0  0  0  0  0  0  0  0  0  0  0
    4.1966   -2.7559    0.0000 C   0  0  2  0  0  0  0  0  0  0  0  0
    4.9111   -2.3434    0.0000 C   0  0  2  0  0  0  0  0  0  0  0  0
    5.6256   -2.7559    0.0000 C   0  0  1  0  0  0  0  0  0  0  0  0
    5.6256   -3.5809    0.0000 C   0  0  2  0  0  0  0  0  0  0  0  0
    4.9111   -3.9934    0.0000 C   0  0  1  0  0  0  0  0  0  0  0  0
    4.1966   -3.5809    0.0000 C   0  0  1  0  0  0  0  0  0  0  0  0
    3.4821   -3.9934    0.0000 O   0  0  0  0  0  0  0  0  0  0  0  0
    4.9111   -4.8184    0.0000 O   0  0  0  0  0  0  0  0  0  0  0  0
    4.9111   -1.5184    0.0000 O   0  0  0  0  0  0  0  0  0  0  0  0
    6.3400   -3.9934    0.0000 O   0  0  0  0  0  0  0  0  0  0  0  0
    5.6726   -5.3034    0.0000 O   0  0  0  0  0  0  0  0  0  0  0  0
    6.3400   -4.8184    0.0000 C   0  0  2  0  0  0  0  0  0  0  0  0
    7.0075   -5.3034    0.0000 C   0  0  1  0  0  0  0  0  0  0  0  0
    6.7525   -6.0880    0.0000 C   0  0  1  0  0  0  0  0  0  0  0  0
    5.9275   -6.0880    0.0000 C   0  0  2  0  0  0  0  0  0  0  0  0
    5.4426   -6.7554    0.0000 C   0  0  0  0  0  0  0  0  0  0  0  0
    6.8388   -6.9085    0.0000 O   0  0  0  0  0  0  0  0  0  0  0  0
    7.5062   -6.4235    0.0000 C   0  0  0  0  0  0  0  0  0  0  0  0
    7.5924   -7.2440    0.0000 O   0  0  0  0  0  0  0  0  0  0  0  0
    7.7921   -5.0484    0.0000 O   0  0  0  0  0  0  0  0  0  0  0  0
    8.1619   -6.4287    0.0000 O   0  0  0  0  0  0  0  0  0  0  0  0
    8.3755   -5.6318    0.0000 C   0  0  2  0  0  0  0  0  0  0  0  0
    9.1723   -5.4183    0.0000 C   0  0  2  0  0  0  0  0  0  0  0  0
    9.7557   -6.0016    0.0000 C   0  0  1  0  0  0  0  0  0  0  0  0
    9.5422   -6.7985    0.0000 C   0  0  2  0  0  0  0  0  0  0  0  0
    8.7453   -7.0120    0.0000 C   0  0  2  0  0  0  0  0  0  0  0  0
    9.3859   -4.6214    0.0000 N   0  0  0  0  0  0  0  0  0  0  0  0
   10.1828   -4.4078    0.0000 C   0  0  0  0  0  0  0  0  0  0  0  0
    8.5318   -7.8089    0.0000 C   0  0  0  0  0  0  0  0  0  0  0  0
    7.7349   -8.0225    0.0000 O   0  0  0  0  0  0  0  0  0  0  0  0
   10.1255   -7.3819    0.0000 O   0  0  0  0  0  0  0  0  0  0  0  0
   10.5526   -5.7881    0.0000 O   0  0  0  0  0  0  0  0  0  0  0  0
    6.3400   -2.3434    0.0000 N   0  0  0  0  0  0  0  0  0  0  0  0
    6.3400   -1.5184    0.0000 C   0  0  0  0  0  0  0  0  0  0  0  0
    5.6256   -1.1059    0.0000 N   0  0  0  0  0  0  0  0  0  0  0  0
    7.0545   -1.1059    0.0000 N   0  0  0  0  0  0  0  0  0  0  0  0
  1  2  1  0  0  0  0
  2  3  1  0  0  0  0
  2  4  2  0  0  0  0
  5  6  1  0  0  0  0
  6  7  1  0  0  0  0
  7  8  1  0  0  0  0
  8  9  1  0  0  0  0
  9 10  1  0  0  0  0
  5 10  1  0  0  0  0
 10 11  1  1  0  0  0
  9 12  1  6  0  0  0
  6 13  1  1  0  0  0
 15 16  1  0  0  0  0
 16 17  1  0  0  0  0
 17 18  1  0  0  0  0
 18 19  1  0  0  0  0
 15 19  1  0  0  0  0
 19 20  1  6  0  0  0
 18 21  1  6  0  0  0
 22 23  2  0  0  0  0
 18 22  1  1  0  0  0
 25 26  1  0  0  0  0
 26 27  1  0  0  0  0
 27 28  1  0  0  0  0
 28 29  1  0  0  0  0
 29 30  1  0  0  0  0
 25 30  1  0  0  0  0
 31 32  1  0  0  0  0
 27 31  1  1  0  0  0
 33 34  1  0  0  0  0
 30 33  1  6  0  0  0
 29 35  1  1  0  0  0
 28 36  1  6  0  0  0
 26 24  1  1  0  0  0
 17 24  1  6  0  0  0
 16 14  1  1  0  0  0
  8 14  1  1  0  0  0
 38 39  1  0  0  0  0
 38 40  1  0  0  0  0
 37 38  2  0  0  0  0
  7 37  1  6  0  0  0
  5  4  1  6  0  0  0
M  END
>  <cdx:groupId>
124

>  <cdx:fragmentId>
53

$$$$
