196915.cdx
  Mrv1902 05222410212D          

 25 25  0  0  0  0            999 V2000
    7.8540  -11.1537    0.0000 C   0  0  0  0  0  0  0  0  0  0  0  0
    6.8436  -12.1641    0.0000 C   0  0  0  0  0  0  0  0  0  0  0  0
    7.0571  -11.3672    0.0000 C   0  0  0  0  0  0  0  0  0  0  0  0
    6.4738  -10.7838    0.0000 C   0  0  0  0  0  0  0  0  0  0  0  0
    8.6172   -8.1174    0.0000 O   0  0  0  0  0  0  0  0  0  0  0  0
    7.9027   -6.8799    0.0000 C   0  0  0  0  0  0  0  0  0  0  0  0
    7.9027   -7.7049    0.0000 C   0  0  0  0  0  0  0  0  0  0  0  0
    3.6159   -6.8799    0.0000 C   0  0  0  0  0  0  0  0  0  0  0  0
    4.3304   -5.6424    0.0000 C   0  0  0  0  0  0  0  0  0  0  0  0
    4.3304   -6.4674    0.0000 C   0  0  0  0  0  0  0  0  0  0  0  0
    5.0448   -6.8799    0.0000 C   0  0  0  0  0  0  0  0  0  0  0  0
    5.0448   -7.7049    0.0000 C   0  0  0  0  0  0  0  0  0  0  0  0
    6.4738   -6.8799    0.0000 O   0  0  0  0  0  0  0  0  0  0  0  0
    7.9027   -9.3549    0.0000 O   0  0  0  0  0  0  0  0  0  0  0  0
    6.8863  -10.0694    0.0000 C   0  0  0  0  0  0  0  0  0  0  0  0
    6.0613  -10.0694    0.0000 O   0  0  0  0  0  0  0  0  0  0  0  0
    5.0448   -9.3549    0.0000 O   0  0  0  0  0  0  0  0  0  0  0  0
    6.4738   -9.3549    0.0000 C   0  0  0  0  0  0  0  0  0  0  0  0
    7.1882   -8.9424    0.0000 C   0  0  0  0  0  0  0  0  0  0  0  0
    7.1882   -8.1174    0.0000 C   0  0  0  0  0  0  0  0  0  0  0  0
    6.4738   -7.7049    0.0000 C   0  0  0  0  0  0  0  0  0  0  0  0
    5.7593   -8.1174    0.0000 C   0  0  0  0  0  0  0  0  0  0  0  0
    5.7593   -8.9424    0.0000 C   0  0  0  0  0  0  0  0  0  0  0  0
    7.1882   -6.4674    0.0000 C   0  0  0  0  0  0  0  0  0  0  0  0
    8.6172   -6.4674    0.0000 C   0  0  0  0  0  0  0  0  0  0  0  0
  3  1  1  0  0  0  0
  3  2  1  0  0  0  0
  4  3  2  0  0  0  0
 15  4  1  0  0  0  0
  7  5  2  0  0  0  0
  7  6  1  0  0  0  0
 20  7  1  0  0  0  0
 10  8  1  0  0  0  0
 10  9  1  0  0  0  0
 11 10  2  0  0  0  0
 12 11  1  0  0  0  0
 22 12  1  0  0  0  0
 21 13  1  0  0  0  0
 19 14  2  0  0  0  0
 18 15  1  0  0  0  0
 18 16  1  0  0  0  0
 23 17  1  0  0  0  0
 18 23  1  0  0  0  0
 19 18  1  0  0  0  0
 20 19  1  0  0  0  0
 21 20  2  0  0  0  0
 22 21  1  0  0  0  0
 23 22  2  0  0  0  0
  6 24  1  0  0  0  0
  6 25  1  0  0  0  0
M  END
>  <cdx:fragmentId>
5

$$$$
