196971.cdx
  Mrv1902 05222410202D          

 24 24  0  0  0  0            999 V2000
    4.3631   -7.1093    0.0000 C   0  0  0  0  0  0  0  0  0  0  0  0
    3.9506   -7.8237    0.0000 C   0  0  0  0  0  0  0  0  0  0  0  0
    4.3631   -8.5382    0.0000 C   0  0  0  0  0  0  0  0  0  0  0  0
    5.1881   -8.5382    0.0000 C   0  0  0  0  0  0  0  0  0  0  0  0
    5.6006   -7.8237    0.0000 C   0  0  0  0  0  0  0  0  0  0  0  0
    5.1881   -7.1093    0.0000 C   0  0  0  0  0  0  0  0  0  0  0  0
    3.1256   -7.8237    0.0000 C   0  0  0  0  0  0  0  0  0  0  0  0
    5.6006   -9.2527    0.0000 O   0  0  0  0  0  0  0  0  0  0  0  0
    6.4256   -7.8237    0.0000 C   0  0  0  0  0  0  0  0  0  0  0  0
    6.4256   -6.9987    0.0000 C   0  0  0  0  0  0  0  0  0  0  0  0
    7.1401   -6.5862    0.0000 O   0  0  0  0  0  0  0  0  0  0  0  0
    7.2506   -7.8237    0.0000 O   0  0  0  0  0  0  0  0  0  0  0  0
    6.4256   -8.6487    0.0000 C   0  0  0  0  0  0  0  0  0  0  0  0
    7.1401   -9.0612    0.0000 O   0  0  0  0  0  0  0  0  0  0  0  0
    7.9651   -6.5862    0.0000 C   0  0  0  0  0  0  0  0  0  0  0  0
    8.3776   -5.8718    0.0000 C   0  0  0  0  0  0  0  0  0  0  0  0
    8.3776   -7.3007    0.0000 O   0  0  0  0  0  0  0  0  0  0  0  0
    7.9651   -5.1573    0.0000 C   0  0  0  0  0  0  0  0  0  0  0  0
    9.2026   -5.8718    0.0000 C   0  0  0  0  0  0  0  0  0  0  0  0
    7.9651   -9.0612    0.0000 C   0  0  0  0  0  0  0  0  0  0  0  0
    8.3776   -9.7757    0.0000 C   0  0  0  0  0  0  0  0  0  0  0  0
    8.3776   -8.3468    0.0000 O   0  0  0  0  0  0  0  0  0  0  0  0
    7.9651  -10.4902    0.0000 C   0  0  0  0  0  0  0  0  0  0  0  0
    9.2026   -9.7757    0.0000 C   0  0  0  0  0  0  0  0  0  0  0  0
  1  2  2  0  0  0  0
  2  3  1  0  0  0  0
  3  4  2  0  0  0  0
  4  5  1  0  0  0  0
  5  6  2  0  0  0  0
  6  1  1  0  0  0  0
  2  7  1  0  0  0  0
  4  8  1  0  0  0  0
  5  9  1  0  0  0  0
  9 10  1  0  0  0  0
 10 11  1  0  0  0  0
  9 12  1  0  0  0  0
  9 13  1  0  0  0  0
 13 14  1  0  0  0  0
 11 15  1  0  0  0  0
 15 16  1  0  0  0  0
 15 17  2  0  0  0  0
 16 18  1  0  0  0  0
 16 19  1  0  0  0  0
 14 20  1  0  0  0  0
 20 21  1  0  0  0  0
 20 22  2  0  0  0  0
 21 23  1  0  0  0  0
 21 24  1  0  0  0  0
M  END
>  <cdx:fragmentId>
5

$$$$
