197678.cdx
  Mrv1902 05222410272D          

 29 32  0  0  0  0            999 V2000
    4.5511  -11.3419    0.0000 C   0  0  0  0  0  0  0  0  0  0  0  0
    4.5511  -10.5169    0.0000 C   0  0  0  0  0  0  0  0  0  0  0  0
    5.2656  -10.1044    0.0000 C   0  0  0  0  0  0  0  0  0  0  0  0
    5.9801  -10.5169    0.0000 C   0  0  0  0  0  0  0  0  0  0  0  0
    6.6945  -10.1044    0.0000 C   0  0  0  0  0  0  0  0  0  0  0  0
    7.4090  -10.5169    0.0000 C   0  0  0  0  0  0  0  0  0  0  0  0
    7.4090  -11.3419    0.0000 C   0  0  0  0  0  0  0  0  0  0  0  0
    6.6945  -11.7544    0.0000 C   0  0  0  0  0  0  0  0  0  0  0  0
    5.9801  -11.3419    0.0000 C   0  0  0  0  0  0  0  0  0  0  0  0
    5.2656  -11.7544    0.0000 O   0  0  0  0  0  0  0  0  0  0  0  0
    8.1235  -10.1044    0.0000 C   0  0  0  0  0  0  0  0  0  0  0  0
    8.1235   -9.2794    0.0000 C   0  0  0  0  0  0  0  0  0  0  0  0
    7.4090   -8.8669    0.0000 C   0  0  2  0  0  0  0  0  0  0  0  0
    6.6945   -9.2794    0.0000 O   0  0  0  0  0  0  0  0  0  0  0  0
    8.8380  -10.5169    0.0000 O   0  0  0  0  0  0  0  0  0  0  0  0
    4.1386  -12.0564    0.0000 C   0  0  0  0  0  0  0  0  0  0  0  0
    3.7261  -11.3419    0.0000 C   0  0  0  0  0  0  0  0  0  0  0  0
    7.4090   -8.0419    0.0000 C   0  0  0  0  0  0  0  0  0  0  0  0
    6.6945   -7.6294    0.0000 C   0  0  0  0  0  0  0  0  0  0  0  0
    6.6945   -6.8044    0.0000 C   0  0  0  0  0  0  0  0  0  0  0  0
    7.4090   -6.3919    0.0000 C   0  0  0  0  0  0  0  0  0  0  0  0
    8.1235   -6.8044    0.0000 C   0  0  0  0  0  0  0  0  0  0  0  0
    8.1235   -7.6294    0.0000 C   0  0  0  0  0  0  0  0  0  0  0  0
    5.9801   -6.3919    0.0000 C   0  0  0  0  0  0  0  0  0  0  0  0
    5.2656   -6.8044    0.0000 C   0  0  0  0  0  0  0  0  0  0  0  0
    4.5511   -6.3919    0.0000 C   0  0  0  0  0  0  0  0  0  0  0  0
    4.5511   -5.5669    0.0000 C   0  0  0  0  0  0  0  0  0  0  0  0
    3.8367   -6.8044    0.0000 C   0  0  0  0  0  0  0  0  0  0  0  0
    7.4090   -5.5669    0.0000 O   0  0  0  0  0  0  0  0  0  0  0  0
  1  2  1  0  0  0  0
  2  3  2  0  0  0  0
  3  4  1  0  0  0  0
  4  5  1  0  0  0  0
  5  6  2  0  0  0  0
  6  7  1  0  0  0  0
  7  8  2  0  0  0  0
  8  9  1  0  0  0  0
  4  9  2  0  0  0  0
  9 10  1  0  0  0  0
  1 10  1  0  0  0  0
 11 12  1  0  0  0  0
 12 13  1  0  0  0  0
 13 14  1  0  0  0  0
 14  5  1  0  0  0  0
 11  6  1  0  0  0  0
 11 15  2  0  0  0  0
  1 16  1  0  0  0  0
  1 17  1  0  0  0  0
 18 19  1  0  0  0  0
 19 20  2  0  0  0  0
 20 21  1  0  0  0  0
 21 22  2  0  0  0  0
 22 23  1  0  0  0  0
 18 23  2  0  0  0  0
 24 25  1  0  0  0  0
 25 26  2  0  0  0  0
 26 27  1  0  0  0  0
 26 28  1  0  0  0  0
 20 24  1  0  0  0  0
 21 29  1  0  0  0  0
 13 18  1  6  0  0  0
M  END
>  <cdx:fragmentId>
1690

$$$$
