197634.cdx
  Mrv1902 05222410252D          

 22 24  0  0  0  0            999 V2000
    5.1810   -7.2994    0.0000 C   0  0  0  0  0  0  0  0  0  0  0  0
    4.4666   -6.8869    0.0000 C   0  0  0  0  0  0  0  0  0  0  0  0
    5.1810   -8.1244    0.0000 O   0  0  0  0  0  0  0  0  0  0  0  0
    5.8955   -6.8869    0.0000 O   0  0  0  0  0  0  0  0  0  0  0  0
    6.6100   -8.1244    0.0000 C   0  0  0  0  0  0  0  0  0  0  0  0
    6.6100   -7.2994    0.0000 C   0  0  2  0  0  0  0  0  0  0  0  0
    7.3245   -6.8869    0.0000 C   0  0  2  0  0  0  0  0  0  0  0  0
    8.0389   -7.2994    0.0000 C   0  0  0  0  0  0  0  0  0  0  0  0
    8.7534   -6.8869    0.0000 C   0  0  0  0  0  0  0  0  0  0  0  0
    9.4679   -7.2994    0.0000 C   0  0  0  0  0  0  0  0  0  0  0  0
    9.4679   -8.1244    0.0000 C   0  0  0  0  0  0  0  0  0  0  0  0
    8.7534   -8.5369    0.0000 C   0  0  0  0  0  0  0  0  0  0  0  0
    8.0389   -8.1244    0.0000 C   0  0  0  0  0  0  0  0  0  0  0  0
    7.3245   -8.5369    0.0000 O   0  0  0  0  0  0  0  0  0  0  0  0
   10.1823   -6.8869    0.0000 C   0  0  0  0  0  0  0  0  0  0  0  0
   10.1823   -6.0619    0.0000 C   0  0  0  0  0  0  0  0  0  0  0  0
    9.4679   -5.6494    0.0000 C   0  0  0  0  0  0  0  0  0  0  0  0
    8.7534   -6.0619    0.0000 O   0  0  0  0  0  0  0  0  0  0  0  0
    9.4679   -4.8244    0.0000 O   0  0  0  0  0  0  0  0  0  0  0  0
    6.1975   -8.8389    0.0000 C   0  0  0  0  0  0  0  0  0  0  0  0
    5.7850   -8.1244    0.0000 C   0  0  0  0  0  0  0  0  0  0  0  0
    7.3245   -6.0619    0.0000 O   0  0  0  0  0  0  0  0  0  0  0  0
  1  2  1  0  0  0  0
  1  3  2  0  0  0  0
  1  4  1  0  0  0  0
  5  6  1  0  0  0  0
  6  7  1  0  0  0  0
  7  8  1  0  0  0  0
  8  9  1  0  0  0  0
  9 10  2  0  0  0  0
 10 11  1  0  0  0  0
 11 12  2  0  0  0  0
 12 13  1  0  0  0  0
  8 13  2  0  0  0  0
 13 14  1  0  0  0  0
  5 14  1  0  0  0  0
 15 16  2  0  0  0  0
 16 17  1  0  0  0  0
 17 18  1  0  0  0  0
 18  9  1  0  0  0  0
 15 10  1  0  0  0  0
 17 19  2  0  0  0  0
  5 20  1  0  0  0  0
  5 21  1  0  0  0  0
  7 22  1  1  0  0  0
  6  4  1  1  0  0  0
M  END
>  <cdx:fragmentId>
1624

$$$$
