19773.cdx
  Mrv1902 05222410192D          

 15 14  0  0  0  0            999 V2000
    9.3366   -2.0339    0.0000 C   0  0  0  0  0  0  0  0  0  0  0  0
    9.3366   -2.8589    0.0000 C   0  0  0  0  0  0  0  0  0  0  0  0
    8.6221   -3.2714    0.0000 C   0  0  0  0  0  0  0  0  0  0  0  0
    7.9077   -2.8589    0.0000 C   0  0  0  0  0  0  0  0  0  0  0  0
    7.1932   -3.2714    0.0000 C   0  0  0  0  0  0  0  0  0  0  0  0
    6.4787   -2.8589    0.0000 C   0  0  0  0  0  0  0  0  0  0  0  0
    5.7643   -3.2714    0.0000 C   0  0  0  0  0  0  0  0  0  0  0  0
    5.0498   -2.8589    0.0000 C   0  0  0  0  0  0  0  0  0  0  0  0
    4.3353   -3.2714    0.0000 C   0  0  0  0  0  0  0  0  0  0  0  0
    3.6209   -2.8589    0.0000 C   0  0  0  0  0  0  0  0  0  0  0  0
    2.9064   -3.2714    0.0000 C   0  0  0  0  0  0  0  0  0  0  0  0
    2.1919   -2.8589    0.0000 C   0  0  0  0  0  0  0  0  0  0  0  0
    3.6209   -2.0339    0.0000 C   0  0  0  0  0  0  0  0  0  0  0  0
    6.4787   -2.0339    0.0000 C   0  0  0  0  0  0  0  0  0  0  0  0
   10.0511   -3.2714    0.0000 C   0  0  0  0  0  0  0  0  0  0  0  0
  1  2  1  0  0  0  0
  2  3  1  0  0  0  0
  3  4  1  0  0  0  0
  4  5  1  0  0  0  0
  5  6  1  0  0  0  0
  6  7  1  0  0  0  0
  7  8  1  0  0  0  0
  8  9  1  0  0  0  0
  9 10  1  0  0  0  0
 10 11  1  0  0  0  0
 11 12  1  0  0  0  0
 10 13  1  0  0  0  0
  6 14  1  0  0  0  0
  2 15  1  0  0  0  0
M  END
>  <cdx:groupId>
46

>  <cdx:fragmentId>
5

$$$$
