19793.cdx
  Mrv1902 05222410262D          

 18 20  0  0  0  0            999 V2000
    7.1503   -5.0208    0.0000 C   0  0  0  0  0  0  0  0  0  0  0  0
    7.6352   -4.3534    0.0000 C   0  0  0  0  0  0  0  0  0  0  0  0
    7.1503   -3.6859    0.0000 C   0  0  0  0  0  0  0  0  0  0  0  0
    6.3657   -3.9409    0.0000 C   0  0  0  0  0  0  0  0  0  0  0  0
    5.6512   -3.5284    0.0000 C   0  0  0  0  0  0  0  0  0  0  0  0
    4.9368   -3.9409    0.0000 C   0  0  0  0  0  0  0  0  0  0  0  0
    4.9368   -4.7659    0.0000 C   0  0  0  0  0  0  0  0  0  0  0  0
    5.6512   -5.1784    0.0000 C   0  0  0  0  0  0  0  0  0  0  0  0
    6.3657   -4.7659    0.0000 C   0  0  0  0  0  0  0  0  0  0  0  0
    7.7634   -3.1339    0.0000 C   0  0  0  0  0  0  0  0  0  0  0  0
    7.5919   -2.3269    0.0000 C   0  0  0  0  0  0  0  0  0  0  0  0
    8.2050   -1.7749    0.0000 C   0  0  0  0  0  0  0  0  0  0  0  0
    8.9896   -2.0298    0.0000 C   0  0  0  0  0  0  0  0  0  0  0  0
    9.1611   -2.8368    0.0000 C   0  0  0  0  0  0  0  0  0  0  0  0
    8.5480   -3.3888    0.0000 C   0  0  0  0  0  0  0  0  0  0  0  0
    6.9788   -2.8790    0.0000 C   0  0  0  0  0  0  0  0  0  0  0  0
    7.7634   -5.5728    0.0000 C   0  0  0  0  0  0  0  0  0  0  0  0
    6.9788   -5.8278    0.0000 C   0  0  0  0  0  0  0  0  0  0  0  0
  1  2  1  0  0  0  0
  2  3  1  0  0  0  0
  3  4  1  0  0  0  0
  4  5  1  0  0  0  0
  5  6  2  0  0  0  0
  6  7  1  0  0  0  0
  7  8  2  0  0  0  0
  8  9  1  0  0  0  0
  1  9  1  0  0  0  0
  4  9  2  0  0  0  0
 10 11  1  0  0  0  0
 11 12  2  0  0  0  0
 12 13  1  0  0  0  0
 13 14  2  0  0  0  0
 14 15  1  0  0  0  0
 10 15  2  0  0  0  0
  3 10  1  0  0  0  0
  3 16  1  0  0  0  0
  1 17  1  0  0  0  0
  1 18  1  0  0  0  0
M  END
>  <cdx:fragmentId>
5

$$$$
