198050.cdx
  Mrv1902 05222410212D          

 37 41  0  0  0  0            999 V2000
   10.1295  -11.8938    0.0000 C   0  0  0  0  0  0  0  0  0  0  0  0
   10.5420  -11.1794    0.0000 C   0  0  0  0  0  0  0  0  0  0  0  0
    9.3045  -11.8938    0.0000 O   0  0  0  0  0  0  0  0  0  0  0  0
   10.5420  -12.6083    0.0000 O   0  0  0  0  0  0  0  0  0  0  0  0
    8.7902  -13.9678    0.0000 C   0  0  0  0  0  0  0  0  0  0  0  0
    9.3045  -13.3228    0.0000 C   0  0  0  0  0  0  0  0  0  0  0  0
   10.1295  -13.3228    0.0000 C   0  0  2  0  0  0  0  0  0  0  0  0
   10.6439  -13.9678    0.0000 C   0  0  2  0  0  0  0  0  0  0  0  0
   11.4656  -13.8938    0.0000 C   0  0  0  0  0  0  0  0  0  0  0  0
   11.7898  -14.6524    0.0000 C   0  0  1  0  0  0  0  0  0  0  0  0
   11.9493  -15.4619    0.0000 O   0  0  0  0  0  0  0  0  0  0  0  0
   11.1686  -15.1952    0.0000 C   0  0  1  0  0  0  0  0  0  0  0  0
   10.4603  -14.7721    0.0000 C   0  0  1  0  0  0  0  0  0  0  0  0
    9.7170  -15.1301    0.0000 C   0  0  2  0  0  0  0  0  0  0  0  0
    8.9737  -14.7721    0.0000 C   0  0  2  0  0  0  0  0  0  0  0  0
    8.4594  -15.4171    0.0000 C   0  0  0  0  0  0  0  0  0  0  0  0
    7.6344  -15.4171    0.0000 C   0  0  0  0  0  0  0  0  0  0  0  0
    7.1200  -14.7721    0.0000 C   0  0  2  0  0  0  0  0  0  0  0  0
    7.3036  -13.9678    0.0000 C   0  0  2  0  0  0  0  0  0  0  0  0
    8.0469  -13.6098    0.0000 C   0  0  0  0  0  0  0  0  0  0  0  0
    7.7239  -13.8879    0.0000 C   0  0  0  0  0  0  0  0  0  0  0  0
    7.0021  -13.1998    0.0000 C   0  0  0  0  0  0  0  0  0  0  0  0
    9.4349  -15.9053    0.0000 C   0  0  0  0  0  0  0  0  0  0  0  0
   11.4656  -13.0688    0.0000 C   0  0  0  0  0  0  0  0  0  0  0  0
   12.1801  -13.4813    0.0000 C   0  0  0  0  0  0  0  0  0  0  0  0
    6.4878  -13.8448    0.0000 O   0  0  0  0  0  0  0  0  0  0  0  0
   10.1902  -15.8059    0.0000 O   0  0  0  0  0  0  0  0  0  0  0  0
   10.9682  -13.2092    0.0000 O   0  0  0  0  0  0  0  0  0  0  0  0
    7.2725  -12.6475    0.0000 O   0  0  0  0  0  0  0  0  0  0  0  0
    6.4600  -12.5042    0.0000 C   0  0  0  0  0  0  0  0  0  0  0  0
    5.9297  -13.1362    0.0000 O   0  0  0  0  0  0  0  0  0  0  0  0
    6.1778  -11.7290    0.0000 C   0  0  0  0  0  0  0  0  0  0  0  0
   12.5782  -14.4093    0.0000 H   0  0  0  0  0  0  0  0  0  0  0  0
   10.8218  -15.9438    0.0000 H   0  0  0  0  0  0  0  0  0  0  0  0
    9.8153  -14.2577    0.0000 H   0  0  0  0  0  0  0  0  0  0  0  0
    9.0149  -15.5961    0.0000 H   0  0  0  0  0  0  0  0  0  0  0  0
    6.3157  -14.9557    0.0000 H   0  0  0  0  0  0  0  0  0  0  0  0
  1  2  1  0  0  0  0
  1  3  2  0  0  0  0
  1  4  1  0  0  0  0
  5  6  1  0  0  0  0
  6  7  1  0  0  0  0
  7  8  1  0  0  0  0
  8  9  1  0  0  0  0
  9 10  1  0  0  0  0
 10 11  1  0  0  0  0
 11 12  1  0  0  0  0
 12 13  1  0  0  0  0
 13 14  1  0  0  0  0
 14 15  1  0  0  0  0
 15 16  1  0  0  0  0
 16 17  1  0  0  0  0
 17 18  1  0  0  0  0
 18 19  1  0  0  0  0
 19 20  1  0  0  0  0
  5 20  1  0  0  0  0
  5 21  1  0  0  0  0
 18 21  1  0  0  0  0
  5 15  1  0  0  0  0
  8 13  1  0  0  0  0
 10 12  1  0  0  0  0
 19 22  1  1  0  0  0
 14 23  1  1  0  0  0
  9 24  1  0  0  0  0
  9 25  1  0  0  0  0
 19 26  1  6  0  0  0
 14 27  1  6  0  0  0
  8 28  1  1  0  0  0
 30 31  2  0  0  0  0
 30 32  1  0  0  0  0
 29 30  1  0  0  0  0
 21 29  1  0  0  0  0
  7  4  1  1  0  0  0
 10 33  1  6  0  0  0
 12 34  1  6  0  0  0
 13 35  1  6  0  0  0
 15 36  1  1  0  0  0
 18 37  1  1  0  0  0
M  END
>  <cdx:fragmentId>
47402

$$$$
