198181.cdx
  Mrv1902 05222410192D          

 27 30  0  0  0  0            999 V2000
   14.7179  -12.9215    0.0000 C   0  0  0  0  0  0  0  0  0  0  0  0
   15.2323  -12.2765    0.0000 C   0  0  0  0  0  0  0  0  0  0  0  0
   16.0573  -12.2765    0.0000 C   0  0  0  0  0  0  0  0  0  0  0  0
   16.5717  -12.9215    0.0000 C   0  0  0  0  0  0  0  0  0  0  0  0
   17.3934  -12.8476    0.0000 C   0  0  0  0  0  0  0  0  0  0  0  0
   17.7176  -13.6062    0.0000 C   0  0  0  0  0  0  0  0  0  0  0  0
   17.0963  -14.1490    0.0000 C   0  0  0  0  0  0  0  0  0  0  0  0
   16.3881  -13.7259    0.0000 C   0  0  0  0  0  0  0  0  0  0  0  0
   15.6448  -14.0838    0.0000 C   0  0  0  0  0  0  0  0  0  0  0  0
   14.9015  -13.7259    0.0000 C   0  0  0  0  0  0  0  0  0  0  0  0
   14.3871  -14.3709    0.0000 C   0  0  0  0  0  0  0  0  0  0  0  0
   13.5621  -14.3709    0.0000 C   0  0  0  0  0  0  0  0  0  0  0  0
   13.0478  -13.7259    0.0000 C   0  0  0  0  0  0  0  0  0  0  0  0
   13.2314  -12.9215    0.0000 C   0  0  0  0  0  0  0  0  0  0  0  0
   13.9746  -12.5636    0.0000 C   0  0  0  0  0  0  0  0  0  0  0  0
   13.6517  -12.8416    0.0000 C   0  0  0  0  0  0  0  0  0  0  0  0
   16.4698  -11.5621    0.0000 O   0  0  0  0  0  0  0  0  0  0  0  0
   16.8960  -12.1629    0.0000 O   0  0  0  0  0  0  0  0  0  0  0  0
   18.5219  -13.7898    0.0000 O   0  0  0  0  0  0  0  0  0  0  0  0
   17.1703  -14.9707    0.0000 O   0  0  0  0  0  0  0  0  0  0  0  0
   16.0573  -14.7983    0.0000 O   0  0  0  0  0  0  0  0  0  0  0  0
   12.4156  -12.7986    0.0000 O   0  0  0  0  0  0  0  0  0  0  0  0
   13.2392  -12.1271    0.0000 O   0  0  0  0  0  0  0  0  0  0  0  0
   12.9299  -12.1536    0.0000 C   0  0  0  0  0  0  0  0  0  0  0  0
   15.2323  -14.7983    0.0000 C   0  0  0  0  0  0  0  0  0  0  0  0
   17.3934  -12.0226    0.0000 C   0  0  0  0  0  0  0  0  0  0  0  0
   18.1079  -12.4351    0.0000 C   0  0  0  0  0  0  0  0  0  0  0  0
  1  2  1  0  0  0  0
  2  3  1  0  0  0  0
  3  4  1  0  0  0  0
  4  5  1  0  0  0  0
  5  6  1  0  0  0  0
  6  7  1  0  0  0  0
  7  8  1  0  0  0  0
  8  9  1  0  0  0  0
  9 10  1  0  0  0  0
 10 11  1  0  0  0  0
 11 12  1  0  0  0  0
 12 13  1  0  0  0  0
 13 14  1  0  0  0  0
 14 15  1  0  0  0  0
  1 15  1  0  0  0  0
  1 16  1  0  0  0  0
 16 13  1  0  0  0  0
  1 10  1  0  0  0  0
  4  8  1  0  0  0  0
  3 17  1  0  0  0  0
  4 18  1  0  0  0  0
  6 19  1  0  0  0  0
  7 20  1  0  0  0  0
  9 21  1  0  0  0  0
 14 22  1  0  0  0  0
 16 23  1  0  0  0  0
 14 24  1  0  0  0  0
  9 25  1  0  0  0  0
  5 26  1  0  0  0  0
  5 27  1  0  0  0  0
M  END
>  <cdx:groupId>
171

>  <cdx:fragmentId>
90

$$$$
