198277.cdx
  Mrv1902 05222410252D          

 15 15  0  0  0  0            999 V2000
    4.8840   -6.9392    0.0000 N   0  0  0  0  0  0  0  0  0  0  0  0
    4.8840   -7.7642    0.0000 C   0  0  0  0  0  0  0  0  0  0  0  0
    5.5985   -8.1767    0.0000 N   0  0  0  0  0  0  0  0  0  0  0  0
    6.3130   -7.7642    0.0000 C   0  0  0  0  0  0  0  0  0  0  0  0
    6.3130   -6.9392    0.0000 C   0  0  0  0  0  0  0  0  0  0  0  0
    5.5985   -6.5267    0.0000 C   0  0  0  0  0  0  0  0  0  0  0  0
    5.5985   -5.7017    0.0000 N   0  0  0  0  0  0  0  0  0  0  0  0
    7.0976   -8.0192    0.0000 N   0  0  0  0  0  0  0  0  0  0  0  0
    7.5825   -7.3517    0.0000 C   0  0  0  0  0  0  0  0  0  0  0  0
    7.0976   -6.6843    0.0000 N   0  0  0  0  0  0  0  0  0  0  0  0
    9.6193   -7.1254    0.0000 P   0  0  0  0  0  0  0  0  0  0  0  0
    9.6193   -6.3004    0.0000 O   0  0  0  0  0  0  0  0  0  0  0  0
    8.7943   -7.1254    0.0000 O   0  0  0  0  0  0  0  0  0  0  0  0
    9.6193   -7.9504    0.0000 O   0  0  0  0  0  0  0  0  0  0  0  0
   10.4443   -7.1254    0.0000 O   0  0  0  0  0  0  0  0  0  0  0  0
  1  2  2  0  0  0  0
  2  3  1  0  0  0  0
  3  4  2  0  0  0  0
  4  5  1  0  0  0  0
  5  6  2  0  0  0  0
  6  7  1  0  0  0  0
  1  6  1  0  0  0  0
  4  8  1  0  0  0  0
  8  9  2  0  0  0  0
  9 10  1  0  0  0  0
  5 10  1  0  0  0  0
 11 12  2  0  0  0  0
 11 13  1  0  0  0  0
 11 14  1  0  0  0  0
 11 15  1  0  0  0  0
M  END
>  <cdx:groupId>
2094

>  <cdx:fragmentId>
2072

$$$$
