19829.cdx
  Mrv1902 05222410262D          

 13 13  0  0  0  0            999 V2000
    8.7141   -3.3558    0.0000 C   0  0  0  0  0  0  0  0  0  0  0  0
    7.9996   -3.7683    0.0000 C   0  0  0  0  0  0  0  0  0  0  0  0
    7.2851   -3.3558    0.0000 C   0  0  0  0  0  0  0  0  0  0  0  0
    6.5707   -3.7683    0.0000 C   0  0  0  0  0  0  0  0  0  0  0  0
    5.8562   -3.3558    0.0000 O   0  0  0  0  0  0  0  0  0  0  0  0
    6.5707   -4.5933    0.0000 C   0  0  0  0  0  0  0  0  0  0  0  0
    5.8562   -5.0058    0.0000 O   0  0  0  0  0  0  0  0  0  0  0  0
    7.2851   -5.0058    0.0000 C   0  0  0  0  0  0  0  0  0  0  0  0
    7.2851   -5.8308    0.0000 O   0  0  0  0  0  0  0  0  0  0  0  0
    7.9996   -4.5933    0.0000 C   0  0  0  0  0  0  0  0  0  0  0  0
    8.7141   -2.5308    0.0000 O   0  0  0  0  0  0  0  0  0  0  0  0
    9.4286   -3.7683    0.0000 O   0  0  0  0  0  0  0  0  0  0  0  0
    5.1417   -3.7683    0.0000 C   0  0  0  0  0  0  0  0  0  0  0  0
  1  2  1  0  0  0  0
  2  3  1  0  0  0  0
  3  4  2  0  0  0  0
  4  5  1  0  0  0  0
  4  6  1  0  0  0  0
  6  7  1  0  0  0  0
  6  8  2  0  0  0  0
  8  9  1  0  0  0  0
  8 10  1  0  0  0  0
  2 10  2  0  0  0  0
  1 11  2  0  0  0  0
  1 12  1  0  0  0  0
  5 13  1  0  0  0  0
M  END
>  <cdx:fragmentId>
5

$$$$
