198269.cdx
  Mrv1902 05222410232D          

 52 54  0  0  0  0            999 V2000
    7.2994   -4.4361    0.0000 C   0  0  0  0  0  0  0  0  0  0  0  0
    7.7785   -3.7645    0.0000 C   0  0  0  0  0  0  0  0  0  0  0  0
    8.5997   -3.8436    0.0000 C   0  0  0  0  0  0  0  0  0  0  0  0
    7.6414   -5.1868    0.0000 O   0  0  0  0  0  0  0  0  0  0  0  0
    6.4782   -4.3569    0.0000 O   0  0  0  0  0  0  0  0  0  0  0  0
    9.0789   -3.1720    0.0000 C   0  0  0  0  0  0  0  0  0  0  0  0
    8.7368   -2.4213    0.0000 C   0  0  0  0  0  0  0  0  0  0  0  0
    9.2160   -1.7497    0.0000 C   0  0  0  0  0  0  0  0  0  0  0  0
   10.0372   -1.8288    0.0000 C   0  0  0  0  0  0  0  0  0  0  0  0
   10.3792   -2.5796    0.0000 C   0  0  0  0  0  0  0  0  0  0  0  0
    9.9001   -3.2512    0.0000 C   0  0  0  0  0  0  0  0  0  0  0  0
   10.5163   -1.1572    0.0000 O   0  0  0  0  0  0  0  0  0  0  0  0
    5.5975   -6.3016    0.0000 O   0  0  0  0  0  0  0  0  0  0  0  0
    6.2608   -5.8109    0.0000 C   0  0  1  0  0  0  0  0  0  0  0  0
    5.9991   -5.0285    0.0000 C   0  0  2  0  0  0  0  0  0  0  0  0
    5.1741   -5.0357    0.0000 C   0  0  1  0  0  0  0  0  0  0  0  0
    4.9259   -5.8225    0.0000 C   0  0  1  0  0  0  0  0  0  0  0  0
    4.1435   -6.0842    0.0000 C   0  0  0  0  0  0  0  0  0  0  0  0
    3.5602   -5.5008    0.0000 O   0  0  0  0  0  0  0  0  0  0  0  0
    4.6834   -4.3724    0.0000 O   0  0  0  0  0  0  0  0  0  0  0  0
    7.0745   -5.6749    0.0000 C   0  0  0  0  0  0  0  0  0  0  0  0
    6.8441   -6.3943    0.0000 O   0  0  0  0  0  0  0  0  0  0  0  0
    6.8441   -7.2193    0.0000 C   0  0  1  0  0  0  0  0  0  0  0  0
    6.1297   -7.6318    0.0000 O   0  0  0  0  0  0  0  0  0  0  0  0
    6.1297   -8.4568    0.0000 C   0  0  1  0  0  0  0  0  0  0  0  0
    6.8441   -8.8693    0.0000 C   0  0  2  0  0  0  0  0  0  0  0  0
    7.5586   -8.4568    0.0000 C   0  0  1  0  0  0  0  0  0  0  0  0
    7.5586   -7.6318    0.0000 C   0  0  1  0  0  0  0  0  0  0  0  0
    5.4152   -8.8693    0.0000 C   0  0  0  0  0  0  0  0  0  0  0  0
    8.2731   -8.8693    0.0000 O   0  0  0  0  0  0  0  0  0  0  0  0
    8.2731   -7.2193    0.0000 O   0  0  0  0  0  0  0  0  0  0  0  0
    6.8441   -9.6943    0.0000 O   0  0  0  0  0  0  0  0  0  0  0  0
    5.4152   -9.6943    0.0000 C   0  0  0  0  0  0  0  0  0  0  0  0
    8.9875   -7.6318    0.0000 C   0  0  0  0  0  0  0  0  0  0  0  0
    9.7020   -7.2193    0.0000 C   0  0  0  0  0  0  0  0  0  0  0  0
    8.9875   -8.4568    0.0000 O   0  0  0  0  0  0  0  0  0  0  0  0
    7.5992   -6.3115    0.0000 O   0  0  0  0  0  0  0  0  0  0  0  0
    5.0125   -3.6159    0.0000 C   0  0  0  0  0  0  0  0  0  0  0  0
    4.5218   -2.9527    0.0000 O   0  0  0  0  0  0  0  0  0  0  0  0
    5.8322   -3.5226    0.0000 C   0  0  0  0  0  0  0  0  0  0  0  0
    8.4129   -6.1754    0.0000 C   0  0  0  0  0  0  0  0  0  0  0  0
    8.9376   -6.8120    0.0000 C   0  0  0  0  0  0  0  0  0  0  0  0
    8.7019   -5.4027    0.0000 O   0  0  0  0  0  0  0  0  0  0  0  0
    8.2731   -9.6943    0.0000 C   0  0  0  0  0  0  0  0  0  0  0  0
    7.5586  -10.1068    0.0000 O   0  0  0  0  0  0  0  0  0  0  0  0
    8.9875  -10.1068    0.0000 C   0  0  0  0  0  0  0  0  0  0  0  0
    6.1297  -10.1068    0.0000 C   0  0  0  0  0  0  0  0  0  0  0  0
    6.1297  -10.9318    0.0000 O   0  0  0  0  0  0  0  0  0  0  0  0
    4.7007   -8.4568    0.0000 O   0  0  0  0  0  0  0  0  0  0  0  0
    3.9862   -8.8693    0.0000 C   0  0  0  0  0  0  0  0  0  0  0  0
    3.2718   -8.4568    0.0000 C   0  0  0  0  0  0  0  0  0  0  0  0
    3.9862   -9.6943    0.0000 O   0  0  0  0  0  0  0  0  0  0  0  0
  1  2  1  0  0  0  0
  2  3  2  0  0  0  0
  1  4  2  0  0  0  0
  1  5  1  0  0  0  0
  6  7  1  0  0  0  0
  7  8  2  0  0  0  0
  8  9  1  0  0  0  0
  9 10  2  0  0  0  0
 10 11  1  0  0  0  0
  6 11  2  0  0  0  0
  9 12  1  0  0  0  0
  3  6  1  0  0  0  0
 13 14  1  0  0  0  0
 14 15  1  0  0  0  0
 15 16  1  0  0  0  0
 16 17  1  0  0  0  0
 13 17  1  0  0  0  0
 18 19  1  0  0  0  0
 17 18  1  6  0  0  0
 16 20  1  1  0  0  0
 15  5  1  6  0  0  0
 14 21  1  0  0  0  0
 14 22  1  6  0  0  0
 23 22  1  6  0  0  0
 23 24  1  0  0  0  0
 24 25  1  0  0  0  0
 25 26  1  0  0  0  0
 26 27  1  0  0  0  0
 27 28  1  0  0  0  0
 28 23  1  0  0  0  0
 25 29  1  1  0  0  0
 27 30  1  1  0  0  0
 28 31  1  6  0  0  0
 26 32  1  6  0  0  0
 31 34  1  0  0  0  0
 34 35  1  0  0  0  0
 34 36  2  0  0  0  0
 21 37  1  0  0  0  0
 20 38  1  0  0  0  0
 38 39  2  0  0  0  0
 38 40  1  0  0  0  0
 37 41  1  0  0  0  0
 41 42  1  0  0  0  0
 41 43  2  0  0  0  0
 30 44  1  0  0  0  0
 44 45  2  0  0  0  0
 44 46  1  0  0  0  0
 32 47  1  0  0  0  0
 47 33  1  0  0  0  0
 47 48  2  0  0  0  0
 29 49  1  0  0  0  0
 49 50  1  0  0  0  0
 50 51  1  0  0  0  0
 50 52  2  0  0  0  0
M  END
>  <cdx:fragmentId>
204591

$$$$
