1989.cdx
  Mrv1902 05222410212D          

 24 26  0  0  0  0            999 V2000
    4.7954   -5.6523    0.0000 C   0  0  0  0  0  0  0  0  0  0  0  0
    4.8121   -6.4771    0.0000 C   0  0  0  0  0  0  0  0  0  0  0  0
    5.5347   -6.8751    0.0000 C   0  0  0  0  0  0  0  0  0  0  0  0
    6.2407   -6.4483    0.0000 C   0  0  0  0  0  0  0  0  0  0  0  0
    6.2241   -5.6234    0.0000 C   0  0  0  0  0  0  0  0  0  0  0  0
    5.5014   -5.2254    0.0000 C   0  0  0  0  0  0  0  0  0  0  0  0
    6.9634   -6.8463    0.0000 C   0  0  2  0  0  0  0  0  0  0  0  0
    7.6694   -6.4194    0.0000 N   0  3  0  0  0  0  0  0  0  0  0  0
    7.6527   -5.5946    0.0000 C   0  0  0  0  0  0  0  0  0  0  0  0
    6.9301   -5.1966    0.0000 C   0  0  0  0  0  0  0  0  0  0  0  0
    9.8706   -9.2631    0.0000 O   0  0  0  0  0  0  0  0  0  0  0  0
    7.7193   -8.8939    0.0000 C   0  0  0  0  0  0  0  0  0  0  0  0
    8.4420   -9.2919    0.0000 C   0  0  0  0  0  0  0  0  0  0  0  0
    9.1480   -8.8651    0.0000 C   0  0  0  0  0  0  0  0  0  0  0  0
    9.1313   -8.0403    0.0000 C   0  0  0  0  0  0  0  0  0  0  0  0
    6.9800   -7.6711    0.0000 C   0  0  0  0  0  0  0  0  0  0  0  0
    4.0728   -5.2543    0.0000 O   0  0  0  0  0  0  0  0  0  0  0  0
    4.1061   -6.9039    0.0000 O   0  0  0  0  0  0  0  0  0  0  0  0
    8.4944   -6.4120    0.0000 C   0  0  0  0  0  0  0  0  0  0  0  0
    8.0883   -7.1301    0.0000 C   0  0  0  0  0  0  0  0  0  0  0  0
    7.7027   -8.0691    0.0000 C   0  0  0  0  0  0  0  0  0  0  0  0
    8.4087   -7.6423    0.0000 C   0  0  0  0  0  0  0  0  0  0  0  0
    6.2489   -7.2588    0.0000 H   0  0  0  0  0  0  0  0  0  0  0  0
    3.3668   -5.6811    0.0000 C   0  0  0  0  0  0  0  0  0  0  0  0
  1  2  2  0  0  0  0
  2  3  1  0  0  0  0
  3  4  2  0  0  0  0
  4  5  1  0  0  0  0
  5  6  2  0  0  0  0
  6  1  1  0  0  0  0
  4  7  1  0  0  0  0
  7  8  1  0  0  0  0
  8  9  1  0  0  0  0
  9 10  2  0  0  0  0
 10  5  1  0  0  0  0
 14 11  1  0  0  0  0
 12 21  1  0  0  0  0
 13 12  2  0  0  0  0
 14 13  1  0  0  0  0
 16  7  1  0  0  0  0
 15 14  2  0  0  0  0
 22 15  1  0  0  0  0
 21 16  1  0  0  0  0
 22 21  2  0  0  0  0
  1 17  1  0  0  0  0
  2 18  1  0  0  0  0
  8 19  1  0  0  0  0
  8 20  1  0  0  0  0
  7 23  1  1  0  0  0
 17 24  1  0  0  0  0
M  CHG  1   8   1
M  END
>  <cdx:fragmentId>
5

$$$$
