199004.cdx
  Mrv1902 05222410212D          

 18 18  0  0  0  0            999 V2000
    9.3305   -7.8167    0.0000 C   0  0  0  0  0  0  0  0  0  0  0  0
    8.6160   -7.4042    0.0000 C   0  0  0  0  0  0  0  0  0  0  0  0
    7.9016   -7.8167    0.0000 C   0  0  0  0  0  0  0  0  0  0  0  0
    7.1871   -7.4042    0.0000 C   0  0  0  0  0  0  0  0  0  0  0  0
    9.3305   -8.6417    0.0000 O   0  0  0  0  0  0  0  0  0  0  0  0
   10.0450   -7.4042    0.0000 O   0  0  0  0  0  0  0  0  0  0  0  0
    7.1871   -6.5792    0.0000 O   0  0  0  0  0  0  0  0  0  0  0  0
    6.4726   -7.8167    0.0000 O   0  0  0  0  0  0  0  0  0  0  0  0
    5.7582   -7.4042    0.0000 C   0  0  0  0  0  0  0  0  0  0  0  0
    5.0437   -7.8167    0.0000 C   0  0  0  0  0  0  0  0  0  0  0  0
    4.3292   -7.4042    0.0000 C   0  0  0  0  0  0  0  0  0  0  0  0
    4.3292   -6.5792    0.0000 C   0  0  0  0  0  0  0  0  0  0  0  0
    5.0437   -6.1667    0.0000 C   0  0  0  0  0  0  0  0  0  0  0  0
    5.7582   -6.5792    0.0000 C   0  0  0  0  0  0  0  0  0  0  0  0
    4.3292   -9.0542    0.0000 C   0  0  0  0  0  0  0  0  0  0  0  0
    5.0437   -8.6417    0.0000 C   0  0  0  0  0  0  0  0  0  0  0  0
    5.7582   -9.0542    0.0000 C   0  0  0  0  0  0  0  0  0  0  0  0
    5.0437   -5.3417    0.0000 C   0  0  0  0  0  0  0  0  0  0  0  0
  1  2  1  0  0  0  0
  2  3  1  0  0  0  0
  3  4  1  0  0  0  0
  1  5  2  0  0  0  0
  1  6  1  0  0  0  0
  4  7  2  0  0  0  0
  9 10  1  0  0  0  0
 10 11  1  0  0  0  0
 11 12  1  0  0  0  0
 12 13  1  0  0  0  0
 13 14  1  0  0  0  0
  9 14  1  0  0  0  0
 15 16  1  0  0  0  0
 16 17  1  0  0  0  0
 10 16  1  0  0  0  0
 13 18  1  0  0  0  0
  8  9  1  0  0  0  0
  4  8  1  0  0  0  0
M  END
>  <cdx:fragmentId>
242

$$$$
