199116.cdx
  Mrv1902 05222410192D          

 11 11  0  0  0  0            999 V2000
    7.9101   -7.8911    0.0000 C   0  0  0  0  0  0  0  0  0  0  0  0
    8.6246   -8.3036    0.0000 C   0  0  0  0  0  0  0  0  0  0  0  0
    9.3391   -7.8911    0.0000 C   0  0  0  0  0  0  0  0  0  0  0  0
    8.6246   -9.1286    0.0000 N   0  0  0  0  0  0  0  0  0  0  0  0
    7.1956   -8.3036    0.0000 C   0  0  0  0  0  0  0  0  0  0  0  0
    7.1956   -9.1286    0.0000 C   0  0  0  0  0  0  0  0  0  0  0  0
    6.4812   -9.5411    0.0000 C   0  0  0  0  0  0  0  0  0  0  0  0
    5.7667   -9.1286    0.0000 C   0  0  0  0  0  0  0  0  0  0  0  0
    5.7667   -8.3036    0.0000 C   0  0  0  0  0  0  0  0  0  0  0  0
    6.4812   -7.8911    0.0000 C   0  0  0  0  0  0  0  0  0  0  0  0
    5.0522   -9.5411    0.0000 C   0  0  0  0  0  0  0  0  0  0  0  0
  1  2  1  0  0  0  0
  2  3  1  0  0  0  0
  2  4  1  0  0  0  0
  5  6  1  0  0  0  0
  6  7  2  0  0  0  0
  7  8  1  0  0  0  0
  8  9  2  0  0  0  0
  9 10  1  0  0  0  0
  5 10  2  0  0  0  0
  8 11  1  0  0  0  0
  1  5  1  0  0  0  0
M  END
>  <cdx:fragmentId>
13

$$$$
