199112.cdx
  Mrv1902 05222410192D          

 12 12  0  0  0  0            999 V2000
   15.8217  -13.7330    0.0000 C   0  0  0  0  0  0  0  0  0  0  0  0
   15.1072  -13.3205    0.0000 C   0  0  0  0  0  0  0  0  0  0  0  0
   15.1072  -12.4955    0.0000 C   0  0  0  0  0  0  0  0  0  0  0  0
   14.3928  -13.7330    0.0000 N   0  0  0  0  0  0  0  0  0  0  0  0
   16.5362  -13.3205    0.0000 C   0  0  0  0  0  0  0  0  0  0  0  0
   16.5362  -12.4955    0.0000 C   0  0  0  0  0  0  0  0  0  0  0  0
   17.2506  -12.0830    0.0000 C   0  0  0  0  0  0  0  0  0  0  0  0
   17.9651  -12.4955    0.0000 C   0  0  0  0  0  0  0  0  0  0  0  0
   17.9651  -13.3205    0.0000 C   0  0  0  0  0  0  0  0  0  0  0  0
   17.2506  -13.7330    0.0000 C   0  0  0  0  0  0  0  0  0  0  0  0
   13.6783  -13.3205    0.0000 O   0  0  0  0  0  0  0  0  0  0  0  0
   12.9638  -13.7330    0.0000 C   0  0  0  0  0  0  0  0  0  0  0  0
  1  2  1  0  0  0  0
  2  3  1  0  0  0  0
  2  4  1  0  0  0  0
  5  6  1  0  0  0  0
  6  7  2  0  0  0  0
  7  8  1  0  0  0  0
  8  9  2  0  0  0  0
  9 10  1  0  0  0  0
  5 10  2  0  0  0  0
  1  5  1  0  0  0  0
 11 12  1  0  0  0  0
  4 11  1  0  0  0  0
M  END
>  <cdx:groupId>
2133

>  <cdx:fragmentId>
2108

$$$$
