199318.cdx
  Mrv1902 05222410262D          

 13 14  0  0  0  0            999 V2000
   15.6557  -16.5119    0.0000 Si  0  0  0  0  0  0  0  0  0  0  0  0
   16.2390  -15.9286    0.0000 O   0  0  0  0  0  0  0  0  0  0  0  0
   17.0640  -15.9286    0.0000 C   0  0  0  0  0  0  0  0  0  0  0  0
   17.6474  -16.5119    0.0000 C   0  0  0  0  0  0  0  0  0  0  0  0
   17.6474  -17.3369    0.0000 N   0  0  0  0  0  0  0  0  0  0  0  0
   17.0557  -17.5208    0.0000 C   0  0  0  0  0  0  0  0  0  0  0  0
   16.4450  -17.4217    0.0000 C   0  0  0  0  0  0  0  0  0  0  0  0
   15.9430  -17.0599    0.0000 O   0  0  0  0  0  0  0  0  0  0  0  0
   15.6557  -17.3369    0.0000 O   0  0  0  0  0  0  0  0  0  0  0  0
   16.2390  -17.9203    0.0000 C   0  0  0  0  0  0  0  0  0  0  0  0
   17.0640  -17.9203    0.0000 C   0  0  0  0  0  0  0  0  0  0  0  0
   14.8935  -16.1962    0.0000 O   0  0  0  0  0  0  0  0  0  0  0  0
   14.2389  -16.6985    0.0000 C   0  0  0  0  0  0  0  0  0  0  0  0
  1  2  1  0  0  0  0
  2  3  1  0  0  0  0
  3  4  1  0  0  0  0
  4  5  1  0  0  0  0
  5  6  1  0  0  0  0
  6  7  1  0  0  0  0
  7  8  1  0  0  0  0
  9 10  1  0  0  0  0
 10 11  1  0  0  0  0
  1  8  1  0  0  0  0
  1  9  1  0  0  0  0
 11  5  1  0  0  0  0
 12 13  1  0  0  0  0
  1 12  1  0  0  0  0
M  END
>  <cdx:groupId>
2260

>  <cdx:fragmentId>
2223

$$$$
