1993.cdx
  Mrv1902 05222410252D          

 30 32  0  0  0  0            999 V2000
    8.7015   -4.0418    0.0000 C   0  0  2  0  0  0  0  0  0  0  0  0
    7.9862   -3.6307    0.0000 C   0  0  2  0  0  0  0  0  0  0  0  0
    7.2726   -4.0446    0.0000 C   0  0  1  0  0  0  0  0  0  0  0  0
    7.2742   -4.8696    0.0000 C   0  0  2  0  0  0  0  0  0  0  0  0
    7.9895   -5.2807    0.0000 C   0  0  1  0  0  0  0  0  0  0  0  0
    8.7031   -4.8668    0.0000 O   0  0  0  0  0  0  0  0  0  0  0  0
    6.5605   -5.2835    0.0000 O   0  0  0  0  0  0  0  0  0  0  0  0
    6.5622   -6.1085    0.0000 C   0  0  0  0  0  0  0  0  0  0  0  0
    7.2775   -6.5196    0.0000 C   0  0  0  0  0  0  0  0  0  0  0  0
    7.9911   -6.1057    0.0000 O   0  0  0  0  0  0  0  0  0  0  0  0
    5.8485   -6.5224    0.0000 C   0  0  0  0  0  0  0  0  0  0  0  0
    5.8501   -7.3474    0.0000 C   0  0  0  0  0  0  0  0  0  0  0  0
    6.5654   -7.7585    0.0000 C   0  0  0  0  0  0  0  0  0  0  0  0
    7.2791   -7.3446    0.0000 C   0  0  0  0  0  0  0  0  0  0  0  0
    5.1332   -6.1113    0.0000 O   0  0  0  0  0  0  0  0  0  0  0  0
    4.4196   -6.5252    0.0000 C   0  0  0  0  0  0  0  0  0  0  0  0
    4.4212   -7.3502    0.0000 C   0  0  0  0  0  0  0  0  0  0  0  0
    5.1365   -7.7613    0.0000 C   0  0  0  0  0  0  0  0  0  0  0  0
    7.2823   -8.9946    0.0000 O   0  0  0  0  0  0  0  0  0  0  0  0
    7.9960   -8.5807    0.0000 C   0  0  2  0  0  0  0  0  0  0  0  0
    7.9944   -7.7557    0.0000 C   0  0  0  0  0  0  0  0  0  0  0  0
    8.7113   -8.9918    0.0000 C   0  0  0  0  0  0  0  0  0  0  0  0
    9.4152   -3.6279    0.0000 C   0  0  0  0  0  0  0  0  0  0  0  0
    9.4136   -2.8029    0.0000 O   0  0  0  0  0  0  0  0  0  0  0  0
    3.7043   -6.1141    0.0000 O   0  0  0  0  0  0  0  0  0  0  0  0
    9.4266   -9.4029    0.0000 O   0  0  0  0  0  0  0  0  0  0  0  0
    7.9846   -2.8057    0.0000 O   0  0  0  0  0  0  0  0  0  0  0  0
    6.5573   -3.6335    0.0000 O   0  0  0  0  0  0  0  0  0  0  0  0
    9.1224   -8.2765    0.0000 C   0  0  0  0  0  0  0  0  0  0  0  0
    8.3002   -9.7071    0.0000 C   0  0  0  0  0  0  0  0  0  0  0  0
  1  2  1  0  0  0  0
  2  3  1  0  0  0  0
  3  4  1  0  0  0  0
  4  5  1  0  0  0  0
  5  6  1  0  0  0  0
  6  1  1  0  0  0  0
  4  7  1  6  0  0  0
  8  9  1  0  0  0  0
  9 10  1  0  0  0  0
  5 10  1  1  0  0  0
  8 11  2  0  0  0  0
 11 12  1  0  0  0  0
 12 13  2  0  0  0  0
 13 14  1  0  0  0  0
 14  9  2  0  0  0  0
 11 15  1  0  0  0  0
 15 16  1  0  0  0  0
 16 17  1  0  0  0  0
 17 18  2  0  0  0  0
 18 12  1  0  0  0  0
 20 19  1  6  0  0  0
 20 21  1  0  0  0  0
 21 14  1  0  0  0  0
 22 20  1  0  0  0  0
  1 23  1  1  0  0  0
 23 24  1  0  0  0  0
 16 25  2  0  0  0  0
 22 26  1  0  0  0  0
  2 27  1  6  0  0  0
  3 28  1  1  0  0  0
 22 29  1  0  0  0  0
 22 30  1  0  0  0  0
M  END
>  <cdx:fragmentId>
5

$$$$
