1995.cdx
  Mrv1902 05222410232D          

 31 34  0  0  0  0            999 V2000
    4.2520   -9.9825    0.0000 C   0  0  0  0  0  0  0  0  0  0  0  0
    4.2520  -10.8075    0.0000 C   0  0  0  0  0  0  0  0  0  0  0  0
    4.9665  -11.2200    0.0000 C   0  0  0  0  0  0  0  0  0  0  0  0
    5.6810  -10.8075    0.0000 C   0  0  0  0  0  0  0  0  0  0  0  0
    5.6810   -9.9825    0.0000 C   0  0  0  0  0  0  0  0  0  0  0  0
    4.9665   -9.5700    0.0000 C   0  0  0  0  0  0  0  0  0  0  0  0
    6.3954  -11.2200    0.0000 C   0  0  0  0  0  0  0  0  0  0  0  0
    7.1099  -10.8075    0.0000 C   0  0  0  0  0  0  0  0  0  0  0  0
    7.1099   -9.9825    0.0000 C   0  0  0  0  0  0  0  0  0  0  0  0
    6.3954   -9.5700    0.0000 C   0  0  0  0  0  0  0  0  0  0  0  0
    7.8244  -11.2200    0.0000 C   0  0  0  0  0  0  0  0  0  0  0  0
    8.5389  -10.8075    0.0000 C   0  0  2  0  0  0  0  0  0  0  0  0
    8.5389   -9.9825    0.0000 O   0  0  0  0  0  0  0  0  0  0  0  0
    7.8244   -9.5700    0.0000 C   0  0  0  0  0  0  0  0  0  0  0  0
    4.9665   -8.7450    0.0000 O   0  0  0  0  0  0  0  0  0  0  0  0
    3.5376  -11.2200    0.0000 O   0  0  0  0  0  0  0  0  0  0  0  0
    2.8231  -11.6325    0.0000 C   0  0  0  0  0  0  0  0  0  0  0  0
    6.3954   -8.7450    0.0000 O   0  0  0  0  0  0  0  0  0  0  0  0
    7.8244   -8.7450    0.0000 O   0  0  0  0  0  0  0  0  0  0  0  0
    9.2533  -11.2200    0.0000 C   0  0  0  0  0  0  0  0  0  0  0  0
    6.0925   -7.0858    0.0000 O   0  0  0  0  0  0  0  0  0  0  0  0
    5.6800   -7.8002    0.0000 C   0  0  0  0  0  0  0  0  0  0  0  0
    6.4731   -7.5736    0.0000 C   0  0  0  0  0  0  0  0  0  0  0  0
    7.2711   -7.8002    0.0000 C   0  0  0  0  0  0  0  0  0  0  0  0
    7.6839   -7.0858    0.0000 C   0  0  0  0  0  0  0  0  0  0  0  0
    6.8905   -7.3124    0.0000 C   0  0  0  0  0  0  0  0  0  0  0  0
    8.0271   -7.2920    0.0000 O   0  0  0  0  0  0  0  0  0  0  0  0
    7.2205   -6.8660    0.0000 C   0  0  0  0  0  0  0  0  0  0  0  0
    7.1999   -6.4329    0.0000 O   0  0  0  0  0  0  0  0  0  0  0  0
    6.1637   -7.9787    0.0000 O   0  0  0  0  0  0  0  0  0  0  0  0
    7.2711   -8.1921    0.0000 O   0  0  0  0  0  0  0  0  0  0  0  0
  1  2  2  0  0  0  0
  2  3  1  0  0  0  0
  3  4  2  0  0  0  0
  4  5  1  0  0  0  0
  5  6  2  0  0  0  0
  6  1  1  0  0  0  0
  4  7  1  0  0  0  0
  7  8  2  0  0  0  0
  8  9  1  0  0  0  0
  9 10  2  0  0  0  0
 10  5  1  0  0  0  0
  8 11  1  0  0  0  0
 11 12  1  0  0  0  0
 12 13  1  0  0  0  0
 13 14  1  0  0  0  0
 14  9  1  0  0  0  0
  6 15  1  0  0  0  0
  2 16  1  0  0  0  0
 10 18  1  0  0  0  0
 14 19  2  0  0  0  0
 12 20  1  6  0  0  0
 21 22  1  0  0  0  0
 22 23  1  0  0  0  0
 23 24  1  0  0  0  0
 24 25  1  0  0  0  0
 25 26  1  0  0  0  0
 26 21  1  0  0  0  0
 25 27  1  0  0  0  0
 26 28  1  0  0  0  0
 28 29  1  0  0  0  0
 23 30  1  0  0  0  0
 24 31  1  0  0  0  0
 22 15  1  0  0  0  0
 16 17  1  0  0  0  0
M  STY  1   1 SUP
M  SAL   1  2  16  17
M  SBL   1  1  18
M  SMT   1 OCH3
M  SAP   1  1  16   2  1
M  END
>  <cdx:fragmentId>
56

$$$$
