1997.cdx
  Mrv1902 05222410242D          

 21 23  0  0  0  0            999 V2000
    4.7677   -5.3006    0.0000 C   0  0  0  0  0  0  0  0  0  0  0  0
    4.7677   -6.1256    0.0000 C   0  0  0  0  0  0  0  0  0  0  0  0
    5.4821   -6.5381    0.0000 C   0  0  0  0  0  0  0  0  0  0  0  0
    6.1966   -6.1256    0.0000 C   0  0  0  0  0  0  0  0  0  0  0  0
    6.1966   -5.3006    0.0000 C   0  0  0  0  0  0  0  0  0  0  0  0
    5.4821   -4.8881    0.0000 C   0  0  0  0  0  0  0  0  0  0  0  0
    6.9111   -6.5381    0.0000 C   0  0  0  0  0  0  0  0  0  0  0  0
    7.6255   -6.1256    0.0000 C   0  0  0  0  0  0  0  0  0  0  0  0
    7.6255   -5.3006    0.0000 C   0  0  0  0  0  0  0  0  0  0  0  0
    6.9111   -4.8881    0.0000 C   0  0  0  0  0  0  0  0  0  0  0  0
    8.3400   -6.5381    0.0000 C   0  0  0  0  0  0  0  0  0  0  0  0
    9.0545   -6.1256    0.0000 C   0  0  2  0  0  0  0  0  0  0  0  0
    9.0545   -5.3006    0.0000 O   0  0  0  0  0  0  0  0  0  0  0  0
    8.3400   -4.8881    0.0000 C   0  0  0  0  0  0  0  0  0  0  0  0
    5.4821   -4.0631    0.0000 O   0  0  0  0  0  0  0  0  0  0  0  0
    4.0532   -6.5381    0.0000 O   0  0  0  0  0  0  0  0  0  0  0  0
    3.3387   -6.9506    0.0000 C   0  0  0  0  0  0  0  0  0  0  0  0
    6.9111   -4.0631    0.0000 O   0  0  0  0  0  0  0  0  0  0  0  0
    8.3400   -4.0631    0.0000 O   0  0  0  0  0  0  0  0  0  0  0  0
    9.7690   -6.5381    0.0000 C   0  0  0  0  0  0  0  0  0  0  0  0
    5.4821   -7.3631    0.0000 O   0  0  0  0  0  0  0  0  0  0  0  0
  1  2  2  0  0  0  0
  2  3  1  0  0  0  0
  3  4  1  0  0  0  0
  4  5  1  0  0  0  0
  5  6  1  0  0  0  0
  6  1  1  0  0  0  0
  4  7  1  0  0  0  0
  7  8  2  0  0  0  0
  8  9  1  0  0  0  0
  9 10  2  0  0  0  0
 10  5  1  0  0  0  0
  8 11  1  0  0  0  0
 11 12  1  0  0  0  0
 12 13  1  0  0  0  0
 13 14  1  0  0  0  0
 14  9  1  0  0  0  0
  6 15  2  0  0  0  0
  2 16  1  0  0  0  0
 10 18  1  0  0  0  0
 14 19  2  0  0  0  0
 12 20  1  6  0  0  0
  3 21  2  0  0  0  0
 16 17  1  0  0  0  0
M  STY  1   1 SUP
M  SAL   1  2  16  17
M  SBL   1  1  18
M  SMT   1 OCH3
M  SAP   1  1  16   2  1
M  END
>  <cdx:fragmentId>
161

$$$$
