200.cdx
  Mrv1902 05222410222D          

 89 99  0  0  0  0            999 V2000
   14.3830   -8.3875    0.0000 C   0  0  0  0  0  0  0  0  0  0  0  0
   14.3830   -9.2125    0.0000 C   0  0  1  0  0  0  0  0  0  0  0  0
   15.0975   -9.6250    0.0000 C   0  0  1  0  0  0  0  0  0  0  0  0
   15.8120   -9.2125    0.0000 C   0  0  0  0  0  0  0  0  0  0  0  0
   15.8120   -8.3875    0.0000 C   0  0  2  0  0  0  0  0  0  0  0  0
   15.0975   -7.9750    0.0000 C   0  0  0  0  0  0  0  0  0  0  0  0
   16.5264   -9.6250    0.0000 C   0  0  0  0  0  0  0  0  0  0  0  0
   17.2409   -9.2125    0.0000 C   0  0  0  0  0  0  0  0  0  0  0  0
   17.2409   -8.3875    0.0000 C   0  0  0  0  0  0  0  0  0  0  0  0
   16.5264   -7.9750    0.0000 C   0  0  0  0  0  0  0  0  0  0  0  0
   17.9554   -7.9750    0.0000 C   0  0  1  0  0  0  0  0  0  0  0  0
   17.9554   -7.1500    0.0000 C   0  0  0  0  0  0  0  0  0  0  0  0
   17.2409   -6.7375    0.0000 C   0  0  2  0  0  0  0  0  0  0  0  0
   16.5264   -7.1500    0.0000 C   0  0  0  0  0  0  0  0  0  0  0  0
   18.7400   -8.2299    0.0000 C   0  0  0  0  0  0  0  0  0  0  0  0
   19.2249   -7.5625    0.0000 C   0  0  0  0  0  0  0  0  0  0  0  0
   18.7400   -6.8951    0.0000 C   0  0  2  0  0  0  0  0  0  0  0  0
   18.7400   -6.0701    0.0000 C   0  0  1  0  0  0  0  0  0  0  0  0
   17.9554   -5.8151    0.0000 O   0  0  0  0  0  0  0  0  0  0  0  0
   17.4705   -6.4826    0.0000 C   0  0  0  0  0  0  0  0  0  0  0  0
   19.5369   -6.6815    0.0000 H   0  0  0  0  0  0  0  0  0  0  0  0
   19.4074   -5.5851    0.0000 C   0  0  0  0  0  0  0  0  0  0  0  0
   18.7400   -5.2451    0.0000 C   0  0  0  0  0  0  0  0  0  0  0  0
   16.6455   -6.4826    0.0000 O   0  0  0  0  0  0  0  0  0  0  0  0
   17.2409   -7.5680    0.0000 O   0  0  0  0  0  0  0  0  0  0  0  0
   17.9554   -8.8000    0.0000 C   0  0  0  0  0  0  0  0  0  0  0  0
   15.8120   -7.5625    0.0000 C   0  0  0  0  0  0  0  0  0  0  0  0
   14.6850  -10.3395    0.0000 C   0  0  0  0  0  0  0  0  0  0  0  0
   15.5100  -10.3395    0.0000 C   0  0  0  0  0  0  0  0  0  0  0  0
   13.6686   -9.6250    0.0000 O   0  0  0  0  0  0  0  0  0  0  0  0
   12.9541   -9.2125    0.0000 C   0  0  2  0  0  0  0  0  0  0  0  0
   12.9541   -8.3875    0.0000 O   0  0  0  0  0  0  0  0  0  0  0  0
   12.2396   -7.9750    0.0000 C   0  0  0  0  0  0  0  0  0  0  0  0
   11.5251   -8.3875    0.0000 C   0  0  2  0  0  0  0  0  0  0  0  0
   11.5251   -9.2125    0.0000 C   0  0  1  0  0  0  0  0  0  0  0  0
   12.2396   -9.6250    0.0000 C   0  0  1  0  0  0  0  0  0  0  0  0
   10.8107   -9.6250    0.0000 O   0  0  0  0  0  0  0  0  0  0  0  0
   10.8107   -7.9750    0.0000 O   0  0  0  0  0  0  0  0  0  0  0  0
   12.2396  -10.4500    0.0000 O   0  0  0  0  0  0  0  0  0  0  0  0
   11.5251  -10.8625    0.0000 C   0  0  2  0  0  0  0  0  0  0  0  0
   10.8107  -10.4500    0.0000 O   0  0  0  0  0  0  0  0  0  0  0  0
   10.0962  -10.8625    0.0000 C   0  0  1  0  0  0  0  0  0  0  0  0
   10.0962  -11.6875    0.0000 C   0  0  2  0  0  0  0  0  0  0  0  0
   10.8107  -12.1000    0.0000 C   0  0  1  0  0  0  0  0  0  0  0  0
   11.5251  -11.6875    0.0000 C   0  0  1  0  0  0  0  0  0  0  0  0
    9.3817  -10.4500    0.0000 C   0  0  0  0  0  0  0  0  0  0  0  0
   10.8107  -12.9250    0.0000 O   0  0  0  0  0  0  0  0  0  0  0  0
    9.3817  -12.1000    0.0000 O   0  0  0  0  0  0  0  0  0  0  0  0
   12.2396  -12.1000    0.0000 O   0  0  0  0  0  0  0  0  0  0  0  0
    8.6673  -11.6875    0.0000 C   0  0  2  0  0  0  0  0  0  0  0  0
    8.6673  -10.8625    0.0000 O   0  0  0  0  0  0  0  0  0  0  0  0
    7.9528  -10.4500    0.0000 C   0  0  1  0  0  0  0  0  0  0  0  0
    7.2383  -10.8625    0.0000 C   0  0  2  0  0  0  0  0  0  0  0  0
    7.2383  -11.6875    0.0000 C   0  0  1  0  0  0  0  0  0  0  0  0
    7.9528  -12.1000    0.0000 C   0  0  1  0  0  0  0  0  0  0  0  0
    7.9528   -9.6250    0.0000 C   0  0  0  0  0  0  0  0  0  0  0  0
    7.2383   -9.2125    0.0000 O   0  0  0  0  0  0  0  0  0  0  0  0
    6.5238  -12.1000    0.0000 O   0  0  0  0  0  0  0  0  0  0  0  0
    6.5238  -10.4500    0.0000 O   0  0  0  0  0  0  0  0  0  0  0  0
    7.9528  -12.9250    0.0000 O   0  0  0  0  0  0  0  0  0  0  0  0
    5.8094  -11.6875    0.0000 C   0  0  2  0  0  0  0  0  0  0  0  0
    5.8094  -10.8625    0.0000 O   0  0  0  0  0  0  0  0  0  0  0  0
    5.0949  -10.4500    0.0000 C   0  0  1  0  0  0  0  0  0  0  0  0
    4.3804  -10.8625    0.0000 C   0  0  2  0  0  0  0  0  0  0  0  0
    4.3804  -11.6875    0.0000 C   0  0  1  0  0  0  0  0  0  0  0  0
    5.0949  -12.1000    0.0000 C   0  0  1  0  0  0  0  0  0  0  0  0
    5.0949   -9.6250    0.0000 C   0  0  0  0  0  0  0  0  0  0  0  0
    3.6660  -12.1000    0.0000 O   0  0  0  0  0  0  0  0  0  0  0  0
    5.0949  -12.9250    0.0000 O   0  0  0  0  0  0  0  0  0  0  0  0
    3.6660  -10.4500    0.0000 O   0  0  0  0  0  0  0  0  0  0  0  0
    4.3804   -9.2125    0.0000 O   0  0  0  0  0  0  0  0  0  0  0  0
    3.6660  -12.9250    0.0000 C   0  0  0  0  0  0  0  0  0  0  0  0
   20.1921   -5.8401    0.0000 O   0  0  0  0  0  0  0  0  0  0  0  0
   20.6770   -5.1726    0.0000 C   0  0  1  0  0  0  0  0  0  0  0  0
   20.1921   -4.5052    0.0000 C   0  0  0  0  0  0  0  0  0  0  0  0
   19.4074   -4.7601    0.0000 C   0  0  0  0  0  0  0  0  0  0  0  0
   21.3915   -4.7601    0.0000 C   0  0  0  0  0  0  0  0  0  0  0  0
   21.4739   -5.3862    0.0000 C   0  0  0  0  0  0  0  0  0  0  0  0
   10.8107   -7.1500    0.0000 C   0  0  2  0  0  0  0  0  0  0  0  0
   11.5251   -6.7375    0.0000 O   0  0  0  0  0  0  0  0  0  0  0  0
   11.5251   -5.9125    0.0000 C   0  0  1  0  0  0  0  0  0  0  0  0
   10.8107   -5.5000    0.0000 C   0  0  2  0  0  0  0  0  0  0  0  0
   10.0962   -5.9125    0.0000 C   0  0  1  0  0  0  0  0  0  0  0  0
   10.0962   -6.7375    0.0000 C   0  0  1  0  0  0  0  0  0  0  0  0
   12.2396   -5.5000    0.0000 C   0  0  0  0  0  0  0  0  0  0  0  0
    9.3817   -5.5000    0.0000 O   0  0  0  0  0  0  0  0  0  0  0  0
   10.8107   -4.6750    0.0000 O   0  0  0  0  0  0  0  0  0  0  0  0
    9.3817   -7.1500    0.0000 O   0  0  0  0  0  0  0  0  0  0  0  0
   12.2396   -4.6750    0.0000 O   0  0  0  0  0  0  0  0  0  0  0  0
  1  2  1  0  0  0  0
  2  3  1  0  0  0  0
  3  4  1  0  0  0  0
  4  5  1  0  0  0  0
  5  6  1  0  0  0  0
  6  1  1  0  0  0  0
  4  7  1  0  0  0  0
  7  8  1  0  0  0  0
  8  9  1  0  0  0  0
  9 10  1  0  0  0  0
 10  5  1  0  0  0  0
  9 11  1  0  0  0  0
 11 12  1  0  0  0  0
 12 13  1  0  0  0  0
 13 14  1  0  0  0  0
 14 10  2  0  0  0  0
 11 15  1  0  0  0  0
 15 16  1  0  0  0  0
 16 17  1  0  0  0  0
 17 12  1  0  0  0  0
 17 18  1  0  0  0  0
 18 19  1  0  0  0  0
 19 20  1  0  0  0  0
 20 12  1  0  0  0  0
 17 21  1  6  0  0  0
 18 22  1  0  0  0  0
 18 23  1  6  0  0  0
 20 24  2  0  0  0  0
 13 25  1  6  0  0  0
 11 26  1  6  0  0  0
  5 27  1  1  0  0  0
  3 28  1  1  0  0  0
  3 29  1  6  0  0  0
  2 30  1  1  0  0  0
 31 30  1  1  0  0  0
 31 32  1  0  0  0  0
 32 33  1  0  0  0  0
 33 34  1  0  0  0  0
 34 35  1  0  0  0  0
 35 36  1  0  0  0  0
 36 31  1  0  0  0  0
 35 37  1  1  0  0  0
 34 38  1  6  0  0  0
 36 39  1  6  0  0  0
 40 39  1  1  0  0  0
 40 41  1  0  0  0  0
 41 42  1  0  0  0  0
 42 43  1  0  0  0  0
 43 44  1  0  0  0  0
 44 45  1  0  0  0  0
 45 40  1  0  0  0  0
 42 46  1  1  0  0  0
 44 47  1  1  0  0  0
 43 48  1  6  0  0  0
 45 49  1  6  0  0  0
 50 48  1  1  0  0  0
 50 51  1  0  0  0  0
 51 52  1  0  0  0  0
 52 53  1  0  0  0  0
 53 54  1  0  0  0  0
 54 55  1  0  0  0  0
 55 50  1  0  0  0  0
 52 56  1  1  0  0  0
 56 57  1  0  0  0  0
 54 58  1  1  0  0  0
 53 59  1  6  0  0  0
 55 60  1  6  0  0  0
 61 58  1  1  0  0  0
 61 62  1  0  0  0  0
 62 63  1  0  0  0  0
 63 64  1  0  0  0  0
 64 65  1  0  0  0  0
 65 66  1  0  0  0  0
 66 61  1  0  0  0  0
 63 67  1  1  0  0  0
 65 68  1  1  0  0  0
 66 69  1  6  0  0  0
 64 70  1  6  0  0  0
 67 71  1  0  0  0  0
 68 72  1  0  0  0  0
 22 73  1  0  0  0  0
 73 74  1  0  0  0  0
 74 75  1  0  0  0  0
 75 76  1  0  0  0  0
 76 22  1  0  0  0  0
 74 77  1  1  0  0  0
 74 78  1  6  0  0  0
 79 38  1  1  0  0  0
 79 80  1  0  0  0  0
 80 81  1  0  0  0  0
 81 82  1  0  0  0  0
 82 83  1  0  0  0  0
 83 84  1  0  0  0  0
 84 79  1  0  0  0  0
 81 85  1  1  0  0  0
 83 86  1  1  0  0  0
 82 87  1  6  0  0  0
 84 88  1  6  0  0  0
 85 89  1  0  0  0  0
M  END
>  <cdx:fragmentId>
1776

$$$$
