20007.cdx
  Mrv1902 05222410242D          

  9  9  0  0  0  0            999 V2000
    7.1412   -7.9406    0.0000 C   0  0  0  0  0  0  0  0  0  0  0  0
    7.1412   -8.7656    0.0000 C   0  0  0  0  0  0  0  0  0  0  0  0
    7.8556   -9.1781    0.0000 C   0  0  0  0  0  0  0  0  0  0  0  0
    8.5701   -8.7656    0.0000 C   0  0  0  0  0  0  0  0  0  0  0  0
    8.5701   -7.9406    0.0000 C   0  0  0  0  0  0  0  0  0  0  0  0
    7.8556   -7.5281    0.0000 C   0  0  0  0  0  0  0  0  0  0  0  0
    6.4267   -9.1781    0.0000 O   0  0  0  0  0  0  0  0  0  0  0  0
    7.8556   -6.7031    0.0000 C   0  0  0  0  0  0  0  0  0  0  0  0
    8.5701   -6.2906    0.0000 C   0  0  0  0  0  0  0  0  0  0  0  0
  1  2  2  0  0  0  0
  2  3  1  0  0  0  0
  3  4  2  0  0  0  0
  4  5  1  0  0  0  0
  5  6  2  0  0  0  0
  6  1  1  0  0  0  0
  2  7  1  0  0  0  0
  6  8  1  0  0  0  0
  8  9  1  0  0  0  0
M  END
>  <cdx:fragmentId>
5

$$$$
