20002.cdx
  Mrv1902 05222410242D          

  8  7  0  0  0  0            999 V2000
    6.7874   -5.2387    0.0000 C   0  0  0  0  0  0  0  0  0  0  0  0
    6.0729   -4.8263    0.0000 C   0  0  0  0  0  0  0  0  0  0  0  0
    5.3584   -5.2387    0.0000 C   0  0  0  0  0  0  0  0  0  0  0  0
    4.6440   -4.8263    0.0000 C   0  0  0  0  0  0  0  0  0  0  0  0
    3.9295   -5.2387    0.0000 C   0  0  0  0  0  0  0  0  0  0  0  0
    3.2150   -4.8263    0.0000 O   0  0  0  0  0  0  0  0  0  0  0  0
    6.7874   -6.0638    0.0000 C   0  0  0  0  0  0  0  0  0  0  0  0
    7.5019   -6.4763    0.0000 C   0  0  0  0  0  0  0  0  0  0  0  0
  2  1  2  0  0  0  0
  3  2  1  0  0  0  0
  4  3  1  0  0  0  0
  5  4  1  0  0  0  0
  6  5  2  0  0  0  0
  1  7  1  0  0  0  0
  7  8  1  0  0  0  0
M  END
>  <cdx:fragmentId>
3

$$$$
