20009.cdx
  Mrv1902 05222410232D          

 12 11  0  0  0  0            999 V2000
    4.1844   -7.5694    0.0000 C   0  0  0  0  0  0  0  0  0  0  0  0
    4.8989   -7.1569    0.0000 C   0  0  0  0  0  0  0  0  0  0  0  0
    5.6133   -7.5694    0.0000 C   0  0  0  0  0  0  0  0  0  0  0  0
    6.3278   -7.1569    0.0000 C   0  0  0  0  0  0  0  0  0  0  0  0
    7.0423   -7.5694    0.0000 C   0  0  0  0  0  0  0  0  0  0  0  0
    7.7568   -7.1569    0.0000 C   0  0  0  0  0  0  0  0  0  0  0  0
    8.4712   -7.5694    0.0000 C   0  0  0  0  0  0  0  0  0  0  0  0
    9.1857   -7.1569    0.0000 C   0  0  0  0  0  0  0  0  0  0  0  0
    9.9002   -7.5694    0.0000 C   0  0  0  0  0  0  0  0  0  0  0  0
    4.8989   -6.3319    0.0000 O   0  0  0  0  0  0  0  0  0  0  0  0
    6.3278   -6.3319    0.0000 O   0  0  0  0  0  0  0  0  0  0  0  0
    5.6133   -8.3944    0.0000 C   0  0  0  0  0  0  0  0  0  0  0  0
  1  2  1  0  0  0  0
  2  3  1  0  0  0  0
  3  4  1  0  0  0  0
  4  5  1  0  0  0  0
  5  6  1  0  0  0  0
  6  7  1  0  0  0  0
  7  8  1  0  0  0  0
  8  9  1  0  0  0  0
  2 10  2  0  0  0  0
  4 11  2  0  0  0  0
  3 12  1  0  0  0  0
M  END
>  <cdx:fragmentId>
3

$$$$
