20008.cdx
  Mrv1902 05222410222D          

  9  9  0  0  0  0            999 V2000
    6.8071   -7.5785    0.0000 C   0  0  0  0  0  0  0  0  0  0  0  0
    6.5522   -8.3632    0.0000 C   0  0  0  0  0  0  0  0  0  0  0  0
    7.2196   -8.8481    0.0000 O   0  0  0  0  0  0  0  0  0  0  0  0
    7.8871   -8.3632    0.0000 C   0  0  0  0  0  0  0  0  0  0  0  0
    7.6321   -7.5785    0.0000 C   0  0  0  0  0  0  0  0  0  0  0  0
    6.3222   -6.9111    0.0000 O   0  0  0  0  0  0  0  0  0  0  0  0
    5.7676   -8.6181    0.0000 O   0  0  0  0  0  0  0  0  0  0  0  0
    8.1171   -6.9111    0.0000 C   0  0  0  0  0  0  0  0  0  0  0  0
    8.6717   -8.6181    0.0000 C   0  0  0  0  0  0  0  0  0  0  0  0
  1  2  1  0  0  0  0
  2  3  1  0  0  0  0
  3  4  1  0  0  0  0
  4  5  1  0  0  0  0
  5  1  2  0  0  0  0
  1  6  1  0  0  0  0
  2  7  2  0  0  0  0
  5  8  1  0  0  0  0
  4  9  1  0  0  0  0
M  END
>  <cdx:fragmentId>
5

$$$$
