20003.cdx
  Mrv1902 05222410252D          

  8  8  0  0  0  0            999 V2000
    2.8496   -7.1248    0.0000 C   0  0  0  0  0  0  0  0  0  0  0  0
    2.5947   -7.9094    0.0000 C   0  0  0  0  0  0  0  0  0  0  0  0
    3.2621   -8.3943    0.0000 N   0  0  0  0  0  0  0  0  0  0  0  0
    3.9295   -7.9094    0.0000 C   0  0  0  0  0  0  0  0  0  0  0  0
    3.6746   -7.1248    0.0000 C   0  0  0  0  0  0  0  0  0  0  0  0
    4.7264   -8.1229    0.0000 C   0  0  0  0  0  0  0  0  0  0  0  0
    5.3098   -7.5396    0.0000 O   0  0  0  0  0  0  0  0  0  0  0  0
    4.9400   -8.9198    0.0000 C   0  0  0  0  0  0  0  0  0  0  0  0
  1  2  1  0  0  0  0
  2  3  1  0  0  0  0
  3  4  2  0  0  0  0
  4  5  1  0  0  0  0
  5  1  1  0  0  0  0
  4  6  1  0  0  0  0
  6  7  2  0  0  0  0
  6  8  1  0  0  0  0
M  END
>  <cdx:fragmentId>
6

$$$$
