20001.cdx
  Mrv1902 05222410252D          

 52 55  0  0  0  0            999 V2000
    4.1757   -4.7826    0.0000 O   0  0  0  0  0  0  0  0  0  0  0  0
    6.7795   -7.9690    0.0000 C   0  0  0  0  0  0  0  0  0  0  0  0
    7.3606   -8.5546    0.0000 C   0  0  0  0  0  0  0  0  0  0  0  0
    8.1583   -8.3441    0.0000 C   0  0  0  0  0  0  0  0  0  0  0  0
    8.3749   -7.5481    0.0000 C   0  0  0  0  0  0  0  0  0  0  0  0
    7.7938   -6.9625    0.0000 C   0  0  0  0  0  0  0  0  0  0  0  0
    8.6088   -7.6624    0.0000 C   0  0  0  0  0  0  0  0  0  0  0  0
    8.6056   -8.4874    0.0000 C   0  0  0  0  0  0  0  0  0  0  0  0
    9.3184   -8.9027    0.0000 C   0  0  0  0  0  0  0  0  0  0  0  0
   10.0345   -8.4929    0.0000 C   0  0  0  0  0  0  0  0  0  0  0  0
   10.0377   -7.6679    0.0000 C   0  0  0  0  0  0  0  0  0  0  0  0
    9.8584   -6.0172    0.0000 O   0  0  0  0  0  0  0  0  0  0  0  0
    9.3248   -7.2527    0.0000 C   0  0  0  0  0  0  0  0  0  0  0  0
    9.1424   -6.4270    0.0000 C   0  0  0  0  0  0  0  0  0  0  0  0
    6.9961   -7.1729    0.0000 C   0  0  0  0  0  0  0  0  0  0  0  0
    5.8293   -7.1684    0.0000 O   0  0  0  0  0  0  0  0  0  0  0  0
    6.4150   -6.5873    0.0000 C   0  0  0  0  0  0  0  0  0  0  0  0
    4.5449   -6.5240    0.0000 O   0  0  0  0  0  0  0  0  0  0  0  0
    5.5514   -7.5383    0.0000 C   0  0  0  0  0  0  0  0  0  0  0  0
    5.3409   -6.7406    0.0000 C   0  0  0  0  0  0  0  0  0  0  0  0
    5.9265   -6.1595    0.0000 O   0  0  0  0  0  0  0  0  0  0  0  0
    7.0006   -6.0062    0.0000 O   0  0  0  0  0  0  0  0  0  0  0  0
    8.4295   -6.0117    0.0000 O   0  0  0  0  0  0  0  0  0  0  0  0
    9.7299   -5.3626    0.0000 O   0  0  0  0  0  0  0  0  0  0  0  0
    7.0364   -2.0875    0.0000 C   0  0  0  0  0  0  0  0  0  0  0  0
    4.1104   -3.6836    0.0000 O   0  0  0  0  0  0  0  0  0  0  0  0
    4.4856   -2.3048    0.0000 C   0  0  0  0  0  0  0  0  0  0  0  0
    4.6961   -3.1025    0.0000 C   0  0  0  0  0  0  0  0  0  0  0  0
    5.4921   -3.3191    0.0000 O   0  0  0  0  0  0  0  0  0  0  0  0
    5.7360   -2.7366    0.0000 O   0  0  0  0  0  0  0  0  0  0  0  0
    4.5565   -5.7121    0.0000 C   0  0  0  0  0  0  0  0  0  0  0  0
    5.0866   -4.1793    0.0000 C   0  0  0  0  0  0  0  0  0  0  0  0
    4.9718   -4.9992    0.0000 C   0  0  2  0  0  0  0  0  0  0  0  0
    5.7161   -5.3618    0.0000 C   0  0  1  0  0  0  0  0  0  0  0  0
   10.3890   -4.0673    0.0000 O   0  0  0  0  0  0  0  0  0  0  0  0
    9.9727   -3.1229    0.0000 C   0  0  0  0  0  0  0  0  0  0  0  0
    9.3916   -2.5373    0.0000 C   0  0  0  0  0  0  0  0  0  0  0  0
    5.9018   -4.0351    0.0000 C   0  0  1  0  0  0  0  0  0  0  0  0
    9.5640   -4.0641    0.0000 C   0  0  0  0  0  0  0  0  0  0  0  0
    8.4644   -2.3199    0.0000 H   0  0  0  0  0  0  0  0  0  0  0  0
    7.7439   -3.8847    0.0000 H   0  0  0  0  0  0  0  0  0  0  0  0
    7.1387   -4.1858    0.0000 C   0  0  0  0  0  0  0  0  0  0  0  0
    6.3171   -3.3223    0.0000 C   0  0  0  0  0  0  0  0  0  0  0  0
    7.0332   -2.9125    0.0000 C   0  0  2  0  0  0  0  0  0  0  0  0
    7.7460   -3.3278    0.0000 C   0  0  0  0  0  0  0  0  0  0  0  0
    8.4621   -2.9181    0.0000 C   0  0  0  0  0  0  0  0  0  0  0  0
    9.1750   -3.3333    0.0000 C   0  0  0  0  0  0  0  0  0  0  0  0
    9.1488   -4.7770    0.0000 C   0  0  1  0  0  0  0  0  0  0  0  0
    8.4327   -5.1867    0.0000 C   0  0  2  0  0  0  0  0  0  0  0  0
    7.7198   -4.7714    0.0000 C   0  0  0  0  0  0  0  0  0  0  0  0
    7.0038   -5.1812    0.0000 C   0  0  1  0  0  0  0  0  0  0  0  0
    6.2909   -4.7659    0.0000 C   0  0  0  0  0  0  0  0  0  0  0  0
 33  1  1  6  0  0  0
  2 15  1  0  0  0  0
  3  2  2  0  0  0  0
  4  3  1  0  0  0  0
  5  4  2  0  0  0  0
  6  5  1  0  0  0  0
 15  6  2  0  0  0  0
  7 13  1  0  0  0  0
  8  7  2  0  0  0  0
  9  8  1  0  0  0  0
 10  9  2  0  0  0  0
 11 10  1  0  0  0  0
 13 11  2  0  0  0  0
 14 12  2  0  0  0  0
 14 13  1  0  0  0  0
 23 14  1  0  0  0  0
 17 15  1  0  0  0  0
 17 16  2  0  0  0  0
 22 17  1  0  0  0  0
 20 18  2  0  0  0  0
 20 19  1  0  0  0  0
 21 20  1  0  0  0  0
 34 21  1  1  0  0  0
 51 22  1  6  0  0  0
 49 23  1  1  0  0  0
 48 24  1  6  0  0  0
 44 25  1  1  0  0  0
 28 26  2  0  0  0  0
 28 27  1  0  0  0  0
 29 28  1  0  0  0  0
 38 29  1  1  0  0  0
 43 30  2  0  0  0  0
 33 31  1  0  0  0  0
 32 38  1  0  0  0  0
 33 32  1  0  0  0  0
 34 33  1  0  0  0  0
 52 34  1  0  0  0  0
 39 35  2  0  0  0  0
 47 36  1  0  0  0  0
 47 37  1  0  0  0  0
 52 38  1  0  0  0  0
 43 38  1  0  0  0  0
 39 47  1  0  0  0  0
 48 39  1  0  0  0  0
 46 40  1  0  0  0  0
 45 41  1  0  0  0  0
 50 42  2  0  0  0  0
 43 44  1  0  0  0  0
 44 45  1  0  0  0  0
 45 46  2  0  0  0  0
 46 47  1  0  0  0  0
 49 48  1  0  0  0  0
 50 49  1  0  0  0  0
 51 50  1  0  0  0  0
 52 51  1  0  0  0  0
M  END
>  <cdx:fragmentId>
773

$$$$
