20000.cdx
  Mrv1902 05222410262D          

 11 12  0  0  0  0            999 V2000
    5.6719   -7.7550    0.0000 C   0  0  0  0  0  0  0  0  0  0  0  0
    5.6719   -8.5800    0.0000 C   0  0  0  0  0  0  0  0  0  0  0  0
    6.3863   -8.9925    0.0000 C   0  0  0  0  0  0  0  0  0  0  0  0
    7.1008   -8.5800    0.0000 C   0  0  0  0  0  0  0  0  0  0  0  0
    7.1008   -7.7550    0.0000 C   0  0  0  0  0  0  0  0  0  0  0  0
    6.3863   -7.3425    0.0000 C   0  0  0  0  0  0  0  0  0  0  0  0
    4.9574   -7.3425    0.0000 C   0  0  0  0  0  0  0  0  0  0  0  0
    7.8153   -8.1675    0.0000 C   0  0  0  0  0  0  0  0  0  0  0  0
    8.2278   -7.4530    0.0000 C   0  0  0  0  0  0  0  0  0  0  0  0
    8.2278   -8.8820    0.0000 C   0  0  0  0  0  0  0  0  0  0  0  0
    4.9574   -8.9925    0.0000 O   0  0  0  0  0  0  0  0  0  0  0  0
  1  2  1  0  0  0  0
  2  3  1  0  0  0  0
  3  4  1  0  0  0  0
  4  5  1  0  0  0  0
  5  6  1  0  0  0  0
  6  1  1  0  0  0  0
  1  7  1  0  0  0  0
  5  8  1  0  0  0  0
  4  8  1  0  0  0  0
  8  9  1  0  0  0  0
  8 10  1  0  0  0  0
  2 11  1  0  0  0  0
M  END
>  <cdx:fragmentId>
5

$$$$
