2001.cdx
  Mrv1902 05222410202D          

 16 16  0  0  0  0            999 V2000
    2.5608   -7.7138    0.0000 C   0  0  0  0  0  0  0  0  0  0  0  0
    2.5608   -8.5388    0.0000 C   0  0  0  0  0  0  0  0  0  0  0  0
    3.2752   -8.9513    0.0000 C   0  0  0  0  0  0  0  0  0  0  0  0
    3.9897   -8.5388    0.0000 C   0  0  0  0  0  0  0  0  0  0  0  0
    3.9897   -7.7138    0.0000 C   0  0  0  0  0  0  0  0  0  0  0  0
    3.2752   -7.3012    0.0000 C   0  0  0  0  0  0  0  0  0  0  0  0
    4.7042   -7.3012    0.0000 C   0  0  1  0  0  0  0  0  0  0  0  0
    5.4187   -7.7138    0.0000 C   0  0  0  0  0  0  0  0  0  0  0  0
    6.1331   -7.3012    0.0000 C   0  0  0  0  0  0  0  0  0  0  0  0
    6.8476   -7.7138    0.0000 C   0  0  0  0  0  0  0  0  0  0  0  0
    4.7042   -6.4763    0.0000 O   0  0  0  0  0  0  0  0  0  0  0  0
    7.5621   -7.3012    0.0000 C   0  0  0  0  0  0  0  0  0  0  0  0
    8.2765   -7.7138    0.0000 C   0  0  0  0  0  0  0  0  0  0  0  0
    8.9910   -7.3012    0.0000 C   0  0  0  0  0  0  0  0  0  0  0  0
    9.7055   -7.7138    0.0000 C   0  0  0  0  0  0  0  0  0  0  0  0
   10.4200   -7.3012    0.0000 C   0  0  0  0  0  0  0  0  0  0  0  0
  1  2  2  0  0  0  0
  2  3  1  0  0  0  0
  3  4  2  0  0  0  0
  4  5  1  0  0  0  0
  5  6  2  0  0  0  0
  6  1  1  0  0  0  0
  5  7  1  0  0  0  0
  7  8  1  0  0  0  0
  8  9  2  0  0  0  0
  9 10  1  0  0  0  0
  7 11  1  6  0  0  0
 10 12  1  0  0  0  0
 12 13  1  0  0  0  0
 13 14  1  0  0  0  0
 14 15  1  0  0  0  0
 15 16  1  0  0  0  0
M  END
>  <cdx:fragmentId>
5

$$$$
