200168.cdx
  Mrv1902 05222410282D          

 22 21  0  0  0  0            999 V2000
   11.5359   -8.3649    0.0000 O   0  0  0  0  0  0  0  0  0  0  0  0
   10.8214   -7.9524    0.0000 C   0  0  0  0  0  0  0  0  0  0  0  0
   10.1070   -8.3649    0.0000 C   0  0  0  0  0  0  0  0  0  0  0  0
   10.8214   -7.1274    0.0000 O   0  0  0  0  0  0  0  0  0  0  0  0
    9.3925   -7.9524    0.0000 C   0  0  0  0  0  0  0  0  0  0  0  0
    8.6780   -8.3649    0.0000 C   0  0  0  0  0  0  0  0  0  0  0  0
    2.9673   -4.2414    0.0000 N   0  0  0  0  0  0  0  0  0  0  0  0
    4.3962   -4.2414    0.0000 N   0  0  0  0  0  0  0  0  0  0  0  0
    3.6818   -4.6539    0.0000 C   0  0  0  0  0  0  0  0  0  0  0  0
    3.6818   -5.4789    0.0000 N   0  0  0  0  0  0  0  0  0  0  0  0
    4.3962   -5.8914    0.0000 C   0  0  0  0  0  0  0  0  0  0  0  0
    4.3962   -6.7164    0.0000 C   0  0  0  0  0  0  0  0  0  0  0  0
    5.1107   -7.1289    0.0000 C   0  0  0  0  0  0  0  0  0  0  0  0
    4.3962   -9.1914    0.0000 O   0  0  0  0  0  0  0  0  0  0  0  0
    3.6818   -7.9539    0.0000 O   0  0  0  0  0  0  0  0  0  0  0  0
    4.3962   -8.3664    0.0000 C   0  0  0  0  0  0  0  0  0  0  0  0
    5.1107   -7.9539    0.0000 C   0  0  1  0  0  0  0  0  0  0  0  0
    6.5397   -7.1289    0.0000 O   0  0  0  0  0  0  0  0  0  0  0  0
    5.8252   -8.3664    0.0000 N   0  0  0  0  0  0  0  0  0  0  0  0
    6.5397   -7.9539    0.0000 C   0  0  0  0  0  0  0  0  0  0  0  0
    7.2541   -8.3664    0.0000 C   0  0  0  0  0  0  0  0  0  0  0  0
    7.9636   -7.9524    0.0000 C   0  0  0  0  0  0  0  0  0  0  0  0
  1  2  1  0  0  0  0
  2  3  1  0  0  0  0
  2  4  2  0  0  0  0
  3  5  1  0  0  0  0
  5  6  1  0  0  0  0
  9  7  1  0  0  0  0
  9  8  1  0  0  0  0
 10  9  2  0  0  0  0
 11 10  1  0  0  0  0
 12 11  1  0  0  0  0
 13 12  1  0  0  0  0
 17 13  1  0  0  0  0
 16 14  2  0  0  0  0
 16 15  1  0  0  0  0
 17 16  1  0  0  0  0
 17 19  1  6  0  0  0
 20 18  2  0  0  0  0
 20 19  1  0  0  0  0
 21 20  1  0  0  0  0
  6 22  1  0  0  0  0
 21 22  1  0  0  0  0
M  END
>  <cdx:fragmentId>
5

$$$$
