200172.cdx
  Mrv1902 05222410192D          

 31 33  0  0  0  0            999 V2000
    6.9212   -8.1263    0.0000 C   0  0  0  0  0  0  0  0  0  0  0  0
    6.9212   -8.9513    0.0000 C   0  0  2  0  0  0  0  0  0  0  0  0
    7.6356   -9.3637    0.0000 C   0  0  0  0  0  0  0  0  0  0  0  0
    8.3501   -8.9513    0.0000 C   0  0  1  0  0  0  0  0  0  0  0  0
    8.3501   -8.1263    0.0000 C   0  0  2  0  0  0  0  0  0  0  0  0
    7.6356   -7.7138    0.0000 C   0  0  2  0  0  0  0  0  0  0  0  0
    9.0646   -9.3637    0.0000 C   0  0  0  0  0  0  0  0  0  0  0  0
    9.7791   -8.1263    0.0000 C   0  0  0  0  0  0  0  0  0  0  0  0
    9.0646   -7.7138    0.0000 C   0  0  0  0  0  0  0  0  0  0  0  0
   11.2080   -8.9513    0.0000 C   0  0  0  0  0  0  0  0  0  0  0  0
   11.2080   -8.1263    0.0000 C   0  0  0  0  0  0  0  0  0  0  0  0
   10.4935   -7.7138    0.0000 C   0  0  0  0  0  0  0  0  0  0  0  0
   10.4935   -6.8888    0.0000 C   0  0  0  0  0  0  0  0  0  0  0  0
   11.9225   -9.3637    0.0000 O   0  0  0  0  0  0  0  0  0  0  0  0
   10.4935   -9.3637    0.0000 O   0  0  0  0  0  0  0  0  0  0  0  0
    6.2067   -9.3637    0.0000 O   0  0  0  0  0  0  0  0  0  0  0  0
    5.4922   -8.9513    0.0000 C   0  0  2  0  0  0  0  0  0  0  0  0
    5.4922   -8.1263    0.0000 O   0  0  0  0  0  0  0  0  0  0  0  0
    4.7778   -7.7138    0.0000 C   0  0  1  0  0  0  0  0  0  0  0  0
    4.0633   -8.1263    0.0000 C   0  0  2  0  0  0  0  0  0  0  0  0
    4.0633   -8.9513    0.0000 C   0  0  1  0  0  0  0  0  0  0  0  0
    4.7778   -9.3637    0.0000 C   0  0  1  0  0  0  0  0  0  0  0  0
    4.7778   -6.8888    0.0000 C   0  0  0  0  0  0  0  0  0  0  0  0
    3.3488   -9.3637    0.0000 O   0  0  0  0  0  0  0  0  0  0  0  0
    3.3488   -7.7138    0.0000 O   0  0  0  0  0  0  0  0  0  0  0  0
    4.7778  -10.1887    0.0000 O   0  0  0  0  0  0  0  0  0  0  0  0
    4.0633   -6.4763    0.0000 O   0  0  0  0  0  0  0  0  0  0  0  0
    7.6356   -6.8888    0.0000 C   0  0  0  0  0  0  0  0  0  0  0  0
    9.0646   -8.5388    0.0000 O   0  0  0  0  0  0  0  0  0  0  0  0
    7.2231   -8.4282    0.0000 C   0  0  0  0  0  0  0  0  0  0  0  0
    7.5251   -8.9513    0.0000 O   0  0  0  0  0  0  0  0  0  0  0  0
  1  2  1  0  0  0  0
  2  3  1  0  0  0  0
  3  4  1  0  0  0  0
  4  5  1  0  0  0  0
  5  6  1  0  0  0  0
  6  1  1  0  0  0  0
  4  7  1  6  0  0  0
  8  9  2  0  0  0  0
  5  9  1  6  0  0  0
 10 11  1  0  0  0  0
 11 12  2  0  0  0  0
 12  8  1  0  0  0  0
 12 13  1  0  0  0  0
 10 14  2  0  0  0  0
 10 15  1  0  0  0  0
  2 16  1  6  0  0  0
 17 16  1  1  0  0  0
 17 18  1  0  0  0  0
 18 19  1  0  0  0  0
 19 20  1  0  0  0  0
 20 21  1  0  0  0  0
 21 22  1  0  0  0  0
 22 17  1  0  0  0  0
 19 23  1  1  0  0  0
 21 24  1  1  0  0  0
 20 25  1  6  0  0  0
 22 26  1  6  0  0  0
 23 27  1  0  0  0  0
  6 28  1  6  0  0  0
  5 29  1  1  0  0  0
  6 30  1  1  0  0  0
  4 31  1  1  0  0  0
 30 31  1  0  0  0  0
M  END
>  <cdx:fragmentId>
5

$$$$
