20018.cdx
  Mrv1902 05222410212D          

 17 18  0  0  0  0            999 V2000
    5.0993   -7.1156    0.0000 C   0  0  0  0  0  0  0  0  0  0  0  0
    5.0993   -7.9406    0.0000 C   0  0  2  0  0  0  0  0  0  0  0  0
    5.8138   -8.3531    0.0000 C   0  0  0  0  0  0  0  0  0  0  0  0
    6.5282   -7.9406    0.0000 C   0  0  2  0  0  0  0  0  0  0  0  0
    6.5282   -7.1156    0.0000 C   0  0  1  0  0  0  0  0  0  0  0  0
    5.8138   -6.7031    0.0000 C   0  0  0  0  0  0  0  0  0  0  0  0
    7.2427   -8.3531    0.0000 C   0  0  2  0  0  0  0  0  0  0  0  0
    7.9572   -7.9406    0.0000 C   0  0  0  0  0  0  0  0  0  0  0  0
    7.9572   -7.1156    0.0000 C   0  0  0  0  0  0  0  0  0  0  0  0
    7.2427   -6.7031    0.0000 C   0  0  0  0  0  0  0  0  0  0  0  0
    7.2427   -5.8781    0.0000 O   0  0  0  0  0  0  0  0  0  0  0  0
    4.3848   -8.3531    0.0000 C   0  0  0  0  0  0  0  0  0  0  0  0
    3.6704   -7.9406    0.0000 C   0  0  0  0  0  0  0  0  0  0  0  0
    4.3848   -9.1781    0.0000 C   0  0  0  0  0  0  0  0  0  0  0  0
    6.5282   -6.2906    0.0000 C   0  0  0  0  0  0  0  0  0  0  0  0
    7.2427   -9.1781    0.0000 C   0  0  0  0  0  0  0  0  0  0  0  0
    6.5282   -8.7656    0.0000 O   0  0  0  0  0  0  0  0  0  0  0  0
  1  2  1  0  0  0  0
  2  3  1  0  0  0  0
  3  4  1  0  0  0  0
  4  5  1  0  0  0  0
  5  6  1  0  0  0  0
  6  1  1  0  0  0  0
  4  7  1  0  0  0  0
  7  8  1  0  0  0  0
  8  9  1  0  0  0  0
  9 10  1  0  0  0  0
 10  5  1  0  0  0  0
 10 11  2  0  0  0  0
  2 12  1  6  0  0  0
 12 13  1  0  0  0  0
 12 14  2  0  0  0  0
  5 15  1  6  0  0  0
  7 16  1  6  0  0  0
  4 17  1  1  0  0  0
M  END
>  <cdx:fragmentId>
5

$$$$
