200167.cdx
  Mrv1902 05222410182D          

 21 20  0  0  0  0            999 V2000
   11.3984   -7.0449    0.0000 O   0  0  0  0  0  0  0  0  0  0  0  0
   10.6839   -6.6324    0.0000 C   0  0  0  0  0  0  0  0  0  0  0  0
    9.9695   -7.0449    0.0000 C   0  0  0  0  0  0  0  0  0  0  0  0
   10.6839   -5.8074    0.0000 O   0  0  0  0  0  0  0  0  0  0  0  0
    9.2550   -6.6324    0.0000 C   0  0  0  0  0  0  0  0  0  0  0  0
    8.5405   -7.0449    0.0000 C   0  0  0  0  0  0  0  0  0  0  0  0
    7.8261   -6.6324    0.0000 C   0  0  0  0  0  0  0  0  0  0  0  0
    7.1116   -7.0449    0.0000 C   0  0  0  0  0  0  0  0  0  0  0  0
    6.3971   -6.6324    0.0000 N   0  0  0  0  0  0  0  0  0  0  0  0
    7.1116   -7.8699    0.0000 O   0  0  0  0  0  0  0  0  0  0  0  0
    5.6826   -7.0449    0.0000 C   0  0  2  0  0  0  0  0  0  0  0  0
    4.9682   -6.6324    0.0000 C   0  0  0  0  0  0  0  0  0  0  0  0
    4.2537   -7.0449    0.0000 O   0  0  0  0  0  0  0  0  0  0  0  0
    4.9682   -5.8074    0.0000 O   0  0  0  0  0  0  0  0  0  0  0  0
    5.6826   -7.8699    0.0000 C   0  0  0  0  0  0  0  0  0  0  0  0
    4.9682   -8.2824    0.0000 C   0  0  0  0  0  0  0  0  0  0  0  0
    4.9682   -9.1074    0.0000 C   0  0  0  0  0  0  0  0  0  0  0  0
    4.2537   -9.5199    0.0000 N   0  0  0  0  0  0  0  0  0  0  0  0
    4.2537  -10.3449    0.0000 C   0  0  0  0  0  0  0  0  0  0  0  0
    4.9682  -10.7574    0.0000 N   0  0  0  0  0  0  0  0  0  0  0  0
    3.5392  -10.7574    0.0000 N   0  0  0  0  0  0  0  0  0  0  0  0
  1  2  1  0  0  0  0
  2  3  1  0  0  0  0
  2  4  2  0  0  0  0
  3  5  1  0  0  0  0
  5  6  1  0  0  0  0
  6  7  1  0  0  0  0
  7  8  1  0  0  0  0
  8  9  1  0  0  0  0
  8 10  2  0  0  0  0
 11  9  1  1  0  0  0
 11 12  1  0  0  0  0
 12 13  1  0  0  0  0
 12 14  2  0  0  0  0
 11 15  1  0  0  0  0
 15 16  1  0  0  0  0
 16 17  1  0  0  0  0
 17 18  1  0  0  0  0
 18 19  2  0  0  0  0
 19 20  1  0  0  0  0
 19 21  1  0  0  0  0
M  END
>  <cdx:fragmentId>
562

$$$$
