200189.cdx
  Mrv1902 05222410192D          

 18 20  0  0  0  0            999 V2000
    7.0408   -6.2551    0.0000 C   0  0  0  0  0  0  0  0  0  0  0  0
    7.2889   -7.0419    0.0000 C   0  0  0  0  0  0  0  0  0  0  0  0
    8.1139   -7.0493    0.0000 N   0  0  0  0  0  0  0  0  0  0  0  0
    8.3757   -6.2670    0.0000 N   0  0  0  0  0  0  0  0  0  0  0  0
    7.7126   -5.7761    0.0000 C   0  0  0  0  0  0  0  0  0  0  0  0
    6.2356   -6.0764    0.0000 C   0  0  0  0  0  0  0  0  0  0  0  0
    5.6779   -6.6844    0.0000 C   0  0  0  0  0  0  0  0  0  0  0  0
    5.9260   -7.4712    0.0000 C   0  0  0  0  0  0  0  0  0  0  0  0
    6.7312   -7.6499    0.0000 C   0  0  0  0  0  0  0  0  0  0  0  0
    8.6603   -7.6673    0.0000 C   0  0  0  0  0  0  0  0  0  0  0  0
    9.4688   -7.5031    0.0000 C   0  0  0  0  0  0  0  0  0  0  0  0
    9.7309   -6.7207    0.0000 C   0  0  0  0  0  0  0  0  0  0  0  0
    9.1842   -6.1028    0.0000 C   0  0  0  0  0  0  0  0  0  0  0  0
    5.9876   -5.2893    0.0000 O   0  0  0  0  0  0  0  0  0  0  0  0
    5.3683   -8.0795    0.0000 C   0  0  0  0  0  0  0  0  0  0  0  0
    7.7201   -4.9511    0.0000 C   0  0  0  0  0  0  0  0  0  0  0  0
    7.0095   -4.5323    0.0000 O   0  0  0  0  0  0  0  0  0  0  0  0
    8.4384   -4.5452    0.0000 O   0  0  0  0  0  0  0  0  0  0  0  0
  1  2  1  0  0  0  0
  2  3  1  0  0  0  0
  3  4  1  0  0  0  0
  4  5  1  0  0  0  0
  5  1  2  0  0  0  0
  1  6  1  0  0  0  0
  6  7  1  0  0  0  0
  7  8  2  0  0  0  0
  8  9  1  0  0  0  0
  9  2  2  0  0  0  0
  3 10  1  0  0  0  0
 10 11  1  0  0  0  0
 11 12  1  0  0  0  0
 12 13  1  0  0  0  0
 13  4  1  0  0  0  0
  6 14  2  0  0  0  0
  8 15  1  0  0  0  0
  5 16  1  0  0  0  0
 16 17  2  0  0  0  0
 16 18  1  0  0  0  0
M  END
>  <cdx:fragmentId>
3876

$$$$
