20013.cdx
  Mrv1902 05222410242D          

 19 21  0  0  0  0            999 V2000
    4.0268   -5.8369    0.0000 C   0  0  0  0  0  0  0  0  0  0  0  0
    4.0268   -6.6619    0.0000 C   0  0  0  0  0  0  0  0  0  0  0  0
    4.7413   -7.0744    0.0000 C   0  0  0  0  0  0  0  0  0  0  0  0
    5.4557   -6.6619    0.0000 C   0  0  0  0  0  0  0  0  0  0  0  0
    5.4557   -5.8369    0.0000 C   0  0  0  0  0  0  0  0  0  0  0  0
    4.7413   -5.4244    0.0000 C   0  0  0  0  0  0  0  0  0  0  0  0
    6.1702   -7.0744    0.0000 O   0  0  0  0  0  0  0  0  0  0  0  0
    6.8847   -6.6619    0.0000 C   0  0  0  0  0  0  0  0  0  0  0  0
    6.8847   -5.8369    0.0000 C   0  0  0  0  0  0  0  0  0  0  0  0
    6.1702   -5.4244    0.0000 C   0  0  0  0  0  0  0  0  0  0  0  0
    7.5992   -7.0744    0.0000 C   0  0  0  0  0  0  0  0  0  0  0  0
    8.3136   -6.6619    0.0000 C   0  0  0  0  0  0  0  0  0  0  0  0
    7.5992   -7.8994    0.0000 C   0  0  0  0  0  0  0  0  0  0  0  0
    8.3136   -8.3119    0.0000 C   0  0  0  0  0  0  0  0  0  0  0  0
    9.0281   -7.8994    0.0000 C   0  0  0  0  0  0  0  0  0  0  0  0
    9.0281   -7.0744    0.0000 C   0  0  0  0  0  0  0  0  0  0  0  0
    6.8847   -8.3119    0.0000 O   0  0  0  0  0  0  0  0  0  0  0  0
    3.3123   -7.0744    0.0000 O   0  0  0  0  0  0  0  0  0  0  0  0
    6.1702   -4.5994    0.0000 O   0  0  0  0  0  0  0  0  0  0  0  0
  1  2  1  0  0  0  0
  2  3  2  0  0  0  0
  3  4  1  0  0  0  0
  4  5  2  0  0  0  0
  5  6  1  0  0  0  0
  6  1  2  0  0  0  0
  4  7  1  0  0  0  0
  7  8  1  0  0  0  0
  8  9  2  0  0  0  0
  9 10  1  0  0  0  0
 10  5  1  0  0  0  0
  8 11  1  0  0  0  0
 11 12  2  0  0  0  0
 11 13  1  0  0  0  0
 13 14  2  0  0  0  0
 14 15  1  0  0  0  0
 15 16  2  0  0  0  0
 16 12  1  0  0  0  0
 17 13  1  0  0  0  0
  2 18  1  0  0  0  0
 10 19  2  0  0  0  0
M  END
>  <cdx:fragmentId>
5

$$$$
