200195.cdx
  Mrv1902 05222410272D          

 19 21  0  0  0  0            999 V2000
    4.6698   -3.3413    0.0000 C   0  0  0  0  0  0  0  0  0  0  0  0
    4.6698   -4.1662    0.0000 C   0  0  0  0  0  0  0  0  0  0  0  0
    5.3842   -4.5796    0.0000 C   0  0  0  0  0  0  0  0  0  0  0  0
    6.1003   -4.1662    0.0000 N   0  0  0  0  0  0  0  0  0  0  0  0
    6.1003   -3.3413    0.0000 C   0  0  0  0  0  0  0  0  0  0  0  0
    5.3842   -2.9279    0.0000 C   0  0  0  0  0  0  0  0  0  0  0  0
    3.9556   -2.9296    0.0000 C   0  0  0  0  0  0  0  0  0  0  0  0
    3.2425   -3.3413    0.0000 C   0  0  0  0  0  0  0  0  0  0  0  0
    3.2425   -4.1662    0.0000 C   0  0  0  0  0  0  0  0  0  0  0  0
    3.9556   -4.5765    0.0000 C   0  0  0  0  0  0  0  0  0  0  0  0
    6.1190   -5.7808    0.0000 O   0  0  0  0  0  0  0  0  0  0  0  0
    5.3842   -5.4046    0.0000 C   0  0  0  0  0  0  0  0  0  0  0  0
    4.8023   -5.9865    0.0000 C   0  0  0  0  0  0  0  0  0  0  0  0
    5.1749   -6.7226    0.0000 C   0  0  0  0  0  0  0  0  0  0  0  0
    5.9911   -6.5950    0.0000 C   0  0  0  0  0  0  0  0  0  0  0  0
    6.4036   -7.3095    0.0000 C   0  0  0  0  0  0  0  0  0  0  0  0
    7.2286   -7.3095    0.0000 O   0  0  0  0  0  0  0  0  0  0  0  0
    2.5281   -2.9288    0.0000 O   0  0  0  0  0  0  0  0  0  0  0  0
    2.5281   -4.5788    0.0000 O   0  0  0  0  0  0  0  0  0  0  0  0
  1  2  1  0  0  0  0
  2  3  1  0  0  0  0
  3  4  2  0  0  0  0
  4  5  1  0  0  0  0
  5  6  1  0  0  0  0
  1  6  1  0  0  0  0
  1  7  2  0  0  0  0
  7  8  1  0  0  0  0
  8  9  2  0  0  0  0
  9 10  1  0  0  0  0
  2 10  2  0  0  0  0
  3 12  1  0  0  0  0
 11 12  1  0  0  0  0
 12 13  2  0  0  0  0
 13 14  1  0  0  0  0
 14 15  2  0  0  0  0
 11 15  1  0  0  0  0
 15 16  1  0  0  0  0
 16 17  1  0  0  0  0
  8 18  1  0  0  0  0
  9 19  1  0  0  0  0
M  END
>  <cdx:groupId>
3095

>  <cdx:fragmentId>
3096

$$$$
