20016.cdx
  Mrv1902 05222410242D          

 26 29  0  0  0  0            999 V2000
    2.9337   -7.2600    0.0000 C   0  0  0  0  0  0  0  0  0  0  0  0
    2.9337   -8.0850    0.0000 C   0  0  0  0  0  0  0  0  0  0  0  0
    3.6481   -8.4975    0.0000 C   0  0  0  0  0  0  0  0  0  0  0  0
    4.3626   -8.0850    0.0000 C   0  0  0  0  0  0  0  0  0  0  0  0
    4.3626   -7.2600    0.0000 C   0  0  0  0  0  0  0  0  0  0  0  0
    3.6481   -6.8475    0.0000 C   0  0  0  0  0  0  0  0  0  0  0  0
    5.0771   -8.4975    0.0000 O   0  0  0  0  0  0  0  0  0  0  0  0
    5.7916   -8.0850    0.0000 C   0  0  0  0  0  0  0  0  0  0  0  0
    5.7916   -7.2600    0.0000 C   0  0  0  0  0  0  0  0  0  0  0  0
    5.0771   -6.8475    0.0000 C   0  0  0  0  0  0  0  0  0  0  0  0
    7.2205   -8.0850    0.0000 O   0  0  0  0  0  0  0  0  0  0  0  0
    7.2205   -7.2600    0.0000 C   0  0  0  0  0  0  0  0  0  0  0  0
    6.5060   -6.8475    0.0000 C   0  0  0  0  0  0  0  0  0  0  0  0
    7.9350   -8.4975    0.0000 C   0  0  0  0  0  0  0  0  0  0  0  0
    8.6494   -8.0850    0.0000 C   0  0  0  0  0  0  0  0  0  0  0  0
    8.6494   -7.2600    0.0000 C   0  0  0  0  0  0  0  0  0  0  0  0
    7.9350   -6.8475    0.0000 C   0  0  0  0  0  0  0  0  0  0  0  0
    7.9350   -6.0225    0.0000 C   0  0  0  0  0  0  0  0  0  0  0  0
    7.2205   -5.6100    0.0000 C   0  0  0  0  0  0  0  0  0  0  0  0
    6.5060   -6.0225    0.0000 C   0  0  0  0  0  0  0  0  0  0  0  0
    5.0771   -6.0225    0.0000 O   0  0  0  0  0  0  0  0  0  0  0  0
    3.6481   -6.0225    0.0000 O   0  0  0  0  0  0  0  0  0  0  0  0
    2.2192   -8.4975    0.0000 O   0  0  0  0  0  0  0  0  0  0  0  0
    8.6494   -5.6100    0.0000 O   0  0  0  0  0  0  0  0  0  0  0  0
    7.5225   -9.2120    0.0000 C   0  0  0  0  0  0  0  0  0  0  0  0
    8.3475   -9.2120    0.0000 C   0  0  0  0  0  0  0  0  0  0  0  0
  1  2  2  0  0  0  0
  2  3  1  0  0  0  0
  3  4  2  0  0  0  0
  4  5  1  0  0  0  0
  5  6  2  0  0  0  0
  6  1  1  0  0  0  0
  4  7  1  0  0  0  0
  7  8  1  0  0  0  0
  8  9  2  0  0  0  0
  9 10  1  0  0  0  0
 10  5  1  0  0  0  0
 11 12  1  0  0  0  0
 12 13  2  0  0  0  0
 13  9  1  0  0  0  0
 11 14  1  0  0  0  0
 14 15  1  0  0  0  0
 15 16  2  0  0  0  0
 16 17  1  0  0  0  0
 17 12  1  0  0  0  0
 17 18  2  0  0  0  0
 18 19  1  0  0  0  0
 19 20  2  0  0  0  0
 20 13  1  0  0  0  0
 10 21  2  0  0  0  0
 22  6  1  0  0  0  0
  2 23  1  0  0  0  0
 18 24  1  0  0  0  0
 14 25  1  0  0  0  0
 14 26  1  0  0  0  0
M  END
>  <cdx:fragmentId>
5

$$$$
