200174.cdx
  Mrv1902 05222410202D          

 24 25  0  0  0  0            999 V2000
    8.1948   -7.3822    0.0000 C   0  0  2  0  0  0  0  0  0  0  0  0
    8.9094   -7.7945    0.0000 C   0  0  0  0  0  0  0  0  0  0  0  0
    8.9096   -8.6195    0.0000 C   0  0  2  0  0  0  0  0  0  0  0  0
    8.1953   -9.0322    0.0000 C   0  0  2  0  0  0  0  0  0  0  0  0
    7.4807   -8.6199    0.0000 C   0  0  1  0  0  0  0  0  0  0  0  0
    7.4805   -7.7949    0.0000 C   0  0  0  0  0  0  0  0  0  0  0  0
    8.1955   -9.8572    0.0000 O   0  0  0  0  0  0  0  0  0  0  0  0
    9.6242   -9.0318    0.0000 O   0  0  0  0  0  0  0  0  0  0  0  0
    4.6235  -11.0957    0.0000 O   0  0  0  0  0  0  0  0  0  0  0  0
    3.1943  -10.2711    0.0000 O   0  0  0  0  0  0  0  0  0  0  0  0
    3.1939   -8.6211    0.0000 O   0  0  0  0  0  0  0  0  0  0  0  0
    6.0515   -7.7953    0.0000 O   0  0  0  0  0  0  0  0  0  0  0  0
    4.6228   -8.6207    0.0000 C   0  0  0  0  0  0  0  0  0  0  0  0
    3.9085   -9.0334    0.0000 C   0  0  0  0  0  0  0  0  0  0  0  0
    3.9087   -9.8584    0.0000 C   0  0  0  0  0  0  0  0  0  0  0  0
    4.6233  -10.2707    0.0000 C   0  0  0  0  0  0  0  0  0  0  0  0
    5.3376   -9.8580    0.0000 C   0  0  0  0  0  0  0  0  0  0  0  0
    5.3374   -9.0330    0.0000 C   0  0  0  0  0  0  0  0  0  0  0  0
    6.0518   -8.6203    0.0000 C   0  0  0  0  0  0  0  0  0  0  0  0
    6.7663   -9.0326    0.0000 O   0  0  0  0  0  0  0  0  0  0  0  0
    8.6073   -6.6677    0.0000 C   0  0  0  0  0  0  0  0  0  0  0  0
    9.4323   -6.6677    0.0000 O   0  0  0  0  0  0  0  0  0  0  0  0
    8.1948   -5.9533    0.0000 O   0  0  0  0  0  0  0  0  0  0  0  0
    7.7823   -6.6677    0.0000 O   0  0  0  0  0  0  0  0  0  0  0  0
 20 19  1  0  0  0  0
 16  9  1  0  0  0  0
 15 10  1  0  0  0  0
 14 11  1  0  0  0  0
 19 12  2  0  0  0  0
 18 13  2  0  0  0  0
 14 13  1  0  0  0  0
 15 14  2  0  0  0  0
 16 15  1  0  0  0  0
 17 16  2  0  0  0  0
 18 17  1  0  0  0  0
 19 18  1  0  0  0  0
  1  2  1  0  0  0  0
  2  3  1  0  0  0  0
  3  4  1  0  0  0  0
  4  5  1  0  0  0  0
  5  6  1  0  0  0  0
  1  6  1  0  0  0  0
  5 20  1  6  0  0  0
  4  7  1  1  0  0  0
  3  8  1  1  0  0  0
  1 21  1  0  0  0  0
 21 22  1  0  0  0  0
 21 23  2  0  0  0  0
  1 24  1  1  0  0  0
M  END
>  <cdx:fragmentId>
25

$$$$
