200192.cdx
  Mrv1902 05222410262D          

 49 55  0  0  0  0            999 V2000
    7.1036   -8.6494    0.0000 C   0  0  1  0  0  0  0  0  0  0  0  0
    6.8198   -7.8748    0.0000 C   0  0  2  0  0  0  0  0  0  0  0  0
    6.0070   -7.7332    0.0000 C   0  0  1  0  0  0  0  0  0  0  0  0
    5.4781   -8.3663    0.0000 C   0  0  2  0  0  0  0  0  0  0  0  0
    5.7619   -9.1410    0.0000 C   0  0  1  0  0  0  0  0  0  0  0  0
    6.5747   -9.2825    0.0000 C   0  0  1  0  0  0  0  0  0  0  0  0
    7.9280   -8.6188    0.0000 O   0  0  0  0  0  0  0  0  0  0  0  0
    8.1537   -7.8253    0.0000 C   0  0  0  0  0  0  0  0  0  0  0  0
    7.4688   -7.3654    0.0000 O   0  0  0  0  0  0  0  0  0  0  0  0
    5.1445   -9.6882    0.0000 C   0  0  1  0  0  0  0  0  0  0  0  0
    5.1874  -10.5121    0.0000 C   0  0  2  0  0  0  0  0  0  0  0  0
    5.8582  -10.9922    0.0000 C   0  0  1  0  0  0  0  0  0  0  0  0
    6.6519  -10.7671    0.0000 C   0  0  2  0  0  0  0  0  0  0  0  0
    6.9708  -10.0062    0.0000 C   0  0  1  0  0  0  0  0  0  0  0  0
    4.3477   -9.4744    0.0000 C   0  0  0  0  0  0  0  0  0  0  0  0
    3.8981  -10.1661    0.0000 C   0  0  0  0  0  0  0  0  0  0  0  0
    4.4128  -10.7959    0.0000 C   0  0  0  0  0  0  0  0  0  0  0  0
    4.1950  -11.5916    0.0000 O   0  0  0  0  0  0  0  0  0  0  0  0
    3.0743  -10.2110    0.0000 C   0  0  0  0  0  0  0  0  0  0  0  0
    7.4703  -10.6628    0.0000 O   0  0  0  0  0  0  0  0  0  0  0  0
   11.8109  -11.8118    0.0000 C   0  0  0  0  0  0  0  0  0  0  0  0
   11.9525  -10.9990    0.0000 C   0  0  0  0  0  0  0  0  0  0  0  0
   11.3193  -10.4701    0.0000 C   0  0  0  0  0  0  0  0  0  0  0  0
   11.4609   -9.6573    0.0000 C   0  0  0  0  0  0  0  0  0  0  0  0
   10.8277   -9.1283    0.0000 C   0  0  0  0  0  0  0  0  0  0  0  0
   10.9693   -8.3156    0.0000 C   0  0  0  0  0  0  0  0  0  0  0  0
   10.3361   -7.7866    0.0000 C   0  0  0  0  0  0  0  0  0  0  0  0
    9.5615   -8.0704    0.0000 C   0  0  0  0  0  0  0  0  0  0  0  0
    8.9284   -7.5415    0.0000 C   0  0  0  0  0  0  0  0  0  0  0  0
    5.7232   -6.9586    0.0000 O   0  0  0  0  0  0  0  0  0  0  0  0
    4.9104   -6.8171    0.0000 C   0  0  0  0  0  0  0  0  0  0  0  0
    4.6266   -6.0424    0.0000 C   0  0  0  0  0  0  0  0  0  0  0  0
    4.3815   -7.4502    0.0000 O   0  0  0  0  0  0  0  0  0  0  0  0
    6.2790   -8.4829    0.0000 O   0  0  0  0  0  0  0  0  0  0  0  0
    4.6653   -8.2248    0.0000 C   0  0  0  0  0  0  0  0  0  0  0  0
    7.3874   -9.4240    0.0000 H   0  0  0  0  0  0  0  0  0  0  0  0
    6.8171  -11.5754    0.0000 C   0  0  0  0  0  0  0  0  0  0  0  0
    5.7167  -11.8050    0.0000 O   0  0  0  0  0  0  0  0  0  0  0  0
    5.0458  -11.3249    0.0000 O   0  0  0  0  0  0  0  0  0  0  0  0
    4.8607   -8.9136    0.0000 H   0  0  0  0  0  0  0  0  0  0  0  0
    7.5997  -11.8365    0.0000 O   0  0  0  0  0  0  0  0  0  0  0  0
    5.1555   -5.4093    0.0000 C   0  0  0  0  0  0  0  0  0  0  0  0
    4.8717   -4.6347    0.0000 C   0  0  0  0  0  0  0  0  0  0  0  0
    4.0589   -4.4931    0.0000 C   0  0  0  0  0  0  0  0  0  0  0  0
    3.5300   -5.1263    0.0000 C   0  0  0  0  0  0  0  0  0  0  0  0
    3.8138   -5.9009    0.0000 C   0  0  0  0  0  0  0  0  0  0  0  0
    6.8198   -7.0498    0.0000 C   0  0  0  0  0  0  0  0  0  0  0  0
    6.1053   -6.6373    0.0000 C   0  0  0  0  0  0  0  0  0  0  0  0
    7.5342   -6.6373    0.0000 C   0  0  0  0  0  0  0  0  0  0  0  0
  1  2  1  0  0  0  0
  2  3  1  0  0  0  0
  3  4  1  0  0  0  0
  4  5  1  0  0  0  0
  5  6  1  0  0  0  0
  7  8  1  0  0  0  0
  8  9  1  0  0  0  0
  2  9  1  6  0  0  0
  5 10  1  0  0  0  0
 10 11  1  0  0  0  0
 11 12  1  0  0  0  0
 12 13  1  0  0  0  0
 13 14  1  0  0  0  0
 14  6  1  0  0  0  0
 10 15  1  0  0  0  0
 15 16  2  0  0  0  0
 16 17  1  0  0  0  0
 17 11  1  0  0  0  0
 17 18  2  0  0  0  0
 16 19  1  0  0  0  0
 13 20  1  6  0  0  0
 14 20  1  6  0  0  0
 22 21  1  0  0  0  0
  8 29  1  0  0  0  0
 23 22  1  0  0  0  0
 24 23  1  0  0  0  0
 25 24  1  0  0  0  0
 26 25  1  0  0  0  0
 27 26  2  0  0  0  0
 28 27  1  0  0  0  0
 29 28  2  0  0  0  0
  3 30  1  1  0  0  0
 30 31  1  0  0  0  0
 31 32  1  0  0  0  0
 31 33  2  0  0  0  0
  8 34  1  0  0  0  0
  5 34  1  6  0  0  0
  1  7  1  6  0  0  0
  1  6  1  0  0  0  0
  4 35  1  6  0  0  0
  6 36  1  1  0  0  0
 13 37  1  0  0  0  0
 12 38  1  1  0  0  0
 11 39  1  1  0  0  0
 10 40  1  6  0  0  0
 37 41  1  0  0  0  0
 32 42  2  0  0  0  0
 42 43  1  0  0  0  0
 43 44  2  0  0  0  0
 44 45  1  0  0  0  0
 45 46  2  0  0  0  0
 46 32  1  0  0  0  0
  2 47  1  0  0  0  0
 47 48  1  0  0  0  0
 47 49  2  0  0  0  0
M  END
>  <cdx:fragmentId>
5

$$$$
