200188.cdx
  Mrv1902 05222410192D          

 17 20  0  0  0  0            999 V2000
    9.5449   -6.4822    0.0000 C   0  0  0  0  0  0  0  0  0  0  0  0
    9.2779   -5.7016    0.0000 C   0  0  0  0  0  0  0  0  0  0  0  0
    8.4683   -5.5420    0.0000 C   0  0  0  0  0  0  0  0  0  0  0  0
    7.9249   -6.1647    0.0000 C   0  0  0  0  0  0  0  0  0  0  0  0
    8.1919   -6.9453    0.0000 C   0  0  0  0  0  0  0  0  0  0  0  0
    9.0029   -7.1043    0.0000 C   0  0  0  0  0  0  0  0  0  0  0  0
    7.1006   -6.1778    0.0000 C   0  0  0  0  0  0  0  0  0  0  0  0
    6.8585   -6.9666    0.0000 C   0  0  0  0  0  0  0  0  0  0  0  0
    7.5330   -7.4414    0.0000 N   0  0  0  0  0  0  0  0  0  0  0  0
    6.5388   -5.5738    0.0000 C   0  0  0  0  0  0  0  0  0  0  0  0
    5.7346   -5.7583    0.0000 C   0  0  0  0  0  0  0  0  0  0  0  0
    5.4926   -6.5471    0.0000 C   0  0  0  0  0  0  0  0  0  0  0  0
    6.0546   -7.1511    0.0000 C   0  0  0  0  0  0  0  0  0  0  0  0
    9.8208   -5.0803    0.0000 C   0  0  0  0  0  0  0  0  0  0  0  0
    9.5543   -4.2994    0.0000 C   0  0  0  0  0  0  0  0  0  0  0  0
    8.7447   -4.1398    0.0000 C   0  0  0  0  0  0  0  0  0  0  0  0
    8.2018   -4.7611    0.0000 C   0  0  0  0  0  0  0  0  0  0  0  0
  1  2  1  0  0  0  0
  2  3  2  0  0  0  0
  3  4  1  0  0  0  0
  4  5  2  0  0  0  0
  5  6  1  0  0  0  0
  1  6  2  0  0  0  0
  4  7  1  0  0  0  0
  7  8  2  0  0  0  0
  8  9  1  0  0  0  0
  5  9  1  0  0  0  0
  7 10  1  0  0  0  0
 10 11  2  0  0  0  0
 11 12  1  0  0  0  0
 12 13  2  0  0  0  0
 13  8  1  0  0  0  0
  2 14  1  0  0  0  0
 14 15  2  0  0  0  0
 15 16  1  0  0  0  0
 16 17  2  0  0  0  0
 17  3  1  0  0  0  0
M  END
>  <cdx:fragmentId>
3225

$$$$
