200186.cdx
  Mrv1902 05222410262D          

 49 54  0  0  0  0            999 V2000
    6.3082   -8.8456    0.0000 C   0  0  2  0  0  0  0  0  0  0  0  0
    7.0238   -8.4326    0.0000 C   0  0  2  0  0  0  0  0  0  0  0  0
    7.0238   -7.6076    0.0000 C   0  0  1  0  0  0  0  0  0  0  0  0
    6.3082   -7.1945    0.0000 C   0  0  1  0  0  0  0  0  0  0  0  0
    7.8081   -8.6872    0.0000 C   0  0  0  0  0  0  0  0  0  0  0  0
    8.2926   -8.0193    0.0000 C   0  0  0  0  0  0  0  0  0  0  0  0
    7.8081   -7.3516    0.0000 C   0  0  0  0  0  0  0  0  0  0  0  0
    5.5938   -8.4326    0.0000 C   0  0  0  0  0  0  0  0  0  0  0  0
    5.5938   -7.6076    0.0000 C   0  0  0  0  0  0  0  0  0  0  0  0
    4.9481   -7.0933    0.0000 C   0  0  1  0  0  0  0  0  0  0  0  0
    4.1437   -7.2754    0.0000 C   0  0  2  0  0  0  0  0  0  0  0  0
    3.7851   -8.0173    0.0000 C   0  0  0  0  0  0  0  0  0  0  0  0
    4.1437   -8.7604    0.0000 C   0  0  0  0  0  0  0  0  0  0  0  0
    4.9481   -8.9455    0.0000 C   0  0  0  0  0  0  0  0  0  0  0  0
    4.9481   -9.7705    0.0000 C   0  0  0  0  0  0  0  0  0  0  0  0
    6.3082   -6.3695    0.0000 O   0  0  0  0  0  0  0  0  0  0  0  0
    6.3082   -9.6706    0.0000 O   0  0  0  0  0  0  0  0  0  0  0  0
    7.3199   -9.4220    0.0000 C   0  0  0  0  0  0  0  0  0  0  0  0
    8.0344   -9.0095    0.0000 O   0  0  0  0  0  0  0  0  0  0  0  0
    8.7488   -9.4220    0.0000 C   0  0  0  0  0  0  0  0  0  0  0  0
    9.4633   -9.0095    0.0000 C   0  0  0  0  0  0  0  0  0  0  0  0
    7.2374   -6.8109    0.0000 H   0  0  0  0  0  0  0  0  0  0  0  0
    5.8957  -10.3851    0.0000 C   0  0  0  0  0  0  0  0  0  0  0  0
    4.3647   -6.5100    0.0000 O   0  0  0  0  0  0  0  0  0  0  0  0
    5.8853   -5.6612    0.0000 C   0  0  0  0  0  0  0  0  0  0  0  0
    6.2872   -4.9408    0.0000 C   0  0  0  0  0  0  0  0  0  0  0  0
    5.0603   -5.6734    0.0000 O   0  0  0  0  0  0  0  0  0  0  0  0
    7.1121   -4.9286    0.0000 C   0  0  0  0  0  0  0  0  0  0  0  0
    7.5140   -4.2082    0.0000 N   0  0  0  0  0  0  0  0  0  0  0  0
    7.0911   -3.4998    0.0000 C   0  0  0  0  0  0  0  0  0  0  0  0
    6.2662   -3.5120    0.0000 C   0  0  0  0  0  0  0  0  0  0  0  0
    5.8642   -4.2324    0.0000 C   0  0  0  0  0  0  0  0  0  0  0  0
    8.0627   -6.5668    0.0000 C   0  0  0  0  0  0  0  0  0  0  0  0
    6.3082  -11.0996    0.0000 C   0  0  0  0  0  0  0  0  0  0  0  0
    5.0707  -10.3851    0.0000 O   0  0  0  0  0  0  0  0  0  0  0  0
    5.8957  -11.8141    0.0000 C   0  0  0  0  0  0  0  0  0  0  0  0
    6.3082  -12.5285    0.0000 C   0  0  0  0  0  0  0  0  0  0  0  0
    7.1332  -12.5285    0.0000 C   0  0  0  0  0  0  0  0  0  0  0  0
    7.5457  -11.8141    0.0000 N   0  0  0  0  0  0  0  0  0  0  0  0
    7.1332  -11.0996    0.0000 C   0  0  0  0  0  0  0  0  0  0  0  0
    5.1616   -6.2965    0.0000 C   0  0  0  0  0  0  0  0  0  0  0  0
    8.7488  -10.2470    0.0000 O   0  0  0  0  0  0  0  0  0  0  0  0
   10.1778   -9.4220    0.0000 C   0  0  0  0  0  0  0  0  0  0  0  0
   10.8922   -9.0095    0.0000 C   0  0  0  0  0  0  0  0  0  0  0  0
   10.8922   -8.1845    0.0000 C   0  0  0  0  0  0  0  0  0  0  0  0
   10.1778   -7.7721    0.0000 C   0  0  0  0  0  0  0  0  0  0  0  0
    9.4633   -8.1845    0.0000 C   0  0  0  0  0  0  0  0  0  0  0  0
    7.5104   -5.9540    0.0000 C   0  0  0  0  0  0  0  0  0  0  0  0
    8.8696   -6.3950    0.0000 C   0  0  0  0  0  0  0  0  0  0  0  0
  8  1  1  0  0  0  0
  1  2  1  0  0  0  0
  2  3  1  0  0  0  0
  3  4  1  0  0  0  0
  9  4  1  0  0  0  0
  2  5  1  0  0  0  0
  5  6  1  0  0  0  0
  6  7  1  0  0  0  0
  3  7  1  0  0  0  0
  9 10  1  0  0  0  0
 10 11  1  0  0  0  0
 11 12  1  0  0  0  0
 12 13  1  0  0  0  0
 13 14  1  0  0  0  0
  8 14  2  0  0  0  0
 14 15  1  0  0  0  0
  4 16  1  1  0  0  0
  1 17  1  1  0  0  0
  2 18  1  1  0  0  0
 18 19  1  0  0  0  0
 19 20  1  0  0  0  0
 20 21  1  0  0  0  0
  3 22  1  6  0  0  0
 17 23  1  0  0  0  0
 10 24  1  1  0  0  0
 16 25  1  0  0  0  0
 25 26  1  0  0  0  0
 25 27  2  0  0  0  0
 26 28  2  0  0  0  0
 28 29  1  0  0  0  0
 29 30  2  0  0  0  0
 30 31  1  0  0  0  0
 31 32  2  0  0  0  0
 32 26  1  0  0  0  0
  7 33  2  0  0  0  0
 23 34  1  0  0  0  0
 23 35  2  0  0  0  0
 34 36  2  0  0  0  0
 36 37  1  0  0  0  0
 37 38  2  0  0  0  0
 38 39  1  0  0  0  0
 39 40  2  0  0  0  0
 40 34  1  0  0  0  0
 11 24  1  6  0  0  0
 10 41  1  6  0  0  0
 20 42  2  0  0  0  0
 21 43  2  0  0  0  0
 43 44  1  0  0  0  0
 44 45  2  0  0  0  0
 45 46  1  0  0  0  0
 46 47  2  0  0  0  0
 47 21  1  0  0  0  0
 33 48  1  0  0  0  0
 33 49  1  0  0  0  0
M  END
>  <cdx:groupId>
4063

>  <cdx:fragmentId>
4064

$$$$
