20017.cdx
  Mrv1902 05222410252D          

 19 19  0  0  0  0            999 V2000
    6.2543   -4.1869    0.0000 C   0  0  2  0  0  0  0  0  0  0  0  0
    6.2543   -5.0119    0.0000 C   0  0  0  0  0  0  0  0  0  0  0  0
    6.9688   -5.4244    0.0000 C   0  0  1  0  0  0  0  0  0  0  0  0
    7.6832   -5.0119    0.0000 C   0  0  0  0  0  0  0  0  0  0  0  0
    7.6832   -4.1869    0.0000 C   0  0  0  0  0  0  0  0  0  0  0  0
    6.9688   -3.7744    0.0000 C   0  0  1  0  0  0  0  0  0  0  0  0
    6.2543   -6.6619    0.0000 C   0  0  0  0  0  0  0  0  0  0  0  0
    6.9688   -6.2494    0.0000 C   0  0  1  0  0  0  0  0  0  0  0  0
    6.9688   -7.8994    0.0000 O   0  0  0  0  0  0  0  0  0  0  0  0
    7.6832   -7.4869    0.0000 C   0  0  0  0  0  0  0  0  0  0  0  0
    7.6832   -6.6619    0.0000 C   0  0  0  0  0  0  0  0  0  0  0  0
    7.6832   -9.1369    0.0000 C   0  0  0  0  0  0  0  0  0  0  0  0
    8.3977   -8.7244    0.0000 C   0  0  0  0  0  0  0  0  0  0  0  0
    8.3977   -7.8994    0.0000 C   0  0  0  0  0  0  0  0  0  0  0  0
    5.5398   -3.7744    0.0000 O   0  0  0  0  0  0  0  0  0  0  0  0
    6.5563   -3.0599    0.0000 C   0  0  0  0  0  0  0  0  0  0  0  0
    7.3813   -3.0599    0.0000 O   0  0  0  0  0  0  0  0  0  0  0  0
    7.6832   -5.8369    0.0000 H   0  0  0  0  0  0  0  0  0  0  0  0
    9.1122   -9.1369    0.0000 C   0  0  0  0  0  0  0  0  0  0  0  0
  1  2  1  0  0  0  0
  2  3  1  0  0  0  0
  3  4  1  0  0  0  0
  4  5  2  0  0  0  0
  5  6  1  0  0  0  0
  6  1  1  0  0  0  0
  8  7  1  6  0  0  0
  8  3  1  0  0  0  0
  9 10  2  0  0  0  0
 10 11  1  0  0  0  0
 11  8  1  0  0  0  0
 12 13  1  0  0  0  0
 13 14  2  0  0  0  0
 14 10  1  0  0  0  0
  1 15  1  1  0  0  0
  6 16  1  0  0  0  0
  6 17  1  1  0  0  0
  3 18  1  6  0  0  0
 13 19  1  0  0  0  0
M  END
>  <cdx:fragmentId>
5

$$$$
