200164.cdx
  Mrv1902 05222410182D          

 10  9  0  0  0  0            999 V2000
    5.2951   -7.5876    0.0000 C   0  0  0  0  0  0  0  0  0  0  0  0
    6.0095   -7.1751    0.0000 C   0  0  0  0  0  0  0  0  0  0  0  0
    6.7240   -7.5876    0.0000 C   0  0  0  0  0  0  0  0  0  0  0  0
    7.4385   -7.1751    0.0000 C   0  0  0  0  0  0  0  0  0  0  0  0
    8.1530   -7.5876    0.0000 C   0  0  0  0  0  0  0  0  0  0  0  0
    8.8674   -7.1751    0.0000 C   0  0  0  0  0  0  0  0  0  0  0  0
    5.2951   -8.4126    0.0000 O   0  0  0  0  0  0  0  0  0  0  0  0
    4.5806   -7.1751    0.0000 O   0  5  0  0  0  0  0  0  0  0  0  0
    8.8674   -6.3501    0.0000 O   0  0  0  0  0  0  0  0  0  0  0  0
    9.5819   -7.5876    0.0000 O   0  5  0  0  0  0  0  0  0  0  0  0
  1  2  1  0  0  0  0
  2  3  1  0  0  0  0
  3  4  1  0  0  0  0
  4  5  1  0  0  0  0
  5  6  1  0  0  0  0
  1  7  2  0  0  0  0
  1  8  1  0  0  0  0
  6  9  2  0  0  0  0
  6 10  1  0  0  0  0
M  CHG  2   8  -1  10  -1
M  END
>  <cdx:groupId>
2401

>  <cdx:fragmentId>
2375

$$$$
