200187.cdx
  Mrv1902 05222410262D          

 26 29  0  0  0  0            999 V2000
    8.0494   -5.0917    0.0000 O   0  0  0  0  0  0  0  0  0  0  0  0
    7.3349   -7.1542    0.0000 C   0  0  0  0  0  0  0  0  0  0  0  0
    7.3349   -6.3292    0.0000 C   0  0  0  0  0  0  0  0  0  0  0  0
    8.0494   -5.9167    0.0000 C   0  0  0  0  0  0  0  0  0  0  0  0
    8.7639   -6.3292    0.0000 C   0  0  0  0  0  0  0  0  0  0  0  0
    8.7639   -7.1542    0.0000 C   0  0  0  0  0  0  0  0  0  0  0  0
    8.0494   -7.5667    0.0000 C   0  0  0  0  0  0  0  0  0  0  0  0
    5.7259  -10.7159    0.0000 C   0  0  0  0  0  0  0  0  0  0  0  0
    6.3200   -7.9205    0.0000 O   0  0  0  0  0  0  0  0  0  0  0  0
    9.0139  -10.2744    0.0000 C   0  0  0  0  0  0  0  0  0  0  0  0
    9.8209  -10.1028    0.0000 C   0  0  0  0  0  0  0  0  0  0  0  0
   10.0758   -9.3182    0.0000 C   0  0  0  0  0  0  0  0  0  0  0  0
    9.5238   -8.7051    0.0000 C   0  0  0  0  0  0  0  0  0  0  0  0
    7.6369   -9.6613    0.0000 C   0  0  0  0  0  0  0  0  0  0  0  0
    7.0849  -10.2744    0.0000 C   0  0  0  0  0  0  0  0  0  0  0  0
    6.2779  -10.1028    0.0000 C   0  0  0  0  0  0  0  0  0  0  0  0
    6.0229   -9.3182    0.0000 C   0  0  0  0  0  0  0  0  0  0  0  0
    6.5750   -8.7051    0.0000 C   0  0  0  0  0  0  0  0  0  0  0  0
    7.3820   -8.8766    0.0000 C   0  0  0  0  0  0  0  0  0  0  0  0
    8.0494   -8.3917    0.0000 C   0  0  0  0  0  0  0  0  0  0  0  0
    8.7168   -8.8766    0.0000 N   0  3  0  0  0  0  0  0  0  0  0  0
    8.4619   -9.6613    0.0000 N   0  0  0  0  0  0  0  0  0  0  0  0
    5.5131   -7.7490    0.0000 S   0  0  0  0  0  0  0  0  0  0  0  0
    5.2995   -8.5459    0.0000 O   0  0  0  0  0  0  0  0  0  0  0  0
    4.7162   -7.5354    0.0000 O   0  0  0  0  0  0  0  0  0  0  0  0
    5.7266   -6.9521    0.0000 O   0  0  0  0  0  0  0  0  0  0  0  0
 20  7  1  0  0  0  0
  4  1  1  0  0  0  0
  7  2  2  0  0  0  0
  3  2  1  0  0  0  0
  4  3  2  0  0  0  0
  5  4  1  0  0  0  0
  6  5  2  0  0  0  0
  7  6  1  0  0  0  0
 16  8  1  0  0  0  0
 18  9  1  0  0  0  0
 13 21  1  0  0  0  0
 10 22  1  0  0  0  0
 11 10  1  0  0  0  0
 12 11  1  0  0  0  0
 13 12  1  0  0  0  0
 19 14  2  0  0  0  0
 22 14  1  0  0  0  0
 15 14  1  0  0  0  0
 16 15  2  0  0  0  0
 17 16  1  0  0  0  0
 18 17  2  0  0  0  0
 19 18  1  0  0  0  0
 20 19  1  0  0  0  0
 21 20  2  0  0  0  0
 22 21  1  0  0  0  0
  9 23  1  0  0  0  0
 23 24  2  0  0  0  0
 23 25  1  0  0  0  0
 23 26  2  0  0  0  0
M  CHG  1  21   1
M  END
>  <cdx:fragmentId>
45564

$$$$
