200191.cdx
  Mrv1902 05222410262D          

 46 53  0  0  0  0            999 V2000
    6.8244  -10.0925    0.0000 C   0  0  2  0  0  0  0  0  0  0  0  0
    7.2366   -9.3783    0.0000 C   0  0  2  0  0  0  0  0  0  0  0  0
    6.9369   -8.6097    0.0000 C   0  0  2  0  0  0  0  0  0  0  0  0
    6.1493   -8.3652    0.0000 C   0  0  1  0  0  0  0  0  0  0  0  0
    5.4681   -8.8283    0.0000 C   0  0  1  0  0  0  0  0  0  0  0  0
    5.4070   -9.6511    0.0000 C   0  0  2  0  0  0  0  0  0  0  0  0
    6.0109  -10.2135    0.0000 C   0  0  2  0  0  0  0  0  0  0  0  0
    4.7041   -8.5167    0.0000 C   0  0  0  0  0  0  0  0  0  0  0  0
    4.1709   -9.1459    0.0000 C   0  0  0  0  0  0  0  0  0  0  0  0
    4.6054   -9.8477    0.0000 C   0  0  0  0  0  0  0  0  0  0  0  0
    6.5728   -7.0012    0.0000 C   0  0  2  0  0  0  0  0  0  0  0  0
    5.9672   -7.5608    0.0000 C   0  0  1  0  0  0  0  0  0  0  0  0
    8.0718   -6.8238    0.0000 O   0  0  0  0  0  0  0  0  0  0  0  0
    7.3601   -7.2454    0.0000 C   0  0  2  0  0  0  0  0  0  0  0  0
    7.5424   -8.0498    0.0000 C   0  0  2  0  0  0  0  0  0  0  0  0
    8.3652   -8.1273    0.0000 O   0  0  0  0  0  0  0  0  0  0  0  0
    8.6936   -7.3678    0.0000 C   0  0  2  0  0  0  0  0  0  0  0  0
    9.4902   -7.1541    0.0000 C   0  0  0  0  0  0  0  0  0  0  0  0
   10.0738   -7.7374    0.0000 C   0  0  0  0  0  0  0  0  0  0  0  0
   10.8705   -7.5240    0.0000 C   0  0  0  0  0  0  0  0  0  0  0  0
   11.0841   -6.7270    0.0000 C   0  0  0  0  0  0  0  0  0  0  0  0
   10.5009   -6.1438    0.0000 C   0  0  0  0  0  0  0  0  0  0  0  0
    9.7039   -6.3572    0.0000 C   0  0  0  0  0  0  0  0  0  0  0  0
    3.3459   -9.1459    0.0000 C   0  0  0  0  0  0  0  0  0  0  0  0
    4.1929  -10.5622    0.0000 O   0  0  0  0  0  0  0  0  0  0  0  0
    5.1935  -10.4480    0.0000 O   0  0  0  0  0  0  0  0  0  0  0  0
    5.7974  -11.0104    0.0000 O   0  0  0  0  0  0  0  0  0  0  0  0
    7.2369  -10.8069    0.0000 C   0  0  0  0  0  0  0  0  0  0  0  0
    7.7338   -8.8231    0.0000 H   0  0  0  0  0  0  0  0  0  0  0  0
    7.6494  -10.0925    0.0000 O   0  0  0  0  0  0  0  0  0  0  0  0
    6.7328   -7.7819    0.0000 O   0  0  0  0  0  0  0  0  0  0  0  0
    5.2547   -8.0314    0.0000 H   0  0  0  0  0  0  0  0  0  0  0  0
    5.1703   -7.3474    0.0000 C   0  0  0  0  0  0  0  0  0  0  0  0
    8.0619  -10.8069    0.0000 O   0  0  0  0  0  0  0  0  0  0  0  0
    7.3601   -6.4204    0.0000 C   0  0  0  0  0  0  0  0  0  0  0  0
    6.6456   -6.0079    0.0000 C   0  0  0  0  0  0  0  0  0  0  0  0
    8.0746   -6.0079    0.0000 C   0  0  0  0  0  0  0  0  0  0  0  0
    6.3906   -6.1966    0.0000 O   0  0  0  0  0  0  0  0  0  0  0  0
    5.6027   -5.9520    0.0000 C   0  0  0  0  0  0  0  0  0  0  0  0
    4.9969   -6.5121    0.0000 O   0  0  0  0  0  0  0  0  0  0  0  0
    5.4206   -5.1474    0.0000 C   0  0  0  0  0  0  0  0  0  0  0  0
    6.0263   -4.5873    0.0000 C   0  0  0  0  0  0  0  0  0  0  0  0
    5.8442   -3.7827    0.0000 C   0  0  0  0  0  0  0  0  0  0  0  0
    5.0563   -3.5381    0.0000 C   0  0  0  0  0  0  0  0  0  0  0  0
    4.4505   -4.0982    0.0000 C   0  0  0  0  0  0  0  0  0  0  0  0
    4.6326   -4.9028    0.0000 C   0  0  0  0  0  0  0  0  0  0  0  0
  1  2  1  0  0  0  0
  2  3  1  0  0  0  0
  3  4  1  0  0  0  0
  4  5  1  0  0  0  0
  5  6  1  0  0  0  0
  6  7  1  0  0  0  0
  1  7  1  0  0  0  0
  5  8  1  0  0  0  0
  8  9  2  0  0  0  0
  9 10  1  0  0  0  0
  6 10  1  0  0  0  0
  3 15  1  0  0  0  0
 14 11  1  0  0  0  0
 11 12  1  0  0  0  0
 12  4  1  0  0  0  0
 14 13  1  6  0  0  0
 15 16  1  6  0  0  0
 16 17  1  0  0  0  0
 13 17  1  0  0  0  0
 17 18  1  6  0  0  0
 18 19  2  0  0  0  0
 19 20  1  0  0  0  0
 20 21  2  0  0  0  0
 21 22  1  0  0  0  0
 22 23  2  0  0  0  0
 23 18  1  0  0  0  0
  9 24  1  0  0  0  0
 10 25  2  0  0  0  0
  6 26  1  1  0  0  0
  7 27  1  1  0  0  0
  1 28  1  0  0  0  0
  3 29  1  1  0  0  0
  1 30  1  6  0  0  0
  2 30  1  6  0  0  0
  4 31  1  6  0  0  0
 17 31  1  0  0  0  0
  5 32  1  6  0  0  0
 12 33  1  6  0  0  0
 14 15  1  0  0  0  0
 28 34  1  0  0  0  0
 14 35  1  0  0  0  0
 35 36  1  0  0  0  0
 35 37  2  0  0  0  0
 11 38  1  1  0  0  0
 38 39  1  0  0  0  0
 39 40  2  0  0  0  0
 39 41  1  0  0  0  0
 41 42  2  0  0  0  0
 42 43  1  0  0  0  0
 43 44  2  0  0  0  0
 44 45  1  0  0  0  0
 45 46  2  0  0  0  0
 46 41  1  0  0  0  0
M  END
>  <cdx:groupId>
1261

>  <cdx:fragmentId>
1262

$$$$
