20011.cdx
  Mrv1902 05222410242D          

 25 27  0  0  0  0            999 V2000
    4.8518   -5.7131    0.0000 C   0  0  0  0  0  0  0  0  0  0  0  0
    4.8518   -6.5381    0.0000 C   0  0  0  0  0  0  0  0  0  0  0  0
    5.5663   -6.9506    0.0000 C   0  0  0  0  0  0  0  0  0  0  0  0
    6.2807   -6.5381    0.0000 C   0  0  0  0  0  0  0  0  0  0  0  0
    6.2807   -5.7131    0.0000 C   0  0  0  0  0  0  0  0  0  0  0  0
    5.5663   -5.3006    0.0000 C   0  0  0  0  0  0  0  0  0  0  0  0
    6.9952   -6.9506    0.0000 O   0  0  0  0  0  0  0  0  0  0  0  0
    7.7097   -6.5381    0.0000 C   0  0  0  0  0  0  0  0  0  0  0  0
    7.7097   -5.7131    0.0000 C   0  0  0  0  0  0  0  0  0  0  0  0
    6.9952   -5.3006    0.0000 C   0  0  0  0  0  0  0  0  0  0  0  0
    8.4242   -6.9506    0.0000 C   0  0  0  0  0  0  0  0  0  0  0  0
    9.1386   -6.5381    0.0000 C   0  0  0  0  0  0  0  0  0  0  0  0
    8.4242   -7.7756    0.0000 C   0  0  0  0  0  0  0  0  0  0  0  0
    9.1386   -8.1881    0.0000 C   0  0  0  0  0  0  0  0  0  0  0  0
    9.8531   -7.7756    0.0000 C   0  0  0  0  0  0  0  0  0  0  0  0
    9.8531   -6.9506    0.0000 C   0  0  0  0  0  0  0  0  0  0  0  0
    8.4242   -9.4256    0.0000 C   0  0  0  0  0  0  0  0  0  0  0  0
    9.1386   -9.0131    0.0000 C   0  0  0  0  0  0  0  0  0  0  0  0
    8.4242  -10.2506    0.0000 C   0  0  0  0  0  0  0  0  0  0  0  0
    9.1386  -10.6631    0.0000 C   0  0  0  0  0  0  0  0  0  0  0  0
    4.1373   -6.9506    0.0000 O   0  0  0  0  0  0  0  0  0  0  0  0
    5.5663   -4.4756    0.0000 O   0  0  0  0  0  0  0  0  0  0  0  0
    6.9952   -4.4756    0.0000 O   0  0  0  0  0  0  0  0  0  0  0  0
   10.5676   -8.1881    0.0000 O   0  0  0  0  0  0  0  0  0  0  0  0
    7.7097  -10.6631    0.0000 C   0  0  0  0  0  0  0  0  0  0  0  0
  1  2  2  0  0  0  0
  2  3  1  0  0  0  0
  3  4  2  0  0  0  0
  4  5  1  0  0  0  0
  5  6  2  0  0  0  0
  6  1  1  0  0  0  0
  4  7  1  0  0  0  0
  7  8  1  0  0  0  0
  8  9  2  0  0  0  0
  9 10  1  0  0  0  0
 10  5  1  0  0  0  0
  8 11  1  0  0  0  0
 11 12  1  0  0  0  0
 11 13  2  0  0  0  0
 13 14  1  0  0  0  0
 14 15  2  0  0  0  0
 15 16  1  0  0  0  0
 16 12  2  0  0  0  0
 17 18  1  0  0  0  0
 18 14  1  0  0  0  0
 17 19  2  0  0  0  0
 19 20  1  0  0  0  0
  2 21  1  0  0  0  0
  6 22  1  0  0  0  0
 10 23  2  0  0  0  0
 15 24  1  0  0  0  0
 19 25  1  0  0  0  0
M  END
>  <cdx:fragmentId>
6

$$$$
