200264.cdx
  Mrv1902 05222410212D          

 53 58  0  0  0  0            999 V2000
    5.0034   -4.5390    0.0000 C   0  0  0  0  0  0  0  0  0  0  0  0
    4.2203   -4.7986    0.0000 C   0  0  0  0  0  0  0  0  0  0  0  0
    6.3289   -7.2269    0.0000 H   0  0  0  0  0  0  0  0  0  0  0  0
    5.9722   -7.4616    0.0000 H   0  0  0  0  0  0  0  0  0  0  0  0
    3.4951   -6.8626    0.0000 H   0  0  0  0  0  0  0  0  0  0  0  0
    4.5832   -7.9212    0.0000 O   0  0  0  0  0  0  0  0  0  0  0  0
    3.5725   -9.2886    0.0000 O   0  0  0  0  0  0  0  0  0  0  0  0
    6.5403   -9.3031    0.0000 O   0  0  0  0  0  0  0  0  0  0  0  0
    5.7229   -9.4152    0.0000 C   0  0  0  0  0  0  0  0  0  0  0  0
    1.6366   -8.1119    0.0000 C   0  0  0  0  0  0  0  0  0  0  0  0
    6.8094   -5.4458    0.0000 C   0  0  0  0  0  0  0  0  0  0  0  0
    7.0690   -6.2289    0.0000 C   0  0  0  0  0  0  0  0  0  0  0  0
    3.2887   -6.1782    0.0000 C   0  0  0  0  0  0  0  0  0  0  0  0
    2.7217   -9.5416    0.0000 O   0  0  0  0  0  0  0  0  0  0  0  0
    4.0966   -6.3450    0.0000 C   0  0  2  0  0  0  0  0  0  0  0  0
    4.6450   -5.7286    0.0000 C   0  0  0  0  0  0  0  0  0  0  0  0
    5.4530   -5.8954    0.0000 C   0  0  1  0  0  0  0  0  0  0  0  0
    6.2610   -6.0621    0.0000 C   0  0  0  0  0  0  0  0  0  0  0  0
    5.7126   -6.6785    0.0000 C   0  0  1  0  0  0  0  0  0  0  0  0
    5.1642   -7.2948    0.0000 C   0  0  2  0  0  0  0  0  0  0  0  0
    5.5376   -8.0305    0.0000 C   0  0  0  0  0  0  0  0  0  0  0  0
    5.1952   -8.7811    0.0000 C   0  0  0  0  0  0  0  0  0  0  0  0
    4.3949   -8.9814    0.0000 C   0  0  0  0  0  0  0  0  0  0  0  0
    3.7393   -8.4806    0.0000 C   0  0  1  0  0  0  0  0  0  0  0  0
    2.9602   -8.7519    0.0000 C   0  0  0  0  0  0  0  0  0  0  0  0
    2.4614   -8.0947    0.0000 C   0  0  0  0  0  0  0  0  0  0  0  0
    2.9323   -7.4173    0.0000 C   0  0  0  0  0  0  0  0  0  0  0  0
    3.7221   -7.6558    0.0000 C   0  0  1  0  0  0  0  0  0  0  0  0
    4.3562   -7.1281    0.0000 C   0  0  2  0  0  0  0  0  0  0  0  0
    5.6198   -5.0874    0.0000 O   0  0  0  0  0  0  0  0  0  0  0  0
    5.1702   -3.7310    0.0000 O   0  0  0  0  0  0  0  0  0  0  0  0
    7.0461   -9.9549    0.0000 C   0  0  2  0  0  0  0  0  0  0  0  0
    6.7345  -10.7188    0.0000 O   0  0  0  0  0  0  0  0  0  0  0  0
    7.2402  -11.3706    0.0000 C   0  0  1  0  0  0  0  0  0  0  0  0
    8.0576  -11.2585    0.0000 C   0  0  2  0  0  0  0  0  0  0  0  0
    8.3692  -10.4946    0.0000 C   0  0  1  0  0  0  0  0  0  0  0  0
    7.8634   -9.8428    0.0000 C   0  0  1  0  0  0  0  0  0  0  0  0
    6.9286  -12.1345    0.0000 C   0  0  0  0  0  0  0  0  0  0  0  0
    9.1865  -10.3825    0.0000 O   0  0  0  0  0  0  0  0  0  0  0  0
    8.5633  -11.9103    0.0000 O   0  0  0  0  0  0  0  0  0  0  0  0
    8.1750   -9.0789    0.0000 O   0  0  0  0  0  0  0  0  0  0  0  0
    7.4344  -12.7863    0.0000 O   0  0  0  0  0  0  0  0  0  0  0  0
    9.6923  -11.0343    0.0000 C   0  0  0  0  0  0  0  0  0  0  0  0
   10.5096  -10.9222    0.0000 C   0  0  0  0  0  0  0  0  0  0  0  0
    9.3807  -11.7982    0.0000 O   0  0  0  0  0  0  0  0  0  0  0  0
   11.0154  -11.5740    0.0000 C   0  0  0  0  0  0  0  0  0  0  0  0
   11.8327  -11.4619    0.0000 C   0  0  0  0  0  0  0  0  0  0  0  0
   12.1443  -10.6980    0.0000 C   0  0  0  0  0  0  0  0  0  0  0  0
   11.6385  -10.0462    0.0000 C   0  0  0  0  0  0  0  0  0  0  0  0
   10.8212  -10.1583    0.0000 C   0  0  0  0  0  0  0  0  0  0  0  0
   12.9617  -10.5859    0.0000 O   0  0  0  0  0  0  0  0  0  0  0  0
   11.9501   -9.2823    0.0000 O   0  0  0  0  0  0  0  0  0  0  0  0
   12.3385  -12.1137    0.0000 O   0  0  0  0  0  0  0  0  0  0  0  0
 19  3  1  6  0  0  0
 20  4  1  1  0  0  0
 28  5  1  6  0  0  0
 17 30  1  6  0  0  0
 29  6  1  6  0  0  0
 24  7  1  1  0  0  0
 22  9  1  0  0  0  0
  9  8  1  0  0  0  0
 26 10  1  0  0  0  0
 18 11  1  0  0  0  0
 18 12  1  0  0  0  0
 15 13  1  6  0  0  0
 25 14  2  0  0  0  0
 28 24  1  0  0  0  0
 19 17  1  0  0  0  0
 29 20  1  0  0  0  0
 29 15  1  0  0  0  0
 16 15  1  0  0  0  0
 17 16  1  0  0  0  0
 18 17  1  0  0  0  0
 19 18  1  0  0  0  0
 20 19  1  0  0  0  0
 21 20  1  0  0  0  0
 22 21  2  0  0  0  0
 23 22  1  0  0  0  0
 24 23  1  0  0  0  0
 25 24  1  0  0  0  0
 26 25  1  0  0  0  0
 27 26  2  0  0  0  0
 28 27  1  0  0  0  0
 29 28  1  0  0  0  0
  1 30  1  0  0  0  0
  1  2  1  0  0  0  0
  1 31  2  0  0  0  0
 32  8  1  1  0  0  0
 32 33  1  0  0  0  0
 33 34  1  0  0  0  0
 34 35  1  0  0  0  0
 35 36  1  0  0  0  0
 36 37  1  0  0  0  0
 37 32  1  0  0  0  0
 34 38  1  1  0  0  0
 36 39  1  1  0  0  0
 35 40  1  6  0  0  0
 37 41  1  6  0  0  0
 38 42  1  0  0  0  0
 39 43  1  0  0  0  0
 43 44  1  0  0  0  0
 43 45  2  0  0  0  0
 44 46  2  0  0  0  0
 46 47  1  0  0  0  0
 47 48  2  0  0  0  0
 48 49  1  0  0  0  0
 49 50  2  0  0  0  0
 50 44  1  0  0  0  0
 48 51  1  0  0  0  0
 49 52  1  0  0  0  0
 47 53  1  0  0  0  0
M  END
>  <cdx:groupId>
71754

>  <cdx:fragmentId>
71669

$$$$
