200211.cdx
  Mrv1902 05222410192D          

 20 19  0  0  0  0            999 V2000
    3.0087  -12.8104    0.0000 C   0  0  0  0  0  0  0  0  0  0  0  0
    3.7232  -12.3979    0.0000 C   0  0  0  0  0  0  0  0  0  0  0  0
    2.2942  -12.3979    0.0000 Cl  0  0  0  0  0  0  0  0  0  0  0  0
    3.0087  -13.6354    0.0000 O   0  0  0  0  0  0  0  0  0  0  0  0
    4.4377  -12.8104    0.0000 C   0  0  0  0  0  0  0  0  0  0  0  0
    5.1521  -12.3979    0.0000 C   0  0  0  0  0  0  0  0  0  0  0  0
    5.8666  -12.8104    0.0000 C   0  0  0  0  0  0  0  0  0  0  0  0
    6.5811  -12.3979    0.0000 C   0  0  0  0  0  0  0  0  0  0  0  0
    7.2955  -12.8104    0.0000 C   0  0  0  0  0  0  0  0  0  0  0  0
    8.0100  -12.3979    0.0000 C   0  0  0  0  0  0  0  0  0  0  0  0
    8.7245  -12.8104    0.0000 C   0  0  0  0  0  0  0  0  0  0  0  0
    9.4389  -12.3979    0.0000 C   0  0  0  0  0  0  0  0  0  0  0  0
    9.4389  -11.5729    0.0000 C   0  0  0  0  0  0  0  0  0  0  0  0
   10.1534  -11.1604    0.0000 C   0  0  0  0  0  0  0  0  0  0  0  0
   10.1534  -10.3354    0.0000 C   0  0  0  0  0  0  0  0  0  0  0  0
   10.8679   -9.9229    0.0000 C   0  0  0  0  0  0  0  0  0  0  0  0
   10.8679   -9.0979    0.0000 C   0  0  0  0  0  0  0  0  0  0  0  0
   11.5824   -8.6854    0.0000 C   0  0  0  0  0  0  0  0  0  0  0  0
   11.5824   -7.8604    0.0000 C   0  0  0  0  0  0  0  0  0  0  0  0
   12.2968   -7.4479    0.0000 C   0  0  0  0  0  0  0  0  0  0  0  0
  1  2  1  0  0  0  0
  1  3  1  0  0  0  0
  1  4  2  0  0  0  0
  2  5  1  0  0  0  0
  5  6  1  0  0  0  0
  6  7  1  0  0  0  0
  7  8  1  0  0  0  0
  8  9  1  0  0  0  0
  9 10  1  0  0  0  0
 10 11  1  0  0  0  0
 11 12  2  0  0  0  0
 12 13  1  0  0  0  0
 13 14  1  0  0  0  0
 14 15  1  0  0  0  0
 15 16  1  0  0  0  0
 16 17  1  0  0  0  0
 17 18  1  0  0  0  0
 18 19  1  0  0  0  0
 19 20  1  0  0  0  0
M  END
>  <cdx:fragmentId>
3566

$$$$
