200245.cdx
  Mrv1902 05222410232D          

 28 28  0  0  0  0            999 V2000
    7.8620   -3.6008    0.0000 C   0  0  0  0  0  0  0  0  0  0  0  0
    7.8620   -3.0233    0.0000 C   0  0  0  0  0  0  0  0  0  0  0  0
    7.3617   -2.7346    0.0000 C   0  0  0  0  0  0  0  0  0  0  0  0
    6.8618   -3.0233    0.0000 C   0  0  0  0  0  0  0  0  0  0  0  0
    6.8618   -3.6008    0.0000 C   0  0  0  0  0  0  0  0  0  0  0  0
    7.3617   -3.8896    0.0000 C   0  0  0  0  0  0  0  0  0  0  0  0
    7.8628   -4.7553    0.0000 O   0  0  0  0  0  0  0  0  0  0  0  0
    7.3617   -2.1571    0.0000 O   0  0  0  0  0  0  0  0  0  0  0  0
    7.3617   -4.4671    0.0000 C   0  0  0  0  0  0  0  0  0  0  0  0
    6.8618   -4.7558    0.0000 O   0  0  0  0  0  0  0  0  0  0  0  0
    8.3619   -2.7346    0.0000 O   0  0  0  0  0  0  0  0  0  0  0  0
    6.3616   -2.7346    0.0000 O   0  0  0  0  0  0  0  0  0  0  0  0
    6.8623   -5.3036    0.0000 C   0  0  0  0  0  0  0  0  0  0  0  0
    6.3654   -5.5979    0.0000 C   0  0  0  0  0  0  0  0  0  0  0  0
    6.3715   -6.1751    0.0000 C   0  0  0  0  0  0  0  0  0  0  0  0
    5.8743   -6.4691    0.0000 C   0  0  0  0  0  0  0  0  0  0  0  0
    5.8803   -7.0466    0.0000 C   0  0  0  0  0  0  0  0  0  0  0  0
    5.3834   -7.3406    0.0000 C   0  0  0  0  0  0  0  0  0  0  0  0
    5.3894   -7.9181    0.0000 C   0  0  0  0  0  0  0  0  0  0  0  0
    4.8925   -8.2120    0.0000 C   0  0  0  0  0  0  0  0  0  0  0  0
    4.8986   -8.7895    0.0000 C   0  0  0  0  0  0  0  0  0  0  0  0
    4.4014   -9.0835    0.0000 C   0  0  0  0  0  0  0  0  0  0  0  0
    4.4074   -9.6610    0.0000 C   0  0  0  0  0  0  0  0  0  0  0  0
    3.9105   -9.9550    0.0000 C   0  0  0  0  0  0  0  0  0  0  0  0
    3.9165  -10.5325    0.0000 C   0  0  0  0  0  0  0  0  0  0  0  0
    3.4193  -10.8265    0.0000 C   0  0  0  0  0  0  0  0  0  0  0  0
    3.4254  -11.4040    0.0000 C   0  0  0  0  0  0  0  0  0  0  0  0
    2.9285  -11.6979    0.0000 C   0  0  0  0  0  0  0  0  0  0  0  0
  6  1  2  0  0  0  0
  1  2  1  0  0  0  0
  2  3  2  0  0  0  0
  3  4  1  0  0  0  0
  4  5  2  0  0  0  0
  5  6  1  0  0  0  0
  6  9  1  0  0  0  0
  9  7  2  0  0  0  0
  3  8  1  0  0  0  0
  9 10  1  0  0  0  0
  2 11  1  0  0  0  0
  4 12  1  0  0  0  0
 13 14  1  0  0  0  0
 14 15  1  0  0  0  0
 15 16  1  0  0  0  0
 16 17  1  0  0  0  0
 17 18  1  0  0  0  0
 18 19  1  0  0  0  0
 19 20  1  0  0  0  0
 20 21  1  0  0  0  0
 21 22  1  0  0  0  0
 22 23  1  0  0  0  0
 23 24  1  0  0  0  0
 24 25  1  0  0  0  0
 25 26  1  0  0  0  0
 26 27  1  0  0  0  0
 27 28  1  0  0  0  0
 13 10  1  0  0  0  0
M  END
>  <cdx:fragmentId>
4418

$$$$
