200224.cdx
  Mrv1902 05222410272D          

 16 15  0  0  0  0            999 V2000
   11.8009   -7.8522    0.0000 C   0  0  0  0  0  0  0  0  0  0  0  0
   11.0864   -7.4397    0.0000 C   0  0  0  0  0  0  0  0  0  0  0  0
   10.2614   -7.4397    0.0000 C   0  0  0  0  0  0  0  0  0  0  0  0
    9.5470   -7.8522    0.0000 C   0  0  0  0  0  0  0  0  0  0  0  0
    8.8325   -8.2647    0.0000 C   0  0  0  0  0  0  0  0  0  0  0  0
    8.1180   -8.6772    0.0000 C   0  0  0  0  0  0  0  0  0  0  0  0
    7.4035   -9.0897    0.0000 C   0  0  0  0  0  0  0  0  0  0  0  0
    6.6891   -9.5022    0.0000 C   0  0  0  0  0  0  0  0  0  0  0  0
    5.8641   -9.5022    0.0000 C   0  0  0  0  0  0  0  0  0  0  0  0
    5.1496   -9.0897    0.0000 C   0  0  0  0  0  0  0  0  0  0  0  0
    4.4351   -9.5022    0.0000 C   0  0  0  0  0  0  0  0  0  0  0  0
    3.7207   -9.0897    0.0000 C   0  0  0  0  0  0  0  0  0  0  0  0
    3.0062   -9.5022    0.0000 C   0  0  0  0  0  0  0  0  0  0  0  0
    2.2917   -9.0897    0.0000 C   0  0  0  0  0  0  0  0  0  0  0  0
    1.5773   -9.5022    0.0000 C   0  0  0  0  0  0  0  0  0  0  0  0
   12.5154   -7.4397    0.0000 O   0  0  0  0  0  0  0  0  0  0  0  0
  1  2  1  0  0  0  0
  2  3  2  0  0  0  0
  3  4  1  0  0  0  0
  4  5  3  0  0  0  0
  5  6  1  0  0  0  0
  6  7  3  0  0  0  0
  7  8  1  0  0  0  0
  8  9  2  0  0  0  0
  9 10  1  0  0  0  0
 10 11  2  0  0  0  0
 11 12  1  0  0  0  0
 12 13  1  0  0  0  0
 13 14  1  0  0  0  0
 14 15  1  0  0  0  0
  1 16  1  0  0  0  0
M  END
>  <cdx:fragmentId>
5

$$$$
