200248.cdx
  Mrv1902 05222410222D          

 43 45  0  0  0  0            999 V2000
   11.0311   -9.1824    0.0000 C   0  0  0  0  0  0  0  0  0  0  0  0
   11.7455   -9.5949    0.0000 C   0  0  0  0  0  0  0  0  0  0  0  0
   12.4590   -9.1806    0.0000 C   0  0  0  0  0  0  0  0  0  0  0  0
   11.0311   -8.3574    0.0000 O   0  0  0  0  0  0  0  0  0  0  0  0
   10.3166   -9.5949    0.0000 N   0  0  0  0  0  0  0  0  0  0  0  0
    9.6021   -9.1824    0.0000 C   0  0  0  0  0  0  0  0  0  0  0  0
    8.8876   -9.5949    0.0000 C   0  0  0  0  0  0  0  0  0  0  0  0
    8.1732   -9.1824    0.0000 C   0  0  0  0  0  0  0  0  0  0  0  0
    7.4587   -9.5949    0.0000 C   0  0  0  0  0  0  0  0  0  0  0  0
    6.7442   -9.1824    0.0000 N   0  0  0  0  0  0  0  0  0  0  0  0
    6.0298   -9.5949    0.0000 C   0  0  0  0  0  0  0  0  0  0  0  0
    5.3153   -9.1824    0.0000 C   0  0  0  0  0  0  0  0  0  0  0  0
    4.6008   -9.5949    0.0000 C   0  0  0  0  0  0  0  0  0  0  0  0
    3.8863   -9.1824    0.0000 N   0  0  0  0  0  0  0  0  0  0  0  0
    3.1719   -9.5949    0.0000 C   0  0  0  0  0  0  0  0  0  0  0  0
    2.4574   -9.1824    0.0000 C   0  0  0  0  0  0  0  0  0  0  0  0
    1.7426   -9.5944    0.0000 C   0  0  0  0  0  0  0  0  0  0  0  0
    3.1719  -10.4199    0.0000 O   0  0  0  0  0  0  0  0  0  0  0  0
    1.7408  -10.4194    0.0000 C   0  0  0  0  0  0  0  0  0  0  0  0
    2.4543  -10.8335    0.0000 C   0  0  0  0  0  0  0  0  0  0  0  0
    2.4525  -11.6585    0.0000 C   0  0  0  0  0  0  0  0  0  0  0  0
    1.7371  -12.0694    0.0000 C   0  0  0  0  0  0  0  0  0  0  0  0
    1.0235  -11.6553    0.0000 C   0  0  0  0  0  0  0  0  0  0  0  0
    1.0254  -10.8303    0.0000 C   0  0  0  0  0  0  0  0  0  0  0  0
    1.7352  -12.8944    0.0000 O   0  0  0  0  0  0  0  0  0  0  0  0
    6.7442   -8.3574    0.0000 C   0  0  0  0  0  0  0  0  0  0  0  0
    6.0298   -7.9449    0.0000 C   0  0  0  0  0  0  0  0  0  0  0  0
    6.0298   -7.1199    0.0000 C   0  0  0  0  0  0  0  0  0  0  0  0
    7.4587   -7.9449    0.0000 O   0  0  0  0  0  0  0  0  0  0  0  0
    6.7442   -6.7074    0.0000 C   0  0  0  0  0  0  0  0  0  0  0  0
    6.7442   -5.8824    0.0000 C   0  0  0  0  0  0  0  0  0  0  0  0
    7.4587   -5.4699    0.0000 C   0  0  0  0  0  0  0  0  0  0  0  0
    8.1732   -5.8824    0.0000 C   0  0  0  0  0  0  0  0  0  0  0  0
    8.1732   -6.7074    0.0000 C   0  0  0  0  0  0  0  0  0  0  0  0
    7.4587   -7.1199    0.0000 C   0  0  0  0  0  0  0  0  0  0  0  0
    8.8876   -5.4699    0.0000 O   0  0  0  0  0  0  0  0  0  0  0  0
   12.4568   -8.3556    0.0000 C   0  0  0  0  0  0  0  0  0  0  0  0
   11.7413   -7.9450    0.0000 C   0  0  0  0  0  0  0  0  0  0  0  0
   11.7391   -7.1200    0.0000 C   0  0  0  0  0  0  0  0  0  0  0  0
   12.4525   -6.7056    0.0000 C   0  0  0  0  0  0  0  0  0  0  0  0
   13.1680   -7.1162    0.0000 C   0  0  0  0  0  0  0  0  0  0  0  0
   13.1702   -7.9412    0.0000 C   0  0  0  0  0  0  0  0  0  0  0  0
   12.4503   -5.8806    0.0000 O   0  0  0  0  0  0  0  0  0  0  0  0
  1  2  1  0  0  0  0
  2  3  2  0  0  0  0
  1  4  2  0  0  0  0
  1  5  1  0  0  0  0
  6  7  1  0  0  0  0
  7  8  1  0  0  0  0
  8  9  1  0  0  0  0
 11 12  1  0  0  0  0
 12 13  1  0  0  0  0
 15 16  1  0  0  0  0
 16 17  2  0  0  0  0
 15 18  2  0  0  0  0
 19 20  1  0  0  0  0
 20 21  2  0  0  0  0
 21 22  1  0  0  0  0
 22 23  2  0  0  0  0
 23 24  1  0  0  0  0
 19 24  2  0  0  0  0
 22 25  1  0  0  0  0
 17 19  1  0  0  0  0
 14 15  1  0  0  0  0
 13 14  1  0  0  0  0
 10 11  1  0  0  0  0
 26 27  1  0  0  0  0
 27 28  2  0  0  0  0
 26 29  2  0  0  0  0
 30 31  1  0  0  0  0
 31 32  2  0  0  0  0
 32 33  1  0  0  0  0
 33 34  2  0  0  0  0
 34 35  1  0  0  0  0
 30 35  2  0  0  0  0
 33 36  1  0  0  0  0
 28 30  1  0  0  0  0
 10 26  1  0  0  0  0
  9 10  1  0  0  0  0
  5  6  1  0  0  0  0
 37 38  1  0  0  0  0
 38 39  2  0  0  0  0
 39 40  1  0  0  0  0
 40 41  2  0  0  0  0
 41 42  1  0  0  0  0
 37 42  2  0  0  0  0
 40 43  1  0  0  0  0
  3 37  1  0  0  0  0
M  END
>  <cdx:fragmentId>
41

$$$$
