200235.cdx
  Mrv1902 05222410272D          

 26 27  0  0  0  0            999 V2000
    4.9847   -7.8089    0.0000 C   0  0  1  0  0  0  0  0  0  0  0  0
    4.9847   -8.6339    0.0000 C   0  0  0  0  0  0  0  0  0  0  0  0
    5.6297   -9.1483    0.0000 C   0  0  0  0  0  0  0  0  0  0  0  0
    6.4340   -8.9647    0.0000 C   0  0  1  0  0  0  0  0  0  0  0  0
    6.7920   -8.2214    0.0000 C   0  0  1  0  0  0  0  0  0  0  0  0
    6.4340   -7.4781    0.0000 C   0  0  0  0  0  0  0  0  0  0  0  0
    5.6297   -7.2945    0.0000 C   0  0  2  0  0  0  0  0  0  0  0  0
    4.2001   -7.5540    0.0000 C   0  0  0  0  0  0  0  0  0  0  0  0
    3.7152   -8.2214    0.0000 C   0  0  0  0  0  0  0  0  0  0  0  0
    4.2001   -8.8888    0.0000 C   0  0  0  0  0  0  0  0  0  0  0  0
    2.8902   -8.2214    0.0000 O   0  0  0  0  0  0  0  0  0  0  0  0
    3.9451   -9.6735    0.0000 C   0  0  0  0  0  0  0  0  0  0  0  0
    7.6170   -8.2214    0.0000 O   0  0  0  0  0  0  0  0  0  0  0  0
    8.0295   -7.5069    0.0000 C   0  0  0  0  0  0  0  0  0  0  0  0
    8.8545   -7.5069    0.0000 C   0  0  0  0  0  0  0  0  0  0  0  0
    7.6170   -6.7925    0.0000 O   0  0  0  0  0  0  0  0  0  0  0  0
    9.2670   -6.7925    0.0000 C   0  0  0  0  0  0  0  0  0  0  0  0
    6.9484   -9.6097    0.0000 C   0  0  0  0  0  0  0  0  0  0  0  0
    7.5318  -10.1931    0.0000 O   0  0  0  0  0  0  0  0  0  0  0  0
    8.3287   -9.9795    0.0000 C   0  0  0  0  0  0  0  0  0  0  0  0
    8.9120  -10.5629    0.0000 C   0  0  0  0  0  0  0  0  0  0  0  0
    8.5422   -9.1827    0.0000 O   0  0  0  0  0  0  0  0  0  0  0  0
    5.4461   -6.4902    0.0000 C   0  0  0  0  0  0  0  0  0  0  0  0
    4.7712   -7.0120    0.0000 H   0  0  0  0  0  0  0  0  0  0  0  0
    6.3333  -10.1594    0.0000 C   0  0  0  0  0  0  0  0  0  0  0  0
    7.5636   -9.0600    0.0000 C   0  0  0  0  0  0  0  0  0  0  0  0
  1  2  1  0  0  0  0
  2  3  1  0  0  0  0
  3  4  1  0  0  0  0
  4  5  1  0  0  0  0
  5  6  1  0  0  0  0
  6  7  1  0  0  0  0
  7  1  1  0  0  0  0
  1  8  1  0  0  0  0
  8  9  1  0  0  0  0
  9 10  1  0  0  0  0
 10  2  2  0  0  0  0
  9 11  2  0  0  0  0
 10 12  1  0  0  0  0
  5 13  1  1  0  0  0
 13 14  1  0  0  0  0
 14 15  1  0  0  0  0
 14 16  2  0  0  0  0
 15 17  1  0  0  0  0
  4 18  1  1  0  0  0
 18 19  1  0  0  0  0
 19 20  1  0  0  0  0
 20 21  1  0  0  0  0
 20 22  2  0  0  0  0
  7 23  1  1  0  0  0
  1 24  1  1  0  0  0
 18 25  1  0  0  0  0
 18 26  1  0  0  0  0
M  END
>  <cdx:fragmentId>
5

$$$$
