200231.cdx
  Mrv1902 05222410272D          

 20 22  0  0  0  0            999 V2000
    5.9678   -9.9086    0.0000 C   0  0  0  0  0  0  0  0  0  0  0  0
    5.1608  -10.0802    0.0000 O   0  0  0  0  0  0  0  0  0  0  0  0
    6.2228   -9.1240    0.0000 C   0  0  1  0  0  0  0  0  0  0  0  0
    5.7378   -8.4566    0.0000 C   0  0  0  0  0  0  0  0  0  0  0  0
    6.2228   -7.7891    0.0000 C   0  0  0  0  0  0  0  0  0  0  0  0
    7.0074   -8.0441    0.0000 C   0  0  1  0  0  0  0  0  0  0  0  0
    7.6524   -7.5297    0.0000 C   0  0  2  0  0  0  0  0  0  0  0  0
    7.4488   -8.2438    0.0000 C   0  0  0  0  0  0  0  0  0  0  0  0
    7.7710   -8.9127    0.0000 C   0  0  0  0  0  0  0  0  0  0  0  0
    8.4567   -9.1999    0.0000 C   0  0  2  0  0  0  0  0  0  0  0  0
    7.6524   -9.3835    0.0000 C   0  0  0  0  0  0  0  0  0  0  0  0
    7.0074   -8.8691    0.0000 C   0  0  1  0  0  0  0  0  0  0  0  0
    8.8147   -8.4566    0.0000 C   0  0  0  0  0  0  0  0  0  0  0  0
    8.4567   -7.7133    0.0000 O   0  0  0  0  0  0  0  0  0  0  0  0
    9.5291   -8.0441    0.0000 C   0  0  0  0  0  0  0  0  0  0  0  0
    9.5291   -8.8691    0.0000 C   0  0  0  0  0  0  0  0  0  0  0  0
    7.4688   -6.7254    0.0000 C   0  0  0  0  0  0  0  0  0  0  0  0
    6.8601   -7.2323    0.0000 H   0  0  0  0  0  0  0  0  0  0  0  0
    8.9711   -9.8449    0.0000 H   0  0  0  0  0  0  0  0  0  0  0  0
    6.8601   -9.6808    0.0000 H   0  0  0  0  0  0  0  0  0  0  0  0
  1  2  1  0  0  0  0
  3  4  1  0  0  0  0
  4  5  1  0  0  0  0
  5  6  1  0  0  0  0
  6  7  1  0  0  0  0
  7  8  1  0  0  0  0
  8  9  1  0  0  0  0
 10  9  1  0  0  0  0
 10 11  1  0  0  0  0
 11 12  1  0  0  0  0
  3 12  1  0  0  0  0
  6 12  1  0  0  0  0
 13 14  1  0  0  0  0
  7 14  1  0  0  0  0
 10 13  1  0  0  0  0
 13 15  1  0  0  0  0
 13 16  1  0  0  0  0
  7 17  1  6  0  0  0
  3  1  1  1  0  0  0
  6 18  1  6  0  0  0
 10 19  1  6  0  0  0
 12 20  1  6  0  0  0
M  END
>  <cdx:fragmentId>
9

$$$$
