200266.cdx
  Mrv1902 05222410212D          

 59 64  0  0  0  0            999 V2000
    6.7380   -8.6900    0.0000 C   0  0  0  0  0  0  0  0  0  0  0  0
    6.7380   -9.5150    0.0000 C   0  0  0  0  0  0  0  0  0  0  0  0
    7.4525   -9.9275    0.0000 C   0  0  0  0  0  0  0  0  0  0  0  0
    8.1670   -9.5150    0.0000 C   0  0  0  0  0  0  0  0  0  0  0  0
    8.1670   -8.6900    0.0000 C   0  0  0  0  0  0  0  0  0  0  0  0
    7.4525   -8.2775    0.0000 C   0  0  0  0  0  0  0  0  0  0  0  0
    8.8814   -9.9275    0.0000 C   0  0  0  0  0  0  0  0  0  0  0  0
    9.5959   -9.5150    0.0000 C   0  0  0  0  0  0  0  0  0  0  0  0
    9.5959   -8.6900    0.0000 C   0  0  0  0  0  0  0  0  0  0  0  0
    8.8814   -8.2775    0.0000 O   0  0  0  0  0  0  0  0  0  0  0  0
   10.3104   -8.2775    0.0000 C   0  0  0  0  0  0  0  0  0  0  0  0
   11.0249   -8.6900    0.0000 C   0  0  0  0  0  0  0  0  0  0  0  0
   11.7393   -8.2775    0.0000 C   0  0  0  0  0  0  0  0  0  0  0  0
   11.7393   -7.4525    0.0000 C   0  0  0  0  0  0  0  0  0  0  0  0
   11.0249   -7.0400    0.0000 C   0  0  0  0  0  0  0  0  0  0  0  0
   10.3104   -7.4525    0.0000 C   0  0  0  0  0  0  0  0  0  0  0  0
   12.4538   -7.0400    0.0000 O   0  0  0  0  0  0  0  0  0  0  0  0
   13.1683   -7.4525    0.0000 C   0  0  0  0  0  0  0  0  0  0  0  0
    8.8814  -10.7525    0.0000 O   0  0  0  0  0  0  0  0  0  0  0  0
    7.4525  -10.7525    0.0000 O   0  0  0  0  0  0  0  0  0  0  0  0
    6.0236   -8.2775    0.0000 O   0  0  0  0  0  0  0  0  0  0  0  0
    6.0210   -7.4525    0.0000 C   0  0  2  0  0  0  0  0  0  0  0  0
    6.7341   -7.0378    0.0000 O   0  0  0  0  0  0  0  0  0  0  0  0
    6.7315   -6.2128    0.0000 C   0  0  1  0  0  0  0  0  0  0  0  0
    6.0158   -5.8025    0.0000 C   0  0  2  0  0  0  0  0  0  0  0  0
    5.3026   -6.2173    0.0000 C   0  0  1  0  0  0  0  0  0  0  0  0
    5.3052   -7.0422    0.0000 C   0  0  1  0  0  0  0  0  0  0  0  0
    7.4447   -5.7980    0.0000 C   0  0  0  0  0  0  0  0  0  0  0  0
    4.5869   -5.8070    0.0000 O   0  0  0  0  0  0  0  0  0  0  0  0
    4.5920   -7.4570    0.0000 O   0  0  0  0  0  0  0  0  0  0  0  0
    6.0132   -4.9775    0.0000 O   0  0  0  0  0  0  0  0  0  0  0  0
    7.4421   -4.9730    0.0000 O   0  0  0  0  0  0  0  0  0  0  0  0
    3.8763   -7.0467    0.0000 C   0  0  2  0  0  0  0  0  0  0  0  0
    3.8724   -6.2217    0.0000 O   0  0  0  0  0  0  0  0  0  0  0  0
    3.1560   -5.8126    0.0000 C   0  0  1  0  0  0  0  0  0  0  0  0
    2.4435   -6.2217    0.0000 C   0  0  2  0  0  0  0  0  0  0  0  0
    2.4435   -7.0467    0.0000 C   0  0  1  0  0  0  0  0  0  0  0  0
    3.1560   -7.4559    0.0000 C   0  0  1  0  0  0  0  0  0  0  0  0
    3.1550   -4.9876    0.0000 C   0  0  0  0  0  0  0  0  0  0  0  0
    1.7295   -7.4601    0.0000 O   0  0  0  0  0  0  0  0  0  0  0  0
    3.1540   -8.2809    0.0000 O   0  0  0  0  0  0  0  0  0  0  0  0
    1.7295   -5.8084    0.0000 O   0  0  0  0  0  0  0  0  0  0  0  0
    2.4400   -4.5760    0.0000 O   0  0  0  0  0  0  0  0  0  0  0  0
    2.4391   -3.7510    0.0000 C   0  0  0  0  0  0  0  0  0  0  0  0
    3.1531   -3.3376    0.0000 O   0  0  0  0  0  0  0  0  0  0  0  0
    1.7241   -3.3393    0.0000 C   0  0  0  0  0  0  0  0  0  0  0  0
    8.1553   -4.5583    0.0000 C   0  0  2  0  0  0  0  0  0  0  0  0
    8.8723   -4.9663    0.0000 O   0  0  0  0  0  0  0  0  0  0  0  0
    9.5842   -4.5583    0.0000 C   0  0  2  0  0  0  0  0  0  0  0  0
    9.5842   -3.7333    0.0000 C   0  0  1  0  0  0  0  0  0  0  0  0
    8.8723   -3.3253    0.0000 C   0  0  2  0  0  0  0  0  0  0  0  0
    8.1553   -3.7333    0.0000 C   0  0  1  0  0  0  0  0  0  0  0  0
   10.2980   -3.3197    0.0000 O   0  0  0  0  0  0  0  0  0  0  0  0
   10.2980   -4.9719    0.0000 C   0  0  0  0  0  0  0  0  0  0  0  0
    7.4421   -3.3186    0.0000 O   0  0  0  0  0  0  0  0  0  0  0  0
    8.8736   -2.5003    0.0000 O   0  0  0  0  0  0  0  0  0  0  0  0
   11.0132   -3.7310    0.0000 C   0  0  0  0  0  0  0  0  0  0  0  0
   11.7270   -3.3174    0.0000 C   0  0  0  0  0  0  0  0  0  0  0  0
   11.0145   -4.5560    0.0000 O   0  0  0  0  0  0  0  0  0  0  0  0
  1  2  2  0  0  0  0
  2  3  1  0  0  0  0
  3  4  2  0  0  0  0
  4  5  1  0  0  0  0
  5  6  2  0  0  0  0
  6  1  1  0  0  0  0
  4  7  1  0  0  0  0
  7  8  1  0  0  0  0
  8  9  2  0  0  0  0
  9 10  1  0  0  0  0
 10  5  1  0  0  0  0
  9 11  1  0  0  0  0
 11 12  2  0  0  0  0
 12 13  1  0  0  0  0
 13 14  2  0  0  0  0
 14 15  1  0  0  0  0
 15 16  2  0  0  0  0
 16 11  1  0  0  0  0
 14 17  1  0  0  0  0
 17 18  1  0  0  0  0
  7 19  2  0  0  0  0
  3 20  1  0  0  0  0
  1 21  1  0  0  0  0
 22 21  1  1  0  0  0
 22 23  1  0  0  0  0
 23 24  1  0  0  0  0
 24 25  1  0  0  0  0
 25 26  1  0  0  0  0
 26 27  1  0  0  0  0
 27 22  1  0  0  0  0
 24 28  1  1  0  0  0
 26 29  1  1  0  0  0
 27 30  1  6  0  0  0
 25 31  1  6  0  0  0
 28 32  1  0  0  0  0
 33 30  1  1  0  0  0
 33 34  1  0  0  0  0
 34 35  1  0  0  0  0
 35 36  1  0  0  0  0
 36 37  1  0  0  0  0
 37 38  1  0  0  0  0
 38 33  1  0  0  0  0
 35 39  1  1  0  0  0
 37 40  1  1  0  0  0
 38 41  1  6  0  0  0
 36 42  1  6  0  0  0
 39 43  1  0  0  0  0
 43 44  1  0  0  0  0
 44 45  2  0  0  0  0
 44 46  1  0  0  0  0
 47 32  1  1  0  0  0
 47 48  1  0  0  0  0
 48 49  1  0  0  0  0
 49 50  1  0  0  0  0
 50 51  1  0  0  0  0
 51 52  1  0  0  0  0
 52 47  1  0  0  0  0
 50 53  1  1  0  0  0
 49 54  1  6  0  0  0
 52 55  1  6  0  0  0
 51 56  1  6  0  0  0
 53 57  1  0  0  0  0
 57 58  1  0  0  0  0
 57 59  2  0  0  0  0
M  END
>  <cdx:fragmentId>
53

$$$$
