200246.cdx
  Mrv1902 05222410242D          

 20 22  0  0  0  0            999 V2000
    4.7173   -4.9863    0.0000 C   0  0  0  0  0  0  0  0  0  0  0  0
    4.7173   -4.1613    0.0000 C   0  0  0  0  0  0  0  0  0  0  0  0
    4.0029   -3.7480    0.0000 C   0  0  0  0  0  0  0  0  0  0  0  0
    3.2871   -4.1613    0.0000 C   0  0  0  0  0  0  0  0  0  0  0  0
    3.2871   -4.9863    0.0000 C   0  0  0  0  0  0  0  0  0  0  0  0
    4.0029   -5.3993    0.0000 C   0  0  0  0  0  0  0  0  0  0  0  0
    5.4318   -5.3980    0.0000 C   0  0  0  0  0  0  0  0  0  0  0  0
    6.1449   -4.9863    0.0000 C   0  0  1  0  0  0  0  0  0  0  0  0
    6.1449   -4.1613    0.0000 C   0  0  2  0  0  0  0  0  0  0  0  0
    5.4318   -3.7510    0.0000 O   0  0  0  0  0  0  0  0  0  0  0  0
    5.4318   -6.2230    0.0000 O   0  0  0  0  0  0  0  0  0  0  0  0
    6.8593   -5.3988    0.0000 O   0  0  0  0  0  0  0  0  0  0  0  0
    2.5726   -3.7488    0.0000 O   0  0  0  0  0  0  0  0  0  0  0  0
    6.8593   -3.7488    0.0000 C   0  0  0  0  0  0  0  0  0  0  0  0
    7.5738   -4.1613    0.0000 C   0  0  0  0  0  0  0  0  0  0  0  0
    8.2882   -3.7488    0.0000 C   0  0  0  0  0  0  0  0  0  0  0  0
    8.2882   -2.9238    0.0000 C   0  0  0  0  0  0  0  0  0  0  0  0
    7.5738   -2.5113    0.0000 C   0  0  0  0  0  0  0  0  0  0  0  0
    6.8593   -2.9238    0.0000 C   0  0  0  0  0  0  0  0  0  0  0  0
    9.0027   -2.5113    0.0000 O   0  0  0  0  0  0  0  0  0  0  0  0
  1  2  1  0  0  0  0
  2  3  2  0  0  0  0
  3  4  1  0  0  0  0
  4  5  2  0  0  0  0
  5  6  1  0  0  0  0
  1  6  2  0  0  0  0
  1  7  1  0  0  0  0
  7  8  1  0  0  0  0
  8  9  1  0  0  0  0
  9 10  1  0  0  0  0
  2 10  1  0  0  0  0
  7 11  2  0  0  0  0
  8 12  1  1  0  0  0
  9 14  1  6  0  0  0
  4 13  1  0  0  0  0
 14 15  2  0  0  0  0
 15 16  1  0  0  0  0
 16 17  2  0  0  0  0
 17 18  1  0  0  0  0
 18 19  2  0  0  0  0
 19 14  1  0  0  0  0
 17 20  1  0  0  0  0
M  END
>  <cdx:groupId>
4461

>  <cdx:fragmentId>
4462

$$$$
