200212.cdx
  Mrv1902 05222410182D          

 27 29  0  0  0  0            999 V2000
   11.0869  -12.1937    0.0000 C   0  0  0  0  0  0  0  0  0  0  0  0
   10.3724  -11.7812    0.0000 C   0  0  0  0  0  0  0  0  0  0  0  0
   11.0869  -13.0187    0.0000 O   0  0  0  0  0  0  0  0  0  0  0  0
   11.8013  -11.7812    0.0000 O   0  0  0  0  0  0  0  0  0  0  0  0
    9.6579  -12.1937    0.0000 O   0  0  0  0  0  0  0  0  0  0  0  0
    8.9435  -11.7812    0.0000 C   0  0  0  0  0  0  0  0  0  0  0  0
    8.2290  -12.1937    0.0000 C   0  0  0  0  0  0  0  0  0  0  0  0
    7.5145  -11.7812    0.0000 N   0  0  0  0  0  0  0  0  0  0  0  0
    7.5145  -10.9562    0.0000 C   0  0  0  0  0  0  0  0  0  0  0  0
    6.8000  -10.5437    0.0000 C   0  0  0  0  0  0  0  0  0  0  0  0
    6.0856  -10.9562    0.0000 N   0  0  0  0  0  0  0  0  0  0  0  0
    6.0856  -11.7812    0.0000 C   0  0  0  0  0  0  0  0  0  0  0  0
    6.8000  -12.1937    0.0000 C   0  0  0  0  0  0  0  0  0  0  0  0
    5.3711  -10.5437    0.0000 C   0  0  0  0  0  0  0  0  0  0  0  0
    5.3711   -9.7187    0.0000 C   0  0  0  0  0  0  0  0  0  0  0  0
    6.0856   -9.3062    0.0000 C   0  0  0  0  0  0  0  0  0  0  0  0
    6.0856   -8.4812    0.0000 C   0  0  0  0  0  0  0  0  0  0  0  0
    5.3711   -8.0687    0.0000 C   0  0  0  0  0  0  0  0  0  0  0  0
    4.6566   -8.4812    0.0000 C   0  0  0  0  0  0  0  0  0  0  0  0
    4.6566   -9.3062    0.0000 C   0  0  0  0  0  0  0  0  0  0  0  0
    4.6566  -10.9562    0.0000 C   0  0  0  0  0  0  0  0  0  0  0  0
    3.9422  -10.5437    0.0000 C   0  0  0  0  0  0  0  0  0  0  0  0
    3.2277  -10.9562    0.0000 C   0  0  0  0  0  0  0  0  0  0  0  0
    3.2277  -11.7812    0.0000 C   0  0  0  0  0  0  0  0  0  0  0  0
    3.9422  -12.1937    0.0000 C   0  0  0  0  0  0  0  0  0  0  0  0
    4.6566  -11.7812    0.0000 C   0  0  0  0  0  0  0  0  0  0  0  0
    2.5132  -12.1937    0.0000 Cl  0  0  0  0  0  0  0  0  0  0  0  0
  1  2  1  0  0  0  0
  1  3  2  0  0  0  0
  1  4  1  0  0  0  0
  6  7  1  0  0  0  0
  5  6  1  0  0  0  0
  8  9  1  0  0  0  0
  9 10  1  0  0  0  0
 10 11  1  0  0  0  0
 11 12  1  0  0  0  0
 12 13  1  0  0  0  0
  8 13  1  0  0  0  0
 15 16  1  0  0  0  0
 16 17  2  0  0  0  0
 17 18  1  0  0  0  0
 18 19  2  0  0  0  0
 19 20  1  0  0  0  0
 15 20  2  0  0  0  0
 14 15  1  0  0  0  0
 21 22  1  0  0  0  0
 22 23  2  0  0  0  0
 23 24  1  0  0  0  0
 24 25  2  0  0  0  0
 25 26  1  0  0  0  0
 21 26  2  0  0  0  0
 24 27  1  0  0  0  0
 14 21  1  0  0  0  0
 11 14  1  0  0  0  0
  7  8  1  0  0  0  0
  2  5  1  0  0  0  0
M  END
>  <cdx:fragmentId>
3886

$$$$
