200233.cdx
  Mrv1902 05222410262D          

 31 33  0  0  0  0            999 V2000
    8.6564   -8.9314    0.0000 C   0  0  1  0  0  0  0  0  0  0  0  0
    9.4814   -8.9324    0.0000 C   0  0  1  0  0  0  0  0  0  0  0  0
    9.8930   -9.6473    0.0000 C   0  0  2  0  0  0  0  0  0  0  0  0
    9.4797  -10.3613    0.0000 C   0  0  1  0  0  0  0  0  0  0  0  0
    8.6547  -10.3603    0.0000 C   0  0  2  0  0  0  0  0  0  0  0  0
    8.2430   -9.6453    0.0000 O   0  0  0  0  0  0  0  0  0  0  0  0
    9.8948   -8.2184    0.0000 O   0  0  0  0  0  0  0  0  0  0  0  0
   10.7180   -9.6483    0.0000 O   0  0  0  0  0  0  0  0  0  0  0  0
    9.8913  -11.0763    0.0000 O   0  0  0  0  0  0  0  0  0  0  0  0
    8.2413  -11.0743    0.0000 C   0  0  0  0  0  0  0  0  0  0  0  0
    7.4163  -11.0733    0.0000 O   0  0  0  0  0  0  0  0  0  0  0  0
    8.2448   -8.2164    0.0000 O   0  0  0  0  0  0  0  0  0  0  0  0
    7.4207   -8.2032    0.0000 C   0  0  0  0  0  0  0  0  0  0  0  0
    6.5957   -8.2032    0.0000 C   0  0  0  0  0  0  0  0  0  0  0  0
    7.4207   -7.3782    0.0000 C   0  0  2  0  0  0  0  0  0  0  0  0
    8.1352   -6.9657    0.0000 C   0  0  0  0  0  0  0  0  0  0  0  0
    8.1352   -6.1407    0.0000 C   0  0  0  0  0  0  0  0  0  0  0  0
    6.7063   -6.1407    0.0000 C   0  0  1  0  0  0  0  0  0  0  0  0
    5.9918   -5.7282    0.0000 C   0  0  0  0  0  0  0  0  0  0  0  0
    5.2773   -6.1407    0.0000 C   0  0  0  0  0  0  0  0  0  0  0  0
    5.2773   -6.9657    0.0000 C   0  0  1  0  0  0  0  0  0  0  0  0
    5.9918   -7.3782    0.0000 C   0  0  0  0  0  0  0  0  0  0  0  0
    6.7063   -6.9657    0.0000 C   0  0  2  0  0  0  0  0  0  0  0  0
    7.8332   -5.0137    0.0000 O   0  0  0  0  0  0  0  0  0  0  0  0
    6.7063   -5.3157    0.0000 H   0  0  0  0  0  0  0  0  0  0  0  0
    6.7063   -7.7907    0.0000 H   0  0  0  0  0  0  0  0  0  0  0  0
    7.0082   -5.0137    0.0000 C   0  0  0  0  0  0  0  0  0  0  0  0
    7.4207   -5.7282    0.0000 C   0  0  2  0  0  0  0  0  0  0  0  0
    4.4523   -6.9657    0.0000 C   0  0  0  0  0  0  0  0  0  0  0  0
    4.8648   -7.6802    0.0000 H   0  0  0  0  0  0  0  0  0  0  0  0
    7.4207   -9.0282    0.0000 C   0  0  0  0  0  0  0  0  0  0  0  0
 28 24  1  6  0  0  0
 28 27  1  1  0  0  0
  1  2  1  0  0  0  0
  2  3  1  0  0  0  0
  3  4  1  0  0  0  0
  4  5  1  0  0  0  0
  5  6  1  0  0  0  0
  1  6  1  0  0  0  0
  2  7  1  6  0  0  0
  3  8  1  1  0  0  0
  4  9  1  6  0  0  0
 10 11  1  0  0  0  0
  5 10  1  1  0  0  0
 13 14  1  0  0  0  0
 15 16  1  0  0  0  0
 16 17  1  0  0  0  0
 17 28  1  0  0  0  0
 28 18  1  0  0  0  0
 18 19  1  0  0  0  0
 19 20  1  0  0  0  0
 20 21  1  0  0  0  0
 21 22  1  0  0  0  0
 22 23  1  0  0  0  0
 15 23  1  0  0  0  0
 18 23  1  0  0  0  0
 15 13  1  1  0  0  0
  1 12  1  1  0  0  0
 18 25  1  1  0  0  0
 23 26  1  6  0  0  0
 21 29  1  1  0  0  0
 21 30  1  6  0  0  0
 13 31  1  0  0  0  0
 13 12  1  0  0  0  0
M  END
>  <cdx:fragmentId>
35

$$$$
