200229.cdx
  Mrv1902 05222410192D          

 19 18  0  0  0  0            999 V2000
   12.6094   -8.4734    0.0000 C   0  0  0  0  0  0  0  0  0  0  0  0
   13.3237   -8.0607    0.0000 C   0  0  0  0  0  0  0  0  0  0  0  0
   12.6096   -9.2984    0.0000 O   0  0  0  0  0  0  0  0  0  0  0  0
   11.8948   -8.0611    0.0000 O   0  0  0  0  0  0  0  0  0  0  0  0
   11.1804   -8.4738    0.0000 C   0  0  0  0  0  0  0  0  0  0  0  0
   10.4659   -8.0615    0.0000 C   0  0  0  0  0  0  0  0  0  0  0  0
    9.6409   -8.0617    0.0000 C   0  0  0  0  0  0  0  0  0  0  0  0
    8.9265   -8.4744    0.0000 C   0  0  0  0  0  0  0  0  0  0  0  0
    8.2121   -8.8870    0.0000 C   0  0  0  0  0  0  0  0  0  0  0  0
    7.4978   -9.2997    0.0000 C   0  0  0  0  0  0  0  0  0  0  0  0
    6.7834   -9.7124    0.0000 C   0  0  0  0  0  0  0  0  0  0  0  0
    6.0690  -10.1251    0.0000 C   0  0  0  0  0  0  0  0  0  0  0  0
    5.3545   -9.7128    0.0000 C   0  0  0  0  0  0  0  0  0  0  0  0
    4.6401  -10.1255    0.0000 C   0  0  0  0  0  0  0  0  0  0  0  0
    3.9255   -9.7131    0.0000 C   0  0  0  0  0  0  0  0  0  0  0  0
    3.2111  -10.1258    0.0000 C   0  0  0  0  0  0  0  0  0  0  0  0
    2.4966   -9.7135    0.0000 C   0  0  0  0  0  0  0  0  0  0  0  0
    1.7822  -10.1262    0.0000 C   0  0  0  0  0  0  0  0  0  0  0  0
    1.0676   -9.7139    0.0000 C   0  0  0  0  0  0  0  0  0  0  0  0
  1  2  1  0  0  0  0
  1  3  2  0  0  0  0
  1  4  1  0  0  0  0
  5  6  1  0  0  0  0
  6  7  2  0  0  0  0
  7  8  1  0  0  0  0
  8  9  3  0  0  0  0
  9 10  1  0  0  0  0
 10 11  3  0  0  0  0
 11 12  1  0  0  0  0
 12 13  2  0  0  0  0
 13 14  1  0  0  0  0
 14 15  2  0  0  0  0
 15 16  1  0  0  0  0
 16 17  1  0  0  0  0
 17 18  1  0  0  0  0
 18 19  1  0  0  0  0
  4  5  1  0  0  0  0
M  END
>  <cdx:fragmentId>
13

$$$$
