20020.cdx
  Mrv1902 05222410222D          

 16 18  0  0  0  0            999 V2000
    7.6160   -8.0885    0.0000 C   0  0  0  0  0  0  0  0  0  0  0  0
    8.4700   -7.7000    0.0000 C   0  0  0  0  0  0  0  0  0  0  0  0
    9.2095   -8.0885    0.0000 C   0  0  0  0  0  0  0  0  0  0  0  0
    9.6231   -7.3748    0.0000 C   0  0  0  0  0  0  0  0  0  0  0  0
    8.0297   -7.3748    0.0000 C   0  0  0  0  0  0  0  0  0  0  0  0
    8.8264   -7.1607    0.0000 C   0  0  0  0  0  0  0  0  0  0  0  0
    8.4142   -6.4470    0.0000 C   0  0  0  0  0  0  0  0  0  0  0  0
    8.0002   -8.5889    0.0000 C   0  0  0  0  0  0  0  0  0  0  0  0
    9.1287   -6.0345    0.0000 C   0  0  0  0  0  0  0  0  0  0  0  0
    7.6997   -6.0345    0.0000 C   0  0  0  0  0  0  0  0  0  0  0  0
    6.9853   -6.4470    0.0000 C   0  0  0  0  0  0  0  0  0  0  0  0
    6.2708   -6.0345    0.0000 C   0  0  0  0  0  0  0  0  0  0  0  0
    5.5563   -6.4470    0.0000 C   0  0  0  0  0  0  0  0  0  0  0  0
    4.8418   -6.0345    0.0000 C   0  0  0  0  0  0  0  0  0  0  0  0
    5.5563   -7.2720    0.0000 C   0  0  0  0  0  0  0  0  0  0  0  0
    6.9853   -7.2720    0.0000 O   0  0  0  0  0  0  0  0  0  0  0  0
  1  2  1  0  0  0  0
  2  3  1  0  0  0  0
  3  4  1  0  0  0  0
  1  5  1  0  0  0  0
  5  6  1  0  0  0  0
  4  6  1  0  0  0  0
  6  7  1  0  0  0  0
  2  7  1  0  0  0  0
  1  3  1  0  0  0  0
  2  8  1  0  0  0  0
  7  9  1  0  0  0  0
  7 10  1  0  0  0  0
 10 11  1  0  0  0  0
 11 12  1  0  0  0  0
 12 13  2  0  0  0  0
 13 14  1  0  0  0  0
 13 15  1  0  0  0  0
 11 16  2  0  0  0  0
M  END
>  <cdx:fragmentId>
800

$$$$
