200272.cdx
  Mrv1902 05222410212D          

 36 40  0  0  0  0            999 V2000
    6.4056   -6.0638    0.0000 C   0  0  0  0  0  0  0  0  0  0  0  0
    6.4056   -6.8888    0.0000 C   0  0  1  0  0  0  0  0  0  0  0  0
    7.1200   -7.3012    0.0000 C   0  0  2  0  0  0  0  0  0  0  0  0
    7.8345   -6.8888    0.0000 C   0  0  1  0  0  0  0  0  0  0  0  0
    7.8345   -6.0638    0.0000 C   0  0  0  0  0  0  0  0  0  0  0  0
    7.1200   -5.6512    0.0000 C   0  0  0  0  0  0  0  0  0  0  0  0
    8.5490   -7.3012    0.0000 C   0  0  0  0  0  0  0  0  0  0  0  0
    9.2634   -6.8888    0.0000 C   0  0  0  0  0  0  0  0  0  0  0  0
    9.2634   -6.0638    0.0000 C   0  0  2  0  0  0  0  0  0  0  0  0
    8.5490   -5.6512    0.0000 C   0  0  1  0  0  0  0  0  0  0  0  0
    5.6911   -7.3012    0.0000 C   0  0  2  0  0  0  0  0  0  0  0  0
    5.6911   -8.1263    0.0000 C   0  0  1  0  0  0  0  0  0  0  0  0
    6.4056   -8.5388    0.0000 C   0  0  0  0  0  0  0  0  0  0  0  0
    7.1200   -8.1263    0.0000 C   0  0  0  0  0  0  0  0  0  0  0  0
    9.9779   -5.6512    0.0000 C   0  0  0  0  0  0  0  0  0  0  0  0
    9.9779   -4.8263    0.0000 C   0  0  0  0  0  0  0  0  0  0  0  0
    9.2634   -4.4138    0.0000 C   0  0  0  0  0  0  0  0  0  0  0  0
    8.5490   -4.8263    0.0000 C   0  0  0  0  0  0  0  0  0  0  0  0
    4.9766   -6.8888    0.0000 C   0  0  0  0  0  0  0  0  0  0  0  0
    4.2621   -7.3012    0.0000 C   0  0  0  0  0  0  0  0  0  0  0  0
    4.2621   -8.1263    0.0000 C   0  0  1  0  0  0  0  0  0  0  0  0
    4.9766   -8.5388    0.0000 C   0  0  2  0  0  0  0  0  0  0  0  0
    4.5641   -9.2532    0.0000 C   0  0  0  0  0  0  0  0  0  0  0  0
    3.5477   -8.5388    0.0000 O   0  0  0  0  0  0  0  0  0  0  0  0
    5.6911   -6.4763    0.0000 C   0  0  0  0  0  0  0  0  0  0  0  0
    7.1200   -6.4763    0.0000 C   0  0  0  0  0  0  0  0  0  0  0  0
    9.9779   -6.4763    0.0000 C   0  0  0  0  0  0  0  0  0  0  0  0
    5.3891   -9.2532    0.0000 C   0  0  0  0  0  0  0  0  0  0  0  0
    7.8345   -7.7138    0.0000 C   0  0  0  0  0  0  0  0  0  0  0  0
    9.2634   -3.5887    0.0000 C   0  0  0  0  0  0  0  0  0  0  0  0
    4.9766   -9.9677    0.0000 O   0  0  0  0  0  0  0  0  0  0  0  0
    5.6911   -8.9513    0.0000 H   0  0  0  0  0  0  0  0  0  0  0  0
    6.4056   -7.7138    0.0000 H   0  0  0  0  0  0  0  0  0  0  0  0
    7.8345   -5.2387    0.0000 H   0  0  0  0  0  0  0  0  0  0  0  0
   10.6924   -6.0638    0.0000 O   0  0  0  0  0  0  0  0  0  0  0  0
    9.9779   -7.3012    0.0000 O   0  0  0  0  0  0  0  0  0  0  0  0
  1  2  1  0  0  0  0
  2  3  1  0  0  0  0
  3  4  1  0  0  0  0
  4  5  1  0  0  0  0
  5  6  2  0  0  0  0
  6  1  1  0  0  0  0
  4  7  1  0  0  0  0
  7  8  1  0  0  0  0
  8  9  1  0  0  0  0
  9 10  1  0  0  0  0
 10  5  1  0  0  0  0
  2 11  1  0  0  0  0
 11 12  1  0  0  0  0
 12 13  1  0  0  0  0
 13 14  1  0  0  0  0
 14  3  1  0  0  0  0
  9 15  1  0  0  0  0
 15 16  1  0  0  0  0
 16 17  1  0  0  0  0
 17 18  1  0  0  0  0
 18 10  1  0  0  0  0
 11 19  1  0  0  0  0
 19 20  1  0  0  0  0
 20 21  1  0  0  0  0
 21 22  1  0  0  0  0
 22 12  1  0  0  0  0
 22 23  1  1  0  0  0
 21 24  1  1  0  0  0
 11 25  1  1  0  0  0
  3 26  1  1  0  0  0
  9 27  1  1  0  0  0
 22 28  1  6  0  0  0
  4 29  1  6  0  0  0
 17 30  2  0  0  0  0
 28 31  1  0  0  0  0
 12 32  1  6  0  0  0
  2 33  1  6  0  0  0
 10 34  1  1  0  0  0
 27 35  1  0  0  0  0
 27 36  2  0  0  0  0
M  END
>  <cdx:fragmentId>
3554

$$$$
