200219.cdx
  Mrv1902 05222410272D          

 33 35  0  0  0  0            999 V2000
    5.1865   -8.0391    0.0000 C   0  0  0  0  0  0  0  0  0  0  0  0
    5.9020   -7.6260    0.0000 C   0  0  0  0  0  0  0  0  0  0  0  0
    5.9020   -6.8013    0.0000 C   0  0  0  0  0  0  0  0  0  0  0  0
    5.1865   -6.3882    0.0000 O   0  0  0  0  0  0  0  0  0  0  0  0
    6.6148   -6.3882    0.0000 C   0  0  0  0  0  0  0  0  0  0  0  0
    7.3318   -6.7983    0.0000 C   0  0  0  0  0  0  0  0  0  0  0  0
    8.0459   -6.3882    0.0000 C   0  0  0  0  0  0  0  0  0  0  0  0
    8.0459   -5.5621    0.0000 C   0  0  0  0  0  0  0  0  0  0  0  0
    7.3318   -5.1518    0.0000 C   0  0  0  0  0  0  0  0  0  0  0  0
    6.6148   -5.5621    0.0000 C   0  0  0  0  0  0  0  0  0  0  0  0
    4.4723   -7.6260    0.0000 C   0  0  0  0  0  0  0  0  0  0  0  0
    4.4723   -6.8013    0.0000 C   0  0  0  0  0  0  0  0  0  0  0  0
    3.7581   -6.3891    0.0000 C   0  0  0  0  0  0  0  0  0  0  0  0
    3.0440   -6.8013    0.0000 C   0  0  0  0  0  0  0  0  0  0  0  0
    3.0440   -7.6260    0.0000 C   0  0  0  0  0  0  0  0  0  0  0  0
    3.7581   -8.0382    0.0000 C   0  0  0  0  0  0  0  0  0  0  0  0
    2.3295   -6.3888    0.0000 O   0  0  0  0  0  0  0  0  0  0  0  0
    8.7604   -5.1496    0.0000 O   0  0  0  0  0  0  0  0  0  0  0  0
    5.1865   -8.8641    0.0000 O   0  0  0  0  0  0  0  0  0  0  0  0
   10.2030   -6.7886    0.0000 C   0  0  2  0  0  0  0  0  0  0  0  0
   10.9136   -6.3695    0.0000 C   0  0  2  0  0  0  0  0  0  0  0  0
   10.9059   -5.5448    0.0000 C   0  0  1  0  0  0  0  0  0  0  0  0
   10.1879   -5.1389    0.0000 C   0  0  2  0  0  0  0  0  0  0  0  0
    9.4770   -5.5577    0.0000 C   0  0  1  0  0  0  0  0  0  0  0  0
    9.4847   -6.3827    0.0000 O   0  0  0  0  0  0  0  0  0  0  0  0
   10.2105   -7.6136    0.0000 C   0  0  0  0  0  0  0  0  0  0  0  0
   11.6168   -5.1257    0.0000 O   0  0  0  0  0  0  0  0  0  0  0  0
   11.6319   -6.7754    0.0000 O   0  0  0  0  0  0  0  0  0  0  0  0
   10.1802   -4.3139    0.0000 O   0  0  0  0  0  0  0  0  0  0  0  0
   10.9288   -8.0195    0.0000 O   0  0  0  0  0  0  0  0  0  0  0  0
   10.9365   -8.8445    0.0000 C   0  0  0  0  0  0  0  0  0  0  0  0
   11.6548   -9.2504    0.0000 C   0  0  0  0  0  0  0  0  0  0  0  0
   10.2259   -9.2636    0.0000 O   0  0  0  0  0  0  0  0  0  0  0  0
 11  1  1  0  0  0  0
  1  2  1  0  0  0  0
  2  3  2  0  0  0  0
 12  4  1  0  0  0  0
  3  5  1  0  0  0  0
  5  6  1  0  0  0  0
  6  7  2  0  0  0  0
  7  8  1  0  0  0  0
  8  9  2  0  0  0  0
  9 10  1  0  0  0  0
  5 10  2  0  0  0  0
 11 12  1  0  0  0  0
 12 13  2  0  0  0  0
 13 14  1  0  0  0  0
 14 15  2  0  0  0  0
 15 16  1  0  0  0  0
 16 11  2  0  0  0  0
 14 17  1  0  0  0  0
  8 18  1  0  0  0  0
  1 19  2  0  0  0  0
 20 21  1  0  0  0  0
 21 22  1  0  0  0  0
 22 23  1  0  0  0  0
 23 24  1  0  0  0  0
 24 25  1  0  0  0  0
 25 20  1  0  0  0  0
 20 26  1  1  0  0  0
 22 27  1  1  0  0  0
 21 28  1  6  0  0  0
 23 29  1  6  0  0  0
 26 30  1  0  0  0  0
 30 31  1  0  0  0  0
 31 32  1  0  0  0  0
 31 33  2  0  0  0  0
 24 18  1  1  0  0  0
M  END
>  <cdx:groupId>
3067

>  <cdx:fragmentId>
3068

$$$$
