200262.cdx
  Mrv1902 05222410222D          

 32 35  0  0  0  0            999 V2000
    8.2507   -4.5948    0.0000 C   0  0  0  0  0  0  0  0  0  0  0  0
    7.4633   -4.8410    0.0000 C   0  0  0  0  0  0  0  0  0  0  0  0
    9.5304   -7.3047    0.0000 H   0  0  0  0  0  0  0  0  0  0  0  0
    9.1697   -7.5333    0.0000 H   0  0  0  0  0  0  0  0  0  0  0  0
    6.7032   -6.8925    0.0000 H   0  0  0  0  0  0  0  0  0  0  0  0
    7.7732   -7.9694    0.0000 O   0  0  0  0  0  0  0  0  0  0  0  0
    6.7395   -9.3194    0.0000 O   0  0  0  0  0  0  0  0  0  0  0  0
    9.7066   -9.3842    0.0000 O   0  0  0  0  0  0  0  0  0  0  0  0
    8.8874   -9.4825    0.0000 C   0  0  0  0  0  0  0  0  0  0  0  0
    4.8238   -8.1101    0.0000 C   0  0  0  0  0  0  0  0  0  0  0  0
   10.0410   -5.5320    0.0000 C   0  0  0  0  0  0  0  0  0  0  0  0
   10.2873   -6.3194    0.0000 C   0  0  0  0  0  0  0  0  0  0  0  0
    6.5084   -6.2047    0.0000 C   0  0  0  0  0  0  0  0  0  0  0  0
    5.8844   -9.5580    0.0000 O   0  0  0  0  0  0  0  0  0  0  0  0
    7.3134   -6.3851    0.0000 C   0  0  2  0  0  0  0  0  0  0  0  0
    7.8722   -5.7781    0.0000 C   0  0  0  0  0  0  0  0  0  0  0  0
    8.6772   -5.9585    0.0000 C   0  0  1  0  0  0  0  0  0  0  0  0
    9.4823   -6.1390    0.0000 C   0  0  0  0  0  0  0  0  0  0  0  0
    8.9235   -6.7459    0.0000 C   0  0  1  0  0  0  0  0  0  0  0  0
    8.3647   -7.3529    0.0000 C   0  0  2  0  0  0  0  0  0  0  0  0
    8.7256   -8.0948    0.0000 C   0  0  0  0  0  0  0  0  0  0  0  0
    8.3705   -8.8395    0.0000 C   0  0  0  0  0  0  0  0  0  0  0  0
    7.5669   -9.0262    0.0000 C   0  0  0  0  0  0  0  0  0  0  0  0
    6.9199   -8.5144    0.0000 C   0  0  1  0  0  0  0  0  0  0  0  0
    6.1363   -8.7724    0.0000 C   0  0  0  0  0  0  0  0  0  0  0  0
    5.6488   -8.1068    0.0000 C   0  0  0  0  0  0  0  0  0  0  0  0
    6.1311   -7.4375    0.0000 C   0  0  0  0  0  0  0  0  0  0  0  0
    6.9167   -7.6894    0.0000 C   0  0  1  0  0  0  0  0  0  0  0  0
    7.5597   -7.1725    0.0000 C   0  0  2  0  0  0  0  0  0  0  0  0
    8.8577   -5.1535    0.0000 O   0  0  0  0  0  0  0  0  0  0  0  0
    8.4311   -3.7897    0.0000 O   0  0  0  0  0  0  0  0  0  0  0  0
    8.5759  -10.2464    0.0000 O   0  0  0  0  0  0  0  0  0  0  0  0
 19  3  1  6  0  0  0
 20  4  1  1  0  0  0
 28  5  1  6  0  0  0
 17 30  1  6  0  0  0
 29  6  1  6  0  0  0
 24  7  1  1  0  0  0
 22  9  1  0  0  0  0
  9  8  1  0  0  0  0
 26 10  1  0  0  0  0
 18 11  1  0  0  0  0
 18 12  1  0  0  0  0
 15 13  1  6  0  0  0
 25 14  2  0  0  0  0
 28 24  1  0  0  0  0
 19 17  1  0  0  0  0
 29 20  1  0  0  0  0
 29 15  1  0  0  0  0
 16 15  1  0  0  0  0
 17 16  1  0  0  0  0
 18 17  1  0  0  0  0
 19 18  1  0  0  0  0
 20 19  1  0  0  0  0
 21 20  1  0  0  0  0
 22 21  2  0  0  0  0
 23 22  1  0  0  0  0
 24 23  1  0  0  0  0
 25 24  1  0  0  0  0
 26 25  1  0  0  0  0
 27 26  2  0  0  0  0
 28 27  1  0  0  0  0
 29 28  1  0  0  0  0
  1 30  1  0  0  0  0
  1  2  1  0  0  0  0
  1 31  2  0  0  0  0
  9 32  2  0  0  0  0
M  END
>  <cdx:groupId>
71754

>  <cdx:fragmentId>
71669

$$$$
