200217.cdx
  Mrv1902 05222410202D          

 42 45  0  0  0  0            999 V2000
    4.0692   -7.2880    0.0000 C   0  0  0  0  0  0  0  0  0  0  0  0
    4.7847   -6.8750    0.0000 C   0  0  0  0  0  0  0  0  0  0  0  0
    4.7847   -6.0503    0.0000 C   0  0  0  0  0  0  0  0  0  0  0  0
    4.0692   -5.6372    0.0000 O   0  0  0  0  0  0  0  0  0  0  0  0
    5.4975   -5.6372    0.0000 C   0  0  0  0  0  0  0  0  0  0  0  0
    6.2144   -6.0472    0.0000 C   0  0  0  0  0  0  0  0  0  0  0  0
    6.9286   -5.6372    0.0000 C   0  0  0  0  0  0  0  0  0  0  0  0
    6.9286   -4.8111    0.0000 C   0  0  0  0  0  0  0  0  0  0  0  0
    6.2144   -4.4008    0.0000 C   0  0  0  0  0  0  0  0  0  0  0  0
    5.4975   -4.8111    0.0000 C   0  0  0  0  0  0  0  0  0  0  0  0
    3.3550   -6.8750    0.0000 C   0  0  0  0  0  0  0  0  0  0  0  0
    3.3550   -6.0503    0.0000 C   0  0  0  0  0  0  0  0  0  0  0  0
    2.6408   -5.6380    0.0000 C   0  0  0  0  0  0  0  0  0  0  0  0
    1.9266   -6.0503    0.0000 C   0  0  0  0  0  0  0  0  0  0  0  0
    1.9266   -6.8750    0.0000 C   0  0  0  0  0  0  0  0  0  0  0  0
    2.6408   -7.2872    0.0000 C   0  0  0  0  0  0  0  0  0  0  0  0
    1.2122   -5.6378    0.0000 O   0  0  0  0  0  0  0  0  0  0  0  0
    7.6431   -4.3986    0.0000 O   0  0  0  0  0  0  0  0  0  0  0  0
    4.0692   -8.1130    0.0000 O   0  0  0  0  0  0  0  0  0  0  0  0
    9.0901   -6.0357    0.0000 C   0  0  2  0  0  0  0  0  0  0  0  0
    9.8007   -5.6166    0.0000 C   0  0  2  0  0  0  0  0  0  0  0  0
    9.7930   -4.7919    0.0000 C   0  0  1  0  0  0  0  0  0  0  0  0
    9.0750   -4.3860    0.0000 C   0  0  2  0  0  0  0  0  0  0  0  0
    8.3641   -4.8048    0.0000 C   0  0  1  0  0  0  0  0  0  0  0  0
    8.3718   -5.6298    0.0000 O   0  0  0  0  0  0  0  0  0  0  0  0
    9.0975   -6.8607    0.0000 C   0  0  0  0  0  0  0  0  0  0  0  0
   10.5039   -4.3728    0.0000 O   0  0  0  0  0  0  0  0  0  0  0  0
   10.5190   -6.0225    0.0000 O   0  0  0  0  0  0  0  0  0  0  0  0
    9.0673   -3.5610    0.0000 O   0  0  0  0  0  0  0  0  0  0  0  0
    9.8158   -7.2666    0.0000 O   0  0  0  0  0  0  0  0  0  0  0  0
    9.7779   -3.1419    0.0000 C   0  0  1  0  0  0  0  0  0  0  0  0
   10.5347   -3.4705    0.0000 C   0  0  1  0  0  0  0  0  0  0  0  0
   11.0811   -2.8523    0.0000 C   0  0  2  0  0  0  0  0  0  0  0  0
   10.6620   -2.1417    0.0000 C   0  0  0  0  0  0  0  0  0  0  0  0
    9.8565   -2.3204    0.0000 O   0  0  0  0  0  0  0  0  0  0  0  0
   11.6696   -3.4303    0.0000 C   0  0  0  0  0  0  0  0  0  0  0  0
   11.1235   -4.0483    0.0000 O   0  0  0  0  0  0  0  0  0  0  0  0
   11.7917   -2.4332    0.0000 O   0  0  0  0  0  0  0  0  0  0  0  0
   12.4646   -3.2095    0.0000 O   0  0  0  0  0  0  0  0  0  0  0  0
    9.8235   -8.0916    0.0000 C   0  0  0  0  0  0  0  0  0  0  0  0
   10.5418   -8.4975    0.0000 C   0  0  0  0  0  0  0  0  0  0  0  0
    9.1129   -8.5107    0.0000 O   0  0  0  0  0  0  0  0  0  0  0  0
 11  1  1  0  0  0  0
  1  2  1  0  0  0  0
  2  3  2  0  0  0  0
 12  4  1  0  0  0  0
  3  5  1  0  0  0  0
  5  6  1  0  0  0  0
  6  7  2  0  0  0  0
  7  8  1  0  0  0  0
  8  9  2  0  0  0  0
  9 10  1  0  0  0  0
  5 10  2  0  0  0  0
 11 12  1  0  0  0  0
 12 13  2  0  0  0  0
 13 14  1  0  0  0  0
 14 15  2  0  0  0  0
 15 16  1  0  0  0  0
 16 11  2  0  0  0  0
 14 17  1  0  0  0  0
  8 18  1  0  0  0  0
  1 19  2  0  0  0  0
 20 21  1  0  0  0  0
 21 22  1  0  0  0  0
 22 23  1  0  0  0  0
 23 24  1  0  0  0  0
 24 25  1  0  0  0  0
 25 20  1  0  0  0  0
 20 26  1  1  0  0  0
 22 27  1  1  0  0  0
 21 28  1  6  0  0  0
 23 29  1  6  0  0  0
 26 30  1  0  0  0  0
 31 29  1  6  0  0  0
 31 32  1  0  0  0  0
 32 33  1  0  0  0  0
 33 34  1  0  0  0  0
 34 35  1  0  0  0  0
 35 31  1  0  0  0  0
 33 36  1  6  0  0  0
 32 37  1  1  0  0  0
 33 38  1  1  0  0  0
 36 39  1  0  0  0  0
 24 18  1  1  0  0  0
 30 40  1  0  0  0  0
 40 41  1  0  0  0  0
 40 42  2  0  0  0  0
M  END
>  <cdx:fragmentId>
3937

$$$$
