200284.cdx
  Mrv1902 05222410242D          

 26 27  0  0  0  0            999 V2000
    7.5600   -5.0325    0.0000 C   0  0  2  0  0  0  0  0  0  0  0  0
    7.7735   -4.2359    0.0000 C   0  0  1  0  0  0  0  0  0  0  0  0
    7.2849   -3.5711    0.0000 C   0  0  0  0  0  0  0  0  0  0  0  0
    5.9227   -4.1624    0.0000 C   0  0  0  0  0  0  0  0  0  0  0  0
    6.0766   -4.9729    0.0000 C   0  0  0  0  0  0  0  0  0  0  0  0
    6.8056   -5.3598    0.0000 C   0  0  1  0  0  0  0  0  0  0  0  0
    5.1042   -4.0592    0.0000 C   0  0  0  0  0  0  0  0  0  0  0  0
    4.7520   -4.8050    0.0000 C   0  0  2  0  0  0  0  0  0  0  0  0
    5.3532   -5.3704    0.0000 C   0  0  0  0  0  0  0  0  0  0  0  0
    8.1434   -5.6159    0.0000 C   0  0  0  0  0  0  0  0  0  0  0  0
    8.5985   -4.2359    0.0000 O   0  0  0  0  0  0  0  0  0  0  0  0
    9.0110   -3.5215    0.0000 C   0  0  0  0  0  0  0  0  0  0  0  0
    9.8342   -3.5215    0.0000 C   0  0  0  0  0  0  0  0  0  0  0  0
   10.2459   -2.8058    0.0000 C   0  0  0  0  0  0  0  0  0  0  0  0
    8.5977   -2.8084    0.0000 O   0  0  0  0  0  0  0  0  0  0  0  0
   10.2481   -4.2358    0.0000 C   0  0  0  0  0  0  0  0  0  0  0  0
   11.0731   -4.2358    0.0000 C   0  0  0  0  0  0  0  0  0  0  0  0
   11.4867   -4.9497    0.0000 O   0  0  0  0  0  0  0  0  0  0  0  0
    6.8838   -6.1784    0.0000 O   0  0  0  0  0  0  0  0  0  0  0  0
    7.6865   -6.3571    0.0000 C   0  0  0  0  0  0  0  0  0  0  0  0
    7.9000   -7.1540    0.0000 O   0  0  0  0  0  0  0  0  0  0  0  0
    8.9403   -5.8294    0.0000 C   0  0  0  0  0  0  0  0  0  0  0  0
    5.1397   -6.1672    0.0000 C   0  0  0  0  0  0  0  0  0  0  0  0
    3.9270   -4.8050    0.0000 O   0  0  0  0  0  0  0  0  0  0  0  0
    6.4609   -3.5388    0.0000 C   0  0  0  0  0  0  0  0  0  0  0  0
    6.2474   -2.7419    0.0000 C   0  0  0  0  0  0  0  0  0  0  0  0
  1  2  1  0  0  0  0
  2  3  1  0  0  0  0
  3 25  1  0  0  0  0
 25  4  2  0  0  0  0
  5  6  1  0  0  0  0
  1  6  1  0  0  0  0
  4  7  1  0  0  0  0
  7  8  1  0  0  0  0
  8  9  1  0  0  0  0
  5  9  2  0  0  0  0
  1 10  1  1  0  0  0
  2 11  1  1  0  0  0
 11 12  1  0  0  0  0
 12 13  1  0  0  0  0
 13 14  1  0  0  0  0
 12 15  2  0  0  0  0
 13 16  2  0  0  0  0
 16 17  1  0  0  0  0
 17 18  1  0  0  0  0
  6 19  1  6  0  0  0
 19 20  1  0  0  0  0
 20 10  1  0  0  0  0
 20 21  2  0  0  0  0
 10 22  2  0  0  0  0
  9 23  1  0  0  0  0
  8 24  1  6  0  0  0
 25 26  1  0  0  0  0
M  END
>  <cdx:groupId>
3968

>  <cdx:fragmentId>
3969

$$$$
