20028.cdx
  Mrv1902 05222410262D          

 10 10  0  0  0  0            999 V2000
    6.2131   -8.1056    0.0000 C   0  0  0  0  0  0  0  0  0  0  0  0
    6.2131   -8.9306    0.0000 C   0  0  0  0  0  0  0  0  0  0  0  0
    6.9275   -9.3431    0.0000 C   0  0  0  0  0  0  0  0  0  0  0  0
    7.6420   -8.9306    0.0000 C   0  0  0  0  0  0  0  0  0  0  0  0
    7.6420   -8.1056    0.0000 C   0  0  0  0  0  0  0  0  0  0  0  0
    6.9275   -7.6931    0.0000 C   0  0  0  0  0  0  0  0  0  0  0  0
    5.4986   -7.6931    0.0000 O   0  0  0  0  0  0  0  0  0  0  0  0
    6.9275   -6.8681    0.0000 C   0  0  0  0  0  0  0  0  0  0  0  0
    7.6420   -6.4556    0.0000 C   0  0  0  0  0  0  0  0  0  0  0  0
    7.6420   -5.6306    0.0000 C   0  0  0  0  0  0  0  0  0  0  0  0
  1  2  2  0  0  0  0
  2  3  1  0  0  0  0
  3  4  2  0  0  0  0
  4  5  1  0  0  0  0
  5  6  2  0  0  0  0
  6  1  1  0  0  0  0
  1  7  1  0  0  0  0
  6  8  1  0  0  0  0
  8  9  1  0  0  0  0
  9 10  1  0  0  0  0
M  END
>  <cdx:fragmentId>
5

$$$$
