200202.cdx
  Mrv1902 05222410202D          

 16 17  0  0  0  0            999 V2000
    4.6698   -3.3413    0.0000 C   0  0  0  0  0  0  0  0  0  0  0  0
    4.6698   -4.1662    0.0000 C   0  0  0  0  0  0  0  0  0  0  0  0
    5.3842   -4.5796    0.0000 C   0  0  2  0  0  0  0  0  0  0  0  0
    6.1003   -4.1662    0.0000 N   0  0  0  0  0  0  0  0  0  0  0  0
    6.1003   -3.3413    0.0000 C   0  0  0  0  0  0  0  0  0  0  0  0
    5.3842   -2.9279    0.0000 C   0  0  0  0  0  0  0  0  0  0  0  0
    3.9556   -2.9296    0.0000 C   0  0  0  0  0  0  0  0  0  0  0  0
    3.2425   -3.3413    0.0000 C   0  0  0  0  0  0  0  0  0  0  0  0
    3.2425   -4.1662    0.0000 C   0  0  0  0  0  0  0  0  0  0  0  0
    3.9556   -4.5765    0.0000 C   0  0  0  0  0  0  0  0  0  0  0  0
    2.5281   -2.9288    0.0000 O   0  0  0  0  0  0  0  0  0  0  0  0
    2.5281   -4.5788    0.0000 O   0  0  0  0  0  0  0  0  0  0  0  0
    5.3842   -5.4046    0.0000 C   0  0  0  0  0  0  0  0  0  0  0  0
    6.0987   -5.8171    0.0000 C   0  0  0  0  0  0  0  0  0  0  0  0
    6.1003   -6.6426    0.0000 C   0  0  0  0  0  0  0  0  0  0  0  0
    6.8134   -5.4062    0.0000 C   0  0  0  0  0  0  0  0  0  0  0  0
  1  2  1  0  0  0  0
  2  3  1  0  0  0  0
  3  4  1  0  0  0  0
  4  5  1  0  0  0  0
  5  6  1  0  0  0  0
  1  6  1  0  0  0  0
  1  7  2  0  0  0  0
  7  8  1  0  0  0  0
  8  9  2  0  0  0  0
  9 10  1  0  0  0  0
  2 10  2  0  0  0  0
  8 11  1  0  0  0  0
  9 12  1  0  0  0  0
  3 13  1  6  0  0  0
 13 14  1  0  0  0  0
 14 15  1  0  0  0  0
 14 16  1  0  0  0  0
M  END
>  <cdx:groupId>
3095

>  <cdx:fragmentId>
3096

$$$$
