200216.cdx
  Mrv1902 05222410202D          

 41 44  0  0  0  0            999 V2000
    7.0545   -7.1552    0.0000 C   0  0  0  0  0  0  0  0  0  0  0  0
    7.7701   -6.7421    0.0000 C   0  0  0  0  0  0  0  0  0  0  0  0
    7.7701   -5.9174    0.0000 C   0  0  0  0  0  0  0  0  0  0  0  0
    7.0545   -5.5044    0.0000 O   0  0  0  0  0  0  0  0  0  0  0  0
    8.4829   -5.5044    0.0000 C   0  0  0  0  0  0  0  0  0  0  0  0
    9.1998   -5.9144    0.0000 C   0  0  0  0  0  0  0  0  0  0  0  0
    9.9140   -5.5044    0.0000 C   0  0  0  0  0  0  0  0  0  0  0  0
    9.9140   -4.6783    0.0000 C   0  0  0  0  0  0  0  0  0  0  0  0
    9.1998   -4.2680    0.0000 C   0  0  0  0  0  0  0  0  0  0  0  0
    8.4829   -4.6783    0.0000 C   0  0  0  0  0  0  0  0  0  0  0  0
    6.3403   -6.7421    0.0000 C   0  0  0  0  0  0  0  0  0  0  0  0
    6.3403   -5.9174    0.0000 C   0  0  0  0  0  0  0  0  0  0  0  0
    5.6262   -5.5052    0.0000 C   0  0  0  0  0  0  0  0  0  0  0  0
    4.9120   -5.9174    0.0000 C   0  0  0  0  0  0  0  0  0  0  0  0
    4.9120   -6.7421    0.0000 C   0  0  0  0  0  0  0  0  0  0  0  0
    5.6262   -7.1544    0.0000 C   0  0  0  0  0  0  0  0  0  0  0  0
    4.1975   -5.5049    0.0000 O   0  0  0  0  0  0  0  0  0  0  0  0
   10.6284   -4.2658    0.0000 O   0  0  0  0  0  0  0  0  0  0  0  0
    7.0545   -7.9802    0.0000 O   0  0  0  0  0  0  0  0  0  0  0  0
    2.0603   -5.9153    0.0000 C   0  0  2  0  0  0  0  0  0  0  0  0
    2.0603   -6.7403    0.0000 C   0  0  2  0  0  0  0  0  0  0  0  0
    2.7747   -7.1528    0.0000 C   0  0  1  0  0  0  0  0  0  0  0  0
    3.4892   -6.7403    0.0000 C   0  0  2  0  0  0  0  0  0  0  0  0
    3.4892   -5.9153    0.0000 C   0  0  1  0  0  0  0  0  0  0  0  0
    2.7747   -5.5028    0.0000 O   0  0  0  0  0  0  0  0  0  0  0  0
    1.3458   -5.5028    0.0000 C   0  0  0  0  0  0  0  0  0  0  0  0
    2.7747   -7.9778    0.0000 O   0  0  0  0  0  0  0  0  0  0  0  0
    4.2037   -7.1528    0.0000 O   0  0  0  0  0  0  0  0  0  0  0  0
    1.3458   -7.1528    0.0000 O   0  0  0  0  0  0  0  0  0  0  0  0
    0.6313   -5.9153    0.0000 O   0  0  0  0  0  0  0  0  0  0  0  0
   12.0631   -5.9191    0.0000 C   0  0  2  0  0  0  0  0  0  0  0  0
   12.7775   -5.5066    0.0000 C   0  0  2  0  0  0  0  0  0  0  0  0
   12.7775   -4.6816    0.0000 C   0  0  1  0  0  0  0  0  0  0  0  0
   12.0630   -4.2691    0.0000 C   0  0  2  0  0  0  0  0  0  0  0  0
   11.3485   -4.6817    0.0000 C   0  0  1  0  0  0  0  0  0  0  0  0
   11.3486   -5.5067    0.0000 O   0  0  0  0  0  0  0  0  0  0  0  0
   12.0632   -6.7441    0.0000 C   0  0  0  0  0  0  0  0  0  0  0  0
   13.4919   -4.2690    0.0000 O   0  0  0  0  0  0  0  0  0  0  0  0
   12.0629   -3.4441    0.0000 O   0  0  0  0  0  0  0  0  0  0  0  0
   13.4921   -5.9190    0.0000 O   0  0  0  0  0  0  0  0  0  0  0  0
   12.7777   -7.1566    0.0000 O   0  0  0  0  0  0  0  0  0  0  0  0
 11  1  1  0  0  0  0
  1  2  1  0  0  0  0
  2  3  2  0  0  0  0
 12  4  1  0  0  0  0
  3  5  1  0  0  0  0
  5  6  1  0  0  0  0
  6  7  2  0  0  0  0
  7  8  1  0  0  0  0
  8  9  2  0  0  0  0
  9 10  1  0  0  0  0
  5 10  2  0  0  0  0
 11 12  1  0  0  0  0
 12 13  2  0  0  0  0
 13 14  1  0  0  0  0
 14 15  2  0  0  0  0
 15 16  1  0  0  0  0
 16 11  2  0  0  0  0
 14 17  1  0  0  0  0
  8 18  1  0  0  0  0
  1 19  2  0  0  0  0
 20 21  1  0  0  0  0
 21 22  1  0  0  0  0
 22 23  1  0  0  0  0
 23 24  1  0  0  0  0
 24 25  1  0  0  0  0
 25 20  1  0  0  0  0
 20 26  1  1  0  0  0
 22 27  1  1  0  0  0
 23 28  1  6  0  0  0
 21 29  1  6  0  0  0
 26 30  1  0  0  0  0
 31 32  1  0  0  0  0
 32 33  1  0  0  0  0
 33 34  1  0  0  0  0
 34 35  1  0  0  0  0
 35 36  1  0  0  0  0
 36 31  1  0  0  0  0
 31 37  1  1  0  0  0
 33 38  1  1  0  0  0
 34 39  1  6  0  0  0
 32 40  1  6  0  0  0
 37 41  1  0  0  0  0
 24 17  1  1  0  0  0
 35 18  1  1  0  0  0
M  END
>  <cdx:fragmentId>
3068

$$$$
