200237.cdx
  Mrv1902 05222410282D          

 20 21  0  0  0  0            999 V2000
    7.8643   -7.2044    0.0000 H   0  0  0  0  0  0  0  0  0  0  0  0
    9.4362   -7.7882    0.0000 C   0  0  0  0  0  0  0  0  0  0  0  0
    8.2078   -6.6905    0.0000 C   0  0  0  0  0  0  0  0  0  0  0  0
    6.6802   -9.8864    0.0000 H   0  0  0  0  0  0  0  0  0  0  0  0
    9.4598   -8.6621    0.0000 O   0  0  0  0  0  0  0  0  0  0  0  0
    9.3056   -6.6288    0.0000 O   0  0  0  0  0  0  0  0  0  0  0  0
    8.7912   -7.2738    0.0000 C   0  0  0  0  0  0  0  0  0  0  0  0
    5.7879   -7.2101    0.0000 C   0  0  0  0  0  0  0  0  0  0  0  0
    7.2889  -10.3933    0.0000 C   0  0  0  0  0  0  0  0  0  0  0  0
    4.7329   -8.6621    0.0000 O   0  0  0  0  0  0  0  0  0  0  0  0
    6.8275   -9.0746    0.0000 C   0  0  2  0  0  0  0  0  0  0  0  0
    7.4725   -9.5890    0.0000 C   0  0  2  0  0  0  0  0  0  0  0  0
    8.2768   -9.4054    0.0000 C   0  0  0  0  0  0  0  0  0  0  0  0
    8.6348   -8.6621    0.0000 C   0  0  2  0  0  0  0  0  0  0  0  0
    8.2768   -7.9188    0.0000 C   0  0  2  0  0  0  0  0  0  0  0  0
    7.4725   -7.7352    0.0000 C   0  0  0  0  0  0  0  0  0  0  0  0
    6.8275   -8.2496    0.0000 C   0  0  0  0  0  0  0  0  0  0  0  0
    6.0429   -7.9947    0.0000 C   0  0  0  0  0  0  0  0  0  0  0  0
    5.5579   -8.6621    0.0000 C   0  0  0  0  0  0  0  0  0  0  0  0
    6.0429   -9.3296    0.0000 C   0  0  0  0  0  0  0  0  0  0  0  0
 15  1  1  1  0  0  0
  7  2  1  0  0  0  0
  7  3  1  0  0  0  0
 11  4  1  6  0  0  0
 14  5  1  6  0  0  0
 15  7  1  0  0  0  0
  7  6  1  0  0  0  0
 18  8  1  0  0  0  0
 12  9  1  6  0  0  0
 19 10  2  0  0  0  0
 17 11  1  0  0  0  0
 20 11  1  0  0  0  0
 12 11  1  0  0  0  0
 13 12  1  0  0  0  0
 14 13  1  0  0  0  0
 15 14  1  0  0  0  0
 16 15  1  0  0  0  0
 17 16  1  0  0  0  0
 18 17  2  0  0  0  0
 19 18  1  0  0  0  0
 20 19  1  0  0  0  0
M  END
>  <cdx:fragmentId>
5

$$$$
