200240.cdx
  Mrv1902 05222410252D          

 16 16  0  0  0  0            999 V2000
    4.9274   -7.9750    0.0000 C   0  0  0  0  0  0  0  0  0  0  0  0
    4.9274   -8.8000    0.0000 C   0  0  0  0  0  0  0  0  0  0  0  0
    5.6419   -9.2125    0.0000 C   0  0  0  0  0  0  0  0  0  0  0  0
    6.3564   -8.8000    0.0000 C   0  0  0  0  0  0  0  0  0  0  0  0
    6.3564   -7.9750    0.0000 C   0  0  0  0  0  0  0  0  0  0  0  0
    5.6419   -7.5625    0.0000 C   0  0  2  0  0  0  0  0  0  0  0  0
    7.0708   -9.2125    0.0000 C   0  0  0  0  0  0  0  0  0  0  0  0
    7.7853   -8.8000    0.0000 C   0  0  1  0  0  0  0  0  0  0  0  0
    7.7853   -7.9750    0.0000 C   0  0  0  0  0  0  0  0  0  0  0  0
    7.0708   -7.5625    0.0000 C   0  0  0  0  0  0  0  0  0  0  0  0
    5.6419  -10.0375    0.0000 C   0  0  0  0  0  0  0  0  0  0  0  0
    6.3564   -7.1500    0.0000 C   0  0  0  0  0  0  0  0  0  0  0  0
    8.4998   -9.2125    0.0000 C   0  0  0  0  0  0  0  0  0  0  0  0
    9.2143   -8.8000    0.0000 C   0  0  0  0  0  0  0  0  0  0  0  0
    8.4998  -10.0375    0.0000 C   0  0  0  0  0  0  0  0  0  0  0  0
    5.6419   -6.7375    0.0000 O   0  0  0  0  0  0  0  0  0  0  0  0
  1  2  1  0  0  0  0
  2  3  1  0  0  0  0
  3  4  1  0  0  0  0
  5  6  1  0  0  0  0
  6  1  1  0  0  0  0
  4  7  2  0  0  0  0
  7  8  1  0  0  0  0
  8  9  1  0  0  0  0
  9 10  1  0  0  0  0
 10  5  1  0  0  0  0
  3 11  2  0  0  0  0
  5 12  2  0  0  0  0
  8 13  1  1  0  0  0
 13 14  1  0  0  0  0
 13 15  1  0  0  0  0
  6 16  1  1  0  0  0
M  END
>  <cdx:fragmentId>
5

$$$$
