200244.cdx
  Mrv1902 05222410232D          

 13 13  0  0  0  0            999 V2000
    6.1308   -5.0416    0.0000 C   0  0  0  0  0  0  0  0  0  0  0  0
    6.1308   -5.8666    0.0000 C   0  0  0  0  0  0  0  0  0  0  0  0
    6.8453   -6.2791    0.0000 C   0  0  0  0  0  0  0  0  0  0  0  0
    7.5597   -5.8666    0.0000 C   0  0  0  0  0  0  0  0  0  0  0  0
    7.5597   -5.0416    0.0000 C   0  0  0  0  0  0  0  0  0  0  0  0
    6.8453   -4.6291    0.0000 C   0  0  0  0  0  0  0  0  0  0  0  0
    6.1297   -3.3924    0.0000 O   0  0  0  0  0  0  0  0  0  0  0  0
    6.8453   -7.1041    0.0000 O   0  0  0  0  0  0  0  0  0  0  0  0
    8.3567   -6.0802    0.0000 O   0  0  0  0  0  0  0  0  0  0  0  0
    6.8453   -3.8041    0.0000 C   0  0  0  0  0  0  0  0  0  0  0  0
    7.5597   -3.3916    0.0000 C   0  0  0  0  0  0  0  0  0  0  0  0
    8.2756   -3.8019    0.0000 O   0  0  0  0  0  0  0  0  0  0  0  0
    7.5586   -2.5660    0.0000 O   0  0  0  0  0  0  0  0  0  0  0  0
  6  1  2  0  0  0  0
  1  2  1  0  0  0  0
  2  3  2  0  0  0  0
  3  4  1  0  0  0  0
  4  5  2  0  0  0  0
  5  6  1  0  0  0  0
  6 10  1  0  0  0  0
 10  7  1  0  0  0  0
  3  8  1  0  0  0  0
  4  9  1  0  0  0  0
 10 11  1  0  0  0  0
 11 12  1  0  0  0  0
 11 13  2  0  0  0  0
M  END
>  <cdx:fragmentId>
3285

$$$$
