200227.cdx
  Mrv1902 05222410262D          

 19 18  0  0  0  0            999 V2000
    1.0264   -8.8209    0.0000 C   0  0  0  0  0  0  0  0  0  0  0  0
    1.7408   -9.2334    0.0000 C   0  0  0  0  0  0  0  0  0  0  0  0
    2.4553   -8.8209    0.0000 C   0  0  0  0  0  0  0  0  0  0  0  0
    3.1698   -9.2335    0.0000 C   0  0  0  0  0  0  0  0  0  0  0  0
    3.8843   -8.8210    0.0000 C   0  0  0  0  0  0  0  0  0  0  0  0
    4.5987   -9.2335    0.0000 C   0  0  0  0  0  0  0  0  0  0  0  0
    5.3132   -8.8210    0.0000 C   0  0  0  0  0  0  0  0  0  0  0  0
    6.0277   -9.2336    0.0000 C   0  0  0  0  0  0  0  0  0  0  0  0
    6.7421   -8.8211    0.0000 C   0  0  0  0  0  0  0  0  0  0  0  0
    7.4566   -8.4086    0.0000 C   0  0  0  0  0  0  0  0  0  0  0  0
    8.1711   -7.9961    0.0000 C   0  0  0  0  0  0  0  0  0  0  0  0
    8.8856   -7.5837    0.0000 C   0  0  0  0  0  0  0  0  0  0  0  0
    9.6001   -7.1712    0.0000 C   0  0  0  0  0  0  0  0  0  0  0  0
   10.3145   -7.5837    0.0000 C   0  0  0  0  0  0  0  0  0  0  0  0
   11.0290   -7.1712    0.0000 C   0  0  0  0  0  0  0  0  0  0  0  0
   11.7435   -7.5837    0.0000 O   0  0  0  0  0  0  0  0  0  0  0  0
   12.4580   -6.3463    0.0000 O   0  0  0  0  0  0  0  0  0  0  0  0
   13.1724   -7.5838    0.0000 C   0  0  0  0  0  0  0  0  0  0  0  0
   12.4580   -7.1713    0.0000 C   0  0  0  0  0  0  0  0  0  0  0  0
 16 15  1  0  0  0  0
  2  1  1  0  0  0  0
  3  2  1  0  0  0  0
  4  3  1  0  0  0  0
  5  4  1  0  0  0  0
  6  5  2  0  0  0  0
  7  6  1  0  0  0  0
  8  7  2  0  0  0  0
  9  8  1  0  0  0  0
 10  9  3  0  0  0  0
 11 10  1  0  0  0  0
 12 11  3  0  0  0  0
 13 12  1  0  0  0  0
 14 13  2  0  0  0  0
 15 14  1  0  0  0  0
 19 16  1  0  0  0  0
 19 17  2  0  0  0  0
 19 18  1  0  0  0  0
M  END
>  <cdx:fragmentId>
13

$$$$
