200207.cdx
  Mrv1902 05222410182D          

 17 19  0  0  0  0            999 V2000
    6.3225   -4.1800    0.0000 C   0  0  0  0  0  0  0  0  0  0  0  0
    5.7395   -4.7630    0.0000 C   0  0  0  0  0  0  0  0  0  0  0  0
    5.8300   -5.5833    0.0000 C   0  0  0  0  0  0  0  0  0  0  0  0
    6.5277   -6.0230    0.0000 C   0  0  0  0  0  0  0  0  0  0  0  0
    7.3054   -5.7522    0.0000 C   0  0  0  0  0  0  0  0  0  0  0  0
    7.5773   -4.9734    0.0000 N   0  0  0  0  0  0  0  0  0  0  0  0
    7.1395   -4.2738    0.0000 C   0  0  0  0  0  0  0  0  0  0  0  0
    7.9626   -6.2507    0.0000 C   0  0  0  0  0  0  0  0  0  0  0  0
    8.6405   -5.7810    0.0000 C   0  0  0  0  0  0  0  0  0  0  0  0
    8.4026   -4.9907    0.0000 C   0  0  0  0  0  0  0  0  0  0  0  0
    4.9838   -4.4316    0.0000 C   0  0  0  0  0  0  0  0  0  0  0  0
    4.3189   -4.9200    0.0000 C   0  0  0  0  0  0  0  0  0  0  0  0
    4.4096   -5.7403    0.0000 C   0  0  0  0  0  0  0  0  0  0  0  0
    5.1650   -6.0717    0.0000 C   0  0  0  0  0  0  0  0  0  0  0  0
    3.5222   -4.7066    0.0000 O   0  0  0  0  0  0  0  0  0  0  0  0
    3.6952   -6.1528    0.0000 O   0  0  0  0  0  0  0  0  0  0  0  0
    6.3140   -6.8200    0.0000 O   0  0  0  0  0  0  0  0  0  0  0  0
  1  2  1  0  0  0  0
  2  3  1  0  0  0  0
  3  4  1  0  0  0  0
  4  5  1  0  0  0  0
  5  6  1  0  0  0  0
  6  7  1  0  0  0  0
  1  7  1  0  0  0  0
  5  8  2  0  0  0  0
  8  9  1  0  0  0  0
  9 10  2  0  0  0  0
  6 10  1  0  0  0  0
  2 11  2  0  0  0  0
 11 12  1  0  0  0  0
 12 13  2  0  0  0  0
 13 14  1  0  0  0  0
 14  3  2  0  0  0  0
 12 15  1  0  0  0  0
 13 16  1  0  0  0  0
  4 17  2  0  0  0  0
M  END
>  <cdx:groupId>
1261

>  <cdx:fragmentId>
1262

$$$$
