200269.cdx
  Mrv1902 05222410252D          

 32 34  0  0  0  0            999 V2000
   10.5290   -6.6158    0.0000 C   0  0  0  0  0  0  0  0  0  0  0  0
    9.8183   -6.1968    0.0000 O   0  0  0  0  0  0  0  0  0  0  0  0
    9.1001   -6.6028    0.0000 C   0  0  0  0  0  0  0  0  0  0  0  0
    9.0926   -7.4278    0.0000 C   0  0  0  0  0  0  0  0  0  0  0  0
    9.8033   -7.8468    0.0000 O   0  0  0  0  0  0  0  0  0  0  0  0
    8.3894   -6.1838    0.0000 C   0  0  0  0  0  0  0  0  0  0  0  0
    7.6712   -6.5898    0.0000 C   0  0  0  0  0  0  0  0  0  0  0  0
    7.6637   -7.4148    0.0000 C   0  0  0  0  0  0  0  0  0  0  0  0
    8.3744   -7.8338    0.0000 C   0  0  0  0  0  0  0  0  0  0  0  0
    6.9605   -6.1708    0.0000 C   0  0  0  0  0  0  0  0  0  0  0  0
    6.2423   -6.5768    0.0000 C   0  0  2  0  0  0  0  0  0  0  0  0
    6.2348   -7.4018    0.0000 C   0  0  1  0  0  0  0  0  0  0  0  0
    6.9455   -7.8208    0.0000 C   0  0  1  0  0  0  0  0  0  0  0  0
    5.5316   -6.1578    0.0000 C   0  0  0  0  0  0  0  0  0  0  0  0
    4.8059   -7.3888    0.0000 O   0  0  0  0  0  0  0  0  0  0  0  0
    5.5166   -7.8078    0.0000 C   0  0  0  0  0  0  0  0  0  0  0  0
    6.9380   -8.6457    0.0000 C   0  0  0  0  0  0  0  0  0  0  0  0
    7.6487   -9.0647    0.0000 C   0  0  0  0  0  0  0  0  0  0  0  0
    6.2198   -9.0517    0.0000 C   0  0  0  0  0  0  0  0  0  0  0  0
    6.2123   -9.8767    0.0000 C   0  0  0  0  0  0  0  0  0  0  0  0
    6.9230  -10.2957    0.0000 C   0  0  0  0  0  0  0  0  0  0  0  0
    7.6412   -9.8897    0.0000 C   0  0  0  0  0  0  0  0  0  0  0  0
    4.7834   -9.8637    0.0000 C   0  0  0  0  0  0  0  0  0  0  0  0
    5.4941  -10.2827    0.0000 O   0  0  0  0  0  0  0  0  0  0  0  0
    5.5391   -5.3329    0.0000 O   0  0  0  0  0  0  0  0  0  0  0  0
    6.9155  -11.1206    0.0000 O   0  0  0  0  0  0  0  0  0  0  0  0
    4.8285   -4.9139    0.0000 C   0  0  0  0  0  0  0  0  0  0  0  0
    4.8360   -4.0889    0.0000 O   0  0  0  0  0  0  0  0  0  0  0  0
    4.1103   -5.3199    0.0000 C   0  0  0  0  0  0  0  0  0  0  0  0
    4.0877   -7.7948    0.0000 C   0  0  0  0  0  0  0  0  0  0  0  0
    3.3771   -7.3758    0.0000 O   0  0  0  0  0  0  0  0  0  0  0  0
    4.0802   -8.6197    0.0000 C   0  0  0  0  0  0  0  0  0  0  0  0
  1  2  1  0  0  0  0
  2  3  1  0  0  0  0
  3  4  1  0  0  0  0
  4  5  1  0  0  0  0
  3  6  2  0  0  0  0
  6  7  1  0  0  0  0
  7  8  2  0  0  0  0
  8  9  1  0  0  0  0
  9  4  2  0  0  0  0
  7 10  1  0  0  0  0
 10 11  1  0  0  0  0
 11 12  1  0  0  0  0
 12 13  1  0  0  0  0
 13  8  1  0  0  0  0
 11 14  1  6  0  0  0
 15 16  1  0  0  0  0
 12 16  1  1  0  0  0
 13 17  1  6  0  0  0
 17 18  2  0  0  0  0
 17 19  1  0  0  0  0
 19 20  2  0  0  0  0
 20 21  1  0  0  0  0
 21 22  2  0  0  0  0
 22 18  1  0  0  0  0
 23 24  1  0  0  0  0
 24 20  1  0  0  0  0
 14 25  1  0  0  0  0
 21 26  1  0  0  0  0
 25 27  1  0  0  0  0
 27 28  2  0  0  0  0
 27 29  1  0  0  0  0
 15 30  1  0  0  0  0
 30 31  2  0  0  0  0
 30 32  1  0  0  0  0
M  END
>  <cdx:fragmentId>
5

$$$$
