200283.cdx
  Mrv1902 05222410252D          

 30 31  0  0  0  0            999 V2000
    6.3879   -6.5069    0.0000 C   0  0  2  0  0  0  0  0  0  0  0  0
    6.6013   -5.7103    0.0000 C   0  0  1  0  0  0  0  0  0  0  0  0
    6.1127   -5.0454    0.0000 C   0  0  0  0  0  0  0  0  0  0  0  0
    4.7506   -5.6367    0.0000 C   0  0  0  0  0  0  0  0  0  0  0  0
    4.9045   -6.4473    0.0000 C   0  0  0  0  0  0  0  0  0  0  0  0
    5.6334   -6.8342    0.0000 C   0  0  1  0  0  0  0  0  0  0  0  0
    3.9320   -5.5336    0.0000 C   0  0  0  0  0  0  0  0  0  0  0  0
    3.5798   -6.2794    0.0000 C   0  0  2  0  0  0  0  0  0  0  0  0
    4.1810   -6.8447    0.0000 C   0  0  0  0  0  0  0  0  0  0  0  0
    6.9712   -7.0902    0.0000 C   0  0  0  0  0  0  0  0  0  0  0  0
    7.4263   -5.7103    0.0000 O   0  0  0  0  0  0  0  0  0  0  0  0
    7.8388   -4.9958    0.0000 C   0  0  0  0  0  0  0  0  0  0  0  0
    8.6620   -4.9959    0.0000 C   0  0  0  0  0  0  0  0  0  0  0  0
    9.0738   -4.2801    0.0000 C   0  0  0  0  0  0  0  0  0  0  0  0
    7.4256   -4.2828    0.0000 O   0  0  0  0  0  0  0  0  0  0  0  0
    9.0760   -5.7102    0.0000 C   0  0  0  0  0  0  0  0  0  0  0  0
    9.9010   -5.7102    0.0000 C   0  0  0  0  0  0  0  0  0  0  0  0
   10.3145   -6.4241    0.0000 O   0  0  0  0  0  0  0  0  0  0  0  0
    5.7116   -7.6528    0.0000 O   0  0  0  0  0  0  0  0  0  0  0  0
    6.5143   -7.8314    0.0000 C   0  0  0  0  0  0  0  0  0  0  0  0
    6.7279   -8.6283    0.0000 O   0  0  0  0  0  0  0  0  0  0  0  0
    7.7681   -7.3037    0.0000 C   0  0  0  0  0  0  0  0  0  0  0  0
    3.9675   -7.6416    0.0000 C   0  0  0  0  0  0  0  0  0  0  0  0
    2.7548   -6.2794    0.0000 O   0  0  0  0  0  0  0  0  0  0  0  0
    5.2887   -5.0132    0.0000 C   0  0  0  0  0  0  0  0  0  0  0  0
    5.0752   -4.2163    0.0000 C   0  0  0  0  0  0  0  0  0  0  0  0
    4.2783   -4.0028    0.0000 O   0  0  0  0  0  0  0  0  0  0  0  0
    4.0648   -3.2059    0.0000 C   0  0  0  0  0  0  0  0  0  0  0  0
    3.2679   -2.9923    0.0000 C   0  0  0  0  0  0  0  0  0  0  0  0
    4.6482   -2.6225    0.0000 O   0  0  0  0  0  0  0  0  0  0  0  0
  1  2  1  0  0  0  0
  2  3  1  0  0  0  0
  3 25  1  0  0  0  0
 25  4  2  0  0  0  0
  5  6  1  0  0  0  0
  1  6  1  0  0  0  0
  4  7  1  0  0  0  0
  7  8  1  0  0  0  0
  8  9  1  0  0  0  0
  5  9  2  0  0  0  0
  1 10  1  1  0  0  0
  2 11  1  1  0  0  0
 11 12  1  0  0  0  0
 12 13  1  0  0  0  0
 13 14  1  0  0  0  0
 12 15  2  0  0  0  0
 13 16  2  0  0  0  0
 16 17  1  0  0  0  0
 17 18  1  0  0  0  0
  6 19  1  6  0  0  0
 19 20  1  0  0  0  0
 20 10  1  0  0  0  0
 20 21  2  0  0  0  0
 10 22  2  0  0  0  0
  9 23  1  0  0  0  0
  8 24  1  6  0  0  0
 25 26  1  0  0  0  0
 26 27  1  0  0  0  0
 27 28  1  0  0  0  0
 28 29  1  0  0  0  0
 28 30  2  0  0  0  0
M  END
>  <cdx:groupId>
3968

>  <cdx:fragmentId>
3969

$$$$
