200285.cdx
  Mrv1902 05222410242D          

 31 32  0  0  0  0            999 V2000
    7.6870   -7.5220    0.0000 C   0  0  0  0  0  0  0  0  0  0  0  0
    8.1719   -6.8545    0.0000 C   0  0  0  0  0  0  0  0  0  0  0  0
    7.8364   -6.1009    0.0000 C   0  0  0  0  0  0  0  0  0  0  0  0
    8.3213   -5.4334    0.0000 C   0  0  0  0  0  0  0  0  0  0  0  0
    6.8665   -7.4357    0.0000 O   0  0  0  0  0  0  0  0  0  0  0  0
    8.0226   -8.2757    0.0000 O   0  0  0  0  0  0  0  0  0  0  0  0
    8.9924   -6.9408    0.0000 C   0  0  0  0  0  0  0  0  0  0  0  0
    7.9857   -4.6798    0.0000 O   0  0  0  0  0  0  0  0  0  0  0  0
    8.8072  -10.6905    0.0000 O   0  0  0  0  0  0  0  0  0  0  0  0
    8.0226  -10.4355    0.0000 C   0  0  1  0  0  0  0  0  0  0  0  0
    8.0226   -9.6105    0.0000 C   0  0  2  0  0  0  0  0  0  0  0  0
    8.8072   -9.3556    0.0000 C   0  0  0  0  0  0  0  0  0  0  0  0
    9.2921  -10.0230    0.0000 C   0  0  0  0  0  0  0  0  0  0  0  0
    7.5376   -8.9431    0.0000 C   0  0  1  0  0  0  0  0  0  0  0  0
    6.7530   -8.6882    0.0000 C   0  0  0  0  0  0  0  0  0  0  0  0
    5.9684   -8.9431    0.0000 C   0  0  0  0  0  0  0  0  0  0  0  0
    5.4835   -9.6105    0.0000 C   0  0  0  0  0  0  0  0  0  0  0  0
    5.4835  -10.4355    0.0000 C   0  0  0  0  0  0  0  0  0  0  0  0
    5.9684  -11.1030    0.0000 C   0  0  1  0  0  0  0  0  0  0  0  0
    6.7530  -11.3579    0.0000 C   0  0  0  0  0  0  0  0  0  0  0  0
    7.5376  -11.1030    0.0000 C   0  0  0  0  0  0  0  0  0  0  0  0
   10.1171  -10.0230    0.0000 O   0  0  0  0  0  0  0  0  0  0  0  0
    9.0621   -8.5710    0.0000 C   0  0  0  0  0  0  0  0  0  0  0  0
    6.7530  -12.1829    0.0000 C   0  0  0  0  0  0  0  0  0  0  0  0
    5.4835   -8.2757    0.0000 C   0  0  0  0  0  0  0  0  0  0  0  0
    5.4835  -11.7704    0.0000 O   0  0  0  0  0  0  0  0  0  0  0  0
    4.6630  -11.6842    0.0000 C   0  0  0  0  0  0  0  0  0  0  0  0
    4.3274  -10.9305    0.0000 O   0  0  0  0  0  0  0  0  0  0  0  0
    4.1781  -12.3516    0.0000 C   0  0  0  0  0  0  0  0  0  0  0  0
    8.2775   -8.8259    0.0000 H   0  0  0  0  0  0  0  0  0  0  0  0
    8.2775  -11.2202    0.0000 H   0  0  0  0  0  0  0  0  0  0  0  0
  1  2  1  0  0  0  0
  2  3  2  0  0  0  0
  3  4  1  0  0  0  0
  1  5  2  0  0  0  0
  1  6  1  0  0  0  0
  2  7  1  0  0  0  0
  4  8  1  0  0  0  0
  9 10  1  0  0  0  0
 10 11  1  0  0  0  0
 11 12  1  0  0  0  0
 12 13  1  0  0  0  0
  9 13  1  0  0  0  0
 14 15  1  0  0  0  0
 15 16  1  0  0  0  0
 16 17  2  0  0  0  0
 17 18  1  0  0  0  0
 18 19  1  0  0  0  0
 19 20  1  0  0  0  0
 20 21  2  0  0  0  0
 21 10  1  0  0  0  0
 14 11  1  0  0  0  0
 13 22  2  0  0  0  0
 12 23  2  0  0  0  0
 20 24  1  0  0  0  0
 16 25  1  0  0  0  0
 27 28  2  0  0  0  0
 27 29  1  0  0  0  0
 26 27  1  0  0  0  0
 19 26  1  1  0  0  0
 14  6  1  1  0  0  0
 11 30  1  6  0  0  0
 10 31  1  1  0  0  0
M  END
>  <cdx:groupId>
96

>  <cdx:fragmentId>
31

$$$$
