200238.cdx
  Mrv1902 05222410192D          

 19 20  0  0  0  0            999 V2000
    4.9847   -7.8089    0.0000 C   0  0  1  0  0  0  0  0  0  0  0  0
    4.9847   -8.6339    0.0000 C   0  0  0  0  0  0  0  0  0  0  0  0
    5.6297   -9.1483    0.0000 C   0  0  0  0  0  0  0  0  0  0  0  0
    6.4340   -8.9647    0.0000 C   0  0  1  0  0  0  0  0  0  0  0  0
    6.7920   -8.2214    0.0000 C   0  0  1  0  0  0  0  0  0  0  0  0
    6.4340   -7.4781    0.0000 C   0  0  0  0  0  0  0  0  0  0  0  0
    5.6297   -7.2945    0.0000 C   0  0  2  0  0  0  0  0  0  0  0  0
    4.2001   -7.5540    0.0000 C   0  0  0  0  0  0  0  0  0  0  0  0
    3.7152   -8.2214    0.0000 C   0  0  0  0  0  0  0  0  0  0  0  0
    4.2001   -8.8888    0.0000 C   0  0  0  0  0  0  0  0  0  0  0  0
    2.8902   -8.2214    0.0000 O   0  0  0  0  0  0  0  0  0  0  0  0
    3.9451   -9.6735    0.0000 C   0  0  0  0  0  0  0  0  0  0  0  0
    7.6170   -8.2214    0.0000 O   0  0  0  0  0  0  0  0  0  0  0  0
    6.9484   -9.6097    0.0000 C   0  0  0  0  0  0  0  0  0  0  0  0
    7.5318  -10.1931    0.0000 O   0  0  0  0  0  0  0  0  0  0  0  0
    5.4461   -6.4902    0.0000 C   0  0  0  0  0  0  0  0  0  0  0  0
    4.7712   -7.0120    0.0000 O   0  0  0  0  0  0  0  0  0  0  0  0
    6.3333  -10.1594    0.0000 C   0  0  0  0  0  0  0  0  0  0  0  0
    7.5636   -9.0600    0.0000 C   0  0  0  0  0  0  0  0  0  0  0  0
  1  2  1  0  0  0  0
  2  3  1  0  0  0  0
  3  4  1  0  0  0  0
  4  5  1  0  0  0  0
  5  6  1  0  0  0  0
  6  7  1  0  0  0  0
  7  1  1  0  0  0  0
  1  8  1  0  0  0  0
  8  9  1  0  0  0  0
  9 10  1  0  0  0  0
 10  2  2  0  0  0  0
  9 11  2  0  0  0  0
 10 12  1  0  0  0  0
  5 13  1  1  0  0  0
  4 14  1  1  0  0  0
 14 15  1  0  0  0  0
  7 16  1  1  0  0  0
  1 17  1  1  0  0  0
 14 18  1  0  0  0  0
 14 19  1  0  0  0  0
M  END
>  <cdx:fragmentId>
5

$$$$
