200261.cdx
  Mrv1902 05222410232D          

 32 35  0  0  0  0            999 V2000
    7.8849   -8.4581    0.0000 C   0  0  0  0  0  0  0  0  0  0  0  0
    7.0975   -8.7044    0.0000 C   0  0  0  0  0  0  0  0  0  0  0  0
    9.1647  -11.1681    0.0000 H   0  0  0  0  0  0  0  0  0  0  0  0
    8.8040  -11.3967    0.0000 H   0  0  0  0  0  0  0  0  0  0  0  0
    6.3374  -10.7559    0.0000 H   0  0  0  0  0  0  0  0  0  0  0  0
    7.4075  -11.8327    0.0000 H   0  0  0  0  0  0  0  0  0  0  0  0
    6.3737  -13.1828    0.0000 O   0  0  0  0  0  0  0  0  0  0  0  0
    9.3408  -13.2476    0.0000 O   0  0  0  0  0  0  0  0  0  0  0  0
    8.5217  -13.3459    0.0000 C   0  0  0  0  0  0  0  0  0  0  0  0
    4.4580  -11.9735    0.0000 C   0  0  0  0  0  0  0  0  0  0  0  0
    9.6753   -9.3954    0.0000 C   0  0  0  0  0  0  0  0  0  0  0  0
    9.9215  -10.1828    0.0000 C   0  0  0  0  0  0  0  0  0  0  0  0
    6.1426  -10.0680    0.0000 C   0  0  0  0  0  0  0  0  0  0  0  0
    5.5187  -13.4214    0.0000 O   0  0  0  0  0  0  0  0  0  0  0  0
    6.9477  -10.2485    0.0000 C   0  0  2  0  0  0  0  0  0  0  0  0
    7.5064   -9.6415    0.0000 C   0  0  0  0  0  0  0  0  0  0  0  0
    8.3115   -9.8219    0.0000 C   0  0  1  0  0  0  0  0  0  0  0  0
    9.1165  -10.0024    0.0000 C   0  0  0  0  0  0  0  0  0  0  0  0
    8.5577  -10.6093    0.0000 C   0  0  1  0  0  0  0  0  0  0  0  0
    7.9990  -11.2163    0.0000 C   0  0  2  0  0  0  0  0  0  0  0  0
    8.3598  -11.9582    0.0000 C   0  0  0  0  0  0  0  0  0  0  0  0
    8.0048  -12.7029    0.0000 C   0  0  0  0  0  0  0  0  0  0  0  0
    7.2012  -12.8896    0.0000 C   0  0  0  0  0  0  0  0  0  0  0  0
    6.5542  -12.3777    0.0000 C   0  0  1  0  0  0  0  0  0  0  0  0
    5.7705  -12.6358    0.0000 C   0  0  0  0  0  0  0  0  0  0  0  0
    5.2830  -11.9702    0.0000 C   0  0  0  0  0  0  0  0  0  0  0  0
    5.7653  -11.3009    0.0000 C   0  0  0  0  0  0  0  0  0  0  0  0
    6.5509  -11.5528    0.0000 C   0  0  1  0  0  0  0  0  0  0  0  0
    7.1939  -11.0359    0.0000 C   0  0  1  0  0  0  0  0  0  0  0  0
    8.4919   -9.0169    0.0000 O   0  0  0  0  0  0  0  0  0  0  0  0
    8.0654   -7.6531    0.0000 O   0  0  0  0  0  0  0  0  0  0  0  0
    6.7014   -9.4611    0.0000 O   0  0  0  0  0  0  0  0  0  0  0  0
 19  3  1  6  0  0  0
 20  4  1  1  0  0  0
 28  5  1  6  0  0  0
 17 30  1  6  0  0  0
 29  6  1  6  0  0  0
 24  7  1  1  0  0  0
 22  9  1  0  0  0  0
  9  8  1  0  0  0  0
 26 10  1  0  0  0  0
 18 11  1  0  0  0  0
 18 12  1  0  0  0  0
 15 13  1  6  0  0  0
 25 14  2  0  0  0  0
 28 24  1  0  0  0  0
 19 17  1  0  0  0  0
 29 20  1  0  0  0  0
 29 15  1  0  0  0  0
 16 15  1  0  0  0  0
 17 16  1  0  0  0  0
 18 17  1  0  0  0  0
 19 18  1  0  0  0  0
 20 19  1  0  0  0  0
 21 20  1  0  0  0  0
 22 21  2  0  0  0  0
 23 22  1  0  0  0  0
 24 23  1  0  0  0  0
 25 24  1  0  0  0  0
 26 25  1  0  0  0  0
 27 26  2  0  0  0  0
 28 27  1  0  0  0  0
 29 28  1  0  0  0  0
  1 30  1  0  0  0  0
  1  2  1  0  0  0  0
  1 31  2  0  0  0  0
 15 32  1  1  0  0  0
M  END
>  <cdx:groupId>
71791

>  <cdx:fragmentId>
71792

$$$$
