200271.cdx
  Mrv1902 05222410202D          

 35 39  0  0  0  0            999 V2000
    6.6531   -6.0912    0.0000 C   0  0  0  0  0  0  0  0  0  0  0  0
    6.6531   -6.9162    0.0000 C   0  0  1  0  0  0  0  0  0  0  0  0
    7.3675   -7.3287    0.0000 C   0  0  2  0  0  0  0  0  0  0  0  0
    8.0820   -6.9162    0.0000 C   0  0  1  0  0  0  0  0  0  0  0  0
    8.0820   -6.0912    0.0000 C   0  0  0  0  0  0  0  0  0  0  0  0
    7.3675   -5.6788    0.0000 C   0  0  0  0  0  0  0  0  0  0  0  0
    8.7965   -7.3287    0.0000 C   0  0  0  0  0  0  0  0  0  0  0  0
    9.5109   -6.9162    0.0000 C   0  0  0  0  0  0  0  0  0  0  0  0
    9.5109   -6.0912    0.0000 C   0  0  2  0  0  0  0  0  0  0  0  0
    8.7965   -5.6788    0.0000 C   0  0  1  0  0  0  0  0  0  0  0  0
    5.9386   -7.3287    0.0000 C   0  0  2  0  0  0  0  0  0  0  0  0
    5.9386   -8.1538    0.0000 C   0  0  1  0  0  0  0  0  0  0  0  0
    6.6531   -8.5663    0.0000 C   0  0  0  0  0  0  0  0  0  0  0  0
    7.3675   -8.1538    0.0000 C   0  0  0  0  0  0  0  0  0  0  0  0
   10.2254   -5.6788    0.0000 C   0  0  0  0  0  0  0  0  0  0  0  0
   10.2254   -4.8538    0.0000 C   0  0  0  0  0  0  0  0  0  0  0  0
    9.5109   -4.4412    0.0000 C   0  0  0  0  0  0  0  0  0  0  0  0
    8.7965   -4.8538    0.0000 C   0  0  0  0  0  0  0  0  0  0  0  0
    5.2241   -6.9162    0.0000 C   0  0  0  0  0  0  0  0  0  0  0  0
    4.5096   -7.3287    0.0000 C   0  0  0  0  0  0  0  0  0  0  0  0
    4.5096   -8.1538    0.0000 C   0  0  1  0  0  0  0  0  0  0  0  0
    5.2241   -8.5663    0.0000 C   0  0  0  0  0  0  0  0  0  0  0  0
    4.8116   -9.2807    0.0000 C   0  0  0  0  0  0  0  0  0  0  0  0
    3.7952   -8.5663    0.0000 O   0  0  0  0  0  0  0  0  0  0  0  0
    5.9386   -6.5038    0.0000 C   0  0  0  0  0  0  0  0  0  0  0  0
    7.3675   -6.5038    0.0000 C   0  0  0  0  0  0  0  0  0  0  0  0
   10.2254   -6.5038    0.0000 C   0  0  0  0  0  0  0  0  0  0  0  0
    5.6366   -9.2807    0.0000 C   0  0  0  0  0  0  0  0  0  0  0  0
    8.0820   -7.7413    0.0000 C   0  0  0  0  0  0  0  0  0  0  0  0
    9.5109   -3.6163    0.0000 C   0  0  0  0  0  0  0  0  0  0  0  0
    8.0820   -5.2663    0.0000 H   0  0  0  0  0  0  0  0  0  0  0  0
   10.9399   -6.0912    0.0000 O   0  0  0  0  0  0  0  0  0  0  0  0
   10.2254   -7.3287    0.0000 O   0  0  0  0  0  0  0  0  0  0  0  0
    6.6531   -7.7413    0.0000 H   0  0  0  0  0  0  0  0  0  0  0  0
    5.9386   -8.9788    0.0000 H   0  0  0  0  0  0  0  0  0  0  0  0
  1  2  1  0  0  0  0
  2  3  1  0  0  0  0
  3  4  1  0  0  0  0
  4  5  1  0  0  0  0
  5  6  2  0  0  0  0
  6  1  1  0  0  0  0
  4  7  1  0  0  0  0
  7  8  1  0  0  0  0
  8  9  1  0  0  0  0
  9 10  1  0  0  0  0
 10  5  1  0  0  0  0
  2 11  1  0  0  0  0
 11 12  1  0  0  0  0
 12 13  1  0  0  0  0
 13 14  1  0  0  0  0
 14  3  1  0  0  0  0
  9 15  1  0  0  0  0
 15 16  1  0  0  0  0
 16 17  1  0  0  0  0
 17 18  1  0  0  0  0
 18 10  1  0  0  0  0
 11 19  1  0  0  0  0
 19 20  1  0  0  0  0
 20 21  1  0  0  0  0
 21 22  1  0  0  0  0
 22 12  1  0  0  0  0
 22 23  1  0  0  0  0
 21 24  1  1  0  0  0
 11 25  1  1  0  0  0
  3 26  1  1  0  0  0
  9 27  1  1  0  0  0
 22 28  1  0  0  0  0
  4 29  1  6  0  0  0
 17 30  2  0  0  0  0
 10 31  1  1  0  0  0
 27 32  1  0  0  0  0
 27 33  2  0  0  0  0
  2 34  1  6  0  0  0
 12 35  1  6  0  0  0
M  END
>  <cdx:fragmentId>
3554

$$$$
