200267.cdx
  Mrv1902 05222410212D          

 27 30  0  0  0  0            999 V2000
    5.5943   -4.8125    0.0000 C   0  0  0  0  0  0  0  0  0  0  0  0
    5.5943   -5.6375    0.0000 C   0  0  0  0  0  0  0  0  0  0  0  0
    6.3088   -6.0500    0.0000 C   0  0  0  0  0  0  0  0  0  0  0  0
    7.0232   -5.6375    0.0000 C   0  0  0  0  0  0  0  0  0  0  0  0
    7.0232   -4.8125    0.0000 C   0  0  0  0  0  0  0  0  0  0  0  0
    6.3088   -4.4000    0.0000 C   0  0  0  0  0  0  0  0  0  0  0  0
    7.7377   -6.0500    0.0000 C   0  0  1  0  0  0  0  0  0  0  0  0
    8.4522   -5.6375    0.0000 C   0  0  2  0  0  0  0  0  0  0  0  0
    8.4522   -4.8125    0.0000 C   0  0  1  0  0  0  0  0  0  0  0  0
    7.7377   -4.4000    0.0000 C   0  0  0  0  0  0  0  0  0  0  0  0
    9.2368   -5.8924    0.0000 C   0  0  0  0  0  0  0  0  0  0  0  0
    9.7217   -5.2250    0.0000 O   0  0  0  0  0  0  0  0  0  0  0  0
    9.2368   -4.5576    0.0000 C   0  0  0  0  0  0  0  0  0  0  0  0
    4.8798   -4.4000    0.0000 O   0  0  0  0  0  0  0  0  0  0  0  0
    4.8798   -6.0500    0.0000 O   0  0  0  0  0  0  0  0  0  0  0  0
    7.7377   -6.8750    0.0000 C   0  0  0  0  0  0  0  0  0  0  0  0
    7.0232   -7.2875    0.0000 C   0  0  0  0  0  0  0  0  0  0  0  0
    7.0232   -8.1125    0.0000 C   0  0  0  0  0  0  0  0  0  0  0  0
    7.7377   -8.5250    0.0000 C   0  0  0  0  0  0  0  0  0  0  0  0
    8.4522   -8.1125    0.0000 C   0  0  0  0  0  0  0  0  0  0  0  0
    8.4522   -7.2875    0.0000 C   0  0  0  0  0  0  0  0  0  0  0  0
    7.7377   -9.3500    0.0000 O   0  0  0  0  0  0  0  0  0  0  0  0
    6.3088   -8.5250    0.0000 O   0  0  0  0  0  0  0  0  0  0  0  0
    8.4522   -3.9875    0.0000 H   0  0  0  0  0  0  0  0  0  0  0  0
    8.4522   -6.4625    0.0000 H   0  0  0  0  0  0  0  0  0  0  0  0
    4.1654   -4.8125    0.0000 C   0  0  0  0  0  0  0  0  0  0  0  0
    5.5943   -8.1125    0.0000 C   0  0  0  0  0  0  0  0  0  0  0  0
  1  2  2  0  0  0  0
  2  3  1  0  0  0  0
  3  4  2  0  0  0  0
  4  5  1  0  0  0  0
  5  6  2  0  0  0  0
  6  1  1  0  0  0  0
  4  7  1  0  0  0  0
  7  8  1  0  0  0  0
  8  9  1  0  0  0  0
  9 10  1  0  0  0  0
 10  5  1  0  0  0  0
  8 11  1  0  0  0  0
 11 12  1  0  0  0  0
 12 13  1  0  0  0  0
 13  9  1  0  0  0  0
  1 14  1  0  0  0  0
  2 15  1  0  0  0  0
  7 16  1  1  0  0  0
 16 17  2  0  0  0  0
 17 18  1  0  0  0  0
 18 19  2  0  0  0  0
 19 20  1  0  0  0  0
 20 21  2  0  0  0  0
 21 16  1  0  0  0  0
 19 22  1  0  0  0  0
 18 23  1  0  0  0  0
  9 24  1  6  0  0  0
  8 25  1  1  0  0  0
 14 26  1  0  0  0  0
 23 27  1  0  0  0  0
M  END
>  <cdx:fragmentId>
3434

$$$$
