200215.cdx
  Mrv1902 05222410192D          

 50 54  0  0  0  0            999 V2000
    7.4670   -7.5952    0.0000 C   0  0  0  0  0  0  0  0  0  0  0  0
    8.1826   -7.1821    0.0000 C   0  0  0  0  0  0  0  0  0  0  0  0
    8.1826   -6.3574    0.0000 C   0  0  0  0  0  0  0  0  0  0  0  0
    7.4670   -5.9444    0.0000 O   0  0  0  0  0  0  0  0  0  0  0  0
    8.8954   -5.9444    0.0000 C   0  0  0  0  0  0  0  0  0  0  0  0
    9.6123   -6.3544    0.0000 C   0  0  0  0  0  0  0  0  0  0  0  0
   10.3265   -5.9444    0.0000 C   0  0  0  0  0  0  0  0  0  0  0  0
   10.3265   -5.1183    0.0000 C   0  0  0  0  0  0  0  0  0  0  0  0
    9.6123   -4.7080    0.0000 C   0  0  0  0  0  0  0  0  0  0  0  0
    8.8954   -5.1183    0.0000 C   0  0  0  0  0  0  0  0  0  0  0  0
    6.7528   -7.1821    0.0000 C   0  0  0  0  0  0  0  0  0  0  0  0
    6.7528   -6.3574    0.0000 C   0  0  0  0  0  0  0  0  0  0  0  0
    6.0387   -5.9452    0.0000 C   0  0  0  0  0  0  0  0  0  0  0  0
    5.3245   -6.3574    0.0000 C   0  0  0  0  0  0  0  0  0  0  0  0
    5.3245   -7.1821    0.0000 C   0  0  0  0  0  0  0  0  0  0  0  0
    6.0387   -7.5944    0.0000 C   0  0  0  0  0  0  0  0  0  0  0  0
    4.6100   -5.9449    0.0000 O   0  0  0  0  0  0  0  0  0  0  0  0
   11.0409   -4.7058    0.0000 O   0  0  0  0  0  0  0  0  0  0  0  0
    7.4670   -8.4202    0.0000 O   0  0  0  0  0  0  0  0  0  0  0  0
    2.4728   -6.3553    0.0000 C   0  0  2  0  0  0  0  0  0  0  0  0
    2.4728   -7.1803    0.0000 C   0  0  2  0  0  0  0  0  0  0  0  0
    3.1872   -7.5928    0.0000 C   0  0  1  0  0  0  0  0  0  0  0  0
    3.9017   -7.1803    0.0000 C   0  0  2  0  0  0  0  0  0  0  0  0
    3.9017   -6.3553    0.0000 C   0  0  1  0  0  0  0  0  0  0  0  0
    3.1872   -5.9428    0.0000 O   0  0  0  0  0  0  0  0  0  0  0  0
    1.7583   -5.9428    0.0000 C   0  0  0  0  0  0  0  0  0  0  0  0
    3.1872   -8.4178    0.0000 O   0  0  0  0  0  0  0  0  0  0  0  0
    4.6162   -7.5928    0.0000 O   0  0  0  0  0  0  0  0  0  0  0  0
    1.7583   -7.5928    0.0000 O   0  0  0  0  0  0  0  0  0  0  0  0
    1.0438   -6.3553    0.0000 O   0  0  0  0  0  0  0  0  0  0  0  0
   12.4756   -6.3591    0.0000 C   0  0  2  0  0  0  0  0  0  0  0  0
   13.1900   -5.9466    0.0000 C   0  0  2  0  0  0  0  0  0  0  0  0
   13.1900   -5.1216    0.0000 C   0  0  1  0  0  0  0  0  0  0  0  0
   12.4755   -4.7091    0.0000 C   0  0  2  0  0  0  0  0  0  0  0  0
   11.7610   -5.1217    0.0000 C   0  0  1  0  0  0  0  0  0  0  0  0
   11.7611   -5.9467    0.0000 O   0  0  0  0  0  0  0  0  0  0  0  0
   12.4757   -7.1841    0.0000 C   0  0  0  0  0  0  0  0  0  0  0  0
   13.9044   -4.7090    0.0000 O   0  0  0  0  0  0  0  0  0  0  0  0
   12.4754   -3.8841    0.0000 O   0  0  0  0  0  0  0  0  0  0  0  0
   13.9046   -6.3590    0.0000 O   0  0  0  0  0  0  0  0  0  0  0  0
   13.1902   -7.5966    0.0000 O   0  0  0  0  0  0  0  0  0  0  0  0
   13.1263   -3.3829    0.0000 C   0  0  1  0  0  0  0  0  0  0  0  0
   13.9168   -3.6182    0.0000 C   0  0  1  0  0  0  0  0  0  0  0  0
   14.3849   -2.9390    0.0000 C   0  0  2  0  0  0  0  0  0  0  0  0
   13.8836   -2.2841    0.0000 C   0  0  0  0  0  0  0  0  0  0  0  0
   13.1060   -2.5584    0.0000 O   0  0  0  0  0  0  0  0  0  0  0  0
   15.0385   -3.4419    0.0000 C   0  0  0  0  0  0  0  0  0  0  0  0
   14.5704   -4.1211    0.0000 O   0  0  0  0  0  0  0  0  0  0  0  0
   15.0400   -2.4380    0.0000 O   0  0  0  0  0  0  0  0  0  0  0  0
   15.8009   -3.1276    0.0000 O   0  0  0  0  0  0  0  0  0  0  0  0
 11  1  1  0  0  0  0
  1  2  1  0  0  0  0
  2  3  2  0  0  0  0
 12  4  1  0  0  0  0
  3  5  1  0  0  0  0
  5  6  1  0  0  0  0
  6  7  2  0  0  0  0
  7  8  1  0  0  0  0
  8  9  2  0  0  0  0
  9 10  1  0  0  0  0
  5 10  2  0  0  0  0
 11 12  1  0  0  0  0
 12 13  2  0  0  0  0
 13 14  1  0  0  0  0
 14 15  2  0  0  0  0
 15 16  1  0  0  0  0
 16 11  2  0  0  0  0
 14 17  1  0  0  0  0
  8 18  1  0  0  0  0
  1 19  2  0  0  0  0
 20 21  1  0  0  0  0
 21 22  1  0  0  0  0
 22 23  1  0  0  0  0
 23 24  1  0  0  0  0
 24 25  1  0  0  0  0
 25 20  1  0  0  0  0
 20 26  1  1  0  0  0
 22 27  1  1  0  0  0
 23 28  1  6  0  0  0
 21 29  1  6  0  0  0
 26 30  1  0  0  0  0
 31 32  1  0  0  0  0
 32 33  1  0  0  0  0
 33 34  1  0  0  0  0
 34 35  1  0  0  0  0
 35 36  1  0  0  0  0
 36 31  1  0  0  0  0
 31 37  1  1  0  0  0
 33 38  1  1  0  0  0
 34 39  1  6  0  0  0
 32 40  1  6  0  0  0
 37 41  1  0  0  0  0
 24 17  1  1  0  0  0
 35 18  1  1  0  0  0
 42 43  1  0  0  0  0
 43 44  1  0  0  0  0
 44 45  1  0  0  0  0
 45 46  1  0  0  0  0
 46 42  1  0  0  0  0
 44 47  1  6  0  0  0
 43 48  1  1  0  0  0
 44 49  1  1  0  0  0
 47 50  1  0  0  0  0
 42 39  1  6  0  0  0
M  END
>  <cdx:fragmentId>
3974

$$$$
