200256.cdx
  Mrv1902 05222410252D          

 27 30  0  0  0  0            999 V2000
    6.4214   -7.9045    0.0000 C   0  0  0  0  0  0  0  0  0  0  0  0
    6.4214   -8.7295    0.0000 C   0  0  2  0  0  0  0  0  0  0  0  0
    7.1359   -9.1420    0.0000 C   0  0  1  0  0  0  0  0  0  0  0  0
    7.8503   -8.7295    0.0000 C   0  0  1  0  0  0  0  0  0  0  0  0
    7.8503   -7.9045    0.0000 C   0  0  0  0  0  0  0  0  0  0  0  0
    7.1359   -7.4920    0.0000 C   0  0  0  0  0  0  0  0  0  0  0  0
    5.7069   -9.1420    0.0000 C   0  0  1  0  0  0  0  0  0  0  0  0
    5.7069   -9.9670    0.0000 C   0  0  2  0  0  0  0  0  0  0  0  0
    6.4214  -10.3795    0.0000 C   0  0  0  0  0  0  0  0  0  0  0  0
    7.1359   -9.9670    0.0000 C   0  0  0  0  0  0  0  0  0  0  0  0
    8.4634   -7.3525    0.0000 C   0  0  0  0  0  0  0  0  0  0  0  0
    8.1279   -6.5988    0.0000 C   0  0  0  0  0  0  0  0  0  0  0  0
    7.3074   -6.6850    0.0000 O   0  0  0  0  0  0  0  0  0  0  0  0
    4.9925   -8.7295    0.0000 C   0  0  0  0  0  0  0  0  0  0  0  0
    4.2780   -9.1420    0.0000 C   0  0  0  0  0  0  0  0  0  0  0  0
    4.2780   -9.9670    0.0000 C   0  0  0  0  0  0  0  0  0  0  0  0
    4.9925  -10.3795    0.0000 C   0  0  0  0  0  0  0  0  0  0  0  0
    4.5800  -11.0940    0.0000 C   0  0  0  0  0  0  0  0  0  0  0  0
    5.4050  -11.0940    0.0000 C   0  0  0  0  0  0  0  0  0  0  0  0
    9.2603   -7.5660    0.0000 C   0  0  0  0  0  0  0  0  0  0  0  0
    5.7069   -8.3170    0.0000 C   0  0  0  0  0  0  0  0  0  0  0  0
    8.5404   -5.8843    0.0000 O   0  0  0  0  0  0  0  0  0  0  0  0
    6.4214   -9.5545    0.0000 H   0  0  0  0  0  0  0  0  0  0  0  0
    5.7069  -10.7920    0.0000 H   0  0  0  0  0  0  0  0  0  0  0  0
    7.8503   -9.5545    0.0000 O   0  0  0  0  0  0  0  0  0  0  0  0
    8.5648   -9.1420    0.0000 O   0  0  0  0  0  0  0  0  0  0  0  0
    9.8437   -6.9826    0.0000 O   0  0  0  0  0  0  0  0  0  0  0  0
  1  2  1  0  0  0  0
  2  3  1  0  0  0  0
  3  4  1  0  0  0  0
  4  5  1  0  0  0  0
  5  6  1  0  0  0  0
  6  1  2  0  0  0  0
  2  7  1  0  0  0  0
  7  8  1  0  0  0  0
  8  9  1  0  0  0  0
  9 10  1  0  0  0  0
 10  3  1  0  0  0  0
  5 11  2  0  0  0  0
 11 12  1  0  0  0  0
 12 13  1  0  0  0  0
 13  6  1  0  0  0  0
  7 14  1  0  0  0  0
 14 15  1  0  0  0  0
 15 16  1  0  0  0  0
 16 17  1  0  0  0  0
 17  8  1  0  0  0  0
 17 18  1  0  0  0  0
 17 19  1  0  0  0  0
 11 20  1  0  0  0  0
  7 21  1  6  0  0  0
 12 22  2  0  0  0  0
  2 23  1  1  0  0  0
  8 24  1  1  0  0  0
  3 25  1  6  0  0  0
  4 26  1  1  0  0  0
 20 27  1  0  0  0  0
M  END
>  <cdx:fragmentId>
123

$$$$
