200221.cdx
  Mrv1902 05222410272D          

 46 51  0  0  0  0            999 V2000
    7.2443   -8.8582    0.0000 O   0  0  0  0  0  0  0  0  0  0  0  0
    7.2284   -6.3833    0.0000 C   0  0  0  0  0  0  0  0  0  0  0  0
    7.2284   -7.2083    0.0000 O   0  0  0  0  0  0  0  0  0  0  0  0
    9.3518   -5.1252    0.0000 O   0  0  0  0  0  0  0  0  0  0  0  0
   10.1100   -9.6556    0.0000 O   0  0  0  0  0  0  0  0  0  0  0  0
   12.9479   -7.1600    0.0000 C   0  0  0  0  0  0  0  0  0  0  0  0
   12.2334   -7.5725    0.0000 O   0  0  0  0  0  0  0  0  0  0  0  0
   12.2175   -5.9226    0.0000 O   0  0  0  0  0  0  0  0  0  0  0  0
    7.9468   -7.6139    0.0000 C   0  0  0  0  0  0  0  0  0  0  0  0
    7.9548   -8.4388    0.0000 C   0  0  0  0  0  0  0  0  0  0  0  0
    8.6732   -8.8444    0.0000 C   0  0  0  0  0  0  0  0  0  0  0  0
    9.3836   -8.4250    0.0000 C   0  0  0  0  0  0  0  0  0  0  0  0
   10.1020   -8.8306    0.0000 C   0  0  0  0  0  0  0  0  0  0  0  0
   10.8125   -8.4113    0.0000 O   0  0  0  0  0  0  0  0  0  0  0  0
    9.3598   -5.9502    0.0000 C   0  0  0  0  0  0  0  0  0  0  0  0
    8.6493   -6.3695    0.0000 O   0  0  0  0  0  0  0  0  0  0  0  0
    8.6573   -7.1945    0.0000 C   0  0  0  0  0  0  0  0  0  0  0  0
    9.3757   -7.6001    0.0000 C   0  0  0  0  0  0  0  0  0  0  0  0
   10.0782   -6.3558    0.0000 C   0  0  0  0  0  0  0  0  0  0  0  0
   10.0861   -7.1807    0.0000 C   0  0  0  0  0  0  0  0  0  0  0  0
   10.8046   -7.5863    0.0000 C   0  0  0  0  0  0  0  0  0  0  0  0
   11.5150   -7.1669    0.0000 C   0  0  0  0  0  0  0  0  0  0  0  0
   11.5071   -6.3420    0.0000 C   0  0  0  0  0  0  0  0  0  0  0  0
   10.7886   -5.9364    0.0000 C   0  0  0  0  0  0  0  0  0  0  0  0
    6.5259   -8.4526    0.0000 C   0  0  2  0  0  0  0  0  0  0  0  0
    6.5139   -7.6277    0.0000 O   0  0  0  0  0  0  0  0  0  0  0  0
    5.7935   -7.2256    0.0000 C   0  0  1  0  0  0  0  0  0  0  0  0
    5.0851   -7.6277    0.0000 C   0  0  1  0  0  0  0  0  0  0  0  0
    5.0851   -8.4526    0.0000 C   0  0  1  0  0  0  0  0  0  0  0  0
    5.7935   -8.8547    0.0000 C   0  0  1  0  0  0  0  0  0  0  0  0
    5.7906   -6.4006    0.0000 C   0  0  0  0  0  0  0  0  0  0  0  0
    4.3722   -8.8677    0.0000 O   0  0  0  0  0  0  0  0  0  0  0  0
    5.7877   -9.6797    0.0000 O   0  0  0  0  0  0  0  0  0  0  0  0
    4.3722   -7.2126    0.0000 O   0  0  0  0  0  0  0  0  0  0  0  0
    5.0746   -5.9907    0.0000 O   0  0  0  0  0  0  0  0  0  0  0  0
    5.0717   -5.1657    0.0000 C   0  0  0  0  0  0  0  0  0  0  0  0
    4.3557   -4.7557    0.0000 C   0  0  0  0  0  0  0  0  0  0  0  0
    5.7847   -4.7506    0.0000 O   0  0  0  0  0  0  0  0  0  0  0  0
    4.3513   -3.9307    0.0000 C   0  0  0  0  0  0  0  0  0  0  0  0
    3.6346   -3.5221    0.0000 C   0  0  0  0  0  0  0  0  0  0  0  0
    2.9224   -3.9307    0.0000 C   0  0  0  0  0  0  0  0  0  0  0  0
    2.9224   -4.7557    0.0000 C   0  0  0  0  0  0  0  0  0  0  0  0
    3.6346   -5.1644    0.0000 C   0  0  0  0  0  0  0  0  0  0  0  0
    3.6335   -2.6971    0.0000 O   0  0  0  0  0  0  0  0  0  0  0  0
    2.2085   -3.5173    0.0000 O   0  0  0  0  0  0  0  0  0  0  0  0
    2.2085   -5.1692    0.0000 O   0  0  0  0  0  0  0  0  0  0  0  0
 10  1  1  0  0  0  0
  3  2  1  0  0  0  0
  9  3  1  0  0  0  0
 15  4  2  0  0  0  0
 13  5  2  0  0  0  0
  7  6  1  0  0  0  0
 22  7  1  0  0  0  0
 23  8  1  0  0  0  0
  9 17  1  0  0  0  0
 10  9  2  0  0  0  0
 11 10  1  0  0  0  0
 12 11  2  0  0  0  0
 12 18  1  0  0  0  0
 13 12  1  0  0  0  0
 14 13  1  0  0  0  0
 21 14  1  0  0  0  0
 15 19  1  0  0  0  0
 16 15  1  0  0  0  0
 17 16  1  0  0  0  0
 18 17  2  0  0  0  0
 20 18  1  0  0  0  0
 19 24  1  0  0  0  0
 20 19  2  0  0  0  0
 21 20  1  0  0  0  0
 22 21  2  0  0  0  0
 23 22  1  0  0  0  0
 24 23  2  0  0  0  0
 25  1  1  1  0  0  0
 25 26  1  0  0  0  0
 26 27  1  0  0  0  0
 27 28  1  0  0  0  0
 28 29  1  0  0  0  0
 29 30  1  0  0  0  0
 30 25  1  0  0  0  0
 27 31  1  1  0  0  0
 29 32  1  1  0  0  0
 30 33  1  6  0  0  0
 28 34  1  1  0  0  0
 31 35  1  0  0  0  0
 35 36  1  0  0  0  0
 36 37  1  0  0  0  0
 36 38  2  0  0  0  0
 37 39  2  0  0  0  0
 39 40  1  0  0  0  0
 40 41  2  0  0  0  0
 41 42  1  0  0  0  0
 42 43  2  0  0  0  0
 43 37  1  0  0  0  0
 40 44  1  0  0  0  0
 41 45  1  0  0  0  0
 42 46  1  0  0  0  0
M  END
>  <cdx:fragmentId>
5

$$$$
