200239.cdx
  Mrv1902 05222410192D          

 27 29  0  0  0  0            999 V2000
    6.4832  -10.7473    0.0000 C   0  0  0  0  0  0  0  0  0  0  0  0
    5.6635  -10.8406    0.0000 C   0  0  0  0  0  0  0  0  0  0  0  0
    5.3344  -11.5971    0.0000 C   0  0  0  0  0  0  0  0  0  0  0  0
    5.8250  -12.2604    0.0000 C   0  0  0  0  0  0  0  0  0  0  0  0
    6.9738  -11.4106    0.0000 O   0  0  0  0  0  0  0  0  0  0  0  0
    6.8123   -9.9908    0.0000 O   0  0  0  0  0  0  0  0  0  0  0  0
    5.1729  -10.1773    0.0000 C   0  0  0  0  0  0  0  0  0  0  0  0
    7.6321   -9.8976    0.0000 C   0  0  0  0  0  0  0  0  0  0  0  0
    5.4054   -7.6413    0.0000 O   0  0  0  0  0  0  0  0  0  0  0  0
    6.0841   -8.1104    0.0000 C   0  0  1  0  0  0  0  0  0  0  0  0
    5.8476   -8.9008    0.0000 C   0  0  0  0  0  0  0  0  0  0  0  0
    5.0229   -8.9202    0.0000 C   0  0  0  0  0  0  0  0  0  0  0  0
    4.7496   -8.1418    0.0000 C   0  0  0  0  0  0  0  0  0  0  0  0
    6.5263   -9.3699    0.0000 C   0  0  0  0  0  0  0  0  0  0  0  0
    7.1822   -8.8694    0.0000 C   0  0  0  0  0  0  0  0  0  0  0  0
    7.9612   -9.1411    0.0000 C   0  0  2  0  0  0  0  0  0  0  0  0
    8.6592   -8.7014    0.0000 C   0  0  2  0  0  0  0  0  0  0  0  0
    8.7507   -7.8815    0.0000 C   0  0  0  0  0  0  0  0  0  0  0  0
    8.1667   -7.2987    0.0000 C   0  0  0  0  0  0  0  0  0  0  0  0
    7.3470   -7.3920    0.0000 C   0  0  0  0  0  0  0  0  0  0  0  0
    6.9088   -8.0910    0.0000 C   0  0  0  0  0  0  0  0  0  0  0  0
    8.6910   -9.5258    0.0000 O   0  0  0  0  0  0  0  0  0  0  0  0
    3.9592   -7.9054    0.0000 O   0  0  0  0  0  0  0  0  0  0  0  0
    4.5538   -9.5988    0.0000 C   0  0  0  0  0  0  0  0  0  0  0  0
    6.9073   -6.6939    0.0000 C   0  0  0  0  0  0  0  0  0  0  0  0
    9.4837   -8.7313    0.0000 H   0  0  0  0  0  0  0  0  0  0  0  0
    6.3205   -7.3200    0.0000 H   0  0  0  0  0  0  0  0  0  0  0  0
  1  2  1  0  0  0  0
  2  3  2  0  0  0  0
  3  4  1  0  0  0  0
  1  5  2  0  0  0  0
  1  6  1  0  0  0  0
  2  7  1  0  0  0  0
  9 10  1  0  0  0  0
 10 11  1  0  0  0  0
 11 12  2  0  0  0  0
 12 13  1  0  0  0  0
  9 13  1  0  0  0  0
 14 15  1  0  0  0  0
 15 16  1  0  0  0  0
 16 17  1  0  0  0  0
 17 18  1  0  0  0  0
 18 19  1  0  0  0  0
 19 20  1  0  0  0  0
 20 21  2  0  0  0  0
 22 16  1  0  0  0  0
 22 17  1  0  0  0  0
 21 10  1  0  0  0  0
 14 11  1  0  0  0  0
 13 23  2  0  0  0  0
 12 24  1  0  0  0  0
 20 25  1  0  0  0  0
 16  8  1  6  0  0  0
  6  8  1  0  0  0  0
 17 26  1  1  0  0  0
 10 27  1  1  0  0  0
M  END
>  <cdx:fragmentId>
31

$$$$
