200204.cdx
  Mrv1902 05222410192D          

 15 15  0  0  0  0            999 V2000
    4.6698   -3.3413    0.0000 C   0  0  0  0  0  0  0  0  0  0  0  0
    4.6698   -4.1662    0.0000 C   0  0  0  0  0  0  0  0  0  0  0  0
    6.1003   -3.3413    0.0000 C   0  0  0  0  0  0  0  0  0  0  0  0
    5.3842   -2.9279    0.0000 C   0  0  0  0  0  0  0  0  0  0  0  0
    3.9556   -2.9296    0.0000 C   0  0  0  0  0  0  0  0  0  0  0  0
    3.2425   -3.3413    0.0000 C   0  0  0  0  0  0  0  0  0  0  0  0
    3.2425   -4.1662    0.0000 C   0  0  0  0  0  0  0  0  0  0  0  0
    3.9556   -4.5765    0.0000 C   0  0  0  0  0  0  0  0  0  0  0  0
    2.5281   -2.9288    0.0000 O   0  0  0  0  0  0  0  0  0  0  0  0
    2.5281   -4.5788    0.0000 O   0  0  0  0  0  0  0  0  0  0  0  0
    3.9556   -2.1046    0.0000 S   0  0  0  0  0  0  0  0  0  0  0  0
    3.1306   -2.1046    0.0000 O   0  0  0  0  0  0  0  0  0  0  0  0
    4.7806   -2.1046    0.0000 O   0  0  0  0  0  0  0  0  0  0  0  0
    3.9556   -1.2796    0.0000 O   0  0  0  0  0  0  0  0  0  0  0  0
    6.8148   -2.9288    0.0000 N   0  0  0  0  0  0  0  0  0  0  0  0
  1  2  1  0  0  0  0
  3  4  1  0  0  0  0
  1  4  1  0  0  0  0
  1  5  2  0  0  0  0
  5  6  1  0  0  0  0
  6  7  2  0  0  0  0
  7  8  1  0  0  0  0
  2  8  2  0  0  0  0
  6  9  1  0  0  0  0
  7 10  1  0  0  0  0
  5 11  1  0  0  0  0
  3 15  1  0  0  0  0
 11 12  2  0  0  0  0
 11 13  2  0  0  0  0
 11 14  1  0  0  0  0
M  STY  1   1 SUP
M  SAL   1  4  11  12  13  14
M  SBL   1  1  11
M  SMT   1 SO3H
M  SAP   1  1  11   5  1
M  END
>  <cdx:groupId>
3095

>  <cdx:fragmentId>
3096

$$$$
