200268.cdx
  Mrv1902 05222410252D          

 25 27  0  0  0  0            999 V2000
    5.1247   -6.0776    0.0000 C   0  0  0  0  0  0  0  0  0  0  0  0
    5.1176   -5.2526    0.0000 C   0  0  0  0  0  0  0  0  0  0  0  0
    5.8286   -4.8340    0.0000 C   0  0  0  0  0  0  0  0  0  0  0  0
    6.5465   -5.2404    0.0000 C   0  0  0  0  0  0  0  0  0  0  0  0
    6.5536   -6.0654    0.0000 C   0  0  0  0  0  0  0  0  0  0  0  0
    5.8426   -6.4840    0.0000 C   0  0  0  0  0  0  0  0  0  0  0  0
    4.4137   -6.4962    0.0000 O   0  0  0  0  0  0  0  0  0  0  0  0
    4.3997   -4.8462    0.0000 O   0  0  0  0  0  0  0  0  0  0  0  0
    3.6887   -5.2648    0.0000 C   0  0  0  0  0  0  0  0  0  0  0  0
    7.2575   -4.8219    0.0000 C   0  0  0  0  0  0  0  0  0  0  0  0
    9.2834   -5.4947    0.0000 O   0  0  0  0  0  0  0  0  0  0  0  0
    8.7262   -4.8863    0.0000 C   0  0  0  0  0  0  0  0  0  0  0  0
    7.9754   -5.2283    0.0000 C   0  0  1  0  0  0  0  0  0  0  0  0
    8.0686   -6.0480    0.0000 C   0  0  2  0  0  0  0  0  0  0  0  0
    8.8770   -6.2126    0.0000 C   0  0  0  0  0  0  0  0  0  0  0  0
    7.4603   -6.6052    0.0000 C   0  0  0  0  0  0  0  0  0  0  0  0
    7.6387   -7.4107    0.0000 C   0  0  0  0  0  0  0  0  0  0  0  0
    8.4254   -7.6589    0.0000 C   0  0  0  0  0  0  0  0  0  0  0  0
    8.6038   -8.4644    0.0000 C   0  0  0  0  0  0  0  0  0  0  0  0
    7.9955   -9.0217    0.0000 C   0  0  0  0  0  0  0  0  0  0  0  0
    7.2087   -8.7734    0.0000 C   0  0  0  0  0  0  0  0  0  0  0  0
    7.0303   -7.9679    0.0000 C   0  0  0  0  0  0  0  0  0  0  0  0
    9.3906   -8.7127    0.0000 O   0  0  0  0  0  0  0  0  0  0  0  0
    9.9690   -8.1244    0.0000 C   0  0  0  0  0  0  0  0  0  0  0  0
    8.1739   -9.8271    0.0000 O   0  0  0  0  0  0  0  0  0  0  0  0
  1  2  1  0  0  0  0
  2  3  2  0  0  0  0
  3  4  1  0  0  0  0
  4  5  2  0  0  0  0
  5  6  1  0  0  0  0
  1  6  2  0  0  0  0
  1  7  1  0  0  0  0
  8  9  1  0  0  0  0
  2  8  1  0  0  0  0
 11 12  1  0  0  0  0
 12 13  1  0  0  0  0
 13 14  1  0  0  0  0
 14 15  1  0  0  0  0
 11 15  1  0  0  0  0
 17 18  1  0  0  0  0
 18 19  2  0  0  0  0
 19 20  1  0  0  0  0
 20 21  2  0  0  0  0
 21 22  1  0  0  0  0
 17 22  2  0  0  0  0
 23 24  1  0  0  0  0
 19 23  1  0  0  0  0
 20 25  1  0  0  0  0
 16 17  1  0  0  0  0
 14 16  1  6  0  0  0
 13 10  1  1  0  0  0
  4 10  1  0  0  0  0
M  END
>  <cdx:fragmentId>
33800

$$$$
