200230.cdx
  Mrv1902 05222410272D          

 18 17  0  0  0  0            999 V2000
    1.1580   -4.4030    0.0000 C   0  0  0  0  0  0  0  0  0  0  0  0
    1.8725   -3.9905    0.0000 C   0  0  0  0  0  0  0  0  0  0  0  0
   13.3070   -5.6457    0.0000 O   0  0  0  0  0  0  0  0  0  0  0  0
   12.5920   -6.0571    0.0000 C   0  0  0  0  0  0  0  0  0  0  0  0
   11.8775   -5.6446    0.0000 C   0  0  0  0  0  0  0  0  0  0  0  0
   11.1625   -6.0560    0.0000 C   0  0  0  0  0  0  0  0  0  0  0  0
   10.4481   -5.6435    0.0000 C   0  0  0  0  0  0  0  0  0  0  0  0
    9.7333   -5.2310    0.0000 C   0  0  0  0  0  0  0  0  0  0  0  0
    9.0189   -4.8185    0.0000 C   0  0  0  0  0  0  0  0  0  0  0  0
    2.5869   -4.4030    0.0000 C   0  0  0  0  0  0  0  0  0  0  0  0
    8.3044   -4.4060    0.0000 C   0  0  0  0  0  0  0  0  0  0  0  0
    7.5900   -3.9935    0.0000 C   0  0  0  0  0  0  0  0  0  0  0  0
    6.8750   -4.4052    0.0000 C   0  0  0  0  0  0  0  0  0  0  0  0
    6.1605   -3.9927    0.0000 C   0  0  0  0  0  0  0  0  0  0  0  0
    5.4455   -4.4041    0.0000 C   0  0  0  0  0  0  0  0  0  0  0  0
    4.7311   -3.9916    0.0000 C   0  0  0  0  0  0  0  0  0  0  0  0
    4.0158   -4.4030    0.0000 C   0  0  0  0  0  0  0  0  0  0  0  0
    3.3014   -3.9905    0.0000 C   0  0  0  0  0  0  0  0  0  0  0  0
  2  1  1  0  0  0  0
 10  2  1  0  0  0  0
  4  3  1  0  0  0  0
  5  4  1  0  0  0  0
  6  5  2  0  0  0  0
  7  6  1  0  0  0  0
  8  7  3  0  0  0  0
  9  8  1  0  0  0  0
 11  9  3  0  0  0  0
 18 10  1  0  0  0  0
 12 11  1  0  0  0  0
 13 12  2  0  0  0  0
 14 13  1  0  0  0  0
 15 14  2  0  0  0  0
 16 15  1  0  0  0  0
 17 16  1  0  0  0  0
 18 17  1  0  0  0  0
M  END
>  <cdx:groupId>
4532

>  <cdx:fragmentId>
4533

$$$$
