200236.cdx
  Mrv1902 05222410282D          

 33 35  0  0  0  0            999 V2000
    8.2085   -9.4596    0.0000 O   0  0  0  0  0  0  0  0  0  0  0  0
    8.7246  -10.1033    0.0000 C   0  0  2  0  0  0  0  0  0  0  0  0
    8.4251  -10.8721    0.0000 O   0  0  0  0  0  0  0  0  0  0  0  0
    8.9412  -11.5157    0.0000 C   0  0  1  0  0  0  0  0  0  0  0  0
    9.7566  -11.3907    0.0000 C   0  0  2  0  0  0  0  0  0  0  0  0
   10.0561  -10.6219    0.0000 C   0  0  1  0  0  0  0  0  0  0  0  0
    9.5400   -9.9783    0.0000 C   0  0  1  0  0  0  0  0  0  0  0  0
    8.6417  -12.2845    0.0000 C   0  0  0  0  0  0  0  0  0  0  0  0
   10.8715  -10.4969    0.0000 O   0  0  0  0  0  0  0  0  0  0  0  0
    9.8394   -9.2095    0.0000 O   0  0  0  0  0  0  0  0  0  0  0  0
   10.2727  -12.0344    0.0000 O   0  0  0  0  0  0  0  0  0  0  0  0
    9.1578  -12.9282    0.0000 O   0  0  0  0  0  0  0  0  0  0  0  0
    6.9371   -6.5354    0.0000 O   0  0  0  0  0  0  0  0  0  0  0  0
    8.2673   -6.0133    0.0000 C   0  0  0  0  0  0  0  0  0  0  0  0
    7.7529   -6.6583    0.0000 C   0  0  0  0  0  0  0  0  0  0  0  0
    8.1850   -8.5857    0.0000 C   0  0  0  0  0  0  0  0  0  0  0  0
    6.8949   -7.5569    0.0000 C   0  0  0  0  0  0  0  0  0  0  0  0
    5.4289  -10.6839    0.0000 H   0  0  0  0  0  0  0  0  0  0  0  0
    8.0543   -7.4263    0.0000 O   0  0  0  0  0  0  0  0  0  0  0  0
    7.5399   -8.0713    0.0000 C   0  0  0  0  0  0  0  0  0  0  0  0
    4.5367   -8.0076    0.0000 C   0  0  0  0  0  0  0  0  0  0  0  0
    6.0377  -11.1908    0.0000 C   0  0  0  0  0  0  0  0  0  0  0  0
    3.4817   -9.4596    0.0000 O   0  0  0  0  0  0  0  0  0  0  0  0
    5.5762   -9.8721    0.0000 C   0  0  2  0  0  0  0  0  0  0  0  0
    6.2212  -10.3865    0.0000 C   0  0  2  0  0  0  0  0  0  0  0  0
    7.0256  -10.2029    0.0000 C   0  0  0  0  0  0  0  0  0  0  0  0
    7.3835   -9.4596    0.0000 C   0  0  2  0  0  0  0  0  0  0  0  0
    7.0256   -8.7163    0.0000 C   0  0  2  0  0  0  0  0  0  0  0  0
    6.2212   -8.5327    0.0000 C   0  0  0  0  0  0  0  0  0  0  0  0
    5.5762   -9.0471    0.0000 C   0  0  0  0  0  0  0  0  0  0  0  0
    4.7916   -8.7922    0.0000 C   0  0  0  0  0  0  0  0  0  0  0  0
    4.3067   -9.4596    0.0000 C   0  0  0  0  0  0  0  0  0  0  0  0
    4.7916  -10.1271    0.0000 C   0  0  0  0  0  0  0  0  0  0  0  0
  2  1  1  1  0  0  0
  2  3  1  0  0  0  0
  3  4  1  0  0  0  0
  4  5  1  0  0  0  0
  5  6  1  0  0  0  0
  6  7  1  0  0  0  0
  7  2  1  0  0  0  0
  4  8  1  1  0  0  0
  6  9  1  1  0  0  0
  7 10  1  6  0  0  0
  5 11  1  6  0  0  0
 15 13  2  0  0  0  0
 15 14  1  0  0  0  0
 19 15  1  0  0  0  0
 20 16  1  0  0  0  0
 20 17  1  0  0  0  0
 24 18  1  6  0  0  0
 27  1  1  6  0  0  0
 28 20  1  6  0  0  0
 20 19  1  0  0  0  0
 31 21  1  0  0  0  0
 25 22  1  6  0  0  0
 32 23  2  0  0  0  0
 30 24  1  0  0  0  0
 33 24  1  0  0  0  0
 25 24  1  0  0  0  0
 26 25  1  0  0  0  0
 27 26  1  0  0  0  0
 28 27  1  0  0  0  0
 29 28  1  0  0  0  0
 30 29  1  0  0  0  0
 31 30  2  0  0  0  0
 32 31  1  0  0  0  0
 33 32  1  0  0  0  0
  8 12  1  0  0  0  0
M  END
>  <cdx:fragmentId>
5

$$$$
