200241.cdx
  Mrv1902 05222410252D          

 16 17  0  0  0  0            999 V2000
    5.4087   -6.9438    0.0000 C   0  0  0  0  0  0  0  0  0  0  0  0
    5.4087   -7.7687    0.0000 C   0  0  0  0  0  0  0  0  0  0  0  0
    6.1231   -8.1813    0.0000 C   0  0  0  0  0  0  0  0  0  0  0  0
    6.8376   -7.7687    0.0000 C   0  0  0  0  0  0  0  0  0  0  0  0
    6.8376   -6.9438    0.0000 C   0  0  2  0  0  0  0  0  0  0  0  0
    6.1231   -6.5313    0.0000 C   0  0  0  0  0  0  0  0  0  0  0  0
    7.5521   -8.1813    0.0000 C   0  0  0  0  0  0  0  0  0  0  0  0
    8.2666   -7.7687    0.0000 C   0  0  1  0  0  0  0  0  0  0  0  0
    8.2666   -6.9438    0.0000 C   0  0  0  0  0  0  0  0  0  0  0  0
    7.5521   -6.5313    0.0000 C   0  0  0  0  0  0  0  0  0  0  0  0
    4.6942   -6.5313    0.0000 O   0  0  0  0  0  0  0  0  0  0  0  0
    6.1231   -9.0062    0.0000 C   0  0  0  0  0  0  0  0  0  0  0  0
    8.9810   -8.1813    0.0000 C   0  0  0  0  0  0  0  0  0  0  0  0
    9.6955   -7.7687    0.0000 C   0  0  0  0  0  0  0  0  0  0  0  0
    8.9810   -9.0062    0.0000 C   0  0  0  0  0  0  0  0  0  0  0  0
    6.8376   -6.1188    0.0000 C   0  0  0  0  0  0  0  0  0  0  0  0
  1  2  1  0  0  0  0
  2  3  2  0  0  0  0
  3  4  1  0  0  0  0
  4  5  1  0  0  0  0
  5  6  1  0  0  0  0
  6  1  1  0  0  0  0
  4  7  1  0  0  0  0
  7  8  1  0  0  0  0
  8  9  1  0  0  0  0
  9 10  1  0  0  0  0
 10  5  1  0  0  0  0
  1 11  2  0  0  0  0
  3 12  1  0  0  0  0
  8 13  1  1  0  0  0
 13 14  2  0  0  0  0
 13 15  1  0  0  0  0
  5 16  1  1  0  0  0
M  END
>  <cdx:fragmentId>
5

$$$$
