200214.cdx
  Mrv1902 05222410192D          

 35 38  0  0  0  0            999 V2000
    6.2944   -9.1000    0.0000 C   0  0  2  0  0  0  0  0  0  0  0  0
    6.2944   -9.9250    0.0000 C   0  0  0  0  0  0  0  0  0  0  0  0
    5.5800  -10.3375    0.0000 C   0  0  0  0  0  0  0  0  0  0  0  0
    4.8655   -9.9250    0.0000 C   0  0  0  0  0  0  0  0  0  0  0  0
    4.1511  -10.3375    0.0000 C   0  0  0  0  0  0  0  0  0  0  0  0
    3.4366   -9.9250    0.0000 C   0  0  2  0  0  0  0  0  0  0  0  0
    3.4366   -9.1000    0.0000 C   0  0  0  0  0  0  0  0  0  0  0  0
    4.1511   -8.6875    0.0000 C   0  0  0  0  0  0  0  0  0  0  0  0
    4.8655   -9.1000    0.0000 C   0  0  2  0  0  0  0  0  0  0  0  0
    5.5800   -8.6875    0.0000 C   0  0  1  0  0  0  0  0  0  0  0  0
    5.5800   -7.8625    0.0000 C   0  0  0  0  0  0  0  0  0  0  0  0
    6.2944   -7.4500    0.0000 C   0  0  0  0  0  0  0  0  0  0  0  0
    2.7222  -10.3375    0.0000 O   0  0  0  0  0  0  0  0  0  0  0  0
    7.0089   -7.8625    0.0000 C   0  0  2  0  0  0  0  0  0  0  0  0
    7.0089   -8.6875    0.0000 C   0  0  1  0  0  0  0  0  0  0  0  0
    7.7946   -8.9452    0.0000 C   0  0  0  0  0  0  0  0  0  0  0  0
    8.2830   -8.2764    0.0000 C   0  0  0  0  0  0  0  0  0  0  0  0
    4.8655   -8.2750    0.0000 C   0  0  0  0  0  0  0  0  0  0  0  0
    7.0089   -7.0375    0.0000 C   0  0  0  0  0  0  0  0  0  0  0  0
    7.7962   -7.6084    0.0000 C   0  0  2  0  0  0  0  0  0  0  0  0
    8.2087   -6.8940    0.0000 C   0  0  1  0  0  0  0  0  0  0  0  0
    9.0345   -6.8926    0.0000 C   0  0  0  0  0  0  0  0  0  0  0  0
    7.7981   -6.1792    0.0000 C   0  0  0  0  0  0  0  0  0  0  0  0
    9.4470   -6.1779    0.0000 C   0  0  0  0  0  0  0  0  0  0  0  0
   11.4707   -4.1583    0.0000 C   0  0  0  0  0  0  0  0  0  0  0  0
   11.2558   -4.9547    0.0000 C   0  0  0  0  0  0  0  0  0  0  0  0
   10.4589   -5.1681    0.0000 C   0  0  0  0  0  0  0  0  0  0  0  0
   10.6150   -7.3445    0.0000 C   0  0  0  0  0  0  0  0  0  0  0  0
   11.6251   -6.3360    0.0000 C   0  0  0  0  0  0  0  0  0  0  0  0
   10.8271   -6.5481    0.0000 C   0  0  0  0  0  0  0  0  0  0  0  0
   10.2440   -5.9645    0.0000 C   0  0  0  0  0  0  0  0  0  0  0  0
    7.0089   -9.5125    0.0000 H   0  0  0  0  0  0  0  0  0  0  0  0
    5.5800   -9.5125    0.0000 H   0  0  0  0  0  0  0  0  0  0  0  0
    6.2944   -8.2750    0.0000 H   0  0  0  0  0  0  0  0  0  0  0  0
    8.5932   -7.3950    0.0000 H   0  0  0  0  0  0  0  0  0  0  0  0
 15  1  1  0  0  0  0
  1  2  1  0  0  0  0
  2  3  1  0  0  0  0
  3  4  2  0  0  0  0
  4  5  1  0  0  0  0
  5  6  1  0  0  0  0
  6  7  1  0  0  0  0
  7  8  1  0  0  0  0
  8  9  1  0  0  0  0
  4  9  1  0  0  0  0
  9 10  1  0  0  0  0
  1 10  1  0  0  0  0
 10 11  1  0  0  0  0
 11 12  1  0  0  0  0
 12 14  1  0  0  0  0
  6 13  1  1  0  0  0
 20 14  1  0  0  0  0
 14 15  1  0  0  0  0
 15 16  1  0  0  0  0
 16 17  1  0  0  0  0
 20 17  1  0  0  0  0
  9 18  1  1  0  0  0
 14 19  1  1  0  0  0
 20 21  1  0  0  0  0
 21 22  1  0  0  0  0
 21 23  1  6  0  0  0
 22 24  1  0  0  0  0
 24 31  1  0  0  0  0
 26 25  1  0  0  0  0
 27 26  1  0  0  0  0
 30 28  1  0  0  0  0
 30 29  1  0  0  0  0
 31 30  1  0  0  0  0
 31 27  2  0  0  0  0
 15 32  1  6  0  0  0
 10 33  1  6  0  0  0
  1 34  1  1  0  0  0
 20 35  1  6  0  0  0
M  END
>  <cdx:groupId>
3465

>  <cdx:fragmentId>
3466

$$$$
