200232.cdx
  Mrv1902 05222410262D          

 24 25  0  0  0  0            999 V2000
    6.2749   -6.5313    0.0000 C   0  0  1  0  0  0  0  0  0  0  0  0
    6.2749   -7.3563    0.0000 C   0  0  1  0  0  0  0  0  0  0  0  0
    6.9894   -7.7687    0.0000 C   0  0  2  0  0  0  0  0  0  0  0  0
    7.7039   -7.3563    0.0000 C   0  0  0  0  0  0  0  0  0  0  0  0
    7.7039   -6.5313    0.0000 C   0  0  0  0  0  0  0  0  0  0  0  0
    6.9894   -6.1188    0.0000 C   0  0  0  0  0  0  0  0  0  0  0  0
    7.1609   -8.5757    0.0000 O   0  0  0  0  0  0  0  0  0  0  0  0
    7.9814   -8.6620    0.0000 C   0  0  0  0  0  0  0  0  0  0  0  0
    8.3170   -7.9083    0.0000 C   0  0  0  0  0  0  0  0  0  0  0  0
    5.5605   -6.1188    0.0000 C   0  0  0  0  0  0  0  0  0  0  0  0
    4.8460   -6.5313    0.0000 C   0  0  0  0  0  0  0  0  0  0  0  0
    4.8460   -7.3563    0.0000 C   0  0  0  0  0  0  0  0  0  0  0  0
    5.5605   -7.7687    0.0000 C   0  0  0  0  0  0  0  0  0  0  0  0
    9.1239   -7.7368    0.0000 C   0  0  0  0  0  0  0  0  0  0  0  0
    8.3939   -9.3764    0.0000 O   0  0  0  0  0  0  0  0  0  0  0  0
    5.5605   -8.5937    0.0000 C   0  0  0  0  0  0  0  0  0  0  0  0
    6.2749   -5.7062    0.0000 C   0  0  0  0  0  0  0  0  0  0  0  0
    6.9894   -5.2938    0.0000 O   0  0  0  0  0  0  0  0  0  0  0  0
    6.9894   -4.4688    0.0000 C   0  0  0  0  0  0  0  0  0  0  0  0
    7.7039   -4.0563    0.0000 C   0  0  0  0  0  0  0  0  0  0  0  0
    6.2749   -4.0563    0.0000 O   0  0  0  0  0  0  0  0  0  0  0  0
    8.4183   -4.4688    0.0000 C   0  0  0  0  0  0  0  0  0  0  0  0
    7.7039   -3.2313    0.0000 C   0  0  0  0  0  0  0  0  0  0  0  0
    6.9894   -2.8188    0.0000 C   0  0  0  0  0  0  0  0  0  0  0  0
  1  2  1  0  0  0  0
  2  3  1  0  0  0  0
  3  4  1  0  0  0  0
  4  5  1  0  0  0  0
  5  6  1  0  0  0  0
  6  1  1  0  0  0  0
  3  7  1  6  0  0  0
  7  8  1  0  0  0  0
  8  9  1  0  0  0  0
  9  4  2  0  0  0  0
  1 10  1  6  0  0  0
 10 11  2  0  0  0  0
 12 13  2  0  0  0  0
  2 13  1  1  0  0  0
  9 14  1  0  0  0  0
  8 15  2  0  0  0  0
 13 16  1  0  0  0  0
  1 17  1  1  0  0  0
 17 18  1  0  0  0  0
 18 19  1  0  0  0  0
 19 20  1  0  0  0  0
 19 21  2  0  0  0  0
 20 22  1  0  0  0  0
 20 23  2  0  0  0  0
 23 24  1  0  0  0  0
M  END
>  <cdx:fragmentId>
5

$$$$
