200258.cdx
  Mrv1902 05222410212D          

 42 46  0  0  0  0            999 V2000
    6.8459   -5.1440    0.0000 C   0  0  0  0  0  0  0  0  0  0  0  0
    6.0628   -5.4036    0.0000 C   0  0  0  0  0  0  0  0  0  0  0  0
    8.1714   -7.8319    0.0000 H   0  0  0  0  0  0  0  0  0  0  0  0
    7.8147   -8.0666    0.0000 H   0  0  0  0  0  0  0  0  0  0  0  0
    5.3376   -7.4676    0.0000 H   0  0  0  0  0  0  0  0  0  0  0  0
    6.4257   -8.5262    0.0000 O   0  0  0  0  0  0  0  0  0  0  0  0
    5.4150   -9.8936    0.0000 O   0  0  0  0  0  0  0  0  0  0  0  0
    8.3828   -9.9081    0.0000 O   0  0  0  0  0  0  0  0  0  0  0  0
    7.5654  -10.0202    0.0000 C   0  0  0  0  0  0  0  0  0  0  0  0
    3.4791   -8.7169    0.0000 C   0  0  0  0  0  0  0  0  0  0  0  0
    8.6519   -6.0508    0.0000 C   0  0  0  0  0  0  0  0  0  0  0  0
    8.9115   -6.8339    0.0000 C   0  0  0  0  0  0  0  0  0  0  0  0
    5.1312   -6.7832    0.0000 C   0  0  0  0  0  0  0  0  0  0  0  0
    4.5642  -10.1466    0.0000 O   0  0  0  0  0  0  0  0  0  0  0  0
    5.9391   -6.9500    0.0000 C   0  0  2  0  0  0  0  0  0  0  0  0
    6.4875   -6.3336    0.0000 C   0  0  0  0  0  0  0  0  0  0  0  0
    7.2955   -6.5004    0.0000 C   0  0  1  0  0  0  0  0  0  0  0  0
    8.1035   -6.6671    0.0000 C   0  0  0  0  0  0  0  0  0  0  0  0
    7.5551   -7.2835    0.0000 C   0  0  1  0  0  0  0  0  0  0  0  0
    7.0067   -7.8998    0.0000 C   0  0  2  0  0  0  0  0  0  0  0  0
    7.3801   -8.6355    0.0000 C   0  0  0  0  0  0  0  0  0  0  0  0
    7.0377   -9.3861    0.0000 C   0  0  0  0  0  0  0  0  0  0  0  0
    6.2374   -9.5864    0.0000 C   0  0  0  0  0  0  0  0  0  0  0  0
    5.5818   -9.0856    0.0000 C   0  0  1  0  0  0  0  0  0  0  0  0
    4.8027   -9.3569    0.0000 C   0  0  0  0  0  0  0  0  0  0  0  0
    4.3039   -8.6997    0.0000 C   0  0  0  0  0  0  0  0  0  0  0  0
    4.7748   -8.0223    0.0000 C   0  0  0  0  0  0  0  0  0  0  0  0
    5.5646   -8.2608    0.0000 C   0  0  1  0  0  0  0  0  0  0  0  0
    6.1987   -7.7331    0.0000 C   0  0  2  0  0  0  0  0  0  0  0  0
    7.4623   -5.6924    0.0000 O   0  0  0  0  0  0  0  0  0  0  0  0
    7.0127   -4.3360    0.0000 O   0  0  0  0  0  0  0  0  0  0  0  0
    8.8886  -10.5599    0.0000 C   0  0  2  0  0  0  0  0  0  0  0  0
    8.5770  -11.3238    0.0000 O   0  0  0  0  0  0  0  0  0  0  0  0
    9.0827  -11.9756    0.0000 C   0  0  1  0  0  0  0  0  0  0  0  0
    9.9001  -11.8635    0.0000 C   0  0  2  0  0  0  0  0  0  0  0  0
   10.2117  -11.0996    0.0000 C   0  0  1  0  0  0  0  0  0  0  0  0
    9.7059  -10.4478    0.0000 C   0  0  1  0  0  0  0  0  0  0  0  0
    8.7711  -12.7395    0.0000 C   0  0  0  0  0  0  0  0  0  0  0  0
   11.0290  -10.9875    0.0000 O   0  0  0  0  0  0  0  0  0  0  0  0
   10.4058  -12.5153    0.0000 O   0  0  0  0  0  0  0  0  0  0  0  0
   10.0175   -9.6839    0.0000 O   0  0  0  0  0  0  0  0  0  0  0  0
    9.2769  -13.3913    0.0000 O   0  0  0  0  0  0  0  0  0  0  0  0
 19  3  1  6  0  0  0
 20  4  1  1  0  0  0
 28  5  1  6  0  0  0
 17 30  1  6  0  0  0
 29  6  1  6  0  0  0
 24  7  1  1  0  0  0
 22  9  1  0  0  0  0
  9  8  1  0  0  0  0
 26 10  1  0  0  0  0
 18 11  1  0  0  0  0
 18 12  1  0  0  0  0
 15 13  1  6  0  0  0
 25 14  2  0  0  0  0
 28 24  1  0  0  0  0
 19 17  1  0  0  0  0
 29 20  1  0  0  0  0
 29 15  1  0  0  0  0
 16 15  1  0  0  0  0
 17 16  1  0  0  0  0
 18 17  1  0  0  0  0
 19 18  1  0  0  0  0
 20 19  1  0  0  0  0
 21 20  1  0  0  0  0
 22 21  2  0  0  0  0
 23 22  1  0  0  0  0
 24 23  1  0  0  0  0
 25 24  1  0  0  0  0
 26 25  1  0  0  0  0
 27 26  2  0  0  0  0
 28 27  1  0  0  0  0
 29 28  1  0  0  0  0
  1 30  1  0  0  0  0
  1  2  1  0  0  0  0
  1 31  2  0  0  0  0
 32  8  1  1  0  0  0
 32 33  1  0  0  0  0
 33 34  1  0  0  0  0
 34 35  1  0  0  0  0
 35 36  1  0  0  0  0
 36 37  1  0  0  0  0
 37 32  1  0  0  0  0
 34 38  1  1  0  0  0
 36 39  1  1  0  0  0
 35 40  1  6  0  0  0
 37 41  1  6  0  0  0
 38 42  1  0  0  0  0
M  END
>  <cdx:groupId>
71754

>  <cdx:fragmentId>
71669

$$$$
