200274.cdx
  Mrv1902 05222410232D          

 19 20  0  0  0  0            999 V2000
    6.0225   -9.2781    0.0000 C   0  0  0  0  0  0  0  0  0  0  0  0
    6.7400   -8.8709    0.0000 C   0  0  0  0  0  0  0  0  0  0  0  0
    6.7460   -8.0459    0.0000 C   0  0  0  0  0  0  0  0  0  0  0  0
    6.0346   -7.6282    0.0000 C   0  0  0  0  0  0  0  0  0  0  0  0
    5.3171   -8.0354    0.0000 C   0  0  0  0  0  0  0  0  0  0  0  0
    5.3111   -8.8604    0.0000 C   0  0  0  0  0  0  0  0  0  0  0  0
    4.5936   -9.2676    0.0000 O   0  0  0  0  0  0  0  0  0  0  0  0
    6.0164  -10.1031    0.0000 O   0  0  0  0  0  0  0  0  0  0  0  0
    6.0407   -6.8032    0.0000 C   0  0  0  0  0  0  0  0  0  0  0  0
    6.7582   -6.3960    0.0000 C   0  0  0  0  0  0  0  0  0  0  0  0
    6.7642   -5.5710    0.0000 C   0  0  0  0  0  0  0  0  0  0  0  0
    7.4817   -5.1637    0.0000 C   0  0  0  0  0  0  0  0  0  0  0  0
    6.0528   -5.1532    0.0000 O   0  0  0  0  0  0  0  0  0  0  0  0
    8.2329   -5.5048    0.0000 C   0  0  0  0  0  0  0  0  0  0  0  0
    8.7894   -4.8958    0.0000 C   0  0  0  0  0  0  0  0  0  0  0  0
    8.3822   -4.1783    0.0000 C   0  0  0  0  0  0  0  0  0  0  0  0
    7.5740   -4.3439    0.0000 C   0  0  0  0  0  0  0  0  0  0  0  0
    8.3985   -6.3130    0.0000 O   0  0  0  0  0  0  0  0  0  0  0  0
    9.6092   -4.9881    0.0000 O   0  0  0  0  0  0  0  0  0  0  0  0
  1  2  2  0  0  0  0
  2  3  1  0  0  0  0
  3  4  2  0  0  0  0
  4  5  1  0  0  0  0
  5  6  2  0  0  0  0
  6  1  1  0  0  0  0
  6  7  1  0  0  0  0
  1  8  1  0  0  0  0
  4  9  1  0  0  0  0
  9 10  2  0  0  0  0
 10 11  1  0  0  0  0
 11 12  1  0  0  0  0
 11 13  2  0  0  0  0
 12 14  1  0  0  0  0
 14 15  1  0  0  0  0
 15 16  1  0  0  0  0
 16 17  1  0  0  0  0
 17 12  1  0  0  0  0
 14 18  1  0  0  0  0
 15 19  1  0  0  0  0
M  END
>  <cdx:fragmentId>
3790

$$$$
