200210.cdx
  Mrv1902 05222410192D          

 17 16  0  0  0  0            999 V2000
    9.0902  -12.6168    0.0000 C   0  0  0  0  0  0  0  0  0  0  0  0
    8.3758  -12.2043    0.0000 C   0  0  0  0  0  0  0  0  0  0  0  0
    7.6613  -12.6168    0.0000 C   0  0  0  0  0  0  0  0  0  0  0  0
    6.9468  -12.2043    0.0000 C   0  0  0  0  0  0  0  0  0  0  0  0
    6.9468  -11.3793    0.0000 C   0  0  0  0  0  0  0  0  0  0  0  0
    6.2324  -10.9667    0.0000 C   0  0  0  0  0  0  0  0  0  0  0  0
    6.2324  -10.1417    0.0000 C   0  0  0  0  0  0  0  0  0  0  0  0
    5.5179   -9.7292    0.0000 C   0  0  0  0  0  0  0  0  0  0  0  0
    5.5179   -8.9042    0.0000 C   0  0  0  0  0  0  0  0  0  0  0  0
    4.8034   -8.4917    0.0000 C   0  0  0  0  0  0  0  0  0  0  0  0
    4.8035   -7.6667    0.0000 C   0  0  0  0  0  0  0  0  0  0  0  0
    9.8047  -12.2043    0.0000 C   0  0  0  0  0  0  0  0  0  0  0  0
    9.8047  -11.3793    0.0000 C   0  0  0  0  0  0  0  0  0  0  0  0
   10.5192  -10.9668    0.0000 C   0  0  0  0  0  0  0  0  0  0  0  0
   10.5192  -10.1418    0.0000 C   0  0  0  0  0  0  0  0  0  0  0  0
   11.2337   -9.7293    0.0000 C   0  0  0  0  0  0  0  0  0  0  0  0
   11.2337   -8.9043    0.0000 C   0  0  0  0  0  0  0  0  0  0  0  0
  2  1  1  0  0  0  0
  2  3  1  0  0  0  0
  3  4  2  0  0  0  0
  4  5  1  0  0  0  0
  5  6  1  0  0  0  0
  6  7  1  0  0  0  0
  7  8  1  0  0  0  0
  8  9  1  0  0  0  0
  9 10  1  0  0  0  0
 10 11  2  0  0  0  0
  1 12  2  0  0  0  0
 12 13  1  0  0  0  0
 13 14  1  0  0  0  0
 14 15  1  0  0  0  0
 15 16  1  0  0  0  0
 16 17  1  0  0  0  0
M  END
>  <cdx:groupId>
3322

>  <cdx:fragmentId>
3957

$$$$
