200263.cdx
  Mrv1902 05222410222D          

 53 58  0  0  0  0            999 V2000
    5.8009   -4.5390    0.0000 C   0  0  0  0  0  0  0  0  0  0  0  0
    5.0178   -4.7986    0.0000 C   0  0  0  0  0  0  0  0  0  0  0  0
    7.1264   -7.2269    0.0000 H   0  0  0  0  0  0  0  0  0  0  0  0
    6.7697   -7.4616    0.0000 H   0  0  0  0  0  0  0  0  0  0  0  0
    4.2926   -6.8626    0.0000 H   0  0  0  0  0  0  0  0  0  0  0  0
    5.3807   -7.9212    0.0000 O   0  0  0  0  0  0  0  0  0  0  0  0
    4.3700   -9.2886    0.0000 O   0  0  0  0  0  0  0  0  0  0  0  0
    7.3378   -9.3031    0.0000 O   0  0  0  0  0  0  0  0  0  0  0  0
    6.5204   -9.4152    0.0000 C   0  0  0  0  0  0  0  0  0  0  0  0
    2.4341   -8.1119    0.0000 C   0  0  0  0  0  0  0  0  0  0  0  0
    7.6069   -5.4458    0.0000 C   0  0  0  0  0  0  0  0  0  0  0  0
    7.8665   -6.2289    0.0000 C   0  0  0  0  0  0  0  0  0  0  0  0
    4.0862   -6.1782    0.0000 C   0  0  0  0  0  0  0  0  0  0  0  0
    3.5192   -9.5416    0.0000 O   0  0  0  0  0  0  0  0  0  0  0  0
    4.8941   -6.3450    0.0000 C   0  0  2  0  0  0  0  0  0  0  0  0
    5.4425   -5.7286    0.0000 C   0  0  0  0  0  0  0  0  0  0  0  0
    6.2505   -5.8954    0.0000 C   0  0  1  0  0  0  0  0  0  0  0  0
    7.0585   -6.0621    0.0000 C   0  0  0  0  0  0  0  0  0  0  0  0
    6.5101   -6.6785    0.0000 C   0  0  1  0  0  0  0  0  0  0  0  0
    5.9617   -7.2948    0.0000 C   0  0  2  0  0  0  0  0  0  0  0  0
    6.3351   -8.0305    0.0000 C   0  0  0  0  0  0  0  0  0  0  0  0
    5.9927   -8.7811    0.0000 C   0  0  0  0  0  0  0  0  0  0  0  0
    5.1924   -8.9814    0.0000 C   0  0  0  0  0  0  0  0  0  0  0  0
    4.5368   -8.4806    0.0000 C   0  0  1  0  0  0  0  0  0  0  0  0
    3.7577   -8.7519    0.0000 C   0  0  0  0  0  0  0  0  0  0  0  0
    3.2589   -8.0947    0.0000 C   0  0  0  0  0  0  0  0  0  0  0  0
    3.7298   -7.4173    0.0000 C   0  0  0  0  0  0  0  0  0  0  0  0
    4.5196   -7.6558    0.0000 C   0  0  1  0  0  0  0  0  0  0  0  0
    5.1537   -7.1281    0.0000 C   0  0  2  0  0  0  0  0  0  0  0  0
    6.4173   -5.0874    0.0000 O   0  0  0  0  0  0  0  0  0  0  0  0
    5.9677   -3.7310    0.0000 O   0  0  0  0  0  0  0  0  0  0  0  0
    7.8436   -9.9549    0.0000 C   0  0  2  0  0  0  0  0  0  0  0  0
    7.5320  -10.7188    0.0000 O   0  0  0  0  0  0  0  0  0  0  0  0
    8.0377  -11.3706    0.0000 C   0  0  1  0  0  0  0  0  0  0  0  0
    8.8551  -11.2585    0.0000 C   0  0  2  0  0  0  0  0  0  0  0  0
    9.1667  -10.4946    0.0000 C   0  0  1  0  0  0  0  0  0  0  0  0
    8.6609   -9.8428    0.0000 C   0  0  1  0  0  0  0  0  0  0  0  0
    7.7261  -12.1345    0.0000 C   0  0  0  0  0  0  0  0  0  0  0  0
    9.9840  -10.3825    0.0000 O   0  0  0  0  0  0  0  0  0  0  0  0
    9.3608  -11.9103    0.0000 O   0  0  0  0  0  0  0  0  0  0  0  0
    8.9725   -9.0789    0.0000 O   0  0  0  0  0  0  0  0  0  0  0  0
    8.2319  -12.7863    0.0000 O   0  0  0  0  0  0  0  0  0  0  0  0
   10.1782  -11.7982    0.0000 C   0  0  0  0  0  0  0  0  0  0  0  0
   10.6839  -12.4500    0.0000 C   0  0  0  0  0  0  0  0  0  0  0  0
   10.4898  -11.0343    0.0000 O   0  0  0  0  0  0  0  0  0  0  0  0
   10.3723  -13.2139    0.0000 C   0  0  0  0  0  0  0  0  0  0  0  0
   10.8781  -13.8657    0.0000 C   0  0  0  0  0  0  0  0  0  0  0  0
   11.6955  -13.7536    0.0000 C   0  0  0  0  0  0  0  0  0  0  0  0
   12.0070  -12.9897    0.0000 C   0  0  0  0  0  0  0  0  0  0  0  0
   11.5013  -12.3379    0.0000 C   0  0  0  0  0  0  0  0  0  0  0  0
   10.5665  -14.6296    0.0000 O   0  0  0  0  0  0  0  0  0  0  0  0
   12.2012  -14.4053    0.0000 O   0  0  0  0  0  0  0  0  0  0  0  0
   12.8244  -12.8776    0.0000 O   0  0  0  0  0  0  0  0  0  0  0  0
 19  3  1  6  0  0  0
 20  4  1  1  0  0  0
 28  5  1  6  0  0  0
 17 30  1  6  0  0  0
 29  6  1  6  0  0  0
 24  7  1  1  0  0  0
 22  9  1  0  0  0  0
  9  8  1  0  0  0  0
 26 10  1  0  0  0  0
 18 11  1  0  0  0  0
 18 12  1  0  0  0  0
 15 13  1  6  0  0  0
 25 14  2  0  0  0  0
 28 24  1  0  0  0  0
 19 17  1  0  0  0  0
 29 20  1  0  0  0  0
 29 15  1  0  0  0  0
 16 15  1  0  0  0  0
 17 16  1  0  0  0  0
 18 17  1  0  0  0  0
 19 18  1  0  0  0  0
 20 19  1  0  0  0  0
 21 20  1  0  0  0  0
 22 21  2  0  0  0  0
 23 22  1  0  0  0  0
 24 23  1  0  0  0  0
 25 24  1  0  0  0  0
 26 25  1  0  0  0  0
 27 26  2  0  0  0  0
 28 27  1  0  0  0  0
 29 28  1  0  0  0  0
  1 30  1  0  0  0  0
  1  2  1  0  0  0  0
  1 31  2  0  0  0  0
 32  8  1  1  0  0  0
 32 33  1  0  0  0  0
 33 34  1  0  0  0  0
 34 35  1  0  0  0  0
 35 36  1  0  0  0  0
 36 37  1  0  0  0  0
 37 32  1  0  0  0  0
 34 38  1  1  0  0  0
 36 39  1  1  0  0  0
 35 40  1  6  0  0  0
 37 41  1  6  0  0  0
 38 42  1  0  0  0  0
 40 43  1  0  0  0  0
 43 44  1  0  0  0  0
 43 45  2  0  0  0  0
 44 46  2  0  0  0  0
 46 47  1  0  0  0  0
 47 48  2  0  0  0  0
 48 49  1  0  0  0  0
 49 50  2  0  0  0  0
 50 44  1  0  0  0  0
 47 51  1  0  0  0  0
 48 52  1  0  0  0  0
 49 53  1  0  0  0  0
M  END
>  <cdx:groupId>
71754

>  <cdx:fragmentId>
71669

$$$$
