200228.cdx
  Mrv1902 05222410192D          

 16 15  0  0  0  0            999 V2000
   11.7456   -7.8522    0.0000 C   0  0  0  0  0  0  0  0  0  0  0  0
   11.0312   -7.4397    0.0000 C   0  0  0  0  0  0  0  0  0  0  0  0
   10.2062   -7.4397    0.0000 C   0  0  0  0  0  0  0  0  0  0  0  0
    9.4917   -7.8522    0.0000 C   0  0  0  0  0  0  0  0  0  0  0  0
    8.7772   -8.2647    0.0000 C   0  0  0  0  0  0  0  0  0  0  0  0
    8.0628   -8.6772    0.0000 C   0  0  0  0  0  0  0  0  0  0  0  0
    7.3483   -9.0897    0.0000 C   0  0  0  0  0  0  0  0  0  0  0  0
    6.6338   -9.5022    0.0000 C   0  0  0  0  0  0  0  0  0  0  0  0
    5.9193   -9.0897    0.0000 C   0  0  0  0  0  0  0  0  0  0  0  0
    5.2049   -9.5022    0.0000 C   0  0  0  0  0  0  0  0  0  0  0  0
    4.4904   -9.0897    0.0000 C   0  0  0  0  0  0  0  0  0  0  0  0
    3.7759   -9.5022    0.0000 C   0  0  0  0  0  0  0  0  0  0  0  0
    3.0615   -9.0897    0.0000 C   0  0  0  0  0  0  0  0  0  0  0  0
    2.3470   -9.5022    0.0000 C   0  0  0  0  0  0  0  0  0  0  0  0
    1.6325   -9.0897    0.0000 C   0  0  0  0  0  0  0  0  0  0  0  0
   12.4601   -7.4397    0.0000 O   0  0  0  0  0  0  0  0  0  0  0  0
  1  2  1  0  0  0  0
  2  3  2  0  0  0  0
  3  4  1  0  0  0  0
  4  5  3  0  0  0  0
  5  6  1  0  0  0  0
  6  7  3  0  0  0  0
  7  8  1  0  0  0  0
  8  9  2  0  0  0  0
  9 10  1  0  0  0  0
 10 11  2  0  0  0  0
 11 12  1  0  0  0  0
 12 13  1  0  0  0  0
 13 14  1  0  0  0  0
 14 15  1  0  0  0  0
  1 16  1  0  0  0  0
M  END
>  <cdx:fragmentId>
5

$$$$
