200225.cdx
  Mrv1902 05222410272D          

 16 15  0  0  0  0            999 V2000
    1.8727   -6.2912    0.0000 C   0  0  0  0  0  0  0  0  0  0  0  0
    2.5872   -5.8787    0.0000 C   0  0  0  0  0  0  0  0  0  0  0  0
    3.3025   -6.2901    0.0000 C   0  0  0  0  0  0  0  0  0  0  0  0
    4.0169   -5.8776    0.0000 C   0  0  0  0  0  0  0  0  0  0  0  0
    4.7319   -6.2890    0.0000 C   0  0  0  0  0  0  0  0  0  0  0  0
    5.4464   -5.8765    0.0000 C   0  0  0  0  0  0  0  0  0  0  0  0
    6.1614   -6.2881    0.0000 C   0  0  0  0  0  0  0  0  0  0  0  0
    6.8758   -5.8756    0.0000 C   0  0  0  0  0  0  0  0  0  0  0  0
    1.1583   -5.8787    0.0000 C   0  0  0  0  0  0  0  0  0  0  0  0
    7.5905   -5.4631    0.0000 C   0  0  0  0  0  0  0  0  0  0  0  0
    8.3050   -5.0506    0.0000 C   0  0  0  0  0  0  0  0  0  0  0  0
    9.0194   -4.6381    0.0000 C   0  0  0  0  0  0  0  0  0  0  0  0
    9.7339   -4.2256    0.0000 C   0  0  0  0  0  0  0  0  0  0  0  0
   10.4489   -4.6370    0.0000 C   0  0  0  0  0  0  0  0  0  0  0  0
   11.1633   -4.2245    0.0000 C   0  0  0  0  0  0  0  0  0  0  0  0
   11.8783   -4.6359    0.0000 O   0  0  0  0  0  0  0  0  0  0  0  0
  1  2  1  0  0  0  0
  2  3  1  0  0  0  0
  3  4  1  0  0  0  0
  4  5  2  0  0  0  0
  5  6  1  0  0  0  0
  6  7  2  0  0  0  0
  7  8  1  0  0  0  0
  1  9  1  0  0  0  0
  8 10  3  0  0  0  0
 10 11  1  0  0  0  0
 11 12  3  0  0  0  0
 12 13  1  0  0  0  0
 13 14  2  0  0  0  0
 14 15  1  0  0  0  0
 15 16  1  0  0  0  0
M  END
>  <cdx:groupId>
4532

>  <cdx:fragmentId>
4533

$$$$
