200282.cdx
  Mrv1902 05222410252D          

 33 34  0  0  0  0            999 V2000
    7.1388   -6.2138    0.0000 C   0  0  2  0  0  0  0  0  0  0  0  0
    7.3522   -5.4173    0.0000 C   0  0  1  0  0  0  0  0  0  0  0  0
    6.8637   -4.7524    0.0000 C   0  0  0  0  0  0  0  0  0  0  0  0
    5.5015   -5.3437    0.0000 C   0  0  0  0  0  0  0  0  0  0  0  0
    5.6554   -6.1542    0.0000 C   0  0  0  0  0  0  0  0  0  0  0  0
    6.3844   -6.5411    0.0000 C   0  0  1  0  0  0  0  0  0  0  0  0
    4.6829   -5.2405    0.0000 C   0  0  0  0  0  0  0  0  0  0  0  0
    4.3308   -5.9863    0.0000 C   0  0  2  0  0  0  0  0  0  0  0  0
    4.9320   -6.5517    0.0000 C   0  0  0  0  0  0  0  0  0  0  0  0
    7.7221   -6.7972    0.0000 C   0  0  0  0  0  0  0  0  0  0  0  0
    8.1772   -5.4173    0.0000 O   0  0  0  0  0  0  0  0  0  0  0  0
    8.5897   -4.7028    0.0000 C   0  0  0  0  0  0  0  0  0  0  0  0
    9.4129   -4.7028    0.0000 C   0  0  0  0  0  0  0  0  0  0  0  0
    9.8247   -3.9871    0.0000 C   0  0  0  0  0  0  0  0  0  0  0  0
    8.1765   -3.9897    0.0000 O   0  0  0  0  0  0  0  0  0  0  0  0
    9.8269   -5.4172    0.0000 C   0  0  0  0  0  0  0  0  0  0  0  0
   10.6519   -5.4172    0.0000 C   0  0  0  0  0  0  0  0  0  0  0  0
   11.0654   -6.1310    0.0000 O   0  0  0  0  0  0  0  0  0  0  0  0
    6.4625   -7.3598    0.0000 O   0  0  0  0  0  0  0  0  0  0  0  0
    7.2652   -7.5384    0.0000 C   0  0  0  0  0  0  0  0  0  0  0  0
    7.4788   -8.3353    0.0000 O   0  0  0  0  0  0  0  0  0  0  0  0
    8.5190   -7.0107    0.0000 C   0  0  0  0  0  0  0  0  0  0  0  0
    4.7184   -7.3486    0.0000 C   0  0  0  0  0  0  0  0  0  0  0  0
    3.5058   -5.9863    0.0000 O   0  0  0  0  0  0  0  0  0  0  0  0
    6.0397   -4.7201    0.0000 C   0  0  0  0  0  0  0  0  0  0  0  0
    5.8261   -3.9232    0.0000 C   0  0  0  0  0  0  0  0  0  0  0  0
    3.0933   -6.7008    0.0000 C   0  0  0  0  0  0  0  0  0  0  0  0
    2.2683   -6.7008    0.0000 C   0  0  0  0  0  0  0  0  0  0  0  0
    3.5058   -7.4153    0.0000 O   0  0  0  0  0  0  0  0  0  0  0  0
    5.0292   -3.7097    0.0000 O   0  0  0  0  0  0  0  0  0  0  0  0
    4.8157   -2.9128    0.0000 C   0  0  0  0  0  0  0  0  0  0  0  0
    4.0188   -2.6993    0.0000 C   0  0  0  0  0  0  0  0  0  0  0  0
    5.3991   -2.3295    0.0000 O   0  0  0  0  0  0  0  0  0  0  0  0
  1  2  1  0  0  0  0
  2  3  1  0  0  0  0
  3 25  1  0  0  0  0
 25  4  2  0  0  0  0
  5  6  1  0  0  0  0
  1  6  1  0  0  0  0
  4  7  1  0  0  0  0
  7  8  1  0  0  0  0
  8  9  1  0  0  0  0
  5  9  2  0  0  0  0
  1 10  1  1  0  0  0
  2 11  1  1  0  0  0
 11 12  1  0  0  0  0
 12 13  1  0  0  0  0
 13 14  1  0  0  0  0
 12 15  2  0  0  0  0
 13 16  2  0  0  0  0
 16 17  1  0  0  0  0
 17 18  1  0  0  0  0
  6 19  1  6  0  0  0
 19 20  1  0  0  0  0
 20 10  1  0  0  0  0
 20 21  2  0  0  0  0
 10 22  2  0  0  0  0
  9 23  1  0  0  0  0
  8 24  1  6  0  0  0
 25 26  1  0  0  0  0
 24 27  1  0  0  0  0
 27 28  1  0  0  0  0
 27 29  2  0  0  0  0
 26 30  1  0  0  0  0
 30 31  1  0  0  0  0
 31 32  1  0  0  0  0
 31 33  2  0  0  0  0
M  END
>  <cdx:groupId>
3968

>  <cdx:fragmentId>
3969

$$$$
