200250.cdx
  Mrv1902 05222410232D          

 59 63  0  0  0  0            999 V2000
    2.0185   -6.6084    0.0000 C   0  0  0  0  0  0  0  0  0  0  0  0
    2.0185   -7.4334    0.0000 C   0  0  0  0  0  0  0  0  0  0  0  0
    2.7330   -7.8459    0.0000 C   0  0  0  0  0  0  0  0  0  0  0  0
    3.4475   -7.4334    0.0000 C   0  0  0  0  0  0  0  0  0  0  0  0
    2.7330   -6.1959    0.0000 C   0  0  0  0  0  0  0  0  0  0  0  0
    1.3041   -6.1959    0.0000 O   0  0  0  0  0  0  0  0  0  0  0  0
    0.5896   -5.7834    0.0000 C   0  0  0  0  0  0  0  0  0  0  0  0
    1.3041   -7.8459    0.0000 O   0  0  0  0  0  0  0  0  0  0  0  0
    3.4475   -6.6084    0.0000 C   0  0  0  0  0  0  0  0  0  0  0  0
    4.1619   -6.1959    0.0000 C   0  0  0  0  0  0  0  0  0  0  0  0
    4.8770   -6.6073    0.0000 C   0  0  0  0  0  0  0  0  0  0  0  0
    5.5915   -6.1948    0.0000 C   0  0  0  0  0  0  0  0  0  0  0  0
    6.3066   -6.6063    0.0000 O   0  0  0  0  0  0  0  0  0  0  0  0
    5.5915   -5.3698    0.0000 O   0  0  0  0  0  0  0  0  0  0  0  0
    9.1778   -4.9330    0.0000 O   0  0  0  0  0  0  0  0  0  0  0  0
    9.8923   -5.3455    0.0000 C   0  0  0  0  0  0  0  0  0  0  0  0
   10.6068   -4.9330    0.0000 C   0  0  0  0  0  0  0  0  0  0  0  0
   11.3218   -5.3444    0.0000 C   0  0  0  0  0  0  0  0  0  0  0  0
   11.3218   -6.1694    0.0000 C   0  0  0  0  0  0  0  0  0  0  0  0
   12.0363   -6.5819    0.0000 C   0  0  0  0  0  0  0  0  0  0  0  0
   12.7508   -6.1694    0.0000 C   0  0  0  0  0  0  0  0  0  0  0  0
   12.7508   -5.3444    0.0000 C   0  0  0  0  0  0  0  0  0  0  0  0
   12.0363   -4.9319    0.0000 C   0  0  0  0  0  0  0  0  0  0  0  0
   13.4652   -4.9319    0.0000 O   0  0  0  0  0  0  0  0  0  0  0  0
   13.4652   -6.5819    0.0000 O   0  0  0  0  0  0  0  0  0  0  0  0
    2.0286   -4.1185    0.0000 C   0  0  0  0  0  0  0  0  0  0  0  0
    2.0286   -4.9435    0.0000 C   0  0  0  0  0  0  0  0  0  0  0  0
    2.7431   -5.3560    0.0000 C   0  0  0  0  0  0  0  0  0  0  0  0
    3.4576   -4.9435    0.0000 C   0  0  0  0  0  0  0  0  0  0  0  0
    2.7431   -3.7060    0.0000 C   0  0  0  0  0  0  0  0  0  0  0  0
    1.3142   -3.7060    0.0000 O   0  0  0  0  0  0  0  0  0  0  0  0
    1.3142   -5.3560    0.0000 O   0  0  0  0  0  0  0  0  0  0  0  0
    3.4576   -4.1185    0.0000 C   0  0  0  0  0  0  0  0  0  0  0  0
    4.1721   -3.7060    0.0000 C   0  0  0  0  0  0  0  0  0  0  0  0
    4.8871   -4.1175    0.0000 C   0  0  0  0  0  0  0  0  0  0  0  0
    5.6016   -3.7050    0.0000 C   0  0  0  0  0  0  0  0  0  0  0  0
    6.3167   -4.1164    0.0000 O   0  0  0  0  0  0  0  0  0  0  0  0
    5.6016   -2.8800    0.0000 O   0  0  0  0  0  0  0  0  0  0  0  0
    7.0352   -5.3567    0.0000 C   0  0  2  0  0  0  0  0  0  0  0  0
    7.0352   -6.1817    0.0000 C   0  0  2  0  0  0  0  0  0  0  0  0
    7.7497   -6.5942    0.0000 C   0  0  1  0  0  0  0  0  0  0  0  0
    8.4641   -6.1817    0.0000 C   0  0  2  0  0  0  0  0  0  0  0  0
    8.4641   -5.3567    0.0000 C   0  0  1  0  0  0  0  0  0  0  0  0
    7.7497   -4.9442    0.0000 O   0  0  0  0  0  0  0  0  0  0  0  0
    7.7497   -7.4192    0.0000 O   0  0  0  0  0  0  0  0  0  0  0  0
    6.3207   -4.9442    0.0000 C   0  0  0  0  0  0  0  0  0  0  0  0
    9.1786   -6.5942    0.0000 O   0  0  0  0  0  0  0  0  0  0  0  0
    7.0352   -7.8317    0.0000 C   0  0  2  0  0  0  0  0  0  0  0  0
    6.3207   -7.4192    0.0000 O   0  0  0  0  0  0  0  0  0  0  0  0
    5.6063   -7.8317    0.0000 C   0  0  2  0  0  0  0  0  0  0  0  0
    5.6063   -8.6567    0.0000 C   0  0  1  0  0  0  0  0  0  0  0  0
    6.3207   -9.0692    0.0000 C   0  0  2  0  0  0  0  0  0  0  0  0
    7.0352   -8.6567    0.0000 C   0  0  1  0  0  0  0  0  0  0  0  0
    4.8918   -9.0692    0.0000 O   0  0  0  0  0  0  0  0  0  0  0  0
    4.8918   -7.4192    0.0000 C   0  0  0  0  0  0  0  0  0  0  0  0
    6.3207   -9.8942    0.0000 O   0  0  0  0  0  0  0  0  0  0  0  0
    7.7497   -9.0692    0.0000 O   0  0  0  0  0  0  0  0  0  0  0  0
   14.1797   -4.5194    0.0000 C   0  0  0  0  0  0  0  0  0  0  0  0
    0.5997   -3.2935    0.0000 C   0  0  0  0  0  0  0  0  0  0  0  0
  1  2  2  0  0  0  0
  2  3  1  0  0  0  0
  3  4  2  0  0  0  0
  4  9  1  0  0  0  0
  9  5  2  0  0  0  0
  5  1  1  0  0  0  0
  1  6  1  0  0  0  0
  2  8  1  0  0  0  0
  9 10  1  0  0  0  0
 10 11  2  0  0  0  0
 11 12  1  0  0  0  0
 12 13  1  0  0  0  0
 12 14  2  0  0  0  0
 15 16  1  0  0  0  0
 16 17  1  0  0  0  0
 17 18  1  0  0  0  0
 18 19  2  0  0  0  0
 19 20  1  0  0  0  0
 20 21  2  0  0  0  0
 21 22  1  0  0  0  0
 22 23  2  0  0  0  0
 23 18  1  0  0  0  0
 22 24  1  0  0  0  0
 21 25  1  0  0  0  0
 26 27  2  0  0  0  0
 27 28  1  0  0  0  0
 28 29  2  0  0  0  0
 29 33  1  0  0  0  0
 33 30  2  0  0  0  0
 30 26  1  0  0  0  0
 26 31  1  0  0  0  0
 27 32  1  0  0  0  0
 33 34  1  0  0  0  0
 34 35  2  0  0  0  0
 35 36  1  0  0  0  0
 36 37  1  0  0  0  0
 36 38  2  0  0  0  0
 39 40  1  0  0  0  0
 40 41  1  0  0  0  0
 41 42  1  0  0  0  0
 42 43  1  0  0  0  0
 43 44  1  0  0  0  0
 44 39  1  0  0  0  0
 41 45  1  1  0  0  0
 39 46  1  1  0  0  0
 42 47  1  6  0  0  0
 48 45  1  1  0  0  0
 48 49  1  0  0  0  0
 49 50  1  0  0  0  0
 50 51  1  0  0  0  0
 51 52  1  0  0  0  0
 52 53  1  0  0  0  0
 53 48  1  0  0  0  0
 51 54  1  1  0  0  0
 50 55  1  6  0  0  0
 52 56  1  6  0  0  0
 53 57  1  6  0  0  0
 46 37  1  0  0  0  0
 43 15  1  1  0  0  0
 40 13  1  6  0  0  0
  6  7  1  0  0  0  0
 24 58  1  0  0  0  0
 31 59  1  0  0  0  0
M  STY  3   1 SUP   2 SUP   3 SUP
M  SAL   1  2   6   7
M  SBL   1  1   7
M  SMT   1 OCH3
M  SAP   1  1   6   1  1
M  SAL   2  2  24  58
M  SBL   2  1  23
M  SMT   2 OCH3
M  SAP   2  1  24  22  1
M  SAL   3  2  31  59
M  SBL   3  1  31
M  SMT   3 OCH3
M  SAP   3  1  31  26  1
M  END
>  <cdx:fragmentId>
1763

$$$$
