200276.cdx
  Mrv1902 05222410222D          

 57 63  0  0  0  0            999 V2000
   11.5230   -9.4050    0.0000 C   0  0  0  0  0  0  0  0  0  0  0  0
   11.5230  -10.2300    0.0000 C   0  0  1  0  0  0  0  0  0  0  0  0
   12.2375  -10.6425    0.0000 C   0  0  1  0  0  0  0  0  0  0  0  0
   12.9519  -10.2300    0.0000 C   0  0  1  0  0  0  0  0  0  0  0  0
   12.9519   -9.4050    0.0000 C   0  0  2  0  0  0  0  0  0  0  0  0
   12.2375   -8.9925    0.0000 C   0  0  0  0  0  0  0  0  0  0  0  0
   13.6664  -10.6425    0.0000 C   0  0  0  0  0  0  0  0  0  0  0  0
   14.3808  -10.2300    0.0000 C   0  0  0  0  0  0  0  0  0  0  0  0
   14.3808   -9.4050    0.0000 C   0  0  2  0  0  0  0  0  0  0  0  0
   13.6664   -8.9925    0.0000 C   0  0  2  0  0  0  0  0  0  0  0  0
   15.0953   -8.9925    0.0000 C   0  0  1  0  0  0  0  0  0  0  0  0
   15.0953   -8.1675    0.0000 C   0  0  0  0  0  0  0  0  0  0  0  0
   14.3808   -7.7550    0.0000 C   0  0  0  0  0  0  0  0  0  0  0  0
   13.6664   -8.1675    0.0000 C   0  0  0  0  0  0  0  0  0  0  0  0
   15.8097   -9.4050    0.0000 C   0  0  0  0  0  0  0  0  0  0  0  0
   16.5242   -8.9925    0.0000 C   0  0  0  0  0  0  0  0  0  0  0  0
   16.5242   -8.1675    0.0000 C   0  0  2  0  0  0  0  0  0  0  0  0
   15.8097   -7.7550    0.0000 C   0  0  1  0  0  0  0  0  0  0  0  0
   17.2389   -7.7550    0.0000 C   0  0  0  0  0  0  0  0  0  0  0  0
   17.2389   -6.9300    0.0000 C   0  0  0  0  0  0  0  0  0  0  0  0
   16.5242   -6.5175    0.0000 C   0  0  1  0  0  0  0  0  0  0  0  0
   15.8097   -6.9300    0.0000 C   0  0  0  0  0  0  0  0  0  0  0  0
   16.1117   -5.8030    0.0000 C   0  0  0  0  0  0  0  0  0  0  0  0
   16.9367   -5.8030    0.0000 C   0  0  0  0  0  0  0  0  0  0  0  0
   15.8097   -8.5800    0.0000 H   0  0  0  0  0  0  0  0  0  0  0  0
   15.0953   -9.8175    0.0000 C   0  0  0  0  0  0  0  0  0  0  0  0
   14.3808   -8.5800    0.0000 C   0  0  0  0  0  0  0  0  0  0  0  0
   13.6664   -9.8175    0.0000 H   0  0  0  0  0  0  0  0  0  0  0  0
   12.9519   -8.5800    0.0000 C   0  0  0  0  0  0  0  0  0  0  0  0
   12.9519  -11.0550    0.0000 H   0  0  0  0  0  0  0  0  0  0  0  0
   11.8250  -11.3569    0.0000 C   0  0  0  0  0  0  0  0  0  0  0  0
   12.6500  -11.3569    0.0000 C   0  0  0  0  0  0  0  0  0  0  0  0
   10.8086  -10.6425    0.0000 O   0  0  0  0  0  0  0  0  0  0  0  0
   17.2389   -8.5800    0.0000 C   0  0  0  0  0  0  0  0  0  0  0  0
   17.9534   -8.1675    0.0000 O   0  0  0  0  0  0  0  0  0  0  0  0
   17.2389   -9.4050    0.0000 O   0  0  0  0  0  0  0  0  0  0  0  0
   10.0941  -10.2300    0.0000 C   0  0  2  0  0  0  0  0  0  0  0  0
   10.0941   -9.4050    0.0000 O   0  0  0  0  0  0  0  0  0  0  0  0
    9.3797   -8.9925    0.0000 C   0  0  0  0  0  0  0  0  0  0  0  0
    8.6652   -9.4050    0.0000 C   0  0  1  0  0  0  0  0  0  0  0  0
    8.6652  -10.2300    0.0000 C   0  0  1  0  0  0  0  0  0  0  0  0
    9.3797  -10.6425    0.0000 C   0  0  1  0  0  0  0  0  0  0  0  0
    9.3797  -11.4675    0.0000 O   0  0  0  0  0  0  0  0  0  0  0  0
    7.9508  -10.6425    0.0000 O   0  0  0  0  0  0  0  0  0  0  0  0
    7.9508   -8.9925    0.0000 O   0  0  0  0  0  0  0  0  0  0  0  0
    8.6652  -11.8800    0.0000 C   0  0  2  0  0  0  0  0  0  0  0  0
    7.9508  -11.4675    0.0000 O   0  0  0  0  0  0  0  0  0  0  0  0
    7.2363  -11.8800    0.0000 C   0  0  2  0  0  0  0  0  0  0  0  0
    7.2363  -12.7050    0.0000 C   0  0  1  0  0  0  0  0  0  0  0  0
    7.9508  -13.1175    0.0000 C   0  0  2  0  0  0  0  0  0  0  0  0
    8.6652  -12.7050    0.0000 C   0  0  1  0  0  0  0  0  0  0  0  0
    6.5218  -13.1175    0.0000 O   0  0  0  0  0  0  0  0  0  0  0  0
    7.9508  -13.9425    0.0000 O   0  0  0  0  0  0  0  0  0  0  0  0
    9.3797  -13.1175    0.0000 O   0  0  0  0  0  0  0  0  0  0  0  0
    6.5218  -11.4675    0.0000 C   0  0  0  0  0  0  0  0  0  0  0  0
   12.2375  -12.0714    0.0000 O   0  0  0  0  0  0  0  0  0  0  0  0
   16.5242   -5.0886    0.0000 O   0  0  0  0  0  0  0  0  0  0  0  0
  1  2  1  0  0  0  0
  2  3  1  0  0  0  0
  3  4  1  0  0  0  0
  4  5  1  0  0  0  0
  5  6  1  0  0  0  0
  6  1  1  0  0  0  0
  4  7  1  0  0  0  0
  7  8  1  0  0  0  0
  8  9  1  0  0  0  0
  9 10  1  0  0  0  0
 10  5  1  0  0  0  0
  9 11  1  0  0  0  0
 11 12  1  0  0  0  0
 12 13  2  0  0  0  0
 13 14  1  0  0  0  0
 14 10  1  0  0  0  0
 11 15  1  0  0  0  0
 15 16  1  0  0  0  0
 16 17  1  0  0  0  0
 17 18  1  0  0  0  0
 18 12  1  0  0  0  0
 17 19  1  0  0  0  0
 19 20  1  0  0  0  0
 20 21  1  0  0  0  0
 21 22  1  0  0  0  0
 22 18  1  0  0  0  0
 21 23  1  1  0  0  0
 21 24  1  6  0  0  0
 18 25  1  1  0  0  0
 11 26  1  6  0  0  0
  9 27  1  1  0  0  0
 10 28  1  6  0  0  0
  5 29  1  1  0  0  0
  4 30  1  6  0  0  0
  3 31  1  1  0  0  0
  3 32  1  6  0  0  0
  2 33  1  1  0  0  0
 17 34  1  1  0  0  0
 34 35  1  0  0  0  0
 34 36  2  0  0  0  0
 37 33  1  1  0  0  0
 37 38  1  0  0  0  0
 38 39  1  0  0  0  0
 39 40  1  0  0  0  0
 40 41  1  0  0  0  0
 41 42  1  0  0  0  0
 42 37  1  0  0  0  0
 42 43  1  6  0  0  0
 41 44  1  1  0  0  0
 40 45  1  1  0  0  0
 46 43  1  1  0  0  0
 46 47  1  0  0  0  0
 47 48  1  0  0  0  0
 48 49  1  0  0  0  0
 49 50  1  0  0  0  0
 50 51  1  0  0  0  0
 51 46  1  0  0  0  0
 49 52  1  1  0  0  0
 50 53  1  6  0  0  0
 51 54  1  6  0  0  0
 48 55  1  6  0  0  0
 32 56  1  0  0  0  0
 24 57  1  0  0  0  0
M  END
>  <cdx:fragmentId>
5

$$$$
