200205.cdx
  Mrv1902 05222410192D          

 12 12  0  0  0  0            999 V2000
    4.6698   -3.3413    0.0000 C   0  0  0  0  0  0  0  0  0  0  0  0
    4.6698   -4.1662    0.0000 C   0  0  0  0  0  0  0  0  0  0  0  0
    6.1003   -3.3413    0.0000 C   0  0  0  0  0  0  0  0  0  0  0  0
    5.3842   -2.9279    0.0000 C   0  0  0  0  0  0  0  0  0  0  0  0
    3.2425   -4.1662    0.0000 O   0  0  0  0  0  0  0  0  0  0  0  0
    3.9556   -4.5765    0.0000 C   0  0  0  0  0  0  0  0  0  0  0  0
    2.5281   -4.5788    0.0000 C   0  0  0  0  0  0  0  0  0  0  0  0
    6.8148   -2.9288    0.0000 O   0  0  0  0  0  0  0  0  0  0  0  0
    6.1003   -4.1662    0.0000 C   0  0  0  0  0  0  0  0  0  0  0  0
    5.3845   -4.5788    0.0000 O   0  0  0  0  0  0  0  0  0  0  0  0
    5.3842   -2.1029    0.0000 O   0  0  0  0  0  0  0  0  0  0  0  0
    3.9556   -5.4015    0.0000 O   0  0  0  0  0  0  0  0  0  0  0  0
  1  2  2  0  0  0  0
  3  4  1  0  0  0  0
  1  4  1  0  0  0  0
  5  6  1  0  0  0  0
  2  6  1  0  0  0  0
  5  7  1  0  0  0  0
  3  8  1  0  0  0  0
  3  9  2  0  0  0  0
  2 10  1  0  0  0  0
 10  9  1  0  0  0  0
  4 11  2  0  0  0  0
  6 12  2  0  0  0  0
M  END
>  <cdx:groupId>
3095

>  <cdx:fragmentId>
3096

$$$$
