200247.cdx
  Mrv1902 05222410242D          

 30 33  0  0  0  0            999 V2000
    4.5114   -7.4495    0.0000 C   0  0  0  0  0  0  0  0  0  0  0  0
    4.5114   -6.6245    0.0000 C   0  0  0  0  0  0  0  0  0  0  0  0
    3.7969   -6.2114    0.0000 C   0  0  0  0  0  0  0  0  0  0  0  0
    3.0811   -6.6245    0.0000 C   0  0  0  0  0  0  0  0  0  0  0  0
    3.0811   -7.4495    0.0000 C   0  0  0  0  0  0  0  0  0  0  0  0
    3.7969   -7.8628    0.0000 C   0  0  0  0  0  0  0  0  0  0  0  0
    5.2258   -7.8614    0.0000 C   0  0  0  0  0  0  0  0  0  0  0  0
    5.9389   -7.4495    0.0000 C   0  0  0  0  0  0  0  0  0  0  0  0
    5.9389   -6.6245    0.0000 C   0  0  0  0  0  0  0  0  0  0  0  0
    5.2258   -6.2142    0.0000 O   0  0  0  0  0  0  0  0  0  0  0  0
    5.2258   -8.6864    0.0000 O   0  0  0  0  0  0  0  0  0  0  0  0
    6.6533   -7.8620    0.0000 O   0  0  0  0  0  0  0  0  0  0  0  0
    2.3666   -6.2120    0.0000 O   0  0  0  0  0  0  0  0  0  0  0  0
    6.6533   -6.2120    0.0000 C   0  0  0  0  0  0  0  0  0  0  0  0
    7.3678   -6.6245    0.0000 C   0  0  0  0  0  0  0  0  0  0  0  0
    8.0822   -6.2120    0.0000 C   0  0  0  0  0  0  0  0  0  0  0  0
    8.0822   -5.3870    0.0000 C   0  0  0  0  0  0  0  0  0  0  0  0
    7.3678   -4.9745    0.0000 C   0  0  0  0  0  0  0  0  0  0  0  0
    6.6533   -5.3870    0.0000 C   0  0  0  0  0  0  0  0  0  0  0  0
   10.2160   -6.6225    0.0000 C   0  0  1  0  0  0  0  0  0  0  0  0
   10.9313   -6.2114    0.0000 C   0  0  1  0  0  0  0  0  0  0  0  0
   10.9326   -5.3864    0.0000 C   0  0  2  0  0  0  0  0  0  0  0  0
   10.2190   -4.9725    0.0000 C   0  0  2  0  0  0  0  0  0  0  0  0
    9.5037   -5.3837    0.0000 C   0  0  1  0  0  0  0  0  0  0  0  0
    9.5021   -6.2087    0.0000 O   0  0  0  0  0  0  0  0  0  0  0  0
    8.7901   -4.9698    0.0000 O   0  0  0  0  0  0  0  0  0  0  0  0
   11.6449   -6.6256    0.0000 O   0  0  0  0  0  0  0  0  0  0  0  0
   10.2143   -7.4475    0.0000 C   0  0  0  0  0  0  0  0  0  0  0  0
   11.6479   -4.9756    0.0000 O   0  0  0  0  0  0  0  0  0  0  0  0
   10.2206   -4.1475    0.0000 O   0  0  0  0  0  0  0  0  0  0  0  0
  1  2  1  0  0  0  0
  2  3  2  0  0  0  0
  3  4  1  0  0  0  0
  4  5  2  0  0  0  0
  5  6  1  0  0  0  0
  1  6  2  0  0  0  0
  1  7  1  0  0  0  0
  7  8  1  0  0  0  0
  8  9  1  0  0  0  0
  9 10  1  0  0  0  0
  2 10  1  0  0  0  0
  7 11  2  0  0  0  0
  8 12  1  0  0  0  0
  9 14  1  0  0  0  0
  4 13  1  0  0  0  0
 14 15  2  0  0  0  0
 15 16  1  0  0  0  0
 16 17  2  0  0  0  0
 17 18  1  0  0  0  0
 18 19  2  0  0  0  0
 19 14  1  0  0  0  0
 20 21  1  0  0  0  0
 21 22  1  0  0  0  0
 22 23  1  0  0  0  0
 23 24  1  0  0  0  0
 24 25  1  0  0  0  0
 25 20  1  0  0  0  0
 24 26  1  1  0  0  0
 21 27  1  1  0  0  0
 20 28  1  6  0  0  0
 22 29  1  6  0  0  0
 23 30  1  6  0  0  0
 17 26  1  0  0  0  0
M  END
>  <cdx:groupId>
4461

>  <cdx:fragmentId>
4462

$$$$
