20036.cdx
  Mrv1902 05222410222D          

 11 10  0  0  0  0            999 V2000
    4.3769   -9.6176    0.0000 C   0  0  0  0  0  0  0  0  0  0  0  0
    5.0914   -9.2051    0.0000 C   0  0  0  0  0  0  0  0  0  0  0  0
    5.8058   -9.6176    0.0000 C   0  0  0  0  0  0  0  0  0  0  0  0
    6.5203   -9.2051    0.0000 C   0  0  0  0  0  0  0  0  0  0  0  0
    7.2348   -9.6176    0.0000 C   0  0  0  0  0  0  0  0  0  0  0  0
    7.9493   -9.2051    0.0000 C   0  0  0  0  0  0  0  0  0  0  0  0
    8.6637   -9.6176    0.0000 C   0  0  0  0  0  0  0  0  0  0  0  0
    9.3782   -9.2051    0.0000 C   0  0  0  0  0  0  0  0  0  0  0  0
   10.0927   -9.6176    0.0000 C   0  0  0  0  0  0  0  0  0  0  0  0
    9.3782   -8.3801    0.0000 C   0  0  0  0  0  0  0  0  0  0  0  0
    5.0914   -8.3801    0.0000 O   0  0  0  0  0  0  0  0  0  0  0  0
  2  1  1  0  0  0  0
  3  2  1  0  0  0  0
  4  3  1  0  0  0  0
  5  4  1  0  0  0  0
  6  5  1  0  0  0  0
  7  6  1  0  0  0  0
  8  7  1  0  0  0  0
  9  8  1  0  0  0  0
  8 10  1  0  0  0  0
  2 11  2  0  0  0  0
M  END
>  <cdx:fragmentId>
3

$$$$
