20031.cdx
  Mrv1902 05222410202D          

 10 10  0  0  0  0            999 V2000
    6.6049   -7.5075    0.0000 C   0  0  0  0  0  0  0  0  0  0  0  0
    6.6049   -8.3325    0.0000 C   0  0  0  0  0  0  0  0  0  0  0  0
    7.3194   -8.7450    0.0000 C   0  0  0  0  0  0  0  0  0  0  0  0
    8.0339   -8.3325    0.0000 C   0  0  0  0  0  0  0  0  0  0  0  0
    8.0339   -7.5075    0.0000 C   0  0  0  0  0  0  0  0  0  0  0  0
    7.3194   -7.0950    0.0000 C   0  0  0  0  0  0  0  0  0  0  0  0
    7.3194   -9.5700    0.0000 C   0  0  0  0  0  0  0  0  0  0  0  0
    7.3194   -6.2700    0.0000 C   0  0  0  0  0  0  0  0  0  0  0  0
    6.6049   -5.8575    0.0000 C   0  0  0  0  0  0  0  0  0  0  0  0
    8.0339   -5.8575    0.0000 C   0  0  0  0  0  0  0  0  0  0  0  0
  1  2  1  0  0  0  0
  2  3  2  0  0  0  0
  3  4  1  0  0  0  0
  4  5  2  0  0  0  0
  5  6  1  0  0  0  0
  6  1  1  0  0  0  0
  3  7  1  0  0  0  0
  6  8  1  0  0  0  0
  8  9  2  0  0  0  0
  8 10  1  0  0  0  0
M  END
>  <cdx:fragmentId>
5

$$$$
