20030.cdx
  Mrv1902 05222410212D          

 10 10  0  0  0  0            999 V2000
    6.1099   -8.0850    0.0000 C   0  0  0  0  0  0  0  0  0  0  0  0
    6.1099   -8.9100    0.0000 C   0  0  0  0  0  0  0  0  0  0  0  0
    6.8244   -9.3225    0.0000 C   0  0  0  0  0  0  0  0  0  0  0  0
    7.5389   -8.9100    0.0000 C   0  0  0  0  0  0  0  0  0  0  0  0
    7.5389   -8.0850    0.0000 C   0  0  0  0  0  0  0  0  0  0  0  0
    6.8244   -7.6725    0.0000 C   0  0  0  0  0  0  0  0  0  0  0  0
    6.8244  -10.1475    0.0000 C   0  0  0  0  0  0  0  0  0  0  0  0
    6.8244   -6.8475    0.0000 C   0  0  0  0  0  0  0  0  0  0  0  0
    6.1099   -6.4350    0.0000 C   0  0  0  0  0  0  0  0  0  0  0  0
    7.5389   -6.4350    0.0000 C   0  0  0  0  0  0  0  0  0  0  0  0
  1  2  1  0  0  0  0
  2  3  1  0  0  0  0
  3  4  2  0  0  0  0
  4  5  1  0  0  0  0
  5  6  1  0  0  0  0
  6  1  2  0  0  0  0
  3  7  1  0  0  0  0
  6  8  1  0  0  0  0
  8  9  2  0  0  0  0
  8 10  1  0  0  0  0
M  END
>  <cdx:fragmentId>
5

$$$$
