20038.cdx
  Mrv1902 05222410232D          

 10 11  0  0  0  0            999 V2000
    4.9756   -6.3731    0.0000 C   0  0  0  0  0  0  0  0  0  0  0  0
    4.9756   -7.1981    0.0000 C   0  0  0  0  0  0  0  0  0  0  0  0
    5.6900   -7.6106    0.0000 C   0  0  0  0  0  0  0  0  0  0  0  0
    6.4045   -7.1981    0.0000 C   0  0  0  0  0  0  0  0  0  0  0  0
    6.4045   -6.3731    0.0000 C   0  0  0  0  0  0  0  0  0  0  0  0
    5.6900   -5.9606    0.0000 C   0  0  0  0  0  0  0  0  0  0  0  0
    7.1891   -7.4531    0.0000 O   0  0  0  0  0  0  0  0  0  0  0  0
    7.6740   -6.7856    0.0000 C   0  0  0  0  0  0  0  0  0  0  0  0
    7.1891   -6.1182    0.0000 C   0  0  0  0  0  0  0  0  0  0  0  0
    8.4990   -6.7856    0.0000 O   0  0  0  0  0  0  0  0  0  0  0  0
  1  2  2  0  0  0  0
  2  3  1  0  0  0  0
  3  4  2  0  0  0  0
  4  5  1  0  0  0  0
  5  6  1  0  0  0  0
  6  1  1  0  0  0  0
  4  7  1  0  0  0  0
  7  8  1  0  0  0  0
  8  9  1  0  0  0  0
  9  5  2  0  0  0  0
  8 10  2  0  0  0  0
M  END
>  <cdx:fragmentId>
5

$$$$
