200342.cdx
  Mrv1902 05222410282D          

 15 16  0  0  0  0            999 V2000
    7.3374   -8.7252    0.0000 C   0  0  0  0  0  0  0  0  0  0  0  0
    6.6329   -8.2960    0.0000 C   0  0  1  0  0  0  0  0  0  0  0  0
    6.6523   -7.4712    0.0000 C   0  0  0  0  0  0  0  0  0  0  0  0
    7.3763   -7.0757    0.0000 C   0  0  0  0  0  0  0  0  0  0  0  0
    8.0809   -7.5049    0.0000 C   0  0  0  0  0  0  0  0  0  0  0  0
    8.8049   -7.1094    0.0000 C   0  0  0  0  0  0  0  0  0  0  0  0
    9.5094   -7.5386    0.0000 C   0  0  0  0  0  0  0  0  0  0  0  0
    9.4899   -8.3634    0.0000 C   0  0  0  0  0  0  0  0  0  0  0  0
    8.7659   -8.7589    0.0000 C   0  0  2  0  0  0  0  0  0  0  0  0
    8.0614   -8.3297    0.0000 C   0  0  2  0  0  0  0  0  0  0  0  0
    5.8894   -9.5163    0.0000 C   0  0  0  0  0  0  0  0  0  0  0  0
    5.9089   -8.6915    0.0000 C   0  0  0  0  0  0  0  0  0  0  0  0
    5.2043   -8.2623    0.0000 C   0  0  0  0  0  0  0  0  0  0  0  0
    8.0419   -9.1545    0.0000 C   0  0  0  0  0  0  0  0  0  0  0  0
    8.7465   -9.5837    0.0000 C   0  0  0  0  0  0  0  0  0  0  0  0
  1  2  1  0  0  0  0
  2  3  1  0  0  0  0
  3  4  1  0  0  0  0
  4  5  2  0  0  0  0
  5  6  1  0  0  0  0
  6  7  2  0  0  0  0
  7  8  1  0  0  0  0
  8  9  1  0  0  0  0
  9 10  1  0  0  0  0
  1 10  1  0  0  0  0
  5 10  1  0  0  0  0
 11 12  2  0  0  0  0
 12 13  1  0  0  0  0
  2 12  1  6  0  0  0
 10 14  1  1  0  0  0
  9 15  1  1  0  0  0
M  END
>  <cdx:fragmentId>
148763

$$$$
