20032.cdx
  Mrv1902 05222410212D          

 15 16  0  0  0  0            999 V2000
    4.6249   -7.3425    0.0000 C   0  0  0  0  0  0  0  0  0  0  0  0
    4.6249   -8.1675    0.0000 C   0  0  0  0  0  0  0  0  0  0  0  0
    5.3394   -8.5800    0.0000 C   0  0  0  0  0  0  0  0  0  0  0  0
    6.0539   -8.1675    0.0000 C   0  0  2  0  0  0  0  0  0  0  0  0
    6.0539   -7.3425    0.0000 C   0  0  0  0  0  0  0  0  0  0  0  0
    5.3394   -6.9300    0.0000 C   0  0  0  0  0  0  0  0  0  0  0  0
    6.7683   -8.5800    0.0000 C   0  0  0  0  0  0  0  0  0  0  0  0
    7.4828   -8.1675    0.0000 C   0  0  0  0  0  0  0  0  0  0  0  0
    7.4828   -7.3425    0.0000 C   0  0  0  0  0  0  0  0  0  0  0  0
    6.7683   -6.9300    0.0000 C   0  0  0  0  0  0  0  0  0  0  0  0
    6.7683   -6.1050    0.0000 C   0  0  0  0  0  0  0  0  0  0  0  0
    3.9105   -6.9300    0.0000 C   0  0  0  0  0  0  0  0  0  0  0  0
    3.9105   -6.1050    0.0000 C   0  0  0  0  0  0  0  0  0  0  0  0
    3.1960   -7.3425    0.0000 C   0  0  0  0  0  0  0  0  0  0  0  0
    6.0539   -8.9925    0.0000 C   0  0  0  0  0  0  0  0  0  0  0  0
  1  2  1  0  0  0  0
  2  3  1  0  0  0  0
  3  4  1  0  0  0  0
  4  5  1  0  0  0  0
  5  6  1  0  0  0  0
  6  1  1  0  0  0  0
  4  7  1  0  0  0  0
  7  8  1  0  0  0  0
  8  9  1  0  0  0  0
  9 10  1  0  0  0  0
 10  5  2  0  0  0  0
 10 11  1  0  0  0  0
  1 12  2  0  0  0  0
 12 13  1  0  0  0  0
 12 14  1  0  0  0  0
  4 15  1  1  0  0  0
M  END
>  <cdx:fragmentId>
5

$$$$
