20045.cdx
  Mrv1902 05222410182D          

  9  9  0  0  0  0            999 V2000
    7.1962   -7.5309    0.0000 C   0  0  0  0  0  0  0  0  0  0  0  0
    6.5288   -8.0159    0.0000 C   0  0  0  0  0  0  0  0  0  0  0  0
    6.7837   -8.8005    0.0000 C   0  0  0  0  0  0  0  0  0  0  0  0
    7.6087   -8.8005    0.0000 C   0  0  0  0  0  0  0  0  0  0  0  0
    7.8637   -8.0159    0.0000 C   0  0  0  0  0  0  0  0  0  0  0  0
    5.7442   -7.7609    0.0000 C   0  0  0  0  0  0  0  0  0  0  0  0
    7.1962   -6.7059    0.0000 C   0  0  0  0  0  0  0  0  0  0  0  0
    6.4818   -6.2934    0.0000 O   0  0  0  0  0  0  0  0  0  0  0  0
    7.9107   -6.2934    0.0000 C   0  0  0  0  0  0  0  0  0  0  0  0
  1  2  2  0  0  0  0
  2  3  1  0  0  0  0
  3  4  1  0  0  0  0
  4  5  1  0  0  0  0
  5  1  1  0  0  0  0
  2  6  1  0  0  0  0
  1  7  1  0  0  0  0
  7  8  2  0  0  0  0
  7  9  1  0  0  0  0
M  END
>  <cdx:fragmentId>
5

$$$$
