2004.cdx
  Mrv1902 05222410182D          

 20 21  0  0  0  0            999 V2000
    7.1484   -5.1029    0.0000 O   0  0  0  0  0  0  0  0  0  0  0  0
    6.4339   -5.5154    0.0000 C   0  0  1  0  0  0  0  0  0  0  0  0
    6.4339   -6.3404    0.0000 C   0  0  2  0  0  0  0  0  0  0  0  0
    7.1484   -6.7529    0.0000 O   0  0  0  0  0  0  0  0  0  0  0  0
    5.7195   -6.7529    0.0000 C   0  0  1  0  0  0  0  0  0  0  0  0
    5.7195   -7.5779    0.0000 O   0  0  0  0  0  0  0  0  0  0  0  0
    5.0050   -6.3404    0.0000 C   0  0  2  0  0  0  0  0  0  0  0  0
    4.2905   -6.7529    0.0000 O   0  0  0  0  0  0  0  0  0  0  0  0
    5.0050   -5.5154    0.0000 C   0  0  2  0  0  0  0  0  0  0  0  0
    5.7195   -5.1029    0.0000 O   0  0  0  0  0  0  0  0  0  0  0  0
    4.2905   -5.1029    0.0000 C   0  0  0  0  0  0  0  0  0  0  0  0
    3.5760   -5.5154    0.0000 O   0  0  0  0  0  0  0  0  0  0  0  0
    7.8629   -5.5154    0.0000 C   0  0  2  0  0  0  0  0  0  0  0  0
    8.5773   -5.1029    0.0000 C   0  0  0  0  0  0  0  0  0  0  0  0
    9.2918   -5.5154    0.0000 C   0  0  0  0  0  0  0  0  0  0  0  0
   10.0063   -5.1029    0.0000 C   0  0  0  0  0  0  0  0  0  0  0  0
   10.0063   -4.2779    0.0000 C   0  0  0  0  0  0  0  0  0  0  0  0
    9.2918   -3.8654    0.0000 C   0  0  0  0  0  0  0  0  0  0  0  0
    8.5773   -4.2779    0.0000 C   0  0  0  0  0  0  0  0  0  0  0  0
    7.8629   -6.3404    0.0000 C   0  0  0  0  0  0  0  0  0  0  0  0
  2  3  1  0  0  0  0
  3  4  1  6  0  0  0
  3  5  1  0  0  0  0
  5  6  1  1  0  0  0
  5  7  1  0  0  0  0
  7  8  1  6  0  0  0
  7  9  1  0  0  0  0
  9 10  1  0  0  0  0
  9 11  1  1  0  0  0
 11 12  1  0  0  0  0
  2 10  1  0  0  0  0
  2  1  1  1  0  0  0
  1 13  1  0  0  0  0
 13 14  1  0  0  0  0
 14 15  2  0  0  0  0
 15 16  1  0  0  0  0
 16 17  2  0  0  0  0
 17 18  1  0  0  0  0
 18 19  2  0  0  0  0
 19 14  1  0  0  0  0
 13 20  1  6  0  0  0
M  END
>  <cdx:fragmentId>
75

$$$$
