20046.cdx
  Mrv1902 05222410182D          

 66 74  0  0  0  0            999 V2000
    2.9956  -10.8488    0.0000 C   0  0  2  0  0  0  0  0  0  0  0  0
    2.9956  -11.6738    0.0000 C   0  0  2  0  0  0  0  0  0  0  0  0
    3.7100  -12.0862    0.0000 C   0  0  2  0  0  0  0  0  0  0  0  0
    4.4245  -11.6738    0.0000 C   0  0  1  0  0  0  0  0  0  0  0  0
    4.4245  -10.8488    0.0000 O   0  0  0  0  0  0  0  0  0  0  0  0
    3.7100  -10.4363    0.0000 C   0  0  1  0  0  0  0  0  0  0  0  0
    5.1390  -12.0862    0.0000 O   0  0  0  0  0  0  0  0  0  0  0  0
    5.8534  -11.6738    0.0000 C   0  0  2  0  0  0  0  0  0  0  0  0
    5.8534  -10.8488    0.0000 C   0  0  1  0  0  0  0  0  0  0  0  0
    5.1390  -10.4363    0.0000 C   0  0  0  0  0  0  0  0  0  0  0  0
    6.5679  -12.0862    0.0000 C   0  0  1  0  0  0  0  0  0  0  0  0
    7.2824  -11.6738    0.0000 C   0  0  2  0  0  0  0  0  0  0  0  0
    7.2824  -10.8488    0.0000 C   0  0  1  0  0  0  0  0  0  0  0  0
    6.5679  -10.4363    0.0000 O   0  0  0  0  0  0  0  0  0  0  0  0
    7.9969  -12.0862    0.0000 O   0  0  0  0  0  0  0  0  0  0  0  0
    8.7113  -11.6738    0.0000 C   0  0  2  0  0  0  0  0  0  0  0  0
    8.7113  -10.8488    0.0000 O   0  0  0  0  0  0  0  0  0  0  0  0
    7.9969  -10.4363    0.0000 O   0  0  0  0  0  0  0  0  0  0  0  0
    9.4258  -12.0862    0.0000 C   0  0  1  0  0  0  0  0  0  0  0  0
   10.1403  -11.6738    0.0000 C   0  0  1  0  0  0  0  0  0  0  0  0
   10.1403  -10.8488    0.0000 C   0  0  2  0  0  0  0  0  0  0  0  0
    9.4258  -10.4363    0.0000 C   0  0  2  0  0  0  0  0  0  0  0  0
    7.9969   -9.6112    0.0000 C   0  0  1  0  0  0  0  0  0  0  0  0
    7.2824   -9.1987    0.0000 C   0  0  0  0  0  0  0  0  0  0  0  0
    8.7113   -9.1987    0.0000 C   0  0  0  0  0  0  0  0  0  0  0  0
    8.7113   -8.3737    0.0000 C   0  0  0  0  0  0  0  0  0  0  0  0
    7.9969   -7.9612    0.0000 C   0  0  2  0  0  0  0  0  0  0  0  0
    7.2824   -8.3737    0.0000 C   0  0  0  0  0  0  0  0  0  0  0  0
    9.4258   -7.9612    0.0000 C   0  0  0  0  0  0  0  0  0  0  0  0
    9.4258   -7.1362    0.0000 C   0  0  0  0  0  0  0  0  0  0  0  0
    8.7113   -6.7237    0.0000 C   0  0  2  0  0  0  0  0  0  0  0  0
    7.9969   -7.1362    0.0000 C   0  0  2  0  0  0  0  0  0  0  0  0
    8.7113   -5.8988    0.0000 C   0  0  1  0  0  0  0  0  0  0  0  0
    7.9969   -5.4863    0.0000 C   0  0  2  0  0  0  0  0  0  0  0  0
    7.2824   -5.8988    0.0000 C   0  0  0  0  0  0  0  0  0  0  0  0
    7.2824   -6.7237    0.0000 C   0  0  0  0  0  0  0  0  0  0  0  0
    9.3244   -5.3467    0.0000 C   0  0  0  0  0  0  0  0  0  0  0  0
    8.9889   -4.5930    0.0000 C   0  0  1  0  0  0  0  0  0  0  0  0
    8.1684   -4.6793    0.0000 C   0  0  2  0  0  0  0  0  0  0  0  0
    9.1604   -3.7861    0.0000 N   0  0  0  0  0  0  0  0  0  0  0  0
    8.4459   -3.3736    0.0000 C   0  0  1  0  0  0  0  0  0  0  0  0
    7.8328   -3.9256    0.0000 C   0  0  1  0  0  0  0  0  0  0  0  0
    9.8749   -3.3736    0.0000 C   0  0  0  0  0  0  0  0  0  0  0  0
    9.8749   -2.5486    0.0000 C   0  0  2  0  0  0  0  0  0  0  0  0
    9.1604   -2.1361    0.0000 C   0  0  0  0  0  0  0  0  0  0  0  0
    8.4459   -2.5486    0.0000 C   0  0  0  0  0  0  0  0  0  0  0  0
    5.1390   -9.6112    0.0000 O   0  0  0  0  0  0  0  0  0  0  0  0
    2.2811  -10.4363    0.0000 O   0  0  0  0  0  0  0  0  0  0  0  0
    6.5679  -12.9112    0.0000 O   0  0  0  0  0  0  0  0  0  0  0  0
    9.4258   -9.6112    0.0000 C   0  0  0  0  0  0  0  0  0  0  0  0
    9.4258  -12.9112    0.0000 O   0  0  0  0  0  0  0  0  0  0  0  0
   10.8547  -12.0862    0.0000 O   0  0  0  0  0  0  0  0  0  0  0  0
    7.2824   -7.5488    0.0000 C   0  0  0  0  0  0  0  0  0  0  0  0
    7.3294   -5.0013    0.0000 C   0  0  0  0  0  0  0  0  0  0  0  0
    9.5082   -6.5102    0.0000 H   0  0  0  0  0  0  0  0  0  0  0  0
    3.7100   -9.6112    0.0000 C   0  0  0  0  0  0  0  0  0  0  0  0
    2.2811  -12.0862    0.0000 O   0  0  0  0  0  0  0  0  0  0  0  0
    3.7100  -12.9112    0.0000 O   0  0  0  0  0  0  0  0  0  0  0  0
   10.8547  -10.4363    0.0000 O   0  0  0  0  0  0  0  0  0  0  0  0
    8.7113   -7.5488    0.0000 H   0  0  0  0  0  0  0  0  0  0  0  0
    9.5082   -6.1123    0.0000 H   0  0  0  0  0  0  0  0  0  0  0  0
    7.3434   -4.6793    0.0000 H   0  0  0  0  0  0  0  0  0  0  0  0
    9.7857   -4.3795    0.0000 H   0  0  0  0  0  0  0  0  0  0  0  0
    7.0258   -3.7541    0.0000 C   0  0  0  0  0  0  0  0  0  0  0  0
    7.7314   -2.9611    0.0000 H   0  0  0  0  0  0  0  0  0  0  0  0
   10.5893   -2.1361    0.0000 C   0  0  0  0  0  0  0  0  0  0  0  0
  1  2  1  0  0  0  0
  2  3  1  0  0  0  0
  3  4  1  0  0  0  0
  4  5  1  0  0  0  0
  5  6  1  0  0  0  0
  6  1  1  0  0  0  0
  4  7  1  1  0  0  0
  8  7  1  6  0  0  0
  8  9  1  0  0  0  0
  9 10  1  1  0  0  0
  8 11  1  0  0  0  0
 11 12  1  0  0  0  0
 12 13  1  0  0  0  0
 13 14  1  0  0  0  0
 14  9  1  0  0  0  0
 12 15  1  6  0  0  0
 16 15  1  6  0  0  0
 16 17  1  0  0  0  0
 13 18  1  1  0  0  0
 16 19  1  0  0  0  0
 19 20  1  0  0  0  0
 20 21  1  0  0  0  0
 21 22  1  0  0  0  0
 22 17  1  0  0  0  0
 23 18  1  1  0  0  0
 23 24  1  0  0  0  0
 23 25  1  0  0  0  0
 25 26  1  0  0  0  0
 26 27  1  0  0  0  0
 27 28  1  0  0  0  0
 28 24  1  0  0  0  0
 26 29  2  0  0  0  0
 29 30  1  0  0  0  0
 30 31  1  0  0  0  0
 31 32  1  0  0  0  0
 32 27  1  0  0  0  0
 31 33  1  0  0  0  0
 33 34  1  0  0  0  0
 34 35  1  0  0  0  0
 35 36  1  0  0  0  0
 36 32  1  0  0  0  0
 33 37  1  0  0  0  0
 37 38  1  0  0  0  0
 38 39  1  0  0  0  0
 39 34  1  0  0  0  0
 38 40  1  0  0  0  0
 40 41  1  0  0  0  0
 41 42  1  0  0  0  0
 42 39  1  0  0  0  0
 40 43  1  0  0  0  0
 43 44  1  0  0  0  0
 44 45  1  0  0  0  0
 45 46  1  0  0  0  0
 46 41  1  0  0  0  0
 10 47  1  0  0  0  0
  1 48  1  1  0  0  0
 11 49  1  1  0  0  0
 22 50  1  1  0  0  0
 19 51  1  1  0  0  0
 20 52  1  1  0  0  0
 27 53  1  1  0  0  0
 34 54  1  1  0  0  0
 31 55  1  1  0  0  0
  6 56  1  6  0  0  0
  2 57  1  6  0  0  0
  3 58  1  6  0  0  0
 21 59  1  6  0  0  0
 32 60  1  6  0  0  0
 33 61  1  6  0  0  0
 39 62  1  6  0  0  0
 38 63  1  6  0  0  0
 42 64  1  6  0  0  0
 41 65  1  6  0  0  0
 44 66  1  6  0  0  0
M  END
>  <cdx:fragmentId>
5

$$$$
