20040.cdx
  Mrv1902 05222410192D          

 51 58  0  0  0  0            999 V2000
    8.8118   -7.9490    0.0000 C   0  0  0  0  0  0  0  0  0  0  0  0
    9.5255   -8.3630    0.0000 C   0  0  0  0  0  0  0  0  0  0  0  0
    9.5238   -9.1880    0.0000 C   0  0  0  0  0  0  0  0  0  0  0  0
    8.8085   -9.5990    0.0000 C   0  0  0  0  0  0  0  0  0  0  0  0
    8.0949   -9.1851    0.0000 C   0  0  0  0  0  0  0  0  0  0  0  0
    8.0965   -8.3601    0.0000 C   0  0  0  0  0  0  0  0  0  0  0  0
    8.8134   -7.1240    0.0000 O   0  0  0  0  0  0  0  0  0  0  0  0
   10.2375   -9.6019    0.0000 O   0  0  0  0  0  0  0  0  0  0  0  0
    6.9272  -10.7128    0.0000 O   0  0  0  0  0  0  0  0  0  0  0  0
    7.6370  -10.2924    0.0000 C   0  0  2  0  0  0  0  0  0  0  0  0
    7.4564   -9.4874    0.0000 C   0  0  1  0  0  0  0  0  0  0  0  0
    6.6350   -9.4103    0.0000 C   0  0  0  0  0  0  0  0  0  0  0  0
    6.1427   -8.7484    0.0000 C   0  0  0  0  0  0  0  0  0  0  0  0
    5.3232   -8.8438    0.0000 C   0  0  0  0  0  0  0  0  0  0  0  0
    4.9961   -9.6012    0.0000 C   0  0  0  0  0  0  0  0  0  0  0  0
    5.4885  -10.2631    0.0000 C   0  0  0  0  0  0  0  0  0  0  0  0
    6.3079  -10.1677    0.0000 C   0  0  0  0  0  0  0  0  0  0  0  0
    8.6216  -10.7176    0.0000 C   0  0  0  0  0  0  0  0  0  0  0  0
    9.2836  -10.2252    0.0000 C   0  0  0  0  0  0  0  0  0  0  0  0
   10.0409  -10.5523    0.0000 C   0  0  0  0  0  0  0  0  0  0  0  0
   10.1364  -11.3718    0.0000 C   0  0  0  0  0  0  0  0  0  0  0  0
    9.4744  -11.8641    0.0000 C   0  0  0  0  0  0  0  0  0  0  0  0
    8.7170  -11.5370    0.0000 C   0  0  0  0  0  0  0  0  0  0  0  0
   10.8938  -11.6989    0.0000 O   0  0  0  0  0  0  0  0  0  0  0  0
    5.4912   -6.0115    0.0000 O   0  0  0  0  0  0  0  0  0  0  0  0
    5.9797   -6.6763    0.0000 C   0  0  1  0  0  0  0  0  0  0  0  0
    5.4985   -7.3464    0.0000 C   0  0  2  0  0  0  0  0  0  0  0  0
    4.7125   -7.0957    0.0000 C   0  0  0  0  0  0  0  0  0  0  0  0
    4.0003   -7.5121    0.0000 C   0  0  0  0  0  0  0  0  0  0  0  0
    3.2835   -7.1035    0.0000 C   0  0  0  0  0  0  0  0  0  0  0  0
    3.2791   -6.2785    0.0000 C   0  0  0  0  0  0  0  0  0  0  0  0
    3.9913   -5.8621    0.0000 C   0  0  0  0  0  0  0  0  0  0  0  0
    4.7080   -6.2707    0.0000 C   0  0  0  0  0  0  0  0  0  0  0  0
    4.0047   -8.3371    0.0000 C   0  0  0  0  0  0  0  0  0  0  0  0
    3.2925   -8.7535    0.0000 C   0  0  0  0  0  0  0  0  0  0  0  0
    3.2970   -9.5785    0.0000 C   0  0  0  0  0  0  0  0  0  0  0  0
    4.0137   -9.9871    0.0000 C   0  0  0  0  0  0  0  0  0  0  0  0
    4.0182  -10.8121    0.0000 C   0  0  0  0  0  0  0  0  0  0  0  0
    3.3060  -11.2284    0.0000 C   0  0  0  0  0  0  0  0  0  0  0  0
    2.5893  -10.8198    0.0000 C   0  0  0  0  0  0  0  0  0  0  0  0
    2.5848   -9.9948    0.0000 C   0  0  0  0  0  0  0  0  0  0  0  0
    3.3105  -12.0534    0.0000 O   0  0  0  0  0  0  0  0  0  0  0  0
    2.5624   -5.8699    0.0000 O   0  0  0  0  0  0  0  0  0  0  0  0
    4.1766   -9.6966    0.0000 O   0  0  0  0  0  0  0  0  0  0  0  0
    6.8047   -6.6718    0.0000 C   0  0  0  0  0  0  0  0  0  0  0  0
    7.2231   -7.3829    0.0000 C   0  0  0  0  0  0  0  0  0  0  0  0
    8.0481   -7.3829    0.0000 C   0  0  0  0  0  0  0  0  0  0  0  0
    8.4547   -6.6718    0.0000 C   0  0  0  0  0  0  0  0  0  0  0  0
    8.0481   -5.9608    0.0000 C   0  0  0  0  0  0  0  0  0  0  0  0
    7.2231   -5.9608    0.0000 C   0  0  0  0  0  0  0  0  0  0  0  0
    9.2797   -6.6718    0.0000 O   0  0  0  0  0  0  0  0  0  0  0  0
  1  2  1  0  0  0  0
  2  3  2  0  0  0  0
  3  4  1  0  0  0  0
  4  5  2  0  0  0  0
  5  6  1  0  0  0  0
  1  6  2  0  0  0  0
  1  7  1  0  0  0  0
  3  8  1  0  0  0  0
  9 10  1  0  0  0  0
 10 11  1  0  0  0  0
 11 12  1  0  0  0  0
 12 13  1  0  0  0  0
 13 14  2  0  0  0  0
 14 15  1  0  0  0  0
 15 16  2  0  0  0  0
 16 17  1  0  0  0  0
 12 17  2  0  0  0  0
  9 17  1  0  0  0  0
 18 19  1  0  0  0  0
 19 20  2  0  0  0  0
 20 21  1  0  0  0  0
 21 22  2  0  0  0  0
 22 23  1  0  0  0  0
 18 23  2  0  0  0  0
 21 24  1  0  0  0  0
 10 18  1  6  0  0  0
 25 26  1  0  0  0  0
 26 27  1  0  0  0  0
 27 28  1  0  0  0  0
 28 29  1  0  0  0  0
 29 30  2  0  0  0  0
 30 31  1  0  0  0  0
 31 32  2  0  0  0  0
 32 33  1  0  0  0  0
 28 33  2  0  0  0  0
 25 33  1  0  0  0  0
 34 35  2  0  0  0  0
 36 37  1  0  0  0  0
 37 38  2  0  0  0  0
 38 39  1  0  0  0  0
 39 40  2  0  0  0  0
 40 41  1  0  0  0  0
 36 41  2  0  0  0  0
 39 42  1  0  0  0  0
 35 36  1  0  0  0  0
 29 34  1  0  0  0  0
 31 43  1  0  0  0  0
 15 44  1  0  0  0  0
 11  5  1  1  0  0  0
 26 45  1  6  0  0  0
 45 46  2  0  0  0  0
 46 47  1  0  0  0  0
 47 48  2  0  0  0  0
 48 49  1  0  0  0  0
 49 50  2  0  0  0  0
 50 45  1  0  0  0  0
 48 51  1  0  0  0  0
 27 13  1  1  0  0  0
M  END
>  <cdx:fragmentId>
53

$$$$
