20043.cdx
  Mrv1902 05222410202D          

 16 17  0  0  0  0            999 V2000
    5.1818   -7.4456    0.0000 C   0  0  0  0  0  0  0  0  0  0  0  0
    5.1818   -8.2706    0.0000 C   0  0  0  0  0  0  0  0  0  0  0  0
    5.8963   -8.6831    0.0000 C   0  0  0  0  0  0  0  0  0  0  0  0
    6.6107   -8.2706    0.0000 C   0  0  0  0  0  0  0  0  0  0  0  0
    6.6107   -7.4456    0.0000 C   0  0  2  0  0  0  0  0  0  0  0  0
    5.8963   -7.0331    0.0000 C   0  0  0  0  0  0  0  0  0  0  0  0
    7.3252   -8.6831    0.0000 C   0  0  0  0  0  0  0  0  0  0  0  0
    8.0397   -8.2706    0.0000 C   0  0  2  0  0  0  0  0  0  0  0  0
    8.0397   -7.4456    0.0000 C   0  0  0  0  0  0  0  0  0  0  0  0
    7.3252   -7.0331    0.0000 C   0  0  0  0  0  0  0  0  0  0  0  0
    5.8963   -6.2081    0.0000 C   0  0  0  0  0  0  0  0  0  0  0  0
    5.8963   -9.5081    0.0000 C   0  0  0  0  0  0  0  0  0  0  0  0
    5.1818   -9.9206    0.0000 C   0  0  0  0  0  0  0  0  0  0  0  0
    6.6107   -9.9206    0.0000 C   0  0  0  0  0  0  0  0  0  0  0  0
    6.6107   -6.6206    0.0000 H   0  0  0  0  0  0  0  0  0  0  0  0
    8.7542   -8.6831    0.0000 C   0  0  0  0  0  0  0  0  0  0  0  0
  1  2  1  0  0  0  0
  2  3  1  0  0  0  0
  3  4  2  0  0  0  0
  4  5  1  0  0  0  0
  5  6  1  0  0  0  0
  6  1  2  0  0  0  0
  4  7  1  0  0  0  0
  7  8  1  0  0  0  0
  8  9  1  0  0  0  0
  9 10  1  0  0  0  0
 10  5  1  0  0  0  0
  6 11  1  0  0  0  0
  3 12  1  0  0  0  0
 12 13  1  0  0  0  0
 12 14  1  0  0  0  0
  5 15  1  1  0  0  0
  8 16  1  6  0  0  0
M  END
>  <cdx:fragmentId>
6

$$$$
