20042.cdx
  Mrv1902 05222410202D          

 17 18  0  0  0  0            999 V2000
    7.7762   -9.0756    0.0000 C   0  0  0  0  0  0  0  0  0  0  0  0
    7.7707   -8.2490    0.0000 C   0  0  2  0  0  0  0  0  0  0  0  0
    7.2499   -9.7095    0.0000 C   0  0  0  0  0  0  0  0  0  0  0  0
    6.4370   -9.8602    0.0000 C   0  0  0  0  0  0  0  0  0  0  0  0
    5.7221   -9.4508    0.0000 C   0  0  0  0  0  0  0  0  0  0  0  0
    5.4263   -8.6806    0.0000 C   0  0  0  0  0  0  0  0  0  0  0  0
    5.6991   -7.9012    0.0000 C   0  0  0  0  0  0  0  0  0  0  0  0
    6.4104   -7.4841    0.0000 C   0  0  0  0  0  0  0  0  0  0  0  0
    7.2216   -7.6314    0.0000 C   0  0  0  0  0  0  0  0  0  0  0  0
    5.0621   -7.3770    0.0000 C   0  0  0  0  0  0  0  0  0  0  0  0
    6.2987  -10.6736    0.0000 O   0  0  0  0  0  0  0  0  0  0  0  0
    7.6674  -10.4211    0.0000 C   0  0  0  0  0  0  0  0  0  0  0  0
    8.6012   -9.0702    0.0000 C   0  0  0  0  0  0  0  0  0  0  0  0
    8.5957   -8.2436    0.0000 C   0  0  0  0  0  0  0  0  0  0  0  0
    8.8092   -7.4467    0.0000 C   0  0  0  0  0  0  0  0  0  0  0  0
    9.4207   -8.2381    0.0000 C   0  0  0  0  0  0  0  0  0  0  0  0
    7.9790   -7.4508    0.0000 H   0  0  0  0  0  0  0  0  0  0  0  0
  1  2  1  0  0  0  0
  1  3  2  0  0  0  0
  3  4  1  0  0  0  0
  4  5  1  0  0  0  0
  5  6  1  0  0  0  0
  6  7  1  0  0  0  0
  7  8  1  0  0  0  0
  8  9  1  0  0  0  0
  2  9  1  0  0  0  0
  7 10  2  0  0  0  0
  4 11  1  0  0  0  0
  3 12  1  0  0  0  0
  1 13  1  0  0  0  0
  2 14  1  0  0  0  0
 14 13  1  0  0  0  0
 14 15  1  0  0  0  0
 14 16  1  0  0  0  0
  2 17  1  1  0  0  0
M  END
>  <cdx:fragmentId>
739

$$$$
