20056.cdx
  Mrv1902 05222410202D          

 10 10  0  0  0  0            999 V2000
    7.8147   -8.0437    0.0000 C   0  0  0  0  0  0  0  0  0  0  0  0
    7.8147   -8.8687    0.0000 C   0  0  0  0  0  0  0  0  0  0  0  0
    7.2313   -9.4521    0.0000 C   0  0  0  0  0  0  0  0  0  0  0  0
    6.4063   -9.4521    0.0000 C   0  0  0  0  0  0  0  0  0  0  0  0
    5.8229   -8.8688    0.0000 C   0  0  0  0  0  0  0  0  0  0  0  0
    5.8229   -8.0437    0.0000 C   0  0  0  0  0  0  0  0  0  0  0  0
    6.4063   -7.4604    0.0000 C   0  0  0  0  0  0  0  0  0  0  0  0
    7.2313   -7.4604    0.0000 C   0  0  0  0  0  0  0  0  0  0  0  0
    8.5769   -9.1845    0.0000 C   0  0  0  0  0  0  0  0  0  0  0  0
    8.5769   -7.7280    0.0000 C   0  0  0  0  0  0  0  0  0  0  0  0
  1  2  2  0  0  0  0
  2  3  1  0  0  0  0
  3  4  1  0  0  0  0
  4  5  1  0  0  0  0
  5  6  2  0  0  0  0
  6  7  1  0  0  0  0
  7  8  1  0  0  0  0
  1  8  1  0  0  0  0
  2  9  1  0  0  0  0
  1 10  1  0  0  0  0
M  END
>  <cdx:fragmentId>
5

$$$$
