20055.cdx
  Mrv1902 05222410202D          

 33 36  0  0  0  0            999 V2000
    3.9589   -8.6977    0.0000 C   0  0  2  0  0  0  0  0  0  0  0  0
    3.9568   -9.5227    0.0000 C   0  0  2  0  0  0  0  0  0  0  0  0
    4.6702   -9.9371    0.0000 C   0  0  1  0  0  0  0  0  0  0  0  0
    5.3857   -9.5264    0.0000 C   0  0  2  0  0  0  0  0  0  0  0  0
    5.3878   -8.7014    0.0000 C   0  0  1  0  0  0  0  0  0  0  0  0
    4.6744   -8.2871    0.0000 O   0  0  0  0  0  0  0  0  0  0  0  0
   12.5367   -7.0695    0.0000 O   0  0  0  0  0  0  0  0  0  0  0  0
    7.5260  -10.7693    0.0000 O   0  0  0  0  0  0  0  0  0  0  0  0
    8.9550  -10.7730    0.0000 O   0  0  0  0  0  0  0  0  0  0  0  0
   11.8191   -8.3052    0.0000 C   0  0  0  0  0  0  0  0  0  0  0  0
   11.8212   -7.4802    0.0000 C   0  0  0  0  0  0  0  0  0  0  0  0
   11.1078   -7.0659    0.0000 C   0  0  0  0  0  0  0  0  0  0  0  0
   10.3923   -7.4766    0.0000 C   0  0  0  0  0  0  0  0  0  0  0  0
   10.3860   -9.9516    0.0000 O   0  0  0  0  0  0  0  0  0  0  0  0
   11.1036   -8.7159    0.0000 C   0  0  0  0  0  0  0  0  0  0  0  0
   10.3902   -8.3016    0.0000 C   0  0  0  0  0  0  0  0  0  0  0  0
    8.9571   -9.9480    0.0000 C   0  0  0  0  0  0  0  0  0  0  0  0
    9.6726   -9.5373    0.0000 C   0  0  0  0  0  0  0  0  0  0  0  0
    9.6747   -8.7123    0.0000 C   0  0  0  0  0  0  0  0  0  0  0  0
    8.9612   -8.2980    0.0000 O   0  0  0  0  0  0  0  0  0  0  0  0
    7.5281   -9.9444    0.0000 C   0  0  0  0  0  0  0  0  0  0  0  0
    8.2436   -9.5337    0.0000 C   0  0  0  0  0  0  0  0  0  0  0  0
    8.2457   -8.7087    0.0000 C   0  0  0  0  0  0  0  0  0  0  0  0
    7.5323   -8.2944    0.0000 C   0  0  0  0  0  0  0  0  0  0  0  0
    6.1034   -8.2907    0.0000 O   0  0  0  0  0  0  0  0  0  0  0  0
    6.8147   -9.5300    0.0000 C   0  0  0  0  0  0  0  0  0  0  0  0
    6.8168   -8.7050    0.0000 C   0  0  0  0  0  0  0  0  0  0  0  0
    3.2455   -8.2834    0.0000 C   0  0  0  0  0  0  0  0  0  0  0  0
    2.5300   -8.6941    0.0000 O   0  0  0  0  0  0  0  0  0  0  0  0
    6.0991   -9.9407    0.0000 O   0  0  0  0  0  0  0  0  0  0  0  0
    4.6681  -10.7621    0.0000 O   0  0  0  0  0  0  0  0  0  0  0  0
    3.2413   -9.9334    0.0000 O   0  0  0  0  0  0  0  0  0  0  0  0
    3.2476   -7.4584    0.0000 O   0  0  0  0  0  0  0  0  0  0  0  0
 11  7  1  0  0  0  0
 21  8  1  0  0  0  0
  1  2  1  0  0  0  0
  2  3  1  0  0  0  0
  3  4  1  0  0  0  0
  4  5  1  0  0  0  0
  5  6  1  0  0  0  0
  6  1  1  0  0  0  0
  9 17  2  0  0  0  0
 10 15  2  0  0  0  0
 11 10  1  0  0  0  0
 12 11  2  0  0  0  0
 13 12  1  0  0  0  0
 16 13  2  0  0  0  0
 14 18  1  0  0  0  0
 16 15  1  0  0  0  0
 19 16  1  0  0  0  0
 17 22  1  0  0  0  0
 18 17  1  0  0  0  0
 19 18  2  0  0  0  0
 20 19  1  0  0  0  0
 23 20  1  0  0  0  0
 21 26  1  0  0  0  0
 22 21  2  0  0  0  0
 23 22  1  0  0  0  0
 24 23  2  0  0  0  0
 27 24  1  0  0  0  0
 27 26  2  0  0  0  0
 25 27  1  0  0  0  0
  5 25  1  1  0  0  0
  1 28  1  1  0  0  0
 28 29  1  0  0  0  0
  4 30  1  6  0  0  0
  3 31  1  1  0  0  0
  2 32  1  6  0  0  0
 28 33  2  0  0  0  0
M  END
>  <cdx:fragmentId>
5

$$$$
