20051.cdx
  Mrv1902 05222410182D          

 12 12  0  0  0  0            999 V2000
    5.9449   -7.9819    0.0000 C   0  0  0  0  0  0  0  0  0  0  0  0
    5.9449   -8.8069    0.0000 C   0  0  0  0  0  0  0  0  0  0  0  0
    6.6594   -9.2194    0.0000 C   0  0  0  0  0  0  0  0  0  0  0  0
    7.3739   -8.8069    0.0000 C   0  0  0  0  0  0  0  0  0  0  0  0
    7.3739   -7.9819    0.0000 C   0  0  0  0  0  0  0  0  0  0  0  0
    6.6594   -7.5694    0.0000 C   0  0  0  0  0  0  0  0  0  0  0  0
    6.6594  -10.0444    0.0000 O   0  0  0  0  0  0  0  0  0  0  0  0
    6.6594   -6.7444    0.0000 C   0  0  0  0  0  0  0  0  0  0  0  0
    7.3739   -6.3319    0.0000 C   0  0  0  0  0  0  0  0  0  0  0  0
    7.3739   -5.5069    0.0000 O   0  0  0  0  0  0  0  0  0  0  0  0
    8.0883   -6.7444    0.0000 O   0  0  0  0  0  0  0  0  0  0  0  0
    5.9449  -10.4569    0.0000 C   0  0  0  0  0  0  0  0  0  0  0  0
  1  2  2  0  0  0  0
  2  3  1  0  0  0  0
  3  4  2  0  0  0  0
  4  5  1  0  0  0  0
  5  6  2  0  0  0  0
  6  1  1  0  0  0  0
  3  7  1  0  0  0  0
  6  8  1  0  0  0  0
  8  9  1  0  0  0  0
  9 10  1  0  0  0  0
  9 11  2  0  0  0  0
  7 12  1  0  0  0  0
M  END
>  <cdx:fragmentId>
5

$$$$
