20059.cdx
  Mrv1902 05222410272D          

  7  6  0  0  0  0            999 V2000
    5.4095   -9.0262    0.0000 C   0  0  0  0  0  0  0  0  0  0  0  0
    6.1239   -8.6137    0.0000 C   0  0  0  0  0  0  0  0  0  0  0  0
    6.8384   -9.0262    0.0000 C   0  0  0  0  0  0  0  0  0  0  0  0
    7.5529   -8.6137    0.0000 C   0  0  0  0  0  0  0  0  0  0  0  0
    8.2674   -9.0262    0.0000 C   0  0  0  0  0  0  0  0  0  0  0  0
    8.9818   -8.6137    0.0000 C   0  0  0  0  0  0  0  0  0  0  0  0
    7.5529   -7.7887    0.0000 C   0  0  0  0  0  0  0  0  0  0  0  0
  1  2  2  0  0  0  0
  2  3  1  0  0  0  0
  3  4  1  0  0  0  0
  4  5  2  0  0  0  0
  5  6  1  0  0  0  0
  4  7  1  0  0  0  0
M  END
>  <cdx:fragmentId>
5

$$$$
