20054.cdx
  Mrv1902 05222410192D          

 44 48  0  0  0  0            999 V2000
    3.0657   -6.9031    0.0000 C   0  0  2  0  0  0  0  0  0  0  0  0
    3.0632   -7.7281    0.0000 C   0  0  2  0  0  0  0  0  0  0  0  0
    3.7764   -8.1428    0.0000 C   0  0  1  0  0  0  0  0  0  0  0  0
    4.4921   -7.7325    0.0000 C   0  0  2  0  0  0  0  0  0  0  0  0
    8.0629  -11.4503    0.0000 O   0  0  0  0  0  0  0  0  0  0  0  0
    7.3498  -10.2120    0.0000 O   0  0  0  0  0  0  0  0  0  0  0  0
    8.0638  -10.6253    0.0000 C   0  0  0  0  0  0  0  0  0  0  0  0
    9.4918  -11.4519    0.0000 O   0  0  0  0  0  0  0  0  0  0  0  0
   10.9217  -10.6284    0.0000 O   0  0  0  0  0  0  0  0  0  0  0  0
   10.9235   -8.9784    0.0000 O   0  0  0  0  0  0  0  0  0  0  0  0
   11.6420   -5.2667    0.0000 O   0  0  0  0  0  0  0  0  0  0  0  0
    6.6366   -8.9737    0.0000 O   0  0  0  0  0  0  0  0  0  0  0  0
    4.4947   -6.9075    0.0000 C   0  0  1  0  0  0  0  0  0  0  0  0
    3.7815   -6.4928    0.0000 O   0  0  0  0  0  0  0  0  0  0  0  0
    8.7787  -10.2136    0.0000 C   0  0  2  0  0  0  0  0  0  0  0  0
    9.4927  -10.6269    0.0000 C   0  0  2  0  0  0  0  0  0  0  0  0
   10.2076  -10.2151    0.0000 C   0  0  1  0  0  0  0  0  0  0  0  0
   10.2085   -9.3901    0.0000 C   0  0  2  0  0  0  0  0  0  0  0  0
    8.0656   -8.9753    0.0000 O   0  0  0  0  0  0  0  0  0  0  0  0
    8.7796   -9.3886    0.0000 O   0  0  0  0  0  0  0  0  0  0  0  0
    9.4945   -8.9769    0.0000 C   0  0  1  0  0  0  0  0  0  0  0  0
   10.9262   -6.5034    0.0000 C   0  0  0  0  0  0  0  0  0  0  0  0
   10.9271   -5.6784    0.0000 C   0  0  0  0  0  0  0  0  0  0  0  0
   10.2131   -5.2651    0.0000 C   0  0  0  0  0  0  0  0  0  0  0  0
    9.4981   -5.6769    0.0000 C   0  0  0  0  0  0  0  0  0  0  0  0
    9.4954   -8.1519    0.0000 O   0  0  0  0  0  0  0  0  0  0  0  0
   10.2112   -6.9151    0.0000 C   0  0  0  0  0  0  0  0  0  0  0  0
    9.4972   -6.5019    0.0000 C   0  0  0  0  0  0  0  0  0  0  0  0
    8.0665   -8.1503    0.0000 C   0  0  0  0  0  0  0  0  0  0  0  0
    8.7814   -7.7386    0.0000 C   0  0  0  0  0  0  0  0  0  0  0  0
    8.7823   -6.9136    0.0000 C   0  0  0  0  0  0  0  0  0  0  0  0
    8.0683   -6.5003    0.0000 O   0  0  0  0  0  0  0  0  0  0  0  0
    6.6375   -8.1487    0.0000 C   0  0  0  0  0  0  0  0  0  0  0  0
    7.3525   -7.7370    0.0000 C   0  0  0  0  0  0  0  0  0  0  0  0
    7.3534   -6.9120    0.0000 C   0  0  0  0  0  0  0  0  0  0  0  0
    6.6393   -6.4987    0.0000 C   0  0  0  0  0  0  0  0  0  0  0  0
    5.9235   -7.7355    0.0000 C   0  0  0  0  0  0  0  0  0  0  0  0
    5.9244   -6.9105    0.0000 C   0  0  0  0  0  0  0  0  0  0  0  0
    5.2104   -6.4972    0.0000 O   0  0  0  0  0  0  0  0  0  0  0  0
    2.3525   -6.4884    0.0000 C   0  0  0  0  0  0  0  0  0  0  0  0
    1.6368   -6.8987    0.0000 O   0  0  0  0  0  0  0  0  0  0  0  0
    5.2053   -8.1472    0.0000 O   0  0  0  0  0  0  0  0  0  0  0  0
    3.7739   -8.9678    0.0000 O   0  0  0  0  0  0  0  0  0  0  0  0
    2.3475   -8.1384    0.0000 O   0  0  0  0  0  0  0  0  0  0  0  0
  7  5  2  0  0  0  0
  7  6  1  0  0  0  0
 15  7  1  1  0  0  0
 16  8  1  6  0  0  0
 17  9  1  1  0  0  0
 18 10  1  6  0  0  0
 23 11  1  0  0  0  0
 33 12  1  0  0  0  0
  1  2  1  0  0  0  0
  2  3  1  0  0  0  0
  3  4  1  0  0  0  0
  4 13  1  0  0  0  0
 15 20  1  0  0  0  0
 16 15  1  0  0  0  0
 17 16  1  0  0  0  0
 18 17  1  0  0  0  0
 21 18  1  0  0  0  0
 19 29  2  0  0  0  0
 21 20  1  0  0  0  0
 21 26  1  1  0  0  0
 22 27  2  0  0  0  0
 23 22  1  0  0  0  0
 24 23  2  0  0  0  0
 25 24  1  0  0  0  0
 28 25  2  0  0  0  0
 26 30  1  0  0  0  0
 28 27  1  0  0  0  0
 31 28  1  0  0  0  0
 29 34  1  0  0  0  0
 30 29  1  0  0  0  0
 31 30  2  0  0  0  0
 32 31  1  0  0  0  0
 35 32  1  0  0  0  0
 33 37  1  0  0  0  0
 34 33  2  0  0  0  0
 35 34  1  0  0  0  0
 36 35  2  0  0  0  0
 38 36  1  0  0  0  0
 38 37  2  0  0  0  0
 39 38  1  0  0  0  0
 13 14  1  0  0  0  0
 14  1  1  0  0  0  0
 13 39  1  1  0  0  0
  1 40  1  1  0  0  0
 40 41  1  0  0  0  0
  4 42  1  6  0  0  0
  3 43  1  1  0  0  0
  2 44  1  6  0  0  0
M  END
>  <cdx:fragmentId>
5

$$$$
