20052.cdx
  Mrv1902 05222410182D          

 15 15  0  0  0  0            999 V2000
    5.4557   -6.7173    0.0000 C   0  0  0  0  0  0  0  0  0  0  0  0
    6.1677   -7.1340    0.0000 C   0  0  0  0  0  0  0  0  0  0  0  0
    6.8846   -6.7257    0.0000 C   0  0  0  0  0  0  0  0  0  0  0  0
    6.8895   -5.9007    0.0000 C   0  0  0  0  0  0  0  0  0  0  0  0
    6.1774   -5.4841    0.0000 C   0  0  0  0  0  0  0  0  0  0  0  0
    5.4605   -5.8923    0.0000 C   0  0  0  0  0  0  0  0  0  0  0  0
    4.7388   -7.1256    0.0000 O   0  0  0  0  0  0  0  0  0  0  0  0
    4.7485   -5.4756    0.0000 O   0  0  0  0  0  0  0  0  0  0  0  0
    4.0336   -5.8874    0.0000 C   0  0  0  0  0  0  0  0  0  0  0  0
    7.6063   -5.4925    0.0000 C   0  0  0  0  0  0  0  0  0  0  0  0
    8.3184   -5.9092    0.0000 C   0  0  0  0  0  0  0  0  0  0  0  0
    9.0353   -5.5009    0.0000 C   0  0  0  0  0  0  0  0  0  0  0  0
    9.0401   -4.6759    0.0000 O   0  0  0  0  0  0  0  0  0  0  0  0
    9.7473   -5.9176    0.0000 O   0  0  0  0  0  0  0  0  0  0  0  0
   10.4642   -5.5093    0.0000 C   0  0  0  0  0  0  0  0  0  0  0  0
  1  2  2  0  0  0  0
  2  3  1  0  0  0  0
  3  4  2  0  0  0  0
  4  5  1  0  0  0  0
  5  6  2  0  0  0  0
  6  1  1  0  0  0  0
  1  7  1  0  0  0  0
  6  8  1  0  0  0  0
  8  9  1  0  0  0  0
  4 10  1  0  0  0  0
 10 11  1  0  0  0  0
 11 12  1  0  0  0  0
 12 13  2  0  0  0  0
 12 14  1  0  0  0  0
 14 15  1  0  0  0  0
M  END
>  <cdx:fragmentId>
5

$$$$
