20058.cdx
  Mrv1902 05222410262D          

 11 11  0  0  0  0            999 V2000
    5.8768   -9.7055    0.0000 C   0  0  0  0  0  0  0  0  0  0  0  0
    6.5443   -9.2207    0.0000 C   0  0  0  0  0  0  0  0  0  0  0  0
    7.2116   -9.7058    0.0000 C   0  0  0  0  0  0  0  0  0  0  0  0
    6.9566  -10.4903    0.0000 C   0  0  0  0  0  0  0  0  0  0  0  0
    6.1316  -10.4902    0.0000 C   0  0  0  0  0  0  0  0  0  0  0  0
    5.0922   -9.4505    0.0000 O   0  0  0  0  0  0  0  0  0  0  0  0
    7.9963   -9.4509    0.0000 C   0  0  0  0  0  0  0  0  0  0  0  0
    6.5444   -8.3957    0.0000 C   0  0  0  0  0  0  0  0  0  0  0  0
    7.2589   -7.9833    0.0000 C   0  0  0  0  0  0  0  0  0  0  0  0
    7.2591   -7.1583    0.0000 C   0  0  0  0  0  0  0  0  0  0  0  0
    7.9736   -6.7460    0.0000 C   0  0  0  0  0  0  0  0  0  0  0  0
  1  2  1  0  0  0  0
  2  3  2  0  0  0  0
  3  4  1  0  0  0  0
  4  5  1  0  0  0  0
  1  5  1  0  0  0  0
  1  6  2  0  0  0  0
  3  7  1  0  0  0  0
  8  9  1  0  0  0  0
  9 10  2  0  0  0  0
 10 11  1  0  0  0  0
  2  8  1  0  0  0  0
M  END
>  <cdx:fragmentId>
5

$$$$
