20060.cdx
  Mrv1902 05222410272D          

 47 53  0  0  0  0            999 V2000
    8.3355   -6.2993    0.0000 C   0  0  0  0  0  0  0  0  0  0  0  0
    7.9598   -7.0338    0.0000 C   0  0  0  0  0  0  0  0  0  0  0  0
    8.4082   -7.7264    0.0000 C   0  0  0  0  0  0  0  0  0  0  0  0
    9.2321   -7.6844    0.0000 C   0  0  0  0  0  0  0  0  0  0  0  0
    9.6077   -6.9499    0.0000 C   0  0  0  0  0  0  0  0  0  0  0  0
    9.1594   -6.2573    0.0000 C   0  0  0  0  0  0  0  0  0  0  0  0
    9.5350   -5.5228    0.0000 C   0  0  0  0  0  0  0  0  0  0  0  0
    9.0867   -4.8303    0.0000 O   0  0  0  0  0  0  0  0  0  0  0  0
    8.2628   -4.8722    0.0000 C   0  0  0  0  0  0  0  0  0  0  0  0
    7.8872   -5.6068    0.0000 C   0  0  0  0  0  0  0  0  0  0  0  0
   10.3589   -5.4808    0.0000 O   0  0  0  0  0  0  0  0  0  0  0  0
    7.8145   -4.1797    0.0000 C   0  0  0  0  0  0  0  0  0  0  0  0
    8.1112   -3.4099    0.0000 C   0  0  0  0  0  0  0  0  0  0  0  0
    7.4709   -2.8898    0.0000 C   0  0  0  0  0  0  0  0  0  0  0  0
    6.7783   -3.3381    0.0000 O   0  0  0  0  0  0  0  0  0  0  0  0
    6.9907   -4.1353    0.0000 C   0  0  0  0  0  0  0  0  0  0  0  0
    7.8296   -4.8928    0.0000 H   0  0  0  0  0  0  0  0  0  0  0  0
    9.5925   -6.2367    0.0000 H   0  0  0  0  0  0  0  0  0  0  0  0
    7.5105   -6.2993    0.0000 C   0  0  0  0  0  0  0  0  0  0  0  0
    7.6785   -6.8688    0.0000 H   0  0  0  0  0  0  0  0  0  0  0  0
    8.4082   -8.5514    0.0000 C   0  0  0  0  0  0  0  0  0  0  0  0
    7.4225   -8.4769    0.0000 C   0  0  0  0  0  0  0  0  0  0  0  0
    6.9360   -7.8382    0.0000 C   0  0  0  0  0  0  0  0  0  0  0  0
    5.8429   -7.8382    0.0000 O   0  0  0  0  0  0  0  0  0  0  0  0
    7.9677   -9.1141    0.0000 C   0  0  0  0  0  0  0  0  0  0  0  0
    5.8429   -8.6632    0.0000 C   0  0  0  0  0  0  0  0  0  0  0  0
    6.9481   -8.8069    0.0000 C   0  0  0  0  0  0  0  0  0  0  0  0
    7.4182   -9.6916    0.0000 C   0  0  0  0  0  0  0  0  0  0  0  0
    6.6266   -8.3464    0.0000 H   0  0  0  0  0  0  0  0  0  0  0  0
    5.1284   -9.0757    0.0000 O   0  0  0  0  0  0  0  0  0  0  0  0
    6.9481   -9.6319    0.0000 O   0  0  0  0  0  0  0  0  0  0  0  0
    6.2337  -10.0444    0.0000 C   0  0  0  0  0  0  0  0  0  0  0  0
    5.5192   -9.6319    0.0000 O   0  0  0  0  0  0  0  0  0  0  0  0
    4.8047  -10.0444    0.0000 C   0  0  0  0  0  0  0  0  0  0  0  0
    4.8047  -10.8694    0.0000 C   0  0  0  0  0  0  0  0  0  0  0  0
    5.5192  -11.2819    0.0000 C   0  0  0  0  0  0  0  0  0  0  0  0
    6.2337  -10.8694    0.0000 C   0  0  0  0  0  0  0  0  0  0  0  0
    6.2337   -9.6319    0.0000 H   0  0  0  0  0  0  0  0  0  0  0  0
    4.8047   -9.6525    0.0000 H   0  0  0  0  0  0  0  0  0  0  0  0
    4.0903   -9.6319    0.0000 C   0  0  0  0  0  0  0  0  0  0  0  0
    3.3758  -10.0444    0.0000 O   0  0  0  0  0  0  0  0  0  0  0  0
    4.0903  -11.2819    0.0000 O   0  0  0  0  0  0  0  0  0  0  0  0
    5.5192  -12.1069    0.0000 O   0  0  0  0  0  0  0  0  0  0  0  0
    6.9481  -11.2819    0.0000 O   0  0  0  0  0  0  0  0  0  0  0  0
    4.4409  -10.6631    0.0000 H   0  0  0  0  0  0  0  0  0  0  0  0
    5.1554  -11.4881    0.0000 H   0  0  0  0  0  0  0  0  0  0  0  0
    6.2337  -11.3231    0.0000 H   0  0  0  0  0  0  0  0  0  0  0  0
  1  2  1  0  0  0  0
  2  3  1  0  0  0  0
  3  4  1  0  0  0  0
  4  5  1  0  0  0  0
  5  6  1  0  0  0  0
  6  1  1  0  0  0  0
  6  7  1  0  0  0  0
  7  8  1  0  0  0  0
  8  9  1  0  0  0  0
  9 10  1  0  0  0  0
 10  1  1  0  0  0  0
  7 11  2  0  0  0  0
  9 12  1  0  0  0  0
 12 13  1  0  0  0  0
 13 14  2  0  0  0  0
 14 15  1  0  0  0  0
 15 16  1  0  0  0  0
 16 12  2  0  0  0  0
  9 17  1  0  0  0  0
  6 18  1  0  0  0  0
  1 19  1  0  0  0  0
  2 20  1  0  0  0  0
  3 21  1  0  0  0  0
  3 22  1  0  0  0  0
  2 23  1  0  0  0  0
 23 22  1  0  0  0  0
 23 24  1  0  0  0  0
 22 25  1  0  0  0  0
 24 26  1  0  0  0  0
 26 27  1  0  0  0  0
 25 28  2  0  0  0  0
 27 28  1  0  0  0  0
 27 22  1  0  0  0  0
 23 29  1  0  0  0  0
 26 30  2  0  0  0  0
 27 31  1  0  0  0  0
 31 32  1  0  0  0  0
 32 33  1  0  0  0  0
 33 34  1  0  0  0  0
 34 35  1  0  0  0  0
 35 36  1  0  0  0  0
 36 37  1  0  0  0  0
 37 32  1  0  0  0  0
 32 38  1  0  0  0  0
 34 39  1  0  0  0  0
 34 40  1  0  0  0  0
 40 41  1  0  0  0  0
 35 42  1  0  0  0  0
 36 43  1  0  0  0  0
 37 44  1  0  0  0  0
 35 45  1  0  0  0  0
 36 46  1  0  0  0  0
 37 47  1  0  0  0  0
M  END
>  <cdx:fragmentId>
5

$$$$
