20069.cdx
  Mrv1902 05222410202D          

  8  7  0  0  0  0            999 V2000
    5.5869   -7.1569    0.0000 O   0  0  0  0  0  0  0  0  0  0  0  0
    6.3014   -6.7444    0.0000 C   0  0  0  0  0  0  0  0  0  0  0  0
    7.0158   -7.1569    0.0000 C   0  0  0  0  0  0  0  0  0  0  0  0
    7.7303   -6.7444    0.0000 C   0  0  0  0  0  0  0  0  0  0  0  0
    8.4448   -7.1569    0.0000 C   0  0  0  0  0  0  0  0  0  0  0  0
    9.1593   -6.7444    0.0000 C   0  0  0  0  0  0  0  0  0  0  0  0
    7.0158   -7.9819    0.0000 O   0  0  0  0  0  0  0  0  0  0  0  0
    7.3591   -7.3631    0.0000 H   0  0  0  0  0  0  0  0  0  0  0  0
  1  2  1  0  0  0  0
  2  3  1  0  0  0  0
  3  4  1  0  0  0  0
  4  5  1  0  0  0  0
  5  6  1  0  0  0  0
  3  7  1  0  0  0  0
  3  8  1  0  0  0  0
M  END
>  <cdx:fragmentId>
3

$$$$
