20063.cdx
  Mrv1902 05222410282D          

 13 12  0  0  0  0            999 V2000
    9.1725   -6.5175    0.0000 C   0  0  0  0  0  0  0  0  0  0  0  0
    8.4580   -6.9300    0.0000 C   0  0  0  0  0  0  0  0  0  0  0  0
    7.7435   -6.5175    0.0000 C   0  0  0  0  0  0  0  0  0  0  0  0
    7.0291   -6.9300    0.0000 C   0  0  0  0  0  0  0  0  0  0  0  0
    6.3146   -6.5175    0.0000 O   0  0  0  0  0  0  0  0  0  0  0  0
    5.6001   -6.9300    0.0000 C   0  0  0  0  0  0  0  0  0  0  0  0
    4.8856   -6.5175    0.0000 C   0  0  0  0  0  0  0  0  0  0  0  0
    4.8856   -5.6925    0.0000 C   0  0  0  0  0  0  0  0  0  0  0  0
    4.1712   -5.2800    0.0000 C   0  0  0  0  0  0  0  0  0  0  0  0
    4.1712   -4.4550    0.0000 C   0  0  0  0  0  0  0  0  0  0  0  0
    3.4567   -4.0425    0.0000 C   0  0  0  0  0  0  0  0  0  0  0  0
    7.7435   -5.6925    0.0000 C   0  0  0  0  0  0  0  0  0  0  0  0
    7.0291   -7.7550    0.0000 O   0  0  0  0  0  0  0  0  0  0  0  0
  2  1  1  0  0  0  0
  3  2  2  0  0  0  0
  4  3  1  0  0  0  0
  5  4  1  0  0  0  0
  6  5  1  0  0  0  0
  7  6  2  0  0  0  0
  7  8  1  0  0  0  0
  8  9  1  0  0  0  0
  9 10  1  0  0  0  0
 10 11  1  0  0  0  0
  3 12  1  0  0  0  0
  4 13  2  0  0  0  0
M  END
>  <cdx:fragmentId>
3

$$$$
