20068.cdx
  Mrv1902 05222410192D          

 18 20  0  0  0  0            999 V2000
    6.3574   -8.1675    0.0000 C   0  0  0  0  0  0  0  0  0  0  0  0
    6.3574   -8.9925    0.0000 C   0  0  0  0  0  0  0  0  0  0  0  0
    7.0306   -9.2813    0.0000 C   0  0  0  0  0  0  0  0  0  0  0  0
    7.7864   -8.9925    0.0000 C   0  0  0  0  0  0  0  0  0  0  0  0
    7.7864   -8.1675    0.0000 C   0  0  0  0  0  0  0  0  0  0  0  0
    7.0719   -7.7550    0.0000 C   0  0  0  0  0  0  0  0  0  0  0  0
    5.6430   -9.4050    0.0000 C   0  0  0  0  0  0  0  0  0  0  0  0
    7.2914   -9.8926    0.0000 C   0  0  0  0  0  0  0  0  0  0  0  0
    6.4739   -9.3903    0.0000 C   0  0  0  0  0  0  0  0  0  0  0  0
    6.4739   -8.5653    0.0000 C   0  0  0  0  0  0  0  0  0  0  0  0
    7.0719   -6.9300    0.0000 C   0  0  0  0  0  0  0  0  0  0  0  0
    7.7864   -6.5175    0.0000 O   0  0  0  0  0  0  0  0  0  0  0  0
    7.7864   -5.6925    0.0000 C   0  0  0  0  0  0  0  0  0  0  0  0
    8.5008   -5.2800    0.0000 C   0  0  0  0  0  0  0  0  0  0  0  0
    8.5008   -4.4550    0.0000 C   0  0  0  0  0  0  0  0  0  0  0  0
    7.7864   -4.0425    0.0000 C   0  0  0  0  0  0  0  0  0  0  0  0
    9.2153   -4.0425    0.0000 C   0  0  0  0  0  0  0  0  0  0  0  0
    7.0719   -5.2800    0.0000 O   0  0  0  0  0  0  0  0  0  0  0  0
  1  2  1  0  0  0  0
  2  3  1  0  0  0  0
  3  4  1  0  0  0  0
  4  5  1  0  0  0  0
  5  6  1  0  0  0  0
  6  1  1  0  0  0  0
  2  7  1  0  0  0  0
  4  8  1  0  0  0  0
  8  9  1  0  0  0  0
  7  9  1  0  0  0  0
  9 10  1  0  0  0  0
 10  6  1  0  0  0  0
  6 11  1  0  0  0  0
 11 12  1  0  0  0  0
 12 13  1  0  0  0  0
 13 14  1  0  0  0  0
 14 15  2  0  0  0  0
 15 16  1  0  0  0  0
 15 17  1  0  0  0  0
 13 18  2  0  0  0  0
M  END
>  <cdx:fragmentId>
5

$$$$
