20066.cdx
  Mrv1902 05222410262D          

 45 49  0  0  0  0            999 V2000
    3.4355   -6.3756    0.0000 C   0  0  1  0  0  0  0  0  0  0  0  0
    2.7196   -6.7857    0.0000 C   0  0  1  0  0  0  0  0  0  0  0  0
    2.7168   -7.6107    0.0000 C   0  0  2  0  0  0  0  0  0  0  0  0
    3.4298   -8.0256    0.0000 C   0  0  2  0  0  0  0  0  0  0  0  0
    4.1457   -7.6156    0.0000 C   0  0  1  0  0  0  0  0  0  0  0  0
    4.1485   -6.7906    0.0000 O   0  0  0  0  0  0  0  0  0  0  0  0
    4.8644   -6.3805    0.0000 O   0  0  0  0  0  0  0  0  0  0  0  0
    6.2961   -5.5604    0.0000 O   0  0  0  0  0  0  0  0  0  0  0  0
    7.7251   -5.5653    0.0000 O   0  0  0  0  0  0  0  0  0  0  0  0
    7.7223   -6.3903    0.0000 C   0  0  0  0  0  0  0  0  0  0  0  0
    7.7053  -11.3402    0.0000 O   0  0  0  0  0  0  0  0  0  0  0  0
    9.1343  -11.3451    0.0000 O   0  0  0  0  0  0  0  0  0  0  0  0
   12.7108  -10.1198    0.0000 C   0  0  0  0  0  0  0  0  0  0  0  0
   12.7137   -9.2948    0.0000 O   0  0  0  0  0  0  0  0  0  0  0  0
   12.7193   -7.6449    0.0000 O   0  0  0  0  0  0  0  0  0  0  0  0
   12.0091   -6.4049    0.0000 C   0  0  0  0  0  0  0  0  0  0  0  0
   11.2932   -6.8150    0.0000 O   0  0  0  0  0  0  0  0  0  0  0  0
   12.0006   -8.8799    0.0000 C   0  0  0  0  0  0  0  0  0  0  0  0
   12.0034   -8.0549    0.0000 C   0  0  0  0  0  0  0  0  0  0  0  0
   11.2904   -7.6400    0.0000 C   0  0  0  0  0  0  0  0  0  0  0  0
   10.5745   -8.0500    0.0000 C   0  0  0  0  0  0  0  0  0  0  0  0
   11.2847   -9.2900    0.0000 C   0  0  0  0  0  0  0  0  0  0  0  0
   10.5717   -8.8750    0.0000 C   0  0  0  0  0  0  0  0  0  0  0  0
    9.1371  -10.5201    0.0000 C   0  0  0  0  0  0  0  0  0  0  0  0
    9.8530  -10.1101    0.0000 C   0  0  0  0  0  0  0  0  0  0  0  0
    9.8558   -9.2851    0.0000 C   0  0  0  0  0  0  0  0  0  0  0  0
    9.1427   -8.8701    0.0000 O   0  0  0  0  0  0  0  0  0  0  0  0
    6.9951  -10.1003    0.0000 C   0  0  0  0  0  0  0  0  0  0  0  0
    7.7082  -10.5153    0.0000 C   0  0  0  0  0  0  0  0  0  0  0  0
    8.4240  -10.1052    0.0000 C   0  0  0  0  0  0  0  0  0  0  0  0
    8.4269   -9.2802    0.0000 C   0  0  0  0  0  0  0  0  0  0  0  0
    6.9979   -9.2753    0.0000 C   0  0  0  0  0  0  0  0  0  0  0  0
    7.7138   -8.8653    0.0000 C   0  0  0  0  0  0  0  0  0  0  0  0
    7.0036   -7.6253    0.0000 O   0  0  0  0  0  0  0  0  0  0  0  0
    7.0064   -6.8003    0.0000 C   0  0  1  0  0  0  0  0  0  0  0  0
    6.2933   -6.3854    0.0000 C   0  0  2  0  0  0  0  0  0  0  0  0
    5.5774   -6.7955    0.0000 C   0  0  1  0  0  0  0  0  0  0  0  0
    6.2849   -8.8604    0.0000 O   0  0  0  0  0  0  0  0  0  0  0  0
    6.2877   -8.0354    0.0000 C   0  0  1  0  0  0  0  0  0  0  0  0
    5.5746   -7.6204    0.0000 C   0  0  2  0  0  0  0  0  0  0  0  0
    4.8588   -8.0305    0.0000 O   0  0  0  0  0  0  0  0  0  0  0  0
    2.0065   -6.3707    0.0000 O   0  0  0  0  0  0  0  0  0  0  0  0
    3.4383   -5.5506    0.0000 C   0  0  0  0  0  0  0  0  0  0  0  0
    2.0009   -8.0207    0.0000 O   0  0  0  0  0  0  0  0  0  0  0  0
    3.4270   -8.8506    0.0000 O   0  0  0  0  0  0  0  0  0  0  0  0
 37  7  1  1  0  0  0
  1  2  1  0  0  0  0
  2  3  1  0  0  0  0
 36  8  1  6  0  0  0
 10  9  1  0  0  0  0
 35 10  1  1  0  0  0
 29 11  1  0  0  0  0
 24 12  2  0  0  0  0
 14 13  1  0  0  0  0
 18 14  1  0  0  0  0
 15 19  1  0  0  0  0
 17 16  1  0  0  0  0
 20 17  1  0  0  0  0
 18 22  2  0  0  0  0
 19 18  1  0  0  0  0
 20 19  2  0  0  0  0
 21 20  1  0  0  0  0
 23 21  2  0  0  0  0
 23 22  1  0  0  0  0
 26 23  1  0  0  0  0
 24 30  1  0  0  0  0
 25 24  1  0  0  0  0
 26 25  2  0  0  0  0
 27 26  1  0  0  0  0
 31 27  1  0  0  0  0
 28 32  2  0  0  0  0
 29 28  1  0  0  0  0
 30 29  2  0  0  0  0
 31 30  1  0  0  0  0
 33 31  2  0  0  0  0
 32 38  1  0  0  0  0
 33 32  1  0  0  0  0
 34 39  1  0  0  0  0
 35 34  1  0  0  0  0
 36 35  1  0  0  0  0
 37 36  1  0  0  0  0
 40 37  1  0  0  0  0
 39 38  1  1  0  0  0
 40 39  1  0  0  0  0
 40 41  1  6  0  0  0
  3  4  1  0  0  0  0
  4  5  1  0  0  0  0
  5  6  1  0  0  0  0
  6  1  1  0  0  0  0
  5 41  1  1  0  0  0
  2 42  1  1  0  0  0
  1 43  1  6  0  0  0
  3 44  1  6  0  0  0
  4 45  1  6  0  0  0
M  END
>  <cdx:fragmentId>
5

$$$$
