20065.cdx
  Mrv1902 05222410272D          

 34 37  0  0  0  0            999 V2000
    3.5524   -7.6931    0.0000 C   0  0  0  0  0  0  0  0  0  0  0  0
    3.5524   -8.5181    0.0000 C   0  0  0  0  0  0  0  0  0  0  0  0
    4.2669   -8.9306    0.0000 C   0  0  0  0  0  0  0  0  0  0  0  0
    4.9814   -8.5181    0.0000 C   0  0  0  0  0  0  0  0  0  0  0  0
    4.9814   -7.6931    0.0000 C   0  0  2  0  0  0  0  0  0  0  0  0
    4.2669   -7.2806    0.0000 C   0  0  0  0  0  0  0  0  0  0  0  0
    5.6958   -8.9306    0.0000 C   0  0  0  0  0  0  0  0  0  0  0  0
    6.4103   -8.5181    0.0000 C   0  0  0  0  0  0  0  0  0  0  0  0
    6.4103   -7.6931    0.0000 C   0  0  2  0  0  0  0  0  0  0  0  0
    5.6958   -7.2806    0.0000 C   0  0  2  0  0  0  0  0  0  0  0  0
    7.1248   -7.2806    0.0000 C   0  0  1  0  0  0  0  0  0  0  0  0
    7.1248   -6.4556    0.0000 C   0  0  2  0  0  0  0  0  0  0  0  0
    6.4103   -6.0431    0.0000 C   0  0  0  0  0  0  0  0  0  0  0  0
    5.6958   -6.4556    0.0000 C   0  0  0  0  0  0  0  0  0  0  0  0
    7.9094   -7.5356    0.0000 C   0  0  0  0  0  0  0  0  0  0  0  0
    8.3943   -6.8681    0.0000 C   0  0  0  0  0  0  0  0  0  0  0  0
    7.9094   -6.2007    0.0000 C   0  0  2  0  0  0  0  0  0  0  0  0
    2.8380   -8.9306    0.0000 O   0  0  0  0  0  0  0  0  0  0  0  0
    8.1643   -5.4161    0.0000 C   0  0  1  0  0  0  0  0  0  0  0  0
    8.9612   -5.2025    0.0000 C   0  0  0  0  0  0  0  0  0  0  0  0
    9.1748   -4.4056    0.0000 C   0  0  0  0  0  0  0  0  0  0  0  0
    9.9716   -4.1921    0.0000 C   0  0  1  0  0  0  0  0  0  0  0  0
   10.5550   -4.7755    0.0000 C   0  0  0  0  0  0  0  0  0  0  0  0
   10.1852   -3.3952    0.0000 C   0  0  0  0  0  0  0  0  0  0  0  0
   10.9821   -3.1817    0.0000 C   0  0  0  0  0  0  0  0  0  0  0  0
   11.3519   -4.5620    0.0000 C   0  0  0  0  0  0  0  0  0  0  0  0
    9.6018   -2.8119    0.0000 C   0  0  0  0  0  0  0  0  0  0  0  0
    5.6958   -8.1056    0.0000 H   0  0  0  0  0  0  0  0  0  0  0  0
    6.4103   -6.8681    0.0000 H   0  0  0  0  0  0  0  0  0  0  0  0
    7.1248   -8.1056    0.0000 H   0  0  0  0  0  0  0  0  0  0  0  0
    8.7063   -5.9872    0.0000 H   0  0  0  0  0  0  0  0  0  0  0  0
    7.5810   -4.8327    0.0000 C   0  0  0  0  0  0  0  0  0  0  0  0
    4.9814   -6.8681    0.0000 C   0  0  0  0  0  0  0  0  0  0  0  0
    7.1248   -5.6306    0.0000 C   0  0  0  0  0  0  0  0  0  0  0  0
  1  2  2  0  0  0  0
  2  3  1  0  0  0  0
  3  4  1  0  0  0  0
  4  5  1  0  0  0  0
  5  6  1  0  0  0  0
  6  1  1  0  0  0  0
  4  7  2  0  0  0  0
  7  8  1  0  0  0  0
  8  9  1  0  0  0  0
  9 10  1  0  0  0  0
 10  5  1  0  0  0  0
  9 11  1  0  0  0  0
 11 12  1  0  0  0  0
 12 13  1  0  0  0  0
 13 14  1  0  0  0  0
 14 10  1  0  0  0  0
 11 15  1  0  0  0  0
 15 16  1  0  0  0  0
 16 17  1  0  0  0  0
 17 12  1  0  0  0  0
  2 18  1  1  0  0  0
 17 19  1  0  0  0  0
 19 20  1  0  0  0  0
 20 21  1  0  0  0  0
 22 21  1  6  0  0  0
 22 23  1  0  0  0  0
 22 24  1  0  0  0  0
 24 25  1  0  0  0  0
 23 26  1  0  0  0  0
 24 27  1  0  0  0  0
 10 28  1  6  0  0  0
  9 29  1  1  0  0  0
 11 30  1  6  0  0  0
 17 31  1  6  0  0  0
 19 32  1  6  0  0  0
  5 33  1  1  0  0  0
 12 34  1  1  0  0  0
M  END
>  <cdx:fragmentId>
5

$$$$
