20062.cdx
  Mrv1902 05222410282D          

 20 22  0  0  0  0            999 V2000
    7.9920   -6.2437    0.0000 H   0  0  0  0  0  0  0  0  0  0  0  0
    8.0215   -8.6623    0.0000 H   0  0  0  0  0  0  0  0  0  0  0  0
    6.3494   -6.2356    0.0000 C   0  0  0  0  0  0  0  0  0  0  0  0
    5.6299   -5.8318    0.0000 O   0  0  0  0  0  0  0  0  0  0  0  0
    9.8877   -7.4301    0.0000 O   0  0  0  0  0  0  0  0  0  0  0  0
    8.8504   -8.8949    0.0000 C   0  0  0  0  0  0  0  0  0  0  0  0
    5.6701   -9.1316    0.0000 C   0  0  0  0  0  0  0  0  0  0  0  0
    8.5860   -8.1134    0.0000 C   0  0  0  0  0  0  0  0  0  0  0  0
    9.0627   -7.4401    0.0000 C   0  0  0  0  0  0  0  0  0  0  0  0
    8.5697   -6.7787    0.0000 O   0  0  0  0  0  0  0  0  0  0  0  0
    7.0889   -8.2893    0.0000 C   0  0  0  0  0  0  0  0  0  0  0  0
    7.7983   -7.8681    0.0000 C   0  0  1  0  0  0  0  0  0  0  0  0
    7.7882   -7.0431    0.0000 C   0  0  1  0  0  0  0  0  0  0  0  0
    7.0688   -6.6394    0.0000 C   0  0  0  0  0  0  0  0  0  0  0  0
    5.6601   -8.3067    0.0000 C   0  0  0  0  0  0  0  0  0  0  0  0
    6.3695   -7.8855    0.0000 C   0  0  0  0  0  0  0  0  0  0  0  0
    6.3594   -7.0605    0.0000 C   0  0  1  0  0  0  0  0  0  0  0  0
    5.6400   -6.6568    0.0000 C   0  0  1  0  0  0  0  0  0  0  0  0
    4.9306   -7.0779    0.0000 C   0  0  0  0  0  0  0  0  0  0  0  0
    4.9406   -7.9029    0.0000 C   0  0  0  0  0  0  0  0  0  0  0  0
 13  1  1  6  0  0  0
 12  2  1  6  0  0  0
 17  3  1  1  0  0  0
 18  4  1  1  0  0  0
  9  5  2  0  0  0  0
  8  6  2  0  0  0  0
 15  7  1  0  0  0  0
  8 12  1  0  0  0  0
  9  8  1  0  0  0  0
 10  9  1  0  0  0  0
 13 10  1  0  0  0  0
 11 16  1  0  0  0  0
 12 11  1  0  0  0  0
 13 12  1  0  0  0  0
 14 13  1  0  0  0  0
 17 14  1  0  0  0  0
 15 20  1  0  0  0  0
 16 15  2  0  0  0  0
 17 16  1  0  0  0  0
 18 17  1  0  0  0  0
 19 18  1  0  0  0  0
 20 19  1  0  0  0  0
M  END
>  <cdx:fragmentId>
5

$$$$
