20061.cdx
  Mrv1902 05222410272D          

 37 43  0  0  0  0            999 V2000
    8.4952   -7.6938    0.0000 C   0  0  0  0  0  0  0  0  0  0  0  0
    7.7231   -7.9891    0.0000 C   0  0  0  0  0  0  0  0  0  0  0  0
    8.8945   -6.9732    0.0000 C   0  0  0  0  0  0  0  0  0  0  0  0
    8.7396   -6.1611    0.0000 C   0  0  0  0  0  0  0  0  0  0  0  0
    8.0983   -5.6438    0.0000 C   0  0  0  0  0  0  0  0  0  0  0  0
    7.2734   -5.6481    0.0000 C   0  0  0  0  0  0  0  0  0  0  0  0
    6.6464   -6.1854    0.0000 C   0  0  0  0  0  0  0  0  0  0  0  0
    6.5162   -6.9996    0.0000 C   0  0  0  0  0  0  0  0  0  0  0  0
    6.9481   -7.7019    0.0000 C   0  0  0  0  0  0  0  0  0  0  0  0
    8.5071   -4.9272    0.0000 C   0  0  0  0  0  0  0  0  0  0  0  0
    8.0983   -4.2149    0.0000 C   0  0  0  0  0  0  0  0  0  0  0  0
    7.2734   -4.2149    0.0000 C   0  0  0  0  0  0  0  0  0  0  0  0
    6.8646   -4.9272    0.0000 C   0  0  0  0  0  0  0  0  0  0  0  0
    9.3284   -4.9272    0.0000 C   0  0  0  0  0  0  0  0  0  0  0  0
    9.7409   -4.2149    0.0000 C   0  0  0  0  0  0  0  0  0  0  0  0
    9.3284   -3.5026    0.0000 C   0  0  0  0  0  0  0  0  0  0  0  0
    8.5071   -3.5026    0.0000 C   0  0  0  0  0  0  0  0  0  0  0  0
    8.9196   -5.6417    0.0000 C   0  0  0  0  0  0  0  0  0  0  0  0
    9.7405   -5.6420    0.0000 O   0  0  0  0  0  0  0  0  0  0  0  0
    5.9265   -5.7824    0.0000 O   0  0  0  0  0  0  0  0  0  0  0  0
    5.8017   -6.5871    0.0000 O   0  0  0  0  0  0  0  0  0  0  0  0
    9.2921   -7.4803    0.0000 O   0  0  0  0  0  0  0  0  0  0  0  0
    7.5096   -8.7859    0.0000 C   0  0  0  0  0  0  0  0  0  0  0  0
    6.0068   -8.1969    0.0000 C   0  0  0  0  0  0  0  0  0  0  0  0
    6.0068   -9.0219    0.0000 C   0  0  0  0  0  0  0  0  0  0  0  0
    6.8037   -9.2354    0.0000 C   0  0  0  0  0  0  0  0  0  0  0  0
    5.2923   -8.6094    0.0000 C   0  0  0  0  0  0  0  0  0  0  0  0
    5.2923   -9.4344    0.0000 C   0  0  0  0  0  0  0  0  0  0  0  0
    6.0892   -9.6479    0.0000 O   0  0  0  0  0  0  0  0  0  0  0  0
    5.4234   -7.6135    0.0000 C   0  0  0  0  0  0  0  0  0  0  0  0
    4.7089   -8.0260    0.0000 C   0  0  0  0  0  0  0  0  0  0  0  0
    4.6378   -9.9366    0.0000 O   0  0  0  0  0  0  0  0  0  0  0  0
    9.3054   -8.5453    0.0000 C   0  0  0  0  0  0  0  0  0  0  0  0
    8.4303   -9.2191    0.0000 O   0  0  0  0  0  0  0  0  0  0  0  0
    7.7231   -9.5828    0.0000 C   0  0  0  0  0  0  0  0  0  0  0  0
   10.1304   -8.5453    0.0000 O   0  0  0  0  0  0  0  0  0  0  0  0
    7.8748   -8.6416    0.0000 O   0  0  0  0  0  0  0  0  0  0  0  0
  1  2  1  0  0  0  0
  1  3  1  0  0  0  0
  3  4  1  0  0  0  0
  4  5  1  0  0  0  0
  5  6  1  0  0  0  0
  6  7  1  0  0  0  0
  7  8  1  0  0  0  0
  8  9  1  0  0  0  0
  2  9  1  0  0  0  0
  5 10  1  0  0  0  0
 10 11  1  0  0  0  0
 11 12  2  0  0  0  0
 12 13  1  0  0  0  0
 13  6  1  0  0  0  0
 10 14  1  0  0  0  0
 14 15  1  0  0  0  0
 15 16  1  0  0  0  0
 16 17  2  0  0  0  0
 17 11  1  0  0  0  0
 10 18  1  0  0  0  0
 14 19  2  0  0  0  0
  7 20  1  0  0  0  0
  8 21  2  0  0  0  0
  1 22  1  0  0  0  0
  2 23  1  0  0  0  0
  9 24  1  0  0  0  0
 24 25  1  0  0  0  0
 25 26  1  0  0  0  0
 26 23  1  0  0  0  0
 24 27  1  0  0  0  0
 27 28  1  0  0  0  0
 28 29  1  0  0  0  0
 29 26  1  0  0  0  0
 24 30  1  0  0  0  0
 27 31  1  0  0  0  0
 28 32  2  0  0  0  0
  1 33  1  0  0  0  0
 23 34  1  0  0  0  0
 34 33  1  0  0  0  0
 23 35  1  0  0  0  0
 33 36  2  0  0  0  0
  2 37  1  0  0  0  0
 37  7  1  0  0  0  0
M  END
>  <cdx:groupId>
738

>  <cdx:fragmentId>
739

$$$$
