20067.cdx
  Mrv1902 05222410262D          

 19 21  0  0  0  0            999 V2000
    3.5373   -7.4286    0.0000 C   0  0  0  0  0  0  0  0  0  0  0  0
    3.7961   -8.2119    0.0000 C   0  0  0  0  0  0  0  0  0  0  0  0
    4.6039   -8.3795    0.0000 C   0  0  0  0  0  0  0  0  0  0  0  0
    5.1529   -7.7636    0.0000 C   0  0  0  0  0  0  0  0  0  0  0  0
    4.8941   -6.9803    0.0000 C   0  0  0  0  0  0  0  0  0  0  0  0
    4.0863   -6.8128    0.0000 C   0  0  0  0  0  0  0  0  0  0  0  0
    5.9779   -7.7596    0.0000 C   0  0  0  0  0  0  0  0  0  0  0  0
    6.2290   -6.9737    0.0000 C   0  0  0  0  0  0  0  0  0  0  0  0
    5.5591   -6.4921    0.0000 N   0  0  0  0  0  0  0  0  0  0  0  0
    6.5330   -8.3699    0.0000 C   0  0  0  0  0  0  0  0  0  0  0  0
    7.3391   -8.1944    0.0000 C   0  0  0  0  0  0  0  0  0  0  0  0
    7.5901   -7.4085    0.0000 N   0  0  0  0  0  0  0  0  0  0  0  0
    7.0351   -6.7982    0.0000 C   0  0  0  0  0  0  0  0  0  0  0  0
    7.2486   -6.0013    0.0000 C   0  0  0  0  0  0  0  0  0  0  0  0
    6.6652   -5.4179    0.0000 O   0  0  0  0  0  0  0  0  0  0  0  0
    8.0455   -5.7877    0.0000 C   0  0  0  0  0  0  0  0  0  0  0  0
    7.9225   -8.7777    0.0000 C   0  0  0  0  0  0  0  0  0  0  0  0
    8.7193   -8.5642    0.0000 N   0  0  0  0  0  0  0  0  0  0  0  0
    7.7089   -9.5746    0.0000 O   0  0  0  0  0  0  0  0  0  0  0  0
  1  2  2  0  0  0  0
  2  3  1  0  0  0  0
  3  4  2  0  0  0  0
  4  5  1  0  0  0  0
  5  6  2  0  0  0  0
  6  1  1  0  0  0  0
  4  7  1  0  0  0  0
  7  8  2  0  0  0  0
  8  9  1  0  0  0  0
  9  5  1  0  0  0  0
  7 10  1  0  0  0  0
 10 11  2  0  0  0  0
 11 12  1  0  0  0  0
 12 13  2  0  0  0  0
 13  8  1  0  0  0  0
 13 14  1  0  0  0  0
 14 15  2  0  0  0  0
 14 16  1  0  0  0  0
 11 17  1  0  0  0  0
 17 18  1  0  0  0  0
 17 19  2  0  0  0  0
M  END
>  <cdx:fragmentId>
5

$$$$
