20071.cdx
  Mrv1902 05222410272D          

 11 12  0  0  0  0            999 V2000
    4.7899   -7.6106    0.0000 C   0  0  0  0  0  0  0  0  0  0  0  0
    4.7899   -8.4356    0.0000 C   0  0  0  0  0  0  0  0  0  0  0  0
    5.5044   -8.8481    0.0000 C   0  0  0  0  0  0  0  0  0  0  0  0
    6.2189   -8.4356    0.0000 C   0  0  0  0  0  0  0  0  0  0  0  0
    6.2189   -7.6106    0.0000 C   0  0  0  0  0  0  0  0  0  0  0  0
    5.5044   -7.1981    0.0000 C   0  0  0  0  0  0  0  0  0  0  0  0
    7.0035   -8.6906    0.0000 S   0  0  0  0  0  0  0  0  0  0  0  0
    7.4884   -8.0231    0.0000 C   0  0  0  0  0  0  0  0  0  0  0  0
    7.0035   -7.3557    0.0000 N   0  0  0  0  0  0  0  0  0  0  0  0
    7.2584   -6.5711    0.0000 C   0  0  0  0  0  0  0  0  0  0  0  0
    8.3134   -8.0231    0.0000 S   0  0  0  0  0  0  0  0  0  0  0  0
  1  2  2  0  0  0  0
  2  3  1  0  0  0  0
  3  4  2  0  0  0  0
  4  5  1  0  0  0  0
  5  6  2  0  0  0  0
  6  1  1  0  0  0  0
  4  7  1  0  0  0  0
  7  8  1  0  0  0  0
  8  9  1  0  0  0  0
  9  5  1  0  0  0  0
  9 10  1  0  0  0  0
  8 11  2  0  0  0  0
M  END
>  <cdx:fragmentId>
5

$$$$
