20076.cdx
  Mrv1902 05222410282D          

 17 18  0  0  0  0            999 V2000
    7.5224   -6.4783    0.0000 C   0  0  0  0  0  0  0  0  0  0  0  0
    8.3192   -6.2642    0.0000 C   0  0  0  0  0  0  0  0  0  0  0  0
    9.1159   -6.4783    0.0000 C   0  0  0  0  0  0  0  0  0  0  0  0
    9.5296   -5.7646    0.0000 C   0  0  0  0  0  0  0  0  0  0  0  0
    7.4525   -5.7200    0.0000 C   0  0  0  0  0  0  0  0  0  0  0  0
    8.7328   -5.5505    0.0000 C   0  0  0  0  0  0  0  0  0  0  0  0
    8.2794   -4.3830    0.0000 C   0  0  0  0  0  0  0  0  0  0  0  0
    8.6919   -3.6686    0.0000 C   0  0  0  0  0  0  0  0  0  0  0  0
    7.6960   -3.7997    0.0000 C   0  0  0  0  0  0  0  0  0  0  0  0
    8.1056   -7.0611    0.0000 C   0  0  0  0  0  0  0  0  0  0  0  0
    7.1099   -7.1928    0.0000 O   0  0  0  0  0  0  0  0  0  0  0  0
    6.2849   -7.1928    0.0000 C   0  0  0  0  0  0  0  0  0  0  0  0
    5.8724   -7.9073    0.0000 C   0  0  0  0  0  0  0  0  0  0  0  0
    5.0474   -7.9073    0.0000 C   0  0  0  0  0  0  0  0  0  0  0  0
    4.6349   -8.6217    0.0000 C   0  0  0  0  0  0  0  0  0  0  0  0
    4.6349   -7.1928    0.0000 C   0  0  0  0  0  0  0  0  0  0  0  0
    5.8724   -6.4783    0.0000 O   0  0  0  0  0  0  0  0  0  0  0  0
  1  2  1  0  0  0  0
  2  3  1  0  0  0  0
  3  4  1  0  0  0  0
  1  5  1  0  0  0  0
  5  6  1  0  0  0  0
  4  6  1  0  0  0  0
  6  7  1  0  0  0  0
  2  7  1  0  0  0  0
  7  8  1  0  0  0  0
  7  9  1  0  0  0  0
  2 10  1  0  0  0  0
  1 11  1  0  0  0  0
 11 12  1  0  0  0  0
 12 13  1  0  0  0  0
 13 14  1  0  0  0  0
 14 15  1  0  0  0  0
 14 16  1  0  0  0  0
 12 17  2  0  0  0  0
M  END
>  <cdx:fragmentId>
800

$$$$
