20078.cdx
  Mrv1902 05222410192D          

 22 23  0  0  0  0            999 V2000
    6.4193   -4.4756    0.0000 C   0  0  0  0  0  0  0  0  0  0  0  0
    6.4193   -5.3006    0.0000 C   0  0  0  0  0  0  0  0  0  0  0  0
    7.1338   -5.7131    0.0000 C   0  0  0  0  0  0  0  0  0  0  0  0
    7.8482   -5.3006    0.0000 C   0  0  0  0  0  0  0  0  0  0  0  0
    7.8482   -4.4756    0.0000 C   0  0  0  0  0  0  0  0  0  0  0  0
    7.1338   -4.0631    0.0000 C   0  0  0  0  0  0  0  0  0  0  0  0
    7.1338   -6.5381    0.0000 C   0  0  0  0  0  0  0  0  0  0  0  0
    6.3088   -6.5381    0.0000 O   0  0  0  0  0  0  0  0  0  0  0  0
    7.9588   -6.5381    0.0000 C   0  0  0  0  0  0  0  0  0  0  0  0
    7.1338   -3.2381    0.0000 Br  0  0  0  0  0  0  0  0  0  0  0  0
    8.3713   -5.8237    0.0000 O   0  0  0  0  0  0  0  0  0  0  0  0
    8.3713   -7.2526    0.0000 O   0  0  0  0  0  0  0  0  0  0  0  0
    9.1963   -5.8237    0.0000 C   0  0  0  0  0  0  0  0  0  0  0  0
    9.6088   -5.1092    0.0000 C   0  0  0  0  0  0  0  0  0  0  0  0
    9.6088   -6.5381    0.0000 C   0  0  0  0  0  0  0  0  0  0  0  0
    7.1338   -7.3631    0.0000 C   0  0  0  0  0  0  0  0  0  0  0  0
    6.4193   -7.7756    0.0000 C   0  0  0  0  0  0  0  0  0  0  0  0
    6.4193   -8.6006    0.0000 C   0  0  0  0  0  0  0  0  0  0  0  0
    7.1338   -9.0131    0.0000 C   0  0  0  0  0  0  0  0  0  0  0  0
    7.8482   -8.6006    0.0000 C   0  0  0  0  0  0  0  0  0  0  0  0
    7.8482   -7.7756    0.0000 C   0  0  0  0  0  0  0  0  0  0  0  0
    7.1338   -9.8381    0.0000 Br  0  0  0  0  0  0  0  0  0  0  0  0
  1  2  2  0  0  0  0
  2  3  1  0  0  0  0
  3  4  2  0  0  0  0
  4  5  1  0  0  0  0
  5  6  2  0  0  0  0
  6  1  1  0  0  0  0
  3  7  1  0  0  0  0
  7  8  1  0  0  0  0
  7  9  1  0  0  0  0
  6 10  1  0  0  0  0
  9 11  1  0  0  0  0
  9 12  2  0  0  0  0
 11 13  1  0  0  0  0
 13 14  1  0  0  0  0
 13 15  1  0  0  0  0
  7 16  1  0  0  0  0
 16 17  2  0  0  0  0
 17 18  1  0  0  0  0
 18 19  2  0  0  0  0
 19 20  1  0  0  0  0
 20 21  2  0  0  0  0
 21 16  1  0  0  0  0
 19 22  1  0  0  0  0
M  END
>  <cdx:fragmentId>
5

$$$$
