20075.cdx
  Mrv1902 05222410272D          

 22 23  0  0  0  0            999 V2000
    6.9968   -7.7963    0.0000 C   0  0  0  0  0  0  0  0  0  0  0  0
    6.9968   -8.6212    0.0000 C   0  0  0  0  0  0  0  0  0  0  0  0
    7.7113   -9.0337    0.0000 C   0  0  2  0  0  0  0  0  0  0  0  0
    8.4257   -8.6212    0.0000 C   0  0  2  0  0  0  0  0  0  0  0  0
    8.4257   -7.7963    0.0000 C   0  0  0  0  0  0  0  0  0  0  0  0
    7.7113   -7.3838    0.0000 C   0  0  2  0  0  0  0  0  0  0  0  0
    9.2104   -8.8762    0.0000 C   0  0  1  0  0  0  0  0  0  0  0  0
    9.6953   -8.2088    0.0000 C   0  0  0  0  0  0  0  0  0  0  0  0
    9.2104   -7.5413    0.0000 C   0  0  0  0  0  0  0  0  0  0  0  0
    9.4653   -6.7567    0.0000 C   0  0  0  0  0  0  0  0  0  0  0  0
    7.7113   -9.8588    0.0000 C   0  0  0  0  0  0  0  0  0  0  0  0
    9.4653   -9.6608    0.0000 O   0  0  0  0  0  0  0  0  0  0  0  0
   10.2622   -9.8743    0.0000 C   0  0  0  0  0  0  0  0  0  0  0  0
   10.9767   -9.4618    0.0000 O   0  0  0  0  0  0  0  0  0  0  0  0
   10.4757  -10.6712    0.0000 C   0  0  0  0  0  0  0  0  0  0  0  0
    7.7113   -6.5587    0.0000 C   0  0  0  0  0  0  0  0  0  0  0  0
    6.9968   -6.1463    0.0000 C   0  0  0  0  0  0  0  0  0  0  0  0
    6.2823   -6.5587    0.0000 C   0  0  0  0  0  0  0  0  0  0  0  0
    6.9968   -5.3213    0.0000 C   0  0  0  0  0  0  0  0  0  0  0  0
    6.2823   -4.9088    0.0000 O   0  0  0  0  0  0  0  0  0  0  0  0
    7.7113   -4.9088    0.0000 O   0  0  0  0  0  0  0  0  0  0  0  0
    8.4257   -9.4462    0.0000 H   0  0  0  0  0  0  0  0  0  0  0  0
  1  2  1  0  0  0  0
  2  3  1  0  0  0  0
  3  4  1  0  0  0  0
  4  5  1  0  0  0  0
  5  6  1  0  0  0  0
  6  1  1  0  0  0  0
  4  7  1  0  0  0  0
  7  8  1  0  0  0  0
  8  9  1  0  0  0  0
  9  5  2  0  0  0  0
  9 10  1  0  0  0  0
  3 11  1  6  0  0  0
  7 12  1  1  0  0  0
 12 13  1  0  0  0  0
 13 14  2  0  0  0  0
 13 15  1  0  0  0  0
  6 16  1  1  0  0  0
 16 17  2  0  0  0  0
 17 18  1  0  0  0  0
 17 19  1  0  0  0  0
 19 20  1  0  0  0  0
 19 21  2  0  0  0  0
  4 22  1  1  0  0  0
M  END
>  <cdx:fragmentId>
5

$$$$
