20072.cdx
  Mrv1902 05222410262D          

  8  8  0  0  0  0            999 V2000
    7.1371   -8.3563    0.0000 O   0  0  0  0  0  0  0  0  0  0  0  0
    7.3921   -7.5717    0.0000 C   0  0  0  0  0  0  0  0  0  0  0  0
    6.7246   -7.0868    0.0000 C   0  0  0  0  0  0  0  0  0  0  0  0
    6.0572   -7.5717    0.0000 C   0  0  0  0  0  0  0  0  0  0  0  0
    6.3121   -8.3563    0.0000 C   0  0  0  0  0  0  0  0  0  0  0  0
    8.1767   -7.3168    0.0000 O   0  0  0  0  0  0  0  0  0  0  0  0
    6.3121   -6.3723    0.0000 Cl  0  0  0  0  0  0  0  0  0  0  0  0
    7.1371   -6.3723    0.0000 Cl  0  0  0  0  0  0  0  0  0  0  0  0
  1  5  1  0  0  0  0
  2  1  1  0  0  0  0
  3  2  1  0  0  0  0
  4  3  1  0  0  0  0
  5  4  1  0  0  0  0
  2  6  2  0  0  0  0
  3  7  1  0  0  0  0
  3  8  1  0  0  0  0
M  END
>  <cdx:fragmentId>
5

$$$$
