20074.cdx
  Mrv1902 05222410272D          

 16 18  0  0  0  0            999 V2000
    3.6620   -6.8752    0.0000 C   0  0  0  0  0  0  0  0  0  0  0  0
    3.9143   -7.6606    0.0000 C   0  0  0  0  0  0  0  0  0  0  0  0
    4.7207   -7.8349    0.0000 C   0  0  0  0  0  0  0  0  0  0  0  0
    5.2748   -7.2236    0.0000 C   0  0  0  0  0  0  0  0  0  0  0  0
    5.0225   -6.4382    0.0000 C   0  0  0  0  0  0  0  0  0  0  0  0
    4.2161   -6.2639    0.0000 C   0  0  0  0  0  0  0  0  0  0  0  0
    6.0998   -7.2264    0.0000 C   0  0  0  0  0  0  0  0  0  0  0  0
    6.3574   -6.4426    0.0000 C   0  0  0  0  0  0  0  0  0  0  0  0
    5.6916   -5.9555    0.0000 C   0  0  0  0  0  0  0  0  0  0  0  0
    6.6498   -7.8414    0.0000 C   0  0  0  0  0  0  0  0  0  0  0  0
    7.4573   -7.6725    0.0000 C   0  0  0  0  0  0  0  0  0  0  0  0
    7.7149   -6.8888    0.0000 C   0  0  0  0  0  0  0  0  0  0  0  0
    7.1649   -6.2738    0.0000 C   0  0  0  0  0  0  0  0  0  0  0  0
    6.2373   -8.5558    0.0000 C   0  0  0  0  0  0  0  0  0  0  0  0
    5.4123   -8.5558    0.0000 O   0  0  0  0  0  0  0  0  0  0  0  0
    6.6498   -9.2703    0.0000 O   0  0  0  0  0  0  0  0  0  0  0  0
  1  2  2  0  0  0  0
  2  3  1  0  0  0  0
  3  4  2  0  0  0  0
  4  5  1  0  0  0  0
  5  6  2  0  0  0  0
  6  1  1  0  0  0  0
  4  7  1  0  0  0  0
  7  8  2  0  0  0  0
  8  9  1  0  0  0  0
  9  5  1  0  0  0  0
  7 10  1  0  0  0  0
 10 11  2  0  0  0  0
 11 12  1  0  0  0  0
 12 13  2  0  0  0  0
 13  8  1  0  0  0  0
 10 14  1  0  0  0  0
 14 15  2  0  0  0  0
 14 16  1  0  0  0  0
M  END
>  <cdx:fragmentId>
46

$$$$
