20073.cdx
  Mrv1902 05222410262D          

 16 16  0  0  0  0            999 V2000
    6.8783   -7.3879    0.0000 C   0  0  0  0  0  0  0  0  0  0  0  0
    6.1735   -7.8167    0.0000 C   0  0  0  0  0  0  0  0  0  0  0  0
    6.1923   -8.6414    0.0000 C   0  0  0  0  0  0  0  0  0  0  0  0
    6.9160   -9.0375    0.0000 C   0  0  0  0  0  0  0  0  0  0  0  0
    7.6209   -8.6088    0.0000 C   0  0  0  0  0  0  0  0  0  0  0  0
    7.6020   -7.7840    0.0000 C   0  0  0  0  0  0  0  0  0  0  0  0
    8.3446   -9.0048    0.0000 O   0  0  0  0  0  0  0  0  0  0  0  0
    6.9349   -9.8623    0.0000 C   0  0  0  0  0  0  0  0  0  0  0  0
    7.6586  -10.2583    0.0000 C   0  0  0  0  0  0  0  0  0  0  0  0
    6.2301  -10.2910    0.0000 C   0  0  0  0  0  0  0  0  0  0  0  0
    8.3069   -7.3552    0.0000 C   0  0  0  0  0  0  0  0  0  0  0  0
    8.2880   -6.5304    0.0000 C   0  0  0  0  0  0  0  0  0  0  0  0
    9.0306   -7.7513    0.0000 C   0  0  0  0  0  0  0  0  0  0  0  0
    7.2743   -6.6642    0.0000 C   0  0  0  0  0  0  0  0  0  0  0  0
    6.4496   -6.6831    0.0000 C   0  0  0  0  0  0  0  0  0  0  0  0
    5.6246   -6.6831    0.0000 C   0  0  0  0  0  0  0  0  0  0  0  0
  1  2  1  0  0  0  0
  2  3  1  0  0  0  0
  3  4  1  0  0  0  0
  4  5  1  0  0  0  0
  5  6  1  0  0  0  0
  6  1  1  0  0  0  0
  5  7  1  0  0  0  0
  4  8  1  0  0  0  0
  8  9  1  0  0  0  0
  8 10  1  0  0  0  0
  6 11  1  0  0  0  0
 11 12  2  0  0  0  0
 11 13  1  0  0  0  0
  1 14  1  0  0  0  0
  1 15  1  0  0  0  0
 15 16  2  0  0  0  0
M  END
>  <cdx:fragmentId>
5

$$$$
