20070.cdx
  Mrv1902 05222410262D          

  8  8  0  0  0  0            999 V2000
    6.1924   -7.5075    0.0000 C   0  0  0  0  0  0  0  0  0  0  0  0
    6.1924   -8.3325    0.0000 C   0  0  0  0  0  0  0  0  0  0  0  0
    6.9069   -8.7450    0.0000 N   0  0  0  0  0  0  0  0  0  0  0  0
    7.6214   -8.3325    0.0000 C   0  0  0  0  0  0  0  0  0  0  0  0
    7.6214   -7.5075    0.0000 C   0  0  0  0  0  0  0  0  0  0  0  0
    6.9069   -7.0950    0.0000 C   0  0  0  0  0  0  0  0  0  0  0  0
    5.4780   -8.7450    0.0000 C   0  0  0  0  0  0  0  0  0  0  0  0
    8.3358   -8.7450    0.0000 Cl  0  0  0  0  0  0  0  0  0  0  0  0
  1  2  2  0  0  0  0
  2  3  1  0  0  0  0
  3  4  2  0  0  0  0
  4  5  1  0  0  0  0
  5  6  2  0  0  0  0
  6  1  1  0  0  0  0
  2  7  1  0  0  0  0
  4  8  1  0  0  0  0
M  END
>  <cdx:fragmentId>
5

$$$$
