20087.cdx
  Mrv1902 05222410192D          

 28 30  0  0  0  0            999 V2000
    3.8766   -7.4326    0.0000 C   0  0  0  0  0  0  0  0  0  0  0  0
    4.6896   -7.5726    0.0000 O   0  0  0  0  0  0  0  0  0  0  0  0
    3.6342   -8.8409    0.0000 O   0  0  0  0  0  0  0  0  0  0  0  0
    5.7880   -8.4866    0.0000 C   0  0  0  0  0  0  0  0  0  0  0  0
    4.9749   -8.3467    0.0000 C   0  0  0  0  0  0  0  0  0  0  0  0
    9.4931   -9.2336    0.0000 C   0  0  0  0  0  0  0  0  0  0  0  0
    4.4472   -8.9808    0.0000 C   0  0  0  0  0  0  0  0  0  0  0  0
    4.7325   -9.7549    0.0000 C   0  0  0  0  0  0  0  0  0  0  0  0
    5.5456   -9.8949    0.0000 C   0  0  0  0  0  0  0  0  0  0  0  0
   10.0253   -9.8640    0.0000 C   0  0  0  0  0  0  0  0  0  0  0  0
   10.8373   -9.7183    0.0000 C   0  0  0  0  0  0  0  0  0  0  0  0
   11.1172   -8.9422    0.0000 C   0  0  0  0  0  0  0  0  0  0  0  0
   10.5850   -8.3118    0.0000 C   0  0  0  0  0  0  0  0  0  0  0  0
    9.7729   -8.4575    0.0000 C   0  0  0  0  0  0  0  0  0  0  0  0
    6.0733   -9.2607    0.0000 C   0  0  0  0  0  0  0  0  0  0  0  0
    6.8863   -9.4007    0.0000 C   0  0  0  0  0  0  0  0  0  0  0  0
    8.6811   -9.3793    0.0000 C   0  0  0  0  0  0  0  0  0  0  0  0
    9.2153   -7.6658    0.0000 O   0  0  0  0  0  0  0  0  0  0  0  0
    8.1882   -8.7177    0.0000 C   0  0  1  0  0  0  0  0  0  0  0  0
    8.4338   -7.9301    0.0000 C   0  0  0  0  0  0  0  0  0  0  0  0
    7.7606   -7.4531    0.0000 O   0  0  0  0  0  0  0  0  0  0  0  0
    7.0990   -7.9460    0.0000 C   0  0  0  0  0  0  0  0  0  0  0  0
    7.3633   -8.7275    0.0000 C   0  0  2  0  0  0  0  0  0  0  0  0
   11.9292   -8.7965    0.0000 O   0  0  0  0  0  0  0  0  0  0  0  0
   11.3695  -10.3487    0.0000 O   0  0  0  0  0  0  0  0  0  0  0  0
   10.8648   -7.5357    0.0000 O   0  0  0  0  0  0  0  0  0  0  0  0
   10.3326   -6.9053    0.0000 C   0  0  0  0  0  0  0  0  0  0  0  0
   11.0897  -11.1248    0.0000 C   0  0  0  0  0  0  0  0  0  0  0  0
  2  1  1  0  0  0  0
  5  2  1  0  0  0  0
  7  3  1  0  0  0  0
  4 15  1  0  0  0  0
  5  4  2  0  0  0  0
  7  5  1  0  0  0  0
  8  7  2  0  0  0  0
  9  8  1  0  0  0  0
 15  9  2  0  0  0  0
 17  6  1  0  0  0  0
 16 15  1  0  0  0  0
  6 10  2  0  0  0  0
 10 11  1  0  0  0  0
 11 12  2  0  0  0  0
 12 13  1  0  0  0  0
 13 14  2  0  0  0  0
 14  6  1  0  0  0  0
 23 16  1  1  0  0  0
 19 17  1  6  0  0  0
 20 18  2  0  0  0  0
 19 23  1  0  0  0  0
 20 19  1  0  0  0  0
 21 20  1  0  0  0  0
 22 21  1  0  0  0  0
 23 22  1  0  0  0  0
 12 24  1  0  0  0  0
 11 25  1  0  0  0  0
 13 26  1  0  0  0  0
 26 27  1  0  0  0  0
 25 28  1  0  0  0  0
M  END
>  <cdx:fragmentId>
5

$$$$
