20084.cdx
  Mrv1902 05222410182D          

 16 15  0  0  0  0            999 V2000
    9.4935   -7.8581    0.0000 C   0  0  0  0  0  0  0  0  0  0  0  0
    8.7790   -8.2706    0.0000 C   0  0  0  0  0  0  0  0  0  0  0  0
    8.0645   -7.8581    0.0000 C   0  0  0  0  0  0  0  0  0  0  0  0
    7.3501   -8.2706    0.0000 C   0  0  0  0  0  0  0  0  0  0  0  0
    6.6356   -7.8581    0.0000 C   0  0  0  0  0  0  0  0  0  0  0  0
    5.9211   -8.2706    0.0000 C   0  0  0  0  0  0  0  0  0  0  0  0
    5.2067   -7.8581    0.0000 C   0  0  0  0  0  0  0  0  0  0  0  0
    4.4922   -8.2706    0.0000 C   0  0  0  0  0  0  0  0  0  0  0  0
    3.7777   -7.8581    0.0000 C   0  0  0  0  0  0  0  0  0  0  0  0
    3.0632   -8.2706    0.0000 C   0  0  0  0  0  0  0  0  0  0  0  0
    2.3488   -7.8581    0.0000 O   0  0  0  0  0  0  0  0  0  0  0  0
    9.4935   -7.0331    0.0000 C   0  0  0  0  0  0  0  0  0  0  0  0
   10.2080   -6.6206    0.0000 C   0  0  0  0  0  0  0  0  0  0  0  0
   10.2080   -5.7956    0.0000 C   0  0  0  0  0  0  0  0  0  0  0  0
   10.9224   -5.3831    0.0000 C   0  0  0  0  0  0  0  0  0  0  0  0
   10.9224   -4.5581    0.0000 C   0  0  0  0  0  0  0  0  0  0  0  0
  2  1  2  0  0  0  0
  3  2  1  0  0  0  0
  4  3  1  0  0  0  0
  5  4  1  0  0  0  0
  6  5  1  0  0  0  0
  7  6  1  0  0  0  0
  8  7  1  0  0  0  0
  9  8  1  0  0  0  0
 10  9  1  0  0  0  0
 11 10  1  0  0  0  0
  1 12  1  0  0  0  0
 12 13  1  0  0  0  0
 13 14  1  0  0  0  0
 14 15  1  0  0  0  0
 15 16  1  0  0  0  0
M  END
>  <cdx:fragmentId>
3

$$$$
