20082.cdx
  Mrv1902 05222410192D          

 10 11  0  0  0  0            999 V2000
    4.9137   -6.1875    0.0000 C   0  0  0  0  0  0  0  0  0  0  0  0
    4.9137   -7.0125    0.0000 C   0  0  0  0  0  0  0  0  0  0  0  0
    5.6281   -7.4250    0.0000 C   0  0  0  0  0  0  0  0  0  0  0  0
    6.3426   -7.0125    0.0000 C   0  0  0  0  0  0  0  0  0  0  0  0
    6.3426   -6.1875    0.0000 C   0  0  0  0  0  0  0  0  0  0  0  0
    5.6281   -5.7750    0.0000 C   0  0  0  0  0  0  0  0  0  0  0  0
    7.0571   -7.4250    0.0000 N   0  0  0  0  0  0  0  0  0  0  0  0
    7.7716   -7.0125    0.0000 C   0  0  0  0  0  0  0  0  0  0  0  0
    7.7716   -6.1875    0.0000 C   0  0  0  0  0  0  0  0  0  0  0  0
    7.0571   -5.7750    0.0000 C   0  0  0  0  0  0  0  0  0  0  0  0
  1  2  2  0  0  0  0
  2  3  1  0  0  0  0
  3  4  2  0  0  0  0
  4  5  1  0  0  0  0
  5  6  2  0  0  0  0
  6  1  1  0  0  0  0
  4  7  1  0  0  0  0
  7  8  2  0  0  0  0
  8  9  1  0  0  0  0
  9 10  2  0  0  0  0
 10  5  1  0  0  0  0
M  END
>  <cdx:fragmentId>
5

$$$$
