20088.cdx
  Mrv1902 05222410282D          

 41 44  0  0  0  0            999 V2000
    6.1512   -4.0838    0.0000 C   0  0  0  0  0  0  0  0  0  0  0  0
    6.1512   -4.9088    0.0000 C   0  0  0  0  0  0  0  0  0  0  0  0
    6.8656   -5.3213    0.0000 C   0  0  0  0  0  0  0  0  0  0  0  0
    7.5801   -4.9088    0.0000 C   0  0  0  0  0  0  0  0  0  0  0  0
    7.5801   -4.0838    0.0000 C   0  0  0  0  0  0  0  0  0  0  0  0
    6.8656   -3.6713    0.0000 C   0  0  0  0  0  0  0  0  0  0  0  0
    8.2946   -5.3213    0.0000 C   0  0  0  0  0  0  0  0  0  0  0  0
    9.0091   -4.9088    0.0000 C   0  0  2  0  0  0  0  0  0  0  0  0
    9.0091   -4.0838    0.0000 C   0  0  1  0  0  0  0  0  0  0  0  0
    8.2946   -3.6713    0.0000 C   0  0  0  0  0  0  0  0  0  0  0  0
    8.2946   -6.1463    0.0000 C   0  0  0  0  0  0  0  0  0  0  0  0
    9.0091   -6.5587    0.0000 C   0  0  0  0  0  0  0  0  0  0  0  0
    7.5801   -6.5587    0.0000 C   0  0  0  0  0  0  0  0  0  0  0  0
    7.5801   -7.3837    0.0000 C   0  0  0  0  0  0  0  0  0  0  0  0
    8.2946   -7.7962    0.0000 C   0  0  0  0  0  0  0  0  0  0  0  0
    9.0091   -7.3837    0.0000 C   0  0  0  0  0  0  0  0  0  0  0  0
    5.4367   -5.3213    0.0000 O   0  0  0  0  0  0  0  0  0  0  0  0
    5.4367   -3.6713    0.0000 O   0  0  0  0  0  0  0  0  0  0  0  0
    9.7937   -5.1637    0.0000 C   0  0  0  0  0  0  0  0  0  0  0  0
   10.2786   -4.4962    0.0000 O   0  0  0  0  0  0  0  0  0  0  0  0
    9.7937   -3.8288    0.0000 C   0  0  0  0  0  0  0  0  0  0  0  0
   10.0486   -3.0442    0.0000 O   0  0  0  0  0  0  0  0  0  0  0  0
    6.8656   -7.7962    0.0000 O   0  0  0  0  0  0  0  0  0  0  0  0
    8.2946   -8.6212    0.0000 O   0  0  0  0  0  0  0  0  0  0  0  0
    9.7235   -7.7962    0.0000 O   0  0  0  0  0  0  0  0  0  0  0  0
    4.7222   -4.9088    0.0000 C   0  0  2  0  0  0  0  0  0  0  0  0
    4.7222   -4.0838    0.0000 O   0  0  0  0  0  0  0  0  0  0  0  0
    4.0078   -3.6713    0.0000 C   0  0  1  0  0  0  0  0  0  0  0  0
    3.2933   -4.0838    0.0000 C   0  0  2  0  0  0  0  0  0  0  0  0
    3.2933   -4.9088    0.0000 C   0  0  1  0  0  0  0  0  0  0  0  0
    4.0078   -5.3212    0.0000 C   0  0  1  0  0  0  0  0  0  0  0  0
    4.0078   -2.8463    0.0000 C   0  0  0  0  0  0  0  0  0  0  0  0
    3.2933   -2.4337    0.0000 O   0  0  0  0  0  0  0  0  0  0  0  0
    2.5788   -5.3213    0.0000 O   0  0  0  0  0  0  0  0  0  0  0  0
    9.0091   -5.7338    0.0000 H   0  0  0  0  0  0  0  0  0  0  0  0
    2.5788   -3.6713    0.0000 O   0  0  0  0  0  0  0  0  0  0  0  0
    4.0078   -6.1463    0.0000 O   0  0  0  0  0  0  0  0  0  0  0  0
    9.0091   -3.2588    0.0000 H   0  0  0  0  0  0  0  0  0  0  0  0
    5.4367   -2.8463    0.0000 C   0  0  0  0  0  0  0  0  0  0  0  0
    6.1512   -7.3837    0.0000 C   0  0  0  0  0  0  0  0  0  0  0  0
   10.4380   -7.3837    0.0000 C   0  0  0  0  0  0  0  0  0  0  0  0
  1  2  2  0  0  0  0
  2  3  1  0  0  0  0
  3  4  2  0  0  0  0
  4  5  1  0  0  0  0
  5  6  2  0  0  0  0
  6  1  1  0  0  0  0
  8  7  1  6  0  0  0
  8  9  1  0  0  0  0
  9 10  1  1  0  0  0
 10  5  1  0  0  0  0
  7 11  1  0  0  0  0
 11 12  1  0  0  0  0
 11 13  2  0  0  0  0
 13 14  1  0  0  0  0
 14 15  2  0  0  0  0
 15 16  1  0  0  0  0
 16 12  2  0  0  0  0
  2 17  1  0  0  0  0
  1 18  1  0  0  0  0
  8 19  1  0  0  0  0
 19 20  1  0  0  0  0
 20 21  1  0  0  0  0
 21  9  1  0  0  0  0
 21 22  2  0  0  0  0
 14 23  1  0  0  0  0
 15 24  1  0  0  0  0
 16 25  1  0  0  0  0
 26 17  1  1  0  0  0
 26 27  1  0  0  0  0
 27 28  1  0  0  0  0
 28 29  1  0  0  0  0
 29 30  1  0  0  0  0
 30 31  1  0  0  0  0
 31 26  1  0  0  0  0
 28 32  1  1  0  0  0
 32 33  1  0  0  0  0
 30 34  1  1  0  0  0
  8 35  1  1  0  0  0
 29 36  1  6  0  0  0
 31 37  1  6  0  0  0
  9 38  1  6  0  0  0
 18 39  1  0  0  0  0
 23 40  1  0  0  0  0
 25 41  1  0  0  0  0
M  END
>  <cdx:fragmentId>
5

$$$$
