20085.cdx
  Mrv1902 05222410182D          

 16 18  0  0  0  0            999 V2000
    6.6431   -7.9682    0.0000 C   0  0  0  0  0  0  0  0  0  0  0  0
    5.8754   -8.2697    0.0000 C   0  0  0  0  0  0  0  0  0  0  0  0
    5.4648   -7.7095    0.0000 C   0  0  0  0  0  0  0  0  0  0  0  0
    6.9840   -7.1946    0.0000 C   0  0  0  0  0  0  0  0  0  0  0  0
    6.6431   -6.3395    0.0000 C   0  0  0  0  0  0  0  0  0  0  0  0
    8.1334   -7.3972    0.0000 C   0  0  0  0  0  0  0  0  0  0  0  0
    7.6819   -8.5924    0.0000 C   0  0  0  0  0  0  0  0  0  0  0  0
    8.5777   -8.1893    0.0000 C   0  0  0  0  0  0  0  0  0  0  0  0
    4.7226   -7.7618    0.0000 C   0  0  0  0  0  0  0  0  0  0  0  0
    4.6401   -8.5802    0.0000 C   0  0  0  0  0  0  0  0  0  0  0  0
    5.4648   -8.8333    0.0000 C   0  0  0  0  0  0  0  0  0  0  0  0
    3.9801   -8.6214    0.0000 C   0  0  0  0  0  0  0  0  0  0  0  0
    4.3926   -9.3359    0.0000 C   0  0  0  0  0  0  0  0  0  0  0  0
    7.3965   -6.4801    0.0000 C   0  0  0  0  0  0  0  0  0  0  0  0
    6.2306   -8.6826    0.0000 C   0  0  0  0  0  0  0  0  0  0  0  0
    6.4296   -5.5426    0.0000 O   0  0  0  0  0  0  0  0  0  0  0  0
  1  2  1  0  0  0  0
  2  3  1  0  0  0  0
  3  4  1  0  0  0  0
  1  5  1  0  0  0  0
  4  5  1  0  0  0  0
  4  6  1  0  0  0  0
  1  7  1  0  0  0  0
  6  8  1  0  0  0  0
  7  8  1  0  0  0  0
  3  9  1  0  0  0  0
  9 10  1  0  0  0  0
 10 11  1  0  0  0  0
 11  2  1  0  0  0  0
 10 12  1  0  0  0  0
 10 13  1  0  0  0  0
  4 14  1  0  0  0  0
  1 15  1  0  0  0  0
  5 16  1  0  0  0  0
M  END
>  <cdx:groupId>
816

>  <cdx:fragmentId>
817

$$$$
