20081.cdx
  Mrv1902 05222410202D          

 11 12  0  0  0  0            999 V2000
    6.5722   -8.0998    0.0000 C   0  0  0  0  0  0  0  0  0  0  0  0
    5.8373   -8.4556    0.0000 C   0  0  0  0  0  0  0  0  0  0  0  0
    5.6281   -7.8323    0.0000 C   0  0  0  0  0  0  0  0  0  0  0  0
    6.9744   -7.3810    0.0000 C   0  0  0  0  0  0  0  0  0  0  0  0
    6.5722   -6.6607    0.0000 C   0  0  0  0  0  0  0  0  0  0  0  0
    7.8094   -8.2160    0.0000 C   0  0  0  0  0  0  0  0  0  0  0  0
    6.3586   -8.8967    0.0000 C   0  0  0  0  0  0  0  0  0  0  0  0
    8.2219   -8.9304    0.0000 C   0  0  0  0  0  0  0  0  0  0  0  0
    8.6063   -8.0024    0.0000 C   0  0  0  0  0  0  0  0  0  0  0  0
    6.3586   -5.8638    0.0000 C   0  0  0  0  0  0  0  0  0  0  0  0
    6.7711   -5.1493    0.0000 O   0  0  0  0  0  0  0  0  0  0  0  0
  1  2  1  0  0  0  0
  2  3  1  0  0  0  0
  3  4  1  0  0  0  0
  1  5  1  0  0  0  0
  4  5  1  0  0  0  0
  4  6  1  0  0  0  0
  1  6  1  0  0  0  0
  1  7  1  0  0  0  0
  6  8  1  0  0  0  0
  6  9  1  0  0  0  0
  5 10  1  0  0  0  0
 10 11  2  0  0  0  0
M  END
>  <cdx:fragmentId>
797

$$$$
