20090.cdx
  Mrv1902 05222410182D          

 36 40  0  0  0  0            999 V2000
    3.2018   -8.2294    0.0000 C   0  0  0  0  0  0  0  0  0  0  0  0
    3.2018   -9.0544    0.0000 C   0  0  0  0  0  0  0  0  0  0  0  0
    3.9163   -9.4669    0.0000 C   0  0  0  0  0  0  0  0  0  0  0  0
    4.6307   -9.0544    0.0000 C   0  0  1  0  0  0  0  0  0  0  0  0
    4.6307   -8.2294    0.0000 C   0  0  2  0  0  0  0  0  0  0  0  0
    3.9163   -7.8169    0.0000 C   0  0  0  0  0  0  0  0  0  0  0  0
    5.3452   -9.4669    0.0000 C   0  0  0  0  0  0  0  0  0  0  0  0
    6.0597   -9.0544    0.0000 C   0  0  0  0  0  0  0  0  0  0  0  0
    6.0597   -8.2294    0.0000 C   0  0  2  0  0  0  0  0  0  0  0  0
    5.3452   -7.8169    0.0000 C   0  0  1  0  0  0  0  0  0  0  0  0
    6.7742   -7.8169    0.0000 C   0  0  1  0  0  0  0  0  0  0  0  0
    6.7742   -6.9919    0.0000 C   0  0  2  0  0  0  0  0  0  0  0  0
    6.0597   -6.5794    0.0000 C   0  0  0  0  0  0  0  0  0  0  0  0
    5.3452   -6.9919    0.0000 C   0  0  0  0  0  0  0  0  0  0  0  0
    7.5588   -8.0718    0.0000 C   0  0  0  0  0  0  0  0  0  0  0  0
    8.0437   -7.4044    0.0000 C   0  0  0  0  0  0  0  0  0  0  0  0
    7.5588   -6.7369    0.0000 C   0  0  2  0  0  0  0  0  0  0  0  0
    8.7148   -5.8970    0.0000 C   0  0  0  0  0  0  0  0  0  0  0  0
    7.8943   -5.9833    0.0000 C   0  0  1  0  0  0  0  0  0  0  0  0
    9.8709   -5.0571    0.0000 C   0  0  0  0  0  0  0  0  0  0  0  0
    9.0504   -5.1433    0.0000 C   0  0  0  0  0  0  0  0  0  0  0  0
   10.2064   -4.3034    0.0000 C   0  0  0  0  0  0  0  0  0  0  0  0
    9.7215   -3.6360    0.0000 C   0  0  0  0  0  0  0  0  0  0  0  0
    8.9010   -3.7222    0.0000 O   0  0  0  0  0  0  0  0  0  0  0  0
    2.4873   -9.4669    0.0000 O   0  0  0  0  0  0  0  0  0  0  0  0
    3.5038  -10.1813    0.0000 C   0  0  0  0  0  0  0  0  0  0  0  0
    4.3288  -10.1813    0.0000 C   0  0  0  0  0  0  0  0  0  0  0  0
   11.0314   -4.3034    0.0000 C   0  0  0  0  0  0  0  0  0  0  0  0
    9.9350   -2.8391    0.0000 O   0  0  0  0  0  0  0  0  0  0  0  0
    4.6307   -7.4044    0.0000 C   0  0  0  0  0  0  0  0  0  0  0  0
    6.0597   -7.4044    0.0000 H   0  0  0  0  0  0  0  0  0  0  0  0
    6.7742   -6.1669    0.0000 C   0  0  0  0  0  0  0  0  0  0  0  0
    4.6101   -9.6525    0.0000 H   0  0  0  0  0  0  0  0  0  0  0  0
    6.7742   -8.6419    0.0000 C   0  0  0  0  0  0  0  0  0  0  0  0
    8.3557   -6.5234    0.0000 H   0  0  0  0  0  0  0  0  0  0  0  0
    7.3110   -5.3999    0.0000 C   0  0  0  0  0  0  0  0  0  0  0  0
  1  2  1  0  0  0  0
  2  3  1  0  0  0  0
  3  4  1  0  0  0  0
  4  5  1  0  0  0  0
  5  6  1  0  0  0  0
  6  1  1  0  0  0  0
  4  7  1  0  0  0  0
  7  8  1  0  0  0  0
  8  9  1  0  0  0  0
  9 10  1  0  0  0  0
 10  5  1  0  0  0  0
  9 11  1  0  0  0  0
 11 12  1  0  0  0  0
 12 13  1  0  0  0  0
 13 14  1  0  0  0  0
 14 10  1  0  0  0  0
 11 15  1  0  0  0  0
 15 16  1  0  0  0  0
 16 17  1  0  0  0  0
 17 12  1  0  0  0  0
 18 19  1  0  0  0  0
 19 17  1  0  0  0  0
 20 21  1  0  0  0  0
 21 18  1  0  0  0  0
 20 22  2  0  0  0  0
 22 23  1  0  0  0  0
 23 24  2  0  0  0  0
  2 25  2  0  0  0  0
  3 26  1  0  0  0  0
  3 27  1  0  0  0  0
 22 28  1  0  0  0  0
 23 29  1  0  0  0  0
  5 30  1  1  0  0  0
  9 31  1  1  0  0  0
 12 32  1  1  0  0  0
  4 33  1  6  0  0  0
 11 34  1  6  0  0  0
 17 35  1  6  0  0  0
 19 36  1  6  0  0  0
 10 30  1  1  0  0  0
M  END
>  <cdx:fragmentId>
5

$$$$
