20095.cdx
  Mrv1902 05222410202D          

 21 22  0  0  0  0            999 V2000
    4.4187   -8.0231    0.0000 C   0  0  0  0  0  0  0  0  0  0  0  0
    4.4187   -8.8481    0.0000 C   0  0  0  0  0  0  0  0  0  0  0  0
    5.1331   -9.2606    0.0000 C   0  0  0  0  0  0  0  0  0  0  0  0
    5.8476   -8.8481    0.0000 C   0  0  0  0  0  0  0  0  0  0  0  0
    5.8476   -8.0231    0.0000 C   0  0  0  0  0  0  0  0  0  0  0  0
    5.1331   -7.6106    0.0000 C   0  0  0  0  0  0  0  0  0  0  0  0
    6.5621   -9.2606    0.0000 O   0  0  0  0  0  0  0  0  0  0  0  0
    7.2766   -8.8481    0.0000 C   0  0  0  0  0  0  0  0  0  0  0  0
    7.2766   -8.0231    0.0000 C   0  0  0  0  0  0  0  0  0  0  0  0
    6.5621   -7.6106    0.0000 C   0  0  0  0  0  0  0  0  0  0  0  0
    7.9910   -9.2606    0.0000 C   0  0  0  0  0  0  0  0  0  0  0  0
    8.7055   -8.8481    0.0000 O   0  0  0  0  0  0  0  0  0  0  0  0
    5.1331   -6.7856    0.0000 C   0  0  0  0  0  0  0  0  0  0  0  0
    4.4187   -6.3731    0.0000 C   0  0  0  0  0  0  0  0  0  0  0  0
    3.7042   -6.7856    0.0000 O   0  0  0  0  0  0  0  0  0  0  0  0
    4.4187   -5.5481    0.0000 C   0  0  0  0  0  0  0  0  0  0  0  0
    3.7042   -5.1356    0.0000 C   0  0  0  0  0  0  0  0  0  0  0  0
    3.3816   -5.3213    0.0000 H   0  0  0  0  0  0  0  0  0  0  0  0
    4.7000   -5.3419    0.0000 H   0  0  0  0  0  0  0  0  0  0  0  0
    3.7042   -4.3106    0.0000 C   0  0  0  0  0  0  0  0  0  0  0  0
    6.5621   -6.7856    0.0000 O   0  0  0  0  0  0  0  0  0  0  0  0
  1  2  2  0  0  0  0
  2  3  1  0  0  0  0
  3  4  2  0  0  0  0
  4  5  1  0  0  0  0
  5  6  2  0  0  0  0
  6  1  1  0  0  0  0
  4  7  1  0  0  0  0
  7  8  1  0  0  0  0
  8  9  2  0  0  0  0
  9 10  1  0  0  0  0
 10  5  1  0  0  0  0
  8 11  1  0  0  0  0
 11 12  1  0  0  0  0
  6 13  1  0  0  0  0
 13 14  1  0  0  0  0
 14 15  2  0  0  0  0
 14 16  1  0  0  0  0
 16 17  2  0  0  0  0
 17 18  1  0  0  0  0
 16 19  1  0  0  0  0
 17 20  1  0  0  0  0
 10 21  2  0  0  0  0
M  END
>  <cdx:fragmentId>
5

$$$$
