20094.cdx
  Mrv1902 05222410202D          

 42 47  0  0  0  0            999 V2000
    5.5833   -7.8523    0.0000 H   0  0  0  0  0  0  0  0  0  0  0  0
    6.3042   -6.8681    0.0000 H   0  0  0  0  0  0  0  0  0  0  0  0
    3.4318   -8.2506    0.0000 O   0  0  0  0  0  0  0  0  0  0  0  0
    4.8607   -8.2600    0.0000 O   0  0  0  0  0  0  0  0  0  0  0  0
    2.0192   -5.7662    0.0000 O   0  0  0  0  0  0  0  0  0  0  0  0
    8.4577   -4.5715    0.0000 O   0  0  0  0  0  0  0  0  0  0  0  0
    7.0177   -6.2119    0.0000 C   0  0  0  0  0  0  0  0  0  0  0  0
    7.7349   -5.8042    0.0000 C   0  0  0  0  0  0  0  0  0  0  0  0
    7.7404   -4.9792    0.0000 C   0  0  0  0  0  0  0  0  0  0  0  0
    7.0287   -4.5619    0.0000 C   0  0  0  0  0  0  0  0  0  0  0  0
    6.3115   -4.9696    0.0000 C   0  0  0  0  0  0  0  0  0  0  0  0
    6.3060   -5.7946    0.0000 C   0  0  0  0  0  0  0  0  0  0  0  0
    3.4481   -5.7756    0.0000 C   0  0  0  0  0  0  0  0  0  0  0  0
    2.7309   -6.1834    0.0000 C   0  0  0  0  0  0  0  0  0  0  0  0
    2.7255   -7.0084    0.0000 C   0  0  0  0  0  0  0  0  0  0  0  0
    3.4372   -7.4256    0.0000 C   0  0  0  0  0  0  0  0  0  0  0  0
    5.5888   -6.2023    0.0000 C   0  0  0  0  0  0  0  0  0  0  0  0
    4.8770   -5.7851    0.0000 O   0  0  0  0  0  0  0  0  0  0  0  0
    4.1598   -6.1928    0.0000 C   0  0  0  0  0  0  0  0  0  0  0  0
    4.1544   -7.0178    0.0000 C   0  0  0  0  0  0  0  0  0  0  0  0
    4.8661   -7.4350    0.0000 C   0  0  0  0  0  0  0  0  0  0  0  0
    3.4463  -10.1681    0.0000 O   0  0  0  0  0  0  0  0  0  0  0  0
    9.8765   -8.9306    0.0000 O   0  0  0  0  0  0  0  0  0  0  0  0
    8.4476   -6.4556    0.0000 O   0  0  0  0  0  0  0  0  0  0  0  0
    7.0186   -6.4556    0.0000 O   0  0  0  0  0  0  0  0  0  0  0  0
    5.5833   -7.0273    0.0000 C   0  0  1  0  0  0  0  0  0  0  0  0
    4.1607   -8.9306    0.0000 C   0  0  0  0  0  0  0  0  0  0  0  0
    4.1607   -9.7556    0.0000 C   0  0  0  0  0  0  0  0  0  0  0  0
    4.8752  -10.1681    0.0000 C   0  0  0  0  0  0  0  0  0  0  0  0
    5.5897   -9.7556    0.0000 C   0  0  0  0  0  0  0  0  0  0  0  0
    4.8752   -8.5181    0.0000 C   0  0  0  0  0  0  0  0  0  0  0  0
    5.5897   -8.9306    0.0000 C   0  0  0  0  0  0  0  0  0  0  0  0
    7.0186   -7.2806    0.0000 C   0  0  0  0  0  0  0  0  0  0  0  0
    6.3042   -7.6931    0.0000 C   0  0  2  0  0  0  0  0  0  0  0  0
    6.3042   -8.5181    0.0000 C   0  0  0  0  0  0  0  0  0  0  0  0
    7.0186   -8.9306    0.0000 O   0  0  0  0  0  0  0  0  0  0  0  0
    8.4476   -7.2806    0.0000 C   0  0  0  0  0  0  0  0  0  0  0  0
    7.7331   -7.6931    0.0000 C   0  0  0  0  0  0  0  0  0  0  0  0
    7.7331   -8.5181    0.0000 C   0  0  0  0  0  0  0  0  0  0  0  0
    8.4476   -8.9306    0.0000 C   0  0  0  0  0  0  0  0  0  0  0  0
    9.1620   -8.5181    0.0000 C   0  0  0  0  0  0  0  0  0  0  0  0
    9.1620   -7.6931    0.0000 C   0  0  0  0  0  0  0  0  0  0  0  0
 26  1  1  1  0  0  0
 34  2  1  1  0  0  0
 16  3  1  0  0  0  0
 21  4  2  0  0  0  0
 14  5  1  0  0  0  0
  9  6  1  0  0  0  0
  7 12  1  0  0  0  0
  8  7  2  0  0  0  0
  9  8  1  0  0  0  0
 10  9  2  0  0  0  0
 11 10  1  0  0  0  0
 12 11  2  0  0  0  0
 17 12  1  0  0  0  0
 13 19  2  0  0  0  0
 14 13  1  0  0  0  0
 15 14  2  0  0  0  0
 16 15  1  0  0  0  0
 20 16  2  0  0  0  0
 17 26  1  0  0  0  0
 18 17  1  0  0  0  0
 19 18  1  0  0  0  0
 20 19  1  0  0  0  0
 21 20  1  0  0  0  0
 26 21  1  0  0  0  0
 28 22  1  0  0  0  0
 41 23  1  0  0  0  0
 37 24  1  0  0  0  0
 33 25  2  0  0  0  0
 34 26  1  0  0  0  0
 27 31  2  0  0  0  0
 28 27  1  0  0  0  0
 29 28  2  0  0  0  0
 30 29  1  0  0  0  0
 32 30  2  0  0  0  0
 32 31  1  0  0  0  0
 35 32  1  0  0  0  0
 33 38  1  0  0  0  0
 34 33  1  0  0  0  0
 35 34  1  0  0  0  0
 36 35  1  0  0  0  0
 39 36  1  0  0  0  0
 37 42  1  0  0  0  0
 38 37  2  0  0  0  0
 39 38  1  0  0  0  0
 40 39  2  0  0  0  0
 41 40  1  0  0  0  0
 42 41  2  0  0  0  0
M  END
>  <cdx:fragmentId>
5

$$$$
