20098.cdx
  Mrv1902 05222410262D          

 20 21  0  0  0  0            999 V2000
    5.0581   -7.3631    0.0000 C   0  0  0  0  0  0  0  0  0  0  0  0
    5.0581   -8.1881    0.0000 C   0  0  0  0  0  0  0  0  0  0  0  0
    5.7725   -8.6006    0.0000 O   0  0  0  0  0  0  0  0  0  0  0  0
    6.4870   -8.1881    0.0000 C   0  0  0  0  0  0  0  0  0  0  0  0
    6.4870   -7.3631    0.0000 C   0  0  0  0  0  0  0  0  0  0  0  0
    5.7725   -6.9506    0.0000 C   0  0  0  0  0  0  0  0  0  0  0  0
    7.2015   -8.6006    0.0000 C   0  0  0  0  0  0  0  0  0  0  0  0
    7.9159   -8.1881    0.0000 C   0  0  0  0  0  0  0  0  0  0  0  0
    7.9159   -7.3631    0.0000 C   0  0  0  0  0  0  0  0  0  0  0  0
    7.2015   -6.9506    0.0000 C   0  0  0  0  0  0  0  0  0  0  0  0
    8.6304   -6.1256    0.0000 C   0  0  0  0  0  0  0  0  0  0  0  0
    7.9159   -5.7131    0.0000 C   0  0  0  0  0  0  0  0  0  0  0  0
    7.2015   -6.1256    0.0000 C   0  0  0  0  0  0  0  0  0  0  0  0
   10.0594   -6.1256    0.0000 C   0  0  0  0  0  0  0  0  0  0  0  0
    9.3449   -5.7131    0.0000 C   0  0  2  0  0  0  0  0  0  0  0  0
    3.6291   -8.1881    0.0000 O   0  0  0  0  0  0  0  0  0  0  0  0
    4.3436   -8.6006    0.0000 C   0  0  0  0  0  0  0  0  0  0  0  0
    5.7725   -6.1256    0.0000 O   0  0  0  0  0  0  0  0  0  0  0  0
    7.9159   -4.8881    0.0000 O   0  0  0  0  0  0  0  0  0  0  0  0
    9.3449   -4.8881    0.0000 O   0  0  0  0  0  0  0  0  0  0  0  0
  1  2  2  0  0  0  0
  2  3  1  0  0  0  0
  3  4  1  0  0  0  0
  4  5  1  0  0  0  0
  5  6  1  0  0  0  0
  6  1  1  0  0  0  0
  4  7  2  0  0  0  0
  7  8  1  0  0  0  0
  8  9  2  0  0  0  0
  9 10  1  0  0  0  0
 10  5  2  0  0  0  0
 11 12  1  0  0  0  0
 12 13  1  0  0  0  0
 13 10  1  0  0  0  0
 14 15  1  0  0  0  0
 15 11  1  0  0  0  0
 16 17  1  0  0  0  0
 17  2  1  0  0  0  0
  6 18  2  0  0  0  0
 12 19  2  0  0  0  0
 15 20  1  1  0  0  0
M  END
>  <cdx:fragmentId>
5

$$$$
