20091.cdx
  Mrv1902 05222410182D          

 30 34  0  0  0  0            999 V2000
    6.3601   -5.4381    0.0000 C   0  0  2  0  0  0  0  0  0  0  0  0
    6.0775   -6.2132    0.0000 C   0  0  0  0  0  0  0  0  0  0  0  0
    6.4257   -6.9611    0.0000 C   0  0  0  0  0  0  0  0  0  0  0  0
    7.2007   -7.2438    0.0000 C   0  0  0  0  0  0  0  0  0  0  0  0
    7.9487   -6.8956    0.0000 C   0  0  0  0  0  0  0  0  0  0  0  0
    8.2313   -6.1205    0.0000 C   0  0  1  0  0  0  0  0  0  0  0  0
    7.8831   -5.3726    0.0000 C   0  0  1  0  0  0  0  0  0  0  0  0
    7.1081   -5.0900    0.0000 C   0  0  2  0  0  0  0  0  0  0  0  0
    7.0726   -4.2657    0.0000 C   0  0  0  0  0  0  0  0  0  0  0  0
    8.4409   -4.7647    0.0000 C   0  0  0  0  0  0  0  0  0  0  0  0
    9.0556   -6.0851    0.0000 O   0  0  0  0  0  0  0  0  0  0  0  0
    5.7522   -4.8804    0.0000 O   0  0  0  0  0  0  0  0  0  0  0  0
    5.2557   -6.1408    0.0000 C   0  0  0  0  0  0  0  0  0  0  0  0
    4.7820   -6.8163    0.0000 C   0  0  0  0  0  0  0  0  0  0  0  0
    5.1302   -7.5642    0.0000 C   0  0  0  0  0  0  0  0  0  0  0  0
    5.9520   -7.6366    0.0000 C   0  0  0  0  0  0  0  0  0  0  0  0
    7.1283   -8.0656    0.0000 C   0  0  0  0  0  0  0  0  0  0  0  0
    7.8038   -8.5392    0.0000 C   0  0  0  0  0  0  0  0  0  0  0  0
    8.5517   -8.1910    0.0000 C   0  0  0  0  0  0  0  0  0  0  0  0
    8.6242   -7.3692    0.0000 C   0  0  0  0  0  0  0  0  0  0  0  0
    3.9631   -6.9163    0.0000 O   0  0  0  0  0  0  0  0  0  0  0  0
    3.8052   -7.7261    0.0000 C   0  0  0  0  0  0  0  0  0  0  0  0
    4.5265   -8.1265    0.0000 O   0  0  0  0  0  0  0  0  0  0  0  0
    7.9039   -9.3581    0.0000 O   0  0  0  0  0  0  0  0  0  0  0  0
    8.7136   -9.5161    0.0000 C   0  0  0  0  0  0  0  0  0  0  0  0
    9.1140   -8.7948    0.0000 O   0  0  0  0  0  0  0  0  0  0  0  0
    5.7385   -8.4335    0.0000 O   0  0  0  0  0  0  0  0  0  0  0  0
    4.9416   -8.6471    0.0000 C   0  0  0  0  0  0  0  0  0  0  0  0
    6.7158   -8.7801    0.0000 O   0  0  0  0  0  0  0  0  0  0  0  0
    7.2992   -9.3634    0.0000 C   0  0  0  0  0  0  0  0  0  0  0  0
  1  2  1  0  0  0  0
  2  3  2  0  0  0  0
  3  4  1  0  0  0  0
  4  5  2  0  0  0  0
  5  6  1  0  0  0  0
  6  7  1  0  0  0  0
  7  8  1  0  0  0  0
  8  1  1  0  0  0  0
  8  9  1  1  0  0  0
  7 10  1  1  0  0  0
  6 11  1  1  0  0  0
  1 12  1  1  0  0  0
  2 13  1  0  0  0  0
 13 14  2  0  0  0  0
 14 15  1  0  0  0  0
 15 16  2  0  0  0  0
 16  3  1  0  0  0  0
  4 17  1  0  0  0  0
 17 18  2  0  0  0  0
 18 19  1  0  0  0  0
 19 20  2  0  0  0  0
 20  5  1  0  0  0  0
 14 21  1  0  0  0  0
 21 22  1  0  0  0  0
 22 23  1  0  0  0  0
 23 15  1  0  0  0  0
 18 24  1  0  0  0  0
 24 25  1  0  0  0  0
 25 26  1  0  0  0  0
 26 19  1  0  0  0  0
 16 27  1  0  0  0  0
 27 28  1  0  0  0  0
 17 29  1  0  0  0  0
 29 30  1  0  0  0  0
M  END
>  <cdx:fragmentId>
5

$$$$
