20099.cdx
  Mrv1902 05222410262D          

116123  0  0  0  0            999 V2000
    2.0562   -9.2869    0.0000 O   0  0  0  0  0  0  0  0  0  0  0  0
    2.3035   -9.7157    0.0000 C   0  0  0  0  0  0  0  0  0  0  0  0
    2.7985   -9.7160    0.0000 O   0  0  0  0  0  0  0  0  0  0  0  0
    3.0462   -9.2874    0.0000 C   0  0  1  0  0  0  0  0  0  0  0  0
    2.7989   -8.8586    0.0000 C   0  0  2  0  0  0  0  0  0  0  0  0
    2.3039   -8.8584    0.0000 O   0  0  0  0  0  0  0  0  0  0  0  0
    3.5412   -9.2877    0.0000 C   0  0  1  0  0  0  0  0  0  0  0  0
    3.7889   -8.8591    0.0000 C   0  0  2  0  0  0  0  0  0  0  0  0
    3.5417   -8.4303    0.0000 O   0  0  0  0  0  0  0  0  0  0  0  0
    3.0467   -8.4301    0.0000 C   0  0  2  0  0  0  0  0  0  0  0  0
    4.2839   -8.8594    0.0000 O   0  0  0  0  0  0  0  0  0  0  0  0
    4.5317   -8.4308    0.0000 C   0  0  1  0  0  0  0  0  0  0  0  0
    4.2844   -8.0020    0.0000 C   0  0  2  0  0  0  0  0  0  0  0  0
    3.7894   -8.0018    0.0000 O   0  0  0  0  0  0  0  0  0  0  0  0
    5.0267   -8.4311    0.0000 C   0  0  2  0  0  0  0  0  0  0  0  0
    5.2744   -8.0025    0.0000 O   0  0  0  0  0  0  0  0  0  0  0  0
    5.0271   -7.5737    0.0000 C   0  0  1  0  0  0  0  0  0  0  0  0
    4.5321   -7.5735    0.0000 C   0  0  1  0  0  0  0  0  0  0  0  0
    5.7694   -8.0028    0.0000 C   0  0  0  0  0  0  0  0  0  0  0  0
    6.0171   -7.5742    0.0000 C   0  0  2  0  0  0  0  0  0  0  0  0
    5.7698   -7.1454    0.0000 C   0  0  1  0  0  0  0  0  0  0  0  0
    5.2748   -7.1452    0.0000 O   0  0  0  0  0  0  0  0  0  0  0  0
    6.5121   -7.5745    0.0000 O   0  0  0  0  0  0  0  0  0  0  0  0
    6.7598   -7.1459    0.0000 C   0  0  1  0  0  0  0  0  0  0  0  0
    6.5125   -6.7171    0.0000 C   0  0  2  0  0  0  0  0  0  0  0  0
    6.0175   -6.7169    0.0000 C   0  0  1  0  0  0  0  0  0  0  0  0
    7.7010   -7.4002    0.0000 C   0  0  1  0  0  0  0  0  0  0  0  0
    7.7010   -7.8952    0.0000 C   0  0  1  0  0  0  0  0  0  0  0  0
    8.1297   -8.1427    0.0000 C   0  0  1  0  0  0  0  0  0  0  0  0
    8.5584   -7.8952    0.0000 C   0  0  2  0  0  0  0  0  0  0  0  0
    8.5584   -7.4002    0.0000 O   0  0  0  0  0  0  0  0  0  0  0  0
    8.1297   -7.1527    0.0000 C   0  0  2  0  0  0  0  0  0  0  0  0
    8.9871   -8.1427    0.0000 O   0  0  0  0  0  0  0  0  0  0  0  0
    9.4157   -7.8952    0.0000 C   0  0  2  0  0  0  0  0  0  0  0  0
    9.4157   -7.4002    0.0000 C   0  0  1  0  0  0  0  0  0  0  0  0
    8.9871   -7.1527    0.0000 C   0  0  0  0  0  0  0  0  0  0  0  0
    9.8444   -8.1427    0.0000 C   0  0  1  0  0  0  0  0  0  0  0  0
   10.2731   -7.8952    0.0000 C   0  0  1  0  0  0  0  0  0  0  0  0
   10.2731   -7.4002    0.0000 C   0  0  2  0  0  0  0  0  0  0  0  0
    9.8444   -7.1527    0.0000 O   0  0  0  0  0  0  0  0  0  0  0  0
   10.7018   -7.1527    0.0000 O   0  0  0  0  0  0  0  0  0  0  0  0
   10.7018   -6.6577    0.0000 C   0  0  2  0  0  0  0  0  0  0  0  0
   10.2731   -6.4102    0.0000 C   0  0  1  0  0  0  0  0  0  0  0  0
    9.8444   -6.6577    0.0000 C   0  0  0  0  0  0  0  0  0  0  0  0
   11.1305   -6.4102    0.0000 C   0  0  1  0  0  0  0  0  0  0  0  0
   11.1305   -5.9152    0.0000 C   0  0  1  0  0  0  0  0  0  0  0  0
   10.7018   -5.6677    0.0000 C   0  0  2  0  0  0  0  0  0  0  0  0
   10.2731   -5.9152    0.0000 O   0  0  0  0  0  0  0  0  0  0  0  0
   10.7018   -5.1727    0.0000 O   0  0  0  0  0  0  0  0  0  0  0  0
   10.2731   -4.9252    0.0000 C   0  0  2  0  0  0  0  0  0  0  0  0
    9.8444   -5.1727    0.0000 C   0  0  1  0  0  0  0  0  0  0  0  0
    9.8444   -5.6677    0.0000 C   0  0  0  0  0  0  0  0  0  0  0  0
   10.2731   -4.4302    0.0000 C   0  0  1  0  0  0  0  0  0  0  0  0
    9.8444   -4.1827    0.0000 C   0  0  1  0  0  0  0  0  0  0  0  0
    9.4157   -4.4302    0.0000 C   0  0  2  0  0  0  0  0  0  0  0  0
    9.4157   -4.9252    0.0000 O   0  0  0  0  0  0  0  0  0  0  0  0
    8.9871   -4.1827    0.0000 O   0  0  0  0  0  0  0  0  0  0  0  0
    8.5584   -4.4302    0.0000 C   0  0  2  0  0  0  0  0  0  0  0  0
    8.5584   -4.9252    0.0000 C   0  0  1  0  0  0  0  0  0  0  0  0
    8.9871   -5.1727    0.0000 C   0  0  0  0  0  0  0  0  0  0  0  0
    8.1297   -4.1827    0.0000 C   0  0  1  0  0  0  0  0  0  0  0  0
    7.7010   -4.4302    0.0000 C   0  0  1  0  0  0  0  0  0  0  0  0
    7.7010   -4.9252    0.0000 C   0  0  2  0  0  0  0  0  0  0  0  0
    8.1297   -5.1727    0.0000 O   0  0  0  0  0  0  0  0  0  0  0  0
    2.0558  -10.1443    0.0000 C   0  0  0  0  0  0  0  0  0  0  0  0
    2.0567   -8.4296    0.0000 C   0  0  0  0  0  0  0  0  0  0  0  0
    2.7994   -8.0013    0.0000 C   0  0  0  0  0  0  0  0  0  0  0  0
    2.3044   -8.0010    0.0000 O   0  0  0  0  0  0  0  0  0  0  0  0
    3.5421   -7.5730    0.0000 C   0  0  0  0  0  0  0  0  0  0  0  0
    3.0471   -7.5727    0.0000 C   0  0  0  0  0  0  0  0  0  0  0  0
    3.7898   -7.1444    0.0000 O   0  0  0  0  0  0  0  0  0  0  0  0
    5.7703   -6.2881    0.0000 O   0  0  0  0  0  0  0  0  0  0  0  0
    5.2753   -6.2878    0.0000 C   0  0  0  0  0  0  0  0  0  0  0  0
    5.0275   -6.7164    0.0000 O   0  0  0  0  0  0  0  0  0  0  0  0
    5.0280   -5.8590    0.0000 C   0  0  0  0  0  0  0  0  0  0  0  0
    5.3406   -8.2501    0.0000 O   0  0  0  0  0  0  0  0  0  0  0  0
    6.0167   -8.4316    0.0000 O   0  5  0  0  0  0  0  0  0  0  0  0
    3.7885   -9.7165    0.0000 O   0  0  0  0  0  0  0  0  0  0  0  0
    7.2548   -7.1462    0.0000 O   0  0  0  0  0  0  0  0  0  0  0  0
    5.2739   -8.8599    0.0000 C   0  0  0  0  0  0  0  0  0  0  0  0
    4.2848   -7.1447    0.0000 O   0  0  0  0  0  0  0  0  0  0  0  0
    6.7603   -6.2886    0.0000 O   0  0  0  0  0  0  0  0  0  0  0  0
    5.0262   -9.2885    0.0000 O   0  0  0  0  0  0  0  0  0  0  0  0
    7.2723   -8.1427    0.0000 O   0  0  0  0  0  0  0  0  0  0  0  0
    7.2723   -8.6377    0.0000 C   0  0  0  0  0  0  0  0  0  0  0  0
    7.7010   -8.8852    0.0000 O   0  0  0  0  0  0  0  0  0  0  0  0
    6.8437   -8.8852    0.0000 C   0  0  0  0  0  0  0  0  0  0  0  0
    8.1297   -6.6577    0.0000 C   0  0  0  0  0  0  0  0  0  0  0  0
    7.7010   -6.4102    0.0000 O   0  0  0  0  0  0  0  0  0  0  0  0
    8.9871   -6.6577    0.0000 O   0  0  0  0  0  0  0  0  0  0  0  0
   10.7018   -8.1427    0.0000 N   0  0  0  0  0  0  0  0  0  0  0  0
   10.7018   -8.6377    0.0000 C   0  0  0  0  0  0  0  0  0  0  0  0
   10.2731   -8.8852    0.0000 O   0  0  0  0  0  0  0  0  0  0  0  0
   11.1305   -8.8852    0.0000 C   0  0  0  0  0  0  0  0  0  0  0  0
    9.4157   -6.4102    0.0000 O   0  0  0  0  0  0  0  0  0  0  0  0
   11.5592   -6.6577    0.0000 O   0  0  0  0  0  0  0  0  0  0  0  0
   11.9878   -6.4102    0.0000 C   0  0  0  0  0  0  0  0  0  0  0  0
   12.4165   -6.6577    0.0000 C   0  0  0  0  0  0  0  0  0  0  0  0
   11.9878   -5.9152    0.0000 O   0  0  0  0  0  0  0  0  0  0  0  0
    9.4157   -5.9152    0.0000 O   0  0  0  0  0  0  0  0  0  0  0  0
    8.9871   -5.6677    0.0000 O   0  0  0  0  0  0  0  0  0  0  0  0
    8.1297   -3.6877    0.0000 O   0  0  0  0  0  0  0  0  0  0  0  0
    8.5584   -3.4402    0.0000 C   0  0  0  0  0  0  0  0  0  0  0  0
    8.9871   -3.6877    0.0000 C   0  0  0  0  0  0  0  0  0  0  0  0
    8.5584   -2.9452    0.0000 O   0  0  0  0  0  0  0  0  0  0  0  0
    7.2723   -5.1727    0.0000 O   0  0  0  0  0  0  0  0  0  0  0  0
    7.2723   -5.6677    0.0000 C   0  0  0  0  0  0  0  0  0  0  0  0
   10.7018   -4.1827    0.0000 O   0  0  0  0  0  0  0  0  0  0  0  0
   10.7018   -3.6877    0.0000 C   0  0  0  0  0  0  0  0  0  0  0  0
   11.1305   -3.4402    0.0000 C   0  0  0  0  0  0  0  0  0  0  0  0
   10.2731   -3.4402    0.0000 O   0  0  0  0  0  0  0  0  0  0  0  0
    8.1297   -8.6377    0.0000 O   0  0  0  0  0  0  0  0  0  0  0  0
    9.8444   -8.6377    0.0000 O   0  0  0  0  0  0  0  0  0  0  0  0
   11.5592   -5.6677    0.0000 O   0  0  0  0  0  0  0  0  0  0  0  0
    9.8444   -3.6877    0.0000 O   0  0  0  0  0  0  0  0  0  0  0  0
    7.2723   -4.1827    0.0000 O   0  0  0  0  0  0  0  0  0  0  0  0
  1  2  2  0  0  0  0
  2  3  1  0  0  0  0
  4  3  1  1  0  0  0
  4  5  1  0  0  0  0
  5  6  1  6  0  0  0
  4  7  1  0  0  0  0
  7  8  1  0  0  0  0
  8  9  1  0  0  0  0
  9 10  1  0  0  0  0
 10  5  1  0  0  0  0
  8 11  1  6  0  0  0
 12 11  1  1  0  0  0
 12 13  1  0  0  0  0
 13 14  1  6  0  0  0
 12 15  1  0  0  0  0
 15 16  1  0  0  0  0
 16 17  1  0  0  0  0
 17 18  1  0  0  0  0
 18 13  1  0  0  0  0
 20 19  1  6  0  0  0
 20 21  1  0  0  0  0
 21 22  1  1  0  0  0
 17 22  1  1  0  0  0
 20 23  1  0  0  0  0
 23 24  1  0  0  0  0
 24 25  1  0  0  0  0
 25 26  1  0  0  0  0
 26 21  1  0  0  0  0
 27 28  1  0  0  0  0
 28 29  1  0  0  0  0
 29 30  1  0  0  0  0
 30 31  1  0  0  0  0
 31 32  1  0  0  0  0
 32 27  1  0  0  0  0
 30 33  1  6  0  0  0
 34 33  1  6  0  0  0
 34 35  1  0  0  0  0
 35 36  1  1  0  0  0
 34 37  1  0  0  0  0
 37 38  1  0  0  0  0
 38 39  1  0  0  0  0
 39 40  1  0  0  0  0
 40 35  1  0  0  0  0
 39 41  1  6  0  0  0
 42 41  1  6  0  0  0
 42 43  1  0  0  0  0
 43 44  1  1  0  0  0
 42 45  1  0  0  0  0
 45 46  1  0  0  0  0
 46 47  1  0  0  0  0
 47 48  1  0  0  0  0
 48 43  1  0  0  0  0
 47 49  1  6  0  0  0
 50 49  1  6  0  0  0
 50 51  1  0  0  0  0
 51 52  1  1  0  0  0
 50 53  1  0  0  0  0
 53 54  1  0  0  0  0
 54 55  1  0  0  0  0
 55 56  1  0  0  0  0
 56 51  1  0  0  0  0
 55 57  1  6  0  0  0
 58 57  1  6  0  0  0
 58 59  1  0  0  0  0
 59 60  1  1  0  0  0
 58 61  1  0  0  0  0
 61 62  1  0  0  0  0
 62 63  1  0  0  0  0
 63 64  1  0  0  0  0
 64 59  1  0  0  0  0
  2 65  1  0  0  0  0
  6 66  1  0  0  0  0
 10 67  1  1  0  0  0
 67 68  1  0  0  0  0
 14 69  1  0  0  0  0
 69 70  1  0  0  0  0
 69 71  2  0  0  0  0
 26 72  1  6  0  0  0
 72 73  1  0  0  0  0
 73 74  2  0  0  0  0
 73 75  1  0  0  0  0
 19 76  2  0  0  0  0
 19 77  1  0  0  0  0
  7 78  1  1  0  0  0
 24 79  1  1  0  0  0
 15 80  1  6  0  0  0
 18 81  1  6  0  0  0
 25 82  1  6  0  0  0
 80 83  1  0  0  0  0
 28 84  1  1  0  0  0
 84 85  1  0  0  0  0
 85 86  2  0  0  0  0
 85 87  1  0  0  0  0
 32 88  1  1  0  0  0
 88 89  1  0  0  0  0
 36 90  1  0  0  0  0
 38 91  1  1  0  0  0
 91 92  1  0  0  0  0
 92 93  2  0  0  0  0
 92 94  1  0  0  0  0
 44 95  1  0  0  0  0
 45 96  1  1  0  0  0
 96 97  1  0  0  0  0
 97 98  1  0  0  0  0
 97 99  2  0  0  0  0
 52100  1  0  0  0  0
 60101  1  0  0  0  0
 61102  1  1  0  0  0
102103  1  0  0  0  0
103104  1  0  0  0  0
103105  2  0  0  0  0
 63106  1  6  0  0  0
106107  1  0  0  0  0
 53108  1  1  0  0  0
108109  1  0  0  0  0
109110  1  0  0  0  0
109111  2  0  0  0  0
 29112  1  1  0  0  0
 37113  1  1  0  0  0
 46114  1  1  0  0  0
 54115  1  1  0  0  0
 62116  1  1  0  0  0
 27 79  1  6  0  0  0
M  CHG  1  77  -1
M  END
>  <cdx:fragmentId>
88

$$$$
