20096.cdx
  Mrv1902 05222410192D          

 31 33  0  0  0  0            999 V2000
    7.4093   -7.5694    0.0000 C   0  0  0  0  0  0  0  0  0  0  0  0
    7.4093   -8.3944    0.0000 C   0  0  0  0  0  0  0  0  0  0  0  0
    8.1238   -8.8069    0.0000 O   0  0  0  0  0  0  0  0  0  0  0  0
    8.8382   -8.3944    0.0000 C   0  0  0  0  0  0  0  0  0  0  0  0
    8.8382   -7.5694    0.0000 C   0  0  0  0  0  0  0  0  0  0  0  0
    8.1238   -7.1569    0.0000 C   0  0  0  0  0  0  0  0  0  0  0  0
    9.5527   -8.8069    0.0000 C   0  0  0  0  0  0  0  0  0  0  0  0
   10.2672   -8.3944    0.0000 C   0  0  0  0  0  0  0  0  0  0  0  0
   10.2672   -7.5694    0.0000 C   0  0  0  0  0  0  0  0  0  0  0  0
    9.5527   -7.1569    0.0000 C   0  0  0  0  0  0  0  0  0  0  0  0
    9.5527   -6.3319    0.0000 C   0  0  0  0  0  0  0  0  0  0  0  0
    8.1238   -6.3319    0.0000 O   0  0  0  0  0  0  0  0  0  0  0  0
   10.9817   -6.3319    0.0000 C   0  0  0  0  0  0  0  0  0  0  0  0
   10.2672   -5.9194    0.0000 C   0  0  0  0  0  0  0  0  0  0  0  0
   12.4106   -6.3319    0.0000 C   0  0  0  0  0  0  0  0  0  0  0  0
   11.6961   -5.9194    0.0000 C   0  0  2  0  0  0  0  0  0  0  0  0
    6.6948   -8.8069    0.0000 C   0  0  0  0  0  0  0  0  0  0  0  0
   10.2672   -5.0944    0.0000 O   0  0  0  0  0  0  0  0  0  0  0  0
   11.6961   -5.0944    0.0000 O   0  0  0  0  0  0  0  0  0  0  0  0
    3.7999   -8.7656    0.0000 C   0  0  2  0  0  0  0  0  0  0  0  0
    3.7999   -9.5906    0.0000 C   0  0  2  0  0  0  0  0  0  0  0  0
    4.5144  -10.0031    0.0000 C   0  0  1  0  0  0  0  0  0  0  0  0
    5.2289   -9.5906    0.0000 C   0  0  2  0  0  0  0  0  0  0  0  0
    5.2289   -8.7656    0.0000 C   0  0  1  0  0  0  0  0  0  0  0  0
    4.5144   -8.3531    0.0000 O   0  0  0  0  0  0  0  0  0  0  0  0
    5.9433   -8.3531    0.0000 O   0  0  0  0  0  0  0  0  0  0  0  0
    4.5144  -10.8281    0.0000 O   0  0  0  0  0  0  0  0  0  0  0  0
    3.0855   -8.3531    0.0000 C   0  0  0  0  0  0  0  0  0  0  0  0
    2.3710   -8.7656    0.0000 O   0  0  0  0  0  0  0  0  0  0  0  0
    5.9433  -10.0031    0.0000 O   0  0  0  0  0  0  0  0  0  0  0  0
    3.0855  -10.0031    0.0000 O   0  0  0  0  0  0  0  0  0  0  0  0
  1  2  2  0  0  0  0
  2  3  1  0  0  0  0
  3  4  1  0  0  0  0
  4  5  1  0  0  0  0
  5  6  1  0  0  0  0
  6  1  1  0  0  0  0
  4  7  2  0  0  0  0
  7  8  1  0  0  0  0
  8  9  2  0  0  0  0
  9 10  1  0  0  0  0
 10  5  2  0  0  0  0
 10 11  1  0  0  0  0
 12  6  2  0  0  0  0
 13 14  1  0  0  0  0
 14 11  1  0  0  0  0
 15 16  1  0  0  0  0
 16 13  1  0  0  0  0
 17  2  1  0  0  0  0
 14 18  2  0  0  0  0
 16 19  1  1  0  0  0
 20 21  1  0  0  0  0
 21 22  1  0  0  0  0
 22 23  1  0  0  0  0
 23 24  1  0  0  0  0
 24 25  1  0  0  0  0
 25 20  1  0  0  0  0
 24 26  1  1  0  0  0
 22 27  1  1  0  0  0
 20 28  1  1  0  0  0
 28 29  1  0  0  0  0
 23 30  1  6  0  0  0
 21 31  1  6  0  0  0
 17 26  1  0  0  0  0
M  END
>  <cdx:fragmentId>
5

$$$$
