20105.cdx
  Mrv1902 05222410272D          

  9  9  0  0  0  0            999 V2000
    5.3881   -8.2500    0.0000 C   0  0  0  0  0  0  0  0  0  0  0  0
    5.3881   -9.0750    0.0000 C   0  0  0  0  0  0  0  0  0  0  0  0
    6.1025   -9.4875    0.0000 C   0  0  0  0  0  0  0  0  0  0  0  0
    6.8170   -9.0750    0.0000 C   0  0  0  0  0  0  0  0  0  0  0  0
    6.8170   -8.2500    0.0000 C   0  0  0  0  0  0  0  0  0  0  0  0
    6.1025   -7.8375    0.0000 C   0  0  0  0  0  0  0  0  0  0  0  0
    6.1025   -7.0125    0.0000 C   0  0  1  0  0  0  0  0  0  0  0  0
    6.8170   -6.6000    0.0000 N   0  0  0  0  0  0  0  0  0  0  0  0
    5.3881   -6.6000    0.0000 C   0  0  0  0  0  0  0  0  0  0  0  0
  1  2  1  0  0  0  0
  2  3  1  0  0  0  0
  3  4  1  0  0  0  0
  4  5  1  0  0  0  0
  5  6  1  0  0  0  0
  6  1  1  0  0  0  0
  6  7  1  0  0  0  0
  7  8  1  6  0  0  0
  7  9  1  0  0  0  0
M  END
>  <cdx:fragmentId>
5

$$$$
