20104.cdx
  Mrv1902 05222410272D          

 20 19  0  0  0  0            999 V2000
   13.5799   -7.3425    0.0000 C   0  0  0  0  0  0  0  0  0  0  0  0
   12.8654   -7.7550    0.0000 C   0  0  0  0  0  0  0  0  0  0  0  0
   12.1509   -7.3425    0.0000 C   0  0  0  0  0  0  0  0  0  0  0  0
   11.4365   -7.7550    0.0000 C   0  0  0  0  0  0  0  0  0  0  0  0
   10.7220   -7.3425    0.0000 C   0  0  0  0  0  0  0  0  0  0  0  0
   10.0075   -7.7550    0.0000 C   0  0  0  0  0  0  0  0  0  0  0  0
    9.2931   -7.3425    0.0000 C   0  0  0  0  0  0  0  0  0  0  0  0
    8.5786   -7.7550    0.0000 C   0  0  0  0  0  0  0  0  0  0  0  0
    7.8641   -7.3425    0.0000 C   0  0  0  0  0  0  0  0  0  0  0  0
    7.1496   -7.7550    0.0000 C   0  0  0  0  0  0  0  0  0  0  0  0
    6.4352   -7.3425    0.0000 C   0  0  0  0  0  0  0  0  0  0  0  0
    5.7207   -7.7550    0.0000 C   0  0  0  0  0  0  0  0  0  0  0  0
    5.0062   -7.3425    0.0000 C   0  0  0  0  0  0  0  0  0  0  0  0
    4.2918   -7.7550    0.0000 C   0  0  0  0  0  0  0  0  0  0  0  0
    3.5773   -7.3425    0.0000 C   0  0  0  0  0  0  0  0  0  0  0  0
    2.8628   -7.7550    0.0000 C   0  0  0  0  0  0  0  0  0  0  0  0
    2.1483   -7.3425    0.0000 C   0  0  0  0  0  0  0  0  0  0  0  0
    1.4339   -7.7550    0.0000 C   0  0  0  0  0  0  0  0  0  0  0  0
    0.7194   -7.3425    0.0000 O   0  0  0  0  0  0  0  0  0  0  0  0
    1.4339   -8.5800    0.0000 O   0  0  0  0  0  0  0  0  0  0  0  0
  2  1  1  0  0  0  0
  3  2  1  0  0  0  0
  4  3  1  0  0  0  0
  5  4  1  0  0  0  0
  6  5  1  0  0  0  0
  7  6  1  0  0  0  0
  8  7  1  0  0  0  0
  9  8  1  0  0  0  0
 10  9  2  0  0  0  0
 11 10  1  0  0  0  0
 12 11  1  0  0  0  0
 13 12  1  0  0  0  0
 14 13  1  0  0  0  0
 15 14  2  0  0  0  0
 16 15  1  0  0  0  0
 17 16  1  0  0  0  0
 18 17  1  0  0  0  0
 19 18  1  0  0  0  0
 18 20  2  0  0  0  0
M  END
>  <cdx:fragmentId>
3

$$$$
