20103.cdx
  Mrv1902 05222410282D          

 14 15  0  0  0  0            999 V2000
    5.1612   -7.7138    0.0000 C   0  0  0  0  0  0  0  0  0  0  0  0
    5.1612   -8.5388    0.0000 C   0  0  0  0  0  0  0  0  0  0  0  0
    5.8756   -8.9513    0.0000 C   0  0  0  0  0  0  0  0  0  0  0  0
    6.5901   -8.5388    0.0000 C   0  0  0  0  0  0  0  0  0  0  0  0
    6.5901   -7.7138    0.0000 C   0  0  0  0  0  0  0  0  0  0  0  0
    5.8756   -7.3012    0.0000 C   0  0  0  0  0  0  0  0  0  0  0  0
    7.3046   -8.9513    0.0000 C   0  0  0  0  0  0  0  0  0  0  0  0
    8.0191   -8.5388    0.0000 C   0  0  0  0  0  0  0  0  0  0  0  0
    8.0191   -7.7138    0.0000 C   0  0  0  0  0  0  0  0  0  0  0  0
    7.3046   -7.3012    0.0000 C   0  0  0  0  0  0  0  0  0  0  0  0
    5.8756   -6.4763    0.0000 O   0  0  0  0  0  0  0  0  0  0  0  0
    8.7335   -8.9513    0.0000 C   0  0  0  0  0  0  0  0  0  0  0  0
    4.4467   -8.9513    0.0000 C   0  0  0  0  0  0  0  0  0  0  0  0
    5.8756   -9.7763    0.0000 O   0  0  0  0  0  0  0  0  0  0  0  0
  1  2  2  0  0  0  0
  2  3  1  0  0  0  0
  3  4  1  0  0  0  0
  4  5  2  0  0  0  0
  5  6  1  0  0  0  0
  6  1  1  0  0  0  0
  4  7  1  0  0  0  0
  7  8  1  0  0  0  0
  8  9  2  0  0  0  0
  9 10  1  0  0  0  0
 10  5  1  0  0  0  0
  6 11  2  0  0  0  0
  8 12  1  0  0  0  0
  2 13  1  0  0  0  0
  3 14  2  0  0  0  0
M  END
>  <cdx:fragmentId>
5

$$$$
