20102.cdx
  Mrv1902 05222410282D          

 17 17  0  0  0  0            999 V2000
    2.9469   -6.7237    0.0000 C   0  0  0  0  0  0  0  0  0  0  0  0
    3.6614   -6.3113    0.0000 C   0  0  0  0  0  0  0  0  0  0  0  0
    4.3758   -6.7237    0.0000 C   0  0  0  0  0  0  0  0  0  0  0  0
    5.0903   -6.3113    0.0000 C   0  0  0  0  0  0  0  0  0  0  0  0
    5.8048   -6.7237    0.0000 C   0  0  0  0  0  0  0  0  0  0  0  0
    6.5193   -6.3113    0.0000 C   0  0  0  0  0  0  0  0  0  0  0  0
    7.2337   -6.7237    0.0000 C   0  0  0  0  0  0  0  0  0  0  0  0
    7.9482   -6.3113    0.0000 C   0  0  0  0  0  0  0  0  0  0  0  0
    7.4053   -7.5307    0.0000 C   0  0  0  0  0  0  0  0  0  0  0  0
    8.2257   -7.6170    0.0000 O   0  0  0  0  0  0  0  0  0  0  0  0
    8.5613   -6.8633    0.0000 C   0  0  0  0  0  0  0  0  0  0  0  0
    8.0344   -5.4908    0.0000 C   0  0  0  0  0  0  0  0  0  0  0  0
    8.8313   -5.2772    0.0000 C   0  0  0  0  0  0  0  0  0  0  0  0
    9.0448   -4.4804    0.0000 O   0  0  0  0  0  0  0  0  0  0  0  0
    9.4147   -5.8606    0.0000 O   0  0  0  0  0  0  0  0  0  0  0  0
    9.3683   -6.6918    0.0000 O   0  0  0  0  0  0  0  0  0  0  0  0
    6.8532   -8.1438    0.0000 O   0  0  0  0  0  0  0  0  0  0  0  0
  1  2  1  0  0  0  0
  2  3  1  0  0  0  0
  3  4  1  0  0  0  0
  4  5  1  0  0  0  0
  5  6  1  0  0  0  0
  6  7  1  0  0  0  0
  7  8  2  0  0  0  0
  7  9  1  0  0  0  0
  9 10  1  0  0  0  0
 10 11  1  0  0  0  0
 11  8  1  0  0  0  0
  8 12  1  0  0  0  0
 12 13  1  0  0  0  0
 13 14  1  0  0  0  0
 13 15  2  0  0  0  0
 11 16  2  0  0  0  0
  9 17  2  0  0  0  0
M  END
>  <cdx:fragmentId>
3

$$$$
