20108.cdx
  Mrv1902 05222410192D          

 18 20  0  0  0  0            999 V2000
    5.9449   -6.2494    0.0000 C   0  0  0  0  0  0  0  0  0  0  0  0
    5.9449   -7.0744    0.0000 C   0  0  0  0  0  0  0  0  0  0  0  0
    6.7419   -7.3012    0.0000 C   0  0  0  0  0  0  0  0  0  0  0  0
    7.3739   -7.0744    0.0000 C   0  0  0  0  0  0  0  0  0  0  0  0
    7.3739   -6.2494    0.0000 C   0  0  0  0  0  0  0  0  0  0  0  0
    6.6594   -5.8369    0.0000 C   0  0  0  0  0  0  0  0  0  0  0  0
    5.3616   -7.6577    0.0000 C   0  0  0  0  0  0  0  0  0  0  0  0
    6.9614   -7.7888    0.0000 C   0  0  0  0  0  0  0  0  0  0  0  0
    6.1585   -7.4442    0.0000 C   0  0  0  0  0  0  0  0  0  0  0  0
    6.1585   -6.6192    0.0000 C   0  0  0  0  0  0  0  0  0  0  0  0
    6.6594   -5.0119    0.0000 C   0  0  0  0  0  0  0  0  0  0  0  0
    7.3739   -4.5994    0.0000 C   0  0  0  0  0  0  0  0  0  0  0  0
    7.3739   -3.7744    0.0000 N   0  0  0  0  0  0  0  0  0  0  0  0
    8.0883   -5.0119    0.0000 O   0  0  0  0  0  0  0  0  0  0  0  0
    7.9572   -7.6577    0.0000 C   0  0  0  0  0  0  0  0  0  0  0  0
    8.7541   -7.4442    0.0000 C   0  0  0  0  0  0  0  0  0  0  0  0
    9.3375   -8.0276    0.0000 N   0  0  0  0  0  0  0  0  0  0  0  0
    8.9676   -6.6473    0.0000 O   0  0  0  0  0  0  0  0  0  0  0  0
  1  2  1  0  0  0  0
  2  3  1  0  0  0  0
  3  4  1  0  0  0  0
  4  5  1  0  0  0  0
  5  6  1  0  0  0  0
  6  1  1  0  0  0  0
  2  7  1  0  0  0  0
  4  8  1  0  0  0  0
  7  9  1  0  0  0  0
  9  8  1  0  0  0  0
  9 10  1  0  0  0  0
 10  6  1  0  0  0  0
  6 11  1  0  0  0  0
 11 12  1  0  0  0  0
 12 13  1  0  0  0  0
 12 14  2  0  0  0  0
  4 15  1  0  0  0  0
 15 16  1  0  0  0  0
 16 17  1  0  0  0  0
 16 18  2  0  0  0  0
M  END
>  <cdx:fragmentId>
5

$$$$
