20107.cdx
  Mrv1902 05222410262D          

 18 17  0  0  0  0            999 V2000
    0.9463   -7.8788    0.0000 C   0  0  0  0  0  0  0  0  0  0  0  0
    1.6607   -7.4663    0.0000 C   0  0  0  0  0  0  0  0  0  0  0  0
    2.3752   -7.8788    0.0000 C   0  0  0  0  0  0  0  0  0  0  0  0
    3.0897   -7.4663    0.0000 C   0  0  0  0  0  0  0  0  0  0  0  0
    3.8042   -7.8788    0.0000 C   0  0  0  0  0  0  0  0  0  0  0  0
    4.5186   -7.4663    0.0000 C   0  0  0  0  0  0  0  0  0  0  0  0
    5.2331   -7.8788    0.0000 C   0  0  0  0  0  0  0  0  0  0  0  0
    5.9476   -7.4663    0.0000 C   0  0  0  0  0  0  0  0  0  0  0  0
    6.6620   -7.8788    0.0000 C   0  0  0  0  0  0  0  0  0  0  0  0
    7.3765   -7.4663    0.0000 C   0  0  0  0  0  0  0  0  0  0  0  0
    8.0910   -7.8788    0.0000 C   0  0  0  0  0  0  0  0  0  0  0  0
    8.8055   -7.4663    0.0000 C   0  0  0  0  0  0  0  0  0  0  0  0
    9.5199   -7.8788    0.0000 C   0  0  0  0  0  0  0  0  0  0  0  0
   10.2344   -7.4663    0.0000 C   0  0  0  0  0  0  0  0  0  0  0  0
   10.9489   -7.8788    0.0000 C   0  0  0  0  0  0  0  0  0  0  0  0
   11.6633   -7.4663    0.0000 C   0  0  0  0  0  0  0  0  0  0  0  0
   12.3778   -7.8788    0.0000 C   0  0  0  0  0  0  0  0  0  0  0  0
   13.0923   -7.4663    0.0000 N   0  0  0  0  0  0  0  0  0  0  0  0
  1  2  1  0  0  0  0
  2  3  1  0  0  0  0
  3  4  1  0  0  0  0
  4  5  1  0  0  0  0
  5  6  1  0  0  0  0
  6  7  1  0  0  0  0
  7  8  1  0  0  0  0
  8  9  1  0  0  0  0
  9 10  1  0  0  0  0
 10 11  1  0  0  0  0
 11 12  1  0  0  0  0
 12 13  1  0  0  0  0
 13 14  1  0  0  0  0
 14 15  1  0  0  0  0
 15 16  1  0  0  0  0
 16 17  1  0  0  0  0
 17 18  1  0  0  0  0
M  END
>  <cdx:fragmentId>
3

$$$$
