20101.cdx
  Mrv1902 05222410272D          

 11 11  0  0  0  0            999 V2000
    6.4399   -7.6725    0.0000 C   0  0  0  0  0  0  0  0  0  0  0  0
    6.4399   -8.4975    0.0000 C   0  0  0  0  0  0  0  0  0  0  0  0
    7.1544   -8.9100    0.0000 C   0  0  0  0  0  0  0  0  0  0  0  0
    7.8689   -8.4975    0.0000 C   0  0  0  0  0  0  0  0  0  0  0  0
    7.8689   -7.6725    0.0000 C   0  0  0  0  0  0  0  0  0  0  0  0
    7.1544   -7.2600    0.0000 C   0  0  0  0  0  0  0  0  0  0  0  0
    5.7255   -8.9100    0.0000 O   0  0  0  0  0  0  0  0  0  0  0  0
    7.1544   -6.4350    0.0000 C   0  0  0  0  0  0  0  0  0  0  0  0
    7.8689   -6.0225    0.0000 O   0  0  0  0  0  0  0  0  0  0  0  0
    6.4399   -6.0225    0.0000 O   0  0  0  0  0  0  0  0  0  0  0  0
    7.6007   -6.9919    0.0000 H   0  0  0  0  0  0  0  0  0  0  0  0
  1  2  1  0  0  0  0
  2  3  1  0  0  0  0
  3  4  1  0  0  0  0
  4  5  1  0  0  0  0
  5  6  1  0  0  0  0
  6  1  1  0  0  0  0
  2  7  2  0  0  0  0
  6  8  1  0  0  0  0
  8  9  1  0  0  0  0
  8 10  2  0  0  0  0
  6 11  1  0  0  0  0
M  END
>  <cdx:fragmentId>
5

$$$$
