20109.cdx
  Mrv1902 05222410192D          

 26 31  0  0  0  0            999 V2000
    5.2437   -9.9206    0.0000 C   0  0  0  0  0  0  0  0  0  0  0  0
    5.2437  -10.7456    0.0000 C   0  0  0  0  0  0  0  0  0  0  0  0
    6.0406  -10.9725    0.0000 C   0  0  0  0  0  0  0  0  0  0  0  0
    6.6726  -10.7456    0.0000 C   0  0  0  0  0  0  0  0  0  0  0  0
    6.6726   -9.9206    0.0000 C   0  0  0  0  0  0  0  0  0  0  0  0
    5.9581   -9.5081    0.0000 C   0  0  0  0  0  0  0  0  0  0  0  0
    4.6603  -11.3290    0.0000 C   0  0  0  0  0  0  0  0  0  0  0  0
    6.2601  -11.4601    0.0000 C   0  0  0  0  0  0  0  0  0  0  0  0
    5.4572  -11.1155    0.0000 C   0  0  0  0  0  0  0  0  0  0  0  0
    5.4572  -10.2905    0.0000 C   0  0  0  0  0  0  0  0  0  0  0  0
    8.0973   -5.7824    0.0000 C   0  0  0  0  0  0  0  0  0  0  0  0
    8.0973   -4.9574    0.0000 C   0  0  0  0  0  0  0  0  0  0  0  0
    7.3003   -4.7305    0.0000 C   0  0  0  0  0  0  0  0  0  0  0  0
    6.6684   -4.9574    0.0000 C   0  0  0  0  0  0  0  0  0  0  0  0
    6.6684   -5.7824    0.0000 C   0  0  0  0  0  0  0  0  0  0  0  0
    7.3828   -6.1949    0.0000 C   0  0  0  0  0  0  0  0  0  0  0  0
    8.6807   -4.3740    0.0000 C   0  0  0  0  0  0  0  0  0  0  0  0
    7.0809   -4.2429    0.0000 C   0  0  0  0  0  0  0  0  0  0  0  0
    7.8838   -4.5876    0.0000 C   0  0  0  0  0  0  0  0  0  0  0  0
    7.8838   -5.4126    0.0000 C   0  0  0  0  0  0  0  0  0  0  0  0
    5.9581   -8.6831    0.0000 C   0  0  0  0  0  0  0  0  0  0  0  0
    6.6726   -8.2706    0.0000 N   0  0  0  0  0  0  0  0  0  0  0  0
    5.2437   -8.2706    0.0000 C   0  0  0  0  0  0  0  0  0  0  0  0
    6.6726   -7.4456    0.0000 C   0  0  0  0  0  0  0  0  0  0  0  0
    7.3871   -7.0331    0.0000 C   0  0  0  0  0  0  0  0  0  0  0  0
    5.9581   -7.0331    0.0000 O   0  0  0  0  0  0  0  0  0  0  0  0
  1  2  1  0  0  0  0
  2  3  1  0  0  0  0
  3  4  1  0  0  0  0
  4  5  1  0  0  0  0
  5  6  1  0  0  0  0
  6  1  1  0  0  0  0
  2  7  1  0  0  0  0
  4  8  1  0  0  0  0
  7  9  1  0  0  0  0
  9  8  1  0  0  0  0
  9 10  1  0  0  0  0
 10  6  1  0  0  0  0
 11 12  1  0  0  0  0
 12 13  1  0  0  0  0
 13 14  1  0  0  0  0
 14 15  1  0  0  0  0
 15 16  1  0  0  0  0
 16 11  1  0  0  0  0
 12 17  1  0  0  0  0
 14 18  1  0  0  0  0
 17 19  1  0  0  0  0
 19 18  1  0  0  0  0
 19 20  1  0  0  0  0
 20 16  1  0  0  0  0
  6 21  1  0  0  0  0
 21 22  1  0  0  0  0
 21 23  1  0  0  0  0
 22 24  1  0  0  0  0
 24 25  1  0  0  0  0
 24 26  2  0  0  0  0
 25 16  1  0  0  0  0
M  END
>  <cdx:fragmentId>
5

$$$$
