20106.cdx
  Mrv1902 05222410262D          

  5  4  0  0  0  0            999 V2000
    6.5769   -8.2912    0.0000 C   0  0  0  0  0  0  0  0  0  0  0  0
    6.5769   -7.4663    0.0000 C   0  0  1  0  0  0  0  0  0  0  0  0
    7.2914   -7.0537    0.0000 C   0  0  0  0  0  0  0  0  0  0  0  0
    8.0058   -7.4663    0.0000 C   0  0  0  0  0  0  0  0  0  0  0  0
    5.8624   -7.0537    0.0000 N   0  0  0  0  0  0  0  0  0  0  0  0
  1  2  1  0  0  0  0
  2  3  1  0  0  0  0
  3  4  1  0  0  0  0
  2  5  1  6  0  0  0
M  END
>  <cdx:fragmentId>
3

$$$$
