20116.cdx
  Mrv1902 05222410282D          

  8  8  0  0  0  0            999 V2000
    7.7968   -8.1778    0.0000 C   0  0  0  0  0  0  0  0  0  0  0  0
    7.7968   -7.3528    0.0000 C   0  0  0  0  0  0  0  0  0  0  0  0
    7.0824   -6.9403    0.0000 N   0  0  0  0  0  0  0  0  0  0  0  0
    6.3679   -7.3528    0.0000 C   0  0  0  0  0  0  0  0  0  0  0  0
    6.3679   -8.1778    0.0000 C   0  0  0  0  0  0  0  0  0  0  0  0
    7.0824   -8.5903    0.0000 C   0  0  0  0  0  0  0  0  0  0  0  0
    9.2258   -8.1778    0.0000 O   0  0  0  0  0  0  0  0  0  0  0  0
    8.5113   -8.5903    0.0000 C   0  0  0  0  0  0  0  0  0  0  0  0
  1  2  1  0  0  0  0
  2  3  1  0  0  0  0
  3  4  1  0  0  0  0
  4  5  1  0  0  0  0
  5  6  1  0  0  0  0
  6  1  1  0  0  0  0
  8  7  1  0  0  0  0
  1  8  1  0  0  0  0
M  END
>  <cdx:fragmentId>
5

$$$$
