20117.cdx
  Mrv1902 05222410282D          

 14 14  0  0  0  0            999 V2000
    6.7974   -7.3562    0.0000 C   0  0  0  0  0  0  0  0  0  0  0  0
    6.0830   -7.7687    0.0000 C   0  0  0  0  0  0  0  0  0  0  0  0
    6.0830   -8.5937    0.0000 C   0  0  0  0  0  0  0  0  0  0  0  0
    6.7974   -9.0062    0.0000 C   0  0  0  0  0  0  0  0  0  0  0  0
    7.5119   -8.5937    0.0000 C   0  0  0  0  0  0  0  0  0  0  0  0
    7.5119   -7.7687    0.0000 C   0  0  0  0  0  0  0  0  0  0  0  0
    5.3685   -7.3562    0.0000 O   0  0  0  0  0  0  0  0  0  0  0  0
    4.6540   -7.7687    0.0000 C   0  0  0  0  0  0  0  0  0  0  0  0
    3.9395   -7.3562    0.0000 C   0  0  0  0  0  0  0  0  0  0  0  0
    3.2251   -7.7687    0.0000 C   0  0  0  0  0  0  0  0  0  0  0  0
    8.2264   -7.3562    0.0000 C   0  0  0  0  0  0  0  0  0  0  0  0
    8.9408   -7.7687    0.0000 C   0  0  0  0  0  0  0  0  0  0  0  0
    8.9408   -8.5937    0.0000 C   0  0  0  0  0  0  0  0  0  0  0  0
    9.6553   -7.3562    0.0000 N   0  0  0  0  0  0  0  0  0  0  0  0
  1  2  2  0  0  0  0
  2  3  1  0  0  0  0
  3  4  2  0  0  0  0
  4  5  1  0  0  0  0
  5  6  2  0  0  0  0
  6  1  1  0  0  0  0
  2  7  1  0  0  0  0
  7  8  1  0  0  0  0
  8  9  1  0  0  0  0
  9 10  1  0  0  0  0
  6 11  1  0  0  0  0
 11 12  1  0  0  0  0
 12 13  1  0  0  0  0
 12 14  1  0  0  0  0
M  END
>  <cdx:fragmentId>
5

$$$$
