20112.cdx
  Mrv1902 05222410262D          

 18 18  0  0  0  0            999 V2000
    7.0174   -6.2287    0.0000 C   0  0  0  0  0  0  0  0  0  0  0  0
    7.0174   -7.0537    0.0000 C   0  0  0  0  0  0  0  0  0  0  0  0
    7.7319   -7.4663    0.0000 C   0  0  0  0  0  0  0  0  0  0  0  0
    8.4464   -7.0537    0.0000 C   0  0  0  0  0  0  0  0  0  0  0  0
    8.4464   -6.2287    0.0000 C   0  0  0  0  0  0  0  0  0  0  0  0
    7.7319   -5.8163    0.0000 C   0  0  0  0  0  0  0  0  0  0  0  0
    7.7319   -8.2912    0.0000 C   0  0  0  0  0  0  0  0  0  0  0  0
    7.0174   -8.7037    0.0000 C   0  0  0  0  0  0  0  0  0  0  0  0
    6.3030   -8.2912    0.0000 C   0  0  0  0  0  0  0  0  0  0  0  0
    7.0174   -9.5287    0.0000 N   0  0  0  0  0  0  0  0  0  0  0  0
    6.3030   -5.8163    0.0000 O   0  0  0  0  0  0  0  0  0  0  0  0
    5.5885   -6.2287    0.0000 C   0  0  0  0  0  0  0  0  0  0  0  0
    9.1608   -7.4663    0.0000 O   0  0  0  0  0  0  0  0  0  0  0  0
    9.8753   -7.0537    0.0000 C   0  0  0  0  0  0  0  0  0  0  0  0
    7.7319   -4.9913    0.0000 S   0  0  0  0  0  0  0  0  0  0  0  0
    7.7319   -4.1662    0.0000 C   0  0  0  0  0  0  0  0  0  0  0  0
    6.9069   -4.9913    0.0000 O   0  0  0  0  0  0  0  0  0  0  0  0
    8.5569   -4.9913    0.0000 O   0  0  0  0  0  0  0  0  0  0  0  0
  1  2  2  0  0  0  0
  2  3  1  0  0  0  0
  3  4  2  0  0  0  0
  4  5  1  0  0  0  0
  5  6  2  0  0  0  0
  6  1  1  0  0  0  0
  3  7  1  0  0  0  0
  7  8  1  0  0  0  0
  8  9  1  0  0  0  0
  8 10  1  0  0  0  0
  1 11  1  0  0  0  0
 11 12  1  0  0  0  0
  4 13  1  0  0  0  0
 13 14  1  0  0  0  0
  6 15  1  0  0  0  0
 15 16  1  0  0  0  0
 15 17  2  0  0  0  0
 15 18  2  0  0  0  0
M  END
>  <cdx:fragmentId>
5

$$$$
