20119.cdx
  Mrv1902 05222410192D          

  6  6  0  0  0  0            999 V2000
    5.3147   -8.0241    0.0000 N   0  0  0  0  0  0  0  0  0  0  0  0
    6.7640   -7.7775    0.0000 O   0  0  0  0  0  0  0  0  0  0  0  0
    6.1022   -8.2700    0.0000 C   0  0  0  0  0  0  0  0  0  0  0  0
    6.3661   -9.0517    0.0000 C   0  0  0  0  0  0  0  0  0  0  0  0
    7.1911   -9.0422    0.0000 C   0  0  0  0  0  0  0  0  0  0  0  0
    7.4370   -8.2548    0.0000 N   0  0  0  0  0  0  0  0  0  0  0  0
  3  1  1  0  0  0  0
  2  6  1  0  0  0  0
  3  2  1  0  0  0  0
  4  3  2  0  0  0  0
  5  4  1  0  0  0  0
  6  5  2  0  0  0  0
M  END
>  <cdx:fragmentId>
5

$$$$
