20114.cdx
  Mrv1902 05222410272D          

 13 13  0  0  0  0            999 V2000
    6.7564   -8.1399    0.0000 C   0  0  0  0  0  0  0  0  0  0  0  0
    6.0420   -8.5524    0.0000 C   0  0  0  0  0  0  0  0  0  0  0  0
    6.0420   -9.3774    0.0000 C   0  0  0  0  0  0  0  0  0  0  0  0
    6.7564   -9.7899    0.0000 C   0  0  0  0  0  0  0  0  0  0  0  0
    7.4709   -9.3774    0.0000 C   0  0  0  0  0  0  0  0  0  0  0  0
    7.4709   -8.5524    0.0000 C   0  0  0  0  0  0  0  0  0  0  0  0
    5.3275   -8.1399    0.0000 O   0  0  0  0  0  0  0  0  0  0  0  0
    4.6130   -8.5524    0.0000 C   0  0  0  0  0  0  0  0  0  0  0  0
    3.8986   -8.1399    0.0000 C   0  0  0  0  0  0  0  0  0  0  0  0
    8.1854   -8.1399    0.0000 C   0  0  0  0  0  0  0  0  0  0  0  0
    8.8998   -8.5524    0.0000 C   0  0  0  0  0  0  0  0  0  0  0  0
    9.6143   -8.1399    0.0000 N   0  0  0  0  0  0  0  0  0  0  0  0
    8.8998   -9.3774    0.0000 C   0  0  0  0  0  0  0  0  0  0  0  0
  1  2  2  0  0  0  0
  2  3  1  0  0  0  0
  3  4  2  0  0  0  0
  4  5  1  0  0  0  0
  5  6  2  0  0  0  0
  6  1  1  0  0  0  0
  2  7  1  0  0  0  0
  7  8  1  0  0  0  0
  8  9  1  0  0  0  0
  6 10  1  0  0  0  0
 10 11  1  0  0  0  0
 11 12  1  0  0  0  0
 11 13  1  0  0  0  0
M  END
>  <cdx:fragmentId>
5

$$$$
