20118.cdx
  Mrv1902 05222410192D          

  7  6  0  0  0  0            999 V2000
    5.7931   -7.3219    0.0000 C   0  0  0  0  0  0  0  0  0  0  0  0
    6.5076   -6.9094    0.0000 C   0  0  0  0  0  0  0  0  0  0  0  0
    7.2221   -7.3219    0.0000 N   0  0  0  0  0  0  0  0  0  0  0  0
    5.0787   -7.7344    0.0000 C   0  0  0  0  0  0  0  0  0  0  0  0
    5.3806   -6.6074    0.0000 C   0  0  0  0  0  0  0  0  0  0  0  0
    6.2056   -8.0363    0.0000 C   0  0  0  0  0  0  0  0  0  0  0  0
    6.5076   -6.0844    0.0000 C   0  0  0  0  0  0  0  0  0  0  0  0
  1  2  1  0  0  0  0
  2  3  1  0  0  0  0
  1  4  1  0  0  0  0
  1  5  1  0  0  0  0
  1  6  1  0  0  0  0
  2  7  1  0  0  0  0
M  END
>  <cdx:fragmentId>
3

$$$$
