20113.cdx
  Mrv1902 05222410262D          

 25 27  0  0  0  0            999 V2000
    7.1782   -7.8155    0.0000 C   0  0  0  0  0  0  0  0  0  0  0  0
    6.3532   -7.8155    0.0000 C   0  0  0  0  0  0  0  0  0  0  0  0
    5.9407   -7.1010    0.0000 C   0  0  0  0  0  0  0  0  0  0  0  0
    7.5907   -7.1010    0.0000 O   0  0  0  0  0  0  0  0  0  0  0  0
    7.5907   -8.5299    0.0000 O   0  0  0  0  0  0  0  0  0  0  0  0
    5.9407   -8.5299    0.0000 C   0  0  0  0  0  0  0  0  0  0  0  0
    5.1157   -8.5299    0.0000 C   0  0  0  0  0  0  0  0  0  0  0  0
    4.7032   -9.2444    0.0000 C   0  0  0  0  0  0  0  0  0  0  0  0
    5.1157   -9.9589    0.0000 C   0  0  0  0  0  0  0  0  0  0  0  0
    5.9407   -9.9589    0.0000 C   0  0  0  0  0  0  0  0  0  0  0  0
    6.3532   -9.2444    0.0000 C   0  0  0  0  0  0  0  0  0  0  0  0
    3.8782   -9.2444    0.0000 O   0  0  0  0  0  0  0  0  0  0  0  0
    3.4657   -9.9589    0.0000 C   0  0  0  0  0  0  0  0  0  0  0  0
    5.1157   -7.1010    0.0000 O   0  0  0  0  0  0  0  0  0  0  0  0
    9.5779   -9.4568    0.0000 C   0  0  2  0  0  0  0  0  0  0  0  0
    8.7736   -9.2732    0.0000 C   0  0  0  0  0  0  0  0  0  0  0  0
    8.4157   -8.5299    0.0000 C   0  0  0  0  0  0  0  0  0  0  0  0
    8.7736   -7.7866    0.0000 C   0  0  0  0  0  0  0  0  0  0  0  0
    9.5779   -7.6030    0.0000 C   0  0  1  0  0  0  0  0  0  0  0  0
   10.2229   -8.1174    0.0000 C   0  0  0  0  0  0  0  0  0  0  0  0
   10.2229   -8.9424    0.0000 C   0  0  0  0  0  0  0  0  0  0  0  0
    9.0142   -8.4413    0.0000 N   0  0  0  0  0  0  0  0  0  0  0  0
    8.2173   -8.2277    0.0000 C   0  0  0  0  0  0  0  0  0  0  0  0
    9.7615   -6.7987    0.0000 H   0  0  0  0  0  0  0  0  0  0  0  0
    9.7615  -10.2611    0.0000 H   0  0  0  0  0  0  0  0  0  0  0  0
  1  2  1  0  0  0  0
  2  3  1  0  0  0  0
  1  4  2  0  0  0  0
  1  5  1  0  0  0  0
  6  7  1  0  0  0  0
  7  8  2  0  0  0  0
  8  9  1  0  0  0  0
  9 10  2  0  0  0  0
 10 11  1  0  0  0  0
  6 11  2  0  0  0  0
 12 13  1  0  0  0  0
  8 12  1  0  0  0  0
  2  6  1  0  0  0  0
  3 14  1  0  0  0  0
 15 16  1  0  0  0  0
 16 17  1  0  0  0  0
 17 18  1  0  0  0  0
 18 19  1  0  0  0  0
 19 20  1  0  0  0  0
 20 21  1  0  0  0  0
 15 21  1  0  0  0  0
  5 17  1  0  0  0  0
 19 22  1  0  0  0  0
 15 22  1  0  0  0  0
 22 23  1  0  0  0  0
 19 24  1  6  0  0  0
 15 25  1  6  0  0  0
M  END
>  <cdx:fragmentId>
15

$$$$
