20111.cdx
  Mrv1902 05222410272D          

  6  5  0  0  0  0            999 V2000
    8.1354   -7.3425    0.0000 C   0  0  0  0  0  0  0  0  0  0  0  0
    7.4209   -7.7550    0.0000 C   0  0  0  0  0  0  0  0  0  0  0  0
    6.7065   -7.3425    0.0000 C   0  0  0  0  0  0  0  0  0  0  0  0
    5.9920   -7.7550    0.0000 C   0  0  0  0  0  0  0  0  0  0  0  0
    5.2775   -7.3425    0.0000 N   0  0  0  0  0  0  0  0  0  0  0  0
    5.9920   -8.5800    0.0000 C   0  0  0  0  0  0  0  0  0  0  0  0
  2  1  1  0  0  0  0
  3  2  1  0  0  0  0
  4  3  1  0  0  0  0
  5  4  1  0  0  0  0
  4  6  1  0  0  0  0
M  END
>  <cdx:fragmentId>
3

$$$$
