20126.cdx
  Mrv1902 05222410182D          

 12 12  0  0  0  0            999 V2000
    5.8378   -6.3765    0.0000 C   0  0  0  0  0  0  0  0  0  0  0  0
    5.1236   -6.7896    0.0000 C   0  0  0  0  0  0  0  0  0  0  0  0
    5.1244   -7.6146    0.0000 C   0  0  0  0  0  0  0  0  0  0  0  0
    5.8392   -8.0265    0.0000 C   0  0  0  0  0  0  0  0  0  0  0  0
    6.5533   -7.6134    0.0000 C   0  0  0  0  0  0  0  0  0  0  0  0
    6.5526   -6.7884    0.0000 C   0  0  0  0  0  0  0  0  0  0  0  0
    4.4088   -6.3778    0.0000 O   0  0  0  0  0  0  0  0  0  0  0  0
    7.2667   -6.3753    0.0000 C   0  0  0  0  0  0  0  0  0  0  0  0
    7.2660   -5.5503    0.0000 O   0  0  0  0  0  0  0  0  0  0  0  0
    7.9815   -6.7871    0.0000 C   0  0  0  0  0  0  0  0  0  0  0  0
    8.6956   -6.3740    0.0000 N   0  0  0  0  0  0  0  0  0  0  0  0
    9.4105   -6.7859    0.0000 C   0  0  0  0  0  0  0  0  0  0  0  0
  1  2  2  0  0  0  0
  2  3  1  0  0  0  0
  3  4  2  0  0  0  0
  4  5  1  0  0  0  0
  5  6  2  0  0  0  0
  6  1  1  0  0  0  0
  2  7  1  0  0  0  0
  6  8  1  0  0  0  0
  8  9  1  0  0  0  0
  8 10  1  0  0  0  0
 10 11  1  0  0  0  0
 11 12  1  0  0  0  0
M  END
>  <cdx:fragmentId>
5

$$$$
