20127.cdx
  Mrv1902 05222410182D          

 20 19  0  0  0  0            999 V2000
   13.9231   -7.8788    0.0000 C   0  0  0  0  0  0  0  0  0  0  0  0
   13.2086   -7.4663    0.0000 N   0  0  0  0  0  0  0  0  0  0  0  0
   12.4942   -7.8788    0.0000 C   0  0  0  0  0  0  0  0  0  0  0  0
   11.7797   -7.4663    0.0000 C   0  0  0  0  0  0  0  0  0  0  0  0
   11.0652   -7.8788    0.0000 C   0  0  0  0  0  0  0  0  0  0  0  0
   10.3507   -7.4663    0.0000 C   0  0  0  0  0  0  0  0  0  0  0  0
    9.6363   -7.8788    0.0000 C   0  0  0  0  0  0  0  0  0  0  0  0
    8.9218   -7.4663    0.0000 C   0  0  0  0  0  0  0  0  0  0  0  0
    8.2073   -7.8788    0.0000 C   0  0  0  0  0  0  0  0  0  0  0  0
    7.4929   -7.4663    0.0000 C   0  0  0  0  0  0  0  0  0  0  0  0
    6.7784   -7.8788    0.0000 C   0  0  0  0  0  0  0  0  0  0  0  0
    6.0639   -7.4663    0.0000 C   0  0  0  0  0  0  0  0  0  0  0  0
    5.3494   -7.8788    0.0000 C   0  0  0  0  0  0  0  0  0  0  0  0
    4.6350   -7.4663    0.0000 C   0  0  0  0  0  0  0  0  0  0  0  0
    3.9205   -7.8788    0.0000 C   0  0  0  0  0  0  0  0  0  0  0  0
    3.2060   -7.4663    0.0000 C   0  0  0  0  0  0  0  0  0  0  0  0
    2.4916   -7.8788    0.0000 C   0  0  0  0  0  0  0  0  0  0  0  0
    1.7771   -7.4663    0.0000 C   0  0  0  0  0  0  0  0  0  0  0  0
    1.0626   -7.8788    0.0000 C   0  0  0  0  0  0  0  0  0  0  0  0
    0.3481   -7.4663    0.0000 C   0  0  0  0  0  0  0  0  0  0  0  0
  2  1  1  0  0  0  0
  3  2  1  0  0  0  0
  4  3  1  0  0  0  0
  5  4  1  0  0  0  0
  6  5  1  0  0  0  0
  7  6  1  0  0  0  0
  8  7  1  0  0  0  0
  9  8  1  0  0  0  0
 10  9  1  0  0  0  0
 11 10  1  0  0  0  0
 12 11  1  0  0  0  0
 13 12  1  0  0  0  0
 14 13  1  0  0  0  0
 15 14  1  0  0  0  0
 16 15  1  0  0  0  0
 17 16  1  0  0  0  0
 18 17  1  0  0  0  0
 19 18  1  0  0  0  0
 20 19  1  0  0  0  0
M  END
>  <cdx:fragmentId>
3

$$$$
