20124.cdx
  Mrv1902 05222410192D          

 11 11  0  0  0  0            999 V2000
    6.1264   -6.7574    0.0000 C   0  0  0  0  0  0  0  0  0  0  0  0
    5.4125   -7.1708    0.0000 C   0  0  0  0  0  0  0  0  0  0  0  0
    5.4136   -7.9958    0.0000 C   0  0  0  0  0  0  0  0  0  0  0  0
    6.1286   -8.4074    0.0000 C   0  0  0  0  0  0  0  0  0  0  0  0
    6.8426   -7.9939    0.0000 C   0  0  0  0  0  0  0  0  0  0  0  0
    6.8415   -7.1689    0.0000 C   0  0  0  0  0  0  0  0  0  0  0  0
    8.2715   -7.9920    0.0000 C   0  0  0  0  0  0  0  0  0  0  0  0
    8.2704   -7.1670    0.0000 C   0  0  0  0  0  0  0  0  0  0  0  0
    7.5554   -6.7555    0.0000 C   0  0  0  0  0  0  0  0  0  0  0  0
    4.6975   -6.7593    0.0000 C   0  0  0  0  0  0  0  0  0  0  0  0
    8.9843   -6.7536    0.0000 N   0  0  0  0  0  0  0  0  0  0  0  0
  1  2  2  0  0  0  0
  2  3  1  0  0  0  0
  3  4  2  0  0  0  0
  4  5  1  0  0  0  0
  5  6  2  0  0  0  0
  6  1  1  0  0  0  0
  7  8  1  0  0  0  0
  8  9  1  0  0  0  0
  9  6  1  0  0  0  0
  2 10  1  0  0  0  0
  8 11  1  0  0  0  0
M  END
>  <cdx:fragmentId>
5

$$$$
