20125.cdx
  Mrv1902 05222410192D          

  7  6  0  0  0  0            999 V2000
    5.7313   -7.5281    0.0000 C   0  0  0  0  0  0  0  0  0  0  0  0
    6.4457   -7.1156    0.0000 C   0  0  0  0  0  0  0  0  0  0  0  0
    7.1602   -7.5281    0.0000 N   0  0  0  0  0  0  0  0  0  0  0  0
    6.4457   -6.2906    0.0000 O   0  0  0  0  0  0  0  0  0  0  0  0
    5.0168   -7.9406    0.0000 Cl  0  0  0  0  0  0  0  0  0  0  0  0
    5.3188   -6.8137    0.0000 F   0  0  0  0  0  0  0  0  0  0  0  0
    6.1438   -8.2426    0.0000 F   0  0  0  0  0  0  0  0  0  0  0  0
  1  2  1  0  0  0  0
  2  3  1  0  0  0  0
  2  4  2  0  0  0  0
  1  5  1  0  0  0  0
  1  6  1  0  0  0  0
  1  7  1  0  0  0  0
M  END
>  <cdx:fragmentId>
3

$$$$
