20121.cdx
  Mrv1902 05222410192D          

 23 25  0  0  0  0            999 V2000
    6.5614   -8.4692    0.0000 C   0  0  0  0  0  0  0  0  0  0  0  0
    5.7364   -8.4692    0.0000 C   0  0  2  0  0  0  0  0  0  0  0  0
    5.3239   -7.7547    0.0000 C   0  0  0  0  0  0  0  0  0  0  0  0
    6.9739   -7.7547    0.0000 O   0  0  0  0  0  0  0  0  0  0  0  0
    6.9739   -9.1836    0.0000 O   0  0  0  0  0  0  0  0  0  0  0  0
    5.3239   -9.1836    0.0000 C   0  0  0  0  0  0  0  0  0  0  0  0
    5.7364   -9.8981    0.0000 C   0  0  0  0  0  0  0  0  0  0  0  0
    5.3239  -10.6126    0.0000 C   0  0  0  0  0  0  0  0  0  0  0  0
    4.4989  -10.6126    0.0000 C   0  0  0  0  0  0  0  0  0  0  0  0
    4.0864   -9.8981    0.0000 C   0  0  0  0  0  0  0  0  0  0  0  0
    4.4989   -9.1836    0.0000 C   0  0  0  0  0  0  0  0  0  0  0  0
    4.4989   -7.7547    0.0000 O   0  0  0  0  0  0  0  0  0  0  0  0
    8.9612  -10.1105    0.0000 C   0  0  2  0  0  0  0  0  0  0  0  0
    8.1568   -9.9269    0.0000 C   0  0  0  0  0  0  0  0  0  0  0  0
    7.7989   -9.1836    0.0000 C   0  0  0  0  0  0  0  0  0  0  0  0
    8.1568   -8.4403    0.0000 C   0  0  0  0  0  0  0  0  0  0  0  0
    8.9612   -8.2567    0.0000 C   0  0  1  0  0  0  0  0  0  0  0  0
    9.6062   -8.7711    0.0000 C   0  0  0  0  0  0  0  0  0  0  0  0
    9.6062   -9.5961    0.0000 C   0  0  0  0  0  0  0  0  0  0  0  0
    8.3837   -9.1362    0.0000 N   0  0  0  0  0  0  0  0  0  0  0  0
    7.5868   -8.9227    0.0000 C   0  0  0  0  0  0  0  0  0  0  0  0
    9.1447   -7.4524    0.0000 H   0  0  0  0  0  0  0  0  0  0  0  0
    9.1447  -10.9148    0.0000 H   0  0  0  0  0  0  0  0  0  0  0  0
  1  2  1  0  0  0  0
  2  3  1  1  0  0  0
  1  4  2  0  0  0  0
  1  5  1  0  0  0  0
  6  7  1  0  0  0  0
  7  8  2  0  0  0  0
  8  9  1  0  0  0  0
  9 10  2  0  0  0  0
 10 11  1  0  0  0  0
  6 11  2  0  0  0  0
  2  6  1  0  0  0  0
  3 12  1  0  0  0  0
 13 14  1  0  0  0  0
 14 15  1  0  0  0  0
 15 16  1  0  0  0  0
 16 17  1  0  0  0  0
 17 18  1  0  0  0  0
 18 19  2  0  0  0  0
 13 19  1  0  0  0  0
  5 15  1  0  0  0  0
 17 20  1  0  0  0  0
 13 20  1  0  0  0  0
 20 21  1  0  0  0  0
 17 22  1  6  0  0  0
 13 23  1  6  0  0  0
M  END
>  <cdx:fragmentId>
15

$$$$
