20128.cdx
  Mrv1902 05222410272D          

  6  5  0  0  0  0            999 V2000
    8.5199   -8.5713    0.0000 C   0  0  0  0  0  0  0  0  0  0  0  0
    7.8054   -8.1588    0.0000 N   0  0  0  0  0  0  0  0  0  0  0  0
    7.0909   -8.5713    0.0000 C   0  0  0  0  0  0  0  0  0  0  0  0
    6.3765   -8.1588    0.0000 C   0  0  0  0  0  0  0  0  0  0  0  0
    5.6620   -8.5713    0.0000 C   0  0  0  0  0  0  0  0  0  0  0  0
    4.9475   -8.1588    0.0000 N   0  0  0  0  0  0  0  0  0  0  0  0
  2  1  1  0  0  0  0
  3  2  1  0  0  0  0
  4  3  1  0  0  0  0
  5  4  1  0  0  0  0
  6  5  1  0  0  0  0
M  END
>  <cdx:fragmentId>
3

$$$$
