2012.cdx
  Mrv1902 05222410192D          

 27 30  0  0  0  0            999 V2000
    8.1759   -4.6086    0.0000 C   0  0  0  0  0  0  0  0  0  0  0  0
    7.4657   -5.0283    0.0000 C   0  0  0  0  0  0  0  0  0  0  0  0
    7.4741   -5.8533    0.0000 C   0  0  0  0  0  0  0  0  0  0  0  0
    8.1927   -6.2585    0.0000 C   0  0  0  0  0  0  0  0  0  0  0  0
    8.9029   -5.8388    0.0000 C   0  0  0  0  0  0  0  0  0  0  0  0
    8.8946   -5.0138    0.0000 C   0  0  0  0  0  0  0  0  0  0  0  0
    8.2010   -7.0835    0.0000 C   0  0  1  0  0  0  0  0  0  0  0  0
    8.9197   -7.4887    0.0000 N   0  3  0  0  0  0  0  0  0  0  0  0
    9.6299   -7.0690    0.0000 C   0  0  0  0  0  0  0  0  0  0  0  0
    9.6215   -6.2440    0.0000 C   0  0  0  0  0  0  0  0  0  0  0  0
    6.7638   -6.2730    0.0000 C   0  0  0  0  0  0  0  0  0  0  0  0
    6.7722   -7.0980    0.0000 C   0  0  0  0  0  0  0  0  0  0  0  0
    7.4908   -7.5032    0.0000 C   0  0  0  0  0  0  0  0  0  0  0  0
    6.0452   -5.8678    0.0000 C   0  0  0  0  0  0  0  0  0  0  0  0
    5.3349   -6.2875    0.0000 C   0  0  0  0  0  0  0  0  0  0  0  0
    5.3433   -7.1124    0.0000 C   0  0  0  0  0  0  0  0  0  0  0  0
    6.0619   -7.5177    0.0000 C   0  0  0  0  0  0  0  0  0  0  0  0
    6.0368   -5.0428    0.0000 O   0  0  0  0  0  0  0  0  0  0  0  0
    8.5072   -8.2032    0.0000 C   0  0  0  0  0  0  0  0  0  0  0  0
    8.1676   -3.7836    0.0000 O   0  0  0  0  0  0  0  0  0  0  0  0
    6.7471   -4.6231    0.0000 O   0  0  0  0  0  0  0  0  0  0  0  0
    4.6163   -5.8823    0.0000 O   0  0  0  0  0  0  0  0  0  0  0  0
   10.3318   -5.8243    0.0000 O   0  0  0  0  0  0  0  0  0  0  0  0
    8.2094   -7.9084    0.0000 H   0  0  0  0  0  0  0  0  0  0  0  0
    4.6080   -5.0573    0.0000 C   0  0  0  0  0  0  0  0  0  0  0  0
    7.4490   -3.3784    0.0000 C   0  0  0  0  0  0  0  0  0  0  0  0
    9.3322   -8.2032    0.0000 C   0  0  0  0  0  0  0  0  0  0  0  0
  1  2  2  0  0  0  0
  2  3  1  0  0  0  0
  3  4  2  0  0  0  0
  4  5  1  0  0  0  0
  5  6  2  0  0  0  0
  6  1  1  0  0  0  0
  4  7  1  0  0  0  0
  7  8  1  0  0  0  0
  8  9  1  0  0  0  0
  9 10  1  0  0  0  0
 10  5  1  0  0  0  0
  3 11  1  0  0  0  0
 11 12  2  0  0  0  0
 12 13  1  0  0  0  0
 13  7  1  0  0  0  0
 11 14  1  0  0  0  0
 14 15  2  0  0  0  0
 15 16  1  0  0  0  0
 16 17  2  0  0  0  0
 17 12  1  0  0  0  0
 14 18  1  0  0  0  0
  8 19  1  0  0  0  0
  1 20  1  0  0  0  0
  2 21  1  0  0  0  0
 15 22  1  0  0  0  0
 10 23  2  0  0  0  0
  7 24  1  6  0  0  0
 22 25  1  0  0  0  0
 20 26  1  0  0  0  0
  8 27  1  0  0  0  0
M  CHG  1   8   1
M  END
>  <cdx:fragmentId>
5

$$$$
