20129.cdx
  Mrv1902 05222410272D          

 11 11  0  0  0  0            999 V2000
    6.4874   -7.4929    0.0000 C   0  0  0  0  0  0  0  0  0  0  0  0
    5.7736   -7.9065    0.0000 C   0  0  0  0  0  0  0  0  0  0  0  0
    5.7749   -8.7315    0.0000 C   0  0  0  0  0  0  0  0  0  0  0  0
    6.4900   -9.1429    0.0000 C   0  0  0  0  0  0  0  0  0  0  0  0
    7.2038   -8.7292    0.0000 C   0  0  0  0  0  0  0  0  0  0  0  0
    7.2025   -7.9042    0.0000 C   0  0  0  0  0  0  0  0  0  0  0  0
    7.9163   -7.4905    0.0000 C   0  0  0  0  0  0  0  0  0  0  0  0
    7.9149   -6.6655    0.0000 C   0  0  0  0  0  0  0  0  0  0  0  0
    8.6314   -7.9019    0.0000 C   0  0  0  0  0  0  0  0  0  0  0  0
    9.3452   -7.4882    0.0000 N   0  0  0  0  0  0  0  0  0  0  0  0
   10.0604   -7.8996    0.0000 C   0  0  0  0  0  0  0  0  0  0  0  0
  1  2  2  0  0  0  0
  2  3  1  0  0  0  0
  3  4  2  0  0  0  0
  4  5  1  0  0  0  0
  5  6  2  0  0  0  0
  6  1  1  0  0  0  0
  6  7  1  0  0  0  0
  7  8  1  0  0  0  0
  7  9  1  0  0  0  0
  9 10  1  0  0  0  0
 10 11  1  0  0  0  0
M  END
>  <cdx:fragmentId>
5

$$$$
