20123.cdx
  Mrv1902 05222410202D          

 10  9  0  0  0  0            999 V2000
    8.9382   -7.5488    0.0000 N   0  0  0  0  0  0  0  0  0  0  0  0
    8.2237   -7.1362    0.0000 C   0  0  0  0  0  0  0  0  0  0  0  0
    7.5093   -7.5488    0.0000 C   0  0  0  0  0  0  0  0  0  0  0  0
    6.7948   -7.1362    0.0000 C   0  0  0  0  0  0  0  0  0  0  0  0
    6.0803   -7.5488    0.0000 C   0  0  0  0  0  0  0  0  0  0  0  0
    5.3658   -7.1362    0.0000 C   0  0  0  0  0  0  0  0  0  0  0  0
    4.6514   -7.5488    0.0000 C   0  0  0  0  0  0  0  0  0  0  0  0
    3.9369   -7.1362    0.0000 N   0  0  0  0  0  0  0  0  0  0  0  0
    4.6514   -8.3737    0.0000 O   0  0  0  0  0  0  0  0  0  0  0  0
    8.2237   -6.3113    0.0000 O   0  0  0  0  0  0  0  0  0  0  0  0
  2  1  1  0  0  0  0
  3  2  1  0  0  0  0
  4  3  1  0  0  0  0
  5  4  1  0  0  0  0
  6  5  1  0  0  0  0
  7  6  1  0  0  0  0
  8  7  1  0  0  0  0
  7  9  2  0  0  0  0
  2 10  2  0  0  0  0
M  END
>  <cdx:fragmentId>
3

$$$$
