20133.cdx
  Mrv1902 05222410182D          

  9  8  0  0  0  0            999 V2000
    9.1312   -7.2394    0.0000 N   0  0  0  0  0  0  0  0  0  0  0  0
    8.4168   -7.6519    0.0000 C   0  0  0  0  0  0  0  0  0  0  0  0
    7.7023   -7.2394    0.0000 C   0  0  0  0  0  0  0  0  0  0  0  0
    6.9878   -7.6519    0.0000 C   0  0  0  0  0  0  0  0  0  0  0  0
    6.2733   -7.2394    0.0000 C   0  0  0  0  0  0  0  0  0  0  0  0
    5.5589   -7.6519    0.0000 C   0  0  0  0  0  0  0  0  0  0  0  0
    4.8444   -7.2394    0.0000 C   0  0  0  0  0  0  0  0  0  0  0  0
    5.5589   -8.4769    0.0000 C   0  0  0  0  0  0  0  0  0  0  0  0
    8.4168   -8.4769    0.0000 C   0  0  0  0  0  0  0  0  0  0  0  0
  2  1  1  0  0  0  0
  3  2  1  0  0  0  0
  4  3  1  0  0  0  0
  5  4  1  0  0  0  0
  6  5  1  0  0  0  0
  7  6  1  0  0  0  0
  6  8  1  0  0  0  0
  2  9  1  0  0  0  0
M  END
>  <cdx:fragmentId>
3

$$$$
