20139.cdx
  Mrv1902 05222410272D          

 23 23  0  0  0  0            999 V2000
    3.5199  -12.4284    0.0000 C   0  0  0  0  0  0  0  0  0  0  0  0
    3.7765  -13.2125    0.0000 C   0  0  0  0  0  0  0  0  0  0  0  0
    4.6015  -13.2107    0.0000 C   0  0  0  0  0  0  0  0  0  0  0  0
    4.8548  -12.4256    0.0000 C   0  0  0  0  0  0  0  0  0  0  0  0
    4.1863  -11.9421    0.0000 C   0  0  0  0  0  0  0  0  0  0  0  0
    4.1972  -11.1116    0.0000 C   0  0  0  0  0  0  0  0  0  0  0  0
    4.9158  -10.7065    0.0000 N   0  0  0  0  0  0  0  0  0  0  0  0
    4.9243   -9.8815    0.0000 C   0  0  0  0  0  0  0  0  0  0  0  0
    5.6430   -9.4764    0.0000 C   0  0  0  0  0  0  0  0  0  0  0  0
    5.6515   -8.6514    0.0000 O   0  0  0  0  0  0  0  0  0  0  0  0
    6.3701   -8.2463    0.0000 C   0  0  0  0  0  0  0  0  0  0  0  0
    6.3786   -7.4213    0.0000 C   0  0  0  0  0  0  0  0  0  0  0  0
    7.0973   -7.0162    0.0000 C   0  0  0  0  0  0  0  0  0  0  0  0
    7.1057   -6.1912    0.0000 C   0  0  0  0  0  0  0  0  0  0  0  0
    7.8244   -5.7861    0.0000 C   0  0  0  0  0  0  0  0  0  0  0  0
    7.8329   -4.9611    0.0000 C   0  0  0  0  0  0  0  0  0  0  0  0
    8.5515   -4.5560    0.0000 C   0  0  0  0  0  0  0  0  0  0  0  0
    8.5600   -3.7310    0.0000 C   0  0  0  0  0  0  0  0  0  0  0  0
    9.2787   -3.3259    0.0000 C   0  0  0  0  0  0  0  0  0  0  0  0
    9.2872   -2.5009    0.0000 C   0  0  0  0  0  0  0  0  0  0  0  0
    3.4876  -10.6908    0.0000 O   0  0  0  0  0  0  0  0  0  0  0  0
    5.6260  -11.1263    0.0000 C   0  0  0  0  0  0  0  0  0  0  0  0
    6.3532   -9.8962    0.0000 O   0  0  0  0  0  0  0  0  0  0  0  0
  1  2  1  0  0  0  0
  2  3  1  0  0  0  0
  3  4  1  0  0  0  0
  4  5  1  0  0  0  0
  5  1  1  0  0  0  0
  6  7  1  0  0  0  0
  7  8  1  0  0  0  0
  8  9  1  0  0  0  0
  9 10  1  0  0  0  0
 10 11  1  0  0  0  0
 11 12  1  0  0  0  0
 12 13  1  0  0  0  0
 13 14  1  0  0  0  0
 14 15  1  0  0  0  0
 15 16  1  0  0  0  0
 16 17  1  0  0  0  0
 17 18  1  0  0  0  0
 18 19  1  0  0  0  0
 19 20  1  0  0  0  0
  6  5  1  0  0  0  0
  6 21  2  0  0  0  0
  7 22  1  0  0  0  0
  9 23  2  0  0  0  0
M  END
>  <cdx:fragmentId>
18

$$$$
