20138.cdx
  Mrv1902 05222410272D          

 20 19  0  0  0  0            999 V2000
    7.0513   -5.5894    0.0000 Si  0  0  0  0  0  0  0  0  0  0  0  0
    7.4638   -6.3038    0.0000 S   0  0  0  0  0  0  0  0  0  0  0  0
    7.0513   -7.0183    0.0000 C   0  0  0  0  0  0  0  0  0  0  0  0
    7.4638   -7.7328    0.0000 C   0  0  0  0  0  0  0  0  0  0  0  0
    7.0513   -8.4473    0.0000 N   0  0  0  0  0  0  0  0  0  0  0  0
    6.3368   -6.0019    0.0000 O   0  0  0  0  0  0  0  0  0  0  0  0
    7.7657   -5.1769    0.0000 O   0  0  0  0  0  0  0  0  0  0  0  0
    6.6388   -4.8749    0.0000 O   0  0  0  0  0  0  0  0  0  0  0  0
    8.4802   -5.5894    0.0000 C   0  0  0  0  0  0  0  0  0  0  0  0
    9.1947   -6.0019    0.0000 C   0  0  0  0  0  0  0  0  0  0  0  0
    8.8927   -4.8749    0.0000 C   0  0  0  0  0  0  0  0  0  0  0  0
    8.0677   -6.3038    0.0000 C   0  0  0  0  0  0  0  0  0  0  0  0
    5.6223   -5.5894    0.0000 C   0  0  0  0  0  0  0  0  0  0  0  0
    4.9079   -5.1769    0.0000 C   0  0  0  0  0  0  0  0  0  0  0  0
    6.0348   -4.8749    0.0000 C   0  0  0  0  0  0  0  0  0  0  0  0
    5.2098   -6.3038    0.0000 C   0  0  0  0  0  0  0  0  0  0  0  0
    7.0513   -4.1604    0.0000 C   0  0  0  0  0  0  0  0  0  0  0  0
    7.4638   -3.4460    0.0000 C   0  0  0  0  0  0  0  0  0  0  0  0
    6.3368   -3.7479    0.0000 C   0  0  0  0  0  0  0  0  0  0  0  0
    7.7657   -4.5729    0.0000 C   0  0  0  0  0  0  0  0  0  0  0  0
  1  2  1  0  0  0  0
  2  3  1  0  0  0  0
  3  4  1  0  0  0  0
  4  5  1  0  0  0  0
  1  6  1  0  0  0  0
  1  7  1  0  0  0  0
  1  8  1  0  0  0  0
  7  9  1  0  0  0  0
  9 10  1  0  0  0  0
  9 11  1  0  0  0  0
  9 12  1  0  0  0  0
  6 13  1  0  0  0  0
 13 14  1  0  0  0  0
 13 15  1  0  0  0  0
 13 16  1  0  0  0  0
  8 17  1  0  0  0  0
 17 18  1  0  0  0  0
 17 19  1  0  0  0  0
 17 20  1  0  0  0  0
M  END
>  <cdx:fragmentId>
3

$$$$
