20137.cdx
  Mrv1902 05222410202D          

  9  9  0  0  0  0            999 V2000
    6.6049   -9.4256    0.0000 C   0  0  0  0  0  0  0  0  0  0  0  0
    6.6049  -10.2506    0.0000 C   0  0  0  0  0  0  0  0  0  0  0  0
    7.3194  -10.6631    0.0000 C   0  0  0  0  0  0  0  0  0  0  0  0
    8.0339  -10.2506    0.0000 C   0  0  0  0  0  0  0  0  0  0  0  0
    8.0339   -9.4256    0.0000 C   0  0  0  0  0  0  0  0  0  0  0  0
    7.3194   -9.0131    0.0000 C   0  0  0  0  0  0  0  0  0  0  0  0
    7.3194   -8.1881    0.0000 C   0  0  2  0  0  0  0  0  0  0  0  0
    8.0339   -7.7756    0.0000 N   0  0  0  0  0  0  0  0  0  0  0  0
    6.6049   -7.7756    0.0000 C   0  0  0  0  0  0  0  0  0  0  0  0
  1  2  1  0  0  0  0
  2  3  1  0  0  0  0
  3  4  1  0  0  0  0
  4  5  1  0  0  0  0
  5  6  1  0  0  0  0
  6  1  1  0  0  0  0
  6  7  1  0  0  0  0
  7  8  1  1  0  0  0
  7  9  1  0  0  0  0
M  END
>  <cdx:fragmentId>
5

$$$$
