20134.cdx
  Mrv1902 05222410192D          

 11 11  0  0  0  0            999 V2000
    5.9160   -8.5811    0.0000 C   0  0  0  0  0  0  0  0  0  0  0  0
    5.9160   -7.7561    0.0000 C   0  0  0  0  0  0  0  0  0  0  0  0
    6.6305   -7.3436    0.0000 C   0  0  0  0  0  0  0  0  0  0  0  0
    7.3450   -7.7561    0.0000 C   0  0  0  0  0  0  0  0  0  0  0  0
    7.3450   -8.5811    0.0000 C   0  0  0  0  0  0  0  0  0  0  0  0
    6.6305   -8.9936    0.0000 C   0  0  0  0  0  0  0  0  0  0  0  0
    5.2016   -8.9936    0.0000 O   0  0  0  0  0  0  0  0  0  0  0  0
    8.0595   -7.3436    0.0000 C   0  0  0  0  0  0  0  0  0  0  0  0
    8.7739   -7.7561    0.0000 C   0  0  0  0  0  0  0  0  0  0  0  0
    9.4884   -7.3436    0.0000 C   0  0  0  0  0  0  0  0  0  0  0  0
    8.7739   -8.5811    0.0000 N   0  0  0  0  0  0  0  0  0  0  0  0
  1  2  1  0  0  0  0
  2  3  2  0  0  0  0
  3  4  1  0  0  0  0
  4  5  2  0  0  0  0
  5  6  1  0  0  0  0
  1  6  2  0  0  0  0
  1  7  1  0  0  0  0
  8  9  1  0  0  0  0
  9 10  1  0  0  0  0
  9 11  1  0  0  0  0
  4  8  1  0  0  0  0
M  END
>  <cdx:fragmentId>
5

$$$$
