20130.cdx
  Mrv1902 05222410192D          

  5  4  0  0  0  0            999 V2000
    3.6069   -7.0331    0.0000 C   0  0  0  0  0  0  0  0  0  0  0  0
    4.3214   -6.6206    0.0000 C   0  0  0  0  0  0  0  0  0  0  0  0
    5.0358   -7.0331    0.0000 C   0  0  0  0  0  0  0  0  0  0  0  0
    5.7503   -6.6206    0.0000 N   0  0  0  0  0  0  0  0  0  0  0  0
    6.4648   -7.0331    0.0000 C   0  0  0  0  0  0  0  0  0  0  0  0
  1  2  2  0  0  0  0
  2  3  1  0  0  0  0
  3  4  1  0  0  0  0
  4  5  1  0  0  0  0
M  END
>  <cdx:fragmentId>
3

$$$$
