20131.cdx
  Mrv1902 05222410192D          

 24 25  0  0  0  0            999 V2000
    5.9656   -8.9513    0.0000 C   0  0  0  0  0  0  0  0  0  0  0  0
    5.9656   -9.7763    0.0000 C   0  0  0  0  0  0  0  0  0  0  0  0
    6.6800  -10.1888    0.0000 C   0  0  0  0  0  0  0  0  0  0  0  0
    7.3945   -9.7763    0.0000 C   0  0  0  0  0  0  0  0  0  0  0  0
    7.3945   -8.9513    0.0000 C   0  0  0  0  0  0  0  0  0  0  0  0
    6.6800   -8.5388    0.0000 C   0  0  0  0  0  0  0  0  0  0  0  0
    8.1090   -7.7138    0.0000 C   0  0  0  0  0  0  0  0  0  0  0  0
    7.3945   -7.3012    0.0000 C   0  0  0  0  0  0  0  0  0  0  0  0
    6.6800   -7.7138    0.0000 C   0  0  0  0  0  0  0  0  0  0  0  0
    8.8234   -7.3012    0.0000 C   0  0  0  0  0  0  0  0  0  0  0  0
    8.8234   -6.4763    0.0000 C   0  0  0  0  0  0  0  0  0  0  0  0
    8.1090   -6.0638    0.0000 C   0  0  0  0  0  0  0  0  0  0  0  0
    7.3945   -6.4763    0.0000 C   0  0  0  0  0  0  0  0  0  0  0  0
    6.6800   -6.0638    0.0000 O   0  0  0  0  0  0  0  0  0  0  0  0
    5.9656   -6.4763    0.0000 C   0  0  0  0  0  0  0  0  0  0  0  0
    5.9656   -7.3012    0.0000 C   0  0  0  0  0  0  0  0  0  0  0  0
    5.9656   -4.8263    0.0000 C   0  0  0  0  0  0  0  0  0  0  0  0
    5.2511   -5.2387    0.0000 C   0  0  0  0  0  0  0  0  0  0  0  0
    5.2511   -6.0638    0.0000 N   0  0  0  0  0  0  0  0  0  0  0  0
    4.5366   -4.8263    0.0000 C   0  0  0  0  0  0  0  0  0  0  0  0
    4.5366   -4.0012    0.0000 C   0  0  0  0  0  0  0  0  0  0  0  0
    5.2511   -8.5388    0.0000 O   0  0  0  0  0  0  0  0  0  0  0  0
    5.2511  -10.1888    0.0000 C   0  0  0  0  0  0  0  0  0  0  0  0
    6.6800  -11.0137    0.0000 C   0  0  0  0  0  0  0  0  0  0  0  0
  1  2  2  0  0  0  0
  2  3  1  0  0  0  0
  3  4  2  0  0  0  0
  4  5  1  0  0  0  0
  5  6  2  0  0  0  0
  6  1  1  0  0  0  0
  7  8  2  0  0  0  0
  8  9  1  0  0  0  0
  9  6  1  0  0  0  0
  7 10  1  0  0  0  0
 10 11  2  0  0  0  0
 11 12  1  0  0  0  0
 12 13  2  0  0  0  0
 13  8  1  0  0  0  0
 14 15  2  0  0  0  0
 15 16  1  0  0  0  0
 16  9  1  0  0  0  0
 17 18  1  0  0  0  0
 18 19  1  0  0  0  0
 19 15  1  0  0  0  0
 18 20  1  0  0  0  0
 20 21  1  0  0  0  0
  1 22  1  0  0  0  0
  2 23  1  0  0  0  0
  3 24  1  0  0  0  0
M  END
>  <cdx:fragmentId>
5

$$$$
