20132.cdx
  Mrv1902 05222410182D          

 13 13  0  0  0  0            999 V2000
    5.6149   -7.9819    0.0000 C   0  0  0  0  0  0  0  0  0  0  0  0
    5.6149   -8.8069    0.0000 C   0  0  0  0  0  0  0  0  0  0  0  0
    6.3294   -9.2194    0.0000 C   0  0  0  0  0  0  0  0  0  0  0  0
    7.0439   -8.8069    0.0000 C   0  0  0  0  0  0  0  0  0  0  0  0
    7.0439   -7.9819    0.0000 C   0  0  0  0  0  0  0  0  0  0  0  0
    6.3294   -7.5694    0.0000 C   0  0  0  0  0  0  0  0  0  0  0  0
    4.9005   -7.5694    0.0000 O   0  0  0  0  0  0  0  0  0  0  0  0
    4.1860   -7.9819    0.0000 C   0  0  0  0  0  0  0  0  0  0  0  0
    4.9005   -9.2194    0.0000 O   0  0  0  0  0  0  0  0  0  0  0  0
    6.3294   -6.7444    0.0000 C   0  0  0  0  0  0  0  0  0  0  0  0
    5.6149   -6.3319    0.0000 O   0  0  0  0  0  0  0  0  0  0  0  0
    7.0439   -6.3319    0.0000 N   0  0  0  0  0  0  0  0  0  0  0  0
    4.9005  -10.0444    0.0000 C   0  0  0  0  0  0  0  0  0  0  0  0
  1  2  2  0  0  0  0
  2  3  1  0  0  0  0
  3  4  2  0  0  0  0
  4  5  1  0  0  0  0
  5  6  2  0  0  0  0
  6  1  1  0  0  0  0
  1  7  1  0  0  0  0
  7  8  1  0  0  0  0
  9  2  1  0  0  0  0
  6 10  1  0  0  0  0
 10 11  2  0  0  0  0
 10 12  1  0  0  0  0
  9 13  1  0  0  0  0
M  END
>  <cdx:fragmentId>
5

$$$$
