20144.cdx
  Mrv1902 05222410212D          

 22 24  0  0  0  0            999 V2000
    3.9649   -8.1881    0.0000 C   0  0  0  0  0  0  0  0  0  0  0  0
    3.9649   -9.0131    0.0000 C   0  0  0  0  0  0  0  0  0  0  0  0
    4.6794   -9.4256    0.0000 C   0  0  0  0  0  0  0  0  0  0  0  0
    5.3939   -9.0131    0.0000 C   0  0  0  0  0  0  0  0  0  0  0  0
    5.3939   -8.1881    0.0000 C   0  0  0  0  0  0  0  0  0  0  0  0
    4.6794   -7.7756    0.0000 C   0  0  0  0  0  0  0  0  0  0  0  0
    6.1083   -9.4256    0.0000 C   0  0  0  0  0  0  0  0  0  0  0  0
    6.8228   -9.0131    0.0000 C   0  0  0  0  0  0  0  0  0  0  0  0
    6.8228   -8.1881    0.0000 C   0  0  0  0  0  0  0  0  0  0  0  0
    6.1083   -7.7756    0.0000 C   0  0  0  0  0  0  0  0  0  0  0  0
    7.5373   -7.7756    0.0000 C   0  0  0  0  0  0  0  0  0  0  0  0
    7.5373   -6.9506    0.0000 C   0  0  0  0  0  0  0  0  0  0  0  0
    6.8228   -6.5381    0.0000 C   0  0  0  0  0  0  0  0  0  0  0  0
    6.1083   -6.9506    0.0000 C   0  0  0  0  0  0  0  0  0  0  0  0
    4.2669  -10.1401    0.0000 C   0  0  0  0  0  0  0  0  0  0  0  0
    5.0919  -10.1401    0.0000 C   0  0  0  0  0  0  0  0  0  0  0  0
    7.5373   -9.4256    0.0000 O   0  0  0  0  0  0  0  0  0  0  0  0
    6.8228   -5.7131    0.0000 O   0  0  0  0  0  0  0  0  0  0  0  0
    8.2518   -6.5381    0.0000 C   0  0  0  0  0  0  0  0  0  0  0  0
    8.2518   -5.7131    0.0000 C   0  0  0  0  0  0  0  0  0  0  0  0
    8.9662   -6.9506    0.0000 C   0  0  0  0  0  0  0  0  0  0  0  0
    5.3939   -7.3631    0.0000 C   0  0  0  0  0  0  0  0  0  0  0  0
  1  2  1  0  0  0  0
  2  3  1  0  0  0  0
  3  4  1  0  0  0  0
  4  5  1  0  0  0  0
  5  6  1  0  0  0  0
  6  1  1  0  0  0  0
  4  7  2  0  0  0  0
  7  8  1  0  0  0  0
  8  9  1  0  0  0  0
  9 10  1  0  0  0  0
 10  5  1  0  0  0  0
  9 11  2  0  0  0  0
 11 12  1  0  0  0  0
 12 13  2  0  0  0  0
 13 14  1  0  0  0  0
 14 10  2  0  0  0  0
  3 15  1  0  0  0  0
  3 16  1  0  0  0  0
  8 17  2  0  0  0  0
 13 18  1  0  0  0  0
 12 19  1  0  0  0  0
 19 20  1  0  0  0  0
 19 21  1  0  0  0  0
  5 22  1  0  0  0  0
M  END
>  <cdx:fragmentId>
5

$$$$
