20147.cdx
  Mrv1902 05222410212D          

 21 24  0  0  0  0            999 V2000
    7.6286   -5.4230    0.0000 O   0  0  0  0  0  0  0  0  0  0  0  0
    6.8076   -5.5045    0.0000 C   0  0  0  0  0  0  0  0  0  0  0  0
    6.6315   -6.3105    0.0000 C   0  0  0  0  0  0  0  0  0  0  0  0
    7.3436   -6.7271    0.0000 C   0  0  0  0  0  0  0  0  0  0  0  0
    7.3389   -7.5521    0.0000 C   0  0  0  0  0  0  0  0  0  0  0  0
    6.6221   -7.9605    0.0000 C   0  0  0  0  0  0  0  0  0  0  0  0
    5.9100   -7.5439    0.0000 C   0  0  0  0  0  0  0  0  0  0  0  0
    5.9147   -6.7190    0.0000 C   0  0  0  0  0  0  0  0  0  0  0  0
    5.2026   -6.3024    0.0000 C   0  0  0  0  0  0  0  0  0  0  0  0
    4.4858   -6.7109    0.0000 C   0  0  0  0  0  0  0  0  0  0  0  0
    4.4811   -7.5358    0.0000 C   0  0  0  0  0  0  0  0  0  0  0  0
    5.1932   -7.9524    0.0000 C   0  0  0  0  0  0  0  0  0  0  0  0
    6.2591   -4.8883    0.0000 O   0  0  0  0  0  0  0  0  0  0  0  0
    5.6017   -8.6692    0.0000 C   0  0  0  0  0  0  0  0  0  0  0  0
    4.7767   -8.6645    0.0000 C   0  0  0  0  0  0  0  0  0  0  0  0
   10.0437   -5.7152    0.0000 C   0  0  0  0  0  0  0  0  0  0  0  0
    9.1121   -6.8525    0.0000 C   0  0  0  0  0  0  0  0  0  0  0  0
    9.2882   -6.0465    0.0000 C   0  0  1  0  0  0  0  0  0  0  0  0
    8.5760   -5.6300    0.0000 C   0  0  0  0  0  0  0  0  0  0  0  0
    8.2911   -6.9341    0.0000 O   0  0  0  0  0  0  0  0  0  0  0  0
    7.9598   -6.1785    0.0000 C   0  0  1  0  0  0  0  0  0  0  0  0
 18 16  1  1  0  0  0
 21 19  1  6  0  0  0
 21 20  1  0  0  0  0
 20 17  1  0  0  0  0
 18 17  1  0  0  0  0
 19 18  1  0  0  0  0
  1  2  1  0  0  0  0
  2  3  1  0  0  0  0
  3  4  1  0  0  0  0
  4 21  1  0  0  0  0
  1 21  1  0  0  0  0
  5  6  1  0  0  0  0
  6  7  2  0  0  0  0
  7  8  1  0  0  0  0
  8  3  2  0  0  0  0
  5  4  2  0  0  0  0
  9 10  1  0  0  0  0
 10 11  1  0  0  0  0
 11 12  1  0  0  0  0
 12  7  1  0  0  0  0
  9  8  1  0  0  0  0
  2 13  2  0  0  0  0
 12 14  1  0  0  0  0
 12 15  1  0  0  0  0
M  END
>  <cdx:fragmentId>
3556

$$$$
