201412.cdx
  Mrv1902 05222410252D          

 23 25  0  0  0  0            999 V2000
   15.8689  -15.9419    0.0000 O   0  0  0  0  0  0  0  0  0  0  0  0
   15.8689  -15.1169    0.0000 C   0  0  0  0  0  0  0  0  0  0  0  0
   16.5834  -14.7044    0.0000 O   0  0  0  0  0  0  0  0  0  0  0  0
   16.5834  -13.8794    0.0000 C   0  0  2  0  0  0  0  0  0  0  0  0
   15.8689  -13.4669    0.0000 C   0  0  2  0  0  0  0  0  0  0  0  0
   15.8689  -12.6419    0.0000 O   0  0  0  0  0  0  0  0  0  0  0  0
   16.5834  -12.2294    0.0000 C   0  0  2  0  0  0  0  0  0  0  0  0
   16.5834  -11.4044    0.0000 C   0  0  0  0  0  0  0  0  0  0  0  0
   17.2979  -10.9919    0.0000 O   0  0  0  0  0  0  0  0  0  0  0  0
   17.2979  -12.6419    0.0000 C   0  0  1  0  0  0  0  0  0  0  0  0
   18.0124  -12.2294    0.0000 O   0  0  0  0  0  0  0  0  0  0  0  0
   17.2979  -13.4669    0.0000 C   0  0  2  0  0  0  0  0  0  0  0  0
   18.0124  -13.8794    0.0000 O   0  0  0  0  0  0  0  0  0  0  0  0
   15.1544  -13.8794    0.0000 C   0  0  0  0  0  0  0  0  0  0  0  0
   14.4400  -13.4669    0.0000 C   0  0  0  0  0  0  0  0  0  0  0  0
   14.4400  -12.6419    0.0000 O   0  0  0  0  0  0  0  0  0  0  0  0
   13.7255  -13.8794    0.0000 C   0  0  0  0  0  0  0  0  0  0  0  0
   13.0111  -13.4669    0.0000 O   0  0  0  0  0  0  0  0  0  0  0  0
   12.2966  -13.8794    0.0000 C   0  0  0  0  0  0  0  0  0  0  0  0
   13.7255  -14.7044    0.0000 C   0  0  0  0  0  0  0  0  0  0  0  0
   13.0111  -15.1169    0.0000 O   0  0  0  0  0  0  0  0  0  0  0  0
   14.4400  -15.1169    0.0000 C   0  0  0  0  0  0  0  0  0  0  0  0
   15.1544  -14.7044    0.0000 C   0  0  0  0  0  0  0  0  0  0  0  0
  1  2  2  0  0  0  0
  2  3  1  0  0  0  0
  4  3  1  6  0  0  0
  4  5  1  0  0  0  0
  5  6  1  1  0  0  0
  6  7  1  0  0  0  0
  7  8  1  6  0  0  0
  8  9  1  0  0  0  0
  7 10  1  0  0  0  0
 10 11  1  1  0  0  0
 10 12  1  0  0  0  0
  4 12  1  0  0  0  0
 12 13  1  6  0  0  0
  5 14  1  0  0  0  0
 14 15  1  0  0  0  0
 15 16  1  0  0  0  0
 15 17  2  0  0  0  0
 17 18  1  0  0  0  0
 18 19  1  0  0  0  0
 17 20  1  0  0  0  0
 20 21  1  0  0  0  0
 20 22  2  0  0  0  0
 22 23  1  0  0  0  0
 14 23  2  0  0  0  0
  2 23  1  0  0  0  0
M  END
>  <cdx:fragmentId>
2553

$$$$
