20145.cdx
  Mrv1902 05222410202D          

 22 24  0  0  0  0            999 V2000
    3.8412   -9.7556    0.0000 C   0  0  0  0  0  0  0  0  0  0  0  0
    4.5556  -10.1681    0.0000 C   0  0  0  0  0  0  0  0  0  0  0  0
    5.2701   -9.7556    0.0000 C   0  0  0  0  0  0  0  0  0  0  0  0
    5.2701   -8.9306    0.0000 C   0  0  0  0  0  0  0  0  0  0  0  0
    4.5556   -8.5181    0.0000 O   0  0  0  0  0  0  0  0  0  0  0  0
    5.9846  -10.1681    0.0000 C   0  0  0  0  0  0  0  0  0  0  0  0
    6.6991   -9.7556    0.0000 C   0  0  0  0  0  0  0  0  0  0  0  0
    6.6991   -8.9306    0.0000 C   0  0  0  0  0  0  0  0  0  0  0  0
    5.9846   -8.5181    0.0000 C   0  0  0  0  0  0  0  0  0  0  0  0
    7.4135  -10.1681    0.0000 C   0  0  0  0  0  0  0  0  0  0  0  0
    8.1280   -9.7556    0.0000 C   0  0  0  0  0  0  0  0  0  0  0  0
    8.1280   -8.9306    0.0000 C   0  0  0  0  0  0  0  0  0  0  0  0
    7.4135   -8.5181    0.0000 C   0  0  0  0  0  0  0  0  0  0  0  0
    7.4135   -7.6931    0.0000 C   0  0  0  0  0  0  0  0  0  0  0  0
    6.6991   -7.2806    0.0000 O   0  0  0  0  0  0  0  0  0  0  0  0
    5.9846   -7.6931    0.0000 O   0  0  0  0  0  0  0  0  0  0  0  0
    8.8425   -8.5181    0.0000 C   0  0  0  0  0  0  0  0  0  0  0  0
    8.8425   -7.6931    0.0000 C   0  0  0  0  0  0  0  0  0  0  0  0
    8.1280   -7.2806    0.0000 C   0  0  0  0  0  0  0  0  0  0  0  0
    4.5556  -10.9931    0.0000 C   0  0  0  0  0  0  0  0  0  0  0  0
    9.6675   -8.5181    0.0000 C   0  0  0  0  0  0  0  0  0  0  0  0
    9.2550   -9.2326    0.0000 C   0  0  0  0  0  0  0  0  0  0  0  0
  1  2  1  0  0  0  0
  2  3  1  0  0  0  0
  3  4  2  0  0  0  0
  4  5  1  0  0  0  0
  3  6  1  0  0  0  0
  6  7  2  0  0  0  0
  7  8  1  0  0  0  0
  8  9  2  0  0  0  0
  9  4  1  0  0  0  0
  7 10  1  0  0  0  0
 10 11  2  0  0  0  0
 11 12  1  0  0  0  0
 12 13  2  0  0  0  0
 13  8  1  0  0  0  0
 13 14  1  0  0  0  0
 14 15  2  0  0  0  0
 16  9  1  0  0  0  0
 12 17  1  0  0  0  0
 17 18  1  0  0  0  0
 18 19  1  0  0  0  0
 19 14  1  0  0  0  0
  2 20  1  0  0  0  0
 17 21  1  0  0  0  0
 17 22  1  0  0  0  0
M  END
>  <cdx:fragmentId>
5

$$$$
