20140.cdx
  Mrv1902 05222410232D          

  5  4  0  0  0  0            999 V2000
    7.7509   -7.5281    0.0000 C   0  0  0  0  0  0  0  0  0  0  0  0
    7.0365   -7.1156    0.0000 C   0  0  0  0  0  0  0  0  0  0  0  0
    6.3220   -7.5281    0.0000 C   0  0  0  0  0  0  0  0  0  0  0  0
    5.6075   -7.1156    0.0000 N   0  0  0  0  0  0  0  0  0  0  0  0
    6.3220   -8.3531    0.0000 C   0  0  0  0  0  0  0  0  0  0  0  0
  2  1  1  0  0  0  0
  3  2  1  0  0  0  0
  4  3  1  0  0  0  0
  3  5  1  0  0  0  0
M  END
>  <cdx:fragmentId>
3

$$$$
