20149.cdx
  Mrv1902 05222410252D          

 40 39  0  0  0  0            999 V2000
    0.5631   -3.0937    0.0000 C   0  0  0  0  0  0  0  0  0  0  0  0
    1.2775   -2.6812    0.0000 C   0  0  0  0  0  0  0  0  0  0  0  0
    1.9920   -3.0937    0.0000 C   0  0  0  0  0  0  0  0  0  0  0  0
    2.7065   -2.6812    0.0000 C   0  0  0  0  0  0  0  0  0  0  0  0
    3.4209   -3.0937    0.0000 C   0  0  0  0  0  0  0  0  0  0  0  0
    4.1354   -2.6812    0.0000 C   0  0  0  0  0  0  0  0  0  0  0  0
    4.8499   -3.0937    0.0000 C   0  0  0  0  0  0  0  0  0  0  0  0
    5.5644   -2.6812    0.0000 C   0  0  0  0  0  0  0  0  0  0  0  0
    6.2788   -3.0937    0.0000 C   0  0  0  0  0  0  0  0  0  0  0  0
    6.9933   -2.6812    0.0000 C   0  0  0  0  0  0  0  0  0  0  0  0
    7.7078   -3.0937    0.0000 C   0  0  0  0  0  0  0  0  0  0  0  0
    8.4222   -2.6812    0.0000 C   0  0  0  0  0  0  0  0  0  0  0  0
    9.1367   -3.0937    0.0000 C   0  0  0  0  0  0  0  0  0  0  0  0
    9.8512   -2.6812    0.0000 C   0  0  0  0  0  0  0  0  0  0  0  0
   10.5657   -3.0937    0.0000 C   0  0  0  0  0  0  0  0  0  0  0  0
   11.2801   -2.6812    0.0000 C   0  0  0  0  0  0  0  0  0  0  0  0
   11.9946   -3.0937    0.0000 C   0  0  0  0  0  0  0  0  0  0  0  0
   12.7091   -2.6812    0.0000 C   0  0  0  0  0  0  0  0  0  0  0  0
   13.4235   -3.0937    0.0000 C   0  0  0  0  0  0  0  0  0  0  0  0
   14.1380   -2.6812    0.0000 C   0  0  0  0  0  0  0  0  0  0  0  0
   14.8525   -3.0938    0.0000 C   0  0  0  0  0  0  0  0  0  0  0  0
   15.5670   -2.6812    0.0000 C   0  0  0  0  0  0  0  0  0  0  0  0
   16.2814   -3.0938    0.0000 C   0  0  0  0  0  0  0  0  0  0  0  0
   16.9959   -2.6812    0.0000 C   0  0  0  0  0  0  0  0  0  0  0  0
   17.7104   -3.0938    0.0000 C   0  0  0  0  0  0  0  0  0  0  0  0
   18.4248   -2.6812    0.0000 C   0  0  0  0  0  0  0  0  0  0  0  0
   19.1393   -3.0938    0.0000 C   0  0  0  0  0  0  0  0  0  0  0  0
   19.8538   -2.6812    0.0000 C   0  0  0  0  0  0  0  0  0  0  0  0
   20.5683   -3.0938    0.0000 C   0  0  0  0  0  0  0  0  0  0  0  0
   21.2827   -2.6812    0.0000 C   0  0  0  0  0  0  0  0  0  0  0  0
   21.9972   -3.0938    0.0000 C   0  0  0  0  0  0  0  0  0  0  0  0
   22.7117   -2.6812    0.0000 C   0  0  0  0  0  0  0  0  0  0  0  0
   23.4261   -3.0938    0.0000 C   0  0  0  0  0  0  0  0  0  0  0  0
   24.1406   -2.6812    0.0000 C   0  0  0  0  0  0  0  0  0  0  0  0
   24.8551   -3.0938    0.0000 C   0  0  0  0  0  0  0  0  0  0  0  0
   25.5695   -2.6812    0.0000 C   0  0  0  0  0  0  0  0  0  0  0  0
   26.2840   -3.0938    0.0000 C   0  0  0  0  0  0  0  0  0  0  0  0
   26.9985   -2.6812    0.0000 C   0  0  0  0  0  0  0  0  0  0  0  0
   27.7130   -3.0938    0.0000 C   0  0  0  0  0  0  0  0  0  0  0  0
   28.4274   -2.6812    0.0000 C   0  0  0  0  0  0  0  0  0  0  0  0
  1  2  1  0  0  0  0
  2  3  1  0  0  0  0
  3  4  1  0  0  0  0
  4  5  1  0  0  0  0
  5  6  1  0  0  0  0
  6  7  1  0  0  0  0
  7  8  1  0  0  0  0
  8  9  1  0  0  0  0
  9 10  1  0  0  0  0
 10 11  1  0  0  0  0
 11 12  1  0  0  0  0
 12 13  1  0  0  0  0
 13 14  1  0  0  0  0
 14 15  1  0  0  0  0
 15 16  1  0  0  0  0
 16 17  1  0  0  0  0
 17 18  1  0  0  0  0
 18 19  1  0  0  0  0
 19 20  1  0  0  0  0
 20 21  1  0  0  0  0
 21 22  1  0  0  0  0
 22 23  1  0  0  0  0
 23 24  1  0  0  0  0
 24 25  1  0  0  0  0
 25 26  1  0  0  0  0
 26 27  1  0  0  0  0
 27 28  1  0  0  0  0
 28 29  1  0  0  0  0
 29 30  1  0  0  0  0
 30 31  1  0  0  0  0
 31 32  1  0  0  0  0
 32 33  1  0  0  0  0
 33 34  1  0  0  0  0
 34 35  1  0  0  0  0
 35 36  1  0  0  0  0
 36 37  1  0  0  0  0
 37 38  1  0  0  0  0
 38 39  1  0  0  0  0
 39 40  1  0  0  0  0
M  END
>  <cdx:groupId>
121

>  <cdx:fragmentId>
5

$$$$
