20143.cdx
  Mrv1902 05222410222D          

 14 14  0  0  0  0            999 V2000
    5.4624   -6.6510    0.0000 C   0  0  0  0  0  0  0  0  0  0  0  0
    6.1717   -7.0723    0.0000 C   0  0  0  0  0  0  0  0  0  0  0  0
    6.8912   -6.6686    0.0000 C   0  0  0  0  0  0  0  0  0  0  0  0
    6.9014   -5.8437    0.0000 C   0  0  0  0  0  0  0  0  0  0  0  0
    6.1920   -5.4224    0.0000 C   0  0  0  0  0  0  0  0  0  0  0  0
    5.4725   -5.8261    0.0000 C   0  0  0  0  0  0  0  0  0  0  0  0
    4.7429   -7.0547    0.0000 O   0  0  0  0  0  0  0  0  0  0  0  0
    4.7632   -5.4048    0.0000 O   0  0  0  0  0  0  0  0  0  0  0  0
    7.6209   -5.4400    0.0000 C   0  0  0  0  0  0  0  0  0  0  0  0
    8.3302   -5.8612    0.0000 C   0  0  2  0  0  0  0  0  0  0  0  0
    9.0497   -5.4576    0.0000 C   0  0  0  0  0  0  0  0  0  0  0  0
    9.7590   -5.8788    0.0000 O   0  0  0  0  0  0  0  0  0  0  0  0
    9.0598   -4.6326    0.0000 O   0  0  0  0  0  0  0  0  0  0  0  0
    8.3200   -6.6862    0.0000 O   0  0  0  0  0  0  0  0  0  0  0  0
  1  2  2  0  0  0  0
  2  3  1  0  0  0  0
  3  4  2  0  0  0  0
  4  5  1  0  0  0  0
  5  6  2  0  0  0  0
  6  1  1  0  0  0  0
  1  7  1  0  0  0  0
  6  8  1  0  0  0  0
  4  9  1  0  0  0  0
  9 10  1  0  0  0  0
 10 11  1  0  0  0  0
 11 12  1  0  0  0  0
 11 13  2  0  0  0  0
 10 14  1  6  0  0  0
M  END
>  <cdx:fragmentId>
5

$$$$
