201457.cdx
  Mrv1902 05222410182D          

 79 86  0  0  0  0            999 V2000
   16.9288   -4.9060    0.0000 O   0  0  0  0  0  0  0  0  0  0  0  0
   16.9278   -5.7278    0.0000 C   0  0  0  0  0  0  0  0  0  0  0  0
   16.2317   -6.9757    0.0000 O   0  0  0  0  0  0  0  0  0  0  0  0
   16.2195   -6.1508    0.0000 C   0  0  1  0  0  0  0  0  0  0  0  0
   15.4991   -5.7489    0.0000 C   0  0  2  0  0  0  0  0  0  0  0  0
   14.7907   -6.1718    0.0000 C   0  0  1  0  0  0  0  0  0  0  0  0
   14.8029   -6.9968    0.0000 C   0  0  2  0  0  0  0  0  0  0  0  0
   15.5234   -7.3987    0.0000 C   0  0  2  0  0  0  0  0  0  0  0  0
   14.0946   -7.4197    0.0000 O   0  0  0  0  0  0  0  0  0  0  0  0
   14.0703   -5.7699    0.0000 O   0  0  0  0  0  0  0  0  0  0  0  0
   15.4869   -4.9240    0.0000 O   0  0  0  0  0  0  0  0  0  0  0  0
   15.5511   -8.2232    0.0000 O   0  0  0  0  0  0  0  0  0  0  0  0
   16.1179   -8.8072    0.0000 C   0  0  2  0  0  0  0  0  0  0  0  0
   12.2204  -10.6718    0.0000 C   0  0  0  0  0  0  0  0  0  0  0  0
   11.5060  -11.0843    0.0000 C   0  0  0  0  0  0  0  0  0  0  0  0
   11.5060  -11.9093    0.0000 C   0  0  1  0  0  0  0  0  0  0  0  0
   12.2204  -12.3218    0.0000 C   0  0  0  0  0  0  0  0  0  0  0  0
   12.9349  -11.9093    0.0000 C   0  0  0  0  0  0  0  0  0  0  0  0
   13.6494  -12.3218    0.0000 C   0  0  0  0  0  0  0  0  0  0  0  0
   14.3638  -11.9093    0.0000 C   0  0  1  0  0  0  0  0  0  0  0  0
   14.3638  -11.0843    0.0000 C   0  0  1  0  0  0  0  0  0  0  0  0
   15.0783  -10.6718    0.0000 C   0  0  2  0  0  0  0  0  0  0  0  0
   15.8629  -10.9267    0.0000 C   0  0  0  0  0  0  0  0  0  0  0  0
   16.3479  -10.2593    0.0000 C   0  0  0  0  0  0  0  0  0  0  0  0
   15.8629   -9.5919    0.0000 C   0  0  1  0  0  0  0  0  0  0  0  0
   15.0783   -9.8468    0.0000 C   0  0  1  0  0  0  0  0  0  0  0  0
   14.3638   -9.4343    0.0000 C   0  0  1  0  0  0  0  0  0  0  0  0
   13.6494   -9.8468    0.0000 C   0  0  0  0  0  0  0  0  0  0  0  0
   13.6494  -10.6718    0.0000 C   0  0  2  0  0  0  0  0  0  0  0  0
   12.9349  -11.0843    0.0000 C   0  0  1  0  0  0  0  0  0  0  0  0
   15.0783  -11.4968    0.0000 C   0  0  0  0  0  0  0  0  0  0  0  0
   12.9349  -10.2593    0.0000 C   0  0  0  0  0  0  0  0  0  0  0  0
   14.3638  -10.2593    0.0000 C   0  0  0  0  0  0  0  0  0  0  0  0
   12.6329  -13.0363    0.0000 C   0  0  0  0  0  0  0  0  0  0  0  0
   11.8079  -13.0363    0.0000 C   0  0  0  0  0  0  0  0  0  0  0  0
   14.3638   -8.6093    0.0000 O   0  0  0  0  0  0  0  0  0  0  0  0
   10.7915  -12.3218    0.0000 O   0  0  0  0  0  0  0  0  0  0  0  0
   13.6494  -11.4968    0.0000 H   0  0  0  0  0  0  0  0  0  0  0  0
   15.1646   -9.0263    0.0000 H   0  0  0  0  0  0  0  0  0  0  0  0
   16.6778   -9.4628    0.0000 H   0  0  0  0  0  0  0  0  0  0  0  0
   16.9249   -8.6357    0.0000 C   0  0  0  0  0  0  0  0  0  0  0  0
   17.4769   -9.2488    0.0000 C   0  0  0  0  0  0  0  0  0  0  0  0
   18.2839   -9.0773    0.0000 C   0  0  0  0  0  0  0  0  0  0  0  0
   18.8359   -9.6904    0.0000 C   0  0  0  0  0  0  0  0  0  0  0  0
   19.6429   -9.5189    0.0000 C   0  0  0  0  0  0  0  0  0  0  0  0
   18.5810  -10.4750    0.0000 C   0  0  0  0  0  0  0  0  0  0  0  0
   16.3728   -8.0226    0.0000 C   0  0  0  0  0  0  0  0  0  0  0  0
   10.0637  -11.9041    0.0000 C   0  0  2  0  0  0  0  0  0  0  0  0
   10.0677  -11.0791    0.0000 O   0  0  0  0  0  0  0  0  0  0  0  0
    9.3552  -10.6632    0.0000 C   0  0  1  0  0  0  0  0  0  0  0  0
    8.6388  -11.0722    0.0000 C   0  0  2  0  0  0  0  0  0  0  0  0
    8.6348  -11.8972    0.0000 C   0  0  1  0  0  0  0  0  0  0  0  0
    9.3473  -12.3132    0.0000 C   0  0  1  0  0  0  0  0  0  0  0  0
    9.3592   -9.8382    0.0000 C   0  0  0  0  0  0  0  0  0  0  0  0
    7.9184  -12.3063    0.0000 O   0  0  0  0  0  0  0  0  0  0  0  0
    7.9263  -10.6563    0.0000 O   0  0  0  0  0  0  0  0  0  0  0  0
    9.3433  -13.1382    0.0000 O   0  0  0  0  0  0  0  0  0  0  0  0
    8.6467   -9.4223    0.0000 O   0  0  0  0  0  0  0  0  0  0  0  0
    8.6268  -13.5472    0.0000 C   0  0  2  0  0  0  0  0  0  0  0  0
    7.9144  -13.1313    0.0000 O   0  0  0  0  0  0  0  0  0  0  0  0
    7.1979  -13.5403    0.0000 C   0  0  1  0  0  0  0  0  0  0  0  0
    7.1939  -14.3653    0.0000 C   0  0  2  0  0  0  0  0  0  0  0  0
    7.9064  -14.7813    0.0000 C   0  0  1  0  0  0  0  0  0  0  0  0
    8.6229  -14.3722    0.0000 C   0  0  1  0  0  0  0  0  0  0  0  0
    6.4775  -14.7744    0.0000 O   0  0  0  0  0  0  0  0  0  0  0  0
    7.9024  -15.6062    0.0000 O   0  0  0  0  0  0  0  0  0  0  0  0
    6.4854  -13.1244    0.0000 C   0  0  0  0  0  0  0  0  0  0  0  0
    9.3353  -14.7882    0.0000 O   0  0  0  0  0  0  0  0  0  0  0  0
   17.6437   -4.4943    0.0000 C   0  0  2  0  0  0  0  0  0  0  0  0
   18.3572   -4.9084    0.0000 O   0  0  0  0  0  0  0  0  0  0  0  0
   19.0726   -4.4943    0.0000 C   0  0  0  0  0  0  0  0  0  0  0  0
   19.0726   -3.6693    0.0000 C   0  0  2  0  0  0  0  0  0  0  0  0
   18.3572   -3.2552    0.0000 C   0  0  1  0  0  0  0  0  0  0  0  0
   17.6437   -3.6693    0.0000 C   0  0  1  0  0  0  0  0  0  0  0  0
   18.3568   -2.4302    0.0000 O   0  0  0  0  0  0  0  0  0  0  0  0
   19.7873   -3.2572    0.0000 O   0  0  0  0  0  0  0  0  0  0  0  0
   16.9288   -3.2576    0.0000 O   0  0  0  0  0  0  0  0  0  0  0  0
   15.0783  -12.3218    0.0000 O   0  0  0  0  0  0  0  0  0  0  0  0
    5.7690  -13.5334    0.0000 O   0  0  0  0  0  0  0  0  0  0  0  0
  3  4  1  0  0  0  0
  4  5  1  0  0  0  0
  5  6  1  0  0  0  0
  6  7  1  0  0  0  0
  7  8  1  0  0  0  0
  3  8  1  0  0  0  0
  7  9  1  6  0  0  0
  6 10  1  1  0  0  0
  5 11  1  6  0  0  0
 14 15  1  0  0  0  0
 15 16  1  0  0  0  0
 16 17  1  0  0  0  0
 17 18  1  0  0  0  0
 18 19  2  0  0  0  0
 19 20  1  0  0  0  0
 20 21  1  0  0  0  0
 21 22  1  0  0  0  0
 22 23  1  0  0  0  0
 23 24  1  0  0  0  0
 25 24  1  0  0  0  0
 25 26  1  0  0  0  0
 22 26  1  0  0  0  0
 26 27  1  0  0  0  0
 27 28  1  0  0  0  0
 28 29  1  0  0  0  0
 21 29  1  0  0  0  0
 29 30  1  0  0  0  0
 18 30  1  0  0  0  0
 14 30  1  0  0  0  0
 22 31  1  6  0  0  0
 30 32  1  1  0  0  0
 21 33  1  1  0  0  0
 17 34  1  0  0  0  0
 17 35  1  0  0  0  0
 27 36  1  1  0  0  0
 16 37  1  1  0  0  0
 13 25  1  0  0  0  0
  8 12  1  1  0  0  0
  4  2  1  1  0  0  0
 29 38  1  6  0  0  0
 26 39  1  1  0  0  0
 25 40  1  6  0  0  0
  1  2  1  0  0  0  0
 13 41  1  0  0  0  0
 41 42  1  0  0  0  0
 42 43  1  0  0  0  0
 43 44  2  0  0  0  0
 44 45  1  0  0  0  0
 44 46  1  0  0  0  0
 13 47  1  6  0  0  0
 13 12  1  1  0  0  0
 48 49  1  0  0  0  0
 49 50  1  0  0  0  0
 50 51  1  0  0  0  0
 51 52  1  0  0  0  0
 52 53  1  0  0  0  0
 53 48  1  0  0  0  0
 50 54  1  1  0  0  0
 52 55  1  1  0  0  0
 51 56  1  6  0  0  0
 53 57  1  6  0  0  0
 54 58  1  0  0  0  0
 59 57  1  1  0  0  0
 59 60  1  0  0  0  0
 60 61  1  0  0  0  0
 61 62  1  0  0  0  0
 62 63  1  0  0  0  0
 63 64  1  0  0  0  0
 64 59  1  0  0  0  0
 62 65  1  6  0  0  0
 63 66  1  1  0  0  0
 61 67  1  1  0  0  0
 64 68  1  6  0  0  0
 69  1  1  1  0  0  0
 69 70  1  0  0  0  0
 70 71  1  0  0  0  0
 71 72  1  0  0  0  0
 72 73  1  0  0  0  0
 73 74  1  0  0  0  0
 74 69  1  0  0  0  0
 73 75  1  1  0  0  0
 72 76  1  6  0  0  0
 74 77  1  6  0  0  0
 20 78  1  1  0  0  0
 67 79  1  0  0  0  0
 48 37  1  1  0  0  0
M  END
>  <cdx:fragmentId>
31943

$$$$
