20142.cdx
  Mrv1902 05222410222D          

  8  7  0  0  0  0            999 V2000
    4.2324   -8.1051    0.0000 C   0  0  0  0  0  0  0  0  0  0  0  0
    4.9469   -7.6926    0.0000 C   0  0  0  0  0  0  0  0  0  0  0  0
    5.6614   -8.1051    0.0000 C   0  0  0  0  0  0  0  0  0  0  0  0
    6.3758   -7.6926    0.0000 C   0  0  0  0  0  0  0  0  0  0  0  0
    7.0903   -8.1051    0.0000 C   0  0  0  0  0  0  0  0  0  0  0  0
    7.8048   -7.6926    0.0000 C   0  0  0  0  0  0  0  0  0  0  0  0
    8.5192   -8.1051    0.0000 N   0  0  0  0  0  0  0  0  0  0  0  0
    7.8048   -6.8676    0.0000 C   0  0  0  0  0  0  0  0  0  0  0  0
  2  1  1  0  0  0  0
  3  2  1  0  0  0  0
  4  3  1  0  0  0  0
  5  4  1  0  0  0  0
  6  5  1  0  0  0  0
  7  6  1  0  0  0  0
  6  8  1  0  0  0  0
M  END
>  <cdx:fragmentId>
3

$$$$
