2014.cdx
  Mrv1902 05222410202D          

 34 38  0  0  0  0            999 V2000
    5.2824   -7.7323    0.0000 C   0  0  0  0  0  0  0  0  0  0  0  0
    4.5643   -8.1385    0.0000 C   0  0  0  0  0  0  0  0  0  0  0  0
    4.5571   -8.9635    0.0000 C   0  0  0  0  0  0  0  0  0  0  0  0
    5.2679   -9.3822    0.0000 C   0  0  0  0  0  0  0  0  0  0  0  0
    5.9860   -8.9760    0.0000 C   0  0  0  0  0  0  0  0  0  0  0  0
    5.9932   -8.1511    0.0000 C   0  0  0  0  0  0  0  0  0  0  0  0
    6.7113   -7.7448    0.0000 C   0  0  0  0  0  0  0  0  0  0  0  0
    6.7185   -6.9199    0.0000 C   0  0  0  0  0  0  0  0  0  0  0  0
    6.0077   -6.5011    0.0000 O   0  0  0  0  0  0  0  0  0  0  0  0
    5.2896   -6.9073    0.0000 C   0  0  0  0  0  0  0  0  0  0  0  0
    6.6968   -9.3948    0.0000 O   0  0  0  0  0  0  0  0  0  0  0  0
    7.4149   -8.9886    0.0000 C   0  0  0  0  0  0  0  0  0  0  0  0
    7.4221   -8.1636    0.0000 C   0  0  0  0  0  0  0  0  0  0  0  0
    8.1402   -7.7574    0.0000 C   0  0  0  0  0  0  0  0  0  0  0  0
    8.1474   -6.9324    0.0000 C   0  0  0  0  0  0  0  0  0  0  0  0
    7.4366   -6.5137    0.0000 C   0  0  0  0  0  0  0  0  0  0  0  0
    9.3460   -8.3136    0.0000 C   0  0  0  0  0  0  0  0  0  0  0  0
   10.0641   -7.9074    0.0000 C   0  0  0  0  0  0  0  0  0  0  0  0
   10.0713   -7.0825    0.0000 C   0  0  0  0  0  0  0  0  0  0  0  0
    8.8619   -6.5199    0.0000 O   0  0  0  0  0  0  0  0  0  0  0  0
    9.3388   -9.1386    0.0000 C   0  0  0  0  0  0  0  0  0  0  0  0
   10.0496   -9.5574    0.0000 C   0  0  0  0  0  0  0  0  0  0  0  0
   10.7676   -9.1512    0.0000 C   0  0  0  0  0  0  0  0  0  0  0  0
   10.7749   -8.3262    0.0000 C   0  0  0  0  0  0  0  0  0  0  0  0
    4.5788   -6.4886    0.0000 O   0  0  0  0  0  0  0  0  0  0  0  0
    3.8390   -9.3697    0.0000 O   0  0  0  0  0  0  0  0  0  0  0  0
    5.2607  -10.2072    0.0000 O   0  0  0  0  0  0  0  0  0  0  0  0
    8.1257   -9.4073    0.0000 O   0  0  0  0  0  0  0  0  0  0  0  0
    7.4438   -5.6887    0.0000 O   0  0  0  0  0  0  0  0  0  0  0  0
   10.7894   -6.6762    0.0000 O   0  0  0  0  0  0  0  0  0  0  0  0
    9.3605   -6.6637    0.0000 O   0  0  0  0  0  0  0  0  0  0  0  0
   11.4785   -9.5699    0.0000 O   0  0  0  0  0  0  0  0  0  0  0  0
   10.0423  -10.3823    0.0000 O   0  0  0  0  0  0  0  0  0  0  0  0
    8.7554   -9.7220    0.0000 O   0  0  0  0  0  0  0  0  0  0  0  0
  1  2  1  0  0  0  0
  2  3  2  0  0  0  0
  3  4  1  0  0  0  0
  4  5  2  0  0  0  0
  5  6  1  0  0  0  0
  6  1  2  0  0  0  0
  6  7  1  0  0  0  0
  7  8  1  0  0  0  0
  8  9  1  0  0  0  0
  9 10  1  0  0  0  0
 10  1  1  0  0  0  0
  5 11  1  0  0  0  0
 11 12  1  0  0  0  0
 12 13  1  0  0  0  0
 13  7  2  0  0  0  0
 13 14  1  0  0  0  0
 14 15  2  0  0  0  0
 15 16  1  0  0  0  0
 16  8  2  0  0  0  0
 14 17  1  0  0  0  0
 17 18  1  0  0  0  0
 18 19  1  0  0  0  0
 20 15  1  0  0  0  0
 17 21  2  0  0  0  0
 21 22  1  0  0  0  0
 22 23  2  0  0  0  0
 23 24  1  0  0  0  0
 24 18  2  0  0  0  0
 10 25  2  0  0  0  0
  3 26  1  0  0  0  0
  4 27  1  0  0  0  0
 12 28  2  0  0  0  0
 16 29  1  0  0  0  0
 19 30  1  0  0  0  0
 19 31  2  0  0  0  0
 23 32  1  0  0  0  0
 22 33  1  0  0  0  0
 21 34  1  0  0  0  0
M  END
>  <cdx:fragmentId>
5

$$$$
