20153.cdx
  Mrv1902 05222410212D          

 25 28  0  0  0  0            999 V2000
    7.4131   -6.0796    0.0000 C   0  0  0  0  0  0  0  0  0  0  0  0
    8.5780   -5.8999    0.0000 O   0  0  0  0  0  0  0  0  0  0  0  0
   10.1536   -6.3900    0.0000 O   0  0  0  0  0  0  0  0  0  0  0  0
    4.3003   -7.9848    0.0000 O   0  0  0  0  0  0  0  0  0  0  0  0
    6.8505  -10.1871    0.0000 O   0  0  0  0  0  0  0  0  0  0  0  0
    5.6703   -9.1307    0.0000 O   0  0  0  0  0  0  0  0  0  0  0  0
    6.5627   -9.4140    0.0000 C   0  0  0  0  0  0  0  0  0  0  0  0
    9.1231   -8.3141    0.0000 C   0  0  0  0  0  0  0  0  0  0  0  0
    9.7291   -7.7544    0.0000 C   0  0  0  0  0  0  0  0  0  0  0  0
    9.5475   -6.9497    0.0000 C   0  0  0  0  0  0  0  0  0  0  0  0
    8.7597   -6.7046    0.0000 C   0  0  0  0  0  0  0  0  0  0  0  0
    6.9944   -8.7109    0.0000 C   0  0  0  0  0  0  0  0  0  0  0  0
    7.8194   -8.7129    0.0000 C   0  0  0  0  0  0  0  0  0  0  0  0
    8.3353   -8.0691    0.0000 C   0  0  0  0  0  0  0  0  0  0  0  0
    8.1536   -7.2644    0.0000 C   0  0  0  0  0  0  0  0  0  0  0  0
    7.4112   -6.9046    0.0000 C   0  0  1  0  0  0  0  0  0  0  0  0
    6.6670   -7.2608    0.0000 C   0  0  0  0  0  0  0  0  0  0  0  0
    6.0636   -6.6983    0.0000 C   0  0  0  0  0  0  0  0  0  0  0  0
    5.2746   -6.9396    0.0000 C   0  0  0  0  0  0  0  0  0  0  0  0
    5.0892   -7.7435    0.0000 C   0  0  0  0  0  0  0  0  0  0  0  0
    5.6926   -8.3060    0.0000 C   0  0  0  0  0  0  0  0  0  0  0  0
    6.4815   -8.0647    0.0000 C   0  0  0  0  0  0  0  0  0  0  0  0
    6.6996   -5.6655    0.0000 C   0  0  0  0  0  0  0  0  0  0  0  0
    6.7016   -4.8405    0.0000 O   0  0  0  0  0  0  0  0  0  0  0  0
    5.9842   -6.0763    0.0000 O   0  0  0  0  0  0  0  0  0  0  0  0
 16  1  1  1  0  0  0
 11  2  1  0  0  0  0
 10  3  1  0  0  0  0
 20  4  1  0  0  0  0
  7  5  2  0  0  0  0
  7  6  1  0  0  0  0
 21  6  1  0  0  0  0
 12  7  1  0  0  0  0
  8 14  1  0  0  0  0
  9  8  2  0  0  0  0
 10  9  1  0  0  0  0
 11 10  2  0  0  0  0
 15 11  1  0  0  0  0
 12 22  1  0  0  0  0
 13 12  2  0  0  0  0
 14 13  1  0  0  0  0
 15 14  2  0  0  0  0
 16 15  1  0  0  0  0
 17 16  1  0  0  0  0
 17 22  1  0  0  0  0
 18 17  2  0  0  0  0
 19 18  1  0  0  0  0
 20 19  2  0  0  0  0
 21 20  1  0  0  0  0
 22 21  2  0  0  0  0
  1 23  1  0  0  0  0
 23 24  2  0  0  0  0
 23 25  1  0  0  0  0
M  END
>  <cdx:fragmentId>
105

$$$$
