20158.cdx
  Mrv1902 05222410232D          

 23 25  0  0  0  0            999 V2000
    5.7561   -9.9457    0.0000 C   0  0  0  0  0  0  0  0  0  0  0  0
    4.9312   -9.9393    0.0000 C   0  0  0  0  0  0  0  0  0  0  0  0
    5.3682   -6.7531    0.0000 O   0  0  0  0  0  0  0  0  0  0  0  0
    8.9309   -8.0182    0.0000 O   0  0  0  0  0  0  0  0  0  0  0  0
    6.0859   -6.3462    0.0000 O   0  0  0  0  0  0  0  0  0  0  0  0
    7.5211   -5.5322    0.0000 O   0  0  0  0  0  0  0  0  0  0  0  0
    8.9500   -5.5432    0.0000 C   0  0  0  0  0  0  0  0  0  0  0  0
    9.6549   -6.7862    0.0000 C   0  0  0  0  0  0  0  0  0  0  0  0
    8.9437   -6.3682    0.0000 C   0  0  0  0  0  0  0  0  0  0  0  0
    5.3619   -7.5781    0.0000 C   0  0  0  0  0  0  0  0  0  0  0  0
    4.6443   -7.9851    0.0000 C   0  0  0  0  0  0  0  0  0  0  0  0
    4.6379   -8.8101    0.0000 C   0  0  0  0  0  0  0  0  0  0  0  0
    5.3492   -9.2281    0.0000 C   0  0  0  0  0  0  0  0  0  0  0  0
    6.0732   -7.9961    0.0000 C   0  0  0  0  0  0  0  0  0  0  0  0
    6.0668   -8.8211    0.0000 C   0  0  0  0  0  0  0  0  0  0  0  0
    6.7781   -9.2391    0.0000 C   0  0  0  0  0  0  0  0  0  0  0  0
    7.4957   -8.8321    0.0000 C   0  0  0  0  0  0  0  0  0  0  0  0
    6.7971   -6.7642    0.0000 C   0  0  0  0  0  0  0  0  0  0  0  0
    6.7908   -7.5891    0.0000 C   0  0  0  0  0  0  0  0  0  0  0  0
    7.5020   -8.0071    0.0000 C   0  0  0  0  0  0  0  0  0  0  0  0
    8.2197   -7.6002    0.0000 C   0  0  0  0  0  0  0  0  0  0  0  0
    8.2260   -6.7752    0.0000 C   0  0  0  0  0  0  0  0  0  0  0  0
    7.5148   -6.3572    0.0000 C   0  0  0  0  0  0  0  0  0  0  0  0
 13  1  1  0  0  0  0
 13  2  1  0  0  0  0
 10  3  2  0  0  0  0
 21  4  1  0  0  0  0
 18  5  2  0  0  0  0
 23  6  2  0  0  0  0
  9  7  1  0  0  0  0
  9  8  1  0  0  0  0
 22  9  1  0  0  0  0
 10 14  1  0  0  0  0
 11 10  1  0  0  0  0
 12 11  1  0  0  0  0
 13 12  1  0  0  0  0
 15 13  1  0  0  0  0
 14 19  1  0  0  0  0
 15 14  2  0  0  0  0
 16 15  1  0  0  0  0
 17 16  2  0  0  0  0
 20 17  1  0  0  0  0
 18 23  1  0  0  0  0
 19 18  1  0  0  0  0
 20 19  2  0  0  0  0
 21 20  1  0  0  0  0
 22 21  2  0  0  0  0
 23 22  1  0  0  0  0
M  END
>  <cdx:fragmentId>
5

$$$$
