20159.cdx
  Mrv1902 05222410232D          

 23 26  0  0  0  0            999 V2000
    3.7381   -7.5075    0.0000 C   0  0  0  0  0  0  0  0  0  0  0  0
    3.7381   -8.3325    0.0000 C   0  0  0  0  0  0  0  0  0  0  0  0
    4.4525   -8.7450    0.0000 C   0  0  0  0  0  0  0  0  0  0  0  0
    5.1670   -8.3325    0.0000 C   0  0  0  0  0  0  0  0  0  0  0  0
    5.1670   -7.5075    0.0000 C   0  0  0  0  0  0  0  0  0  0  0  0
    4.4525   -7.0950    0.0000 C   0  0  0  0  0  0  0  0  0  0  0  0
    5.8815   -8.7450    0.0000 C   0  0  0  0  0  0  0  0  0  0  0  0
    6.5959   -8.3325    0.0000 C   0  0  0  0  0  0  0  0  0  0  0  0
    6.5959   -7.5075    0.0000 C   0  0  0  0  0  0  0  0  0  0  0  0
    5.8815   -7.0950    0.0000 C   0  0  0  0  0  0  0  0  0  0  0  0
    7.3104   -7.0950    0.0000 C   0  0  0  0  0  0  0  0  0  0  0  0
    7.3104   -6.2700    0.0000 C   0  0  0  0  0  0  0  0  0  0  0  0
    6.5959   -5.8575    0.0000 C   0  0  0  0  0  0  0  0  0  0  0  0
    5.8815   -6.2700    0.0000 C   0  0  0  0  0  0  0  0  0  0  0  0
    8.0950   -7.3499    0.0000 O   0  0  0  0  0  0  0  0  0  0  0  0
    8.5800   -6.6825    0.0000 C   0  0  0  0  0  0  0  0  0  0  0  0
    8.0950   -6.0151    0.0000 C   0  0  2  0  0  0  0  0  0  0  0  0
    4.0400   -9.4595    0.0000 C   0  0  0  0  0  0  0  0  0  0  0  0
    4.8650   -9.4595    0.0000 C   0  0  0  0  0  0  0  0  0  0  0  0
    5.8815   -9.5700    0.0000 O   0  0  0  0  0  0  0  0  0  0  0  0
    5.1670   -5.8575    0.0000 O   0  0  0  0  0  0  0  0  0  0  0  0
    6.5959   -5.0325    0.0000 O   0  0  0  0  0  0  0  0  0  0  0  0
    8.3500   -5.2304    0.0000 C   0  0  0  0  0  0  0  0  0  0  0  0
  1  2  1  0  0  0  0
  2  3  1  0  0  0  0
  3  4  1  0  0  0  0
  4  5  1  0  0  0  0
  5  6  1  0  0  0  0
  6  1  1  0  0  0  0
  4  7  2  0  0  0  0
  7  8  1  0  0  0  0
  8  9  2  0  0  0  0
  9 10  1  0  0  0  0
 10  5  2  0  0  0  0
  9 11  1  0  0  0  0
 11 12  2  0  0  0  0
 12 13  1  0  0  0  0
 13 14  1  0  0  0  0
 14 10  1  0  0  0  0
 11 15  1  0  0  0  0
 15 16  1  0  0  0  0
 16 17  1  0  0  0  0
 17 12  1  0  0  0  0
  3 18  1  0  0  0  0
  3 19  1  0  0  0  0
  7 20  1  0  0  0  0
 14 21  2  0  0  0  0
 13 22  2  0  0  0  0
 17 23  1  1  0  0  0
M  END
>  <cdx:fragmentId>
5

$$$$
