20157.cdx
  Mrv1902 05222410222D          

 22 25  0  0  0  0            999 V2000
   10.2118   -8.9822    0.0000 O   0  0  0  0  0  0  0  0  0  0  0  0
    7.1252   -7.0349    0.0000 C   0  0  0  0  0  0  0  0  0  0  0  0
    9.8628   -7.3696    0.0000 O   0  0  0  0  0  0  0  0  0  0  0  0
    3.9955   -8.9122    0.0000 O   0  0  0  0  0  0  0  0  0  0  0  0
    6.5261  -11.1372    0.0000 O   0  0  0  0  0  0  0  0  0  0  0  0
    5.3553  -10.0703    0.0000 O   0  0  0  0  0  0  0  0  0  0  0  0
    6.2451  -10.3615    0.0000 C   0  0  0  0  0  0  0  0  0  0  0  0
    8.8152   -9.2845    0.0000 C   0  0  0  0  0  0  0  0  0  0  0  0
    9.4262   -8.7302    0.0000 C   0  0  0  0  0  0  0  0  0  0  0  0
    9.2517   -7.9239    0.0000 C   0  0  0  0  0  0  0  0  0  0  0  0
    8.4662   -7.6718    0.0000 C   0  0  0  0  0  0  0  0  0  0  0  0
    6.6831   -9.6623    0.0000 C   0  0  0  0  0  0  0  0  0  0  0  0
    7.5080   -9.6716    0.0000 C   0  0  0  0  0  0  0  0  0  0  0  0
    8.0296   -9.0325    0.0000 C   0  0  0  0  0  0  0  0  0  0  0  0
    7.8551   -8.2261    0.0000 C   0  0  0  0  0  0  0  0  0  0  0  0
    7.1159   -7.8598    0.0000 C   0  0  0  0  0  0  0  0  0  0  0  0
    6.3686   -8.2094    0.0000 C   0  0  0  0  0  0  0  0  0  0  0  0
    5.7702   -7.6415    0.0000 C   0  0  0  0  0  0  0  0  0  0  0  0
    4.9792   -7.8758    0.0000 C   0  0  0  0  0  0  0  0  0  0  0  0
    4.7865   -8.6780    0.0000 C   0  0  0  0  0  0  0  0  0  0  0  0
    5.3850   -9.2459    0.0000 C   0  0  0  0  0  0  0  0  0  0  0  0
    6.1760   -9.0116    0.0000 C   0  0  0  0  0  0  0  0  0  0  0  0
  9  1  1  0  0  0  0
 16  2  1  0  0  0  0
 10  3  1  0  0  0  0
 20  4  1  0  0  0  0
  7  5  2  0  0  0  0
  7  6  1  0  0  0  0
 21  6  1  0  0  0  0
 12  7  1  0  0  0  0
  8 14  1  0  0  0  0
  9  8  2  0  0  0  0
 10  9  1  0  0  0  0
 11 10  2  0  0  0  0
 15 11  1  0  0  0  0
 12 22  1  0  0  0  0
 13 12  2  0  0  0  0
 14 13  1  0  0  0  0
 15 14  2  0  0  0  0
 16 15  1  0  0  0  0
 17 16  1  0  0  0  0
 17 22  1  0  0  0  0
 18 17  2  0  0  0  0
 19 18  1  0  0  0  0
 20 19  2  0  0  0  0
 21 20  1  0  0  0  0
 22 21  2  0  0  0  0
M  END
>  <cdx:fragmentId>
5

$$$$
