20152.cdx
  Mrv1902 05222410212D          

 22 25  0  0  0  0            999 V2000
    6.8356   -5.5571    0.0000 C   0  0  0  0  0  0  0  0  0  0  0  0
    8.0005   -5.3774    0.0000 O   0  0  0  0  0  0  0  0  0  0  0  0
    9.5761   -5.8675    0.0000 O   0  0  0  0  0  0  0  0  0  0  0  0
    3.7228   -7.4623    0.0000 O   0  0  0  0  0  0  0  0  0  0  0  0
    6.2730   -9.6646    0.0000 O   0  0  0  0  0  0  0  0  0  0  0  0
    5.0928   -8.6082    0.0000 O   0  0  0  0  0  0  0  0  0  0  0  0
    5.9852   -8.8915    0.0000 C   0  0  0  0  0  0  0  0  0  0  0  0
    8.5456   -7.7916    0.0000 C   0  0  0  0  0  0  0  0  0  0  0  0
    9.1516   -7.2319    0.0000 C   0  0  0  0  0  0  0  0  0  0  0  0
    8.9700   -6.4272    0.0000 C   0  0  0  0  0  0  0  0  0  0  0  0
    8.1822   -6.1821    0.0000 C   0  0  0  0  0  0  0  0  0  0  0  0
    6.4169   -8.1884    0.0000 C   0  0  0  0  0  0  0  0  0  0  0  0
    7.2419   -8.1904    0.0000 C   0  0  0  0  0  0  0  0  0  0  0  0
    7.7578   -7.5466    0.0000 C   0  0  0  0  0  0  0  0  0  0  0  0
    7.5761   -6.7419    0.0000 C   0  0  0  0  0  0  0  0  0  0  0  0
    6.8337   -6.3821    0.0000 C   0  0  2  0  0  0  0  0  0  0  0  0
    6.0895   -6.7383    0.0000 C   0  0  0  0  0  0  0  0  0  0  0  0
    5.4861   -6.1758    0.0000 C   0  0  0  0  0  0  0  0  0  0  0  0
    4.6971   -6.4171    0.0000 C   0  0  0  0  0  0  0  0  0  0  0  0
    4.5117   -7.2210    0.0000 C   0  0  0  0  0  0  0  0  0  0  0  0
    5.1151   -7.7835    0.0000 C   0  0  0  0  0  0  0  0  0  0  0  0
    5.9040   -7.5422    0.0000 C   0  0  0  0  0  0  0  0  0  0  0  0
 16  1  1  6  0  0  0
 11  2  1  0  0  0  0
 10  3  1  0  0  0  0
 20  4  1  0  0  0  0
  7  5  2  0  0  0  0
  7  6  1  0  0  0  0
 21  6  1  0  0  0  0
 12  7  1  0  0  0  0
  8 14  1  0  0  0  0
  9  8  2  0  0  0  0
 10  9  1  0  0  0  0
 11 10  2  0  0  0  0
 15 11  1  0  0  0  0
 12 22  1  0  0  0  0
 13 12  2  0  0  0  0
 14 13  1  0  0  0  0
 15 14  2  0  0  0  0
 16 15  1  0  0  0  0
 17 16  1  0  0  0  0
 17 22  1  0  0  0  0
 18 17  2  0  0  0  0
 19 18  1  0  0  0  0
 20 19  2  0  0  0  0
 21 20  1  0  0  0  0
 22 21  2  0  0  0  0
M  END
>  <cdx:fragmentId>
95

$$$$
