1201543.cdx
  Mrv1902 05222410202D          

 16 17  0  0  0  0            999 V2000
   16.1832   -9.4566    0.0000 C   0  0  0  0  0  0  0  0  0  0  0  0
   15.4688   -9.0441    0.0000 C   0  0  0  0  0  0  0  0  0  0  0  0
   14.7543   -9.4566    0.0000 C   0  0  0  0  0  0  0  0  0  0  0  0
   15.4688   -8.2191    0.0000 O   0  0  0  0  0  0  0  0  0  0  0  0
   13.9536   -8.2236    0.0000 N   0  0  0  0  0  0  0  0  0  0  0  0
   14.0398   -9.0441    0.0000 C   0  0  1  0  0  0  0  0  0  0  0  0
   13.2861   -9.3796    0.0000 C   0  0  0  0  0  0  0  0  0  0  0  0
   12.7341   -8.7665    0.0000 C   0  0  0  0  0  0  0  0  0  0  0  0
   13.1466   -8.0521    0.0000 C   0  0  0  0  0  0  0  0  0  0  0  0
   14.5667   -7.6715    0.0000 C   0  0  0  0  0  0  0  0  0  0  0  0
   16.9839   -8.2236    0.0000 N   0  0  0  0  0  0  0  0  0  0  0  0
   16.8977   -9.0441    0.0000 C   0  0  2  0  0  0  0  0  0  0  0  0
   17.6514   -9.3796    0.0000 C   0  0  0  0  0  0  0  0  0  0  0  0
   18.2034   -8.7665    0.0000 C   0  0  0  0  0  0  0  0  0  0  0  0
   17.7909   -8.0521    0.0000 C   0  0  0  0  0  0  0  0  0  0  0  0
   16.3708   -7.6715    0.0000 C   0  0  0  0  0  0  0  0  0  0  0  0
  1  2  1  0  0  0  0
  2  3  1  0  0  0  0
  2  4  2  0  0  0  0
  5  6  1  0  0  0  0
  6  7  1  0  0  0  0
  7  8  1  0  0  0  0
  8  9  1  0  0  0  0
  5  9  1  0  0  0  0
  5 10  1  0  0  0  0
  6  3  1  6  0  0  0
 11 12  1  0  0  0  0
 12 13  1  0  0  0  0
 13 14  1  0  0  0  0
 14 15  1  0  0  0  0
 11 15  1  0  0  0  0
 11 16  1  0  0  0  0
 12  1  1  6  0  0  0
M  END
>  <cdx:fragmentId>
15693

$$$$
