20161.cdx
  Mrv1902 05222410252D          

 12 12  0  0  0  0            999 V2000
    7.1878  -10.2594    0.0000 N   0  0  0  0  0  0  0  0  0  0  0  0
    7.9847  -10.0470    0.0000 C   0  0  0  0  0  0  0  0  0  0  0  0
    8.5407   -9.4378    0.0000 C   0  0  0  0  0  0  0  0  0  0  0  0
    8.6811   -8.6251    0.0000 O   0  0  0  0  0  0  0  0  0  0  0  0
    8.3552   -7.8669    0.0000 C   0  0  0  0  0  0  0  0  0  0  0  0
    7.6744   -7.3997    0.0000 C   0  0  0  0  0  0  0  0  0  0  0  0
    6.8491   -7.3779    0.0000 O   0  0  0  0  0  0  0  0  0  0  0  0
    6.1456   -7.8073    0.0000 C   0  0  0  0  0  0  0  0  0  0  0  0
    5.7861   -8.5504    0.0000 C   0  0  0  0  0  0  0  0  0  0  0  0
    5.8752   -9.3703    0.0000 N   0  0  0  0  0  0  0  0  0  0  0  0
    6.3970  -10.0093    0.0000 C   0  0  0  0  0  0  0  0  0  0  0  0
    5.9337  -10.6920    0.0000 S   0  0  0  0  0  0  0  0  0  0  0  0
  1  2  1  0  0  0  0
  2  3  1  0  0  0  0
  3  4  1  0  0  0  0
  4  5  1  0  0  0  0
  5  6  1  0  0  0  0
  6  7  1  0  0  0  0
  7  8  1  0  0  0  0
  8  9  1  0  0  0  0
  9 10  1  0  0  0  0
 10 11  1  0  0  0  0
  1 11  1  0  0  0  0
 11 12  2  0  0  0  0
M  END
>  <cdx:groupId>
744

>  <cdx:fragmentId>
745

$$$$
