20162.cdx
  Mrv1902 05222410252D          

 21 22  0  0  0  0            999 V2000
    4.3431   -9.6800    0.0000 C   0  0  0  0  0  0  0  0  0  0  0  0
    4.3431  -10.5050    0.0000 C   0  0  0  0  0  0  0  0  0  0  0  0
    5.0575  -10.9175    0.0000 C   0  0  0  0  0  0  0  0  0  0  0  0
    5.7720  -10.5050    0.0000 C   0  0  0  0  0  0  0  0  0  0  0  0
    5.7720   -9.6800    0.0000 C   0  0  0  0  0  0  0  0  0  0  0  0
    5.0575   -9.2675    0.0000 C   0  0  0  0  0  0  0  0  0  0  0  0
    6.5566  -10.7599    0.0000 C   0  0  0  0  0  0  0  0  0  0  0  0
    7.0415  -10.0925    0.0000 O   0  0  0  0  0  0  0  0  0  0  0  0
    6.5566   -9.4251    0.0000 C   0  0  0  0  0  0  0  0  0  0  0  0
    6.8116  -11.5446    0.0000 O   0  0  0  0  0  0  0  0  0  0  0  0
    6.7701   -8.6282    0.0000 C   0  0  0  0  0  0  0  0  0  0  0  0
    7.5670   -8.4146    0.0000 C   0  0  0  0  0  0  0  0  0  0  0  0
    7.7806   -7.6178    0.0000 C   0  0  0  0  0  0  0  0  0  0  0  0
    8.5774   -7.4042    0.0000 O   0  0  0  0  0  0  0  0  0  0  0  0
    8.7910   -6.6073    0.0000 C   0  0  0  0  0  0  0  0  0  0  0  0
    9.5879   -6.3938    0.0000 C   0  0  0  0  0  0  0  0  0  0  0  0
    9.8014   -5.5969    0.0000 C   0  0  0  0  0  0  0  0  0  0  0  0
    9.2180   -5.0136    0.0000 C   0  0  0  0  0  0  0  0  0  0  0  0
   10.1712   -6.9772    0.0000 C   0  0  0  0  0  0  0  0  0  0  0  0
    8.2076   -6.0240    0.0000 O   0  0  0  0  0  0  0  0  0  0  0  0
    7.1972   -7.0344    0.0000 C   0  0  0  0  0  0  0  0  0  0  0  0
  1  2  2  0  0  0  0
  2  3  1  0  0  0  0
  3  4  2  0  0  0  0
  4  5  1  0  0  0  0
  5  6  2  0  0  0  0
  6  1  1  0  0  0  0
  4  7  1  0  0  0  0
  7  8  1  0  0  0  0
  8  9  1  0  0  0  0
  9  5  1  0  0  0  0
  7 10  2  0  0  0  0
  9 11  1  0  0  0  0
 11 12  1  0  0  0  0
 12 13  1  0  0  0  0
 13 14  1  0  0  0  0
 14 15  1  0  0  0  0
 15 16  1  0  0  0  0
 16 17  2  0  0  0  0
 17 18  1  0  0  0  0
 16 19  1  0  0  0  0
 15 20  2  0  0  0  0
 13 21  1  0  0  0  0
M  END
>  <cdx:fragmentId>
5

$$$$
