20173.cdx
  Mrv1902 05222410242D          

  8  7  0  0  0  0            999 V2000
    9.0001   -6.7444    0.0000 C   0  0  0  0  0  0  0  0  0  0  0  0
    8.2856   -6.3319    0.0000 C   0  0  0  0  0  0  0  0  0  0  0  0
    7.5711   -6.7444    0.0000 C   0  0  0  0  0  0  0  0  0  0  0  0
    6.8567   -6.3319    0.0000 S   0  0  0  0  0  0  0  0  0  0  0  0
    6.1422   -6.7444    0.0000 S   0  0  0  0  0  0  0  0  0  0  0  0
    5.4277   -6.3319    0.0000 C   0  0  0  0  0  0  0  0  0  0  0  0
    4.7132   -6.7444    0.0000 C   0  0  0  0  0  0  0  0  0  0  0  0
    3.9988   -6.3319    0.0000 C   0  0  0  0  0  0  0  0  0  0  0  0
  1  2  2  0  0  0  0
  2  3  1  0  0  0  0
  3  4  1  0  0  0  0
  4  5  1  0  0  0  0
  5  6  1  0  0  0  0
  6  7  1  0  0  0  0
  7  8  1  0  0  0  0
M  END
>  <cdx:fragmentId>
3

$$$$
