20176.cdx
  Mrv1902 05222410252D          

  7  7  0  0  0  0            999 V2000
    6.5920   -8.5120    0.0000 C   0  0  0  0  0  0  0  0  0  0  0  0
    6.8488   -9.2961    0.0000 N   0  0  0  0  0  0  0  0  0  0  0  0
    7.6738   -9.2942    0.0000 N   0  0  0  0  0  0  0  0  0  0  0  0
    7.9269   -8.5089    0.0000 C   0  0  0  0  0  0  0  0  0  0  0  0
    7.2584   -8.0256    0.0000 S   0  0  0  0  0  0  0  0  0  0  0  0
    5.8068   -8.2589    0.0000 C   0  0  0  0  0  0  0  0  0  0  0  0
    8.7109   -8.2522    0.0000 C   0  0  0  0  0  0  0  0  0  0  0  0
  1  2  2  0  0  0  0
  2  3  1  0  0  0  0
  3  4  2  0  0  0  0
  4  5  1  0  0  0  0
  5  1  1  0  0  0  0
  1  6  1  0  0  0  0
  4  7  1  0  0  0  0
M  END
>  <cdx:fragmentId>
5

$$$$
