20175.cdx
  Mrv1902 05222410252D          

  7  7  0  0  0  0            999 V2000
    7.5231   -8.2582    0.0000 C   0  0  0  0  0  0  0  0  0  0  0  0
    7.2662   -7.4742    0.0000 C   0  0  0  0  0  0  0  0  0  0  0  0
    6.4412   -7.4763    0.0000 C   0  0  0  0  0  0  0  0  0  0  0  0
    6.1882   -8.2615    0.0000 C   0  0  0  0  0  0  0  0  0  0  0  0
    6.8569   -8.7448    0.0000 S   0  0  0  0  0  0  0  0  0  0  0  0
    5.9546   -6.8100    0.0000 C   0  0  0  0  0  0  0  0  0  0  0  0
    8.3084   -8.5112    0.0000 C   0  0  0  0  0  0  0  0  0  0  0  0
  1  2  2  0  0  0  0
  2  3  1  0  0  0  0
  3  4  2  0  0  0  0
  4  5  1  0  0  0  0
  5  1  1  0  0  0  0
  3  6  1  0  0  0  0
  1  7  1  0  0  0  0
M  END
>  <cdx:fragmentId>
5

$$$$
