101020171.cdx
  Mrv1902 05222410232D          

 41 45  0  0  0  0            999 V2000
    5.2117  -10.0240    0.0000 N   0  0  0  0  0  0  0  0  0  0  0  0
    4.7268   -9.3566    0.0000 C   0  0  0  0  0  0  0  0  0  0  0  0
    5.2117   -8.6891    0.0000 C   0  0  0  0  0  0  0  0  0  0  0  0
    5.9963   -8.9441    0.0000 C   0  0  0  0  0  0  0  0  0  0  0  0
    6.7108   -8.5316    0.0000 C   0  0  0  0  0  0  0  0  0  0  0  0
    7.4252   -8.9441    0.0000 C   0  0  0  0  0  0  0  0  0  0  0  0
    7.4252   -9.7691    0.0000 C   0  0  0  0  0  0  0  0  0  0  0  0
    6.7108  -10.1816    0.0000 C   0  0  1  0  0  0  0  0  0  0  0  0
    5.9963   -9.7691    0.0000 C   0  0  0  0  0  0  0  0  0  0  0  0
    8.1397  -10.1816    0.0000 O   0  0  0  0  0  0  0  0  0  0  0  0
    5.9963  -11.4191    0.0000 O   0  0  0  0  0  0  0  0  0  0  0  0
    6.7108  -11.0066    0.0000 C   0  0  2  0  0  0  0  0  0  0  0  0
    7.4252  -11.4191    0.0000 C   0  0  1  0  0  0  0  0  0  0  0  0
    7.4252  -12.2441    0.0000 C   0  0  2  0  0  0  0  0  0  0  0  0
    6.7108  -12.6566    0.0000 C   0  0  1  0  0  0  0  0  0  0  0  0
    5.9963  -12.2441    0.0000 C   0  0  1  0  0  0  0  0  0  0  0  0
    5.2818  -12.6566    0.0000 C   0  0  0  0  0  0  0  0  0  0  0  0
    4.5674  -12.2441    0.0000 O   0  0  0  0  0  0  0  0  0  0  0  0
    6.7108  -13.4816    0.0000 O   0  0  0  0  0  0  0  0  0  0  0  0
    8.1397  -12.6566    0.0000 O   0  0  0  0  0  0  0  0  0  0  0  0
    8.1397  -11.0066    0.0000 O   0  0  0  0  0  0  0  0  0  0  0  0
    8.1397   -8.5316    0.0000 C   0  0  0  0  0  0  0  0  0  0  0  0
    8.8542   -8.9441    0.0000 C   0  0  0  0  0  0  0  0  0  0  0  0
    9.5686   -8.5316    0.0000 C   0  0  0  0  0  0  0  0  0  0  0  0
    8.1397   -7.7066    0.0000 O   0  0  0  0  0  0  0  0  0  0  0  0
   10.2831   -8.9441    0.0000 C   0  0  0  0  0  0  0  0  0  0  0  0
   10.9976   -8.5316    0.0000 C   0  0  0  0  0  0  0  0  0  0  0  0
   11.7121   -8.9441    0.0000 C   0  0  0  0  0  0  0  0  0  0  0  0
   11.7121   -9.7691    0.0000 C   0  0  0  0  0  0  0  0  0  0  0  0
   10.9976  -10.1816    0.0000 C   0  0  0  0  0  0  0  0  0  0  0  0
   10.2831   -9.7691    0.0000 C   0  0  0  0  0  0  0  0  0  0  0  0
   12.4265  -10.1816    0.0000 O   0  0  0  0  0  0  0  0  0  0  0  0
    7.4252  -10.5941    0.0000 O   0  0  0  0  0  0  0  0  0  0  0  0
    6.7108   -7.7066    0.0000 O   0  0  0  0  0  0  0  0  0  0  0  0
    3.4168   -8.6891    0.0000 O   0  0  0  0  0  0  0  0  0  0  0  0
    3.9018   -9.3566    0.0000 C   0  0  2  0  0  0  0  0  0  0  0  0
    3.4168  -10.0240    0.0000 C   0  0  1  0  0  0  0  0  0  0  0  0
    2.6322   -9.7691    0.0000 C   0  0  1  0  0  0  0  0  0  0  0  0
    2.6322   -8.9441    0.0000 C   0  0  0  0  0  0  0  0  0  0  0  0
    1.9648  -10.2540    0.0000 O   0  0  0  0  0  0  0  0  0  0  0  0
    3.6718  -10.8086    0.0000 O   0  0  0  0  0  0  0  0  0  0  0  0
  1  2  1  0  0  0  0
  2  3  2  0  0  0  0
  3  4  1  0  0  0  0
  4  5  1  0  0  0  0
  5  6  2  0  0  0  0
  6  7  1  0  0  0  0
  7  8  1  0  0  0  0
  8  9  1  0  0  0  0
  1  9  1  0  0  0  0
  4  9  2  0  0  0  0
  7 10  2  0  0  0  0
 12 11  1  1  0  0  0
 12 13  1  0  0  0  0
 13 14  1  0  0  0  0
 14 15  1  0  0  0  0
 15 16  1  0  0  0  0
 11 16  1  0  0  0  0
 17 18  1  0  0  0  0
 16 17  1  1  0  0  0
 15 19  1  6  0  0  0
 14 20  1  1  0  0  0
 13 21  1  6  0  0  0
  8 12  1  0  0  0  0
 22 23  1  0  0  0  0
 23 24  2  0  0  0  0
 22 25  2  0  0  0  0
 26 27  1  0  0  0  0
 27 28  2  0  0  0  0
 28 29  1  0  0  0  0
 29 30  2  0  0  0  0
 30 31  1  0  0  0  0
 26 31  2  0  0  0  0
 29 32  1  0  0  0  0
 24 26  1  0  0  0  0
  6 22  1  0  0  0  0
  8 33  1  1  0  0  0
  5 34  1  0  0  0  0
 35 36  1  0  0  0  0
 36 37  1  0  0  0  0
 37 38  1  0  0  0  0
 38 39  1  0  0  0  0
 35 39  1  0  0  0  0
 38 40  1  6  0  0  0
 37 41  1  6  0  0  0
 36  2  1  1  0  0  0
M  END
>  <cdx:groupId>
4839

>  <cdx:fragmentId>
4733

$$$$
