20170.cdx
  Mrv1902 05222410232D          

 10 10  0  0  0  0            999 V2000
    5.6105   -4.3313    0.0000 C   0  0  0  0  0  0  0  0  0  0  0  0
    5.6105   -5.1563    0.0000 C   0  0  0  0  0  0  0  0  0  0  0  0
    6.3250   -5.5688    0.0000 N   0  0  0  0  0  0  0  0  0  0  0  0
    7.0395   -5.1563    0.0000 C   0  0  0  0  0  0  0  0  0  0  0  0
    7.0395   -4.3313    0.0000 C   0  0  0  0  0  0  0  0  0  0  0  0
    6.3250   -3.9188    0.0000 C   0  0  0  0  0  0  0  0  0  0  0  0
    7.7515   -3.9202    0.0000 C   0  0  0  0  0  0  0  0  0  0  0  0
    8.4635   -4.3313    0.0000 O   0  0  0  0  0  0  0  0  0  0  0  0
    7.7515   -3.0980    0.0000 O   0  0  0  0  0  0  0  0  0  0  0  0
    9.1754   -3.9202    0.0000 C   0  0  0  0  0  0  0  0  0  0  0  0
  1  2  1  0  0  0  0
  2  3  1  0  0  0  0
  3  4  1  0  0  0  0
  4  5  1  0  0  0  0
  5  6  2  0  0  0  0
  6  1  1  0  0  0  0
  5  7  1  0  0  0  0
  7  8  1  0  0  0  0
  7  9  2  0  0  0  0
  8 10  1  0  0  0  0
M  END
>  <cdx:fragmentId>
17114

$$$$
