20172.cdx
  Mrv1902 05222410242D          

 13 13  0  0  0  0            999 V2000
    6.8176   -5.8954    0.0000 C   0  0  0  0  0  0  0  0  0  0  0  0
    7.0553   -6.6854    0.0000 C   0  0  0  0  0  0  0  0  0  0  0  0
    7.8801   -6.7035    0.0000 C   0  0  0  0  0  0  0  0  0  0  0  0
    8.1522   -5.9247    0.0000 C   0  0  0  0  0  0  0  0  0  0  0  0
    7.4956   -5.4252    0.0000 S   0  0  0  0  0  0  0  0  0  0  0  0
    8.2632   -5.1230    0.0000 O   0  0  0  0  0  0  0  0  0  0  0  0
    8.9422   -5.6870    0.0000 S   0  0  0  0  0  0  0  0  0  0  0  0
    8.3503   -7.3814    0.0000 C   0  0  0  0  0  0  0  0  0  0  0  0
    6.5559   -7.3420    0.0000 C   0  0  0  0  0  0  0  0  0  0  0  0
    4.6190   -5.7847    0.0000 C   0  0  0  0  0  0  0  0  0  0  0  0
    5.3755   -6.1139    0.0000 C   0  0  0  0  0  0  0  0  0  0  0  0
    6.0388   -5.6233    0.0000 C   0  0  0  0  0  0  0  0  0  0  0  0
    9.7322   -5.4493    0.0000 O   0  0  0  0  0  0  0  0  0  0  0  0
  1  2  1  0  0  0  0
  2  3  1  0  0  0  0
  3  4  1  0  0  0  0
  4  5  1  0  0  0  0
  5  1  1  0  0  0  0
  4  7  1  0  0  0  0
  1 12  1  0  0  0  0
 11 10  1  0  0  0  0
  3  8  1  0  0  0  0
  2  9  1  0  0  0  0
 12 11  2  0  0  0  0
  5  6  2  0  0  0  0
  7 13  1  0  0  0  0
M  STY  2   1 SUP   2 SUP
M  SAL   1  2   5   6
M  SBL   1  2   4   5
M  SMT   1 SO
M  SAP   1  2   5   4  1   5   1  2
M  SAL   2  2   7  13
M  SBL   2  1   6
M  SMT   2 SOH
M  SAP   2  1   7   4  1
M  END
>  <cdx:fragmentId>
5

$$$$
