20182.cdx
  Mrv1902 05222410232D          

  9  8  0  0  0  0            999 V2000
    4.9587   -6.9110    0.0000 C   0  0  0  0  0  0  0  0  0  0  0  0
    5.6757   -7.3191    0.0000 C   0  0  0  0  0  0  0  0  0  0  0  0
    6.3877   -6.9022    0.0000 C   0  0  0  0  0  0  0  0  0  0  0  0
    7.1046   -7.3103    0.0000 S   0  0  0  0  0  0  0  0  0  0  0  0
    7.8166   -6.8934    0.0000 S   0  0  0  0  0  0  0  0  0  0  0  0
    8.5336   -7.3015    0.0000 C   0  0  0  0  0  0  0  0  0  0  0  0
    9.2455   -6.8846    0.0000 C   0  0  0  0  0  0  0  0  0  0  0  0
    9.9625   -7.2927    0.0000 C   0  0  0  0  0  0  0  0  0  0  0  0
    7.8115   -6.0684    0.0000 O   0  0  0  0  0  0  0  0  0  0  0  0
  1  2  1  0  0  0  0
  2  3  2  0  0  0  0
  3  4  1  0  0  0  0
  4  5  1  0  0  0  0
  5  6  1  0  0  0  0
  6  7  1  0  0  0  0
  7  8  2  0  0  0  0
  5  9  2  0  0  0  0
M  END
>  <cdx:fragmentId>
3

$$$$
