20186.cdx
  Mrv1902 05222410202D          

 18 18  0  0  0  0            999 V2000
    8.1310   -7.6739    0.0000 C   0  0  0  0  0  0  0  0  0  0  0  0
    8.3687   -8.4640    0.0000 C   0  0  0  0  0  0  0  0  0  0  0  0
    9.1935   -8.4821    0.0000 C   0  0  0  0  0  0  0  0  0  0  0  0
    9.4656   -7.7032    0.0000 C   0  0  0  0  0  0  0  0  0  0  0  0
    8.8090   -7.2038    0.0000 S   0  0  0  0  0  0  0  0  0  0  0  0
    9.5766   -6.9016    0.0000 O   0  0  0  0  0  0  0  0  0  0  0  0
   10.2556   -7.4656    0.0000 S   0  0  0  0  0  0  0  0  0  0  0  0
    2.4295   -8.3767    0.0000 C   0  0  0  0  0  0  0  0  0  0  0  0
    3.0928   -7.8861    0.0000 C   0  0  0  0  0  0  0  0  0  0  0  0
    3.8493   -8.2153    0.0000 C   0  0  0  0  0  0  0  0  0  0  0  0
    4.5126   -7.7247    0.0000 S   0  0  0  0  0  0  0  0  0  0  0  0
    5.2691   -8.0538    0.0000 S   0  0  0  0  0  0  0  0  0  0  0  0
    9.6637   -9.1600    0.0000 C   0  0  0  0  0  0  0  0  0  0  0  0
    7.8693   -9.1206    0.0000 C   0  0  0  0  0  0  0  0  0  0  0  0
    5.9324   -7.5633    0.0000 C   0  0  0  0  0  0  0  0  0  0  0  0
    6.6889   -7.8924    0.0000 C   0  0  0  0  0  0  0  0  0  0  0  0
    7.3522   -7.4019    0.0000 C   0  0  0  0  0  0  0  0  0  0  0  0
   11.0456   -7.2279    0.0000 O   0  0  0  0  0  0  0  0  0  0  0  0
  1  2  1  0  0  0  0
  2  3  1  0  0  0  0
  3  4  1  0  0  0  0
  4  5  1  0  0  0  0
  5  1  1  0  0  0  0
  4  7  1  0  0  0  0
  9  8  2  0  0  0  0
  1 17  1  0  0  0  0
 10  9  1  0  0  0  0
 11 10  1  0  0  0  0
 12 11  1  0  0  0  0
 15 12  1  0  0  0  0
 16 15  1  0  0  0  0
  3 13  1  0  0  0  0
  2 14  1  0  0  0  0
 17 16  2  0  0  0  0
  5  6  2  0  0  0  0
  7 18  1  0  0  0  0
M  STY  2   1 SUP   2 SUP
M  SAL   1  2   5   6
M  SBL   1  2   4   5
M  SMT   1 SO
M  SAP   1  2   5   4  1   5   1  2
M  SAL   2  2   7  18
M  SBL   2  1   6
M  SMT   2 SOH
M  SAP   2  1   7   4  1
M  END
>  <cdx:fragmentId>
5

$$$$
