20183.cdx
  Mrv1902 05222410232D          

  7  6  0  0  0  0            999 V2000
    8.6981   -7.3012    0.0000 C   0  0  0  0  0  0  0  0  0  0  0  0
    7.9836   -7.7138    0.0000 C   0  0  0  0  0  0  0  0  0  0  0  0
    7.2692   -7.3012    0.0000 C   0  0  0  0  0  0  0  0  0  0  0  0
    6.5547   -7.7138    0.0000 S   0  0  0  0  0  0  0  0  0  0  0  0
    5.8402   -7.3012    0.0000 C   0  0  0  0  0  0  0  0  0  0  0  0
    5.1257   -7.7138    0.0000 C   0  0  0  0  0  0  0  0  0  0  0  0
    4.4113   -7.3012    0.0000 C   0  0  0  0  0  0  0  0  0  0  0  0
  2  1  1  0  0  0  0
  3  2  1  0  0  0  0
  4  3  1  0  0  0  0
  5  4  1  0  0  0  0
  6  5  1  0  0  0  0
  7  6  2  0  0  0  0
M  END
>  <cdx:fragmentId>
3

$$$$
