20181.cdx
  Mrv1902 05222410222D          

 23 23  0  0  0  0            999 V2000
    8.6056  -11.5500    0.0000 C   0  0  0  0  0  0  0  0  0  0  0  0
    8.6056  -12.3750    0.0000 C   0  0  0  0  0  0  0  0  0  0  0  0
    9.3200  -12.7875    0.0000 N   0  0  0  0  0  0  0  0  0  0  0  0
   10.0345  -12.3750    0.0000 C   0  0  0  0  0  0  0  0  0  0  0  0
   10.0345  -11.5500    0.0000 N   0  0  0  0  0  0  0  0  0  0  0  0
    9.3200  -11.1375    0.0000 C   0  0  0  0  0  0  0  0  0  0  0  0
    8.6056   -9.9000    0.0000 C   0  0  0  0  0  0  0  0  0  0  0  0
    7.8911  -10.3125    0.0000 N   0  0  0  0  0  0  0  0  0  0  0  0
    7.8911  -11.1375    0.0000 C   0  0  0  0  0  0  0  0  0  0  0  0
    8.6056   -9.0750    0.0000 O   0  0  0  0  0  0  0  0  0  0  0  0
    7.8911   -8.6625    0.0000 S   0  0  0  0  0  0  0  0  0  0  0  0
    7.1766   -9.0750    0.0000 C   0  0  0  0  0  0  0  0  0  0  0  0
    7.1766   -9.9000    0.0000 C   0  0  0  0  0  0  0  0  0  0  0  0
    7.8911   -7.8375    0.0000 S   0  0  0  0  0  0  0  0  0  0  0  0
    6.4621   -7.8375    0.0000 C   0  0  0  0  0  0  0  0  0  0  0  0
    6.4621   -8.6625    0.0000 C   0  0  0  0  0  0  0  0  0  0  0  0
    5.7477   -7.4250    0.0000 O   0  0  0  0  0  0  0  0  0  0  0  0
    8.6056   -7.4250    0.0000 C   0  0  0  0  0  0  0  0  0  0  0  0
    8.6056   -6.6000    0.0000 C   0  0  0  0  0  0  0  0  0  0  0  0
    9.3200   -6.1875    0.0000 C   0  0  0  0  0  0  0  0  0  0  0  0
    6.4621  -10.3125    0.0000 C   0  0  0  0  0  0  0  0  0  0  0  0
   10.7490  -12.7875    0.0000 C   0  0  0  0  0  0  0  0  0  0  0  0
    7.8911  -12.7875    0.0000 N   0  0  0  0  0  0  0  0  0  0  0  0
  1  2  1  0  0  0  0
  2  3  2  0  0  0  0
  3  4  1  0  0  0  0
  4  5  2  0  0  0  0
  5  6  1  0  0  0  0
  6  1  2  0  0  0  0
  7  8  1  0  0  0  0
  8  9  1  0  0  0  0
  9  1  1  0  0  0  0
  7 10  2  0  0  0  0
 11 12  1  0  0  0  0
 12 13  2  0  0  0  0
 13  8  1  0  0  0  0
 11 14  1  0  0  0  0
 15 16  1  0  0  0  0
 16 12  1  0  0  0  0
 15 17  1  0  0  0  0
 14 18  1  0  0  0  0
 18 19  1  0  0  0  0
 19 20  2  0  0  0  0
 13 21  1  0  0  0  0
  4 22  1  0  0  0  0
  2 23  1  0  0  0  0
M  END
>  <cdx:fragmentId>
5

$$$$
