20189.cdx
  Mrv1902 05222410252D          

  6  5  0  0  0  0            999 V2000
    4.9475   -7.4456    0.0000 C   0  0  0  0  0  0  0  0  0  0  0  0
    5.6620   -7.0331    0.0000 S   0  0  0  0  0  0  0  0  0  0  0  0
    6.3765   -7.4456    0.0000 S   0  0  0  0  0  0  0  0  0  0  0  0
    7.0909   -7.0331    0.0000 C   0  0  0  0  0  0  0  0  0  0  0  0
    7.8054   -7.4456    0.0000 C   0  0  0  0  0  0  0  0  0  0  0  0
    8.5199   -7.0331    0.0000 C   0  0  0  0  0  0  0  0  0  0  0  0
  1  2  1  0  0  0  0
  2  3  1  0  0  0  0
  3  4  1  0  0  0  0
  4  5  2  0  0  0  0
  5  6  1  0  0  0  0
M  END
>  <cdx:fragmentId>
3

$$$$
