20187.cdx
  Mrv1902 05222410212D          

  7  6  0  0  0  0            999 V2000
    5.7931   -7.0744    0.0000 C   0  0  0  0  0  0  0  0  0  0  0  0
    6.5076   -6.6619    0.0000 S   0  0  0  0  0  0  0  0  0  0  0  0
    7.2221   -7.0744    0.0000 S   0  0  0  0  0  0  0  0  0  0  0  0
    7.9366   -6.6619    0.0000 C   0  0  0  0  0  0  0  0  0  0  0  0
    8.6510   -7.0744    0.0000 C   0  0  0  0  0  0  0  0  0  0  0  0
    9.3655   -6.6619    0.0000 C   0  0  0  0  0  0  0  0  0  0  0  0
    7.2221   -7.8994    0.0000 O   0  0  0  0  0  0  0  0  0  0  0  0
  1  2  1  0  0  0  0
  2  3  1  0  0  0  0
  3  4  1  0  0  0  0
  4  5  2  0  0  0  0
  5  6  1  0  0  0  0
  3  7  2  0  0  0  0
M  END
>  <cdx:fragmentId>
3

$$$$
