20184.cdx
  Mrv1902 05222410212D          

  7  6  0  0  0  0            999 V2000
    8.6362   -6.7444    0.0000 C   0  0  0  0  0  0  0  0  0  0  0  0
    7.9218   -7.1569    0.0000 C   0  0  0  0  0  0  0  0  0  0  0  0
    7.2073   -6.7444    0.0000 C   0  0  0  0  0  0  0  0  0  0  0  0
    6.4928   -7.1569    0.0000 S   0  0  0  0  0  0  0  0  0  0  0  0
    5.7783   -6.7444    0.0000 C   0  0  0  0  0  0  0  0  0  0  0  0
    5.0639   -7.1569    0.0000 C   0  0  0  0  0  0  0  0  0  0  0  0
    4.3494   -6.7444    0.0000 C   0  0  0  0  0  0  0  0  0  0  0  0
  2  1  1  0  0  0  0
  3  2  2  0  0  0  0
  4  3  1  0  0  0  0
  5  4  1  0  0  0  0
  6  5  2  0  0  0  0
  7  6  1  0  0  0  0
M  END
>  <cdx:fragmentId>
3

$$$$
