20188.cdx
  Mrv1902 05222410252D          

  8  7  0  0  0  0            999 V2000
    4.2463   -7.4456    0.0000 C   0  0  0  0  0  0  0  0  0  0  0  0
    4.9607   -7.8581    0.0000 S   0  0  0  0  0  0  0  0  0  0  0  0
    5.6752   -7.4456    0.0000 S   0  0  0  0  0  0  0  0  0  0  0  0
    6.3897   -7.8581    0.0000 S   0  0  0  0  0  0  0  0  0  0  0  0
    7.1042   -7.4456    0.0000 C   0  0  0  0  0  0  0  0  0  0  0  0
    7.8186   -7.8581    0.0000 C   0  0  0  0  0  0  0  0  0  0  0  0
    8.5331   -7.4456    0.0000 C   0  0  0  0  0  0  0  0  0  0  0  0
    9.2476   -7.8581    0.0000 C   0  0  0  0  0  0  0  0  0  0  0  0
  1  2  1  0  0  0  0
  2  3  1  0  0  0  0
  3  4  1  0  0  0  0
  4  5  1  0  0  0  0
  5  6  1  0  0  0  0
  6  7  1  0  0  0  0
  7  8  1  0  0  0  0
M  END
>  <cdx:fragmentId>
3

$$$$
