20185.cdx
  Mrv1902 05222410212D          

 11 11  0  0  0  0            999 V2000
    6.7380   -5.8300    0.0000 C   0  0  0  0  0  0  0  0  0  0  0  0
    6.7380   -6.6550    0.0000 S   0  0  0  0  0  0  0  0  0  0  0  0
    7.4525   -7.0675    0.0000 S   0  0  0  0  0  0  0  0  0  0  0  0
    8.1670   -6.6550    0.0000 C   0  0  0  0  0  0  0  0  0  0  0  0
    8.1670   -5.8300    0.0000 C   0  0  0  0  0  0  0  0  0  0  0  0
    7.4525   -5.4175    0.0000 C   0  0  0  0  0  0  0  0  0  0  0  0
    6.8691   -7.6509    0.0000 C   0  0  0  0  0  0  0  0  0  0  0  0
    8.0359   -7.6509    0.0000 S   0  0  0  0  0  0  0  0  0  0  0  0
    8.6192   -8.2342    0.0000 O   0  0  0  0  0  0  0  0  0  0  0  0
    6.0236   -5.4175    0.0000 C   0  0  0  0  0  0  0  0  0  0  0  0
    5.3091   -5.8300    0.0000 C   0  0  0  0  0  0  0  0  0  0  0  0
  1  2  1  0  0  0  0
  2  3  1  0  0  0  0
  3  4  1  0  0  0  0
  4  5  2  0  0  0  0
  5  6  1  0  0  0  0
  6  1  1  0  0  0  0
  3  7  1  0  0  0  0
  3  8  1  0  0  0  0
  1 10  1  0  0  0  0
 10 11  2  0  0  0  0
  8  9  1  0  0  0  0
M  STY  1   1 SUP
M  SAL   1  2   8   9
M  SBL   1  1   8
M  SMT   1 SOH
M  SAP   1  1   8   3  1
M  END
>  <cdx:fragmentId>
66

$$$$
