20194.cdx
  Mrv1902 05222410222D          

  9  8  0  0  0  0            999 V2000
    9.9811   -8.1521    0.0000 C   0  0  0  0  0  0  0  0  0  0  0  0
    9.2704   -7.7332    0.0000 C   0  0  0  0  0  0  0  0  0  0  0  0
    8.5523   -8.1393    0.0000 C   0  0  0  0  0  0  0  0  0  0  0  0
    7.8415   -7.7205    0.0000 S   0  0  0  0  0  0  0  0  0  0  0  0
    7.1234   -8.1266    0.0000 S   0  0  0  0  0  0  0  0  0  0  0  0
    6.4126   -7.7077    0.0000 C   0  0  0  0  0  0  0  0  0  0  0  0
    5.6945   -8.1138    0.0000 C   0  0  0  0  0  0  0  0  0  0  0  0
    4.9837   -7.6949    0.0000 C   0  0  0  0  0  0  0  0  0  0  0  0
    7.8489   -6.8955    0.0000 O   0  0  0  0  0  0  0  0  0  0  0  0
  1  2  1  0  0  0  0
  2  3  2  0  0  0  0
  3  4  1  0  0  0  0
  4  5  1  0  0  0  0
  5  6  1  0  0  0  0
  6  7  1  0  0  0  0
  7  8  2  0  0  0  0
  4  9  2  0  0  0  0
M  END
>  <cdx:fragmentId>
3

$$$$
