20192.cdx
  Mrv1902 05222410212D          

 12 11  0  0  0  0            999 V2000
    2.4519   -7.0950    0.0000 C   0  0  0  0  0  0  0  0  0  0  0  0
    3.1664   -6.6825    0.0000 C   0  0  0  0  0  0  0  0  0  0  0  0
    3.8808   -7.0950    0.0000 C   0  0  0  0  0  0  0  0  0  0  0  0
    4.5953   -6.6825    0.0000 S   0  0  0  0  0  0  0  0  0  0  0  0
    5.3098   -6.2700    0.0000 N   0  0  0  0  0  0  0  0  0  0  0  0
    6.0243   -6.6825    0.0000 C   0  0  1  0  0  0  0  0  0  0  0  0
    6.0243   -7.5075    0.0000 C   0  0  0  0  0  0  0  0  0  0  0  0
    6.7387   -6.2700    0.0000 C   0  0  0  0  0  0  0  0  0  0  0  0
    7.4532   -6.6825    0.0000 O   0  0  0  0  0  0  0  0  0  0  0  0
    6.7387   -5.4450    0.0000 O   0  0  0  0  0  0  0  0  0  0  0  0
    4.1828   -5.9680    0.0000 O   0  0  0  0  0  0  0  0  0  0  0  0
    5.0078   -7.3970    0.0000 O   0  0  0  0  0  0  0  0  0  0  0  0
  1  2  2  0  0  0  0
  2  3  1  0  0  0  0
  3  4  1  0  0  0  0
  4  5  1  0  0  0  0
  6  5  1  6  0  0  0
  6  7  1  0  0  0  0
  6  8  1  0  0  0  0
  8  9  1  0  0  0  0
  8 10  2  0  0  0  0
  4 11  2  0  0  0  0
  4 12  2  0  0  0  0
M  END
>  <cdx:fragmentId>
3

$$$$
