20190.cdx
  Mrv1902 05222410212D          

 11 11  0  0  0  0            999 V2000
    5.9037   -8.0644    0.0000 C   0  0  0  0  0  0  0  0  0  0  0  0
    5.9037   -8.8894    0.0000 C   0  0  0  0  0  0  0  0  0  0  0  0
    6.6181   -9.3019    0.0000 C   0  0  0  0  0  0  0  0  0  0  0  0
    7.3326   -8.8894    0.0000 C   0  0  0  0  0  0  0  0  0  0  0  0
    7.3326   -8.0644    0.0000 C   0  0  0  0  0  0  0  0  0  0  0  0
    6.6181   -7.6519    0.0000 C   0  0  0  0  0  0  0  0  0  0  0  0
    6.6181  -10.1269    0.0000 O   0  0  0  0  0  0  0  0  0  0  0  0
    5.9037  -10.5394    0.0000 C   0  0  0  0  0  0  0  0  0  0  0  0
    6.6181   -6.8269    0.0000 C   0  0  0  0  0  0  0  0  0  0  0  0
    7.3326   -6.4144    0.0000 C   0  0  0  0  0  0  0  0  0  0  0  0
    8.0471   -6.0019    0.0000 N   0  0  0  0  0  0  0  0  0  0  0  0
  1  2  2  0  0  0  0
  2  3  1  0  0  0  0
  3  4  2  0  0  0  0
  4  5  1  0  0  0  0
  5  6  2  0  0  0  0
  6  1  1  0  0  0  0
  3  7  1  0  0  0  0
  7  8  1  0  0  0  0
  6  9  1  0  0  0  0
  9 10  1  0  0  0  0
 10 11  3  0  0  0  0
M  END
>  <cdx:fragmentId>
5

$$$$
