20198.cdx
  Mrv1902 05222410242D          

 24 24  0  0  0  0            999 V2000
    4.6043   -8.9100    0.0000 C   0  0  2  0  0  0  0  0  0  0  0  0
    4.6043   -9.7350    0.0000 C   0  0  2  0  0  0  0  0  0  0  0  0
    5.3188  -10.1475    0.0000 C   0  0  1  0  0  0  0  0  0  0  0  0
    6.0332   -9.7350    0.0000 C   0  0  2  0  0  0  0  0  0  0  0  0
    6.0332   -8.9100    0.0000 C   0  0  1  0  0  0  0  0  0  0  0  0
    5.3188   -8.4975    0.0000 O   0  0  0  0  0  0  0  0  0  0  0  0
    6.7477   -8.4975    0.0000 S   0  0  0  0  0  0  0  0  0  0  0  0
    6.7477   -7.6725    0.0000 C   0  0  0  0  0  0  0  0  0  0  0  0
    6.0332   -7.2600    0.0000 N   0  0  0  0  0  0  0  0  0  0  0  0
    7.4622   -7.2600    0.0000 C   0  0  0  0  0  0  0  0  0  0  0  0
    7.4622   -6.4350    0.0000 C   0  0  1  0  0  0  0  0  0  0  0  0
    6.7477   -6.0225    0.0000 O   0  0  0  0  0  0  0  0  0  0  0  0
    6.0332   -6.4350    0.0000 O   0  0  0  0  0  0  0  0  0  0  0  0
    5.3188   -6.0225    0.0000 S   0  0  0  0  0  0  0  0  0  0  0  0
    4.6043   -5.6100    0.0000 O   0  0  0  0  0  0  0  0  0  0  0  0
    5.7313   -5.3080    0.0000 O   0  0  0  0  0  0  0  0  0  0  0  0
    4.9063   -6.7370    0.0000 O   0  0  0  0  0  0  0  0  0  0  0  0
    3.8898   -8.4975    0.0000 C   0  0  0  0  0  0  0  0  0  0  0  0
    3.1754   -8.9100    0.0000 O   0  0  0  0  0  0  0  0  0  0  0  0
    5.3188  -10.9725    0.0000 O   0  0  0  0  0  0  0  0  0  0  0  0
    3.8898  -10.1475    0.0000 O   0  0  0  0  0  0  0  0  0  0  0  0
    6.7477  -10.1475    0.0000 O   0  0  0  0  0  0  0  0  0  0  0  0
    8.1767   -6.0225    0.0000 C   0  0  0  0  0  0  0  0  0  0  0  0
    8.1767   -5.1975    0.0000 C   0  0  0  0  0  0  0  0  0  0  0  0
  1  2  1  0  0  0  0
  2  3  1  0  0  0  0
  3  4  1  0  0  0  0
  4  5  1  0  0  0  0
  5  6  1  0  0  0  0
  6  1  1  0  0  0  0
  5  7  1  1  0  0  0
  7  8  1  0  0  0  0
  8  9  2  0  0  0  0
  8 10  1  0  0  0  0
 10 11  1  0  0  0  0
 11 12  1  1  0  0  0
 13  9  1  0  0  0  0
 13 14  1  0  0  0  0
 14 15  1  0  0  0  0
 14 16  2  0  0  0  0
 14 17  2  0  0  0  0
  1 18  1  1  0  0  0
 18 19  1  0  0  0  0
  3 20  1  1  0  0  0
  2 21  1  6  0  0  0
  4 22  1  6  0  0  0
 11 23  1  0  0  0  0
 23 24  2  0  0  0  0
M  END
>  <cdx:fragmentId>
5

$$$$
