20191.cdx
  Mrv1902 05222410212D          

 11 10  0  0  0  0            999 V2000
    6.7334   -8.1881    0.0000 C   0  0  1  0  0  0  0  0  0  0  0  0
    7.4478   -7.7756    0.0000 C   0  0  0  0  0  0  0  0  0  0  0  0
    7.4478   -6.9506    0.0000 O   0  0  0  0  0  0  0  0  0  0  0  0
    8.1623   -8.1881    0.0000 O   0  0  0  0  0  0  0  0  0  0  0  0
    6.0189   -7.7756    0.0000 N   0  0  0  0  0  0  0  0  0  0  0  0
    4.5900  -11.9006    0.0000 C   0  0  0  0  0  0  0  0  0  0  0  0
    5.3044  -11.4881    0.0000 C   0  0  0  0  0  0  0  0  0  0  0  0
    5.3044  -10.6631    0.0000 C   0  0  0  0  0  0  0  0  0  0  0  0
    6.0189  -10.2506    0.0000 S   0  0  0  0  0  0  0  0  0  0  0  0
    6.0189   -9.4256    0.0000 S   0  0  0  0  0  0  0  0  0  0  0  0
    6.7334   -9.0131    0.0000 C   0  0  0  0  0  0  0  0  0  0  0  0
  1  2  1  0  0  0  0
  2  3  2  0  0  0  0
  2  4  1  0  0  0  0
  1  5  1  6  0  0  0
  7  6  2  0  0  0  0
  1 11  1  0  0  0  0
  8  7  1  0  0  0  0
  9  8  1  0  0  0  0
 10  9  1  0  0  0  0
 11 10  1  0  0  0  0
M  END
>  <cdx:fragmentId>
41

$$$$
