20193.cdx
  Mrv1902 05222410212D          

 10  9  0  0  0  0            999 V2000
    5.6075   -7.6106    0.0000 S   0  0  0  0  0  0  0  0  0  0  0  0
    6.3220   -7.1981    0.0000 C   0  0  0  0  0  0  0  0  0  0  0  0
    6.3220   -6.3731    0.0000 C   0  0  2  0  0  0  0  0  0  0  0  0
    5.6075   -5.9606    0.0000 N   0  0  0  0  0  0  0  0  0  0  0  0
    7.7509   -6.3731    0.0000 O   0  0  0  0  0  0  0  0  0  0  0  0
    7.0365   -5.9606    0.0000 C   0  0  0  0  0  0  0  0  0  0  0  0
    7.0365   -5.1356    0.0000 O   0  0  0  0  0  0  0  0  0  0  0  0
    5.6075   -8.4356    0.0000 C   0  0  0  0  0  0  0  0  0  0  0  0
    4.8931   -8.8481    0.0000 C   0  0  0  0  0  0  0  0  0  0  0  0
    4.1786   -9.2606    0.0000 C   0  0  0  0  0  0  0  0  0  0  0  0
  1  2  1  0  0  0  0
  2  3  1  0  0  0  0
  3  4  1  6  0  0  0
  5  6  1  0  0  0  0
  6  3  1  0  0  0  0
  6  7  2  0  0  0  0
  1  8  1  0  0  0  0
  8  9  1  0  0  0  0
  9 10  3  0  0  0  0
M  END
>  <cdx:fragmentId>
5

$$$$
