20203.cdx
  Mrv1902 05222410252D          

  8  8  0  0  0  0            999 V2000
    6.6420   -7.7436    0.0000 C   0  0  0  0  0  0  0  0  0  0  0  0
    6.3872   -8.5283    0.0000 C   0  0  0  0  0  0  0  0  0  0  0  0
    7.0547   -9.0131    0.0000 N   0  0  0  0  0  0  0  0  0  0  0  0
    7.7221   -8.5281    0.0000 C   0  0  0  0  0  0  0  0  0  0  0  0
    7.4670   -7.7435    0.0000 O   0  0  0  0  0  0  0  0  0  0  0  0
    8.5068   -8.7829    0.0000 S   0  0  0  0  0  0  0  0  0  0  0  0
    6.1570   -7.0763    0.0000 C   0  0  0  0  0  0  0  0  0  0  0  0
    6.5695   -6.3618    0.0000 C   0  0  0  0  0  0  0  0  0  0  0  0
  1  2  1  0  0  0  0
  2  3  1  0  0  0  0
  3  4  1  0  0  0  0
  4  5  1  0  0  0  0
  5  1  1  0  0  0  0
  4  6  2  0  0  0  0
  1  7  1  0  0  0  0
  7  8  2  0  0  0  0
M  END
>  <cdx:fragmentId>
5

$$$$
