20205.cdx
  Mrv1902 05222410242D          

 49 54  0  0  0  0            999 V2000
    9.7269   -8.2177    0.0000 C   0  0  1  0  0  0  0  0  0  0  0  0
   10.4413   -8.6302    0.0000 C   0  0  1  0  0  0  0  0  0  0  0  0
   10.4413   -9.4552    0.0000 C   0  0  0  0  0  0  0  0  0  0  0  0
    9.7269   -9.8677    0.0000 C   0  0  0  0  0  0  0  0  0  0  0  0
    9.0124   -9.4552    0.0000 C   0  0  1  0  0  0  0  0  0  0  0  0
    8.2979   -9.8677    0.0000 C   0  0  2  0  0  0  0  0  0  0  0  0
    8.2979  -10.6927    0.0000 C   0  0  0  0  0  0  0  0  0  0  0  0
    7.5834  -11.1052    0.0000 C   0  0  0  0  0  0  0  0  0  0  0  0
    6.8690  -10.6927    0.0000 C   0  0  1  0  0  0  0  0  0  0  0  0
    6.1545  -11.1052    0.0000 C   0  0  0  0  0  0  0  0  0  0  0  0
    5.4400  -10.6927    0.0000 C   0  0  2  0  0  0  0  0  0  0  0  0
    5.4400   -9.8677    0.0000 C   0  0  1  0  0  0  0  0  0  0  0  0
    6.1545   -9.4552    0.0000 C   0  0  0  0  0  0  0  0  0  0  0  0
    6.8690   -9.8677    0.0000 C   0  0  2  0  0  0  0  0  0  0  0  0
    7.5834   -9.4552    0.0000 C   0  0  1  0  0  0  0  0  0  0  0  0
    7.5834   -8.6302    0.0000 C   0  0  0  0  0  0  0  0  0  0  0  0
    8.2979   -8.2177    0.0000 C   0  0  0  0  0  0  0  0  0  0  0  0
    9.0124   -8.6302    0.0000 C   0  0  2  0  0  0  0  0  0  0  0  0
   11.0544   -8.0782    0.0000 C   0  0  0  0  0  0  0  0  0  0  0  0
   10.7189   -7.3245    0.0000 C   0  0  0  0  0  0  0  0  0  0  0  0
    9.8984   -7.4107    0.0000 C   0  0  1  0  0  0  0  0  0  0  0  0
   11.1950   -8.9658    0.0000 C   0  0  0  0  0  0  0  0  0  0  0  0
   11.1950   -9.7908    0.0000 O   0  0  0  0  0  0  0  0  0  0  0  0
   11.8624   -8.4808    0.0000 O   0  0  0  0  0  0  0  0  0  0  0  0
    9.6013   -6.0130    0.0000 C   0  0  0  0  0  0  0  0  0  0  0  0
    9.3464   -6.7976    0.0000 C   0  0  0  0  0  0  0  0  0  0  0  0
    8.5394   -6.9692    0.0000 C   0  0  0  0  0  0  0  0  0  0  0  0
    6.8690   -9.0427    0.0000 C   0  0  0  0  0  0  0  0  0  0  0  0
    6.5670  -11.8197    0.0000 C   0  0  0  0  0  0  0  0  0  0  0  0
    5.7420  -11.8197    0.0000 C   0  0  0  0  0  0  0  0  0  0  0  0
    8.2979   -9.0427    0.0000 C   0  0  0  0  0  0  0  0  0  0  0  0
    9.0124  -10.2802    0.0000 C   0  0  0  0  0  0  0  0  0  0  0  0
    4.7256   -9.4552    0.0000 O   0  0  0  0  0  0  0  0  0  0  0  0
    4.7256  -11.1052    0.0000 O   0  0  0  0  0  0  0  0  0  0  0  0
    6.8690  -11.5177    0.0000 H   0  0  0  0  0  0  0  0  0  0  0  0
    7.5834  -10.2802    0.0000 H   0  0  0  0  0  0  0  0  0  0  0  0
    9.0124   -7.8052    0.0000 H   0  0  0  0  0  0  0  0  0  0  0  0
    9.7269   -9.0427    0.0000 H   0  0  0  0  0  0  0  0  0  0  0  0
    4.0111  -10.6927    0.0000 C   0  0  0  0  0  0  0  0  0  0  0  0
    3.2966  -11.1052    0.0000 C   0  0  0  0  0  0  0  0  0  0  0  0
    4.0111   -9.8677    0.0000 O   0  0  0  0  0  0  0  0  0  0  0  0
    2.5821  -10.6927    0.0000 C   0  0  0  0  0  0  0  0  0  0  0  0
    2.5821   -9.8677    0.0000 C   0  0  0  0  0  0  0  0  0  0  0  0
    3.2966   -9.4552    0.0000 C   0  0  0  0  0  0  0  0  0  0  0  0
    3.2966   -8.6302    0.0000 C   0  0  0  0  0  0  0  0  0  0  0  0
    2.5821   -8.2177    0.0000 C   0  0  0  0  0  0  0  0  0  0  0  0
    1.8677   -8.6302    0.0000 C   0  0  0  0  0  0  0  0  0  0  0  0
    1.8677   -9.4552    0.0000 C   0  0  0  0  0  0  0  0  0  0  0  0
    2.5821   -7.3927    0.0000 O   0  0  0  0  0  0  0  0  0  0  0  0
  1  2  1  0  0  0  0
  2  3  1  0  0  0  0
  3  4  1  0  0  0  0
  4  5  1  0  0  0  0
  5  6  1  0  0  0  0
  6  7  1  0  0  0  0
  7  8  1  0  0  0  0
  8  9  1  0  0  0  0
  9 10  1  0  0  0  0
 10 11  1  0  0  0  0
 11 12  1  0  0  0  0
 12 13  1  0  0  0  0
 13 14  1  0  0  0  0
  9 14  1  0  0  0  0
 14 15  1  0  0  0  0
  6 15  1  0  0  0  0
 15 16  1  0  0  0  0
 16 17  1  0  0  0  0
 17 18  1  0  0  0  0
  5 18  1  0  0  0  0
  1 18  1  0  0  0  0
 19 20  1  0  0  0  0
 20 21  1  0  0  0  0
 21  1  1  0  0  0  0
 19  2  1  0  0  0  0
 22 23  2  0  0  0  0
 22 24  1  0  0  0  0
  2 22  1  1  0  0  0
 25 26  2  0  0  0  0
 26 27  1  0  0  0  0
 21 26  1  6  0  0  0
 14 28  1  1  0  0  0
 10 29  1  0  0  0  0
 10 30  1  0  0  0  0
  6 31  1  1  0  0  0
  5 32  1  6  0  0  0
 12 33  1  6  0  0  0
 11 34  1  1  0  0  0
  9 35  1  6  0  0  0
 15 36  1  6  0  0  0
 18 37  1  1  0  0  0
  1 38  1  6  0  0  0
 34 39  1  0  0  0  0
 39 40  1  0  0  0  0
 39 41  2  0  0  0  0
 40 42  2  0  0  0  0
 42 43  1  0  0  0  0
 43 44  2  0  0  0  0
 44 45  1  0  0  0  0
 45 46  2  0  0  0  0
 46 47  1  0  0  0  0
 47 48  2  0  0  0  0
 48 43  1  0  0  0  0
 46 49  1  0  0  0  0
M  END
>  <cdx:fragmentId>
67744

$$$$
