20209.cdx
  Mrv1902 05222410222D          

 37 41  0  0  0  0            999 V2000
    3.7999   -7.7963    0.0000 C   0  0  0  0  0  0  0  0  0  0  0  0
    3.7999   -8.6212    0.0000 C   0  0  1  0  0  0  0  0  0  0  0  0
    4.5144   -9.0337    0.0000 C   0  0  0  0  0  0  0  0  0  0  0  0
    5.2289   -8.6212    0.0000 C   0  0  1  0  0  0  0  0  0  0  0  0
    5.2289   -7.7963    0.0000 C   0  0  2  0  0  0  0  0  0  0  0  0
    4.5144   -7.3838    0.0000 C   0  0  0  0  0  0  0  0  0  0  0  0
    5.9433   -9.0337    0.0000 C   0  0  0  0  0  0  0  0  0  0  0  0
    6.6578   -8.6212    0.0000 C   0  0  0  0  0  0  0  0  0  0  0  0
    6.6578   -7.7963    0.0000 C   0  0  2  0  0  0  0  0  0  0  0  0
    5.9433   -7.3838    0.0000 C   0  0  2  0  0  0  0  0  0  0  0  0
    7.3723   -7.3838    0.0000 C   0  0  1  0  0  0  0  0  0  0  0  0
    7.3723   -6.5587    0.0000 C   0  0  2  0  0  0  0  0  0  0  0  0
    6.6578   -6.1463    0.0000 C   0  0  0  0  0  0  0  0  0  0  0  0
    5.9433   -6.5587    0.0000 C   0  0  0  0  0  0  0  0  0  0  0  0
    8.0868   -7.7963    0.0000 C   0  0  0  0  0  0  0  0  0  0  0  0
    8.8012   -7.3838    0.0000 C   0  0  0  0  0  0  0  0  0  0  0  0
    8.8012   -6.5587    0.0000 C   0  0  2  0  0  0  0  0  0  0  0  0
    8.0868   -6.1463    0.0000 C   0  0  2  0  0  0  0  0  0  0  0  0
    9.4143   -6.0067    0.0000 C   0  0  0  0  0  0  0  0  0  0  0  0
    9.0788   -5.2530    0.0000 C   0  0  0  0  0  0  0  0  0  0  0  0
    8.2583   -5.3393    0.0000 C   0  0  1  0  0  0  0  0  0  0  0  0
    3.0855   -9.0337    0.0000 O   0  0  0  0  0  0  0  0  0  0  0  0
    4.1019   -9.7482    0.0000 C   0  0  0  0  0  0  0  0  0  0  0  0
    4.9269   -9.7482    0.0000 C   0  0  0  0  0  0  0  0  0  0  0  0
    9.5157   -6.9712    0.0000 C   0  0  0  0  0  0  0  0  0  0  0  0
    9.5157   -7.7963    0.0000 O   0  0  0  0  0  0  0  0  0  0  0  0
   10.2302   -6.5587    0.0000 O   0  0  0  0  0  0  0  0  0  0  0  0
    7.7062   -4.7262    0.0000 C   0  0  0  0  0  0  0  0  0  0  0  0
    6.9094   -4.9397    0.0000 C   0  0  0  0  0  0  0  0  0  0  0  0
    8.1187   -4.0117    0.0000 C   0  0  0  0  0  0  0  0  0  0  0  0
    5.2289   -6.9712    0.0000 C   0  0  0  0  0  0  0  0  0  0  0  0
    6.6578   -6.9712    0.0000 C   0  0  0  0  0  0  0  0  0  0  0  0
    7.3723   -5.7338    0.0000 O   0  0  0  0  0  0  0  0  0  0  0  0
    8.0868   -6.9712    0.0000 H   0  0  0  0  0  0  0  0  0  0  0  0
    7.3723   -8.2088    0.0000 C   0  0  0  0  0  0  0  0  0  0  0  0
    5.9433   -8.2088    0.0000 H   0  0  0  0  0  0  0  0  0  0  0  0
    5.2289   -9.4462    0.0000 H   0  0  0  0  0  0  0  0  0  0  0  0
  1  2  1  0  0  0  0
  2  3  1  0  0  0  0
  3  4  1  0  0  0  0
  4  5  1  0  0  0  0
  5  6  1  0  0  0  0
  6  1  1  0  0  0  0
  4  7  1  0  0  0  0
  7  8  1  0  0  0  0
  8  9  1  0  0  0  0
  9 10  1  0  0  0  0
 10  5  1  0  0  0  0
  9 11  1  0  0  0  0
 11 12  1  0  0  0  0
 12 13  1  0  0  0  0
 13 14  1  0  0  0  0
 14 10  1  0  0  0  0
 11 15  1  0  0  0  0
 15 16  1  0  0  0  0
 16 17  1  0  0  0  0
 17 18  1  0  0  0  0
 18 12  1  0  0  0  0
 17 19  1  0  0  0  0
 19 20  1  0  0  0  0
 20 21  1  0  0  0  0
 21 18  1  0  0  0  0
  2 22  1  1  0  0  0
  3 23  1  0  0  0  0
  3 24  1  0  0  0  0
 17 25  1  1  0  0  0
 25 26  2  0  0  0  0
 25 27  1  0  0  0  0
 21 28  1  6  0  0  0
 28 29  2  0  0  0  0
 28 30  1  0  0  0  0
  5 31  1  1  0  0  0
  9 32  1  1  0  0  0
 12 33  1  1  0  0  0
 18 34  1  6  0  0  0
 11 35  1  6  0  0  0
 10 36  1  6  0  0  0
  4 37  1  6  0  0  0
M  END
>  <cdx:fragmentId>
5

$$$$
