20204.cdx
  Mrv1902 05222410242D          

 17 16  0  0  0  0            999 V2000
    3.0959  -13.6069    0.0000 C   0  0  0  0  0  0  0  0  0  0  0  0
    3.8118  -13.1969    0.0000 C   0  0  0  0  0  0  0  0  0  0  0  0
    3.8146  -12.3719    0.0000 C   0  0  0  0  0  0  0  0  0  0  0  0
    4.5305  -11.9619    0.0000 C   0  0  0  0  0  0  0  0  0  0  0  0
    4.5334  -11.1369    0.0000 C   0  0  0  0  0  0  0  0  0  0  0  0
    5.2493  -10.7269    0.0000 C   0  0  0  0  0  0  0  0  0  0  0  0
    5.2522   -9.9019    0.0000 C   0  0  0  0  0  0  0  0  0  0  0  0
    5.9681   -9.4919    0.0000 C   0  0  0  0  0  0  0  0  0  0  0  0
    5.9709   -8.6669    0.0000 C   0  0  0  0  0  0  0  0  0  0  0  0
    6.6854   -8.2544    0.0000 C   0  0  0  0  0  0  0  0  0  0  0  0
    7.3999   -8.6669    0.0000 C   0  0  0  0  0  0  0  0  0  0  0  0
    8.1143   -8.2544    0.0000 C   0  0  0  0  0  0  0  0  0  0  0  0
    8.8288   -8.6669    0.0000 C   0  0  0  0  0  0  0  0  0  0  0  0
    9.5433   -8.2544    0.0000 C   0  0  0  0  0  0  0  0  0  0  0  0
   10.2578   -8.6669    0.0000 O   0  0  0  0  0  0  0  0  0  0  0  0
    7.3999   -9.4919    0.0000 O   0  0  0  0  0  0  0  0  0  0  0  0
    9.5433   -7.4294    0.0000 O   0  0  0  0  0  0  0  0  0  0  0  0
  1  2  1  0  0  0  0
  2  3  1  0  0  0  0
  3  4  1  0  0  0  0
  4  5  1  0  0  0  0
  5  6  1  0  0  0  0
  6  7  1  0  0  0  0
  7  8  1  0  0  0  0
  8  9  1  0  0  0  0
  9 10  2  0  0  0  0
 10 11  1  0  0  0  0
 11 12  1  0  0  0  0
 12 13  1  0  0  0  0
 13 14  1  0  0  0  0
 14 15  1  0  0  0  0
 11 16  2  0  0  0  0
 14 17  2  0  0  0  0
M  END
>  <cdx:fragmentId>
3

$$$$
