20201.cdx
  Mrv1902 05222410252D          

 21 20  0  0  0  0            999 V2000
   13.1629   -4.1533    0.0000 C   0  0  0  0  0  0  0  0  0  0  0  0
   12.4484   -3.7408    0.0000 C   0  0  0  0  0  0  0  0  0  0  0  0
   13.8774   -3.7408    0.0000 O   0  0  0  0  0  0  0  0  0  0  0  0
   11.0195   -3.7408    0.0000 C   0  0  0  0  0  0  0  0  0  0  0  0
   10.3050   -4.1533    0.0000 C   0  0  0  0  0  0  0  0  0  0  0  0
    9.5905   -3.7408    0.0000 C   0  0  0  0  0  0  0  0  0  0  0  0
    8.8761   -4.1533    0.0000 C   0  0  0  0  0  0  0  0  0  0  0  0
    8.1616   -3.7408    0.0000 C   0  0  0  0  0  0  0  0  0  0  0  0
    7.4471   -4.1533    0.0000 C   0  0  0  0  0  0  0  0  0  0  0  0
    6.7327   -3.7408    0.0000 C   0  0  0  0  0  0  0  0  0  0  0  0
    6.0182   -4.1533    0.0000 C   0  0  0  0  0  0  0  0  0  0  0  0
    5.3037   -3.7408    0.0000 C   0  0  0  0  0  0  0  0  0  0  0  0
    4.5892   -4.1533    0.0000 C   0  0  0  0  0  0  0  0  0  0  0  0
    3.8748   -3.7408    0.0000 C   0  0  0  0  0  0  0  0  0  0  0  0
    3.1603   -4.1533    0.0000 C   0  0  0  0  0  0  0  0  0  0  0  0
    2.4458   -3.7408    0.0000 C   0  0  0  0  0  0  0  0  0  0  0  0
    1.7314   -4.1533    0.0000 C   0  0  0  0  0  0  0  0  0  0  0  0
    1.0169   -3.7408    0.0000 C   0  0  0  0  0  0  0  0  0  0  0  0
    0.3024   -4.1533    0.0000 C   0  0  0  0  0  0  0  0  0  0  0  0
   11.0195   -2.9158    0.0000 O   0  0  0  0  0  0  0  0  0  0  0  0
   11.7340   -4.1533    0.0000 O   0  0  0  0  0  0  0  0  0  0  0  0
  1  2  1  0  0  0  0
  1  3  1  0  0  0  0
  4  5  1  0  0  0  0
  5  6  1  0  0  0  0
  6  7  1  0  0  0  0
  7  8  1  0  0  0  0
  8  9  1  0  0  0  0
  9 10  1  0  0  0  0
 10 11  1  0  0  0  0
 11 12  1  0  0  0  0
 12 13  1  0  0  0  0
 13 14  1  0  0  0  0
 14 15  1  0  0  0  0
 15 16  1  0  0  0  0
 16 17  1  0  0  0  0
 17 18  1  0  0  0  0
 18 19  1  0  0  0  0
  4 20  2  0  0  0  0
  4 21  1  0  0  0  0
  2 21  1  0  0  0  0
M  END
>  <cdx:groupId>
64

>  <cdx:fragmentId>
11

$$$$
