20202.cdx
  Mrv1902 05222410262D          

 22 22  0  0  0  0            999 V2000
    7.5529   -7.4607    0.0000 C   0  0  0  0  0  0  0  0  0  0  0  0
    8.9818   -5.8107    0.0000 C   0  0  0  0  0  0  0  0  0  0  0  0
    7.5529   -9.9357    0.0000 O   0  0  0  0  0  0  0  0  0  0  0  0
    6.1239  -10.7607    0.0000 O   0  0  0  0  0  0  0  0  0  0  0  0
    4.6950   -9.9357    0.0000 O   0  0  0  0  0  0  0  0  0  0  0  0
    3.9805   -8.6982    0.0000 O   0  0  0  0  0  0  0  0  0  0  0  0
    4.6950   -8.2857    0.0000 C   0  0  0  0  0  0  0  0  0  0  0  0
    5.4095   -8.6982    0.0000 C   0  0  2  0  0  0  0  0  0  0  0  0
    5.4095   -9.5232    0.0000 C   0  0  2  0  0  0  0  0  0  0  0  0
    6.1239   -9.9357    0.0000 C   0  0  1  0  0  0  0  0  0  0  0  0
    6.8384   -9.5232    0.0000 C   0  0  2  0  0  0  0  0  0  0  0  0
    6.8384   -8.6982    0.0000 C   0  0  1  0  0  0  0  0  0  0  0  0
    6.1239   -8.2857    0.0000 O   0  0  0  0  0  0  0  0  0  0  0  0
    5.4095   -5.3982    0.0000 O   0  0  0  0  0  0  0  0  0  0  0  0
    8.2674   -6.2232    0.0000 C   0  0  0  0  0  0  0  0  0  0  0  0
    8.2674   -7.0482    0.0000 C   0  0  0  0  0  0  0  0  0  0  0  0
    5.7114   -6.5252    0.0000 O   0  0  0  0  0  0  0  0  0  0  0  0
    7.5529   -8.2857    0.0000 S   0  0  0  0  0  0  0  0  0  0  0  0
    6.5364   -5.0962    0.0000 O   0  0  0  0  0  0  0  0  0  0  0  0
    6.1239   -5.8107    0.0000 S   0  0  0  0  0  0  0  0  0  0  0  0
    6.8384   -6.2232    0.0000 O   0  0  0  0  0  0  0  0  0  0  0  0
    6.8384   -7.0482    0.0000 N   0  0  0  0  0  0  0  0  0  0  0  0
 12 18  1  1  0  0  0
 11  3  1  6  0  0  0
 10  4  1  1  0  0  0
  9  5  1  6  0  0  0
  8  7  1  1  0  0  0
  7  6  1  0  0  0  0
 13  8  1  0  0  0  0
  9  8  1  0  0  0  0
 10  9  1  0  0  0  0
 11 10  1  0  0  0  0
 12 11  1  0  0  0  0
 13 12  1  0  0  0  0
 15  2  2  0  0  0  0
 16 15  1  0  0  0  0
 22 21  1  0  0  0  0
 21 20  1  0  0  0  0
  1 18  1  0  0  0  0
 20 14  1  0  0  0  0
 20 17  2  0  0  0  0
 20 19  2  0  0  0  0
  1 16  1  0  0  0  0
  1 22  2  0  0  0  0
M  END
>  <cdx:fragmentId>
27

$$$$
