202123.cdx
  Mrv1902 05222410232D          

 40 44  0  0  0  0            999 V2000
    6.3615   -8.8197    0.0000 H   0  0  0  0  0  0  0  0  0  0  0  0
    7.0596   -7.5730    0.0000 H   0  0  0  0  0  0  0  0  0  0  0  0
    5.6090   -6.7669    0.0000 C   0  0  0  0  0  0  0  0  0  0  0  0
    4.8999   -7.1886    0.0000 C   0  0  1  0  0  0  0  0  0  0  0  0
    4.9107   -8.0136    0.0000 C   0  0  1  0  0  0  0  0  0  0  0  0
    5.6305   -8.4167    0.0000 C   0  0  1  0  0  0  0  0  0  0  0  0
    6.3395   -7.9949    0.0000 C   0  0  2  0  0  0  0  0  0  0  0  0
    7.0593   -8.3981    0.0000 C   0  0  0  0  0  0  0  0  0  0  0  0
    7.7683   -7.9763    0.0000 C   0  0  0  0  0  0  0  0  0  0  0  0
    7.7576   -7.1514    0.0000 C   0  0  1  0  0  0  0  0  0  0  0  0
    8.4666   -6.7296    0.0000 C   0  0  2  0  0  0  0  0  0  0  0  0
    9.1864   -7.1328    0.0000 C   0  0  0  0  0  0  0  0  0  0  0  0
    9.8954   -6.7110    0.0000 C   0  0  0  0  0  0  0  0  0  0  0  0
    9.8847   -5.8861    0.0000 C   0  0  1  0  0  0  0  0  0  0  0  0
   10.5937   -5.4643    0.0000 C   0  0  0  0  0  0  0  0  0  0  0  0
   10.5830   -4.6394    0.0000 C   0  0  0  0  0  0  0  0  0  0  0  0
    9.8632   -4.2362    0.0000 C   0  0  0  0  0  0  0  0  0  0  0  0
    9.1541   -4.6580    0.0000 C   0  0  0  0  0  0  0  0  0  0  0  0
    9.1649   -5.4829    0.0000 C   0  0  1  0  0  0  0  0  0  0  0  0
    8.4559   -5.9047    0.0000 C   0  0  0  0  0  0  0  0  0  0  0  0
    7.7361   -5.5015    0.0000 C   0  0  0  0  0  0  0  0  0  0  0  0
    7.0270   -5.9233    0.0000 C   0  0  0  0  0  0  0  0  0  0  0  0
    7.0378   -6.7482    0.0000 C   0  0  2  0  0  0  0  0  0  0  0  0
    6.3288   -7.1700    0.0000 C   0  0  1  0  0  0  0  0  0  0  0  0
   10.6045   -6.2892    0.0000 C   0  0  0  0  0  0  0  0  0  0  0  0
   10.6152   -7.1141    0.0000 O   0  0  0  0  0  0  0  0  0  0  0  0
   11.3135   -5.8674    0.0000 O   0  0  0  0  0  0  0  0  0  0  0  0
    6.3180   -6.3451    0.0000 C   0  0  0  0  0  0  0  0  0  0  0  0
    9.4414   -3.5272    0.0000 C   0  0  0  0  0  0  0  0  0  0  0  0
   10.2663   -3.5164    0.0000 C   0  0  0  0  0  0  0  0  0  0  0  0
    7.7468   -6.3265    0.0000 C   0  0  0  0  0  0  0  0  0  0  0  0
    6.0619   -9.1199    0.0000 C   0  0  0  0  0  0  0  0  0  0  0  0
    8.4774   -7.5545    0.0000 C   0  0  0  0  0  0  0  0  0  0  0  0
    9.1972   -7.9577    0.0000 O   0  0  0  0  0  0  0  0  0  0  0  0
    4.2017   -8.4353    0.0000 O   0  0  0  0  0  0  0  0  0  0  0  0
    4.1802   -6.7855    0.0000 O   0  0  0  0  0  0  0  0  0  0  0  0
    8.4398   -5.0894    0.0000 H   0  0  0  0  0  0  0  0  0  0  0  0
    5.2273   -9.1365    0.0000 C   0  0  0  0  0  0  0  0  0  0  0  0
    5.6491   -9.8455    0.0000 O   0  0  0  0  0  0  0  0  0  0  0  0
    4.4024   -9.1473    0.0000 O   0  0  0  0  0  0  0  0  0  0  0  0
  7  1  1  6  0  0  0
 23  2  1  6  0  0  0
  3  4  1  0  0  0  0
  4  5  1  0  0  0  0
  5  6  1  0  0  0  0
  6  7  1  0  0  0  0
  7  8  1  0  0  0  0
  8  9  1  0  0  0  0
  9 10  1  0  0  0  0
 10 11  1  0  0  0  0
 11 12  1  0  0  0  0
 12 13  1  0  0  0  0
 13 14  1  0  0  0  0
 14 15  1  0  0  0  0
 15 16  1  0  0  0  0
 16 17  1  0  0  0  0
 17 18  1  0  0  0  0
 18 19  1  0  0  0  0
 14 19  1  0  0  0  0
 19 20  1  0  0  0  0
 11 20  1  0  0  0  0
 20 21  2  0  0  0  0
 21 22  1  0  0  0  0
 22 23  1  0  0  0  0
 10 23  1  0  0  0  0
 23 24  1  0  0  0  0
  7 24  1  0  0  0  0
  3 24  1  0  0  0  0
 25 26  2  0  0  0  0
 25 27  1  0  0  0  0
 14 25  1  1  0  0  0
 24 28  1  1  0  0  0
 17 29  1  0  0  0  0
 17 30  1  0  0  0  0
 10 31  1  1  0  0  0
  6 32  1  1  0  0  0
 33 34  1  0  0  0  0
 11 33  1  6  0  0  0
  5 35  1  1  0  0  0
  4 36  1  1  0  0  0
 19 37  1  1  0  0  0
  6 38  1  0  0  0  0
 38 39  2  0  0  0  0
 38 40  1  0  0  0  0
M  END
>  <cdx:fragmentId>
205

$$$$
