44202127.cdx
  Mrv1902 05222410252D          

101111  0  0  0  0            999 V2000
    4.5967   -6.6407    0.0000 C   0  0  0  0  0  0  0  0  0  0  0  0
    3.8823   -7.0532    0.0000 C   0  0  0  0  0  0  0  0  0  0  0  0
    3.8823   -7.8782    0.0000 C   0  0  0  0  0  0  0  0  0  0  0  0
    4.5967   -8.2907    0.0000 C   0  0  2  0  0  0  0  0  0  0  0  0
    5.3112   -7.8782    0.0000 C   0  0  0  0  0  0  0  0  0  0  0  0
    6.0257   -8.2907    0.0000 C   0  0  0  0  0  0  0  0  0  0  0  0
    6.7401   -7.8782    0.0000 C   0  0  0  0  0  0  0  0  0  0  0  0
    6.7401   -7.0532    0.0000 C   0  0  1  0  0  0  0  0  0  0  0  0
    7.4546   -6.6407    0.0000 C   0  0  2  0  0  0  0  0  0  0  0  0
    8.1691   -7.0532    0.0000 C   0  0  0  0  0  0  0  0  0  0  0  0
    8.8836   -6.6407    0.0000 C   0  0  0  0  0  0  0  0  0  0  0  0
    8.8836   -5.8157    0.0000 C   0  0  1  0  0  0  0  0  0  0  0  0
    9.5980   -5.4032    0.0000 C   0  0  0  0  0  0  0  0  0  0  0  0
    9.5980   -4.5782    0.0000 C   0  0  0  0  0  0  0  0  0  0  0  0
    8.8836   -4.1657    0.0000 C   0  0  0  0  0  0  0  0  0  0  0  0
    8.1691   -4.5782    0.0000 C   0  0  0  0  0  0  0  0  0  0  0  0
    8.1691   -5.4032    0.0000 C   0  0  2  0  0  0  0  0  0  0  0  0
    7.4546   -5.8157    0.0000 C   0  0  0  0  0  0  0  0  0  0  0  0
    6.7401   -5.4032    0.0000 C   0  0  0  0  0  0  0  0  0  0  0  0
    6.0257   -5.8157    0.0000 C   0  0  0  0  0  0  0  0  0  0  0  0
    6.0257   -6.6407    0.0000 C   0  0  0  0  0  0  0  0  0  0  0  0
    5.3112   -7.0532    0.0000 C   0  0  1  0  0  0  0  0  0  0  0  0
    4.5967   -9.1157    0.0000 C   0  0  0  0  0  0  0  0  0  0  0  0
    5.3112   -9.5282    0.0000 O   0  0  0  0  0  0  0  0  0  0  0  0
    3.8823   -9.5282    0.0000 O   0  0  0  0  0  0  0  0  0  0  0  0
    3.1678   -8.2907    0.0000 O   0  0  0  0  0  0  0  0  0  0  0  0
    2.4533   -7.0532    0.0000 O   0  0  0  0  0  0  0  0  0  0  0  0
    2.4533   -7.8782    0.0000 C   0  0  2  0  0  0  0  0  0  0  0  0
    1.7388   -8.2907    0.0000 C   0  0  1  0  0  0  0  0  0  0  0  0
    1.0244   -7.8782    0.0000 C   0  0  2  0  0  0  0  0  0  0  0  0
    1.0244   -7.0532    0.0000 C   0  0  0  0  0  0  0  0  0  0  0  0
    1.7388   -6.6407    0.0000 C   0  0  0  0  0  0  0  0  0  0  0  0
    1.7388   -5.8157    0.0000 C   0  0  0  0  0  0  0  0  0  0  0  0
    1.0244   -5.4032    0.0000 O   0  0  0  0  0  0  0  0  0  0  0  0
    0.3099   -6.6407    0.0000 O   0  0  0  0  0  0  0  0  0  0  0  0
    0.3099   -8.2907    0.0000 O   0  0  0  0  0  0  0  0  0  0  0  0
    1.7388   -9.1157    0.0000 O   0  0  0  0  0  0  0  0  0  0  0  0
    5.3112   -6.2282    0.0000 C   0  0  0  0  0  0  0  0  0  0  0  0
    8.4711   -3.4512    0.0000 C   0  0  0  0  0  0  0  0  0  0  0  0
    9.2961   -3.4512    0.0000 C   0  0  0  0  0  0  0  0  0  0  0  0
    6.7401   -6.2282    0.0000 C   0  0  0  0  0  0  0  0  0  0  0  0
    5.3112   -8.7032    0.0000 C   0  0  0  0  0  0  0  0  0  0  0  0
    7.4546   -7.4657    0.0000 C   0  0  0  0  0  0  0  0  0  0  0  0
    8.1691   -7.8782    0.0000 O   0  0  0  0  0  0  0  0  0  0  0  0
    3.1678   -6.6407    0.0000 O   0  0  0  0  0  0  0  0  0  0  0  0
    9.5980   -6.2282    0.0000 C   0  0  0  0  0  0  0  0  0  0  0  0
    9.5980   -7.0532    0.0000 O   0  0  0  0  0  0  0  0  0  0  0  0
   10.3125   -5.8157    0.0000 O   0  0  0  0  0  0  0  0  0  0  0  0
   11.0270   -7.0532    0.0000 O   0  0  0  0  0  0  0  0  0  0  0  0
   11.0270   -6.2282    0.0000 C   0  0  2  0  0  0  0  0  0  0  0  0
   11.7414   -5.8157    0.0000 C   0  0  0  0  0  0  0  0  0  0  0  0
   12.4559   -6.2282    0.0000 C   0  0  0  0  0  0  0  0  0  0  0  0
   12.4559   -7.0532    0.0000 C   0  0  2  0  0  0  0  0  0  0  0  0
   11.7414   -7.4657    0.0000 C   0  0  2  0  0  0  0  0  0  0  0  0
   11.7414   -8.2907    0.0000 C   0  0  0  0  0  0  0  0  0  0  0  0
   13.1704   -7.4657    0.0000 O   0  0  0  0  0  0  0  0  0  0  0  0
   13.1704   -8.2907    0.0000 C   0  0  0  0  0  0  0  0  0  0  0  0
   13.8849   -8.7032    0.0000 C   0  0  0  0  0  0  0  0  0  0  0  0
   13.8849   -9.5282    0.0000 C   0  0  0  0  0  0  0  0  0  0  0  0
   12.4559   -8.7032    0.0000 O   0  0  0  0  0  0  0  0  0  0  0  0
   13.1704   -9.9407    0.0000 C   0  0  0  0  0  0  0  0  0  0  0  0
   12.4559   -9.5282    0.0000 C   0  0  0  0  0  0  0  0  0  0  0  0
   11.7414   -9.9407    0.0000 C   0  0  0  0  0  0  0  0  0  0  0  0
   11.7414  -10.7657    0.0000 C   0  0  0  0  0  0  0  0  0  0  0  0
   12.4559  -11.1782    0.0000 C   0  0  0  0  0  0  0  0  0  0  0  0
   13.1704  -10.7657    0.0000 C   0  0  0  0  0  0  0  0  0  0  0  0
   11.0270  -11.1782    0.0000 O   0  0  0  0  0  0  0  0  0  0  0  0
   10.3125  -10.7657    0.0000 C   0  0  0  0  0  0  0  0  0  0  0  0
   13.1704   -5.8157    0.0000 O   0  0  0  0  0  0  0  0  0  0  0  0
   11.7414   -4.9907    0.0000 O   0  0  0  0  0  0  0  0  0  0  0  0
   13.1704   -4.9907    0.0000 O   0  0  0  0  0  0  0  0  0  0  0  0
   12.4559   -4.5782    0.0000 C   0  0  2  0  0  0  0  0  0  0  0  0
   12.4559   -3.7532    0.0000 C   0  0  0  0  0  0  0  0  0  0  0  0
   13.1704   -3.3407    0.0000 C   0  0  0  0  0  0  0  0  0  0  0  0
   13.8849   -3.7532    0.0000 C   0  0  2  0  0  0  0  0  0  0  0  0
   13.8849   -4.5782    0.0000 C   0  0  0  0  0  0  0  0  0  0  0  0
   14.5993   -4.9907    0.0000 C   0  0  0  0  0  0  0  0  0  0  0  0
   13.1704   -2.5157    0.0000 O   0  0  0  0  0  0  0  0  0  0  0  0
   11.7414   -3.3407    0.0000 O   0  0  0  0  0  0  0  0  0  0  0  0
   14.5993   -3.3407    0.0000 O   0  0  0  0  0  0  0  0  0  0  0  0
   15.3138   -4.5782    0.0000 O   0  0  0  0  0  0  0  0  0  0  0  0
   15.3138   -3.7532    0.0000 C   0  0  2  0  0  0  0  0  0  0  0  0
   16.0283   -3.3407    0.0000 C   0  0  0  0  0  0  0  0  0  0  0  0
   16.7427   -3.7532    0.0000 C   0  0  0  0  0  0  0  0  0  0  0  0
   16.7427   -4.5782    0.0000 C   0  0  0  0  0  0  0  0  0  0  0  0
   16.0283   -4.9907    0.0000 C   0  0  0  0  0  0  0  0  0  0  0  0
   17.4572   -4.9907    0.0000 O   0  0  0  0  0  0  0  0  0  0  0  0
   18.1717   -3.7532    0.0000 O   0  0  0  0  0  0  0  0  0  0  0  0
   18.1717   -4.5782    0.0000 C   0  0  1  0  0  0  0  0  0  0  0  0
   18.8862   -4.9907    0.0000 C   0  0  0  0  0  0  0  0  0  0  0  0
   19.6006   -4.5782    0.0000 C   0  0  0  0  0  0  0  0  0  0  0  0
   19.6006   -3.7532    0.0000 C   0  0  1  0  0  0  0  0  0  0  0  0
   18.8862   -3.3407    0.0000 C   0  0  1  0  0  0  0  0  0  0  0  0
   18.8862   -2.5157    0.0000 C   0  0  0  0  0  0  0  0  0  0  0  0
   19.6006   -2.1032    0.0000 O   0  0  0  0  0  0  0  0  0  0  0  0
   20.3151   -3.3407    0.0000 O   0  0  0  0  0  0  0  0  0  0  0  0
   20.3151   -4.9907    0.0000 O   0  0  0  0  0  0  0  0  0  0  0  0
   18.8862   -5.8157    0.0000 O   0  0  0  0  0  0  0  0  0  0  0  0
   17.4572   -3.3407    0.0000 O   0  0  0  0  0  0  0  0  0  0  0  0
   16.0283   -2.5157    0.0000 O   0  0  0  0  0  0  0  0  0  0  0  0
    8.1691   -6.2282    0.0000 H   0  0  0  0  0  0  0  0  0  0  0  0
  1  2  1  0  0  0  0
  2  3  1  0  0  0  0
  3  4  1  0  0  0  0
  4  5  1  0  0  0  0
  5  6  1  0  0  0  0
  6  7  1  0  0  0  0
  7  8  1  0  0  0  0
  8  9  1  0  0  0  0
  9 10  1  0  0  0  0
 10 11  1  0  0  0  0
 11 12  1  0  0  0  0
 12 13  1  0  0  0  0
 13 14  1  0  0  0  0
 14 15  1  0  0  0  0
 15 16  1  0  0  0  0
 16 17  1  0  0  0  0
 12 17  1  0  0  0  0
 17 18  1  0  0  0  0
  9 18  1  0  0  0  0
 18 19  2  0  0  0  0
 19 20  1  0  0  0  0
 20 21  1  0  0  0  0
  8 21  1  0  0  0  0
 21 22  1  0  0  0  0
  5 22  1  0  0  0  0
  1 22  1  0  0  0  0
 23 24  2  0  0  0  0
 23 25  1  0  0  0  0
  4 23  1  0  0  0  0
 27 28  1  0  0  0  0
 28 29  1  0  0  0  0
 29 30  1  0  0  0  0
 30 31  1  0  0  0  0
 31 32  1  0  0  0  0
 27 32  1  0  0  0  0
 33 34  1  0  0  0  0
 32 33  1  0  0  0  0
 31 35  1  0  0  0  0
 30 36  1  1  0  0  0
 29 37  1  6  0  0  0
 28 26  1  1  0  0  0
  3 26  1  0  0  0  0
 22 38  1  1  0  0  0
 15 39  1  0  0  0  0
 15 40  1  0  0  0  0
  8 41  1  1  0  0  0
  4 42  1  1  0  0  0
 43 44  1  0  0  0  0
  9 43  1  6  0  0  0
  2 45  1  0  0  0  0
 46 47  2  0  0  0  0
 49 50  1  0  0  0  0
 50 51  1  0  0  0  0
 51 52  1  0  0  0  0
 52 53  1  0  0  0  0
 53 54  1  0  0  0  0
 49 54  1  0  0  0  0
 54 55  1  6  0  0  0
 57 58  1  0  0  0  0
 58 59  2  0  0  0  0
 57 60  2  0  0  0  0
 61 62  1  0  0  0  0
 62 63  2  0  0  0  0
 63 64  1  0  0  0  0
 64 65  2  0  0  0  0
 65 66  1  0  0  0  0
 61 66  2  0  0  0  0
 67 68  1  0  0  0  0
 64 67  1  0  0  0  0
 59 61  1  0  0  0  0
 56 57  1  0  0  0  0
 53 56  1  1  0  0  0
 52 69  1  0  0  0  0
 71 72  1  0  0  0  0
 72 73  1  0  0  0  0
 73 74  1  0  0  0  0
 74 75  1  0  0  0  0
 75 76  1  0  0  0  0
 71 76  1  0  0  0  0
 76 77  1  0  0  0  0
 74 78  1  0  0  0  0
 73 79  1  0  0  0  0
 81 82  1  0  0  0  0
 82 83  1  0  0  0  0
 83 84  1  0  0  0  0
 84 85  1  0  0  0  0
 85 86  1  0  0  0  0
 81 86  1  0  0  0  0
 88 89  1  0  0  0  0
 89 90  1  0  0  0  0
 90 91  1  0  0  0  0
 91 92  1  0  0  0  0
 92 93  1  0  0  0  0
 88 93  1  0  0  0  0
 94 95  1  0  0  0  0
 93 94  1  6  0  0  0
 92 96  1  1  0  0  0
 91 97  1  0  0  0  0
 90 98  1  0  0  0  0
 89 87  1  1  0  0  0
 85 87  1  0  0  0  0
 84 99  1  0  0  0  0
 83100  1  0  0  0  0
 82 80  1  1  0  0  0
 75 80  1  1  0  0  0
 72 70  1  1  0  0  0
 51 70  1  0  0  0  0
 50 48  1  1  0  0  0
 46 48  1  0  0  0  0
 12 46  1  1  0  0  0
 17101  1  6  0  0  0
M  END
>  <cdx:groupId>
315

>  <cdx:fragmentId>
179

$$$$
