20218.cdx
  Mrv1902 05222410212D          

 15 16  0  0  0  0            999 V2000
    8.3948   -7.8554    0.0000 O   0  0  0  0  0  0  0  0  0  0  0  0
    9.7865   -5.3593    0.0000 C   0  0  0  0  0  0  0  0  0  0  0  0
    6.9166   -4.5772    0.0000 O   0  0  0  0  0  0  0  0  0  0  0  0
    6.9660   -7.8768    0.0000 C   0  0  0  0  0  0  0  0  0  0  0  0
    5.5249   -7.0733    0.0000 O   0  0  0  0  0  0  0  0  0  0  0  0
    8.3824   -7.0305    0.0000 C   0  0  0  0  0  0  0  0  0  0  0  0
    9.0907   -6.6073    0.0000 C   0  0  0  0  0  0  0  0  0  0  0  0
    9.0783   -5.7824    0.0000 C   0  0  0  0  0  0  0  0  0  0  0  0
    8.3577   -5.3807    0.0000 O   0  0  0  0  0  0  0  0  0  0  0  0
    6.9537   -7.0519    0.0000 C   0  0  0  0  0  0  0  0  0  0  0  0
    7.6619   -6.6287    0.0000 C   0  0  0  0  0  0  0  0  0  0  0  0
    7.6495   -5.8038    0.0000 C   0  0  0  0  0  0  0  0  0  0  0  0
    6.9289   -5.4021    0.0000 C   0  0  0  0  0  0  0  0  0  0  0  0
    6.2207   -5.8252    0.0000 C   0  0  0  0  0  0  0  0  0  0  0  0
    6.2331   -6.6502    0.0000 C   0  0  0  0  0  0  0  0  0  0  0  0
  6  1  2  0  0  0  0
  8  2  1  0  0  0  0
 13  3  1  0  0  0  0
 10  4  1  0  0  0  0
 15  5  1  0  0  0  0
  6 11  1  0  0  0  0
  7  6  1  0  0  0  0
  8  7  2  0  0  0  0
  9  8  1  0  0  0  0
 12  9  1  0  0  0  0
 10 15  1  0  0  0  0
 11 10  2  0  0  0  0
 12 11  1  0  0  0  0
 13 12  2  0  0  0  0
 14 13  1  0  0  0  0
 15 14  2  0  0  0  0
M  END
>  <cdx:fragmentId>
5

$$$$
