20212.cdx
  Mrv1902 05222410232D          

 37 39  0  0  0  0            999 V2000
    3.2018   -9.4462    0.0000 C   0  0  0  0  0  0  0  0  0  0  0  0
    3.2018  -10.2713    0.0000 O   0  0  0  0  0  0  0  0  0  0  0  0
    4.6307   -9.4462    0.0000 O   0  0  0  0  0  0  0  0  0  0  0  0
    3.9163   -9.0337    0.0000 C   0  0  0  0  0  0  0  0  0  0  0  0
    5.3452  -10.6837    0.0000 O   0  0  0  0  0  0  0  0  0  0  0  0
    6.0597  -10.2713    0.0000 C   0  0  0  0  0  0  0  0  0  0  0  0
    6.0597   -9.4462    0.0000 C   0  0  0  0  0  0  0  0  0  0  0  0
    5.3452   -9.0337    0.0000 C   0  0  0  0  0  0  0  0  0  0  0  0
    6.7742  -10.6837    0.0000 C   0  0  0  0  0  0  0  0  0  0  0  0
    7.4886  -10.2713    0.0000 C   0  0  0  0  0  0  0  0  0  0  0  0
    7.4886   -9.4462    0.0000 C   0  0  0  0  0  0  0  0  0  0  0  0
    6.7742   -9.0337    0.0000 O   0  0  0  0  0  0  0  0  0  0  0  0
    8.2031   -9.0337    0.0000 O   0  0  0  0  0  0  0  0  0  0  0  0
    8.2031   -8.2088    0.0000 C   0  0  0  0  0  0  0  0  0  0  0  0
    7.4886   -7.7963    0.0000 C   0  0  0  0  0  0  0  0  0  0  0  0
    8.9176   -7.7963    0.0000 C   0  0  0  0  0  0  0  0  0  0  0  0
    8.9176   -6.9712    0.0000 C   0  0  0  0  0  0  0  0  0  0  0  0
    8.2031   -6.5587    0.0000 C   0  0  0  0  0  0  0  0  0  0  0  0
    7.4886   -6.9712    0.0000 C   0  0  0  0  0  0  0  0  0  0  0  0
    3.7447   -8.2268    0.0000 O   0  0  0  0  0  0  0  0  0  0  0  0
    2.9243   -8.1405    0.0000 C   0  0  0  0  0  0  0  0  0  0  0  0
    2.5887   -8.8942    0.0000 C   0  0  0  0  0  0  0  0  0  0  0  0
    6.7742  -11.5087    0.0000 O   0  0  0  0  0  0  0  0  0  0  0  0
    8.2031  -10.6837    0.0000 O   0  0  0  0  0  0  0  0  0  0  0  0
    1.7918   -8.6807    0.0000 C   0  0  0  0  0  0  0  0  0  0  0  0
    1.7918   -7.8557    0.0000 O   0  0  0  0  0  0  0  0  0  0  0  0
    2.1762   -9.6087    0.0000 O   0  0  0  0  0  0  0  0  0  0  0  0
    9.3301   -6.2568    0.0000 C   0  0  0  0  0  0  0  0  0  0  0  0
    9.7145   -7.1848    0.0000 C   0  0  0  0  0  0  0  0  0  0  0  0
    7.0761   -6.2568    0.0000 C   0  0  0  0  0  0  0  0  0  0  0  0
    6.6917   -7.1848    0.0000 O   0  0  0  0  0  0  0  0  0  0  0  0
    8.2031   -5.7338    0.0000 C   0  0  0  0  0  0  0  0  0  0  0  0
    8.2031   -4.9088    0.0000 C   0  0  0  0  0  0  0  0  0  0  0  0
    8.9176   -4.4962    0.0000 C   0  0  0  0  0  0  0  0  0  0  0  0
    8.9176   -3.6713    0.0000 C   0  0  0  0  0  0  0  0  0  0  0  0
    9.6320   -4.9088    0.0000 O   0  0  0  0  0  0  0  0  0  0  0  0
    7.7980   -4.6819    0.0000 H   0  0  0  0  0  0  0  0  0  0  0  0
  1  2  1  0  0  0  0
  3  4  1  0  0  0  0
  4  1  1  0  0  0  0
  5  6  1  0  0  0  0
  6  7  1  0  0  0  0
  7  8  1  0  0  0  0
  8  3  1  0  0  0  0
  6  9  1  0  0  0  0
  9 10  1  0  0  0  0
 10 11  1  0  0  0  0
 11 12  1  0  0  0  0
 12  7  1  0  0  0  0
 11 13  1  0  0  0  0
 13 14  1  0  0  0  0
 14 15  1  0  0  0  0
 14 16  1  0  0  0  0
 16 17  1  0  0  0  0
 17 18  1  0  0  0  0
 18 19  1  0  0  0  0
 19 15  1  0  0  0  0
  4 20  1  0  0  0  0
 20 21  1  0  0  0  0
 21 22  1  0  0  0  0
 22  1  1  0  0  0  0
  9 23  1  0  0  0  0
 10 24  1  0  0  0  0
 22 25  1  0  0  0  0
 25 26  1  0  0  0  0
 22 27  1  0  0  0  0
 17 28  1  0  0  0  0
 17 29  1  0  0  0  0
 19 30  1  0  0  0  0
 19 31  1  0  0  0  0
 18 32  2  0  0  0  0
 32 33  2  0  0  0  0
 33 34  1  0  0  0  0
 34 35  1  0  0  0  0
 34 36  2  0  0  0  0
 33 37  1  0  0  0  0
M  END
>  <cdx:fragmentId>
5

$$$$
