20210.cdx
  Mrv1902 05222410242D          

 16 15  0  0  0  0            999 V2000
   11.8225   -7.5075    0.0000 O   0  0  0  0  0  0  0  0  0  0  0  0
   11.1081   -7.0950    0.0000 C   0  0  0  0  0  0  0  0  0  0  0  0
   10.3936   -7.5075    0.0000 C   0  0  0  0  0  0  0  0  0  0  0  0
    9.6791   -7.0950    0.0000 C   0  0  0  0  0  0  0  0  0  0  0  0
    8.9646   -7.5075    0.0000 C   0  0  0  0  0  0  0  0  0  0  0  0
    8.2502   -7.0950    0.0000 C   0  0  0  0  0  0  0  0  0  0  0  0
    7.5357   -7.5075    0.0000 C   0  0  0  0  0  0  0  0  0  0  0  0
    6.8212   -7.0950    0.0000 C   0  0  0  0  0  0  0  0  0  0  0  0
    6.1068   -7.5075    0.0000 C   0  0  0  0  0  0  0  0  0  0  0  0
    5.3923   -7.0950    0.0000 C   0  0  0  0  0  0  0  0  0  0  0  0
    4.6778   -7.5075    0.0000 C   0  0  0  0  0  0  0  0  0  0  0  0
    3.9633   -7.0950    0.0000 C   0  0  0  0  0  0  0  0  0  0  0  0
    3.2489   -7.5075    0.0000 C   0  0  0  0  0  0  0  0  0  0  0  0
    2.5344   -7.0950    0.0000 O   0  0  0  0  0  0  0  0  0  0  0  0
    3.2489   -8.3325    0.0000 O   0  0  0  0  0  0  0  0  0  0  0  0
   11.1081   -6.2700    0.0000 O   0  0  0  0  0  0  0  0  0  0  0  0
  2  1  1  0  0  0  0
  3  2  1  0  0  0  0
  4  3  2  0  0  0  0
  5  4  1  0  0  0  0
  6  5  1  0  0  0  0
  7  6  1  0  0  0  0
  8  7  1  0  0  0  0
  9  8  1  0  0  0  0
 10  9  1  0  0  0  0
 11 10  1  0  0  0  0
 12 11  1  0  0  0  0
 13 12  1  0  0  0  0
 14 13  1  0  0  0  0
 13 15  2  0  0  0  0
  2 16  2  0  0  0  0
M  END
>  <cdx:fragmentId>
3

$$$$
