20228.cdx
  Mrv1902 05222410242D          

 23 24  0  0  0  0            999 V2000
    5.9196   -6.5384    0.0000 C   0  0  2  0  0  0  0  0  0  0  0  0
    5.1998   -6.9416    0.0000 C   0  0  1  0  0  0  0  0  0  0  0  0
    5.1892   -7.7665    0.0000 C   0  0  1  0  0  0  0  0  0  0  0  0
    5.8982   -8.1882    0.0000 C   0  0  2  0  0  0  0  0  0  0  0  0
    6.6180   -7.7850    0.0000 C   0  0  2  0  0  0  0  0  0  0  0  0
    6.6287   -6.9601    0.0000 O   0  0  0  0  0  0  0  0  0  0  0  0
    4.4694   -8.1697    0.0000 O   0  0  0  0  0  0  0  0  0  0  0  0
    5.9303   -5.7134    0.0000 C   0  0  0  0  0  0  0  0  0  0  0  0
    5.2212   -5.2917    0.0000 O   0  0  0  0  0  0  0  0  0  0  0  0
    4.4908   -6.5198    0.0000 O   0  0  0  0  0  0  0  0  0  0  0  0
    5.8875   -9.0132    0.0000 O   0  0  0  0  0  0  0  0  0  0  0  0
    8.7559   -8.2253    0.0000 C   0  0  1  0  0  0  0  0  0  0  0  0
    9.4756   -7.8221    0.0000 O   0  0  0  0  0  0  0  0  0  0  0  0
    9.4863   -6.9971    0.0000 C   0  0  2  0  0  0  0  0  0  0  0  0
    8.7772   -6.5754    0.0000 C   0  0  1  0  0  0  0  0  0  0  0  0
    8.0575   -6.9786    0.0000 C   0  0  2  0  0  0  0  0  0  0  0  0
    8.0468   -7.8035    0.0000 C   0  0  1  0  0  0  0  0  0  0  0  0
    7.3270   -8.2067    0.0000 O   0  0  0  0  0  0  0  0  0  0  0  0
    7.3484   -6.5569    0.0000 O   0  0  0  0  0  0  0  0  0  0  0  0
    8.7879   -5.7505    0.0000 O   0  0  0  0  0  0  0  0  0  0  0  0
   10.2061   -6.5939    0.0000 O   0  0  0  0  0  0  0  0  0  0  0  0
    8.7452   -9.0502    0.0000 C   0  0  0  0  0  0  0  0  0  0  0  0
    8.0254   -9.4534    0.0000 O   0  0  0  0  0  0  0  0  0  0  0  0
  1  2  1  0  0  0  0
  2  3  1  0  0  0  0
  3  4  1  0  0  0  0
  4  5  1  0  0  0  0
  5  6  1  0  0  0  0
  6  1  1  0  0  0  0
  5 18  1  6  0  0  0
  3  7  1  1  0  0  0
  1  8  1  1  0  0  0
  8  9  1  0  0  0  0
  2 10  1  1  0  0  0
  4 11  1  6  0  0  0
 12 17  1  0  0  0  0
 13 12  1  0  0  0  0
 14 13  1  0  0  0  0
 15 14  1  0  0  0  0
 16 15  1  0  0  0  0
 17 16  1  0  0  0  0
 17 18  1  6  0  0  0
 16 19  1  6  0  0  0
 15 20  1  1  0  0  0
 14 21  1  6  0  0  0
 12 22  1  6  0  0  0
 22 23  1  0  0  0  0
M  END
>  <cdx:fragmentId>
5

$$$$
