20220.cdx
  Mrv1902 05222410222D          

 23 24  0  0  0  0            999 V2000
    4.2056   -6.1944    0.0000 C   0  0  1  0  0  0  0  0  0  0  0  0
    4.2056   -7.0194    0.0000 C   0  0  1  0  0  0  0  0  0  0  0  0
    4.9200   -7.4319    0.0000 C   0  0  2  0  0  0  0  0  0  0  0  0
    5.6345   -7.0194    0.0000 C   0  0  1  0  0  0  0  0  0  0  0  0
    5.6345   -6.1944    0.0000 O   0  0  0  0  0  0  0  0  0  0  0  0
    4.9200   -5.7819    0.0000 C   0  0  2  0  0  0  0  0  0  0  0  0
    6.3490   -7.4319    0.0000 O   0  0  0  0  0  0  0  0  0  0  0  0
    7.0634   -7.0194    0.0000 C   0  0  0  0  0  0  0  0  0  0  0  0
    7.0634   -6.1944    0.0000 C   0  0  0  0  0  0  0  0  0  0  0  0
    7.7779   -7.4319    0.0000 C   0  0  0  0  0  0  0  0  0  0  0  0
    8.4924   -7.0194    0.0000 C   0  0  0  0  0  0  0  0  0  0  0  0
    8.4924   -6.1944    0.0000 C   0  0  0  0  0  0  0  0  0  0  0  0
    7.7779   -5.7819    0.0000 C   0  0  0  0  0  0  0  0  0  0  0  0
    4.9200   -4.9569    0.0000 C   0  0  0  0  0  0  0  0  0  0  0  0
    4.2056   -4.5444    0.0000 O   0  0  0  0  0  0  0  0  0  0  0  0
    9.2069   -5.7819    0.0000 C   0  0  0  0  0  0  0  0  0  0  0  0
    9.9213   -6.1944    0.0000 C   0  0  0  0  0  0  0  0  0  0  0  0
   10.6358   -5.7819    0.0000 C   0  0  0  0  0  0  0  0  0  0  0  0
   11.3503   -6.1944    0.0000 C   0  0  0  0  0  0  0  0  0  0  0  0
   10.6358   -4.9569    0.0000 O   0  0  0  0  0  0  0  0  0  0  0  0
    3.4911   -7.4319    0.0000 O   0  0  0  0  0  0  0  0  0  0  0  0
    3.4911   -5.7819    0.0000 O   0  0  0  0  0  0  0  0  0  0  0  0
    4.9200   -8.2569    0.0000 O   0  0  0  0  0  0  0  0  0  0  0  0
  1  2  1  0  0  0  0
  2  3  1  0  0  0  0
  3  4  1  0  0  0  0
  4  5  1  0  0  0  0
  5  6  1  0  0  0  0
  6  1  1  0  0  0  0
  4  7  1  1  0  0  0
  7  8  1  0  0  0  0
  8  9  2  0  0  0  0
  8 10  1  0  0  0  0
 10 11  2  0  0  0  0
 11 12  1  0  0  0  0
 12 13  2  0  0  0  0
 13  9  1  0  0  0  0
  6 14  1  1  0  0  0
 14 15  1  0  0  0  0
 12 16  1  0  0  0  0
 16 17  1  0  0  0  0
 17 18  1  0  0  0  0
 18 19  1  0  0  0  0
 18 20  2  0  0  0  0
  2 21  1  1  0  0  0
  1 22  1  6  0  0  0
  3 23  1  6  0  0  0
M  END
>  <cdx:fragmentId>
5

$$$$
