20229.cdx
  Mrv1902 05222410252D          

 13 12  0  0  0  0            999 V2000
    9.5363   -7.2394    0.0000 O   0  0  0  0  0  0  0  0  0  0  0  0
    8.8219   -6.8269    0.0000 C   0  0  0  0  0  0  0  0  0  0  0  0
    8.1074   -7.2394    0.0000 C   0  0  2  0  0  0  0  0  0  0  0  0
    7.3929   -6.8269    0.0000 C   0  0  1  0  0  0  0  0  0  0  0  0
    6.6784   -7.2394    0.0000 C   0  0  1  0  0  0  0  0  0  0  0  0
    5.9640   -6.8269    0.0000 C   0  0  2  0  0  0  0  0  0  0  0  0
    5.2495   -7.2394    0.0000 C   0  0  0  0  0  0  0  0  0  0  0  0
    4.5350   -6.8269    0.0000 O   0  0  0  0  0  0  0  0  0  0  0  0
    5.2495   -8.0644    0.0000 O   0  0  0  0  0  0  0  0  0  0  0  0
    5.9640   -6.0019    0.0000 O   0  0  0  0  0  0  0  0  0  0  0  0
    6.6784   -8.0644    0.0000 O   0  0  0  0  0  0  0  0  0  0  0  0
    7.3929   -6.0019    0.0000 O   0  0  0  0  0  0  0  0  0  0  0  0
    8.1074   -8.0644    0.0000 O   0  0  0  0  0  0  0  0  0  0  0  0
  2  1  1  0  0  0  0
  3  2  1  0  0  0  0
  4  3  1  0  0  0  0
  5  4  1  0  0  0  0
  6  5  1  0  0  0  0
  7  6  1  0  0  0  0
  8  7  1  0  0  0  0
  7  9  2  0  0  0  0
  6 10  1  6  0  0  0
  5 11  1  6  0  0  0
  4 12  1  1  0  0  0
  3 13  1  1  0  0  0
M  END
>  <cdx:fragmentId>
3

$$$$
