20239.cdx
  Mrv1902 05222410242D          

 14 15  0  0  0  0            999 V2000
    8.1310   -7.2471    0.0000 O   0  0  0  0  0  0  0  0  0  0  0  0
    9.5693   -4.7775    0.0000 C   0  0  0  0  0  0  0  0  0  0  0  0
    5.2825   -4.7613    0.0000 O   0  0  0  0  0  0  0  0  0  0  0  0
    6.7021   -7.2417    0.0000 C   0  0  0  0  0  0  0  0  0  0  0  0
    8.1341   -6.4221    0.0000 C   0  0  0  0  0  0  0  0  0  0  0  0
    8.8502   -6.0123    0.0000 C   0  0  0  0  0  0  0  0  0  0  0  0
    8.8533   -5.1873    0.0000 C   0  0  0  0  0  0  0  0  0  0  0  0
    8.1404   -4.7721    0.0000 O   0  0  0  0  0  0  0  0  0  0  0  0
    6.7052   -6.4167    0.0000 C   0  0  0  0  0  0  0  0  0  0  0  0
    7.4212   -6.0069    0.0000 C   0  0  0  0  0  0  0  0  0  0  0  0
    7.4244   -5.1819    0.0000 C   0  0  0  0  0  0  0  0  0  0  0  0
    6.7115   -4.7667    0.0000 C   0  0  0  0  0  0  0  0  0  0  0  0
    5.9954   -5.1765    0.0000 C   0  0  0  0  0  0  0  0  0  0  0  0
    5.9923   -6.0015    0.0000 C   0  0  0  0  0  0  0  0  0  0  0  0
  5  1  2  0  0  0  0
  7  2  1  0  0  0  0
 13  3  1  0  0  0  0
  9  4  1  0  0  0  0
  5 10  1  0  0  0  0
  6  5  1  0  0  0  0
  7  6  2  0  0  0  0
  8  7  1  0  0  0  0
 11  8  1  0  0  0  0
  9 14  1  0  0  0  0
 10  9  2  0  0  0  0
 11 10  1  0  0  0  0
 12 11  2  0  0  0  0
 13 12  1  0  0  0  0
 14 13  2  0  0  0  0
M  END
>  <cdx:fragmentId>
5

$$$$
