20238.cdx
  Mrv1902 05222410242D          

 17 18  0  0  0  0            999 V2000
    5.8556   -5.8012    0.0000 C   0  0  0  0  0  0  0  0  0  0  0  0
    5.8556   -4.9762    0.0000 C   0  0  0  0  0  0  0  0  0  0  0  0
    6.5700   -4.5637    0.0000 C   0  0  0  0  0  0  0  0  0  0  0  0
    7.2845   -4.9762    0.0000 C   0  0  0  0  0  0  0  0  0  0  0  0
    7.2845   -5.8012    0.0000 C   0  0  0  0  0  0  0  0  0  0  0  0
    6.5700   -6.2137    0.0000 C   0  0  0  0  0  0  0  0  0  0  0  0
    7.9990   -4.5637    0.0000 O   0  0  0  0  0  0  0  0  0  0  0  0
    8.7134   -4.9762    0.0000 C   0  0  0  0  0  0  0  0  0  0  0  0
    8.7134   -5.8012    0.0000 C   0  0  0  0  0  0  0  0  0  0  0  0
    7.9990   -6.2137    0.0000 C   0  0  0  0  0  0  0  0  0  0  0  0
    6.5700   -7.0387    0.0000 C   0  0  0  0  0  0  0  0  0  0  0  0
    5.8556   -7.4512    0.0000 C   0  0  0  0  0  0  0  0  0  0  0  0
    5.1411   -7.0387    0.0000 O   0  0  0  0  0  0  0  0  0  0  0  0
    5.8556   -8.2762    0.0000 C   0  0  0  0  0  0  0  0  0  0  0  0
    5.1411   -4.5637    0.0000 O   0  0  0  0  0  0  0  0  0  0  0  0
    9.4279   -4.5637    0.0000 C   0  0  0  0  0  0  0  0  0  0  0  0
    7.9990   -7.0387    0.0000 O   0  0  0  0  0  0  0  0  0  0  0  0
  1  2  2  0  0  0  0
  2  3  1  0  0  0  0
  3  4  2  0  0  0  0
  4  5  1  0  0  0  0
  5  6  2  0  0  0  0
  6  1  1  0  0  0  0
  4  7  1  0  0  0  0
  7  8  1  0  0  0  0
  8  9  2  0  0  0  0
  9 10  1  0  0  0  0
 10  5  1  0  0  0  0
  6 11  1  0  0  0  0
 11 12  1  0  0  0  0
 12 13  2  0  0  0  0
 12 14  1  0  0  0  0
  2 15  1  0  0  0  0
  8 16  1  0  0  0  0
 10 17  2  0  0  0  0
M  END
>  <cdx:fragmentId>
5

$$$$
