20237.cdx
  Mrv1902 05222410232D          

 34 36  0  0  0  0            999 V2000
    6.3021  -10.5401    0.0000 C   0  0  0  0  0  0  0  0  0  0  0  0
    5.5877  -10.1276    0.0000 C   0  0  0  0  0  0  0  0  0  0  0  0
    4.8732  -10.5401    0.0000 C   0  0  0  0  0  0  0  0  0  0  0  0
    4.1587  -10.1276    0.0000 C   0  0  0  0  0  0  0  0  0  0  0  0
    4.1587   -9.3026    0.0000 C   0  0  0  0  0  0  0  0  0  0  0  0
    4.8732   -8.8901    0.0000 C   0  0  0  0  0  0  0  0  0  0  0  0
    5.5877   -9.3026    0.0000 C   0  0  0  0  0  0  0  0  0  0  0  0
    6.3021  -11.3651    0.0000 O   0  0  0  0  0  0  0  0  0  0  0  0
    7.0166  -10.1276    0.0000 O   0  0  0  0  0  0  0  0  0  0  0  0
    7.7311  -10.5401    0.0000 C   0  0  0  0  0  0  0  0  0  0  0  0
    8.9305   -9.4602    0.0000 O   0  0  0  0  0  0  0  0  0  0  0  0
    8.4455  -10.1276    0.0000 C   0  0  1  0  0  0  0  0  0  0  0  0
    8.9305  -10.7951    0.0000 C   0  0  2  0  0  0  0  0  0  0  0  0
    9.7151  -10.5401    0.0000 C   0  0  1  0  0  0  0  0  0  0  0  0
    9.7151   -9.7151    0.0000 C   0  0  1  0  0  0  0  0  0  0  0  0
    7.7311   -9.7151    0.0000 O   0  0  0  0  0  0  0  0  0  0  0  0
    8.4455   -8.4776    0.0000 O   0  0  0  0  0  0  0  0  0  0  0  0
    7.7311   -8.8901    0.0000 C   0  0  1  0  0  0  0  0  0  0  0  0
    7.0166   -8.4776    0.0000 C   0  0  1  0  0  0  0  0  0  0  0  0
    7.0166   -7.6526    0.0000 C   0  0  2  0  0  0  0  0  0  0  0  0
    7.7311   -7.2401    0.0000 C   0  0  1  0  0  0  0  0  0  0  0  0
    8.4455   -7.6526    0.0000 C   0  0  1  0  0  0  0  0  0  0  0  0
    9.1600   -7.2401    0.0000 C   0  0  0  0  0  0  0  0  0  0  0  0
    9.8745   -7.6526    0.0000 O   0  0  0  0  0  0  0  0  0  0  0  0
    7.7311   -6.4151    0.0000 O   0  0  0  0  0  0  0  0  0  0  0  0
    6.3021   -7.2401    0.0000 O   0  0  0  0  0  0  0  0  0  0  0  0
    6.3021   -8.8901    0.0000 O   0  0  0  0  0  0  0  0  0  0  0  0
   10.3825   -9.2302    0.0000 C   0  0  0  0  0  0  0  0  0  0  0  0
   11.1362   -9.5658    0.0000 O   0  0  0  0  0  0  0  0  0  0  0  0
   10.3825  -11.0251    0.0000 O   0  0  0  0  0  0  0  0  0  0  0  0
    8.6755  -11.5797    0.0000 O   0  0  0  0  0  0  0  0  0  0  0  0
    4.8732   -8.0651    0.0000 O   0  0  0  0  0  0  0  0  0  0  0  0
    3.4442   -8.8901    0.0000 O   0  0  0  0  0  0  0  0  0  0  0  0
    3.4442  -10.5401    0.0000 O   0  0  0  0  0  0  0  0  0  0  0  0
  1  2  1  0  0  0  0
  2  3  1  0  0  0  0
  3  4  2  0  0  0  0
  4  5  1  0  0  0  0
  5  6  2  0  0  0  0
  6  7  1  0  0  0  0
  2  7  2  0  0  0  0
  1  8  2  0  0  0  0
  1  9  1  0  0  0  0
 11 12  1  0  0  0  0
 12 13  1  0  0  0  0
 13 14  1  0  0  0  0
 14 15  1  0  0  0  0
 11 15  1  0  0  0  0
 17 18  1  0  0  0  0
 18 19  1  0  0  0  0
 19 20  1  0  0  0  0
 20 21  1  0  0  0  0
 21 22  1  0  0  0  0
 17 22  1  0  0  0  0
 23 24  1  0  0  0  0
 22 23  1  1  0  0  0
 21 25  1  6  0  0  0
 20 26  1  1  0  0  0
 19 27  1  6  0  0  0
 18 16  1  6  0  0  0
 12 16  1  6  0  0  0
 28 29  1  0  0  0  0
 15 28  1  6  0  0  0
 14 30  1  1  0  0  0
 13 31  1  6  0  0  0
 12 10  1  1  0  0  0
  9 10  1  0  0  0  0
  6 32  1  0  0  0  0
  5 33  1  0  0  0  0
  4 34  1  0  0  0  0
M  END
>  <cdx:groupId>
42747

>  <cdx:fragmentId>
42687

$$$$
