20245.cdx
  Mrv1902 05222410182D          

 30 33  0  0  0  0            999 V2000
    7.7079   -6.5519    0.0000 O   0  0  0  0  0  0  0  0  0  0  0  0
    7.7048   -7.3769    0.0000 C   0  0  0  0  0  0  0  0  0  0  0  0
    8.4177   -7.7920    0.0000 C   0  0  0  0  0  0  0  0  0  0  0  0
    6.9888   -7.7867    0.0000 C   0  0  0  0  0  0  0  0  0  0  0  0
    6.9857   -8.6117    0.0000 C   0  0  0  0  0  0  0  0  0  0  0  0
    7.6987   -9.0268    0.0000 C   0  0  0  0  0  0  0  0  0  0  0  0
    8.4147   -8.6170    0.0000 C   0  0  0  0  0  0  0  0  0  0  0  0
    6.2759   -7.3716    0.0000 C   0  0  0  0  0  0  0  0  0  0  0  0
    5.5599   -7.7814    0.0000 C   0  0  0  0  0  0  0  0  0  0  0  0
    5.5568   -8.6064    0.0000 C   0  0  0  0  0  0  0  0  0  0  0  0
    6.2697   -9.0216    0.0000 C   0  0  0  0  0  0  0  0  0  0  0  0
    4.8469   -7.3663    0.0000 C   0  0  0  0  0  0  0  0  0  0  0  0
    4.1309   -7.7761    0.0000 C   0  0  0  0  0  0  0  0  0  0  0  0
    4.1279   -8.6011    0.0000 C   0  0  0  0  0  0  0  0  0  0  0  0
    4.8408   -9.0163    0.0000 C   0  0  0  0  0  0  0  0  0  0  0  0
    6.2789   -6.5466    0.0000 O   0  0  0  0  0  0  0  0  0  0  0  0
    4.8500   -6.5413    0.0000 O   0  0  0  0  0  0  0  0  0  0  0  0
    9.1276   -9.0321    0.0000 C   0  0  0  0  0  0  0  0  0  0  0  0
    6.2667   -9.8465    0.0000 O   0  0  0  0  0  0  0  0  0  0  0  0
    9.8528   -6.1473    0.0000 C   0  0  2  0  0  0  0  0  0  0  0  0
    9.8558   -5.3223    0.0000 C   0  0  2  0  0  0  0  0  0  0  0  0
    9.1429   -4.9072    0.0000 C   0  0  1  0  0  0  0  0  0  0  0  0
    8.4269   -5.3170    0.0000 C   0  0  2  0  0  0  0  0  0  0  0  0
    8.4238   -6.1420    0.0000 C   0  0  1  0  0  0  0  0  0  0  0  0
    9.1368   -6.5572    0.0000 O   0  0  0  0  0  0  0  0  0  0  0  0
    9.1460   -4.0822    0.0000 O   0  0  0  0  0  0  0  0  0  0  0  0
   10.5657   -6.5625    0.0000 C   0  0  0  0  0  0  0  0  0  0  0  0
    7.7140   -4.9019    0.0000 O   0  0  0  0  0  0  0  0  0  0  0  0
   10.5718   -4.9125    0.0000 O   0  0  0  0  0  0  0  0  0  0  0  0
   11.2817   -6.1526    0.0000 O   0  0  0  0  0  0  0  0  0  0  0  0
  1  2  1  0  0  0  0
  2  3  2  0  0  0  0
  2  4  1  0  0  0  0
  4  5  2  0  0  0  0
  5  6  1  0  0  0  0
  6  7  2  0  0  0  0
  7  3  1  0  0  0  0
  4  8  1  0  0  0  0
  8  9  1  0  0  0  0
  9 10  2  0  0  0  0
 10 11  1  0  0  0  0
 11  5  1  0  0  0  0
  9 12  1  0  0  0  0
 12 13  2  0  0  0  0
 13 14  1  0  0  0  0
 14 15  2  0  0  0  0
 15 10  1  0  0  0  0
  8 16  2  0  0  0  0
 12 17  1  0  0  0  0
  7 18  1  0  0  0  0
 11 19  2  0  0  0  0
 20 21  1  0  0  0  0
 21 22  1  0  0  0  0
 22 23  1  0  0  0  0
 23 24  1  0  0  0  0
 24 25  1  0  0  0  0
 25 20  1  0  0  0  0
 22 26  1  1  0  0  0
 20 27  1  1  0  0  0
 23 28  1  6  0  0  0
 21 29  1  6  0  0  0
 27 30  1  0  0  0  0
 24  1  1  1  0  0  0
M  END
>  <cdx:fragmentId>
5

$$$$
