20242.cdx
  Mrv1902 05222410192D          

 42 46  0  0  0  0            999 V2000
    4.2537  -10.2094    0.0000 C   0  0  2  0  0  0  0  0  0  0  0  0
    4.2537  -11.0344    0.0000 C   0  0  2  0  0  0  0  0  0  0  0  0
    4.9681  -11.4469    0.0000 C   0  0  1  0  0  0  0  0  0  0  0  0
    5.6826  -11.0344    0.0000 C   0  0  2  0  0  0  0  0  0  0  0  0
    5.6826  -10.2094    0.0000 C   0  0  1  0  0  0  0  0  0  0  0  0
    4.9681   -9.7969    0.0000 O   0  0  0  0  0  0  0  0  0  0  0  0
    6.3971   -9.7969    0.0000 O   0  0  0  0  0  0  0  0  0  0  0  0
    6.3971   -8.9719    0.0000 C   0  0  0  0  0  0  0  0  0  0  0  0
    5.6826   -8.5594    0.0000 C   0  0  0  0  0  0  0  0  0  0  0  0
    7.1116   -8.5594    0.0000 C   0  0  0  0  0  0  0  0  0  0  0  0
    7.1116   -7.7344    0.0000 C   0  0  0  0  0  0  0  0  0  0  0  0
    6.3971   -7.3219    0.0000 C   0  0  0  0  0  0  0  0  0  0  0  0
    5.6826   -7.7344    0.0000 C   0  0  0  0  0  0  0  0  0  0  0  0
    7.8260   -8.9719    0.0000 C   0  0  0  0  0  0  0  0  0  0  0  0
    8.5405   -8.5594    0.0000 C   0  0  0  0  0  0  0  0  0  0  0  0
    8.5405   -7.7344    0.0000 C   0  0  0  0  0  0  0  0  0  0  0  0
    7.8260   -7.3219    0.0000 C   0  0  1  0  0  0  0  0  0  0  0  0
    9.2550   -8.9719    0.0000 C   0  0  0  0  0  0  0  0  0  0  0  0
    9.9694   -8.5594    0.0000 C   0  0  0  0  0  0  0  0  0  0  0  0
    9.9694   -7.7344    0.0000 C   0  0  0  0  0  0  0  0  0  0  0  0
    9.2550   -7.3219    0.0000 C   0  0  0  0  0  0  0  0  0  0  0  0
    7.8260   -6.4969    0.0000 C   0  0  1  0  0  0  0  0  0  0  0  0
    7.1116   -6.0844    0.0000 C   0  0  2  0  0  0  0  0  0  0  0  0
    6.3971   -6.4969    0.0000 O   0  0  0  0  0  0  0  0  0  0  0  0
    8.5405   -6.0844    0.0000 O   0  0  0  0  0  0  0  0  0  0  0  0
    8.5405   -5.2594    0.0000 C   0  0  1  0  0  0  0  0  0  0  0  0
    7.8260   -4.8469    0.0000 C   0  0  2  0  0  0  0  0  0  0  0  0
    7.1116   -5.2594    0.0000 C   0  0  2  0  0  0  0  0  0  0  0  0
    3.5392   -9.7969    0.0000 C   0  0  0  0  0  0  0  0  0  0  0  0
    2.8247  -10.2094    0.0000 O   0  0  0  0  0  0  0  0  0  0  0  0
    7.8260   -9.7969    0.0000 O   0  0  0  0  0  0  0  0  0  0  0  0
    9.2550   -9.7969    0.0000 O   0  0  0  0  0  0  0  0  0  0  0  0
   10.6839   -7.3219    0.0000 C   0  0  0  0  0  0  0  0  0  0  0  0
    9.2550   -4.8469    0.0000 C   0  0  0  0  0  0  0  0  0  0  0  0
    9.2550   -4.0219    0.0000 O   0  0  0  0  0  0  0  0  0  0  0  0
    4.9681  -12.2719    0.0000 O   0  0  0  0  0  0  0  0  0  0  0  0
    7.1116   -6.9094    0.0000 H   0  0  0  0  0  0  0  0  0  0  0  0
    6.3971   -4.8469    0.0000 O   0  0  0  0  0  0  0  0  0  0  0  0
    7.8260   -4.0219    0.0000 O   0  0  0  0  0  0  0  0  0  0  0  0
    8.5405   -6.9094    0.0000 H   0  0  0  0  0  0  0  0  0  0  0  0
    3.5392  -11.4469    0.0000 O   0  0  0  0  0  0  0  0  0  0  0  0
    6.3971  -11.4469    0.0000 O   0  0  0  0  0  0  0  0  0  0  0  0
  1  2  1  0  0  0  0
  2  3  1  0  0  0  0
  3  4  1  0  0  0  0
  4  5  1  0  0  0  0
  5  6  1  0  0  0  0
  6  1  1  0  0  0  0
  5  7  1  1  0  0  0
  7  8  1  0  0  0  0
  8  9  2  0  0  0  0
  8 10  1  0  0  0  0
 10 11  2  0  0  0  0
 11 12  1  0  0  0  0
 12 13  2  0  0  0  0
 13  9  1  0  0  0  0
 10 14  1  0  0  0  0
 14 15  1  0  0  0  0
 15 16  2  0  0  0  0
 16 17  1  0  0  0  0
 17 11  1  0  0  0  0
 15 18  1  0  0  0  0
 18 19  2  0  0  0  0
 19 20  1  0  0  0  0
 20 21  2  0  0  0  0
 21 16  1  0  0  0  0
 17 22  1  0  0  0  0
 22 23  1  0  0  0  0
 23 24  1  6  0  0  0
 22 25  1  0  0  0  0
 25 26  1  0  0  0  0
 26 27  1  0  0  0  0
 27 28  1  0  0  0  0
 28 23  1  0  0  0  0
  1 29  1  1  0  0  0
 29 30  1  0  0  0  0
 14 31  2  0  0  0  0
 18 32  1  0  0  0  0
 20 33  1  0  0  0  0
 26 34  1  1  0  0  0
 34 35  1  0  0  0  0
  3 36  1  1  0  0  0
 17 37  1  1  0  0  0
 28 38  1  1  0  0  0
 27 39  1  6  0  0  0
 22 40  1  6  0  0  0
  2 41  1  6  0  0  0
  4 42  1  6  0  0  0
M  END
>  <cdx:fragmentId>
5

$$$$
