20246.cdx
  Mrv1902 05222410192D          

 30 32  0  0  0  0            999 V2000
    6.5774   -9.3844    0.0000 C   0  0  2  0  0  0  0  0  0  0  0  0
    6.5774  -10.2094    0.0000 C   0  0  2  0  0  0  0  0  0  0  0  0
    7.2919  -10.6219    0.0000 C   0  0  1  0  0  0  0  0  0  0  0  0
    8.0064  -10.2094    0.0000 C   0  0  2  0  0  0  0  0  0  0  0  0
    8.0064   -9.3844    0.0000 C   0  0  1  0  0  0  0  0  0  0  0  0
    7.2919   -8.9719    0.0000 O   0  0  0  0  0  0  0  0  0  0  0  0
    8.7208   -8.9719    0.0000 O   0  0  0  0  0  0  0  0  0  0  0  0
    8.7208   -8.1469    0.0000 C   0  0  0  0  0  0  0  0  0  0  0  0
    8.0064   -7.7344    0.0000 C   0  0  0  0  0  0  0  0  0  0  0  0
    9.4353   -7.7344    0.0000 C   0  0  0  0  0  0  0  0  0  0  0  0
    9.4353   -6.9094    0.0000 C   0  0  0  0  0  0  0  0  0  0  0  0
    8.7208   -6.4969    0.0000 C   0  0  0  0  0  0  0  0  0  0  0  0
    8.0064   -6.9094    0.0000 C   0  0  0  0  0  0  0  0  0  0  0  0
    7.2919   -5.6719    0.0000 C   0  0  0  0  0  0  0  0  0  0  0  0
    7.2919   -6.4969    0.0000 C   0  0  0  0  0  0  0  0  0  0  0  0
    6.5774   -5.2594    0.0000 C   0  0  0  0  0  0  0  0  0  0  0  0
    5.8630   -5.6719    0.0000 C   0  0  0  0  0  0  0  0  0  0  0  0
    6.5774   -4.4344    0.0000 C   0  0  0  0  0  0  0  0  0  0  0  0
    5.8630   -4.0219    0.0000 C   0  0  0  0  0  0  0  0  0  0  0  0
    5.1485   -4.4344    0.0000 C   0  0  0  0  0  0  0  0  0  0  0  0
    5.1485   -5.2594    0.0000 C   0  0  0  0  0  0  0  0  0  0  0  0
    4.4340   -4.0219    0.0000 O   0  0  0  0  0  0  0  0  0  0  0  0
    5.8630   -3.1969    0.0000 O   0  0  0  0  0  0  0  0  0  0  0  0
    6.5774   -2.7844    0.0000 C   0  0  0  0  0  0  0  0  0  0  0  0
   10.1498   -6.4969    0.0000 O   0  0  0  0  0  0  0  0  0  0  0  0
    5.8630   -8.9719    0.0000 C   0  0  0  0  0  0  0  0  0  0  0  0
    5.1485   -9.3844    0.0000 O   0  0  0  0  0  0  0  0  0  0  0  0
    7.2919  -11.4469    0.0000 O   0  0  0  0  0  0  0  0  0  0  0  0
    5.8630  -10.6219    0.0000 O   0  0  0  0  0  0  0  0  0  0  0  0
    8.7208  -10.6219    0.0000 O   0  0  0  0  0  0  0  0  0  0  0  0
  1  2  1  0  0  0  0
  2  3  1  0  0  0  0
  3  4  1  0  0  0  0
  4  5  1  0  0  0  0
  5  6  1  0  0  0  0
  6  1  1  0  0  0  0
  5  7  1  1  0  0  0
  7  8  1  0  0  0  0
  8  9  2  0  0  0  0
  8 10  1  0  0  0  0
 10 11  2  0  0  0  0
 11 12  1  0  0  0  0
 12 13  2  0  0  0  0
 13  9  1  0  0  0  0
 14 15  2  0  0  0  0
 15 13  1  0  0  0  0
 14 16  1  0  0  0  0
 16 17  1  0  0  0  0
 16 18  2  0  0  0  0
 18 19  1  0  0  0  0
 19 20  2  0  0  0  0
 20 21  1  0  0  0  0
 21 17  2  0  0  0  0
 20 22  1  0  0  0  0
 19 23  1  0  0  0  0
 23 24  1  0  0  0  0
 11 25  1  0  0  0  0
  1 26  1  1  0  0  0
 26 27  1  0  0  0  0
  3 28  1  1  0  0  0
  2 29  1  6  0  0  0
  4 30  1  6  0  0  0
M  END
>  <cdx:fragmentId>
5

$$$$
