20248.cdx
  Mrv1902 05222410282D          

 20 20  0  0  0  0            999 V2000
    5.8418   -8.1675    0.0000 C   0  0  2  0  0  0  0  0  0  0  0  0
    5.8418   -8.9925    0.0000 C   0  0  2  0  0  0  0  0  0  0  0  0
    6.5563   -9.4050    0.0000 C   0  0  1  0  0  0  0  0  0  0  0  0
    7.2707   -8.9925    0.0000 C   0  0  2  0  0  0  0  0  0  0  0  0
    7.2707   -8.1675    0.0000 C   0  0  1  0  0  0  0  0  0  0  0  0
    6.5563   -7.7550    0.0000 O   0  0  0  0  0  0  0  0  0  0  0  0
    5.1273   -7.7550    0.0000 C   0  0  0  0  0  0  0  0  0  0  0  0
    5.1273   -6.9300    0.0000 O   0  0  0  0  0  0  0  0  0  0  0  0
    7.9852   -7.7550    0.0000 O   0  0  0  0  0  0  0  0  0  0  0  0
    7.9852   -6.9300    0.0000 C   0  0  0  0  0  0  0  0  0  0  0  0
    8.6997   -6.5175    0.0000 C   0  0  0  0  0  0  0  0  0  0  0  0
    8.6997   -5.6925    0.0000 C   0  0  0  0  0  0  0  0  0  0  0  0
    9.4142   -5.2800    0.0000 C   0  0  0  0  0  0  0  0  0  0  0  0
   10.1286   -5.6925    0.0000 C   0  0  0  0  0  0  0  0  0  0  0  0
   10.8431   -5.2800    0.0000 C   0  0  0  0  0  0  0  0  0  0  0  0
    7.9852   -5.2800    0.0000 H   0  0  0  0  0  0  0  0  0  0  0  0
    9.4142   -4.4550    0.0000 H   0  0  0  0  0  0  0  0  0  0  0  0
    6.5563  -10.2300    0.0000 O   0  0  0  0  0  0  0  0  0  0  0  0
    5.1273   -9.4050    0.0000 O   0  0  0  0  0  0  0  0  0  0  0  0
    7.9852   -9.4050    0.0000 O   0  0  0  0  0  0  0  0  0  0  0  0
  1  2  1  0  0  0  0
  2  3  1  0  0  0  0
  3  4  1  0  0  0  0
  4  5  1  0  0  0  0
  5  6  1  0  0  0  0
  6  1  1  0  0  0  0
  1  7  1  1  0  0  0
  7  8  1  0  0  0  0
  5  9  1  1  0  0  0
  9 10  1  0  0  0  0
 10 11  1  0  0  0  0
 11 12  1  0  0  0  0
 12 13  2  0  0  0  0
 13 14  1  0  0  0  0
 14 15  1  0  0  0  0
 12 16  1  0  0  0  0
 13 17  1  0  0  0  0
  3 18  1  1  0  0  0
  2 19  1  6  0  0  0
  4 20  1  6  0  0  0
M  END
>  <cdx:fragmentId>
5

$$$$
