20240.cdx
  Mrv1902 05222410202D          

 34 36  0  0  0  0            999 V2000
    7.0999   -4.1250    0.0000 C   0  0  0  0  0  0  0  0  0  0  0  0
    7.0999   -4.9500    0.0000 C   0  0  0  0  0  0  0  0  0  0  0  0
    7.8144   -5.3625    0.0000 C   0  0  0  0  0  0  0  0  0  0  0  0
    8.5289   -4.9500    0.0000 C   0  0  0  0  0  0  0  0  0  0  0  0
    8.5289   -4.1250    0.0000 C   0  0  0  0  0  0  0  0  0  0  0  0
    7.8144   -3.7125    0.0000 C   0  0  0  0  0  0  0  0  0  0  0  0
    7.8144   -6.1875    0.0000 C   0  0  0  0  0  0  0  0  0  0  0  0
    8.5289   -6.6000    0.0000 O   0  0  0  0  0  0  0  0  0  0  0  0
    7.0999   -6.6000    0.0000 O   0  0  0  0  0  0  0  0  0  0  0  0
    7.0999   -7.4250    0.0000 C   0  0  0  0  0  0  0  0  0  0  0  0
    7.8144   -7.8375    0.0000 C   0  0  2  0  0  0  0  0  0  0  0  0
    8.5289   -7.4250    0.0000 C   0  0  2  0  0  0  0  0  0  0  0  0
    7.9859   -8.6445    0.0000 O   0  0  0  0  0  0  0  0  0  0  0  0
    8.8064   -8.7307    0.0000 C   0  0  2  0  0  0  0  0  0  0  0  0
    9.1420   -7.9770    0.0000 C   0  0  1  0  0  0  0  0  0  0  0  0
    6.3855   -3.7125    0.0000 O   0  0  0  0  0  0  0  0  0  0  0  0
    7.8144   -2.8875    0.0000 O   0  0  0  0  0  0  0  0  0  0  0  0
    9.2433   -3.7125    0.0000 O   0  0  0  0  0  0  0  0  0  0  0  0
    6.3855   -7.8375    0.0000 O   0  0  0  0  0  0  0  0  0  0  0  0
    9.9489   -7.8055    0.0000 O   0  0  0  0  0  0  0  0  0  0  0  0
    8.8064   -9.5557    0.0000 O   0  0  0  0  0  0  0  0  0  0  0  0
    9.6033   -8.9442    0.0000 C   0  0  0  0  0  0  0  0  0  0  0  0
   10.1867   -8.3609    0.0000 O   0  0  0  0  0  0  0  0  0  0  0  0
    8.0919   -9.9682    0.0000 C   0  0  1  0  0  0  0  0  0  0  0  0
    7.3775   -9.5557    0.0000 O   0  0  0  0  0  0  0  0  0  0  0  0
    6.6630   -9.9682    0.0000 C   0  0  1  0  0  0  0  0  0  0  0  0
    6.6630  -10.7932    0.0000 C   0  0  2  0  0  0  0  0  0  0  0  0
    7.3775  -11.2057    0.0000 C   0  0  1  0  0  0  0  0  0  0  0  0
    8.0919  -10.7932    0.0000 C   0  0  1  0  0  0  0  0  0  0  0  0
    8.8064  -11.2057    0.0000 O   0  0  0  0  0  0  0  0  0  0  0  0
    7.3775  -12.0307    0.0000 O   0  0  0  0  0  0  0  0  0  0  0  0
    5.9485  -11.2057    0.0000 O   0  0  0  0  0  0  0  0  0  0  0  0
    5.9485   -9.5557    0.0000 C   0  0  0  0  0  0  0  0  0  0  0  0
    5.2341   -9.9682    0.0000 O   0  0  0  0  0  0  0  0  0  0  0  0
  1  2  2  0  0  0  0
  2  3  1  0  0  0  0
  3  4  2  0  0  0  0
  4  5  1  0  0  0  0
  5  6  2  0  0  0  0
  6  1  1  0  0  0  0
  3  7  1  0  0  0  0
  7  8  1  0  0  0  0
  7  9  2  0  0  0  0
 11 10  1  6  0  0  0
 11 12  1  0  0  0  0
 12  8  1  1  0  0  0
 11 13  1  0  0  0  0
 13 14  1  0  0  0  0
 14 15  1  0  0  0  0
 15 12  1  0  0  0  0
  1 16  1  0  0  0  0
  6 17  1  0  0  0  0
  5 18  1  0  0  0  0
 10 19  1  0  0  0  0
 15 20  1  6  0  0  0
 14 21  1  6  0  0  0
 14 22  1  0  0  0  0
 22 23  1  0  0  0  0
 24 21  1  6  0  0  0
 24 25  1  0  0  0  0
 25 26  1  0  0  0  0
 26 27  1  0  0  0  0
 27 28  1  0  0  0  0
 28 29  1  0  0  0  0
 29 24  1  0  0  0  0
 29 30  1  6  0  0  0
 28 31  1  1  0  0  0
 27 32  1  6  0  0  0
 26 33  1  1  0  0  0
 33 34  1  0  0  0  0
M  END
>  <cdx:fragmentId>
5

$$$$
