20249.cdx
  Mrv1902 05222410282D          

 35 38  0  0  0  0            999 V2000
    5.0168   -8.2088    0.0000 C   0  0  2  0  0  0  0  0  0  0  0  0
    5.0168   -9.0337    0.0000 C   0  0  2  0  0  0  0  0  0  0  0  0
    5.7313   -9.4462    0.0000 C   0  0  1  0  0  0  0  0  0  0  0  0
    6.4457   -9.0337    0.0000 C   0  0  2  0  0  0  0  0  0  0  0  0
    6.4457   -8.2088    0.0000 C   0  0  1  0  0  0  0  0  0  0  0  0
    5.7313   -7.7963    0.0000 O   0  0  0  0  0  0  0  0  0  0  0  0
    7.1602   -7.7963    0.0000 O   0  0  0  0  0  0  0  0  0  0  0  0
    7.1602   -6.9712    0.0000 C   0  0  0  0  0  0  0  0  0  0  0  0
    6.4457   -6.5587    0.0000 C   0  0  0  0  0  0  0  0  0  0  0  0
    5.7313   -6.9712    0.0000 O   0  0  0  0  0  0  0  0  0  0  0  0
    7.8747   -6.5587    0.0000 C   0  0  0  0  0  0  0  0  0  0  0  0
    7.8747   -5.7338    0.0000 O   0  0  0  0  0  0  0  0  0  0  0  0
    7.1602   -5.3213    0.0000 C   0  0  0  0  0  0  0  0  0  0  0  0
    6.4457   -5.7338    0.0000 C   0  0  0  0  0  0  0  0  0  0  0  0
    7.1602   -4.4962    0.0000 C   0  0  0  0  0  0  0  0  0  0  0  0
    6.4457   -4.0838    0.0000 C   0  0  0  0  0  0  0  0  0  0  0  0
    5.7313   -4.4962    0.0000 C   0  0  0  0  0  0  0  0  0  0  0  0
    5.7313   -5.3213    0.0000 C   0  0  0  0  0  0  0  0  0  0  0  0
    8.5892   -7.7963    0.0000 C   0  0  0  0  0  0  0  0  0  0  0  0
    8.5892   -6.9712    0.0000 C   0  0  0  0  0  0  0  0  0  0  0  0
    9.3036   -8.2087    0.0000 C   0  0  0  0  0  0  0  0  0  0  0  0
   10.0181   -7.7963    0.0000 C   0  0  0  0  0  0  0  0  0  0  0  0
   10.0181   -6.9712    0.0000 C   0  0  0  0  0  0  0  0  0  0  0  0
    9.3036   -6.5587    0.0000 C   0  0  0  0  0  0  0  0  0  0  0  0
    5.7313  -10.2713    0.0000 O   0  0  0  0  0  0  0  0  0  0  0  0
    6.4457  -10.6837    0.0000 O   0  0  0  0  0  0  0  0  0  0  0  0
    7.1602  -10.2713    0.0000 C   0  0  0  0  0  0  0  0  0  0  0  0
    7.1602   -9.4462    0.0000 O   0  0  0  0  0  0  0  0  0  0  0  0
    6.4457   -3.2588    0.0000 O   0  0  0  0  0  0  0  0  0  0  0  0
    5.0168   -5.7338    0.0000 O   0  0  0  0  0  0  0  0  0  0  0  0
   10.7326   -8.2088    0.0000 O   0  0  0  0  0  0  0  0  0  0  0  0
    7.8747  -10.6837    0.0000 C   0  0  0  0  0  0  0  0  0  0  0  0
    4.3023   -7.7963    0.0000 C   0  0  0  0  0  0  0  0  0  0  0  0
    3.5879   -8.2088    0.0000 O   0  0  0  0  0  0  0  0  0  0  0  0
    4.3023   -9.4462    0.0000 O   0  0  0  0  0  0  0  0  0  0  0  0
  1  2  1  0  0  0  0
  2  3  1  0  0  0  0
  3  4  1  0  0  0  0
  4  5  1  0  0  0  0
  5  6  1  0  0  0  0
  6  1  1  0  0  0  0
  5  7  1  1  0  0  0
  7  8  1  0  0  0  0
  8  9  1  0  0  0  0
  9 10  2  0  0  0  0
  8 11  2  0  0  0  0
 11 12  1  0  0  0  0
 12 13  1  0  0  0  0
 13 14  1  0  0  0  0
 14  9  1  0  0  0  0
 13 15  2  0  0  0  0
 15 16  1  0  0  0  0
 16 17  2  0  0  0  0
 17 18  1  0  0  0  0
 18 14  2  0  0  0  0
 19 20  1  0  0  0  0
 20 11  1  0  0  0  0
 19 21  2  0  0  0  0
 21 22  1  0  0  0  0
 22 23  2  0  0  0  0
 23 24  1  0  0  0  0
 24 20  2  0  0  0  0
  3 25  1  1  0  0  0
 26 27  2  0  0  0  0
 27 28  1  0  0  0  0
  4 28  1  6  0  0  0
 16 29  1  0  0  0  0
 18 30  1  0  0  0  0
 22 31  1  0  0  0  0
 27 32  1  0  0  0  0
  1 33  1  1  0  0  0
 33 34  1  0  0  0  0
  2 35  1  6  0  0  0
M  END
>  <cdx:fragmentId>
5

$$$$
