20244.cdx
  Mrv1902 05222410182D          

 31 34  0  0  0  0            999 V2000
    5.9296   -9.7694    0.0000 O   0  0  0  0  0  0  0  0  0  0  0  0
    5.9296   -8.9444    0.0000 C   0  0  0  0  0  0  0  0  0  0  0  0
    5.2151   -8.5319    0.0000 C   0  0  0  0  0  0  0  0  0  0  0  0
    6.6441   -8.5319    0.0000 C   0  0  0  0  0  0  0  0  0  0  0  0
    6.6441   -7.7069    0.0000 C   0  0  0  0  0  0  0  0  0  0  0  0
    5.9296   -7.2944    0.0000 C   0  0  0  0  0  0  0  0  0  0  0  0
    5.2151   -7.7069    0.0000 C   0  0  0  0  0  0  0  0  0  0  0  0
    7.3585   -8.9444    0.0000 C   0  0  0  0  0  0  0  0  0  0  0  0
    8.0730   -8.5319    0.0000 C   0  0  0  0  0  0  0  0  0  0  0  0
    8.0730   -7.7069    0.0000 C   0  0  0  0  0  0  0  0  0  0  0  0
    7.3585   -7.2944    0.0000 C   0  0  0  0  0  0  0  0  0  0  0  0
    8.7875   -8.9444    0.0000 C   0  0  0  0  0  0  0  0  0  0  0  0
    9.5019   -8.5319    0.0000 C   0  0  0  0  0  0  0  0  0  0  0  0
    9.5019   -7.7069    0.0000 C   0  0  0  0  0  0  0  0  0  0  0  0
    8.7875   -7.2944    0.0000 C   0  0  0  0  0  0  0  0  0  0  0  0
    7.3585   -6.4694    0.0000 C   0  0  1  0  0  0  0  0  0  0  0  0
    6.6441   -6.0569    0.0000 C   0  0  2  0  0  0  0  0  0  0  0  0
    5.9296   -6.4694    0.0000 O   0  0  0  0  0  0  0  0  0  0  0  0
    8.0730   -6.0569    0.0000 O   0  0  0  0  0  0  0  0  0  0  0  0
    8.0730   -5.2319    0.0000 C   0  0  1  0  0  0  0  0  0  0  0  0
    7.3585   -4.8194    0.0000 C   0  0  2  0  0  0  0  0  0  0  0  0
    6.6441   -5.2319    0.0000 C   0  0  2  0  0  0  0  0  0  0  0  0
    7.3585   -9.7694    0.0000 O   0  0  0  0  0  0  0  0  0  0  0  0
    8.7875   -9.7694    0.0000 O   0  0  0  0  0  0  0  0  0  0  0  0
   10.2164   -7.2944    0.0000 C   0  0  0  0  0  0  0  0  0  0  0  0
    8.7875   -4.8194    0.0000 C   0  0  0  0  0  0  0  0  0  0  0  0
    8.7875   -3.9944    0.0000 O   0  0  0  0  0  0  0  0  0  0  0  0
    5.9296   -4.8194    0.0000 O   0  0  0  0  0  0  0  0  0  0  0  0
    7.3585   -3.9944    0.0000 O   0  0  0  0  0  0  0  0  0  0  0  0
    7.8255   -6.7375    0.0000 H   0  0  0  0  0  0  0  0  0  0  0  0
    6.6441   -6.8819    0.0000 O   0  0  0  0  0  0  0  0  0  0  0  0
  1  2  1  0  0  0  0
  2  3  2  0  0  0  0
  2  4  1  0  0  0  0
  4  5  2  0  0  0  0
  5  6  1  0  0  0  0
  6  7  2  0  0  0  0
  7  3  1  0  0  0  0
  4  8  1  0  0  0  0
  8  9  1  0  0  0  0
  9 10  2  0  0  0  0
 10 11  1  0  0  0  0
 11  5  1  0  0  0  0
  9 12  1  0  0  0  0
 12 13  2  0  0  0  0
 13 14  1  0  0  0  0
 14 15  2  0  0  0  0
 15 10  1  0  0  0  0
 11 16  1  0  0  0  0
 16 17  1  0  0  0  0
 17 18  1  6  0  0  0
 16 19  1  0  0  0  0
 19 20  1  0  0  0  0
 20 21  1  0  0  0  0
 21 22  1  0  0  0  0
 22 17  1  0  0  0  0
  8 23  2  0  0  0  0
 12 24  1  0  0  0  0
 14 25  1  0  0  0  0
 20 26  1  1  0  0  0
 26 27  1  0  0  0  0
 22 28  1  1  0  0  0
 21 29  1  6  0  0  0
 16 30  1  6  0  0  0
 11 31  1  0  0  0  0
M  END
>  <cdx:fragmentId>
5

$$$$
