20241.cdx
  Mrv1902 05222410202D          

 34 36  0  0  0  0            999 V2000
    2.8924   -7.9819    0.0000 C   0  0  0  0  0  0  0  0  0  0  0  0
    2.8924   -8.8069    0.0000 C   0  0  0  0  0  0  0  0  0  0  0  0
    3.6069   -9.2194    0.0000 C   0  0  0  0  0  0  0  0  0  0  0  0
    4.3214   -8.8069    0.0000 C   0  0  0  0  0  0  0  0  0  0  0  0
    4.3214   -7.9819    0.0000 C   0  0  0  0  0  0  0  0  0  0  0  0
    3.6069   -7.5694    0.0000 C   0  0  0  0  0  0  0  0  0  0  0  0
    5.7503   -7.9819    0.0000 O   0  0  0  0  0  0  0  0  0  0  0  0
    5.0358   -7.5694    0.0000 C   0  0  0  0  0  0  0  0  0  0  0  0
    6.4648   -9.2194    0.0000 O   0  0  0  0  0  0  0  0  0  0  0  0
    7.1793   -8.8069    0.0000 C   0  0  2  0  0  0  0  0  0  0  0  0
    7.1793   -7.9819    0.0000 C   0  0  1  0  0  0  0  0  0  0  0  0
    6.4648   -7.5694    0.0000 C   0  0  0  0  0  0  0  0  0  0  0  0
    7.8937   -9.2194    0.0000 C   0  0  1  0  0  0  0  0  0  0  0  0
    8.6082   -8.8069    0.0000 C   0  0  2  0  0  0  0  0  0  0  0  0
    8.6082   -7.9819    0.0000 C   0  0  2  0  0  0  0  0  0  0  0  0
    7.8937   -7.5694    0.0000 O   0  0  0  0  0  0  0  0  0  0  0  0
    9.3227   -7.5694    0.0000 O   0  0  0  0  0  0  0  0  0  0  0  0
    9.3227   -6.7444    0.0000 C   0  0  2  0  0  0  0  0  0  0  0  0
    8.4977   -6.7444    0.0000 O   0  0  0  0  0  0  0  0  0  0  0  0
    9.5776   -5.9598    0.0000 C   0  0  2  0  0  0  0  0  0  0  0  0
    8.9102   -5.4748    0.0000 C   0  0  1  0  0  0  0  0  0  0  0  0
    8.2427   -5.9598    0.0000 C   0  0  1  0  0  0  0  0  0  0  0  0
    5.0358   -6.7444    0.0000 O   0  0  0  0  0  0  0  0  0  0  0  0
    2.1780   -7.5694    0.0000 O   0  0  0  0  0  0  0  0  0  0  0  0
    2.1780   -9.2194    0.0000 O   0  0  0  0  0  0  0  0  0  0  0  0
    3.6069  -10.0444    0.0000 O   0  0  0  0  0  0  0  0  0  0  0  0
    7.8937  -10.0444    0.0000 O   0  0  0  0  0  0  0  0  0  0  0  0
    9.3227   -9.2194    0.0000 O   0  0  0  0  0  0  0  0  0  0  0  0
    7.4581   -5.7048    0.0000 C   0  0  0  0  0  0  0  0  0  0  0  0
    8.9102   -4.6498    0.0000 O   0  0  0  0  0  0  0  0  0  0  0  0
   10.3622   -5.7048    0.0000 O   0  0  0  0  0  0  0  0  0  0  0  0
    7.2446   -4.9079    0.0000 O   0  0  0  0  0  0  0  0  0  0  0  0
   10.1196   -6.9579    0.0000 C   0  0  0  0  0  0  0  0  0  0  0  0
   10.8340   -6.5454    0.0000 O   0  0  0  0  0  0  0  0  0  0  0  0
  1  2  2  0  0  0  0
  2  3  1  0  0  0  0
  3  4  2  0  0  0  0
  4  5  1  0  0  0  0
  5  6  2  0  0  0  0
  6  1  1  0  0  0  0
  7  8  1  0  0  0  0
  8  5  1  0  0  0  0
 10  9  1  6  0  0  0
 10 11  1  0  0  0  0
 11 12  1  1  0  0  0
 12  7  1  0  0  0  0
 10 13  1  0  0  0  0
 13 14  1  0  0  0  0
 14 15  1  0  0  0  0
 15 16  1  0  0  0  0
 16 11  1  0  0  0  0
 15 17  1  6  0  0  0
 18 17  1  6  0  0  0
 18 19  1  0  0  0  0
 18 20  1  0  0  0  0
 20 21  1  0  0  0  0
 21 22  1  0  0  0  0
 22 19  1  0  0  0  0
  8 23  2  0  0  0  0
  1 24  1  0  0  0  0
  2 25  1  0  0  0  0
  3 26  1  0  0  0  0
 13 27  1  1  0  0  0
 14 28  1  6  0  0  0
 22 29  1  6  0  0  0
 21 30  1  1  0  0  0
 20 31  1  6  0  0  0
 29 32  1  0  0  0  0
 18 33  1  1  0  0  0
 33 34  1  0  0  0  0
M  END
>  <cdx:fragmentId>
5

$$$$
