20253.cdx
  Mrv1902 05222410182D          

 27 29  0  0  0  0            999 V2000
    5.0787   -8.6212    0.0000 C   0  0  2  0  0  0  0  0  0  0  0  0
    5.0787   -9.4462    0.0000 C   0  0  2  0  0  0  0  0  0  0  0  0
    5.7931   -9.8588    0.0000 C   0  0  1  0  0  0  0  0  0  0  0  0
    6.5076   -9.4462    0.0000 C   0  0  2  0  0  0  0  0  0  0  0  0
    6.5076   -8.6212    0.0000 C   0  0  1  0  0  0  0  0  0  0  0  0
    5.7931   -8.2088    0.0000 O   0  0  0  0  0  0  0  0  0  0  0  0
    7.2221   -8.2088    0.0000 O   0  0  0  0  0  0  0  0  0  0  0  0
    7.2221   -7.3838    0.0000 C   0  0  2  0  0  0  0  0  0  0  0  0
    6.5076   -6.9712    0.0000 O   0  0  0  0  0  0  0  0  0  0  0  0
    7.9366   -6.9712    0.0000 C   0  0  1  0  0  0  0  0  0  0  0  0
    7.9366   -6.1463    0.0000 C   0  0  1  0  0  0  0  0  0  0  0  0
    7.2221   -5.7338    0.0000 C   0  0  0  0  0  0  0  0  0  0  0  0
    6.5076   -6.1463    0.0000 C   0  0  0  0  0  0  0  0  0  0  0  0
    7.2221   -4.9088    0.0000 C   0  0  0  0  0  0  0  0  0  0  0  0
    6.5076   -4.4962    0.0000 O   0  0  0  0  0  0  0  0  0  0  0  0
    8.7212   -7.2262    0.0000 C   0  0  2  0  0  0  0  0  0  0  0  0
    9.2061   -6.5587    0.0000 C   0  0  0  0  0  0  0  0  0  0  0  0
    8.7212   -5.8913    0.0000 C   0  0  0  0  0  0  0  0  0  0  0  0
    4.3642   -8.2088    0.0000 C   0  0  0  0  0  0  0  0  0  0  0  0
    3.6497   -8.6212    0.0000 O   0  0  0  0  0  0  0  0  0  0  0  0
    7.9366   -4.4962    0.0000 O   0  0  0  0  0  0  0  0  0  0  0  0
    5.7931  -10.6837    0.0000 O   0  0  0  0  0  0  0  0  0  0  0  0
    8.0228   -7.7917    0.0000 H   0  0  0  0  0  0  0  0  0  0  0  0
    8.0228   -5.3258    0.0000 H   0  0  0  0  0  0  0  0  0  0  0  0
    8.9761   -8.0108    0.0000 C   0  0  0  0  0  0  0  0  0  0  0  0
    4.3642   -9.8588    0.0000 O   0  0  0  0  0  0  0  0  0  0  0  0
    7.2221   -9.8588    0.0000 O   0  0  0  0  0  0  0  0  0  0  0  0
  1  2  1  0  0  0  0
  2  3  1  0  0  0  0
  3  4  1  0  0  0  0
  4  5  1  0  0  0  0
  5  6  1  0  0  0  0
  6  1  1  0  0  0  0
  5  7  1  1  0  0  0
  8  7  1  6  0  0  0
  8  9  1  0  0  0  0
  8 10  1  0  0  0  0
 10 11  1  0  0  0  0
 11 12  1  0  0  0  0
 12 13  2  0  0  0  0
 13  9  1  0  0  0  0
 12 14  1  0  0  0  0
 14 15  1  0  0  0  0
 10 16  1  0  0  0  0
 16 17  1  0  0  0  0
 17 18  1  0  0  0  0
 18 11  1  0  0  0  0
  1 19  1  1  0  0  0
 19 20  1  0  0  0  0
 14 21  2  0  0  0  0
  3 22  1  1  0  0  0
 10 23  1  6  0  0  0
 11 24  1  6  0  0  0
 16 25  1  6  0  0  0
  2 26  1  6  0  0  0
  4 27  1  6  0  0  0
M  END
>  <cdx:fragmentId>
5

$$$$
