20259.cdx
  Mrv1902 05222410262D          

 48 52  0  0  0  0            999 V2000
    4.4467   -9.0618    0.0000 C   0  0  1  0  0  0  0  0  0  0  0  0
    4.4632   -9.8867    0.0000 C   0  0  1  0  0  0  0  0  0  0  0  0
    5.1858  -10.2848    0.0000 C   0  0  2  0  0  0  0  0  0  0  0  0
    5.8919   -9.8581    0.0000 C   0  0  2  0  0  0  0  0  0  0  0  0
    5.8754   -9.0332    0.0000 C   0  0  1  0  0  0  0  0  0  0  0  0
    5.1528   -8.6351    0.0000 O   0  0  0  0  0  0  0  0  0  0  0  0
    6.5815   -8.6065    0.0000 O   0  0  0  0  0  0  0  0  0  0  0  0
    6.9965   -7.8935    0.0000 C   0  0  1  0  0  0  0  0  0  0  0  0
    6.5865   -7.1776    0.0000 C   0  0  0  0  0  0  0  0  0  0  0  0
    5.7615   -7.1747    0.0000 O   0  0  0  0  0  0  0  0  0  0  0  0
    7.8215   -7.8964    0.0000 C   0  0  1  0  0  0  0  0  0  0  0  0
    8.2365   -7.1834    0.0000 C   0  0  1  0  0  0  0  0  0  0  0  0
    7.8265   -6.4675    0.0000 O   0  0  0  0  0  0  0  0  0  0  0  0
    7.0015   -6.4646    0.0000 C   0  0  2  0  0  0  0  0  0  0  0  0
    8.2314   -8.6123    0.0000 O   0  0  0  0  0  0  0  0  0  0  0  0
    9.0564   -8.6152    0.0000 C   0  0  0  0  0  0  0  0  0  0  0  0
    9.4715   -7.9022    0.0000 C   0  0  0  0  0  0  0  0  0  0  0  0
    9.0615   -7.1863    0.0000 O   0  0  0  0  0  0  0  0  0  0  0  0
    6.5865   -5.7486    0.0000 C   0  0  0  0  0  0  0  0  0  0  0  0
    5.7615   -5.7486    0.0000 O   0  0  0  0  0  0  0  0  0  0  0  0
    5.3465   -6.4646    0.0000 C   0  0  0  0  0  0  0  0  0  0  0  0
    4.1040   -5.7486    0.0000 C   0  0  0  0  0  0  0  0  0  0  0  0
    4.5190   -6.4646    0.0000 C   0  0  0  0  0  0  0  0  0  0  0  0
    3.2764   -5.7486    0.0000 C   0  0  0  0  0  0  0  0  0  0  0  0
    2.8639   -6.4646    0.0000 C   0  0  0  0  0  0  0  0  0  0  0  0
    4.2483   -6.8505    0.0000 H   0  0  0  0  0  0  0  0  0  0  0  0
    2.8639   -5.0334    0.0000 C   0  0  0  0  0  0  0  0  0  0  0  0
    2.0377   -5.0334    0.0000 C   0  0  0  0  0  0  0  0  0  0  0  0
    1.6252   -5.7486    0.0000 C   0  0  0  0  0  0  0  0  0  0  0  0
    2.0377   -6.4646    0.0000 C   0  0  0  0  0  0  0  0  0  0  0  0
    9.0564  -10.0413    0.0000 C   0  0  0  0  0  0  0  0  0  0  0  0
    9.4715   -9.3253    0.0000 C   0  0  0  0  0  0  0  0  0  0  0  0
    9.4715  -10.7586    0.0000 C   0  0  0  0  0  0  0  0  0  0  0  0
   10.2990  -10.7586    0.0000 C   0  0  0  0  0  0  0  0  0  0  0  0
   10.7140  -10.0413    0.0000 C   0  0  0  0  0  0  0  0  0  0  0  0
   10.2990   -9.3253    0.0000 C   0  0  0  0  0  0  0  0  0  0  0  0
    4.2477   -5.4051    0.0000 H   0  0  0  0  0  0  0  0  0  0  0  0
    0.8002   -5.7485    0.0000 O   0  0  0  0  0  0  0  0  0  0  0  0
    1.6249   -7.1788    0.0000 O   0  0  0  0  0  0  0  0  0  0  0  0
    6.9990   -5.0342    0.0000 O   0  0  0  0  0  0  0  0  0  0  0  0
    9.0593  -11.4733    0.0000 O   0  0  0  0  0  0  0  0  0  0  0  0
   10.7112  -11.4733    0.0000 O   0  0  0  0  0  0  0  0  0  0  0  0
    3.7572  -10.3134    0.0000 O   0  0  0  0  0  0  0  0  0  0  0  0
    5.2023  -11.1096    0.0000 O   0  0  0  0  0  0  0  0  0  0  0  0
    3.7241   -8.6637    0.0000 C   0  0  0  0  0  0  0  0  0  0  0  0
    6.6145  -10.2562    0.0000 O   0  0  0  0  0  0  0  0  0  0  0  0
    8.5071   -6.7385    0.0000 H   0  0  0  0  0  0  0  0  0  0  0  0
    7.5946   -8.2809    0.0000 H   0  0  0  0  0  0  0  0  0  0  0  0
  1  2  1  0  0  0  0
  2  3  1  0  0  0  0
  3  4  1  0  0  0  0
  4  5  1  0  0  0  0
  5  6  1  0  0  0  0
  6  1  1  0  0  0  0
  5  7  1  1  0  0  0
  8  7  1  1  0  0  0
  8  9  1  0  0  0  0
  9 10  1  0  0  0  0
  8 11  1  0  0  0  0
 11 12  1  0  0  0  0
 12 13  1  0  0  0  0
 13 14  1  0  0  0  0
 14  9  1  0  0  0  0
 11 15  1  0  0  0  0
 15 16  1  0  0  0  0
 16 17  1  0  0  0  0
 17 18  1  0  0  0  0
 18 12  1  0  0  0  0
 14 19  1  1  0  0  0
 20 21  2  0  0  0  0
 21 10  1  0  0  0  0
 22 23  2  0  0  0  0
 23 21  1  0  0  0  0
 22 24  1  0  0  0  0
 24 25  2  0  0  0  0
 26 23  1  0  0  0  0
 24 27  1  0  0  0  0
 27 28  2  0  0  0  0
 28 29  1  0  0  0  0
 29 30  2  0  0  0  0
 30 25  1  0  0  0  0
 31 32  2  0  0  0  0
 32 16  1  0  0  0  0
 31 33  1  0  0  0  0
 33 34  2  0  0  0  0
 34 35  1  0  0  0  0
 35 36  2  0  0  0  0
 36 32  1  0  0  0  0
 22 37  1  0  0  0  0
 29 38  1  0  0  0  0
 30 39  1  0  0  0  0
 19 40  1  0  0  0  0
 33 41  1  0  0  0  0
 34 42  1  0  0  0  0
  2 43  1  1  0  0  0
  3 44  1  6  0  0  0
  1 45  1  6  0  0  0
  4 46  1  6  0  0  0
 12 47  1  6  0  0  0
 11 48  1  6  0  0  0
M  END
>  <cdx:fragmentId>
5

$$$$
