20254.cdx
  Mrv1902 05222410202D          

 21 23  0  0  0  0            999 V2000
   10.2582   -5.7338    0.0000 O   0  0  0  0  0  0  0  0  0  0  0  0
    6.6858   -9.4462    0.0000 O   0  0  0  0  0  0  0  0  0  0  0  0
    5.2569   -9.4462    0.0000 O   0  0  0  0  0  0  0  0  0  0  0  0
    3.1135   -7.3838    0.0000 C   0  0  0  0  0  0  0  0  0  0  0  0
    3.8280   -6.9712    0.0000 O   0  0  0  0  0  0  0  0  0  0  0  0
    9.5437   -6.9712    0.0000 C   0  0  0  0  0  0  0  0  0  0  0  0
    9.5437   -6.1463    0.0000 C   0  0  0  0  0  0  0  0  0  0  0  0
    8.8293   -5.7338    0.0000 C   0  0  0  0  0  0  0  0  0  0  0  0
    8.1148   -6.1463    0.0000 C   0  0  0  0  0  0  0  0  0  0  0  0
    8.8293   -7.3838    0.0000 C   0  0  0  0  0  0  0  0  0  0  0  0
    8.1148   -6.9712    0.0000 C   0  0  0  0  0  0  0  0  0  0  0  0
    6.6858   -8.6212    0.0000 C   0  0  0  0  0  0  0  0  0  0  0  0
    7.4003   -8.2088    0.0000 C   0  0  0  0  0  0  0  0  0  0  0  0
    7.4003   -7.3838    0.0000 C   0  0  0  0  0  0  0  0  0  0  0  0
    6.6858   -6.9712    0.0000 O   0  0  0  0  0  0  0  0  0  0  0  0
    5.2569   -8.6212    0.0000 C   0  0  0  0  0  0  0  0  0  0  0  0
    5.9714   -8.2088    0.0000 C   0  0  0  0  0  0  0  0  0  0  0  0
    5.9714   -7.3838    0.0000 C   0  0  0  0  0  0  0  0  0  0  0  0
    5.2569   -6.9712    0.0000 C   0  0  0  0  0  0  0  0  0  0  0  0
    4.5424   -7.3838    0.0000 C   0  0  0  0  0  0  0  0  0  0  0  0
    4.5424   -8.2088    0.0000 C   0  0  0  0  0  0  0  0  0  0  0  0
  7  1  1  0  0  0  0
 12  2  2  0  0  0  0
 16  3  1  0  0  0  0
  5  4  1  0  0  0  0
 20  5  1  0  0  0  0
  6 10  2  0  0  0  0
  7  6  1  0  0  0  0
  8  7  2  0  0  0  0
  9  8  1  0  0  0  0
 11  9  2  0  0  0  0
 11 10  1  0  0  0  0
 14 11  1  0  0  0  0
 12 17  1  0  0  0  0
 13 12  1  0  0  0  0
 14 13  2  0  0  0  0
 15 14  1  0  0  0  0
 18 15  1  0  0  0  0
 16 21  1  0  0  0  0
 17 16  2  0  0  0  0
 18 17  1  0  0  0  0
 19 18  2  0  0  0  0
 20 19  1  0  0  0  0
 21 20  2  0  0  0  0
M  END
>  <cdx:fragmentId>
5

$$$$
