20256.cdx
  Mrv1902 05222410192D          

 22 24  0  0  0  0            999 V2000
    6.3162   -6.9919    0.0000 C   0  0  0  0  0  0  0  0  0  0  0  0
    6.3162   -7.8169    0.0000 C   0  0  0  0  0  0  0  0  0  0  0  0
    7.0306   -8.2294    0.0000 C   0  0  0  0  0  0  0  0  0  0  0  0
    7.7451   -7.8169    0.0000 O   0  0  0  0  0  0  0  0  0  0  0  0
    7.7451   -6.9919    0.0000 C   0  0  0  0  0  0  0  0  0  0  0  0
    7.0306   -6.5794    0.0000 C   0  0  0  0  0  0  0  0  0  0  0  0
    7.0306   -5.7544    0.0000 C   0  0  0  0  0  0  0  0  0  0  0  0
    6.3162   -5.3419    0.0000 O   0  0  0  0  0  0  0  0  0  0  0  0
    7.7451   -5.3419    0.0000 O   0  0  0  0  0  0  0  0  0  0  0  0
    7.7451   -4.5169    0.0000 C   0  0  0  0  0  0  0  0  0  0  0  0
    7.0306   -9.0544    0.0000 O   0  0  0  0  0  0  0  0  0  0  0  0
    5.5316   -6.7369    0.0000 C   0  0  0  0  0  0  0  0  0  0  0  0
    5.0466   -7.4044    0.0000 C   0  0  0  0  0  0  0  0  0  0  0  0
    5.5316   -8.0718    0.0000 C   0  0  0  0  0  0  0  0  0  0  0  0
    6.1268   -6.5633    0.0000 H   0  0  0  0  0  0  0  0  0  0  0  0
    6.2093   -8.2042    0.0000 H   0  0  0  0  0  0  0  0  0  0  0  0
    6.8038   -8.5313    0.0000 H   0  0  0  0  0  0  0  0  0  0  0  0
    5.2766   -5.9523    0.0000 O   0  0  0  0  0  0  0  0  0  0  0  0
    5.1397   -6.7782    0.0000 H   0  0  0  0  0  0  0  0  0  0  0  0
    4.6341   -8.1188    0.0000 O   0  0  0  0  0  0  0  0  0  0  0  0
    4.7672   -7.1407    0.0000 H   0  0  0  0  0  0  0  0  0  0  0  0
    5.9441   -8.7863    0.0000 C   0  0  0  0  0  0  0  0  0  0  0  0
  1  2  1  0  0  0  0
  2  3  1  0  0  0  0
  3  4  1  0  0  0  0
  4  5  1  0  0  0  0
  5  6  2  0  0  0  0
  6  1  1  0  0  0  0
  6  7  1  0  0  0  0
  7  8  2  0  0  0  0
  7  9  1  0  0  0  0
  9 10  1  0  0  0  0
  3 11  1  0  0  0  0
  1 12  1  0  0  0  0
 12 13  1  0  0  0  0
 13 14  1  0  0  0  0
 14  2  1  0  0  0  0
  1 15  1  0  0  0  0
  2 16  1  0  0  0  0
  3 17  1  0  0  0  0
 12 18  1  0  0  0  0
 12 19  1  0  0  0  0
 13 20  1  0  0  0  0
 14 20  1  0  0  0  0
 13 21  1  0  0  0  0
 14 22  1  0  0  0  0
M  END
>  <cdx:fragmentId>
5

$$$$
