20258.cdx
  Mrv1902 05222410262D          

 57 61  0  0  0  0            999 V2000
    1.8199   -8.0850    0.0000 O   0  0  0  0  0  0  0  0  0  0  0  0
    2.5344   -8.4975    0.0000 C   0  0  0  0  0  0  0  0  0  0  0  0
    3.2489   -8.0850    0.0000 C   0  0  0  0  0  0  0  0  0  0  0  0
    3.9633   -8.4975    0.0000 C   0  0  0  0  0  0  0  0  0  0  0  0
    4.6778   -8.0850    0.0000 C   0  0  0  0  0  0  0  0  0  0  0  0
    5.3923   -8.4975    0.0000 C   0  0  0  0  0  0  0  0  0  0  0  0
    6.1068   -8.0850    0.0000 C   0  0  0  0  0  0  0  0  0  0  0  0
    6.1068   -7.2600    0.0000 O   0  0  0  0  0  0  0  0  0  0  0  0
    6.8212   -8.4975    0.0000 O   0  0  0  0  0  0  0  0  0  0  0  0
    7.5357   -8.0850    0.0000 C   0  0  2  0  0  0  0  0  0  0  0  0
    7.5357   -7.2600    0.0000 C   0  0  1  0  0  0  0  0  0  0  0  0
    6.8212   -6.8475    0.0000 C   0  0  0  0  0  0  0  0  0  0  0  0
    8.2502   -8.4975    0.0000 C   0  0  1  0  0  0  0  0  0  0  0  0
    8.9646   -8.0850    0.0000 C   0  0  2  0  0  0  0  0  0  0  0  0
    8.9646   -7.2600    0.0000 C   0  0  1  0  0  0  0  0  0  0  0  0
    8.2502   -6.8475    0.0000 O   0  0  0  0  0  0  0  0  0  0  0  0
    9.6791   -6.8475    0.0000 O   0  0  0  0  0  0  0  0  0  0  0  0
    9.6791   -6.0225    0.0000 C   0  0  0  0  0  0  0  0  0  0  0  0
   10.3936   -5.6100    0.0000 C   0  0  0  0  0  0  0  0  0  0  0  0
   10.3936   -4.7850    0.0000 C   0  0  0  0  0  0  0  0  0  0  0  0
    9.6791   -4.3725    0.0000 C   0  0  0  0  0  0  0  0  0  0  0  0
   11.1081   -4.3725    0.0000 C   0  0  0  0  0  0  0  0  0  0  0  0
   11.1081   -3.5475    0.0000 C   0  0  0  0  0  0  0  0  0  0  0  0
   10.3936   -3.1350    0.0000 C   0  0  0  0  0  0  0  0  0  0  0  0
    9.6791   -3.5475    0.0000 C   0  0  0  0  0  0  0  0  0  0  0  0
    8.2502   -9.3225    0.0000 O   0  0  0  0  0  0  0  0  0  0  0  0
    8.9646   -9.7350    0.0000 C   0  0  2  0  0  0  0  0  0  0  0  0
    9.6791   -9.3225    0.0000 O   0  0  0  0  0  0  0  0  0  0  0  0
    9.6791   -8.4975    0.0000 O   0  0  0  0  0  0  0  0  0  0  0  0
    8.9646  -10.5600    0.0000 C   0  0  1  0  0  0  0  0  0  0  0  0
    9.6791  -10.9725    0.0000 C   0  0  1  0  0  0  0  0  0  0  0  0
   10.3936  -10.5600    0.0000 C   0  0  2  0  0  0  0  0  0  0  0  0
   10.3936   -9.7350    0.0000 C   0  0  2  0  0  0  0  0  0  0  0  0
    6.8212   -6.0225    0.0000 O   0  0  0  0  0  0  0  0  0  0  0  0
    6.1068   -5.6100    0.0000 C   0  0  2  0  0  0  0  0  0  0  0  0
    5.3923   -6.0225    0.0000 O   0  0  0  0  0  0  0  0  0  0  0  0
    5.9352   -4.8030    0.0000 C   0  0  1  0  0  0  0  0  0  0  0  0
    5.1147   -4.7168    0.0000 C   0  0  2  0  0  0  0  0  0  0  0  0
    4.7792   -5.4705    0.0000 C   0  0  0  0  0  0  0  0  0  0  0  0
    2.5344   -9.3225    0.0000 C   0  0  0  0  0  0  0  0  0  0  0  0
    3.2489   -9.7350    0.0000 C   0  0  0  0  0  0  0  0  0  0  0  0
    3.9633   -9.3225    0.0000 C   0  0  0  0  0  0  0  0  0  0  0  0
    1.1055   -8.4975    0.0000 C   0  0  0  0  0  0  0  0  0  0  0  0
    1.8199   -9.7350    0.0000 O   0  0  0  0  0  0  0  0  0  0  0  0
    4.4003   -4.3043    0.0000 C   0  0  0  0  0  0  0  0  0  0  0  0
    4.4003   -3.4793    0.0000 O   0  0  0  0  0  0  0  0  0  0  0  0
    5.1147   -3.8918    0.0000 O   0  0  0  0  0  0  0  0  0  0  0  0
    6.4873   -4.1899    0.0000 O   0  0  0  0  0  0  0  0  0  0  0  0
    8.2502  -10.9725    0.0000 O   0  0  0  0  0  0  0  0  0  0  0  0
    9.6791  -11.7975    0.0000 O   0  0  0  0  0  0  0  0  0  0  0  0
   11.1081   -9.3225    0.0000 C   0  0  0  0  0  0  0  0  0  0  0  0
   11.1081  -10.9725    0.0000 O   0  0  0  0  0  0  0  0  0  0  0  0
    4.6778   -7.7138    0.0000 H   0  0  0  0  0  0  0  0  0  0  0  0
    5.3923   -8.8688    0.0000 H   0  0  0  0  0  0  0  0  0  0  0  0
    8.9646   -3.1350    0.0000 O   0  0  0  0  0  0  0  0  0  0  0  0
   10.3936   -2.3100    0.0000 O   0  0  0  0  0  0  0  0  0  0  0  0
   11.1081   -1.8975    0.0000 C   0  0  0  0  0  0  0  0  0  0  0  0
  1  2  1  0  0  0  0
  2  3  1  0  0  0  0
  3  4  2  0  0  0  0
  4  5  1  0  0  0  0
  5  6  2  0  0  0  0
  6  7  1  0  0  0  0
  7  8  2  0  0  0  0
  7  9  1  0  0  0  0
 10  9  1  6  0  0  0
 10 11  1  0  0  0  0
 11 12  1  1  0  0  0
 10 13  1  0  0  0  0
 13 14  1  0  0  0  0
 14 15  1  0  0  0  0
 15 16  1  0  0  0  0
 16 11  1  0  0  0  0
 15 17  1  1  0  0  0
 17 18  1  0  0  0  0
 18 19  1  0  0  0  0
 19 20  1  0  0  0  0
 20 21  1  0  0  0  0
 20 22  2  0  0  0  0
 22 23  1  0  0  0  0
 23 24  2  0  0  0  0
 24 25  1  0  0  0  0
 25 21  2  0  0  0  0
 13 26  1  1  0  0  0
 27 26  1  6  0  0  0
 27 28  1  0  0  0  0
 14 29  1  6  0  0  0
 27 30  1  0  0  0  0
 30 31  1  0  0  0  0
 31 32  1  0  0  0  0
 32 33  1  0  0  0  0
 33 28  1  0  0  0  0
 12 34  1  0  0  0  0
 35 34  1  6  0  0  0
 35 36  1  0  0  0  0
 35 37  1  0  0  0  0
 37 38  1  0  0  0  0
 38 39  1  0  0  0  0
 39 36  1  0  0  0  0
  2 40  2  0  0  0  0
 40 41  1  0  0  0  0
 41 42  2  0  0  0  0
 42  4  1  0  0  0  0
  1 43  1  0  0  0  0
 40 44  1  0  0  0  0
 38 45  1  0  0  0  0
 45 46  1  0  0  0  0
 38 47  1  1  0  0  0
 37 48  1  1  0  0  0
 30 49  1  1  0  0  0
 31 50  1  1  0  0  0
 33 51  1  1  0  0  0
 32 52  1  6  0  0  0
  5 53  1  0  0  0  0
  6 54  1  0  0  0  0
 25 55  1  0  0  0  0
 24 56  1  0  0  0  0
 56 57  1  0  0  0  0
M  END
>  <cdx:fragmentId>
5

$$$$
