20252.cdx
  Mrv1902 05222410192D          

 33 35  0  0  0  0            999 V2000
    6.9762   -7.5075    0.0000 C   0  0  1  0  0  0  0  0  0  0  0  0
    6.9762   -8.3325    0.0000 C   0  0  2  0  0  0  0  0  0  0  0  0
    7.6906   -8.7450    0.0000 C   0  0  1  0  0  0  0  0  0  0  0  0
    8.4051   -8.3325    0.0000 O   0  0  0  0  0  0  0  0  0  0  0  0
    8.4051   -7.5075    0.0000 C   0  0  0  0  0  0  0  0  0  0  0  0
    7.6906   -7.0950    0.0000 C   0  0  0  0  0  0  0  0  0  0  0  0
    6.1916   -7.2526    0.0000 C   0  0  1  0  0  0  0  0  0  0  0  0
    5.7066   -7.9200    0.0000 C   0  0  0  0  0  0  0  0  0  0  0  0
    6.1916   -8.5874    0.0000 C   0  0  0  0  0  0  0  0  0  0  0  0
    7.6906   -6.2700    0.0000 C   0  0  0  0  0  0  0  0  0  0  0  0
    6.9762   -5.8575    0.0000 O   0  0  0  0  0  0  0  0  0  0  0  0
    8.4051   -5.8575    0.0000 O   0  0  0  0  0  0  0  0  0  0  0  0
    5.9366   -6.4679    0.0000 O   0  0  0  0  0  0  0  0  0  0  0  0
    5.2221   -6.8804    0.0000 C   0  0  0  0  0  0  0  0  0  0  0  0
    4.5077   -6.4679    0.0000 C   0  0  0  0  0  0  0  0  0  0  0  0
    3.7932   -6.8804    0.0000 C   0  0  0  0  0  0  0  0  0  0  0  0
    3.0787   -6.4679    0.0000 C   0  0  0  0  0  0  0  0  0  0  0  0
    5.5531  -10.8488    0.0000 C   0  0  2  0  0  0  0  0  0  0  0  0
    5.5531  -11.6738    0.0000 C   0  0  2  0  0  0  0  0  0  0  0  0
    6.2675  -12.0862    0.0000 C   0  0  1  0  0  0  0  0  0  0  0  0
    6.9820  -11.6738    0.0000 C   0  0  2  0  0  0  0  0  0  0  0  0
    6.9820  -10.8488    0.0000 C   0  0  1  0  0  0  0  0  0  0  0  0
    6.2675  -10.4363    0.0000 O   0  0  0  0  0  0  0  0  0  0  0  0
    7.6965  -10.4363    0.0000 O   0  0  0  0  0  0  0  0  0  0  0  0
    4.8386  -10.4363    0.0000 C   0  0  0  0  0  0  0  0  0  0  0  0
    6.2675  -12.9112    0.0000 O   0  0  0  0  0  0  0  0  0  0  0  0
    7.6965  -12.0862    0.0000 O   0  0  0  0  0  0  0  0  0  0  0  0
    4.8386  -12.0862    0.0000 O   0  0  0  0  0  0  0  0  0  0  0  0
    4.1241  -10.8488    0.0000 O   0  0  0  0  0  0  0  0  0  0  0  0
    6.8899   -6.6870    0.0000 H   0  0  0  0  0  0  0  0  0  0  0  0
    6.8899   -9.1530    0.0000 H   0  0  0  0  0  0  0  0  0  0  0  0
    5.9366   -9.3721    0.0000 C   0  0  0  0  0  0  0  0  0  0  0  0
    8.4051   -5.0325    0.0000 C   0  0  0  0  0  0  0  0  0  0  0  0
  1  2  1  0  0  0  0
  2  3  1  0  0  0  0
  3  4  1  0  0  0  0
  4  5  1  0  0  0  0
  5  6  2  0  0  0  0
  6  1  1  0  0  0  0
  1  7  1  0  0  0  0
  7  8  1  0  0  0  0
  8  9  2  0  0  0  0
  9  2  1  0  0  0  0
  6 10  1  0  0  0  0
 10 11  2  0  0  0  0
 10 12  1  0  0  0  0
  7 13  1  1  0  0  0
 13 14  1  0  0  0  0
 14 15  1  0  0  0  0
 15 16  1  0  0  0  0
 16 17  1  0  0  0  0
 18 19  1  0  0  0  0
 19 20  1  0  0  0  0
 20 21  1  0  0  0  0
 21 22  1  0  0  0  0
 22 23  1  0  0  0  0
 23 18  1  0  0  0  0
 22 24  1  1  0  0  0
 18 25  1  1  0  0  0
 20 26  1  1  0  0  0
 21 27  1  6  0  0  0
 19 28  1  6  0  0  0
 25 29  1  0  0  0  0
  1 30  1  1  0  0  0
  2 31  1  1  0  0  0
  9 32  1  0  0  0  0
 12 33  1  0  0  0  0
  3 24  1  1  0  0  0
M  END
>  <cdx:fragmentId>
5

$$$$
