20266.cdx
  Mrv1902 05222410262D          

 23 28  0  0  0  0            999 V2000
    3.6556   -9.3225    0.0000 C   0  0  0  0  0  0  0  0  0  0  0  0
    3.6556  -10.1475    0.0000 C   0  0  0  0  0  0  0  0  0  0  0  0
    4.3700  -10.5600    0.0000 C   0  0  0  0  0  0  0  0  0  0  0  0
    5.0845  -10.1475    0.0000 C   0  0  0  0  0  0  0  0  0  0  0  0
    5.0845   -9.3225    0.0000 C   0  0  0  0  0  0  0  0  0  0  0  0
    4.3700   -8.9100    0.0000 C   0  0  0  0  0  0  0  0  0  0  0  0
    5.7990  -10.5600    0.0000 C   0  0  0  0  0  0  0  0  0  0  0  0
    6.5134  -10.1475    0.0000 C   0  0  0  0  0  0  0  0  0  0  0  0
    6.5134   -9.3225    0.0000 C   0  0  0  0  0  0  0  0  0  0  0  0
    5.7990   -8.9100    0.0000 C   0  0  0  0  0  0  0  0  0  0  0  0
    7.2279   -8.9100    0.0000 C   0  0  0  0  0  0  0  0  0  0  0  0
    7.2279   -8.0850    0.0000 C   0  0  0  0  0  0  0  0  0  0  0  0
    6.5134   -7.6725    0.0000 C   0  0  0  0  0  0  0  0  0  0  0  0
    5.7990   -8.0850    0.0000 C   0  0  0  0  0  0  0  0  0  0  0  0
    7.9424   -9.3225    0.0000 C   0  0  0  0  0  0  0  0  0  0  0  0
    8.6569   -8.9100    0.0000 C   0  0  0  0  0  0  0  0  0  0  0  0
    8.6569   -8.0850    0.0000 C   0  0  0  0  0  0  0  0  0  0  0  0
    7.9424   -7.6725    0.0000 C   0  0  0  0  0  0  0  0  0  0  0  0
    9.3713   -7.6725    0.0000 C   0  0  0  0  0  0  0  0  0  0  0  0
    9.3713   -6.8475    0.0000 C   0  0  0  0  0  0  0  0  0  0  0  0
    8.6569   -6.4350    0.0000 C   0  0  0  0  0  0  0  0  0  0  0  0
    7.9424   -6.8475    0.0000 C   0  0  0  0  0  0  0  0  0  0  0  0
    5.7990   -9.7350    0.0000 C   0  0  0  0  0  0  0  0  0  0  0  0
  1  2  2  0  0  0  0
  2  3  1  0  0  0  0
  3  4  2  0  0  0  0
  4  5  1  0  0  0  0
  5  6  2  0  0  0  0
  6  1  1  0  0  0  0
  4  7  1  0  0  0  0
  7  8  2  0  0  0  0
  8  9  1  0  0  0  0
  9 10  1  0  0  0  0
 10  5  1  0  0  0  0
  9 11  1  0  0  0  0
 11 12  2  0  0  0  0
 12 13  1  0  0  0  0
 13 14  2  0  0  0  0
 14 10  1  0  0  0  0
 11 15  1  0  0  0  0
 15 16  2  0  0  0  0
 16 17  1  0  0  0  0
 17 18  1  0  0  0  0
 18 12  1  0  0  0  0
 17 19  2  0  0  0  0
 19 20  1  0  0  0  0
 20 21  2  0  0  0  0
 21 22  1  0  0  0  0
 22 18  2  0  0  0  0
 10 23  1  0  0  0  0
 23  9  1  0  0  0  0
M  END
>  <cdx:fragmentId>
5

$$$$
