20261.cdx
  Mrv1902 05222410282D          

 32 34  0  0  0  0            999 V2000
    4.5218  -10.4156    0.0000 C   0  0  0  0  0  0  0  0  0  0  0  0
    4.5218  -11.2406    0.0000 C   0  0  0  0  0  0  0  0  0  0  0  0
    5.2363  -11.6531    0.0000 C   0  0  0  0  0  0  0  0  0  0  0  0
    5.9507  -11.2406    0.0000 C   0  0  0  0  0  0  0  0  0  0  0  0
    5.9507  -10.4156    0.0000 C   0  0  0  0  0  0  0  0  0  0  0  0
    5.2363  -10.0031    0.0000 O   0  0  0  0  0  0  0  0  0  0  0  0
    6.6652  -10.0031    0.0000 O   0  0  0  0  0  0  0  0  0  0  0  0
    6.6652   -9.1781    0.0000 C   0  0  0  0  0  0  0  0  0  0  0  0
    5.9507   -8.7656    0.0000 C   0  0  0  0  0  0  0  0  0  0  0  0
    5.2363   -9.1781    0.0000 O   0  0  0  0  0  0  0  0  0  0  0  0
    7.3797   -8.7656    0.0000 C   0  0  0  0  0  0  0  0  0  0  0  0
    7.3797   -7.9406    0.0000 C   0  0  0  0  0  0  0  0  0  0  0  0
    6.6652   -7.5281    0.0000 O   0  0  0  0  0  0  0  0  0  0  0  0
    5.9507   -7.9406    0.0000 C   0  0  0  0  0  0  0  0  0  0  0  0
    8.0942   -7.5281    0.0000 O   0  0  0  0  0  0  0  0  0  0  0  0
    8.0942   -6.7031    0.0000 C   0  0  0  0  0  0  0  0  0  0  0  0
    8.8086   -6.2906    0.0000 C   0  0  0  0  0  0  0  0  0  0  0  0
    8.8086   -5.4656    0.0000 C   0  0  0  0  0  0  0  0  0  0  0  0
    8.0942   -5.0531    0.0000 C   0  0  0  0  0  0  0  0  0  0  0  0
    9.5231   -5.0531    0.0000 C   0  0  0  0  0  0  0  0  0  0  0  0
    9.5231   -4.2281    0.0000 C   0  0  0  0  0  0  0  0  0  0  0  0
    8.8086   -3.8156    0.0000 C   0  0  0  0  0  0  0  0  0  0  0  0
    8.0942   -4.2281    0.0000 C   0  0  0  0  0  0  0  0  0  0  0  0
    6.6652  -11.6531    0.0000 O   0  0  0  0  0  0  0  0  0  0  0  0
    5.2363  -12.4781    0.0000 O   0  0  0  0  0  0  0  0  0  0  0  0
    3.8073  -11.6531    0.0000 O   0  0  0  0  0  0  0  0  0  0  0  0
    3.8073  -10.0031    0.0000 C   0  0  0  0  0  0  0  0  0  0  0  0
    8.0942   -9.1781    0.0000 O   0  0  0  0  0  0  0  0  0  0  0  0
    5.2363   -7.5281    0.0000 C   0  0  0  0  0  0  0  0  0  0  0  0
    5.2363   -6.7031    0.0000 O   0  0  0  0  0  0  0  0  0  0  0  0
    8.8086   -2.9906    0.0000 O   0  0  0  0  0  0  0  0  0  0  0  0
   10.2376   -3.8156    0.0000 O   0  0  0  0  0  0  0  0  0  0  0  0
  1  2  1  0  0  0  0
  2  3  1  0  0  0  0
  3  4  1  0  0  0  0
  4  5  1  0  0  0  0
  5  6  1  0  0  0  0
  6  1  1  0  0  0  0
  5  7  1  0  0  0  0
  7  8  1  0  0  0  0
  8  9  1  0  0  0  0
  9 10  1  0  0  0  0
  8 11  1  0  0  0  0
 11 12  1  0  0  0  0
 12 13  1  0  0  0  0
 13 14  1  0  0  0  0
 14  9  1  0  0  0  0
 12 15  1  0  0  0  0
 15 16  1  0  0  0  0
 16 17  1  0  0  0  0
 17 18  1  0  0  0  0
 18 19  1  0  0  0  0
 18 20  2  0  0  0  0
 20 21  1  0  0  0  0
 21 22  2  0  0  0  0
 22 23  1  0  0  0  0
 23 19  2  0  0  0  0
  4 24  1  0  0  0  0
  3 25  1  0  0  0  0
  2 26  1  0  0  0  0
  1 27  1  0  0  0  0
 11 28  1  0  0  0  0
 14 29  1  0  0  0  0
 29 30  1  0  0  0  0
 22 31  1  0  0  0  0
 21 32  1  0  0  0  0
M  END
>  <cdx:fragmentId>
5

$$$$
