20264.cdx
  Mrv1902 05222410262D          

 30 31  0  0  0  0            999 V2000
   10.4590   -6.2814    0.0000 C   0  0  0  0  0  0  0  0  0  0  0  0
    9.0294   -5.4576    0.0000 C   0  0  0  0  0  0  0  0  0  0  0  0
    9.0301   -6.2826    0.0000 C   0  0  0  0  0  0  0  0  0  0  0  0
    9.7449   -6.6945    0.0000 C   0  0  0  0  0  0  0  0  0  0  0  0
    7.6011   -6.2838    0.0000 O   0  0  0  0  0  0  0  0  0  0  0  0
    8.3159   -6.6957    0.0000 C   0  0  0  0  0  0  0  0  0  0  0  0
    6.8856   -5.0469    0.0000 O   0  0  0  0  0  0  0  0  0  0  0  0
    6.1715   -5.4600    0.0000 C   0  0  0  0  0  0  0  0  0  0  0  0
    6.1722   -6.2850    0.0000 C   0  0  0  0  0  0  0  0  0  0  0  0
    6.8870   -6.6969    0.0000 C   0  0  2  0  0  0  0  0  0  0  0  0
    5.4567   -5.0481    0.0000 C   0  0  0  0  0  0  0  0  0  0  0  0
    4.7426   -5.4611    0.0000 C   0  0  0  0  0  0  0  0  0  0  0  0
    4.7432   -6.2861    0.0000 C   0  0  0  0  0  0  0  0  0  0  0  0
    5.4581   -6.6981    0.0000 C   0  0  0  0  0  0  0  0  0  0  0  0
    4.0278   -5.0492    0.0000 O   0  0  0  0  0  0  0  0  0  0  0  0
    3.3136   -5.4623    0.0000 C   0  0  0  0  0  0  0  0  0  0  0  0
    3.3143   -6.2873    0.0000 C   0  0  0  0  0  0  0  0  0  0  0  0
    4.0291   -6.6992    0.0000 C   0  0  0  0  0  0  0  0  0  0  0  0
    8.3166   -7.5207    0.0000 O   0  0  0  0  0  0  0  0  0  0  0  0
    2.5988   -5.0504    0.0000 O   0  0  0  0  0  0  0  0  0  0  0  0
    6.8877   -7.5219    0.0000 C   0  0  1  0  0  0  0  0  0  0  0  0
    6.2206   -8.0073    0.0000 C   0  0  0  0  0  0  0  0  0  0  0  0
    6.4762   -8.7918    0.0000 O   0  0  0  0  0  0  0  0  0  0  0  0
    7.3012   -8.7911    0.0000 C   0  0  0  0  0  0  0  0  0  0  0  0
    7.5555   -8.0062    0.0000 O   0  0  0  0  0  0  0  0  0  0  0  0
    5.4239   -8.2215    0.0000 C   0  0  0  0  0  0  0  0  0  0  0  0
    5.8076   -7.2932    0.0000 C   0  0  0  0  0  0  0  0  0  0  0  0
    7.3019   -9.6161    0.0000 C   0  0  0  0  0  0  0  0  0  0  0  0
    8.0983   -9.0039    0.0000 C   0  0  0  0  0  0  0  0  0  0  0  0
    6.8856   -4.2219    0.0000 C   0  0  0  0  0  0  0  0  0  0  0  0
  2  3  1  0  0  0  0
  3  4  2  0  0  0  0
  4  1  1  0  0  0  0
  5  6  1  0  0  0  0
  6  3  1  0  0  0  0
  7  8  1  0  0  0  0
  9 10  1  0  0  0  0
 10  5  1  1  0  0  0
  8 11  2  0  0  0  0
 11 12  1  0  0  0  0
 12 13  1  0  0  0  0
 13 14  1  0  0  0  0
 14  9  2  0  0  0  0
 12 15  1  0  0  0  0
 15 16  1  0  0  0  0
 16 17  1  0  0  0  0
 17 18  2  0  0  0  0
 18 13  1  0  0  0  0
  6 19  2  0  0  0  0
 16 20  2  0  0  0  0
 10 21  1  0  0  0  0
 21 22  1  0  0  0  0
 22 23  1  0  0  0  0
 23 24  1  0  0  0  0
 24 25  1  0  0  0  0
 21 25  1  6  0  0  0
 22 26  1  0  0  0  0
 22 27  1  0  0  0  0
 24 28  1  0  0  0  0
 24 29  1  0  0  0  0
  7 30  1  0  0  0  0
M  END
>  <cdx:fragmentId>
5

$$$$
