20260.cdx
  Mrv1902 05222410282D          

 35 37  0  0  0  0            999 V2000
    3.8618   -9.1575    0.0000 C   0  0  0  0  0  0  0  0  0  0  0  0
    3.8618   -9.9825    0.0000 C   0  0  0  0  0  0  0  0  0  0  0  0
    4.5763  -10.3950    0.0000 C   0  0  0  0  0  0  0  0  0  0  0  0
    5.2907   -9.9825    0.0000 C   0  0  0  0  0  0  0  0  0  0  0  0
    5.2907   -9.1575    0.0000 C   0  0  0  0  0  0  0  0  0  0  0  0
    4.5763   -8.7450    0.0000 O   0  0  0  0  0  0  0  0  0  0  0  0
    6.0052   -8.7450    0.0000 O   0  0  0  0  0  0  0  0  0  0  0  0
    6.0052   -7.9200    0.0000 C   0  0  2  0  0  0  0  0  0  0  0  0
    5.2907   -7.5075    0.0000 O   0  0  0  0  0  0  0  0  0  0  0  0
    6.7197   -7.5075    0.0000 C   0  0  1  0  0  0  0  0  0  0  0  0
    6.7197   -6.6825    0.0000 C   0  0  1  0  0  0  0  0  0  0  0  0
    6.0052   -6.2700    0.0000 C   0  0  0  0  0  0  0  0  0  0  0  0
    5.2907   -6.6825    0.0000 C   0  0  0  0  0  0  0  0  0  0  0  0
    7.5043   -7.7624    0.0000 C   0  0  1  0  0  0  0  0  0  0  0  0
    7.9892   -7.0950    0.0000 C   0  0  2  0  0  0  0  0  0  0  0  0
    7.5043   -6.4276    0.0000 C   0  0  1  0  0  0  0  0  0  0  0  0
    3.1473   -8.7450    0.0000 C   0  0  0  0  0  0  0  0  0  0  0  0
    2.4329   -9.1575    0.0000 O   0  0  0  0  0  0  0  0  0  0  0  0
    6.0052  -10.3950    0.0000 O   0  0  0  0  0  0  0  0  0  0  0  0
    4.5763  -11.2200    0.0000 O   0  0  0  0  0  0  0  0  0  0  0  0
    3.1473  -10.3950    0.0000 O   0  0  0  0  0  0  0  0  0  0  0  0
    3.8618   -8.7862    0.0000 H   0  0  0  0  0  0  0  0  0  0  0  0
    5.2907   -8.8275    0.0000 H   0  0  0  0  0  0  0  0  0  0  0  0
    3.5392   -9.7556    0.0000 H   0  0  0  0  0  0  0  0  0  0  0  0
    4.2743  -10.5394    0.0000 H   0  0  0  0  0  0  0  0  0  0  0  0
    5.3320  -10.3537    0.0000 H   0  0  0  0  0  0  0  0  0  0  0  0
    6.0052   -5.4450    0.0000 C   0  0  0  0  0  0  0  0  0  0  0  0
    5.2907   -5.0325    0.0000 O   0  0  0  0  0  0  0  0  0  0  0  0
    5.2907   -4.2075    0.0000 C   0  0  0  0  0  0  0  0  0  0  0  0
    6.7197   -5.0325    0.0000 O   0  0  0  0  0  0  0  0  0  0  0  0
    6.8059   -5.8620    0.0000 O   0  0  0  0  0  0  0  0  0  0  0  0
    6.8472   -7.9980    0.0000 H   0  0  0  0  0  0  0  0  0  0  0  0
    7.7592   -5.6429    0.0000 O   0  0  0  0  0  0  0  0  0  0  0  0
    8.8142   -7.0950    0.0000 O   0  0  0  0  0  0  0  0  0  0  0  0
    7.7592   -8.5471    0.0000 C   0  0  0  0  0  0  0  0  0  0  0  0
  1  2  1  0  0  0  0
  2  3  1  0  0  0  0
  3  4  1  0  0  0  0
  4  5  1  0  0  0  0
  5  6  1  0  0  0  0
  6  1  1  0  0  0  0
  5  7  1  0  0  0  0
  8  7  1  6  0  0  0
  8  9  1  0  0  0  0
  8 10  1  0  0  0  0
 10 11  1  0  0  0  0
 11 12  1  0  0  0  0
 12 13  2  0  0  0  0
 13  9  1  0  0  0  0
 10 14  1  0  0  0  0
 14 15  1  0  0  0  0
 15 16  1  0  0  0  0
 16 11  1  0  0  0  0
  1 17  1  0  0  0  0
 17 18  1  0  0  0  0
  4 19  1  0  0  0  0
  3 20  1  0  0  0  0
  2 21  1  0  0  0  0
  1 22  1  0  0  0  0
  5 23  1  0  0  0  0
  2 24  1  0  0  0  0
  3 25  1  0  0  0  0
  4 26  1  0  0  0  0
 12 27  1  0  0  0  0
 27 28  1  0  0  0  0
 28 29  1  0  0  0  0
 27 30  2  0  0  0  0
 11 31  1  6  0  0  0
 10 32  1  6  0  0  0
 16 33  1  6  0  0  0
 15 34  1  6  0  0  0
 14 35  1  1  0  0  0
M  END
>  <cdx:fragmentId>
5

$$$$
