20262.cdx
  Mrv1902 05222410272D          

 16 17  0  0  0  0            999 V2000
    4.0814   -7.9895    0.0000 C   0  0  0  0  0  0  0  0  0  0  0  0
    4.4826   -8.7104    0.0000 C   0  0  0  0  0  0  0  0  0  0  0  0
    5.3075   -8.7234    0.0000 C   0  0  0  0  0  0  0  0  0  0  0  0
    5.7312   -8.0155    0.0000 C   0  0  0  0  0  0  0  0  0  0  0  0
    5.3300   -7.2946    0.0000 C   0  0  0  0  0  0  0  0  0  0  0  0
    4.5051   -7.2816    0.0000 C   0  0  0  0  0  0  0  0  0  0  0  0
    3.2565   -7.9765    0.0000 C   0  0  0  0  0  0  0  0  0  0  0  0
    4.0588   -9.4183    0.0000 O   0  0  0  0  0  0  0  0  0  0  0  0
    6.2144   -8.6842    0.0000 C   0  0  0  0  0  0  0  0  0  0  0  0
    6.9997   -8.4312    0.0000 C   0  0  0  0  0  0  0  0  0  0  0  0
    6.9997   -7.6062    0.0000 C   0  0  0  0  0  0  0  0  0  0  0  0
    6.2144   -7.3493    0.0000 C   0  0  0  0  0  0  0  0  0  0  0  0
    5.9575   -9.4681    0.0000 C   0  0  0  0  0  0  0  0  0  0  0  0
    5.9600   -6.5645    0.0000 C   0  0  0  0  0  0  0  0  0  0  0  0
    5.1350   -6.5645    0.0000 C   0  0  0  0  0  0  0  0  0  0  0  0
    6.5433   -5.9811    0.0000 C   0  0  0  0  0  0  0  0  0  0  0  0
  1  2  1  0  0  0  0
  2  3  1  0  0  0  0
  3  4  1  0  0  0  0
  4  5  1  0  0  0  0
  5  6  1  0  0  0  0
  6  1  2  0  0  0  0
  1  7  1  0  0  0  0
  2  8  2  0  0  0  0
  4  9  1  0  0  0  0
  9 10  1  0  0  0  0
 10 11  1  0  0  0  0
 11 12  1  0  0  0  0
 12  4  1  0  0  0  0
  9 13  1  0  0  0  0
 12 14  1  0  0  0  0
 14 15  1  0  0  0  0
 14 16  1  0  0  0  0
M  END
>  <cdx:fragmentId>
5

$$$$
