20263.cdx
  Mrv1902 05222410272D          

 10 11  0  0  0  0            999 V2000
    7.9483   -5.7194    0.0000 O   0  0  0  0  0  0  0  0  0  0  0  0
    8.4332   -6.3869    0.0000 C   0  0  0  0  0  0  0  0  0  0  0  0
    7.9483   -7.0543    0.0000 C   0  0  0  0  0  0  0  0  0  0  0  0
    7.1637   -6.7994    0.0000 C   0  0  0  0  0  0  0  0  0  0  0  0
    6.4492   -7.2119    0.0000 C   0  0  0  0  0  0  0  0  0  0  0  0
    5.7348   -6.7994    0.0000 C   0  0  0  0  0  0  0  0  0  0  0  0
    5.7348   -5.9744    0.0000 C   0  0  0  0  0  0  0  0  0  0  0  0
    6.4492   -5.5619    0.0000 C   0  0  0  0  0  0  0  0  0  0  0  0
    7.1637   -5.9744    0.0000 C   0  0  0  0  0  0  0  0  0  0  0  0
    9.2582   -6.3869    0.0000 C   0  0  0  0  0  0  0  0  0  0  0  0
  1  2  1  0  0  0  0
  2  3  2  0  0  0  0
  3  4  1  0  0  0  0
  4  5  1  0  0  0  0
  5  6  2  0  0  0  0
  6  7  1  0  0  0  0
  7  8  2  0  0  0  0
  8  9  1  0  0  0  0
  4  9  2  0  0  0  0
  1  9  1  0  0  0  0
  2 10  1  0  0  0  0
M  END
>  <cdx:fragmentId>
59

$$$$
