20267.cdx
  Mrv1902 05222410272D          

 26 25  0  0  0  0            999 V2000
    2.1963   -6.9632    0.0000 Si  0  0  0  0  0  0  0  0  0  0  0  0
    2.6964   -6.6744    0.0000 O   0  0  0  0  0  0  0  0  0  0  0  0
    3.1966   -6.9632    0.0000 C   0  0  0  0  0  0  0  0  0  0  0  0
    3.6967   -6.6744    0.0000 C   0  0  0  0  0  0  0  0  0  0  0  0
    4.1968   -6.9632    0.0000 C   0  0  0  0  0  0  0  0  0  0  0  0
    4.6970   -6.6744    0.0000 O   0  0  0  0  0  0  0  0  0  0  0  0
    5.1971   -6.9632    0.0000 C   0  0  0  0  0  0  0  0  0  0  0  0
    5.6972   -6.6744    0.0000 C   0  0  0  0  0  0  0  0  0  0  0  0
    6.1973   -6.9632    0.0000 C   0  0  0  0  0  0  0  0  0  0  0  0
    6.6975   -6.6744    0.0000 C   0  0  0  0  0  0  0  0  0  0  0  0
    7.1976   -6.9632    0.0000 C   0  0  0  0  0  0  0  0  0  0  0  0
    7.6977   -6.6744    0.0000 C   0  0  0  0  0  0  0  0  0  0  0  0
    8.1979   -6.9632    0.0000 C   0  0  0  0  0  0  0  0  0  0  0  0
    8.6980   -6.6744    0.0000 C   0  0  0  0  0  0  0  0  0  0  0  0
    9.1981   -6.9632    0.0000 C   0  0  0  0  0  0  0  0  0  0  0  0
    9.6983   -6.6744    0.0000 C   0  0  0  0  0  0  0  0  0  0  0  0
   10.1984   -6.9632    0.0000 C   0  0  0  0  0  0  0  0  0  0  0  0
   10.6985   -6.6744    0.0000 C   0  0  0  0  0  0  0  0  0  0  0  0
   11.1986   -6.9632    0.0000 C   0  0  0  0  0  0  0  0  0  0  0  0
   11.6988   -6.6744    0.0000 C   0  0  0  0  0  0  0  0  0  0  0  0
   12.1989   -6.9632    0.0000 C   0  0  0  0  0  0  0  0  0  0  0  0
   12.6990   -6.6744    0.0000 C   0  0  0  0  0  0  0  0  0  0  0  0
    1.6962   -7.2519    0.0000 C   0  0  0  0  0  0  0  0  0  0  0  0
    1.9076   -6.4630    0.0000 C   0  0  0  0  0  0  0  0  0  0  0  0
    2.4851   -7.4633    0.0000 C   0  0  0  0  0  0  0  0  0  0  0  0
    5.1971   -7.5407    0.0000 O   0  0  0  0  0  0  0  0  0  0  0  0
  1  2  1  0  0  0  0
  2  3  1  0  0  0  0
  3  4  1  0  0  0  0
  4  5  1  0  0  0  0
  5  6  1  0  0  0  0
  6  7  1  0  0  0  0
  7  8  1  0  0  0  0
  8  9  1  0  0  0  0
  9 10  1  0  0  0  0
 10 11  1  0  0  0  0
 11 12  1  0  0  0  0
 12 13  1  0  0  0  0
 13 14  1  0  0  0  0
 14 15  1  0  0  0  0
 15 16  1  0  0  0  0
 16 17  1  0  0  0  0
 17 18  1  0  0  0  0
 18 19  1  0  0  0  0
 19 20  1  0  0  0  0
 20 21  1  0  0  0  0
 21 22  1  0  0  0  0
  1 23  1  0  0  0  0
  1 24  1  0  0  0  0
  1 25  1  0  0  0  0
  7 26  2  0  0  0  0
M  END
>  <cdx:fragmentId>
3

$$$$
