20269.cdx
  Mrv1902 05222410202D          

 34 36  0  0  0  0            999 V2000
    3.9649   -9.8794    0.0000 C   0  0  2  0  0  0  0  0  0  0  0  0
    3.9649  -10.7044    0.0000 C   0  0  2  0  0  0  0  0  0  0  0  0
    4.6794  -11.1169    0.0000 C   0  0  1  0  0  0  0  0  0  0  0  0
    5.3939  -10.7044    0.0000 C   0  0  2  0  0  0  0  0  0  0  0  0
    5.3939   -9.8794    0.0000 C   0  0  1  0  0  0  0  0  0  0  0  0
    4.6794   -9.4669    0.0000 O   0  0  0  0  0  0  0  0  0  0  0  0
    6.1083   -9.4669    0.0000 O   0  0  0  0  0  0  0  0  0  0  0  0
    6.1083   -8.6419    0.0000 C   0  0  2  0  0  0  0  0  0  0  0  0
    5.3939   -8.2294    0.0000 O   0  0  0  0  0  0  0  0  0  0  0  0
    6.8228   -8.2294    0.0000 C   0  0  1  0  0  0  0  0  0  0  0  0
    6.8228   -7.4044    0.0000 C   0  0  1  0  0  0  0  0  0  0  0  0
    6.1083   -6.9919    0.0000 C   0  0  0  0  0  0  0  0  0  0  0  0
    5.3939   -7.4044    0.0000 C   0  0  0  0  0  0  0  0  0  0  0  0
    6.8228   -5.7544    0.0000 O   0  0  0  0  0  0  0  0  0  0  0  0
    6.1083   -6.1669    0.0000 C   0  0  0  0  0  0  0  0  0  0  0  0
    7.6074   -8.4843    0.0000 C   0  0  1  0  0  0  0  0  0  0  0  0
    8.0924   -7.8169    0.0000 C   0  0  2  0  0  0  0  0  0  0  0  0
    7.6074   -7.1494    0.0000 C   0  0  0  0  0  0  0  0  0  0  0  0
    3.2505   -9.4669    0.0000 C   0  0  0  0  0  0  0  0  0  0  0  0
    2.5360   -9.8794    0.0000 O   0  0  0  0  0  0  0  0  0  0  0  0
    5.3939   -5.7544    0.0000 O   0  0  0  0  0  0  0  0  0  0  0  0
    5.3939   -4.9294    0.0000 C   0  0  0  0  0  0  0  0  0  0  0  0
    7.3939   -9.2812    0.0000 C   0  0  0  0  0  0  0  0  0  0  0  0
    8.9174   -7.8169    0.0000 O   0  0  0  0  0  0  0  0  0  0  0  0
    9.3299   -7.1024    0.0000 C   0  0  0  0  0  0  0  0  0  0  0  0
   10.1549   -7.1024    0.0000 C   0  0  0  0  0  0  0  0  0  0  0  0
   10.5674   -7.8169    0.0000 C   0  0  0  0  0  0  0  0  0  0  0  0
   10.5674   -6.3879    0.0000 O   0  0  0  0  0  0  0  0  0  0  0  0
    4.6794  -11.9419    0.0000 O   0  0  0  0  0  0  0  0  0  0  0  0
    3.2505  -11.1169    0.0000 O   0  0  0  0  0  0  0  0  0  0  0  0
    6.1083  -11.1169    0.0000 O   0  0  0  0  0  0  0  0  0  0  0  0
    6.9090   -9.0499    0.0000 H   0  0  0  0  0  0  0  0  0  0  0  0
    6.9090   -6.5839    0.0000 O   0  0  0  0  0  0  0  0  0  0  0  0
    8.3219   -8.8968    0.0000 O   0  0  0  0  0  0  0  0  0  0  0  0
  1  2  1  0  0  0  0
  2  3  1  0  0  0  0
  3  4  1  0  0  0  0
  4  5  1  0  0  0  0
  5  6  1  0  0  0  0
  6  1  1  0  0  0  0
  5  7  1  1  0  0  0
  8  7  1  6  0  0  0
  8  9  1  0  0  0  0
  8 10  1  0  0  0  0
 10 11  1  0  0  0  0
 11 12  1  0  0  0  0
 12 13  2  0  0  0  0
 13  9  1  0  0  0  0
 14 15  2  0  0  0  0
 15 12  1  0  0  0  0
 10 16  1  0  0  0  0
 16 17  1  0  0  0  0
 17 18  1  0  0  0  0
 18 11  1  0  0  0  0
  1 19  1  1  0  0  0
 19 20  1  0  0  0  0
 15 21  1  0  0  0  0
 21 22  1  0  0  0  0
 16 23  1  0  0  0  0
 17 24  1  6  0  0  0
 24 25  1  0  0  0  0
 25 26  1  0  0  0  0
 26 27  1  0  0  0  0
 26 28  1  0  0  0  0
  3 29  1  1  0  0  0
  2 30  1  6  0  0  0
  4 31  1  6  0  0  0
 10 32  1  6  0  0  0
 11 33  1  6  0  0  0
 16 34  1  6  0  0  0
M  END
>  <cdx:fragmentId>
5

$$$$
