20268.cdx
  Mrv1902 05222410202D          

 36 38  0  0  0  0            999 V2000
    2.7160   -6.6776    0.0000 C   0  0  0  0  0  0  0  0  0  0  0  0
    2.0028   -7.0925    0.0000 C   0  0  1  0  0  0  0  0  0  0  0  0
    2.0056   -7.9175    0.0000 C   0  0  1  0  0  0  0  0  0  0  0  0
    2.7214   -8.3276    0.0000 C   0  0  2  0  0  0  0  0  0  0  0  0
    3.4345   -7.9128    0.0000 C   0  0  1  0  0  0  0  0  0  0  0  0
    3.4318   -7.0878    0.0000 O   0  0  0  0  0  0  0  0  0  0  0  0
    1.2925   -8.3323    0.0000 O   0  0  0  0  0  0  0  0  0  0  0  0
    1.2870   -6.6823    0.0000 O   0  0  0  0  0  0  0  0  0  0  0  0
    2.7241   -9.1526    0.0000 O   0  0  0  0  0  0  0  0  0  0  0  0
    5.5771   -8.3149    0.0000 C   0  0  2  0  0  0  0  0  0  0  0  0
    5.5796   -9.1399    0.0000 C   0  0  2  0  0  0  0  0  0  0  0  0
    6.2953   -9.5503    0.0000 C   0  0  1  0  0  0  0  0  0  0  0  0
    7.0086   -9.1356    0.0000 C   0  0  2  0  0  0  0  0  0  0  0  0
    7.0061   -8.3106    0.0000 C   0  0  1  0  0  0  0  0  0  0  0  0
    6.2904   -7.9003    0.0000 O   0  0  0  0  0  0  0  0  0  0  0  0
    4.8614   -7.9046    0.0000 C   0  0  0  0  0  0  0  0  0  0  0  0
    6.2978  -10.3753    0.0000 O   0  0  0  0  0  0  0  0  0  0  0  0
    7.7243   -9.5460    0.0000 O   0  0  0  0  0  0  0  0  0  0  0  0
    4.8664   -9.5546    0.0000 O   0  0  0  0  0  0  0  0  0  0  0  0
    4.1482   -8.3192    0.0000 O   0  0  0  0  0  0  0  0  0  0  0  0
   12.0045   -7.8950    0.0000 C   0  0  0  0  0  0  0  0  0  0  0  0
   12.0030   -7.0700    0.0000 C   0  0  0  0  0  0  0  0  0  0  0  0
   11.2877   -6.6589    0.0000 C   0  0  0  0  0  0  0  0  0  0  0  0
   10.5740   -7.0727    0.0000 C   0  0  0  0  0  0  0  0  0  0  0  0
   10.5756   -7.8977    0.0000 C   0  0  1  0  0  0  0  0  0  0  0  0
   11.2909   -8.3089    0.0000 C   0  0  2  0  0  0  0  0  0  0  0  0
    9.8588   -6.6616    0.0000 C   0  0  0  0  0  0  0  0  0  0  0  0
   12.7166   -6.6561    0.0000 O   0  0  0  0  0  0  0  0  0  0  0  0
    9.8619   -8.3116    0.0000 C   0  0  0  0  0  0  0  0  0  0  0  0
    9.1467   -7.9005    0.0000 C   0  0  0  0  0  0  0  0  0  0  0  0
    8.4330   -8.3143    0.0000 C   0  0  2  0  0  0  0  0  0  0  0  0
    7.7177   -7.9032    0.0000 O   0  0  0  0  0  0  0  0  0  0  0  0
   11.7047   -9.0225    0.0000 C   0  0  0  0  0  0  0  0  0  0  0  0
    8.4346   -9.1393    0.0000 C   0  0  0  0  0  0  0  0  0  0  0  0
   10.8797   -9.0241    0.0000 C   0  0  0  0  0  0  0  0  0  0  0  0
    9.8603   -7.4866    0.0000 H   0  0  0  0  0  0  0  0  0  0  0  0
  1  2  1  0  0  0  0
  2  3  1  0  0  0  0
  3  4  1  0  0  0  0
  4  5  1  0  0  0  0
  5  6  1  0  0  0  0
  6  1  1  0  0  0  0
  3  7  1  1  0  0  0
  2  8  1  1  0  0  0
  4  9  1  6  0  0  0
 10 11  1  0  0  0  0
 11 12  1  0  0  0  0
 12 13  1  0  0  0  0
 13 14  1  0  0  0  0
 14 15  1  0  0  0  0
 15 10  1  0  0  0  0
 10 16  1  1  0  0  0
 12 17  1  1  0  0  0
 13 18  1  6  0  0  0
 11 19  1  6  0  0  0
 16 20  1  0  0  0  0
 21 22  1  0  0  0  0
 22 23  1  0  0  0  0
 23 24  2  0  0  0  0
 24 25  1  0  0  0  0
 25 26  1  0  0  0  0
 26 21  1  0  0  0  0
 24 27  1  0  0  0  0
 22 28  2  0  0  0  0
 25 29  1  0  0  0  0
 29 30  2  0  0  0  0
 30 31  1  0  0  0  0
 31 32  1  0  0  0  0
 26 33  1  1  0  0  0
 31 34  1  1  0  0  0
 26 35  1  6  0  0  0
 25 36  1  6  0  0  0
  5 20  1  1  0  0  0
 14 32  1  1  0  0  0
M  END
>  <cdx:fragmentId>
61

$$$$
