20274.cdx
  Mrv1902 05222410282D          

 39 43  0  0  0  0            999 V2000
    5.7102   -6.7520    0.0000 C   0  0  0  0  0  0  0  0  0  0  0  0
    5.2982   -7.4667    0.0000 C   0  0  0  0  0  0  0  0  0  0  0  0
    5.7111   -8.1810    0.0000 C   0  0  0  0  0  0  0  0  0  0  0  0
    6.5361   -8.1805    0.0000 C   0  0  0  0  0  0  0  0  0  0  0  0
    6.9481   -7.4658    0.0000 C   0  0  0  0  0  0  0  0  0  0  0  0
    6.5352   -6.7515    0.0000 C   0  0  0  0  0  0  0  0  0  0  0  0
    6.9473   -6.0368    0.0000 O   0  0  0  0  0  0  0  0  0  0  0  0
    5.2973   -6.0378    0.0000 C   0  0  0  0  0  0  0  0  0  0  0  0
    4.4723   -6.0383    0.0000 C   0  0  0  0  0  0  0  0  0  0  0  0
    4.4732   -7.4672    0.0000 O   0  0  0  0  0  0  0  0  0  0  0  0
    5.2990   -8.8957    0.0000 C   0  0  0  0  0  0  0  0  0  0  0  0
    5.7119   -9.6099    0.0000 C   0  0  0  0  0  0  0  0  0  0  0  0
    6.9490   -8.8947    0.0000 O   0  0  0  0  0  0  0  0  0  0  0  0
    7.7740   -8.8942    0.0000 C   0  0  0  0  0  0  0  0  0  0  0  0
    8.1861   -8.1795    0.0000 C   0  0  0  0  0  0  0  0  0  0  0  0
    7.7731   -7.4653    0.0000 C   0  0  0  0  0  0  0  0  0  0  0  0
    8.1852   -6.7506    0.0000 O   0  0  0  0  0  0  0  0  0  0  0  0
    4.0598   -5.3238    0.0000 C   0  0  0  0  0  0  0  0  0  0  0  0
    3.2348   -5.3238    0.0000 C   0  0  0  0  0  0  0  0  0  0  0  0
    4.4723   -4.6093    0.0000 C   0  0  0  0  0  0  0  0  0  0  0  0
    5.2994  -10.3244    0.0000 C   0  0  0  0  0  0  0  0  0  0  0  0
    4.4744  -10.3244    0.0000 C   0  0  0  0  0  0  0  0  0  0  0  0
    5.7119  -11.0388    0.0000 C   0  0  0  0  0  0  0  0  0  0  0  0
    8.1861   -9.6084    0.0000 C   0  0  0  0  0  0  0  0  0  0  0  0
    9.0111   -9.6084    0.0000 C   0  0  0  0  0  0  0  0  0  0  0  0
    9.4231   -8.8942    0.0000 C   0  0  0  0  0  0  0  0  0  0  0  0
    9.0111   -8.1795    0.0000 C   0  0  0  0  0  0  0  0  0  0  0  0
    8.4885   -8.4817    0.0000 C   0  0  0  0  0  0  0  0  0  0  0  0
   10.2901   -8.5155    0.0000 C   0  0  0  0  0  0  0  0  0  0  0  0
    8.5367   -9.9104    0.0000 C   0  0  0  0  0  0  0  0  0  0  0  0
    7.8222  -10.3229    0.0000 C   0  0  0  0  0  0  0  0  0  0  0  0
    9.2512  -10.3229    0.0000 C   0  0  0  0  0  0  0  0  0  0  0  0
    8.9492   -9.1959    0.0000 O   0  0  0  0  0  0  0  0  0  0  0  0
    8.9010   -7.7672    0.0000 C   0  0  0  0  0  0  0  0  0  0  0  0
    8.4885   -7.0528    0.0000 C   0  0  0  0  0  0  0  0  0  0  0  0
    8.9010   -6.3383    0.0000 C   0  0  0  0  0  0  0  0  0  0  0  0
    9.7260   -6.3383    0.0000 C   0  0  0  0  0  0  0  0  0  0  0  0
    8.4885   -5.6238    0.0000 C   0  0  0  0  0  0  0  0  0  0  0  0
   11.0870   -8.3020    0.0000 O   0  0  0  0  0  0  0  0  0  0  0  0
  1  2  2  0  0  0  0
  2  3  1  0  0  0  0
  3  4  2  0  0  0  0
  4  5  1  0  0  0  0
  5  6  2  0  0  0  0
  6  1  1  0  0  0  0
  6  7  1  0  0  0  0
  8  1  1  0  0  0  0
  8  9  1  0  0  0  0
 10  2  1  0  0  0  0
 11  3  1  0  0  0  0
 11 12  1  0  0  0  0
 13  4  1  0  0  0  0
 13 14  1  0  0  0  0
 14 15  1  0  0  0  0
 15 16  1  0  0  0  0
 16  5  1  0  0  0  0
 16 17  2  0  0  0  0
  9 18  2  0  0  0  0
 18 19  1  0  0  0  0
 18 20  1  0  0  0  0
 12 21  2  0  0  0  0
 21 22  1  0  0  0  0
 21 23  1  0  0  0  0
 14 24  1  0  0  0  0
 24 25  1  0  0  0  0
 25 26  1  0  0  0  0
 26 27  1  0  0  0  0
 27 15  2  0  0  0  0
 14 28  1  0  0  0  0
 28 29  1  0  0  0  0
 26 29  1  0  0  0  0
 24 30  1  0  0  0  0
 30 31  1  0  0  0  0
 30 32  1  0  0  0  0
 30 33  1  0  0  0  0
 28 33  1  0  0  0  0
 28 34  1  0  0  0  0
 34 35  1  0  0  0  0
 35 36  1  0  0  0  0
 36 37  1  0  0  0  0
 36 38  1  0  0  0  0
 29 39  2  0  0  0  0
M  END
>  <cdx:fragmentId>
5

$$$$
