20276.cdx
  Mrv1902 05222410272D          

 61 68  0  0  0  0            999 V2000
   12.9538   -9.8450    0.0000 C   0  0  0  0  0  0  0  0  0  0  0  0
   12.9538  -10.6700    0.0000 C   0  0  1  0  0  0  0  0  0  0  0  0
   13.6683  -11.0825    0.0000 C   0  0  0  0  0  0  0  0  0  0  0  0
   14.3828  -10.6700    0.0000 C   0  0  2  0  0  0  0  0  0  0  0  0
   14.3828   -9.8450    0.0000 C   0  0  2  0  0  0  0  0  0  0  0  0
   13.6683   -9.4325    0.0000 C   0  0  0  0  0  0  0  0  0  0  0  0
   15.0972  -11.0825    0.0000 C   0  0  0  0  0  0  0  0  0  0  0  0
   15.8117  -10.6700    0.0000 C   0  0  0  0  0  0  0  0  0  0  0  0
   15.8117   -9.8450    0.0000 C   0  0  2  0  0  0  0  0  0  0  0  0
   15.0972   -9.4325    0.0000 C   0  0  2  0  0  0  0  0  0  0  0  0
   16.5262   -9.4325    0.0000 C   0  0  2  0  0  0  0  0  0  0  0  0
   16.5262   -8.6075    0.0000 C   0  0  2  0  0  0  0  0  0  0  0  0
   15.8117   -8.1950    0.0000 C   0  0  1  0  0  0  0  0  0  0  0  0
   15.0972   -8.6075    0.0000 C   0  0  0  0  0  0  0  0  0  0  0  0
   17.3108   -9.6874    0.0000 C   0  0  0  0  0  0  0  0  0  0  0  0
   17.7957   -9.0200    0.0000 C   0  0  0  0  0  0  0  0  0  0  0  0
   17.3108   -8.3526    0.0000 C   0  0  2  0  0  0  0  0  0  0  0  0
   17.5657   -7.5679    0.0000 C   0  0  0  0  0  0  0  0  0  0  0  0
   18.3504   -7.3130    0.0000 C   0  0  0  0  0  0  0  0  0  0  0  0
   18.3504   -6.4880    0.0000 C   0  0  0  0  0  0  0  0  0  0  0  0
   17.5657   -6.2331    0.0000 O   0  0  0  0  0  0  0  0  0  0  0  0
   17.0808   -6.9005    0.0000 C   0  0  0  0  0  0  0  0  0  0  0  0
   19.0178   -6.0031    0.0000 O   0  0  0  0  0  0  0  0  0  0  0  0
   16.5262   -7.7825    0.0000 C   0  0  0  0  0  0  0  0  0  0  0  0
   16.5262  -10.2575    0.0000 O   0  0  0  0  0  0  0  0  0  0  0  0
   15.8117   -7.3700    0.0000 O   0  0  0  0  0  0  0  0  0  0  0  0
   15.8117   -9.0200    0.0000 H   0  0  0  0  0  0  0  0  0  0  0  0
   15.0972  -10.2575    0.0000 H   0  0  0  0  0  0  0  0  0  0  0  0
   14.3828   -9.0200    0.0000 C   0  0  0  0  0  0  0  0  0  0  0  0
   14.3828  -11.4950    0.0000 H   0  0  0  0  0  0  0  0  0  0  0  0
   12.2394  -11.0825    0.0000 O   0  0  0  0  0  0  0  0  0  0  0  0
   11.5249  -10.6700    0.0000 C   0  0  2  0  0  0  0  0  0  0  0  0
   11.5249   -9.8450    0.0000 O   0  0  0  0  0  0  0  0  0  0  0  0
   10.8104   -9.4325    0.0000 C   0  0  1  0  0  0  0  0  0  0  0  0
   10.0959   -9.8450    0.0000 C   0  0  2  0  0  0  0  0  0  0  0  0
   10.0959  -10.6700    0.0000 C   0  0  2  0  0  0  0  0  0  0  0  0
   10.8104  -11.0825    0.0000 C   0  0  0  0  0  0  0  0  0  0  0  0
   10.8104   -8.6075    0.0000 C   0  0  0  0  0  0  0  0  0  0  0  0
    9.3815   -9.4325    0.0000 O   0  0  0  0  0  0  0  0  0  0  0  0
    9.3815  -11.0825    0.0000 O   0  0  0  0  0  0  0  0  0  0  0  0
    8.6670   -9.8450    0.0000 C   0  0  2  0  0  0  0  0  0  0  0  0
    7.9525   -9.4325    0.0000 O   0  0  0  0  0  0  0  0  0  0  0  0
    7.2381   -9.8450    0.0000 C   0  0  1  0  0  0  0  0  0  0  0  0
    7.2381  -10.6700    0.0000 C   0  0  2  0  0  0  0  0  0  0  0  0
    7.9525  -11.0825    0.0000 C   0  0  2  0  0  0  0  0  0  0  0  0
    8.6670  -10.6700    0.0000 C   0  0  0  0  0  0  0  0  0  0  0  0
    6.5236   -9.4325    0.0000 C   0  0  0  0  0  0  0  0  0  0  0  0
    6.5236  -11.0825    0.0000 O   0  0  0  0  0  0  0  0  0  0  0  0
    7.9525  -11.9075    0.0000 O   0  0  0  0  0  0  0  0  0  0  0  0
    5.8091  -10.6700    0.0000 C   0  0  1  0  0  0  0  0  0  0  0  0
    5.8091   -9.8450    0.0000 C   0  0  0  0  0  0  0  0  0  0  0  0
    5.0946   -9.4325    0.0000 C   0  0  1  0  0  0  0  0  0  0  0  0
    4.3802   -9.8450    0.0000 C   0  0  1  0  0  0  0  0  0  0  0  0
    4.3802  -10.6700    0.0000 C   0  0  2  0  0  0  0  0  0  0  0  0
    5.0946  -11.0825    0.0000 O   0  0  0  0  0  0  0  0  0  0  0  0
    3.6657  -11.0825    0.0000 C   0  0  0  0  0  0  0  0  0  0  0  0
    3.6657   -9.4325    0.0000 O   0  0  0  0  0  0  0  0  0  0  0  0
    5.0946   -8.6075    0.0000 O   0  0  0  0  0  0  0  0  0  0  0  0
    2.9512   -9.8450    0.0000 C   0  0  0  0  0  0  0  0  0  0  0  0
    2.2368   -9.4325    0.0000 C   0  0  0  0  0  0  0  0  0  0  0  0
    2.9512  -10.6700    0.0000 O   0  0  0  0  0  0  0  0  0  0  0  0
  1  2  1  0  0  0  0
  2  3  1  0  0  0  0
  3  4  1  0  0  0  0
  4  5  1  0  0  0  0
  5  6  1  0  0  0  0
  6  1  1  0  0  0  0
  4  7  1  0  0  0  0
  7  8  1  0  0  0  0
  8  9  1  0  0  0  0
  9 10  1  0  0  0  0
 10  5  1  0  0  0  0
  9 11  1  0  0  0  0
 11 12  1  0  0  0  0
 12 13  1  0  0  0  0
 13 14  1  0  0  0  0
 14 10  1  0  0  0  0
 11 15  1  0  0  0  0
 15 16  1  0  0  0  0
 16 17  1  0  0  0  0
 17 12  1  0  0  0  0
 17 18  1  1  0  0  0
 18 19  2  0  0  0  0
 19 20  1  0  0  0  0
 20 21  1  0  0  0  0
 21 22  1  0  0  0  0
 22 18  1  0  0  0  0
 20 23  2  0  0  0  0
 12 24  1  1  0  0  0
 11 25  1  1  0  0  0
 13 26  1  1  0  0  0
  9 27  1  1  0  0  0
 10 28  1  6  0  0  0
  5 29  1  1  0  0  0
  4 30  1  1  0  0  0
  2 31  1  1  0  0  0
 32 31  1  1  0  0  0
 32 33  1  0  0  0  0
 33 34  1  0  0  0  0
 34 35  1  0  0  0  0
 35 36  1  0  0  0  0
 36 37  1  0  0  0  0
 37 32  1  0  0  0  0
 34 38  1  1  0  0  0
 35 39  1  6  0  0  0
 36 40  1  6  0  0  0
 41 39  1  1  0  0  0
 41 42  1  0  0  0  0
 42 43  1  0  0  0  0
 43 44  1  0  0  0  0
 44 45  1  0  0  0  0
 45 46  1  0  0  0  0
 46 41  1  0  0  0  0
 43 47  1  1  0  0  0
 44 48  1  6  0  0  0
 45 49  1  6  0  0  0
 50 48  1  6  0  0  0
 50 51  1  0  0  0  0
 51 52  1  0  0  0  0
 52 53  1  0  0  0  0
 53 54  1  0  0  0  0
 54 55  1  0  0  0  0
 55 50  1  0  0  0  0
 54 56  1  6  0  0  0
 53 57  1  1  0  0  0
 52 58  1  1  0  0  0
 57 59  1  0  0  0  0
 59 60  1  0  0  0  0
 59 61  2  0  0  0  0
M  END
>  <cdx:fragmentId>
5

$$$$
