20279.cdx
  Mrv1902 05222410182D          

 17 18  0  0  0  0            999 V2000
    5.4428   -7.7063    0.0000 C   0  0  0  0  0  0  0  0  0  0  0  0
    5.5637   -8.5224    0.0000 C   0  0  0  0  0  0  0  0  0  0  0  0
    6.2771   -8.9368    0.0000 C   0  0  0  0  0  0  0  0  0  0  0  0
    7.0458   -8.6373    0.0000 C   0  0  0  0  0  0  0  0  0  0  0  0
    7.2910   -7.8496    0.0000 C   0  0  0  0  0  0  0  0  0  0  0  0
    6.8280   -7.1668    0.0000 C   0  0  0  0  0  0  0  0  0  0  0  0
    6.0055   -7.1030    0.0000 C   0  0  0  0  0  0  0  0  0  0  0  0
    4.6293   -7.5691    0.0000 C   0  0  0  0  0  0  0  0  0  0  0  0
    4.2474   -8.3004    0.0000 C   0  0  0  0  0  0  0  0  0  0  0  0
    4.8249   -8.8896    0.0000 N   0  0  0  0  0  0  0  0  0  0  0  0
    3.4505   -8.0869    0.0000 C   0  0  0  0  0  0  0  0  0  0  0  0
    3.8349   -9.0149    0.0000 C   0  0  0  0  0  0  0  0  0  0  0  0
    6.2133   -9.7593    0.0000 O   0  0  0  0  0  0  0  0  0  0  0  0
    7.2423   -6.4533    0.0000 C   0  0  0  0  0  0  0  0  0  0  0  0
    8.1071   -7.7287    0.0000 C   0  0  0  0  0  0  0  0  0  0  0  0
    8.3206   -6.9318    0.0000 C   0  0  0  0  0  0  0  0  0  0  0  0
    8.6560   -8.3446    0.0000 O   0  0  0  0  0  0  0  0  0  0  0  0
  1  2  2  0  0  0  0
  2  3  1  0  0  0  0
  3  4  1  0  0  0  0
  4  5  2  0  0  0  0
  5  6  1  0  0  0  0
  6  7  2  0  0  0  0
  7  1  1  0  0  0  0
  1  8  1  0  0  0  0
  8  9  1  0  0  0  0
  9 10  1  0  0  0  0
 10  2  1  0  0  0  0
  9 11  1  0  0  0  0
  9 12  1  0  0  0  0
  3 13  2  0  0  0  0
  6 14  1  0  0  0  0
  5 15  1  0  0  0  0
 15 16  1  0  0  0  0
 15 17  2  0  0  0  0
M  END
>  <cdx:fragmentId>
5

$$$$
