20271.cdx
  Mrv1902 05222410262D          

 29 30  0  0  0  0            999 V2000
    5.9070   -6.1919    0.0000 C   0  0  1  0  0  0  0  0  0  0  0  0
    5.4944   -5.4774    0.0000 O   0  0  0  0  0  0  0  0  0  0  0  0
    6.3194   -5.4774    0.0000 C   0  0  0  0  0  0  0  0  0  0  0  0
    5.9069   -4.7630    0.0000 O   0  0  0  0  0  0  0  0  0  0  0  0
    7.1444   -5.4774    0.0000 O   0  0  0  0  0  0  0  0  0  0  0  0
    7.5569   -4.7629    0.0000 C   0  0  0  0  0  0  0  0  0  0  0  0
    8.3819   -4.7629    0.0000 C   0  0  0  0  0  0  0  0  0  0  0  0
    8.7944   -4.0485    0.0000 C   0  0  0  0  0  0  0  0  0  0  0  0
    4.4780   -7.8419    0.0000 O   0  0  0  0  0  0  0  0  0  0  0  0
    9.6194   -4.0485    0.0000 C   0  0  0  0  0  0  0  0  0  0  0  0
    5.9070   -8.6669    0.0000 O   0  0  0  0  0  0  0  0  0  0  0  0
    6.6214   -6.6044    0.0000 C   0  0  0  0  0  0  0  0  0  0  0  0
    5.1925   -6.6044    0.0000 C   0  0  0  0  0  0  0  0  0  0  0  0
    5.1925   -7.4294    0.0000 C   0  0  2  0  0  0  0  0  0  0  0  0
    5.9070   -7.8419    0.0000 C   0  0  1  0  0  0  0  0  0  0  0  0
    6.6214   -7.4294    0.0000 C   0  0  2  0  0  0  0  0  0  0  0  0
    8.0504   -6.6044    0.0000 O   0  0  0  0  0  0  0  0  0  0  0  0
    7.3359   -7.8419    0.0000 O   0  0  0  0  0  0  0  0  0  0  0  0
    8.0504   -7.4294    0.0000 C   0  0  0  0  0  0  0  0  0  0  0  0
    8.7648   -7.8419    0.0000 C   0  0  0  0  0  0  0  0  0  0  0  0
    9.4793   -7.4294    0.0000 C   0  0  0  0  0  0  0  0  0  0  0  0
   12.3372   -9.0794    0.0000 O   0  0  0  0  0  0  0  0  0  0  0  0
   12.3372   -7.4294    0.0000 O   0  0  0  0  0  0  0  0  0  0  0  0
   10.9082   -7.4294    0.0000 C   0  0  0  0  0  0  0  0  0  0  0  0
   10.1938   -7.8419    0.0000 C   0  0  0  0  0  0  0  0  0  0  0  0
   10.1938   -8.6669    0.0000 C   0  0  0  0  0  0  0  0  0  0  0  0
   10.9082   -9.0794    0.0000 C   0  0  0  0  0  0  0  0  0  0  0  0
   11.6227   -8.6669    0.0000 C   0  0  0  0  0  0  0  0  0  0  0  0
   11.6227   -7.8419    0.0000 C   0  0  0  0  0  0  0  0  0  0  0  0
  1  2  1  1  0  0  0
  1  3  1  0  0  0  0
  3  4  2  0  0  0  0
  3  5  1  0  0  0  0
  5  6  1  0  0  0  0
 14  9  1  6  0  0  0
 15 11  1  1  0  0  0
 12 16  1  0  0  0  0
  1 12  1  0  0  0  0
 13  1  1  0  0  0  0
 14 13  1  0  0  0  0
 15 14  1  0  0  0  0
 16 15  1  0  0  0  0
 16 18  1  1  0  0  0
 19 17  2  0  0  0  0
 19 18  1  0  0  0  0
 20 19  1  0  0  0  0
 21 20  2  0  0  0  0
 25 21  1  0  0  0  0
 28 22  1  0  0  0  0
 29 23  1  0  0  0  0
 24 29  1  0  0  0  0
 25 24  2  0  0  0  0
 26 25  1  0  0  0  0
 27 26  2  0  0  0  0
 28 27  1  0  0  0  0
 29 28  2  0  0  0  0
  6  7  1  0  0  0  0
  7  8  1  0  0  0  0
  8 10  1  0  0  0  0
M  END
>  <cdx:fragmentId>
6

$$$$
