20275.cdx
  Mrv1902 05222410282D          

 40 44  0  0  0  0            999 V2000
    5.0168   -7.4663    0.0000 C   0  0  0  0  0  0  0  0  0  0  0  0
    5.0168   -8.2912    0.0000 C   0  0  0  0  0  0  0  0  0  0  0  0
    5.7313   -8.7037    0.0000 C   0  0  0  0  0  0  0  0  0  0  0  0
    6.4457   -8.2912    0.0000 C   0  0  0  0  0  0  0  0  0  0  0  0
    6.4457   -7.4663    0.0000 C   0  0  0  0  0  0  0  0  0  0  0  0
    5.7313   -7.0537    0.0000 C   0  0  0  0  0  0  0  0  0  0  0  0
    7.1602   -8.7037    0.0000 C   0  0  0  0  0  0  0  0  0  0  0  0
    7.8747   -8.2912    0.0000 C   0  0  0  0  0  0  0  0  0  0  0  0
    7.8747   -7.4663    0.0000 C   0  0  2  0  0  0  0  0  0  0  0  0
    7.1602   -7.0537    0.0000 O   0  0  0  0  0  0  0  0  0  0  0  0
    8.5892   -8.7037    0.0000 C   0  0  0  0  0  0  0  0  0  0  0  0
    9.3036   -8.2912    0.0000 C   0  0  2  0  0  0  0  0  0  0  0  0
    9.3036   -7.4663    0.0000 C   0  0  0  0  0  0  0  0  0  0  0  0
    8.5892   -7.0537    0.0000 C   0  0  1  0  0  0  0  0  0  0  0  0
    4.3023   -7.0537    0.0000 O   0  0  0  0  0  0  0  0  0  0  0  0
    5.7313   -9.5287    0.0000 O   0  0  0  0  0  0  0  0  0  0  0  0
    7.1602   -9.5287    0.0000 O   0  0  0  0  0  0  0  0  0  0  0  0
   10.0181   -8.7037    0.0000 C   0  0  0  0  0  0  0  0  0  0  0  0
   10.0181   -9.5287    0.0000 C   0  0  0  0  0  0  0  0  0  0  0  0
   10.7326   -9.9413    0.0000 C   0  0  0  0  0  0  0  0  0  0  0  0
   11.4470   -9.5287    0.0000 C   0  0  0  0  0  0  0  0  0  0  0  0
   10.7326  -10.7663    0.0000 C   0  0  0  0  0  0  0  0  0  0  0  0
    5.7313   -6.2287    0.0000 C   0  0  0  0  0  0  0  0  0  0  0  0
    5.0168   -5.8163    0.0000 C   0  0  0  0  0  0  0  0  0  0  0  0
    5.0168   -4.9913    0.0000 C   0  0  0  0  0  0  0  0  0  0  0  0
    4.3023   -4.5788    0.0000 C   0  0  0  0  0  0  0  0  0  0  0  0
    5.7313   -4.5788    0.0000 C   0  0  0  0  0  0  0  0  0  0  0  0
    9.3036   -6.6413    0.0000 C   0  0  0  0  0  0  0  0  0  0  0  0
    9.5172   -5.8444    0.0000 C   0  0  0  0  0  0  0  0  0  0  0  0
   10.2316   -5.4319    0.0000 C   0  0  0  0  0  0  0  0  0  0  0  0
   10.4452   -4.6350    0.0000 C   0  0  0  0  0  0  0  0  0  0  0  0
   11.0285   -5.6454    0.0000 C   0  0  0  0  0  0  0  0  0  0  0  0
    8.6378   -6.5587    0.0000 C   0  0  2  0  0  0  0  0  0  0  0  0
    8.6378   -5.7338    0.0000 C   0  0  0  0  0  0  0  0  0  0  0  0
    7.9233   -5.3213    0.0000 C   0  0  0  0  0  0  0  0  0  0  0  0
    9.0503   -5.0193    0.0000 C   0  0  0  0  0  0  0  0  0  0  0  0
   10.1005   -7.6798    0.0000 O   0  0  0  0  0  0  0  0  0  0  0  0
    9.0017   -6.3393    0.0000 O   0  0  0  0  0  0  0  0  0  0  0  0
   10.0180   -7.3146    0.0000 C   0  0  0  0  0  0  0  0  0  0  0  0
    7.8128   -6.5587    0.0000 H   0  0  0  0  0  0  0  0  0  0  0  0
  1  2  2  0  0  0  0
  2  3  1  0  0  0  0
  3  4  2  0  0  0  0
  4  5  1  0  0  0  0
  5  6  2  0  0  0  0
  6  1  1  0  0  0  0
  4  7  1  0  0  0  0
  7  8  1  0  0  0  0
  8  9  1  0  0  0  0
  9 10  1  6  0  0  0
 10  5  1  0  0  0  0
  8 11  2  0  0  0  0
 11 12  1  0  0  0  0
 12 13  1  0  0  0  0
 13 14  1  0  0  0  0
 14  9  1  0  0  0  0
  1 15  1  0  0  0  0
  3 16  1  0  0  0  0
  7 17  2  0  0  0  0
 12 18  1  6  0  0  0
 18 19  1  0  0  0  0
 19 20  2  0  0  0  0
 20 21  1  0  0  0  0
 20 22  1  0  0  0  0
  6 23  1  0  0  0  0
 23 24  1  0  0  0  0
 24 25  2  0  0  0  0
 25 26  1  0  0  0  0
 25 27  1  0  0  0  0
 14 28  1  6  0  0  0
 28 29  1  0  0  0  0
 29 30  2  0  0  0  0
 30 31  1  0  0  0  0
 30 32  1  0  0  0  0
  9 33  1  0  0  0  0
 33 34  1  0  0  0  0
 34 35  1  0  0  0  0
 34 36  1  0  0  0  0
 13 37  2  0  0  0  0
 14 38  1  0  0  0  0
 12 39  1  0  0  0  0
 33 39  1  0  0  0  0
 33 40  1  1  0  0  0
 34 38  1  0  0  0  0
M  END
>  <cdx:fragmentId>
5

$$$$
