20277.cdx
  Mrv1902 05222410272D          

 35 41  0  0  0  0            999 V2000
    3.6143   -7.6725    0.0000 C   0  0  0  0  0  0  0  0  0  0  0  0
    3.6143   -8.4975    0.0000 C   0  0  0  0  0  0  0  0  0  0  0  0
    4.3288   -8.9100    0.0000 C   0  0  0  0  0  0  0  0  0  0  0  0
    5.0432   -8.4975    0.0000 C   0  0  0  0  0  0  0  0  0  0  0  0
    5.0432   -7.6725    0.0000 C   0  0  0  0  0  0  0  0  0  0  0  0
    4.3288   -7.2600    0.0000 C   0  0  0  0  0  0  0  0  0  0  0  0
    5.7577   -8.9100    0.0000 N   0  0  0  0  0  0  0  0  0  0  0  0
    6.4722   -8.4975    0.0000 C   0  0  2  0  0  0  0  0  0  0  0  0
    6.4722   -7.6725    0.0000 C   0  0  1  0  0  0  0  0  0  0  0  0
    5.7577   -9.7350    0.0000 C   0  0  0  0  0  0  0  0  0  0  0  0
    6.4722  -10.1475    0.0000 C   0  0  0  0  0  0  0  0  0  0  0  0
    7.1867   -9.7350    0.0000 C   0  0  1  0  0  0  0  0  0  0  0  0
    7.1867   -8.9100    0.0000 C   0  0  2  0  0  0  0  0  0  0  0  0
    7.6743  -10.1475    0.0000 O   0  0  0  0  0  0  0  0  0  0  0  0
    8.6394   -8.7862    0.0000 C   0  0  0  0  0  0  0  0  0  0  0  0
    7.9011   -8.4975    0.0000 C   0  0  2  0  0  0  0  0  0  0  0  0
    7.9011   -7.6725    0.0000 C   0  0  0  0  0  0  0  0  0  0  0  0
    7.1867   -7.2600    0.0000 C   0  0  2  0  0  0  0  0  0  0  0  0
    7.0151   -6.4530    0.0000 N   0  3  2  0  0  0  0  0  0  0  0  0
    6.1947   -6.3668    0.0000 C   0  0  0  0  0  0  0  0  0  0  0  0
    5.8591   -7.1205    0.0000 C   0  0  0  0  0  0  0  0  0  0  0  0
    2.8998   -7.2600    0.0000 O   0  0  0  0  0  0  0  0  0  0  0  0
    2.8998   -6.4350    0.0000 C   0  0  0  0  0  0  0  0  0  0  0  0
    2.8998   -8.9100    0.0000 O   0  0  0  0  0  0  0  0  0  0  0  0
    2.8998   -9.7350    0.0000 C   0  0  0  0  0  0  0  0  0  0  0  0
    5.0432  -10.1475    0.0000 O   0  0  0  0  0  0  0  0  0  0  0  0
    8.4331  -10.1063    0.0000 C   0  0  0  0  0  0  0  0  0  0  0  0
    8.7880   -9.4330    0.0000 C   0  0  0  0  0  0  0  0  0  0  0  0
    7.1867  -10.5600    0.0000 H   0  0  0  0  0  0  0  0  0  0  0  0
    7.9011   -9.3225    0.0000 H   0  0  0  0  0  0  0  0  0  0  0  0
    7.9011   -6.8475    0.0000 H   0  0  0  0  0  0  0  0  0  0  0  0
    8.6156   -8.0850    0.0000 H   0  0  0  0  0  0  0  0  0  0  0  0
    7.4276   -5.7386    0.0000 O   0  5  0  0  0  0  0  0  0  0  0  0
    9.0386   -6.6487    0.0000 C   0  0  0  0  0  0  0  0  0  0  0  0
    6.4722   -9.3225    0.0000 H   0  0  0  0  0  0  0  0  0  0  0  0
  1  2  2  0  0  0  0
  2  3  1  0  0  0  0
  3  4  2  0  0  0  0
  4  5  1  0  0  0  0
  5  6  2  0  0  0  0
  6  1  1  0  0  0  0
  4  7  1  0  0  0  0
  7  8  1  0  0  0  0
  8  9  1  0  0  0  0
  7 10  1  0  0  0  0
 10 11  1  0  0  0  0
 11 12  1  0  0  0  0
 12 13  1  0  0  0  0
 13  8  1  0  0  0  0
 12 14  1  0  0  0  0
 15 16  1  0  0  0  0
 16 13  1  0  0  0  0
 16 17  1  0  0  0  0
 17 18  1  0  0  0  0
 18  9  1  0  0  0  0
 18 19  1  0  0  0  0
 19 20  1  0  0  0  0
 20 21  1  0  0  0  0
 21  9  1  0  0  0  0
  1 22  1  0  0  0  0
 22 23  1  0  0  0  0
  2 24  1  0  0  0  0
 24 25  1  0  0  0  0
 10 26  2  0  0  0  0
 14 27  1  0  0  0  0
 27 28  1  0  0  0  0
 15 28  2  0  0  0  0
  9  5  1  6  0  0  0
 12 29  1  6  0  0  0
 13 30  1  6  0  0  0
 18 31  1  6  0  0  0
 16 32  1  6  0  0  0
 19 33  1  6  0  0  0
 15 34  1  0  0  0  0
 19 34  1  0  0  0  0
  8 35  1  1  0  0  0
M  CHG  2  19   1  33  -1
M  END
>  <cdx:fragmentId>
5

$$$$
