20270.cdx
  Mrv1902 05222410262D          

 14 14  0  0  0  0            999 V2000
    6.2337   -7.7550    0.0000 C   0  0  2  0  0  0  0  0  0  0  0  0
    6.2337   -8.5800    0.0000 C   0  0  2  0  0  0  0  0  0  0  0  0
    6.9481   -8.9925    0.0000 C   0  0  1  0  0  0  0  0  0  0  0  0
    7.6626   -8.5800    0.0000 C   0  0  2  0  0  0  0  0  0  0  0  0
    7.6626   -7.7550    0.0000 C   0  0  0  0  0  0  0  0  0  0  0  0
    6.9481   -7.3425    0.0000 O   0  0  0  0  0  0  0  0  0  0  0  0
    6.9481   -9.8175    0.0000 O   0  0  0  0  0  0  0  0  0  0  0  0
    5.5192   -7.3425    0.0000 C   0  0  0  0  0  0  0  0  0  0  0  0
    5.5192   -8.9925    0.0000 O   0  0  0  0  0  0  0  0  0  0  0  0
    8.3771   -8.9925    0.0000 O   0  0  0  0  0  0  0  0  0  0  0  0
    5.5192   -6.5175    0.0000 O   0  0  0  0  0  0  0  0  0  0  0  0
    8.3771   -7.3425    0.0000 O   0  0  0  0  0  0  0  0  0  0  0  0
    8.3771   -6.5175    0.0000 C   0  0  0  0  0  0  0  0  0  0  0  0
    9.0916   -6.1050    0.0000 C   0  0  0  0  0  0  0  0  0  0  0  0
  1  2  1  0  0  0  0
  2  3  1  0  0  0  0
  3  4  1  0  0  0  0
  4  5  1  0  0  0  0
  5  6  1  0  0  0  0
  6  1  1  0  0  0  0
  3  7  1  1  0  0  0
  1  8  1  1  0  0  0
  2  9  1  6  0  0  0
  4 10  1  6  0  0  0
  8 11  1  0  0  0  0
  5 12  1  0  0  0  0
 12 13  1  0  0  0  0
 13 14  1  0  0  0  0
M  END
>  <cdx:fragmentId>
5

$$$$
