20280.cdx
  Mrv1902 05222410192D          

 63 68  0  0  0  0            999 V2000
    3.3049  -10.9106    0.0000 O   0  0  0  0  0  0  0  0  0  0  0  0
    3.3049  -11.7356    0.0000 C   0  0  0  0  0  0  0  0  0  0  0  0
    4.0194  -12.1481    0.0000 C   0  0  1  0  0  0  0  0  0  0  0  0
    4.7339  -11.7356    0.0000 O   0  0  0  0  0  0  0  0  0  0  0  0
    5.4483  -12.1481    0.0000 C   0  0  1  0  0  0  0  0  0  0  0  0
    6.1628  -11.7356    0.0000 O   0  0  0  0  0  0  0  0  0  0  0  0
    6.1628  -10.9106    0.0000 C   0  0  0  0  0  0  0  0  0  0  0  0
    4.0194  -12.9731    0.0000 C   0  0  2  0  0  0  0  0  0  0  0  0
    4.7339  -13.3856    0.0000 C   0  0  1  0  0  0  0  0  0  0  0  0
    5.4483  -12.9731    0.0000 C   0  0  1  0  0  0  0  0  0  0  0  0
    6.1628  -13.3856    0.0000 O   0  0  0  0  0  0  0  0  0  0  0  0
    6.8773  -12.9731    0.0000 C   0  0  0  0  0  0  0  0  0  0  0  0
    6.8773  -12.1481    0.0000 O   0  0  0  0  0  0  0  0  0  0  0  0
    7.5918  -11.7356    0.0000 O   0  0  0  0  0  0  0  0  0  0  0  0
    7.5918  -10.9106    0.0000 C   0  0  2  0  0  0  0  0  0  0  0  0
    6.8773  -10.4981    0.0000 C   0  0  2  0  0  0  0  0  0  0  0  0
    8.3062  -10.4981    0.0000 C   0  0  1  0  0  0  0  0  0  0  0  0
    8.3062   -9.6731    0.0000 C   0  0  2  0  0  0  0  0  0  0  0  0
    7.5918   -9.2606    0.0000 C   0  0  1  0  0  0  0  0  0  0  0  0
    6.8773   -9.6731    0.0000 O   0  0  0  0  0  0  0  0  0  0  0  0
    7.5918   -8.4356    0.0000 O   0  0  0  0  0  0  0  0  0  0  0  0
    6.8773   -8.0231    0.0000 C   0  0  0  0  0  0  0  0  0  0  0  0
    6.1628   -8.4356    0.0000 C   0  0  0  0  0  0  0  0  0  0  0  0
    6.1628   -9.2606    0.0000 O   0  0  0  0  0  0  0  0  0  0  0  0
    6.8773   -7.1981    0.0000 C   0  0  0  0  0  0  0  0  0  0  0  0
    6.1628   -6.7856    0.0000 C   0  0  0  0  0  0  0  0  0  0  0  0
    5.4483   -7.1981    0.0000 C   0  0  0  0  0  0  0  0  0  0  0  0
    5.4483   -8.0231    0.0000 C   0  0  0  0  0  0  0  0  0  0  0  0
    7.5918  -13.3856    0.0000 C   0  0  0  0  0  0  0  0  0  0  0  0
    7.8112  -13.2206    0.0000 H   0  0  0  0  0  0  0  0  0  0  0  0
    7.5918  -14.2106    0.0000 C   0  0  0  0  0  0  0  0  0  0  0  0
    8.3062  -14.6231    0.0000 C   0  0  0  0  0  0  0  0  0  0  0  0
    9.0207  -14.2106    0.0000 C   0  0  0  0  0  0  0  0  0  0  0  0
    8.3062  -15.4481    0.0000 C   0  0  0  0  0  0  0  0  0  0  0  0
    9.0207  -15.8606    0.0000 C   0  0  0  0  0  0  0  0  0  0  0  0
    9.7352  -15.4481    0.0000 C   0  0  0  0  0  0  0  0  0  0  0  0
    9.7352  -14.6231    0.0000 C   0  0  0  0  0  0  0  0  0  0  0  0
    5.9913   -5.9787    0.0000 N   0  0  0  0  0  0  0  0  0  0  0  0
    5.1708   -5.8924    0.0000 C   0  0  1  0  0  0  0  0  0  0  0  0
    4.8352   -6.6461    0.0000 C   0  0  0  0  0  0  0  0  0  0  0  0
    4.7583   -5.1779    0.0000 C   0  0  0  0  0  0  0  0  0  0  0  0
    3.9333   -5.1779    0.0000 O   0  0  0  0  0  0  0  0  0  0  0  0
    5.1708   -4.4635    0.0000 O   0  0  0  0  0  0  0  0  0  0  0  0
    6.5433   -5.3656    0.0000 C   0  0  0  0  0  0  0  0  0  0  0  0
    6.1308   -4.6511    0.0000 C   0  0  0  0  0  0  0  0  0  0  0  0
    7.3638   -5.4518    0.0000 O   0  0  0  0  0  0  0  0  0  0  0  0
    6.5433   -3.9366    0.0000 C   0  0  0  0  0  0  0  0  0  0  0  0
    6.1308   -3.2221    0.0000 C   0  0  0  0  0  0  0  0  0  0  0  0
    5.8156   -4.6570    0.0000 H   0  0  0  0  0  0  0  0  0  0  0  0
    6.8527   -3.9572    0.0000 H   0  0  0  0  0  0  0  0  0  0  0  0
    6.5433   -2.5077    0.0000 C   0  0  0  0  0  0  0  0  0  0  0  0
    6.1308   -1.7932    0.0000 C   0  0  0  0  0  0  0  0  0  0  0  0
    5.3058   -1.7932    0.0000 C   0  0  0  0  0  0  0  0  0  0  0  0
    4.8933   -2.5077    0.0000 C   0  0  0  0  0  0  0  0  0  0  0  0
    5.3058   -3.2221    0.0000 C   0  0  0  0  0  0  0  0  0  0  0  0
    4.8933   -1.0787    0.0000 O   0  0  0  0  0  0  0  0  0  0  0  0
    7.3104  -14.3550    0.0000 H   0  0  0  0  0  0  0  0  0  0  0  0
    9.0207  -16.6856    0.0000 O   0  0  0  0  0  0  0  0  0  0  0  0
   10.4496  -15.8606    0.0000 O   0  0  0  0  0  0  0  0  0  0  0  0
    9.0207  -10.9106    0.0000 O   0  0  0  0  0  0  0  0  0  0  0  0
    4.7339  -14.2106    0.0000 O   0  0  0  0  0  0  0  0  0  0  0  0
    3.3049  -13.3856    0.0000 O   0  0  0  0  0  0  0  0  0  0  0  0
    9.0207   -9.2606    0.0000 O   0  0  0  0  0  0  0  0  0  0  0  0
  1  2  1  0  0  0  0
  3  2  1  1  0  0  0
  3  4  1  0  0  0  0
  4  5  1  0  0  0  0
  5  6  1  1  0  0  0
  6  7  1  0  0  0  0
  3  8  1  0  0  0  0
  8  9  1  0  0  0  0
  9 10  1  0  0  0  0
 10  5  1  0  0  0  0
 10 11  1  6  0  0  0
 11 12  1  0  0  0  0
 12 13  2  0  0  0  0
 15 14  1  6  0  0  0
 15 16  1  0  0  0  0
 16  7  1  1  0  0  0
 15 17  1  0  0  0  0
 17 18  1  0  0  0  0
 18 19  1  0  0  0  0
 19 20  1  0  0  0  0
 20 16  1  0  0  0  0
 19 21  1  1  0  0  0
 21 22  1  0  0  0  0
 22 23  2  0  0  0  0
 23 24  1  0  0  0  0
 22 25  1  0  0  0  0
 25 26  2  0  0  0  0
 26 27  1  0  0  0  0
 27 28  2  0  0  0  0
 28 23  1  0  0  0  0
 12 29  1  0  0  0  0
 29 30  1  0  0  0  0
 29 31  2  0  0  0  0
 31 32  1  0  0  0  0
 32 33  1  0  0  0  0
 32 34  2  0  0  0  0
 34 35  1  0  0  0  0
 35 36  2  0  0  0  0
 36 37  1  0  0  0  0
 37 33  2  0  0  0  0
 26 38  1  0  0  0  0
 38 39  1  0  0  0  0
 39 40  1  0  0  0  0
 40 27  1  0  0  0  0
 39 41  1  1  0  0  0
 41 42  1  0  0  0  0
 41 43  2  0  0  0  0
 38 44  1  0  0  0  0
 44 45  1  0  0  0  0
 44 46  2  0  0  0  0
 45 47  2  0  0  0  0
 47 48  1  0  0  0  0
 45 49  1  0  0  0  0
 47 50  1  0  0  0  0
 48 51  2  0  0  0  0
 51 52  1  0  0  0  0
 52 53  2  0  0  0  0
 53 54  1  0  0  0  0
 54 55  2  0  0  0  0
 55 48  1  0  0  0  0
 53 56  1  0  0  0  0
 31 57  1  0  0  0  0
 35 58  1  0  0  0  0
 36 59  1  0  0  0  0
 17 60  1  1  0  0  0
  9 61  1  1  0  0  0
  8 62  1  6  0  0  0
 18 63  1  6  0  0  0
M  END
>  <cdx:fragmentId>
5

$$$$
