20289.cdx
  Mrv1902 05222410272D          

 21 22  0  0  0  0            999 V2000
    5.6562  -10.3744    0.0000 C   0  0  0  0  0  0  0  0  0  0  0  0
    5.6562  -11.1994    0.0000 C   0  0  0  0  0  0  0  0  0  0  0  0
    6.3706  -11.6119    0.0000 C   0  0  0  0  0  0  0  0  0  0  0  0
    7.0851  -11.1994    0.0000 C   0  0  0  0  0  0  0  0  0  0  0  0
    7.0851  -10.3744    0.0000 C   0  0  0  0  0  0  0  0  0  0  0  0
    6.3706   -9.9619    0.0000 C   0  0  0  0  0  0  0  0  0  0  0  0
    4.9417  -11.6119    0.0000 O   0  0  0  0  0  0  0  0  0  0  0  0
    6.3706  -12.4369    0.0000 O   0  0  0  0  0  0  0  0  0  0  0  0
    7.0851   -8.7244    0.0000 C   0  0  0  0  0  0  0  0  0  0  0  0
    6.3706   -9.1369    0.0000 C   0  0  0  0  0  0  0  0  0  0  0  0
    7.0851   -7.8994    0.0000 C   0  0  0  0  0  0  0  0  0  0  0  0
    6.3706   -7.4869    0.0000 O   0  0  0  0  0  0  0  0  0  0  0  0
    7.7996   -7.4869    0.0000 N   0  0  0  0  0  0  0  0  0  0  0  0
    7.7996   -6.6619    0.0000 C   0  0  0  0  0  0  0  0  0  0  0  0
    8.5141   -6.2494    0.0000 C   0  0  0  0  0  0  0  0  0  0  0  0
    8.5141   -5.4244    0.0000 C   0  0  0  0  0  0  0  0  0  0  0  0
    7.7996   -5.0119    0.0000 N   0  0  0  0  0  0  0  0  0  0  0  0
    9.1272   -4.8723    0.0000 C   0  0  0  0  0  0  0  0  0  0  0  0
    8.7916   -4.1187    0.0000 N   0  0  0  0  0  0  0  0  0  0  0  0
    7.9711   -4.2049    0.0000 C   0  0  0  0  0  0  0  0  0  0  0  0
    4.2272  -11.1994    0.0000 C   0  0  0  0  0  0  0  0  0  0  0  0
  1  2  2  0  0  0  0
  2  3  1  0  0  0  0
  3  4  2  0  0  0  0
  4  5  1  0  0  0  0
  5  6  2  0  0  0  0
  6  1  1  0  0  0  0
  2  7  1  0  0  0  0
  8  3  1  0  0  0  0
  9 10  2  0  0  0  0
 10  6  1  0  0  0  0
  9 11  1  0  0  0  0
 11 12  2  0  0  0  0
 11 13  1  0  0  0  0
 13 14  1  0  0  0  0
 14 15  1  0  0  0  0
 15 16  1  0  0  0  0
 16 17  1  0  0  0  0
 16 18  2  0  0  0  0
 18 19  1  0  0  0  0
 19 20  2  0  0  0  0
 20 17  1  0  0  0  0
  7 21  1  0  0  0  0
M  END
>  <cdx:fragmentId>
5

$$$$
