20284.cdx
  Mrv1902 05222410182D          

 11 11  0  0  0  0            999 V2000
    6.5916   -3.0319    0.0000 C   0  0  0  0  0  0  0  0  0  0  0  0
    6.5916   -2.2069    0.0000 C   0  0  0  0  0  0  0  0  0  0  0  0
    7.3061   -1.7944    0.0000 C   0  0  0  0  0  0  0  0  0  0  0  0
    8.0206   -2.2069    0.0000 C   0  0  0  0  0  0  0  0  0  0  0  0
    8.0206   -3.0319    0.0000 C   0  0  0  0  0  0  0  0  0  0  0  0
    7.3061   -3.4444    0.0000 C   0  0  0  0  0  0  0  0  0  0  0  0
    5.8772   -3.4444    0.0000 C   0  0  0  0  0  0  0  0  0  0  0  0
    5.1627   -3.0319    0.0000 C   0  0  0  0  0  0  0  0  0  0  0  0
    4.4482   -3.4444    0.0000 C   0  0  0  0  0  0  0  0  0  0  0  0
    3.7338   -3.0319    0.0000 C   0  0  0  0  0  0  0  0  0  0  0  0
    3.0193   -3.4444    0.0000 C   0  0  0  0  0  0  0  0  0  0  0  0
  1  2  1  0  0  0  0
  2  3  1  0  0  0  0
  3  4  1  0  0  0  0
  4  5  1  0  0  0  0
  5  6  1  0  0  0  0
  1  6  1  0  0  0  0
  7  8  1  0  0  0  0
  8  9  1  0  0  0  0
  9 10  1  0  0  0  0
 10 11  1  0  0  0  0
  1  7  1  0  0  0  0
M  END
>  <cdx:groupId>
35

>  <cdx:fragmentId>
5

$$$$
