20287.cdx
  Mrv1902 05222410182D          

 42 48  0  0  0  0            999 V2000
    8.7912   -6.9712    0.0000 C   0  0  0  0  0  0  0  0  0  0  0  0
    8.7912   -7.7963    0.0000 C   0  0  0  0  0  0  0  0  0  0  0  0
    9.5056   -8.2088    0.0000 C   0  0  0  0  0  0  0  0  0  0  0  0
   10.2201   -7.7963    0.0000 C   0  0  0  0  0  0  0  0  0  0  0  0
   10.2201   -6.9712    0.0000 C   0  0  0  0  0  0  0  0  0  0  0  0
    9.5056   -6.5587    0.0000 C   0  0  0  0  0  0  0  0  0  0  0  0
    8.0767   -8.2088    0.0000 O   0  0  0  0  0  0  0  0  0  0  0  0
    8.0767   -9.0337    0.0000 C   0  0  0  0  0  0  0  0  0  0  0  0
    8.7912   -9.4462    0.0000 C   0  0  0  0  0  0  0  0  0  0  0  0
    9.5056   -9.0337    0.0000 C   0  0  0  0  0  0  0  0  0  0  0  0
    7.3622   -9.4462    0.0000 C   0  0  0  0  0  0  0  0  0  0  0  0
    7.3622  -10.2713    0.0000 C   0  0  0  0  0  0  0  0  0  0  0  0
    8.7912  -10.2713    0.0000 O   0  0  0  0  0  0  0  0  0  0  0  0
    6.6478   -9.0337    0.0000 C   0  0  0  0  0  0  0  0  0  0  0  0
    5.9333   -9.4462    0.0000 C   0  0  0  0  0  0  0  0  0  0  0  0
    5.9333  -10.2713    0.0000 C   0  0  0  0  0  0  0  0  0  0  0  0
    6.6478  -10.6837    0.0000 C   0  0  0  0  0  0  0  0  0  0  0  0
    6.6478   -8.2088    0.0000 O   0  0  0  0  0  0  0  0  0  0  0  0
    5.9333   -7.7963    0.0000 C   0  0  0  0  0  0  0  0  0  0  0  0
    5.2188   -8.2088    0.0000 C   0  0  0  0  0  0  0  0  0  0  0  0
    5.9333   -6.9712    0.0000 C   0  0  0  0  0  0  0  0  0  0  0  0
    5.2188   -6.5587    0.0000 C   0  0  0  0  0  0  0  0  0  0  0  0
    4.5044   -6.9712    0.0000 C   0  0  0  0  0  0  0  0  0  0  0  0
    4.5044   -7.7963    0.0000 C   0  0  0  0  0  0  0  0  0  0  0  0
    5.2188   -5.7338    0.0000 O   0  0  0  0  0  0  0  0  0  0  0  0
    9.5056   -5.7338    0.0000 O   0  0  0  0  0  0  0  0  0  0  0  0
    5.2188  -10.6837    0.0000 O   0  0  0  0  0  0  0  0  0  0  0  0
   10.2201   -9.4462    0.0000 O   0  0  0  0  0  0  0  0  0  0  0  0
   10.9346   -8.2088    0.0000 O   0  0  0  0  0  0  0  0  0  0  0  0
    3.7899   -8.2088    0.0000 O   0  0  0  0  0  0  0  0  0  0  0  0
    7.3696   -6.2906    0.0000 C   0  0  2  0  0  0  0  0  0  0  0  0
    7.2739   -5.0944    0.0000 C   0  0  1  0  0  0  0  0  0  0  0  0
    7.2646   -4.2694    0.0000 C   0  0  0  0  0  0  0  0  0  0  0  0
    7.9813   -3.8609    0.0000 C   0  0  0  0  0  0  0  0  0  0  0  0
    7.9813   -3.0359    0.0000 C   0  0  0  0  0  0  0  0  0  0  0  0
    7.2646   -2.6195    0.0000 C   0  0  0  0  0  0  0  0  0  0  0  0
    6.5479   -3.0359    0.0000 C   0  0  0  0  0  0  0  0  0  0  0  0
    6.5479   -3.8609    0.0000 C   0  0  0  0  0  0  0  0  0  0  0  0
    7.2646   -1.7945    0.0000 O   0  0  0  0  0  0  0  0  0  0  0  0
    8.5997   -4.5375    0.0000 C   0  0  1  0  0  0  0  0  0  0  0  0
    9.2421   -4.0198    0.0000 O   0  0  0  0  0  0  0  0  0  0  0  0
    7.5832   -7.0875    0.0000 H   0  0  0  0  0  0  0  0  0  0  0  0
  1  2  1  0  0  0  0
  2  3  2  0  0  0  0
  3  4  1  0  0  0  0
  4  5  2  0  0  0  0
  5  6  1  0  0  0  0
  6  1  2  0  0  0  0
  2  7  1  0  0  0  0
  7  8  1  0  0  0  0
  8  9  2  0  0  0  0
  9 10  1  0  0  0  0
 10  3  1  0  0  0  0
  8 11  1  0  0  0  0
 11 12  2  0  0  0  0
 13  9  1  0  0  0  0
 11 14  1  0  0  0  0
 14 15  2  0  0  0  0
 15 16  1  0  0  0  0
 16 17  2  0  0  0  0
 17 12  1  0  0  0  0
 18 19  1  0  0  0  0
 19 20  1  0  0  0  0
 19 21  2  0  0  0  0
 21 22  1  0  0  0  0
 22 23  2  0  0  0  0
 23 24  1  0  0  0  0
 24 20  2  0  0  0  0
 22 25  1  0  0  0  0
  6 26  1  0  0  0  0
 16 27  1  0  0  0  0
 10 28  2  0  0  0  0
  4 29  1  0  0  0  0
 24 30  1  0  0  0  0
 21 31  1  0  0  0  0
  1 31  1  0  0  0  0
 25 32  1  0  0  0  0
 32 26  1  0  0  0  0
 32 33  1  6  0  0  0
 33 34  2  0  0  0  0
 34 35  1  0  0  0  0
 35 36  2  0  0  0  0
 36 37  1  0  0  0  0
 37 38  2  0  0  0  0
 38 33  1  0  0  0  0
 36 39  1  0  0  0  0
 31 40  1  0  0  0  0
 32 40  1  0  0  0  0
 40 41  1  1  0  0  0
 31 42  1  1  0  0  0
M  END
>  <cdx:fragmentId>
5

$$$$
