20285.cdx
  Mrv1902 05222410192D          

 14 15  0  0  0  0            999 V2000
    6.7318   -8.4858    0.0000 C   0  0  0  0  0  0  0  0  0  0  0  0
    7.5285   -8.2717    0.0000 C   0  0  1  0  0  0  0  0  0  0  0  0
    8.3253   -8.4858    0.0000 C   0  0  1  0  0  0  0  0  0  0  0  0
    8.7389   -7.7721    0.0000 C   0  0  0  0  0  0  0  0  0  0  0  0
    6.4442   -7.8134    0.0000 C   0  0  0  0  0  0  0  0  0  0  0  0
    7.4678   -7.5168    0.0000 C   0  0  1  0  0  0  0  0  0  0  0  0
    8.1281   -6.7205    0.0000 C   0  0  0  0  0  0  0  0  0  0  0  0
    8.1281   -5.8955    0.0000 C   0  0  0  0  0  0  0  0  0  0  0  0
    8.8426   -6.3080    0.0000 C   0  0  0  0  0  0  0  0  0  0  0  0
    7.5285   -9.0967    0.0000 C   0  0  0  0  0  0  0  0  0  0  0  0
    8.6401   -9.2484    0.0000 O   0  0  0  0  0  0  0  0  0  0  0  0
    9.4370   -9.4619    0.0000 C   0  0  0  0  0  0  0  0  0  0  0  0
    9.6505  -10.2588    0.0000 O   0  0  0  0  0  0  0  0  0  0  0  0
    7.0553   -6.8023    0.0000 H   0  0  0  0  0  0  0  0  0  0  0  0
  1  2  1  0  0  0  0
  2  3  1  0  0  0  0
  3  4  1  0  0  0  0
  1  5  1  0  0  0  0
  5  6  1  0  0  0  0
  4  6  1  0  0  0  0
  6  7  1  0  0  0  0
  2  7  1  0  0  0  0
  7  8  1  0  0  0  0
  7  9  1  0  0  0  0
  2 10  1  1  0  0  0
  3 11  1  1  0  0  0
 11 12  1  0  0  0  0
 12 13  2  0  0  0  0
  6 14  1  6  0  0  0
M  END
>  <cdx:fragmentId>
800

$$$$
