20282.cdx
  Mrv1902 05222410202D          

 17 17  0  0  0  0            999 V2000
    5.6967   -6.1356    0.0000 C   0  0  0  0  0  0  0  0  0  0  0  0
    4.9742   -5.7373    0.0000 O   0  0  0  0  0  0  0  0  0  0  0  0
    6.4354   -7.3588    0.0000 C   0  0  0  0  0  0  0  0  0  0  0  0
    6.4517   -8.1836    0.0000 C   0  0  0  0  0  0  0  0  0  0  0  0
    8.5052   -3.6047    0.0000 C   0  0  0  0  0  0  0  0  0  0  0  0
    8.5215   -4.4295    0.0000 O   0  0  0  0  0  0  0  0  0  0  0  0
    7.0928   -4.4577    0.0000 O   0  0  0  0  0  0  0  0  0  0  0  0
    7.8153   -4.8561    0.0000 C   0  0  0  0  0  0  0  0  0  0  0  0
    7.8803   -8.1554    0.0000 O   0  0  0  0  0  0  0  0  0  0  0  0
    8.5703   -6.9041    0.0000 O   0  0  0  0  0  0  0  0  0  0  0  0
    8.5540   -6.0792    0.0000 C   0  0  0  0  0  0  0  0  0  0  0  0
    7.8315   -5.6809    0.0000 C   0  0  0  0  0  0  0  0  0  0  0  0
    7.1253   -6.1074    0.0000 C   0  0  0  0  0  0  0  0  0  0  0  0
    7.1416   -6.9322    0.0000 C   0  0  0  0  0  0  0  0  0  0  0  0
    7.8641   -7.3306    0.0000 C   0  0  0  0  0  0  0  0  0  0  0  0
    6.4029   -5.7091    0.0000 O   0  0  0  0  0  0  0  0  0  0  0  0
    5.7129   -6.9604    0.0000 C   0  0  0  0  0  0  0  0  0  0  0  0
  3 14  1  0  0  0  0
 12  8  1  0  0  0  0
  8  6  1  0  0  0  0
  6  5  1  0  0  0  0
  8  7  2  0  0  0  0
 15  9  2  0  0  0  0
 15 10  1  0  0  0  0
 11 10  1  0  0  0  0
 12 11  2  0  0  0  0
 13 12  1  0  0  0  0
 14 13  2  0  0  0  0
 15 14  1  0  0  0  0
  1 17  1  0  0  0  0
  1  2  2  0  0  0  0
 17  3  1  0  0  0  0
  3  4  1  0  0  0  0
  1 16  1  0  0  0  0
M  END
>  <cdx:fragmentId>
3771

$$$$
