20288.cdx
  Mrv1902 05222410272D          

 40 46  0  0  0  0            999 V2000
    6.1247   -4.5375    0.0000 C   0  0  0  0  0  0  0  0  0  0  0  0
    7.4599   -1.7945    0.0000 O   0  0  0  0  0  0  0  0  0  0  0  0
    8.1766   -3.8609    0.0000 C   0  0  0  0  0  0  0  0  0  0  0  0
    8.1766   -3.0359    0.0000 C   0  0  0  0  0  0  0  0  0  0  0  0
    7.4599   -2.6195    0.0000 C   0  0  0  0  0  0  0  0  0  0  0  0
    6.7432   -3.0359    0.0000 C   0  0  0  0  0  0  0  0  0  0  0  0
    6.7432   -3.8609    0.0000 C   0  0  0  0  0  0  0  0  0  0  0  0
    7.4599   -4.2694    0.0000 C   0  0  0  0  0  0  0  0  0  0  0  0
    7.4506   -5.0944    0.0000 C   0  0  0  0  0  0  0  0  0  0  0  0
    7.3548   -6.2906    0.0000 C   0  0  0  0  0  0  0  0  0  0  0  0
   10.9346   -8.2088    0.0000 O   0  0  0  0  0  0  0  0  0  0  0  0
    3.7899   -8.2088    0.0000 O   0  0  0  0  0  0  0  0  0  0  0  0
    4.5044   -9.4462    0.0000 O   0  0  0  0  0  0  0  0  0  0  0  0
    9.5056  -10.6837    0.0000 O   0  0  0  0  0  0  0  0  0  0  0  0
    5.2188   -5.7338    0.0000 O   0  0  0  0  0  0  0  0  0  0  0  0
    9.5056   -5.7338    0.0000 O   0  0  0  0  0  0  0  0  0  0  0  0
   10.2201   -7.7963    0.0000 C   0  0  0  0  0  0  0  0  0  0  0  0
   10.2201   -6.9712    0.0000 C   0  0  0  0  0  0  0  0  0  0  0  0
    9.5056   -6.5587    0.0000 C   0  0  0  0  0  0  0  0  0  0  0  0
    8.7912   -6.9712    0.0000 C   0  0  0  0  0  0  0  0  0  0  0  0
    9.5056   -8.2088    0.0000 C   0  0  0  0  0  0  0  0  0  0  0  0
    8.7912   -7.7963    0.0000 C   0  0  0  0  0  0  0  0  0  0  0  0
    8.0767   -8.2088    0.0000 O   0  0  0  0  0  0  0  0  0  0  0  0
    8.0767  -10.6837    0.0000 C   0  0  0  0  0  0  0  0  0  0  0  0
    8.7912  -10.2713    0.0000 C   0  0  0  0  0  0  0  0  0  0  0  0
    8.7912   -9.4462    0.0000 C   0  0  0  0  0  0  0  0  0  0  0  0
    8.0767   -9.0337    0.0000 C   0  0  0  0  0  0  0  0  0  0  0  0
    5.9333  -10.2713    0.0000 O   0  0  0  0  0  0  0  0  0  0  0  0
    7.3622  -10.2713    0.0000 C   0  0  0  0  0  0  0  0  0  0  0  0
    7.3622   -9.4462    0.0000 C   0  0  0  0  0  0  0  0  0  0  0  0
    5.2188   -9.0337    0.0000 C   0  0  0  0  0  0  0  0  0  0  0  0
    5.9333   -9.4462    0.0000 C   0  0  0  0  0  0  0  0  0  0  0  0
    6.6478   -9.0337    0.0000 C   0  0  0  0  0  0  0  0  0  0  0  0
    6.6478   -8.2088    0.0000 O   0  0  0  0  0  0  0  0  0  0  0  0
    5.2188   -6.5587    0.0000 C   0  0  0  0  0  0  0  0  0  0  0  0
    4.5044   -6.9712    0.0000 C   0  0  0  0  0  0  0  0  0  0  0  0
    4.5044   -7.7963    0.0000 C   0  0  0  0  0  0  0  0  0  0  0  0
    5.2188   -8.2088    0.0000 C   0  0  0  0  0  0  0  0  0  0  0  0
    5.9333   -7.7963    0.0000 C   0  0  0  0  0  0  0  0  0  0  0  0
    5.9333   -6.9712    0.0000 C   0  0  0  0  0  0  0  0  0  0  0  0
  9  1  1  0  0  0  0
  5  2  1  0  0  0  0
  3  8  1  0  0  0  0
  4  3  2  0  0  0  0
  5  4  1  0  0  0  0
  6  5  2  0  0  0  0
  7  6  1  0  0  0  0
  8  7  2  0  0  0  0
  9  8  1  0  0  0  0
  9 15  1  0  0  0  0
 16  9  1  0  0  0  0
 40 10  1  0  0  0  0
 20 10  1  0  0  0  0
 17 11  1  0  0  0  0
 37 12  1  0  0  0  0
 31 13  2  0  0  0  0
 25 14  1  0  0  0  0
 35 15  1  0  0  0  0
 19 16  1  0  0  0  0
 17 21  2  0  0  0  0
 18 17  1  0  0  0  0
 19 18  2  0  0  0  0
 20 19  1  0  0  0  0
 22 20  2  0  0  0  0
 22 21  1  0  0  0  0
 23 22  1  0  0  0  0
 24 29  1  0  0  0  0
 25 24  2  0  0  0  0
 26 25  1  0  0  0  0
 27 26  2  0  0  0  0
 30 27  1  0  0  0  0
 28 32  1  0  0  0  0
 30 29  2  0  0  0  0
 33 30  1  0  0  0  0
 31 38  1  0  0  0  0
 32 31  1  0  0  0  0
 33 32  2  0  0  0  0
 34 33  1  0  0  0  0
 39 34  1  0  0  0  0
 35 40  2  0  0  0  0
 36 35  1  0  0  0  0
 37 36  2  0  0  0  0
 38 37  1  0  0  0  0
 39 38  2  0  0  0  0
 40 39  1  0  0  0  0
  1 10  1  0  0  0  0
M  END
>  <cdx:fragmentId>
5

$$$$
