20290.cdx
  Mrv1902 05222410182D          

 41 47  0  0  0  0            999 V2000
    7.3622   -4.4138    0.0000 C   0  0  1  0  0  0  0  0  0  0  0  0
    8.6974   -1.6707    0.0000 O   0  0  0  0  0  0  0  0  0  0  0  0
    9.4141   -3.7371    0.0000 C   0  0  0  0  0  0  0  0  0  0  0  0
    9.4141   -2.9121    0.0000 C   0  0  0  0  0  0  0  0  0  0  0  0
    8.6974   -2.4957    0.0000 C   0  0  0  0  0  0  0  0  0  0  0  0
    7.9807   -2.9121    0.0000 C   0  0  0  0  0  0  0  0  0  0  0  0
    7.9807   -3.7371    0.0000 C   0  0  0  0  0  0  0  0  0  0  0  0
    8.6974   -4.1457    0.0000 C   0  0  0  0  0  0  0  0  0  0  0  0
    8.6881   -4.9706    0.0000 C   0  0  2  0  0  0  0  0  0  0  0  0
    8.5923   -6.1669    0.0000 C   0  0  1  0  0  0  0  0  0  0  0  0
   12.1721   -8.0850    0.0000 O   0  0  0  0  0  0  0  0  0  0  0  0
    6.4563   -5.6100    0.0000 O   0  0  0  0  0  0  0  0  0  0  0  0
   10.7431   -5.6100    0.0000 O   0  0  0  0  0  0  0  0  0  0  0  0
   11.4576   -7.6725    0.0000 C   0  0  0  0  0  0  0  0  0  0  0  0
   11.4576   -6.8475    0.0000 C   0  0  0  0  0  0  0  0  0  0  0  0
   10.7431   -6.4350    0.0000 C   0  0  0  0  0  0  0  0  0  0  0  0
   10.0287   -6.8475    0.0000 C   0  0  0  0  0  0  0  0  0  0  0  0
   10.7431   -8.0850    0.0000 C   0  0  0  0  0  0  0  0  0  0  0  0
   10.0287   -7.6725    0.0000 C   0  0  0  0  0  0  0  0  0  0  0  0
    9.3142   -8.0850    0.0000 O   0  0  0  0  0  0  0  0  0  0  0  0
    6.4563   -6.4350    0.0000 C   0  0  0  0  0  0  0  0  0  0  0  0
    5.7419   -6.8475    0.0000 C   0  0  0  0  0  0  0  0  0  0  0  0
    5.7419   -7.6725    0.0000 C   0  0  0  0  0  0  0  0  0  0  0  0
    6.4563   -8.0850    0.0000 C   0  0  0  0  0  0  0  0  0  0  0  0
    7.1708   -7.6725    0.0000 C   0  0  0  0  0  0  0  0  0  0  0  0
    7.1708   -6.8475    0.0000 C   0  0  0  0  0  0  0  0  0  0  0  0
    5.0274   -8.0850    0.0000 O   0  0  0  0  0  0  0  0  0  0  0  0
    5.0274   -8.9100    0.0000 C   0  0  2  0  0  0  0  0  0  0  0  0
    5.7419   -9.3225    0.0000 C   0  0  2  0  0  0  0  0  0  0  0  0
    6.4563   -8.9100    0.0000 C   0  0  0  0  0  0  0  0  0  0  0  0
    4.3129   -9.3225    0.0000 C   0  0  0  0  0  0  0  0  0  0  0  0
    3.5984   -8.9100    0.0000 C   0  0  0  0  0  0  0  0  0  0  0  0
    2.8840   -9.3225    0.0000 C   0  0  0  0  0  0  0  0  0  0  0  0
    2.8840  -10.1475    0.0000 C   0  0  0  0  0  0  0  0  0  0  0  0
    3.5984  -10.5600    0.0000 C   0  0  0  0  0  0  0  0  0  0  0  0
    4.3129  -10.1475    0.0000 C   0  0  0  0  0  0  0  0  0  0  0  0
    2.1695  -10.5600    0.0000 O   0  0  0  0  0  0  0  0  0  0  0  0
    5.7419  -10.1475    0.0000 O   0  0  0  0  0  0  0  0  0  0  0  0
    6.7789   -3.8304    0.0000 O   0  0  0  0  0  0  0  0  0  0  0  0
    8.3788   -6.9638    0.0000 H   0  0  0  0  0  0  0  0  0  0  0  0
    7.8853   -8.0850    0.0000 O   0  0  0  0  0  0  0  0  0  0  0  0
  9  1  1  0  0  0  0
  5  2  1  0  0  0  0
  3  8  1  0  0  0  0
  4  3  2  0  0  0  0
  5  4  1  0  0  0  0
  6  5  2  0  0  0  0
  7  6  1  0  0  0  0
  8  7  2  0  0  0  0
  9  8  1  6  0  0  0
  9 12  1  0  0  0  0
 13  9  1  0  0  0  0
 26 10  1  0  0  0  0
 17 10  1  0  0  0  0
 14 11  1  0  0  0  0
 21 12  1  0  0  0  0
 16 13  1  0  0  0  0
 14 18  2  0  0  0  0
 15 14  1  0  0  0  0
 16 15  2  0  0  0  0
 17 16  1  0  0  0  0
 19 17  2  0  0  0  0
 19 18  1  0  0  0  0
 20 19  1  0  0  0  0
 21 26  2  0  0  0  0
 22 21  1  0  0  0  0
 23 22  2  0  0  0  0
 24 23  1  0  0  0  0
 25 24  2  0  0  0  0
 26 25  1  0  0  0  0
  1 10  1  0  0  0  0
 23 27  1  0  0  0  0
 27 28  1  0  0  0  0
 28 29  1  0  0  0  0
 29 30  1  0  0  0  0
 30 24  1  0  0  0  0
 28 31  1  6  0  0  0
 31 32  2  0  0  0  0
 32 33  1  0  0  0  0
 33 34  2  0  0  0  0
 34 35  1  0  0  0  0
 35 36  2  0  0  0  0
 36 31  1  0  0  0  0
 34 37  1  0  0  0  0
 29 38  1  6  0  0  0
  1 39  1  1  0  0  0
 10 40  1  6  0  0  0
 25 41  1  0  0  0  0
M  END
>  <cdx:fragmentId>
5

$$$$
