20295.cdx
  Mrv1902 05222410192D          

 30 33  0  0  0  0            999 V2000
    5.1681   -5.6719    0.0000 C   0  0  0  0  0  0  0  0  0  0  0  0
    5.1681   -6.4969    0.0000 C   0  0  0  0  0  0  0  0  0  0  0  0
    5.8825   -6.9094    0.0000 C   0  0  0  0  0  0  0  0  0  0  0  0
    6.5970   -6.4969    0.0000 C   0  0  0  0  0  0  0  0  0  0  0  0
    6.5970   -5.6719    0.0000 C   0  0  0  0  0  0  0  0  0  0  0  0
    5.8825   -5.2594    0.0000 C   0  0  0  0  0  0  0  0  0  0  0  0
    7.3115   -6.9094    0.0000 C   0  0  0  0  0  0  0  0  0  0  0  0
    8.0259   -6.4969    0.0000 C   0  0  0  0  0  0  0  0  0  0  0  0
    8.0259   -5.6719    0.0000 C   0  0  0  0  0  0  0  0  0  0  0  0
    7.3115   -5.2594    0.0000 O   0  0  0  0  0  0  0  0  0  0  0  0
    5.8825   -7.7344    0.0000 O   0  0  0  0  0  0  0  0  0  0  0  0
    7.3115   -7.7344    0.0000 O   0  0  0  0  0  0  0  0  0  0  0  0
    8.0259   -8.1469    0.0000 O   0  0  0  0  0  0  0  0  0  0  0  0
    8.7404   -7.7344    0.0000 C   0  0  1  0  0  0  0  0  0  0  0  0
    8.7404   -6.9094    0.0000 O   0  0  0  0  0  0  0  0  0  0  0  0
    8.7404   -5.2594    0.0000 C   0  0  0  0  0  0  0  0  0  0  0  0
    8.7404   -4.4344    0.0000 C   0  0  0  0  0  0  0  0  0  0  0  0
    9.4549   -5.6719    0.0000 C   0  0  0  0  0  0  0  0  0  0  0  0
   10.1694   -5.2594    0.0000 C   0  0  0  0  0  0  0  0  0  0  0  0
   10.1694   -4.4344    0.0000 C   0  0  0  0  0  0  0  0  0  0  0  0
    9.4549   -4.0219    0.0000 C   0  0  0  0  0  0  0  0  0  0  0  0
    8.1975   -8.9538    0.0000 C   0  0  2  0  0  0  0  0  0  0  0  0
    9.0179   -9.0401    0.0000 C   0  0  1  0  0  0  0  0  0  0  0  0
    9.3535   -8.2864    0.0000 C   0  0  1  0  0  0  0  0  0  0  0  0
    4.4536   -5.2594    0.0000 O   0  0  0  0  0  0  0  0  0  0  0  0
   10.8838   -4.0219    0.0000 O   0  0  0  0  0  0  0  0  0  0  0  0
    7.6454   -9.5669    0.0000 C   0  0  0  0  0  0  0  0  0  0  0  0
    8.0579  -10.2814    0.0000 O   0  0  0  0  0  0  0  0  0  0  0  0
   10.1605   -8.1149    0.0000 O   0  0  0  0  0  0  0  0  0  0  0  0
    9.4304   -9.7546    0.0000 O   0  0  0  0  0  0  0  0  0  0  0  0
  1  2  2  0  0  0  0
  2  3  1  0  0  0  0
  3  4  2  0  0  0  0
  4  5  1  0  0  0  0
  5  6  2  0  0  0  0
  6  1  1  0  0  0  0
  4  7  1  0  0  0  0
  7  8  1  0  0  0  0
  8  9  2  0  0  0  0
  9 10  1  0  0  0  0
 10  5  1  0  0  0  0
  3 11  1  0  0  0  0
 12  7  2  0  0  0  0
 13 14  1  0  0  0  0
 14 15  1  1  0  0  0
 15  8  1  0  0  0  0
  9 16  1  0  0  0  0
 16 17  1  0  0  0  0
 16 18  2  0  0  0  0
 18 19  1  0  0  0  0
 19 20  2  0  0  0  0
 20 21  1  0  0  0  0
 21 17  2  0  0  0  0
 13 22  1  0  0  0  0
 22 23  1  0  0  0  0
 23 24  1  0  0  0  0
 24 14  1  0  0  0  0
  1 25  1  0  0  0  0
 20 26  1  0  0  0  0
 22 27  1  6  0  0  0
 27 28  1  0  0  0  0
 24 29  1  6  0  0  0
 23 30  1  1  0  0  0
M  END
>  <cdx:fragmentId>
5

$$$$
