20293.cdx
  Mrv1902 05222410182D          

 21 23  0  0  0  0            999 V2000
    4.2331   -7.5488    0.0000 C   0  0  0  0  0  0  0  0  0  0  0  0
    4.2331   -8.3737    0.0000 C   0  0  0  0  0  0  0  0  0  0  0  0
    4.9475   -8.7862    0.0000 C   0  0  0  0  0  0  0  0  0  0  0  0
    5.6620   -8.3737    0.0000 C   0  0  0  0  0  0  0  0  0  0  0  0
    5.6620   -7.5488    0.0000 C   0  0  0  0  0  0  0  0  0  0  0  0
    4.9475   -7.1362    0.0000 C   0  0  0  0  0  0  0  0  0  0  0  0
    6.3765   -8.7862    0.0000 C   0  0  0  0  0  0  0  0  0  0  0  0
    7.0909   -8.3737    0.0000 C   0  0  0  0  0  0  0  0  0  0  0  0
    7.0909   -7.5488    0.0000 C   0  0  0  0  0  0  0  0  0  0  0  0
    6.3765   -7.1362    0.0000 O   0  0  0  0  0  0  0  0  0  0  0  0
    4.9475   -9.6112    0.0000 O   0  0  0  0  0  0  0  0  0  0  0  0
    6.3765   -9.6112    0.0000 O   0  0  0  0  0  0  0  0  0  0  0  0
    7.8054   -7.1362    0.0000 C   0  0  0  0  0  0  0  0  0  0  0  0
    7.8054   -6.3113    0.0000 C   0  0  0  0  0  0  0  0  0  0  0  0
    8.5199   -7.5488    0.0000 C   0  0  0  0  0  0  0  0  0  0  0  0
    9.2344   -7.1362    0.0000 C   0  0  0  0  0  0  0  0  0  0  0  0
    9.2344   -6.3113    0.0000 C   0  0  0  0  0  0  0  0  0  0  0  0
    8.5199   -5.8988    0.0000 C   0  0  0  0  0  0  0  0  0  0  0  0
    8.5199   -5.0737    0.0000 O   0  0  0  0  0  0  0  0  0  0  0  0
    9.9488   -7.5488    0.0000 O   0  0  0  0  0  0  0  0  0  0  0  0
    3.5186   -7.1362    0.0000 O   0  0  0  0  0  0  0  0  0  0  0  0
  1  2  2  0  0  0  0
  2  3  1  0  0  0  0
  3  4  2  0  0  0  0
  4  5  1  0  0  0  0
  5  6  2  0  0  0  0
  6  1  1  0  0  0  0
  4  7  1  0  0  0  0
  7  8  1  0  0  0  0
  8  9  1  0  0  0  0
  9 10  1  0  0  0  0
 10  5  1  0  0  0  0
  3 11  1  0  0  0  0
 12  7  2  0  0  0  0
  9 13  1  0  0  0  0
 13 14  1  0  0  0  0
 13 15  2  0  0  0  0
 15 16  1  0  0  0  0
 16 17  2  0  0  0  0
 17 18  1  0  0  0  0
 18 14  2  0  0  0  0
 18 19  1  0  0  0  0
 16 20  1  0  0  0  0
  1 21  1  0  0  0  0
M  END
>  <cdx:fragmentId>
5

$$$$
