20297.cdx
  Mrv1902 05222410202D          

 14 14  0  0  0  0            999 V2000
    5.9862   -7.6931    0.0000 C   0  0  0  0  0  0  0  0  0  0  0  0
    5.9862   -8.5181    0.0000 C   0  0  0  0  0  0  0  0  0  0  0  0
    6.7006   -8.9306    0.0000 C   0  0  0  0  0  0  0  0  0  0  0  0
    7.4151   -8.5181    0.0000 C   0  0  0  0  0  0  0  0  0  0  0  0
    7.4151   -7.6931    0.0000 C   0  0  0  0  0  0  0  0  0  0  0  0
    6.7006   -7.2806    0.0000 C   0  0  0  0  0  0  0  0  0  0  0  0
    6.7006   -9.7556    0.0000 O   0  0  0  0  0  0  0  0  0  0  0  0
    5.2717   -8.9306    0.0000 O   0  0  0  0  0  0  0  0  0  0  0  0
    4.5572   -8.5181    0.0000 C   0  0  0  0  0  0  0  0  0  0  0  0
    6.7006   -6.4556    0.0000 C   0  0  0  0  0  0  0  0  0  0  0  0
    7.4151   -6.0431    0.0000 C   0  0  0  0  0  0  0  0  0  0  0  0
    7.4151   -5.2181    0.0000 C   0  0  0  0  0  0  0  0  0  0  0  0
    8.1296   -4.8056    0.0000 O   0  0  0  0  0  0  0  0  0  0  0  0
    5.9862   -6.0431    0.0000 O   0  0  0  0  0  0  0  0  0  0  0  0
  1  2  2  0  0  0  0
  2  3  1  0  0  0  0
  3  4  2  0  0  0  0
  4  5  1  0  0  0  0
  5  6  2  0  0  0  0
  6  1  1  0  0  0  0
  3  7  1  0  0  0  0
  2  8  1  0  0  0  0
  8  9  1  0  0  0  0
  6 10  1  0  0  0  0
 10 11  1  0  0  0  0
 11 12  1  0  0  0  0
 12 13  1  0  0  0  0
 10 14  2  0  0  0  0
M  END
>  <cdx:fragmentId>
5

$$$$
