202972.cdx
  Mrv1902 05222410272D          

 30 32  0  0  0  0            999 V2000
    7.8446   -7.3578    0.0000 O   0  0  0  0  0  0  0  0  0  0  0  0
    7.8145   -5.7080    0.0000 O   0  0  0  0  0  0  0  0  0  0  0  0
    8.5062   -4.4577    0.0000 O   0  0  0  0  0  0  0  0  0  0  0  0
    9.2281   -4.8571    0.0000 C   0  0  0  0  0  0  0  0  0  0  0  0
    9.2432   -5.6819    0.0000 C   0  0  2  0  0  0  0  0  0  0  0  0
    8.5364   -6.1074    0.0000 C   0  0  2  0  0  0  0  0  0  0  0  0
    8.5514   -6.9323    0.0000 C   0  0  1  0  0  0  0  0  0  0  0  0
    9.2733   -7.3317    0.0000 C   0  0  2  0  0  0  0  0  0  0  0  0
    9.9801   -6.9062    0.0000 C   0  0  0  0  0  0  0  0  0  0  0  0
    9.9651   -6.0813    0.0000 O   0  0  0  0  0  0  0  0  0  0  0  0
    9.2884   -8.1565    0.0000 O   0  0  0  0  0  0  0  0  0  0  0  0
    7.8683  -10.6366    0.0000 O   0  0  0  0  0  0  0  0  0  0  0  0
    9.2943   -9.8065    0.0000 O   0  0  0  0  0  0  0  0  0  0  0  0
    5.7175   -8.5817    0.0000 O   0  0  0  0  0  0  0  0  0  0  0  0
    6.4305   -8.1667    0.0000 C   0  0  0  0  0  0  0  0  0  0  0  0
    8.5754   -8.5716    0.0000 C   0  0  2  0  0  0  0  0  0  0  0  0
    8.5783   -9.3966    0.0000 C   0  0  1  0  0  0  0  0  0  0  0  0
    7.8653   -9.8116    0.0000 C   0  0  2  0  0  0  0  0  0  0  0  0
    7.1494   -9.4017    0.0000 C   0  0  2  0  0  0  0  0  0  0  0  0
    7.1465   -8.5767    0.0000 C   0  0  2  0  0  0  0  0  0  0  0  0
    7.8595   -8.1616    0.0000 O   0  0  0  0  0  0  0  0  0  0  0  0
    6.4364   -9.8167    0.0000 O   0  0  0  0  0  0  0  0  0  0  0  0
    7.1553  -11.0516    0.0000 O   0  0  0  0  0  0  0  0  0  0  0  0
    5.7293  -11.8817    0.0000 C   0  0  0  0  0  0  0  0  0  0  0  0
    5.0163  -12.2968    0.0000 C   0  0  0  0  0  0  0  0  0  0  0  0
    4.3003  -11.8868    0.0000 C   0  0  0  0  0  0  0  0  0  0  0  0
    4.2974  -11.0618    0.0000 C   0  0  0  0  0  0  0  0  0  0  0  0
    5.0104  -10.6468    0.0000 C   0  0  0  0  0  0  0  0  0  0  0  0
    5.7263  -11.0567    0.0000 C   0  0  0  0  0  0  0  0  0  0  0  0
    6.4393  -10.6417    0.0000 C   0  0  0  0  0  0  0  0  0  0  0  0
 19 22  1  1  0  0  0
 16 11  1  6  0  0  0
  8 11  1  6  0  0  0
  7  1  1  1  0  0  0
  6  2  1  6  0  0  0
  5  4  1  1  0  0  0
  4  3  1  0  0  0  0
 10  5  1  0  0  0  0
  6  5  1  0  0  0  0
  7  6  1  0  0  0  0
  8  7  1  0  0  0  0
  9  8  1  0  0  0  0
 10  9  1  0  0  0  0
 18 12  1  1  0  0  0
 17 13  1  6  0  0  0
 20 15  1  1  0  0  0
 15 14  1  0  0  0  0
 21 16  1  0  0  0  0
 17 16  1  0  0  0  0
 18 17  1  0  0  0  0
 19 18  1  0  0  0  0
 20 19  1  0  0  0  0
 21 20  1  0  0  0  0
 30 22  1  0  0  0  0
 30 23  2  0  0  0  0
 29 24  2  0  0  0  0
 25 24  1  0  0  0  0
 26 25  2  0  0  0  0
 27 26  1  0  0  0  0
 28 27  2  0  0  0  0
 29 28  1  0  0  0  0
 30 29  1  0  0  0  0
M  END
>  <cdx:fragmentId>
220129

$$$$
