20298.cdx
  Mrv1902 05222410272D          

 53 58  0  0  0  0            999 V2000
    3.8187   -4.6077    0.0000 C   0  0  0  0  0  0  0  0  0  0  0  0
    3.8277   -5.4326    0.0000 C   0  0  0  0  0  0  0  0  0  0  0  0
    4.5467   -5.8373    0.0000 C   0  0  0  0  0  0  0  0  0  0  0  0
    5.2566   -5.4170    0.0000 C   0  0  0  0  0  0  0  0  0  0  0  0
    5.2476   -4.5921    0.0000 C   0  0  0  0  0  0  0  0  0  0  0  0
    4.5286   -4.1874    0.0000 C   0  0  0  0  0  0  0  0  0  0  0  0
    5.9755   -5.8217    0.0000 C   0  0  0  0  0  0  0  0  0  0  0  0
    6.6854   -5.4014    0.0000 C   0  0  0  0  0  0  0  0  0  0  0  0
    6.6764   -4.5764    0.0000 C   0  0  0  0  0  0  0  0  0  0  0  0
    5.9575   -4.1718    0.0000 O   0  0  0  0  0  0  0  0  0  0  0  0
    7.4044   -5.8060    0.0000 O   0  0  0  0  0  0  0  0  0  0  0  0
    8.1053   -4.5608    0.0000 C   0  0  0  0  0  0  0  0  0  0  0  0
    7.3863   -4.1561    0.0000 C   0  0  0  0  0  0  0  0  0  0  0  0
    8.8152   -4.1405    0.0000 C   0  0  0  0  0  0  0  0  0  0  0  0
    8.8062   -3.3156    0.0000 C   0  0  0  0  0  0  0  0  0  0  0  0
    8.0872   -2.9109    0.0000 C   0  0  0  0  0  0  0  0  0  0  0  0
    7.3773   -3.3312    0.0000 C   0  0  0  0  0  0  0  0  0  0  0  0
    5.9845   -6.6466    0.0000 O   0  0  0  0  0  0  0  0  0  0  0  0
    6.7035   -7.0513    0.0000 O   0  0  0  0  0  0  0  0  0  0  0  0
    7.4134   -6.6310    0.0000 C   0  0  2  0  0  0  0  0  0  0  0  0
    6.0235   -9.1965    0.0000 O   0  0  0  0  0  0  0  0  0  0  0  0
    6.0026   -8.2965    0.0000 C   0  0  0  0  0  0  0  0  0  0  0  0
    6.7125   -7.8762    0.0000 C   0  0  2  0  0  0  0  0  0  0  0  0
    7.4314   -8.2809    0.0000 C   0  0  1  0  0  0  0  0  0  0  0  0
    8.1414   -7.8606    0.0000 C   0  0  1  0  0  0  0  0  0  0  0  0
    8.1323   -7.0357    0.0000 C   0  0  1  0  0  0  0  0  0  0  0  0
    8.8603   -8.2653    0.0000 O   0  0  0  0  0  0  0  0  0  0  0  0
    9.5702   -7.8450    0.0000 O   0  0  0  0  0  0  0  0  0  0  0  0
    9.5612   -7.0200    0.0000 C   0  0  1  0  0  0  0  0  0  0  0  0
    8.8423   -6.6154    0.0000 O   0  0  0  0  0  0  0  0  0  0  0  0
   10.2892   -8.2496    0.0000 C   0  0  2  0  0  0  0  0  0  0  0  0
   10.9991   -7.8293    0.0000 C   0  0  1  0  0  0  0  0  0  0  0  0
   10.9900   -7.0044    0.0000 C   0  0  2  0  0  0  0  0  0  0  0  0
   10.2711   -6.5997    0.0000 C   0  0  1  0  0  0  0  0  0  0  0  0
    5.3136   -9.6168    0.0000 C   0  0  1  0  0  0  0  0  0  0  0  0
    5.3226  -10.4417    0.0000 C   0  0  2  0  0  0  0  0  0  0  0  0
    6.0416  -10.8464    0.0000 O   0  0  0  0  0  0  0  0  0  0  0  0
    4.5946   -9.2121    0.0000 O   0  0  0  0  0  0  0  0  0  0  0  0
    3.8847   -9.6324    0.0000 C   0  0  2  0  0  0  0  0  0  0  0  0
    3.8938  -10.4574    0.0000 C   0  0  1  0  0  0  0  0  0  0  0  0
    4.6127  -10.8620    0.0000 C   0  0  1  0  0  0  0  0  0  0  0  0
    3.0998   -4.2030    0.0000 O   0  0  0  0  0  0  0  0  0  0  0  0
    4.5557   -6.6623    0.0000 O   0  0  0  0  0  0  0  0  0  0  0  0
    9.5161   -2.8953    0.0000 O   0  0  0  0  0  0  0  0  0  0  0  0
    3.1658   -9.2278    0.0000 C   0  0  0  0  0  0  0  0  0  0  0  0
    4.6217  -11.6870    0.0000 O   0  0  0  0  0  0  0  0  0  0  0  0
   10.2621   -5.7748    0.0000 O   0  0  0  0  0  0  0  0  0  0  0  0
   11.7000   -6.5841    0.0000 O   0  0  0  0  0  0  0  0  0  0  0  0
   10.2982   -9.0746    0.0000 C   0  0  0  0  0  0  0  0  0  0  0  0
   11.7180   -8.2340    0.0000 O   0  0  0  0  0  0  0  0  0  0  0  0
    7.4405   -9.1058    0.0000 O   0  0  0  0  0  0  0  0  0  0  0  0
    3.1838  -10.8777    0.0000 O   0  0  0  0  0  0  0  0  0  0  0  0
    8.0782   -2.0859    0.0000 O   0  0  0  0  0  0  0  0  0  0  0  0
  1  2  2  0  0  0  0
  2  3  1  0  0  0  0
  3  4  2  0  0  0  0
  4  5  1  0  0  0  0
  5  6  2  0  0  0  0
  6  1  1  0  0  0  0
  4  7  1  0  0  0  0
  7  8  1  0  0  0  0
  8  9  2  0  0  0  0
  9 10  1  0  0  0  0
 10  5  1  0  0  0  0
  8 11  1  0  0  0  0
 12 13  2  0  0  0  0
 13  9  1  0  0  0  0
 12 14  1  0  0  0  0
 14 15  2  0  0  0  0
 15 16  1  0  0  0  0
 16 17  2  0  0  0  0
 17 13  1  0  0  0  0
  7 18  2  0  0  0  0
 19 20  1  0  0  0  0
 20 11  1  1  0  0  0
 23 22  1  1  0  0  0
 23 19  1  0  0  0  0
 23 24  1  0  0  0  0
 24 25  1  0  0  0  0
 25 26  1  0  0  0  0
 26 20  1  0  0  0  0
 25 27  1  1  0  0  0
 28 29  1  0  0  0  0
 29 30  1  1  0  0  0
 26 30  1  6  0  0  0
 28 31  1  0  0  0  0
 31 32  1  0  0  0  0
 32 33  1  0  0  0  0
 33 34  1  0  0  0  0
 34 29  1  0  0  0  0
 35 21  1  1  0  0  0
 35 36  1  0  0  0  0
 36 37  1  6  0  0  0
 35 38  1  0  0  0  0
 38 39  1  0  0  0  0
 39 40  1  0  0  0  0
 40 41  1  0  0  0  0
 41 36  1  0  0  0  0
  1 42  1  0  0  0  0
  3 43  1  0  0  0  0
 15 44  1  0  0  0  0
 39 45  1  6  0  0  0
 41 46  1  6  0  0  0
 34 47  1  6  0  0  0
 33 48  1  6  0  0  0
 31 49  1  6  0  0  0
 32 50  1  1  0  0  0
 24 51  1  1  0  0  0
 40 52  1  1  0  0  0
 16 53  1  0  0  0  0
 22 21  1  0  0  0  0
M  END
>  <cdx:fragmentId>
5

$$$$
