20291.cdx
  Mrv1902 05222410192D          

 13 13  0  0  0  0            999 V2000
    6.8318   -7.9200    0.0000 C   0  0  0  0  0  0  0  0  0  0  0  0
    6.8318   -8.7450    0.0000 C   0  0  0  0  0  0  0  0  0  0  0  0
    7.5463   -9.1575    0.0000 C   0  0  0  0  0  0  0  0  0  0  0  0
    8.2607   -8.7450    0.0000 C   0  0  0  0  0  0  0  0  0  0  0  0
    8.2607   -7.9200    0.0000 C   0  0  0  0  0  0  0  0  0  0  0  0
    7.5463   -7.5075    0.0000 C   0  0  0  0  0  0  0  0  0  0  0  0
    6.1173   -7.5075    0.0000 O   0  0  0  0  0  0  0  0  0  0  0  0
    7.5463   -6.6825    0.0000 C   0  0  0  0  0  0  0  0  0  0  0  0
    8.9752   -7.5075    0.0000 O   0  0  0  0  0  0  0  0  0  0  0  0
    7.5463   -9.9825    0.0000 O   0  0  0  0  0  0  0  0  0  0  0  0
    6.8318  -10.3950    0.0000 C   0  0  0  0  0  0  0  0  0  0  0  0
    6.8318   -6.2700    0.0000 O   0  0  0  0  0  0  0  0  0  0  0  0
    8.2607   -6.2700    0.0000 C   0  0  0  0  0  0  0  0  0  0  0  0
  1  2  2  0  0  0  0
  2  3  1  0  0  0  0
  3  4  2  0  0  0  0
  4  5  1  0  0  0  0
  5  6  2  0  0  0  0
  6  1  1  0  0  0  0
  1  7  1  0  0  0  0
  6  8  1  0  0  0  0
  5  9  1  0  0  0  0
  3 10  1  0  0  0  0
 10 11  1  0  0  0  0
  8 12  2  0  0  0  0
  8 13  1  0  0  0  0
M  END
>  <cdx:fragmentId>
5

$$$$
