20304.cdx
  Mrv1902 05222410262D          

 15 16  0  0  0  0            999 V2000
    6.1993   -4.8950    0.0000 C   0  0  0  0  0  0  0  0  0  0  0  0
    6.1993   -5.7200    0.0000 C   0  0  0  0  0  0  0  0  0  0  0  0
    6.9138   -6.1325    0.0000 C   0  0  0  0  0  0  0  0  0  0  0  0
    7.6282   -5.7200    0.0000 C   0  0  0  0  0  0  0  0  0  0  0  0
    7.6282   -4.8950    0.0000 C   0  0  0  0  0  0  0  0  0  0  0  0
    6.9138   -4.4825    0.0000 C   0  0  0  0  0  0  0  0  0  0  0  0
    8.3427   -6.1325    0.0000 C   0  0  0  0  0  0  0  0  0  0  0  0
    9.0572   -5.7200    0.0000 C   0  0  0  0  0  0  0  0  0  0  0  0
    9.0572   -4.8950    0.0000 C   0  0  0  0  0  0  0  0  0  0  0  0
    8.3427   -4.4825    0.0000 O   0  0  0  0  0  0  0  0  0  0  0  0
    5.4848   -4.4825    0.0000 O   0  0  0  0  0  0  0  0  0  0  0  0
    6.9138   -6.9575    0.0000 O   0  0  0  0  0  0  0  0  0  0  0  0
    9.7717   -4.4825    0.0000 C   0  0  0  0  0  0  0  0  0  0  0  0
    8.3427   -6.9575    0.0000 O   0  0  0  0  0  0  0  0  0  0  0  0
    6.1993   -7.3700    0.0000 C   0  0  0  0  0  0  0  0  0  0  0  0
  1  2  1  0  0  0  0
  2  3  2  0  0  0  0
  3  4  1  0  0  0  0
  4  5  2  0  0  0  0
  5  6  1  0  0  0  0
  6  1  2  0  0  0  0
  4  7  1  0  0  0  0
  7  8  1  0  0  0  0
  8  9  2  0  0  0  0
  9 10  1  0  0  0  0
 10  5  1  0  0  0  0
  1 11  1  0  0  0  0
  3 12  1  0  0  0  0
  9 13  1  0  0  0  0
  7 14  2  0  0  0  0
 12 15  1  0  0  0  0
M  END
>  <cdx:fragmentId>
5

$$$$
