20303.cdx
  Mrv1902 05222410272D          

 17 17  0  0  0  0            999 V2000
    4.0120   -8.3531    0.0000 C   0  0  0  0  0  0  0  0  0  0  0  0
    4.0120   -7.5281    0.0000 C   0  0  0  0  0  0  0  0  0  0  0  0
    3.2975   -7.1156    0.0000 O   0  0  0  0  0  0  0  0  0  0  0  0
    4.7265   -8.7656    0.0000 C   0  0  0  0  0  0  0  0  0  0  0  0
    5.4409   -8.3531    0.0000 C   0  0  0  0  0  0  0  0  0  0  0  0
    5.4409   -7.5281    0.0000 C   0  0  0  0  0  0  0  0  0  0  0  0
    4.7265   -7.1156    0.0000 C   0  0  0  0  0  0  0  0  0  0  0  0
    6.1554   -8.7656    0.0000 C   0  0  0  0  0  0  0  0  0  0  0  0
    6.8699   -8.3531    0.0000 C   0  0  0  0  0  0  0  0  0  0  0  0
    7.5844   -8.7656    0.0000 C   0  0  0  0  0  0  0  0  0  0  0  0
    8.2988   -8.3531    0.0000 O   0  0  0  0  0  0  0  0  0  0  0  0
    9.0133   -8.7656    0.0000 C   0  0  0  0  0  0  0  0  0  0  0  0
    9.7278   -8.3531    0.0000 C   0  0  0  0  0  0  0  0  0  0  0  0
    9.7278   -7.5281    0.0000 O   0  0  0  0  0  0  0  0  0  0  0  0
   10.4422   -8.7656    0.0000 C   0  0  0  0  0  0  0  0  0  0  0  0
   11.1567   -8.3531    0.0000 O   0  0  0  0  0  0  0  0  0  0  0  0
    7.5844   -9.5906    0.0000 O   0  0  0  0  0  0  0  0  0  0  0  0
  1  2  2  0  0  0  0
  2  3  1  0  0  0  0
  1  4  1  0  0  0  0
  4  5  2  0  0  0  0
  5  6  1  0  0  0  0
  6  7  2  0  0  0  0
  7  2  1  0  0  0  0
  5  8  1  0  0  0  0
  8  9  2  0  0  0  0
  9 10  1  0  0  0  0
 10 11  1  0  0  0  0
 11 12  1  0  0  0  0
 12 13  1  0  0  0  0
 13 14  1  0  0  0  0
 13 15  1  0  0  0  0
 15 16  1  0  0  0  0
 10 17  2  0  0  0  0
M  END
>  <cdx:fragmentId>
5

$$$$
