20309.cdx
  Mrv1902 05222410202D          

 11 11  0  0  0  0            999 V2000
    6.1099   -8.9306    0.0000 C   0  0  0  0  0  0  0  0  0  0  0  0
    6.1099   -9.7556    0.0000 C   0  0  0  0  0  0  0  0  0  0  0  0
    6.8244  -10.1681    0.0000 C   0  0  0  0  0  0  0  0  0  0  0  0
    7.5389   -9.7556    0.0000 C   0  0  0  0  0  0  0  0  0  0  0  0
    7.5389   -8.9306    0.0000 C   0  0  0  0  0  0  0  0  0  0  0  0
    6.8244   -8.5181    0.0000 C   0  0  0  0  0  0  0  0  0  0  0  0
    6.8244   -7.6931    0.0000 C   0  0  0  0  0  0  0  0  0  0  0  0
    7.5389   -7.2806    0.0000 C   0  0  0  0  0  0  0  0  0  0  0  0
    8.2533   -7.6931    0.0000 O   0  0  0  0  0  0  0  0  0  0  0  0
    7.5389   -6.4556    0.0000 O   0  0  0  0  0  0  0  0  0  0  0  0
    6.1099   -7.2806    0.0000 O   0  0  0  0  0  0  0  0  0  0  0  0
  1  2  2  0  0  0  0
  2  3  1  0  0  0  0
  3  4  2  0  0  0  0
  4  5  1  0  0  0  0
  5  6  2  0  0  0  0
  6  1  1  0  0  0  0
  6  7  1  0  0  0  0
  7  8  1  0  0  0  0
  8  9  1  0  0  0  0
  8 10  1  0  0  0  0
  7 11  2  0  0  0  0
M  END
>  <cdx:fragmentId>
5

$$$$
