25203017.cdx
  Mrv1902 05222410232D          

 64 65  0  0  0  0            999 V2000
   10.4240  -18.8792    0.0000 C   0  0  0  0  0  0  0  0  0  0  0  0
    9.7750  -18.3698    0.0000 C   0  0  0  0  0  0  0  0  0  0  0  0
    9.8918  -17.5531    0.0000 C   0  0  0  0  0  0  0  0  0  0  0  0
    9.2429  -17.0436    0.0000 C   0  0  0  0  0  0  0  0  0  0  0  0
    9.3596  -16.2269    0.0000 C   0  0  0  0  0  0  0  0  0  0  0  0
    8.7107  -15.7175    0.0000 C   0  0  0  0  0  0  0  0  0  0  0  0
    8.8274  -14.9008    0.0000 C   0  0  0  0  0  0  0  0  0  0  0  0
    8.1785  -14.3913    0.0000 C   0  0  0  0  0  0  0  0  0  0  0  0
    8.2953  -13.5746    0.0000 C   0  0  0  0  0  0  0  0  0  0  0  0
    7.6464  -13.0652    0.0000 C   0  0  0  0  0  0  0  0  0  0  0  0
    7.7631  -12.2485    0.0000 C   0  0  0  0  0  0  0  0  0  0  0  0
    7.1142  -11.7390    0.0000 C   0  0  0  0  0  0  0  0  0  0  0  0
    7.2309  -10.9223    0.0000 C   0  0  0  0  0  0  0  0  0  0  0  0
    6.5820  -10.4129    0.0000 C   0  0  0  0  0  0  0  0  0  0  0  0
    6.6988   -9.5962    0.0000 C   0  0  0  0  0  0  0  0  0  0  0  0
    6.0498   -9.0867    0.0000 C   0  0  0  0  0  0  0  0  0  0  0  0
    6.1666   -8.2700    0.0000 C   0  0  0  0  0  0  0  0  0  0  0  0
    5.5177   -7.7606    0.0000 C   0  0  0  0  0  0  0  0  0  0  0  0
   11.1896  -18.5720    0.0000 O   0  0  0  0  0  0  0  0  0  0  0  0
   10.3072  -19.6959    0.0000 O   0  0  0  0  0  0  0  0  0  0  0  0
   10.8394  -21.0221    0.0000 C   0  0  0  0  0  0  0  0  0  0  0  0
   10.9561  -20.2054    0.0000 C   0  0  0  0  0  0  0  0  0  0  0  0
   11.7218  -19.8981    0.0000 C   0  0  0  0  0  0  0  0  0  0  0  0
   12.3707  -20.4076    0.0000 O   0  0  0  0  0  0  0  0  0  0  0  0
   13.7853  -20.6098    0.0000 O   0  0  0  0  0  0  0  0  0  0  0  0
   13.1363  -20.1003    0.0000 C   0  0  0  0  0  0  0  0  0  0  0  0
   13.2531  -19.2836    0.0000 C   0  0  0  0  0  0  0  0  0  0  0  0
   14.0187  -18.9764    0.0000 C   0  0  0  0  0  0  0  0  0  0  0  0
   14.6676  -19.4858    0.0000 C   0  0  0  0  0  0  0  0  0  0  0  0
   14.5509  -20.3025    0.0000 C   0  0  0  0  0  0  0  0  0  0  0  0
   15.1998  -20.8120    0.0000 C   0  0  0  0  0  0  0  0  0  0  0  0
   15.0831  -21.6287    0.0000 O   0  0  0  0  0  0  0  0  0  0  0  0
   15.6152  -22.9548    0.0000 O   0  0  0  0  0  0  0  0  0  0  0  0
   15.7320  -22.1381    0.0000 C   0  0  0  0  0  0  0  0  0  0  0  0
   16.4976  -21.8309    0.0000 C   0  0  0  0  0  0  0  0  0  0  0  0
   17.1466  -22.3403    0.0000 C   0  0  0  0  0  0  0  0  0  0  0  0
   17.0298  -23.1570    0.0000 C   0  0  0  0  0  0  0  0  0  0  0  0
   16.2642  -23.4643    0.0000 C   0  0  0  0  0  0  0  0  0  0  0  0
   16.1474  -24.2810    0.0000 C   0  0  0  0  0  0  0  0  0  0  0  0
   16.7963  -24.7904    0.0000 O   0  0  0  0  0  0  0  0  0  0  0  0
   17.6787  -23.6665    0.0000 O   0  0  0  0  0  0  0  0  0  0  0  0
   17.9122  -22.0331    0.0000 O   0  0  0  0  0  0  0  0  0  0  0  0
   16.6144  -21.0142    0.0000 O   0  0  0  0  0  0  0  0  0  0  0  0
   15.4333  -19.1786    0.0000 O   0  0  0  0  0  0  0  0  0  0  0  0
   14.1355  -18.1597    0.0000 O   0  0  0  0  0  0  0  0  0  0  0  0
   12.6042  -18.7742    0.0000 O   0  0  0  0  0  0  0  0  0  0  0  0
   11.4883  -21.5315    0.0000 O   0  0  0  0  0  0  0  0  0  0  0  0
   11.3716  -22.3482    0.0000 C   0  0  0  0  0  0  0  0  0  0  0  0
   12.0205  -22.8577    0.0000 C   0  0  0  0  0  0  0  0  0  0  0  0
   11.9037  -23.6744    0.0000 C   0  0  0  0  0  0  0  0  0  0  0  0
   12.5526  -24.1838    0.0000 C   0  0  0  0  0  0  0  0  0  0  0  0
   12.4359  -25.0005    0.0000 C   0  0  0  0  0  0  0  0  0  0  0  0
   13.0848  -25.5100    0.0000 C   0  0  0  0  0  0  0  0  0  0  0  0
   12.9681  -26.3267    0.0000 C   0  0  0  0  0  0  0  0  0  0  0  0
   13.6170  -26.8361    0.0000 C   0  0  0  0  0  0  0  0  0  0  0  0
   13.5002  -27.6528    0.0000 C   0  0  0  0  0  0  0  0  0  0  0  0
   14.1492  -28.1623    0.0000 C   0  0  0  0  0  0  0  0  0  0  0  0
   14.0324  -28.9790    0.0000 C   0  0  0  0  0  0  0  0  0  0  0  0
   14.6813  -29.4884    0.0000 C   0  0  0  0  0  0  0  0  0  0  0  0
   14.5646  -30.3051    0.0000 C   0  0  0  0  0  0  0  0  0  0  0  0
   15.2135  -30.8146    0.0000 C   0  0  0  0  0  0  0  0  0  0  0  0
   15.0968  -31.6313    0.0000 C   0  0  0  0  0  0  0  0  0  0  0  0
   15.7457  -32.1407    0.0000 C   0  0  0  0  0  0  0  0  0  0  0  0
   10.6059  -22.6555    0.0000 O   0  0  0  0  0  0  0  0  0  0  0  0
  1  2  1  0  0  0  0
  2  3  1  0  0  0  0
  3  4  1  0  0  0  0
  4  5  1  0  0  0  0
  5  6  1  0  0  0  0
  6  7  1  0  0  0  0
  7  8  1  0  0  0  0
  8  9  1  0  0  0  0
  9 10  2  0  0  0  0
 10 11  1  0  0  0  0
 11 12  1  0  0  0  0
 12 13  2  0  0  0  0
 13 14  1  0  0  0  0
 14 15  1  0  0  0  0
 15 16  1  0  0  0  0
 16 17  1  0  0  0  0
 17 18  1  0  0  0  0
  1 19  2  0  0  0  0
  1 20  1  0  0  0  0
 21 22  1  0  0  0  0
 22 23  1  0  0  0  0
 25 26  1  0  0  0  0
 26 27  1  0  0  0  0
 27 28  1  0  0  0  0
 28 29  1  0  0  0  0
 29 30  1  0  0  0  0
 25 30  1  0  0  0  0
 33 34  1  0  0  0  0
 34 35  1  0  0  0  0
 35 36  1  0  0  0  0
 36 37  1  0  0  0  0
 37 38  1  0  0  0  0
 33 38  1  0  0  0  0
 39 40  1  0  0  0  0
 38 39  1  0  0  0  0
 37 41  1  0  0  0  0
 36 42  1  0  0  0  0
 35 43  1  0  0  0  0
 32 34  1  0  0  0  0
 31 32  1  0  0  0  0
 30 31  1  0  0  0  0
 29 44  1  0  0  0  0
 28 45  1  0  0  0  0
 27 46  1  0  0  0  0
 24 26  1  0  0  0  0
 23 24  1  0  0  0  0
 48 49  1  0  0  0  0
 49 50  1  0  0  0  0
 50 51  1  0  0  0  0
 51 52  1  0  0  0  0
 52 53  1  0  0  0  0
 53 54  1  0  0  0  0
 54 55  1  0  0  0  0
 55 56  1  0  0  0  0
 56 57  1  0  0  0  0
 57 58  1  0  0  0  0
 58 59  1  0  0  0  0
 59 60  1  0  0  0  0
 60 61  1  0  0  0  0
 61 62  1  0  0  0  0
 62 63  1  0  0  0  0
 48 64  2  0  0  0  0
 47 48  1  0  0  0  0
 21 47  1  0  0  0  0
 20 22  1  0  0  0  0
M  END
>  <cdx:fragmentId>
6187

$$$$
