20302.cdx
  Mrv1902 05222410272D          

 23 25  0  0  0  0            999 V2000
    6.3120   -7.5708    0.0000 O   0  0  0  0  0  0  0  0  0  0  0  0
    4.8831   -7.5679    0.0000 O   0  0  0  0  0  0  0  0  0  0  0  0
    3.4591   -5.0901    0.0000 O   0  0  0  0  0  0  0  0  0  0  0  0
    3.4558   -6.7401    0.0000 C   0  0  0  0  0  0  0  0  0  0  0  0
   11.3175   -5.5185    0.0000 C   0  0  0  0  0  0  0  0  0  0  0  0
   10.6038   -5.1045    0.0000 O   0  0  0  0  0  0  0  0  0  0  0  0
    9.1716   -6.7516    0.0000 C   0  0  0  0  0  0  0  0  0  0  0  0
    9.8869   -6.3406    0.0000 C   0  0  0  0  0  0  0  0  0  0  0  0
    9.8885   -5.5156    0.0000 C   0  0  0  0  0  0  0  0  0  0  0  0
    9.1749   -5.1016    0.0000 C   0  0  0  0  0  0  0  0  0  0  0  0
    7.7426   -6.7487    0.0000 C   0  0  0  0  0  0  0  0  0  0  0  0
    8.4579   -6.3377    0.0000 C   0  0  0  0  0  0  0  0  0  0  0  0
    8.4596   -5.5127    0.0000 C   0  0  0  0  0  0  0  0  0  0  0  0
    6.3137   -6.7458    0.0000 C   0  0  0  0  0  0  0  0  0  0  0  0
    7.0290   -6.3348    0.0000 C   0  0  1  0  0  0  0  0  0  0  0  0
    7.0307   -5.5098    0.0000 C   0  0  0  0  0  0  0  0  0  0  0  0
    6.3170   -5.0958    0.0000 O   0  0  0  0  0  0  0  0  0  0  0  0
    4.8847   -6.7430    0.0000 C   0  0  0  0  0  0  0  0  0  0  0  0
    5.6001   -6.3319    0.0000 C   0  0  0  0  0  0  0  0  0  0  0  0
    5.6017   -5.5069    0.0000 C   0  0  0  0  0  0  0  0  0  0  0  0
    4.8881   -5.0930    0.0000 C   0  0  0  0  0  0  0  0  0  0  0  0
    4.1728   -5.5040    0.0000 C   0  0  0  0  0  0  0  0  0  0  0  0
    4.1711   -6.3290    0.0000 C   0  0  0  0  0  0  0  0  0  0  0  0
 14  1  2  0  0  0  0
 18  2  1  0  0  0  0
 22  3  1  0  0  0  0
 23  4  1  0  0  0  0
  6  5  1  0  0  0  0
  9  6  1  0  0  0  0
  7 12  1  0  0  0  0
  8  7  2  0  0  0  0
  9  8  1  0  0  0  0
 10  9  2  0  0  0  0
 13 10  1  0  0  0  0
 15 11  1  1  0  0  0
 12 11  1  0  0  0  0
 13 12  2  0  0  0  0
 14 19  1  0  0  0  0
 15 14  1  0  0  0  0
 16 15  1  0  0  0  0
 17 16  1  0  0  0  0
 20 17  1  0  0  0  0
 18 23  2  0  0  0  0
 19 18  1  0  0  0  0
 20 19  2  0  0  0  0
 21 20  1  0  0  0  0
 22 21  2  0  0  0  0
 23 22  1  0  0  0  0
M  END
>  <cdx:fragmentId>
5

$$$$
