20306.cdx
  Mrv1902 05222410262D          

 25 27  0  0  0  0            999 V2000
    4.0474   -8.2706    0.0000 C   0  0  0  0  0  0  0  0  0  0  0  0
    4.0474   -7.4456    0.0000 C   0  0  0  0  0  0  0  0  0  0  0  0
    4.7619   -7.0331    0.0000 C   0  0  0  0  0  0  0  0  0  0  0  0
    5.4764   -7.4456    0.0000 C   0  0  0  0  0  0  0  0  0  0  0  0
    5.4764   -8.2706    0.0000 C   0  0  0  0  0  0  0  0  0  0  0  0
    4.7619   -8.6831    0.0000 C   0  0  0  0  0  0  0  0  0  0  0  0
    6.1908   -7.0331    0.0000 O   0  0  0  0  0  0  0  0  0  0  0  0
    6.9053   -7.4456    0.0000 C   0  0  0  0  0  0  0  0  0  0  0  0
    6.9053   -8.2706    0.0000 C   0  0  0  0  0  0  0  0  0  0  0  0
    6.1908   -8.6831    0.0000 C   0  0  0  0  0  0  0  0  0  0  0  0
    6.1908   -9.5081    0.0000 O   0  0  0  0  0  0  0  0  0  0  0  0
    4.7619   -9.5081    0.0000 O   0  0  0  0  0  0  0  0  0  0  0  0
    7.6198   -7.0331    0.0000 C   0  0  0  0  0  0  0  0  0  0  0  0
    8.3343   -7.4456    0.0000 C   0  0  0  0  0  0  0  0  0  0  0  0
    7.6198   -6.2081    0.0000 C   0  0  0  0  0  0  0  0  0  0  0  0
    8.3343   -5.7956    0.0000 C   0  0  0  0  0  0  0  0  0  0  0  0
    9.0487   -6.2081    0.0000 C   0  0  0  0  0  0  0  0  0  0  0  0
    9.0487   -7.0331    0.0000 C   0  0  0  0  0  0  0  0  0  0  0  0
    9.7632   -5.7956    0.0000 O   0  0  0  0  0  0  0  0  0  0  0  0
   10.4777   -6.2081    0.0000 C   0  0  0  0  0  0  0  0  0  0  0  0
    3.3330   -7.0331    0.0000 O   0  0  0  0  0  0  0  0  0  0  0  0
    2.6185   -7.4456    0.0000 C   0  0  0  0  0  0  0  0  0  0  0  0
    4.7619   -6.2081    0.0000 O   0  0  0  0  0  0  0  0  0  0  0  0
    4.0474   -5.7956    0.0000 C   0  0  0  0  0  0  0  0  0  0  0  0
    8.3343   -4.9706    0.0000 O   0  0  0  0  0  0  0  0  0  0  0  0
  1  2  2  0  0  0  0
  2  3  1  0  0  0  0
  3  4  2  0  0  0  0
  4  5  1  0  0  0  0
  5  6  2  0  0  0  0
  6  1  1  0  0  0  0
  4  7  1  0  0  0  0
  7  8  1  0  0  0  0
  8  9  1  0  0  0  0
  9 10  1  0  0  0  0
 10  5  1  0  0  0  0
 10 11  2  0  0  0  0
 12  6  1  0  0  0  0
  8 13  1  0  0  0  0
 13 14  1  0  0  0  0
 13 15  2  0  0  0  0
 15 16  1  0  0  0  0
 16 17  2  0  0  0  0
 17 18  1  0  0  0  0
 18 14  2  0  0  0  0
 17 19  1  0  0  0  0
 19 20  1  0  0  0  0
  2 21  1  0  0  0  0
 21 22  1  0  0  0  0
  3 23  1  0  0  0  0
 23 24  1  0  0  0  0
 16 25  1  0  0  0  0
M  END
>  <cdx:fragmentId>
5

$$$$
