20300.cdx
  Mrv1902 05222410282D          

 46 48  0  0  0  0            999 V2000
    7.5744   -4.7111    0.0000 C   0  0  0  0  0  0  0  0  0  0  0  0
    8.0535   -4.0395    0.0000 C   0  0  0  0  0  0  0  0  0  0  0  0
    8.8747   -4.1186    0.0000 C   0  0  0  0  0  0  0  0  0  0  0  0
    7.9164   -5.4618    0.0000 O   0  0  0  0  0  0  0  0  0  0  0  0
    6.7532   -4.6319    0.0000 O   0  0  0  0  0  0  0  0  0  0  0  0
    9.3539   -3.4470    0.0000 C   0  0  0  0  0  0  0  0  0  0  0  0
    9.0118   -2.6963    0.0000 C   0  0  0  0  0  0  0  0  0  0  0  0
    9.4910   -2.0247    0.0000 C   0  0  0  0  0  0  0  0  0  0  0  0
   10.3122   -2.1038    0.0000 C   0  0  0  0  0  0  0  0  0  0  0  0
   10.6542   -2.8546    0.0000 C   0  0  0  0  0  0  0  0  0  0  0  0
   10.1751   -3.5262    0.0000 C   0  0  0  0  0  0  0  0  0  0  0  0
   10.7913   -1.4322    0.0000 O   0  0  0  0  0  0  0  0  0  0  0  0
    5.8725   -6.5766    0.0000 O   0  0  0  0  0  0  0  0  0  0  0  0
    6.5358   -6.0859    0.0000 C   0  0  1  0  0  0  0  0  0  0  0  0
    6.2741   -5.3035    0.0000 C   0  0  2  0  0  0  0  0  0  0  0  0
    5.4491   -5.3107    0.0000 C   0  0  1  0  0  0  0  0  0  0  0  0
    5.2009   -6.0975    0.0000 C   0  0  1  0  0  0  0  0  0  0  0  0
    4.4185   -6.3592    0.0000 C   0  0  0  0  0  0  0  0  0  0  0  0
    3.8352   -5.7758    0.0000 O   0  0  0  0  0  0  0  0  0  0  0  0
    4.9584   -4.6474    0.0000 O   0  0  0  0  0  0  0  0  0  0  0  0
    7.3495   -5.9499    0.0000 C   0  0  0  0  0  0  0  0  0  0  0  0
    7.1191   -6.6693    0.0000 O   0  0  0  0  0  0  0  0  0  0  0  0
    7.1191   -7.4943    0.0000 C   0  0  1  0  0  0  0  0  0  0  0  0
    6.4047   -7.9068    0.0000 O   0  0  0  0  0  0  0  0  0  0  0  0
    6.4047   -8.7318    0.0000 C   0  0  1  0  0  0  0  0  0  0  0  0
    7.1191   -9.1443    0.0000 C   0  0  2  0  0  0  0  0  0  0  0  0
    7.8336   -8.7318    0.0000 C   0  0  1  0  0  0  0  0  0  0  0  0
    7.8336   -7.9068    0.0000 C   0  0  1  0  0  0  0  0  0  0  0  0
    5.6902   -9.1443    0.0000 C   0  0  0  0  0  0  0  0  0  0  0  0
    8.5481   -9.1443    0.0000 O   0  0  0  0  0  0  0  0  0  0  0  0
    8.5481   -7.4943    0.0000 O   0  0  0  0  0  0  0  0  0  0  0  0
    7.1191   -9.9693    0.0000 O   0  0  0  0  0  0  0  0  0  0  0  0
    5.6902   -9.9693    0.0000 C   0  0  0  0  0  0  0  0  0  0  0  0
    9.2625   -7.9068    0.0000 C   0  0  0  0  0  0  0  0  0  0  0  0
    9.9770   -7.4943    0.0000 C   0  0  0  0  0  0  0  0  0  0  0  0
    9.2625   -8.7318    0.0000 O   0  0  0  0  0  0  0  0  0  0  0  0
    7.8742   -6.5865    0.0000 O   0  0  0  0  0  0  0  0  0  0  0  0
    8.5481   -9.9693    0.0000 C   0  0  0  0  0  0  0  0  0  0  0  0
    7.8336  -10.3818    0.0000 O   0  0  0  0  0  0  0  0  0  0  0  0
    9.2625  -10.3818    0.0000 C   0  0  0  0  0  0  0  0  0  0  0  0
    6.4047  -10.3818    0.0000 C   0  0  0  0  0  0  0  0  0  0  0  0
    6.4047  -11.2068    0.0000 O   0  0  0  0  0  0  0  0  0  0  0  0
    4.9757   -8.7318    0.0000 O   0  0  0  0  0  0  0  0  0  0  0  0
    4.2612   -9.1443    0.0000 C   0  0  0  0  0  0  0  0  0  0  0  0
    3.5468   -8.7318    0.0000 C   0  0  0  0  0  0  0  0  0  0  0  0
    4.2612   -9.9693    0.0000 O   0  0  0  0  0  0  0  0  0  0  0  0
  1  2  1  0  0  0  0
  2  3  2  0  0  0  0
  1  4  2  0  0  0  0
  1  5  1  0  0  0  0
  6  7  1  0  0  0  0
  7  8  2  0  0  0  0
  8  9  1  0  0  0  0
  9 10  2  0  0  0  0
 10 11  1  0  0  0  0
  6 11  2  0  0  0  0
  9 12  1  0  0  0  0
  3  6  1  0  0  0  0
 13 14  1  0  0  0  0
 14 15  1  0  0  0  0
 15 16  1  0  0  0  0
 16 17  1  0  0  0  0
 13 17  1  0  0  0  0
 18 19  1  0  0  0  0
 17 18  1  6  0  0  0
 16 20  1  1  0  0  0
 15  5  1  6  0  0  0
 14 21  1  0  0  0  0
 14 22  1  6  0  0  0
 23 22  1  6  0  0  0
 23 24  1  0  0  0  0
 24 25  1  0  0  0  0
 25 26  1  0  0  0  0
 26 27  1  0  0  0  0
 27 28  1  0  0  0  0
 28 23  1  0  0  0  0
 25 29  1  1  0  0  0
 27 30  1  1  0  0  0
 28 31  1  6  0  0  0
 26 32  1  6  0  0  0
 31 34  1  0  0  0  0
 34 35  1  0  0  0  0
 34 36  2  0  0  0  0
 21 37  1  0  0  0  0
 30 38  1  0  0  0  0
 38 39  2  0  0  0  0
 38 40  1  0  0  0  0
 32 41  1  0  0  0  0
 41 33  1  0  0  0  0
 41 42  2  0  0  0  0
 29 43  1  0  0  0  0
 43 44  1  0  0  0  0
 44 45  1  0  0  0  0
 44 46  2  0  0  0  0
M  END
>  <cdx:fragmentId>
204591

$$$$
