20310.cdx
  Mrv1902 05222410262D          

 34 36  0  0  0  0            999 V2000
    6.1649   -4.1525    0.0000 C   0  0  2  0  0  0  0  0  0  0  0  0
    6.1649   -4.9775    0.0000 C   0  0  2  0  0  0  0  0  0  0  0  0
    6.8794   -5.3900    0.0000 C   0  0  2  0  0  0  0  0  0  0  0  0
    7.5939   -4.9775    0.0000 O   0  0  0  0  0  0  0  0  0  0  0  0
    7.5939   -4.1525    0.0000 C   0  0  1  0  0  0  0  0  0  0  0  0
    6.8794   -3.7400    0.0000 C   0  0  1  0  0  0  0  0  0  0  0  0
    7.2919   -6.1045    0.0000 C   0  0  0  0  0  0  0  0  0  0  0  0
    8.1169   -6.1045    0.0000 C   0  0  0  0  0  0  0  0  0  0  0  0
    8.5294   -5.3900    0.0000 C   0  0  0  0  0  0  0  0  0  0  0  0
    8.5294   -6.8189    0.0000 C   0  0  0  0  0  0  0  0  0  0  0  0
    9.3544   -6.8189    0.0000 C   0  0  0  0  0  0  0  0  0  0  0  0
    9.7669   -6.1045    0.0000 C   0  0  0  0  0  0  0  0  0  0  0  0
    9.3544   -5.3900    0.0000 C   0  0  0  0  0  0  0  0  0  0  0  0
    6.8794   -6.8189    0.0000 O   0  0  0  0  0  0  0  0  0  0  0  0
    9.7669   -4.6755    0.0000 O   0  0  0  0  0  0  0  0  0  0  0  0
   10.5919   -6.1045    0.0000 O   0  0  0  0  0  0  0  0  0  0  0  0
    9.7669   -7.5334    0.0000 O   0  0  0  0  0  0  0  0  0  0  0  0
    6.4669   -6.1045    0.0000 O   0  0  0  0  0  0  0  0  0  0  0  0
    5.4505   -3.7400    0.0000 O   0  0  0  0  0  0  0  0  0  0  0  0
    8.3083   -3.7400    0.0000 C   0  0  0  0  0  0  0  0  0  0  0  0
    5.4505   -5.3900    0.0000 O   0  0  0  0  0  0  0  0  0  0  0  0
    6.8794   -2.9150    0.0000 O   0  0  0  0  0  0  0  0  0  0  0  0
    8.3083   -2.9150    0.0000 O   0  0  0  0  0  0  0  0  0  0  0  0
    5.7524   -6.5170    0.0000 C   0  0  0  0  0  0  0  0  0  0  0  0
    5.2995   -5.8274    0.0000 O   0  0  0  0  0  0  0  0  0  0  0  0
    4.5037   -6.0452    0.0000 C   0  0  1  0  0  0  0  0  0  0  0  0
    4.4649   -6.8692    0.0000 C   0  0  2  0  0  0  0  0  0  0  0  0
    5.2366   -7.1608    0.0000 C   0  0  2  0  0  0  0  0  0  0  0  0
    3.8598   -5.5294    0.0000 C   0  0  0  0  0  0  0  0  0  0  0  0
    3.7753   -7.3222    0.0000 O   0  0  0  0  0  0  0  0  0  0  0  0
    5.4543   -7.9566    0.0000 O   0  0  0  0  0  0  0  0  0  0  0  0
    6.4669   -6.9295    0.0000 C   0  0  0  0  0  0  0  0  0  0  0  0
    3.0912   -5.8291    0.0000 O   0  0  0  0  0  0  0  0  0  0  0  0
    6.4669   -7.7545    0.0000 O   0  0  0  0  0  0  0  0  0  0  0  0
  1  2  1  0  0  0  0
  2  3  1  0  0  0  0
  3  4  1  0  0  0  0
  4  5  1  0  0  0  0
  5  6  1  0  0  0  0
  6  1  1  0  0  0  0
  3  7  1  0  0  0  0
  7  8  1  0  0  0  0
  8  9  2  0  0  0  0
  8 10  1  0  0  0  0
 10 11  2  0  0  0  0
 11 12  1  0  0  0  0
 12 13  2  0  0  0  0
 13  9  1  0  0  0  0
  7 14  2  0  0  0  0
 13 15  1  0  0  0  0
 12 16  1  0  0  0  0
 11 17  1  0  0  0  0
  3 18  1  1  0  0  0
  1 19  1  1  0  0  0
  5 20  1  1  0  0  0
  2 21  1  6  0  0  0
  6 22  1  6  0  0  0
 20 23  1  0  0  0  0
 18 24  1  0  0  0  0
 24 25  1  0  0  0  0
 25 26  1  0  0  0  0
 26 27  1  0  0  0  0
 27 28  1  0  0  0  0
 28 24  1  0  0  0  0
 26 29  1  1  0  0  0
 27 30  1  6  0  0  0
 28 31  1  1  0  0  0
 24 32  1  0  0  0  0
 29 33  1  0  0  0  0
 32 34  1  0  0  0  0
M  END
>  <cdx:fragmentId>
5

$$$$
