20318.cdx
  Mrv1902 05222410182D          

 22 23  0  0  0  0            999 V2000
    7.3441   -8.6185    0.0000 C   0  0  0  0  0  0  0  0  0  0  0  0
    6.5191   -8.6185    0.0000 C   0  0  0  0  0  0  0  0  0  0  0  0
    8.0082   -8.1304    0.0000 C   0  0  0  0  0  0  0  0  0  0  0  0
    8.2557   -7.3439    0.0000 C   0  0  0  0  0  0  0  0  0  0  0  0
    8.0027   -6.5588    0.0000 C   0  0  0  0  0  0  0  0  0  0  0  0
    7.3400   -6.0665    0.0000 C   0  0  0  0  0  0  0  0  0  0  0  0
    6.5150   -6.0665    0.0000 C   0  0  0  0  0  0  0  0  0  0  0  0
    5.8536   -6.5601    0.0000 C   0  0  0  0  0  0  0  0  0  0  0  0
    5.5992   -7.3452    0.0000 C   0  0  0  0  0  0  0  0  0  0  0  0
    5.8206   -8.1400    0.0000 C   0  0  0  0  0  0  0  0  0  0  0  0
    5.1829   -6.0798    0.0000 C   0  0  0  0  0  0  0  0  0  0  0  0
    7.6012   -9.4024    0.0000 C   0  0  0  0  0  0  0  0  0  0  0  0
    9.0806   -7.3439    0.0000 O   0  0  0  0  0  0  0  0  0  0  0  0
    9.3374   -6.5588    0.0000 C   0  0  0  0  0  0  0  0  0  0  0  0
    8.6712   -6.0723    0.0000 C   0  0  0  0  0  0  0  0  0  0  0  0
    8.6719   -5.2473    0.0000 C   0  0  0  0  0  0  0  0  0  0  0  0
   10.1226   -6.3055    0.0000 O   0  0  0  0  0  0  0  0  0  0  0  0
   10.7059   -6.8889    0.0000 C   0  0  0  0  0  0  0  0  0  0  0  0
   11.5028   -6.6754    0.0000 C   0  0  0  0  0  0  0  0  0  0  0  0
   10.4924   -7.6858    0.0000 O   0  0  0  0  0  0  0  0  0  0  0  0
    7.2295   -6.4790    0.0000 H   0  0  0  0  0  0  0  0  0  0  0  0
    6.1066   -7.9040    0.0000 H   0  0  0  0  0  0  0  0  0  0  0  0
  1  2  2  0  0  0  0
  1  3  1  0  0  0  0
  3  4  1  0  0  0  0
  4  5  2  0  0  0  0
  5  6  1  0  0  0  0
  6  7  1  0  0  0  0
  7  8  2  0  0  0  0
  8  9  1  0  0  0  0
  9 10  1  0  0  0  0
  2 10  1  0  0  0  0
  8 11  1  0  0  0  0
  1 12  1  0  0  0  0
  4 13  1  0  0  0  0
 13 14  1  0  0  0  0
 14 15  2  0  0  0  0
 15  5  1  0  0  0  0
 15 16  1  0  0  0  0
 14 17  1  0  0  0  0
 17 18  1  0  0  0  0
 18 19  1  0  0  0  0
 18 20  2  0  0  0  0
  7 21  1  0  0  0  0
  2 22  1  0  0  0  0
M  END
>  <cdx:groupId>
741

>  <cdx:fragmentId>
742

$$$$
