203170.cdx
  Mrv1902 05222410252D          

 42 46  0  0  0  0            999 V2000
    8.8076   -9.2312    0.0000 C   0  0  2  0  0  0  0  0  0  0  0  0
    8.8076  -10.0562    0.0000 C   0  0  2  0  0  0  0  0  0  0  0  0
    8.0931  -10.4687    0.0000 C   0  0  0  0  0  0  0  0  0  0  0  0
    7.3786  -10.0562    0.0000 C   0  0  0  0  0  0  0  0  0  0  0  0
    6.6642  -10.4687    0.0000 C   0  0  0  0  0  0  0  0  0  0  0  0
    5.9497  -10.0562    0.0000 C   0  0  0  0  0  0  0  0  0  0  0  0
    5.9497   -9.2312    0.0000 C   0  0  0  0  0  0  0  0  0  0  0  0
    6.6642   -8.8187    0.0000 C   0  0  0  0  0  0  0  0  0  0  0  0
    7.3786   -9.2312    0.0000 C   0  0  0  0  0  0  0  0  0  0  0  0
    8.0931   -8.8187    0.0000 O   0  0  0  0  0  0  0  0  0  0  0  0
    9.5221  -10.4687    0.0000 O   0  0  0  0  0  0  0  0  0  0  0  0
    6.6642  -11.2937    0.0000 O   0  0  0  0  0  0  0  0  0  0  0  0
    5.2352   -8.8187    0.0000 O   0  0  0  0  0  0  0  0  0  0  0  0
    6.6642   -7.9937    0.0000 C   0  0  2  0  0  0  0  0  0  0  0  0
    5.9497   -7.5812    0.0000 C   0  0  2  0  0  0  0  0  0  0  0  0
    5.2352   -7.9937    0.0000 C   0  0  0  0  0  0  0  0  0  0  0  0
    4.5208   -7.5812    0.0000 C   0  0  0  0  0  0  0  0  0  0  0  0
    3.8063   -7.9937    0.0000 C   0  0  0  0  0  0  0  0  0  0  0  0
    3.0918   -7.5812    0.0000 C   0  0  0  0  0  0  0  0  0  0  0  0
    3.0918   -6.7562    0.0000 C   0  0  0  0  0  0  0  0  0  0  0  0
    3.8063   -6.3437    0.0000 C   0  0  0  0  0  0  0  0  0  0  0  0
    4.5208   -6.7562    0.0000 C   0  0  0  0  0  0  0  0  0  0  0  0
    5.2352   -6.3437    0.0000 O   0  0  0  0  0  0  0  0  0  0  0  0
    2.3773   -6.3437    0.0000 O   0  0  0  0  0  0  0  0  0  0  0  0
    3.8063   -8.8187    0.0000 O   0  0  0  0  0  0  0  0  0  0  0  0
    5.9497   -6.7562    0.0000 O   0  0  0  0  0  0  0  0  0  0  0  0
    7.3786   -7.5812    0.0000 C   0  0  0  0  0  0  0  0  0  0  0  0
    7.3786   -6.7562    0.0000 C   0  0  0  0  0  0  0  0  0  0  0  0
    8.0931   -6.3437    0.0000 C   0  0  0  0  0  0  0  0  0  0  0  0
    8.8076   -6.7562    0.0000 C   0  0  0  0  0  0  0  0  0  0  0  0
    8.8076   -7.5812    0.0000 C   0  0  0  0  0  0  0  0  0  0  0  0
    8.0931   -7.9937    0.0000 C   0  0  0  0  0  0  0  0  0  0  0  0
    9.5221   -6.3437    0.0000 O   0  0  0  0  0  0  0  0  0  0  0  0
    8.0931   -5.5187    0.0000 O   0  0  0  0  0  0  0  0  0  0  0  0
    9.5221   -8.8187    0.0000 C   0  0  0  0  0  0  0  0  0  0  0  0
   10.2365   -9.2312    0.0000 C   0  0  0  0  0  0  0  0  0  0  0  0
   10.9510   -8.8187    0.0000 C   0  0  0  0  0  0  0  0  0  0  0  0
   10.9510   -7.9937    0.0000 C   0  0  0  0  0  0  0  0  0  0  0  0
   10.2365   -7.5812    0.0000 C   0  0  0  0  0  0  0  0  0  0  0  0
    9.5221   -7.9937    0.0000 C   0  0  0  0  0  0  0  0  0  0  0  0
   11.6655   -7.5812    0.0000 O   0  0  0  0  0  0  0  0  0  0  0  0
   11.6655   -9.2312    0.0000 O   0  0  0  0  0  0  0  0  0  0  0  0
  1  2  1  0  0  0  0
  2  3  1  0  0  0  0
  3  4  1  0  0  0  0
  4  5  1  0  0  0  0
  5  6  2  0  0  0  0
  6  7  1  0  0  0  0
  7  8  2  0  0  0  0
  8  9  1  0  0  0  0
  4  9  2  0  0  0  0
  9 10  1  0  0  0  0
  1 10  1  0  0  0  0
  2 11  1  1  0  0  0
  5 12  1  0  0  0  0
  7 13  1  0  0  0  0
 14 15  1  0  0  0  0
 15 16  1  0  0  0  0
 17 18  1  0  0  0  0
 18 19  2  0  0  0  0
 19 20  1  0  0  0  0
 20 21  2  0  0  0  0
 21 22  1  0  0  0  0
 17 22  2  0  0  0  0
 22 23  1  0  0  0  0
 20 24  1  0  0  0  0
 18 25  1  0  0  0  0
 16 17  1  0  0  0  0
 15 26  1  6  0  0  0
 27 28  1  0  0  0  0
 28 29  2  0  0  0  0
 29 30  1  0  0  0  0
 30 31  2  0  0  0  0
 31 32  1  0  0  0  0
 27 32  2  0  0  0  0
 30 33  1  0  0  0  0
 29 34  1  0  0  0  0
 14 27  1  0  0  0  0
 14  8  1  6  0  0  0
 35 36  1  0  0  0  0
 36 37  2  0  0  0  0
 37 38  1  0  0  0  0
 38 39  2  0  0  0  0
 39 40  1  0  0  0  0
 35 40  2  0  0  0  0
 38 41  1  0  0  0  0
 37 42  1  0  0  0  0
  1 35  1  6  0  0  0
M  END
>  <cdx:fragmentId>
21651

$$$$
