20319.cdx
  Mrv1902 05222410182D          

 20 21  0  0  0  0            999 V2000
    7.8262   -6.4336    0.0000 C   0  0  0  0  0  0  0  0  0  0  0  0
    8.4909   -6.9223    0.0000 C   0  0  0  0  0  0  0  0  0  0  0  0
    7.0020   -6.4335    0.0000 C   0  0  0  0  0  0  0  0  0  0  0  0
    6.3367   -6.9205    0.0000 C   0  0  0  0  0  0  0  0  0  0  0  0
    6.0755   -7.7029    0.0000 C   0  0  0  0  0  0  0  0  0  0  0  0
    6.3179   -8.4921    0.0000 C   0  0  0  0  0  0  0  0  0  0  0  0
    6.9825   -8.9808    0.0000 C   0  0  0  0  0  0  0  0  0  0  0  0
    7.8078   -8.9749    0.0000 C   0  0  0  0  0  0  0  0  0  0  0  0
    8.4778   -8.4930    0.0000 C   0  0  0  0  0  0  0  0  0  0  0  0
    8.7702   -7.7216    0.0000 C   0  0  0  0  0  0  0  0  0  0  0  0
    8.0636   -9.7592    0.0000 C   0  0  0  0  0  0  0  0  0  0  0  0
    5.6452   -8.9697    0.0000 O   0  0  0  0  0  0  0  0  0  0  0  0
    4.9555   -8.5170    0.0000 C   0  0  0  0  0  0  0  0  0  0  0  0
    5.6704   -6.4341    0.0000 C   0  0  0  0  0  0  0  0  0  0  0  0
    9.6167   -7.7029    0.0000 O   0  0  0  0  0  0  0  0  0  0  0  0
    9.8605   -6.8921    0.0000 C   0  0  0  0  0  0  0  0  0  0  0  0
    9.1648   -6.4097    0.0000 C   0  0  0  0  0  0  0  0  0  0  0  0
    9.1466   -5.5849    0.0000 C   0  0  0  0  0  0  0  0  0  0  0  0
    6.6116   -8.2439    0.0000 H   0  0  0  0  0  0  0  0  0  0  0  0
    7.7165   -6.8460    0.0000 H   0  0  0  0  0  0  0  0  0  0  0  0
  1  2  1  0  0  0  0
  1  3  1  0  0  0  0
  3  4  2  0  0  0  0
  4  5  1  0  0  0  0
  5  6  1  0  0  0  0
  6  7  1  0  0  0  0
  7  8  2  0  0  0  0
  8  9  1  0  0  0  0
  9 10  1  0  0  0  0
  2 10  2  0  0  0  0
  8 11  1  0  0  0  0
  6 12  1  0  0  0  0
 12 13  1  0  0  0  0
  4 14  1  0  0  0  0
 10 15  1  0  0  0  0
 15 16  1  0  0  0  0
 16 17  2  0  0  0  0
 17  2  1  0  0  0  0
 17 18  1  0  0  0  0
  7 19  1  0  0  0  0
  3 20  1  0  0  0  0
M  END
>  <cdx:groupId>
741

>  <cdx:fragmentId>
742

$$$$
