20313.cdx
  Mrv1902 05222410272D          

 11 10  0  0  0  0            999 V2000
    4.4938   -6.2906    0.0000 C   0  0  0  0  0  0  0  0  0  0  0  0
    5.2082   -5.8781    0.0000 C   0  0  0  0  0  0  0  0  0  0  0  0
    5.9227   -6.2906    0.0000 C   0  0  0  0  0  0  0  0  0  0  0  0
    6.6372   -5.8781    0.0000 C   0  0  0  0  0  0  0  0  0  0  0  0
    7.3517   -6.2906    0.0000 C   0  0  0  0  0  0  0  0  0  0  0  0
    8.0661   -5.8781    0.0000 C   0  0  0  0  0  0  0  0  0  0  0  0
    8.7806   -6.2906    0.0000 C   0  0  0  0  0  0  0  0  0  0  0  0
    5.2082   -5.0531    0.0000 O   0  0  0  0  0  0  0  0  0  0  0  0
    7.3517   -7.1156    0.0000 C   0  0  0  0  0  0  0  0  0  0  0  0
    8.0661   -5.0531    0.0000 C   0  0  0  0  0  0  0  0  0  0  0  0
    8.0661   -7.5281    0.0000 C   0  0  0  0  0  0  0  0  0  0  0  0
  1  2  1  0  0  0  0
  2  3  1  0  0  0  0
  3  4  2  0  0  0  0
  4  5  1  0  0  0  0
  5  6  1  0  0  0  0
  6  7  1  0  0  0  0
  2  8  2  0  0  0  0
  5  9  1  0  0  0  0
  6 10  1  0  0  0  0
  9 11  1  0  0  0  0
M  END
>  <cdx:fragmentId>
3

$$$$
