20314.cdx
  Mrv1902 05222410282D          

 36 40  0  0  0  0            999 V2000
    4.4118   -8.8126    0.0000 C   0  0  1  0  0  0  0  0  0  0  0  0
    4.4118   -9.6376    0.0000 C   0  0  1  0  0  0  0  0  0  0  0  0
    5.1263  -10.0501    0.0000 C   0  0  1  0  0  0  0  0  0  0  0  0
    5.8407   -9.6376    0.0000 C   0  0  1  0  0  0  0  0  0  0  0  0
    5.8407   -8.8126    0.0000 C   0  0  2  0  0  0  0  0  0  0  0  0
    5.1263   -8.4001    0.0000 C   0  0  0  0  0  0  0  0  0  0  0  0
    6.5552  -10.0501    0.0000 C   0  0  0  0  0  0  0  0  0  0  0  0
    7.2697   -9.6376    0.0000 C   0  0  0  0  0  0  0  0  0  0  0  0
    7.2697   -8.8126    0.0000 C   0  0  2  0  0  0  0  0  0  0  0  0
    6.5552   -8.4001    0.0000 C   0  0  2  0  0  0  0  0  0  0  0  0
    7.9842   -8.4001    0.0000 C   0  0  1  0  0  0  0  0  0  0  0  0
    7.9842   -7.5751    0.0000 C   0  0  0  0  0  0  0  0  0  0  0  0
    7.2697   -7.1626    0.0000 C   0  0  0  0  0  0  0  0  0  0  0  0
    6.5552   -7.5751    0.0000 C   0  0  0  0  0  0  0  0  0  0  0  0
    8.6986   -8.8126    0.0000 C   0  0  0  0  0  0  0  0  0  0  0  0
    9.4131   -8.4001    0.0000 C   0  0  0  0  0  0  0  0  0  0  0  0
    9.4131   -7.5751    0.0000 C   0  0  2  0  0  0  0  0  0  0  0  0
    8.6986   -7.1626    0.0000 C   0  0  1  0  0  0  0  0  0  0  0  0
   10.1276   -7.1626    0.0000 C   0  0  0  0  0  0  0  0  0  0  0  0
   10.1276   -6.3376    0.0000 C   0  0  0  0  0  0  0  0  0  0  0  0
    9.4131   -5.9251    0.0000 C   0  0  0  0  0  0  0  0  0  0  0  0
    8.6986   -6.3376    0.0000 C   0  0  0  0  0  0  0  0  0  0  0  0
    9.4131   -5.1001    0.0000 C   0  0  0  0  0  0  0  0  0  0  0  0
   10.1276   -7.9876    0.0000 C   0  0  0  0  0  0  0  0  0  0  0  0
    4.7138  -10.7646    0.0000 C   0  0  0  0  0  0  0  0  0  0  0  0
    5.8407   -7.9876    0.0000 C   0  0  0  0  0  0  0  0  0  0  0  0
    7.2697   -7.9876    0.0000 C   0  0  0  0  0  0  0  0  0  0  0  0
    3.6973  -10.0501    0.0000 O   0  0  0  0  0  0  0  0  0  0  0  0
    3.6973   -8.4001    0.0000 O   0  0  0  0  0  0  0  0  0  0  0  0
    5.5388  -10.7646    0.0000 C   0  0  0  0  0  0  0  0  0  0  0  0
    7.9842   -9.2251    0.0000 C   0  0  0  0  0  0  0  0  0  0  0  0
   10.8420   -7.5751    0.0000 O   0  0  0  0  0  0  0  0  0  0  0  0
   10.1276   -8.8126    0.0000 O   0  0  0  0  0  0  0  0  0  0  0  0
    7.9842   -6.7501    0.0000 H   0  0  0  0  0  0  0  0  0  0  0  0
    6.5552   -9.2251    0.0000 H   0  0  0  0  0  0  0  0  0  0  0  0
    5.8407  -10.4626    0.0000 H   0  0  0  0  0  0  0  0  0  0  0  0
  1  2  1  0  0  0  0
  2  3  1  0  0  0  0
  3  4  1  0  0  0  0
  4  5  1  0  0  0  0
  5  6  1  0  0  0  0
  6  1  1  0  0  0  0
  4  7  1  0  0  0  0
  7  8  1  0  0  0  0
  8  9  1  0  0  0  0
  9 10  1  0  0  0  0
 10  5  1  0  0  0  0
  9 11  1  0  0  0  0
 11 12  1  0  0  0  0
 12 13  2  0  0  0  0
 13 14  1  0  0  0  0
 14 10  1  0  0  0  0
 11 15  1  0  0  0  0
 15 16  1  0  0  0  0
 16 17  1  0  0  0  0
 17 18  1  0  0  0  0
 18 12  1  0  0  0  0
 17 19  1  0  0  0  0
 19 20  1  0  0  0  0
 20 21  1  0  0  0  0
 21 22  1  0  0  0  0
 22 18  1  0  0  0  0
 21 23  2  0  0  0  0
 17 24  1  1  0  0  0
  3 25  1  1  0  0  0
  5 26  1  1  0  0  0
  9 27  1  1  0  0  0
  2 28  1  1  0  0  0
  1 29  1  6  0  0  0
  3 30  1  6  0  0  0
 11 31  1  6  0  0  0
 24 32  1  0  0  0  0
 24 33  2  0  0  0  0
 18 34  1  1  0  0  0
 10 35  1  6  0  0  0
  4 36  1  6  0  0  0
M  END
>  <cdx:fragmentId>
5

$$$$
