20312.cdx
  Mrv1902 05222410262D          

 70 77  0  0  0  0            999 V2000
    7.4445   -6.9126    0.0000 C   0  0  0  0  0  0  0  0  0  0  0  0
    7.4519   -7.7375    0.0000 C   0  0  1  0  0  0  0  0  0  0  0  0
    8.1700   -8.1436    0.0000 C   0  0  1  0  0  0  0  0  0  0  0  0
    8.8807   -7.7248    0.0000 C   0  0  1  0  0  0  0  0  0  0  0  0
    8.8734   -6.8998    0.0000 C   0  0  2  0  0  0  0  0  0  0  0  0
    8.1553   -6.4937    0.0000 C   0  0  0  0  0  0  0  0  0  0  0  0
    9.5989   -8.1309    0.0000 C   0  0  0  0  0  0  0  0  0  0  0  0
   10.3096   -7.7120    0.0000 C   0  0  0  0  0  0  0  0  0  0  0  0
   10.3023   -6.8871    0.0000 C   0  0  2  0  0  0  0  0  0  0  0  0
    9.5842   -6.4810    0.0000 C   0  0  2  0  0  0  0  0  0  0  0  0
   11.0130   -6.4682    0.0000 C   0  0  1  0  0  0  0  0  0  0  0  0
   11.0057   -5.6433    0.0000 C   0  0  0  0  0  0  0  0  0  0  0  0
   10.2876   -5.2371    0.0000 C   0  0  0  0  0  0  0  0  0  0  0  0
    9.5768   -5.6560    0.0000 C   0  0  0  0  0  0  0  0  0  0  0  0
   11.7312   -6.8743    0.0000 C   0  0  0  0  0  0  0  0  0  0  0  0
   12.4419   -6.4555    0.0000 C   0  0  2  0  0  0  0  0  0  0  0  0
   12.4346   -5.6305    0.0000 C   0  0  2  0  0  0  0  0  0  0  0  0
   11.7164   -5.2244    0.0000 C   0  0  1  0  0  0  0  0  0  0  0  0
   13.1453   -5.2117    0.0000 C   0  0  0  0  0  0  0  0  0  0  0  0
   13.1380   -4.3867    0.0000 C   0  0  0  0  0  0  0  0  0  0  0  0
   12.4199   -3.9806    0.0000 C   0  0  0  0  0  0  0  0  0  0  0  0
   11.7091   -4.3994    0.0000 C   0  0  0  0  0  0  0  0  0  0  0  0
    5.3240   -6.5448    0.0000 C   0  0  2  0  0  0  0  0  0  0  0  0
    4.6148   -6.9662    0.0000 C   0  0  2  0  0  0  0  0  0  0  0  0
    4.6251   -7.7911    0.0000 C   0  0  1  0  0  0  0  0  0  0  0  0
    5.3447   -8.1946    0.0000 C   0  0  2  0  0  0  0  0  0  0  0  0
    6.0540   -7.7732    0.0000 C   0  0  1  0  0  0  0  0  0  0  0  0
    6.0436   -6.9483    0.0000 O   0  0  0  0  0  0  0  0  0  0  0  0
    6.7735   -8.1767    0.0000 O   0  0  0  0  0  0  0  0  0  0  0  0
    3.9159   -8.2126    0.0000 O   0  0  0  0  0  0  0  0  0  0  0  0
    5.3137   -5.7198    0.0000 C   0  0  0  0  0  0  0  0  0  0  0  0
    5.3551   -9.0196    0.0000 O   0  0  0  0  0  0  0  0  0  0  0  0
    3.8952   -6.5627    0.0000 O   0  0  0  0  0  0  0  0  0  0  0  0
    4.5941   -5.3163    0.0000 O   0  0  0  0  0  0  0  0  0  0  0  0
    7.7639   -8.8618    0.0000 C   0  0  0  0  0  0  0  0  0  0  0  0
    8.8660   -6.0749    0.0000 C   0  0  0  0  0  0  0  0  0  0  0  0
   10.2949   -6.0621    0.0000 C   0  0  0  0  0  0  0  0  0  0  0  0
   11.7238   -6.0494    0.0000 H   0  0  0  0  0  0  0  0  0  0  0  0
   13.1527   -6.0366    0.0000 C   0  0  0  0  0  0  0  0  0  0  0  0
   12.0010   -3.2698    0.0000 C   0  0  0  0  0  0  0  0  0  0  0  0
   13.8635   -5.6178    0.0000 O   0  0  0  0  0  0  0  0  0  0  0  0
   13.1600   -6.8616    0.0000 O   0  0  0  0  0  0  0  0  0  0  0  0
   12.8260   -3.2625    0.0000 C   0  0  0  0  0  0  0  0  0  0  0  0
   12.4493   -7.2804    0.0000 O   0  0  0  0  0  0  0  0  0  0  0  0
   11.0204   -7.2932    0.0000 C   0  0  0  0  0  0  0  0  0  0  0  0
    8.5888   -8.8544    0.0000 C   0  0  0  0  0  0  0  0  0  0  0  0
    8.1827   -9.5725    0.0000 O   0  0  0  0  0  0  0  0  0  0  0  0
    2.3707   -6.5003    0.0000 C   0  0  1  0  0  0  0  0  0  0  0  0
    1.6614   -6.9217    0.0000 C   0  0  1  0  0  0  0  0  0  0  0  0
    1.6718   -7.7467    0.0000 C   0  0  2  0  0  0  0  0  0  0  0  0
    2.3913   -8.1502    0.0000 C   0  0  2  0  0  0  0  0  0  0  0  0
    3.1006   -7.7287    0.0000 C   0  0  1  0  0  0  0  0  0  0  0  0
    3.0902   -6.9038    0.0000 O   0  0  0  0  0  0  0  0  0  0  0  0
    0.9418   -6.5182    0.0000 O   0  0  0  0  0  0  0  0  0  0  0  0
    2.3603   -5.6754    0.0000 C   0  0  0  0  0  0  0  0  0  0  0  0
    0.9625   -8.1681    0.0000 O   0  0  0  0  0  0  0  0  0  0  0  0
    2.4017   -8.9751    0.0000 O   0  0  0  0  0  0  0  0  0  0  0  0
    3.7165  -10.4704    0.0000 C   0  0  2  0  0  0  0  0  0  0  0  0
    4.1430  -11.1767    0.0000 C   0  0  1  0  0  0  0  0  0  0  0  0
    4.9678  -11.1605    0.0000 C   0  0  1  0  0  0  0  0  0  0  0  0
    5.3662  -10.4380    0.0000 C   0  0  2  0  0  0  0  0  0  0  0  0
    4.9398   -9.7318    0.0000 C   0  0  1  0  0  0  0  0  0  0  0  0
    4.1149   -9.7480    0.0000 O   0  0  0  0  0  0  0  0  0  0  0  0
    5.3943  -11.8667    0.0000 O   0  0  0  0  0  0  0  0  0  0  0  0
    3.7446  -11.8991    0.0000 O   0  0  0  0  0  0  0  0  0  0  0  0
    2.8917  -10.4867    0.0000 C   0  0  0  0  0  0  0  0  0  0  0  0
    6.1911  -10.4218    0.0000 O   0  0  0  0  0  0  0  0  0  0  0  0
    2.4933  -11.2091    0.0000 O   0  0  0  0  0  0  0  0  0  0  0  0
    8.8881   -8.5498    0.0000 H   0  0  0  0  0  0  0  0  0  0  0  0
    9.5915   -7.3059    0.0000 H   0  0  0  0  0  0  0  0  0  0  0  0
  1  2  1  0  0  0  0
  2  3  1  0  0  0  0
  3  4  1  0  0  0  0
  4  5  1  0  0  0  0
  5  6  1  0  0  0  0
  6  1  1  0  0  0  0
  4  7  1  0  0  0  0
  7  8  1  0  0  0  0
  8  9  1  0  0  0  0
  9 10  1  0  0  0  0
 10  5  1  0  0  0  0
  9 11  1  0  0  0  0
 11 12  1  0  0  0  0
 12 13  2  0  0  0  0
 13 14  1  0  0  0  0
 14 10  1  0  0  0  0
 11 15  1  0  0  0  0
 15 16  1  0  0  0  0
 16 17  1  0  0  0  0
 17 18  1  0  0  0  0
 18 12  1  0  0  0  0
 17 19  1  0  0  0  0
 19 20  1  0  0  0  0
 20 21  1  0  0  0  0
 21 22  1  0  0  0  0
 22 18  1  0  0  0  0
 23 24  1  0  0  0  0
 24 25  1  0  0  0  0
 25 26  1  0  0  0  0
 26 27  1  0  0  0  0
 27 28  1  0  0  0  0
 28 23  1  0  0  0  0
 27 29  1  1  0  0  0
 25 30  1  1  0  0  0
 23 31  1  1  0  0  0
 26 32  1  6  0  0  0
 24 33  1  6  0  0  0
 31 34  1  0  0  0  0
  3 35  1  1  0  0  0
  5 36  1  1  0  0  0
  9 37  1  1  0  0  0
 18 38  1  1  0  0  0
 17 39  1  1  0  0  0
 21 40  1  0  0  0  0
 39 41  2  0  0  0  0
 39 42  1  0  0  0  0
 21 43  1  0  0  0  0
 16 44  1  6  0  0  0
 11 45  1  6  0  0  0
  3 46  1  6  0  0  0
 46 47  2  0  0  0  0
  2 29  1  1  0  0  0
 48 49  1  0  0  0  0
 49 50  1  0  0  0  0
 50 51  1  0  0  0  0
 51 52  1  0  0  0  0
 52 53  1  0  0  0  0
 53 48  1  0  0  0  0
 49 54  1  1  0  0  0
 48 55  1  6  0  0  0
 50 56  1  6  0  0  0
 51 57  1  6  0  0  0
 52 30  1  1  0  0  0
 58 59  1  0  0  0  0
 59 60  1  0  0  0  0
 60 61  1  0  0  0  0
 61 62  1  0  0  0  0
 62 63  1  0  0  0  0
 63 58  1  0  0  0  0
 60 64  1  1  0  0  0
 59 65  1  1  0  0  0
 58 66  1  1  0  0  0
 61 67  1  6  0  0  0
 66 68  1  0  0  0  0
 62 32  1  1  0  0  0
  4 69  1  6  0  0  0
 10 70  1  6  0  0  0
M  END
>  <cdx:fragmentId>
5

$$$$
