20311.cdx
  Mrv1902 05222410262D          

 10 11  0  0  0  0            999 V2000
    6.8066   -4.2996    0.0000 C   0  0  0  0  0  0  0  0  0  0  0  0
    6.5524   -5.0845    0.0000 C   0  0  0  0  0  0  0  0  0  0  0  0
    7.2203   -5.5688    0.0000 C   0  0  0  0  0  0  0  0  0  0  0  0
    7.8873   -5.0832    0.0000 O   0  0  0  0  0  0  0  0  0  0  0  0
    7.6316   -4.2988    0.0000 C   0  0  0  0  0  0  0  0  0  0  0  0
    6.5520   -6.0525    0.0000 C   0  0  0  0  0  0  0  0  0  0  0  0
    6.8056   -6.8376    0.0000 C   0  0  0  0  0  0  0  0  0  0  0  0
    7.6306   -6.8376    0.0000 C   0  0  0  0  0  0  0  0  0  0  0  0
    7.8869   -6.0525    0.0000 C   0  0  0  0  0  0  0  0  0  0  0  0
    5.7680   -5.3402    0.0000 O   0  0  0  0  0  0  0  0  0  0  0  0
  1  2  1  0  0  0  0
  2  3  1  0  0  0  0
  3  4  1  0  0  0  0
  4  5  1  0  0  0  0
  5  1  1  0  0  0  0
  3  6  1  0  0  0  0
  6  7  1  0  0  0  0
  7  8  1  0  0  0  0
  8  9  1  0  0  0  0
  9  3  1  0  0  0  0
  2 10  2  0  0  0  0
M  END
>  <cdx:fragmentId>
5

$$$$
