20317.cdx
  Mrv1902 05222410272D          

 36 40  0  0  0  0            999 V2000
    4.1299   -8.3531    0.0000 C   0  0  1  0  0  0  0  0  0  0  0  0
    4.1299   -9.1781    0.0000 C   0  0  1  0  0  0  0  0  0  0  0  0
    4.8444   -9.5906    0.0000 C   0  0  0  0  0  0  0  0  0  0  0  0
    5.5589   -9.1781    0.0000 C   0  0  1  0  0  0  0  0  0  0  0  0
    5.5589   -8.3531    0.0000 C   0  0  2  0  0  0  0  0  0  0  0  0
    4.8444   -7.9406    0.0000 C   0  0  0  0  0  0  0  0  0  0  0  0
    6.2733   -9.5906    0.0000 C   0  0  0  0  0  0  0  0  0  0  0  0
    6.9878   -9.1781    0.0000 C   0  0  0  0  0  0  0  0  0  0  0  0
    6.9878   -8.3531    0.0000 C   0  0  2  0  0  0  0  0  0  0  0  0
    6.2733   -7.9406    0.0000 C   0  0  2  0  0  0  0  0  0  0  0  0
    7.7023   -7.9406    0.0000 C   0  0  1  0  0  0  0  0  0  0  0  0
    7.7023   -7.1156    0.0000 C   0  0  2  0  0  0  0  0  0  0  0  0
    6.9878   -6.7031    0.0000 C   0  0  0  0  0  0  0  0  0  0  0  0
    6.2733   -7.1156    0.0000 C   0  0  0  0  0  0  0  0  0  0  0  0
    8.4168   -8.3531    0.0000 C   0  0  0  0  0  0  0  0  0  0  0  0
    9.1312   -7.9406    0.0000 C   0  0  0  0  0  0  0  0  0  0  0  0
    9.1312   -7.1156    0.0000 C   0  0  2  0  0  0  0  0  0  0  0  0
    8.4168   -6.7031    0.0000 C   0  0  2  0  0  0  0  0  0  0  0  0
    9.7443   -6.5636    0.0000 C   0  0  0  0  0  0  0  0  0  0  0  0
    9.4088   -5.8099    0.0000 C   0  0  0  0  0  0  0  0  0  0  0  0
    8.5883   -5.8962    0.0000 C   0  0  1  0  0  0  0  0  0  0  0  0
    4.4319  -10.3051    0.0000 C   0  0  0  0  0  0  0  0  0  0  0  0
    5.2569  -10.3051    0.0000 C   0  0  0  0  0  0  0  0  0  0  0  0
    8.0362   -5.2831    0.0000 C   0  0  0  0  0  0  0  0  0  0  0  0
    7.2394   -5.4966    0.0000 C   0  0  0  0  0  0  0  0  0  0  0  0
    8.2498   -4.4862    0.0000 C   0  0  0  0  0  0  0  0  0  0  0  0
    3.4155   -9.5906    0.0000 O   0  0  0  0  0  0  0  0  0  0  0  0
    5.5589   -7.5281    0.0000 C   0  0  0  0  0  0  0  0  0  0  0  0
    7.4003   -9.0676    0.0000 C   0  0  0  0  0  0  0  0  0  0  0  0
    9.8849   -7.4512    0.0000 C   0  0  0  0  0  0  0  0  0  0  0  0
    7.7023   -6.6825    0.0000 H   0  0  0  0  0  0  0  0  0  0  0  0
    3.4155   -7.9406    0.0000 O   0  0  0  0  0  0  0  0  0  0  0  0
    5.5589   -9.7350    0.0000 H   0  0  0  0  0  0  0  0  0  0  0  0
    6.5959   -7.7344    0.0000 H   0  0  0  0  0  0  0  0  0  0  0  0
    8.1148   -8.6551    0.0000 C   0  0  0  0  0  0  0  0  0  0  0  0
    8.1207   -6.5250    0.0000 H   0  0  0  0  0  0  0  0  0  0  0  0
  1  2  1  0  0  0  0
  2  3  1  0  0  0  0
  3  4  1  0  0  0  0
  4  5  1  0  0  0  0
  5  6  1  0  0  0  0
  6  1  1  0  0  0  0
  4  7  1  0  0  0  0
  7  8  1  0  0  0  0
  8  9  1  0  0  0  0
  9 10  1  0  0  0  0
 10  5  1  0  0  0  0
  9 11  1  0  0  0  0
 11 12  1  0  0  0  0
 12 13  1  0  0  0  0
 13 14  1  0  0  0  0
 14 10  1  0  0  0  0
 11 15  1  0  0  0  0
 15 16  1  0  0  0  0
 16 17  1  0  0  0  0
 17 18  1  0  0  0  0
 18 12  1  0  0  0  0
 17 19  1  0  0  0  0
 19 20  1  0  0  0  0
 20 21  1  0  0  0  0
 21 18  1  0  0  0  0
  3 22  1  0  0  0  0
  3 23  1  0  0  0  0
 21 24  1  6  0  0  0
 24 25  2  0  0  0  0
 24 26  1  0  0  0  0
  2 27  1  1  0  0  0
  5 28  1  1  0  0  0
  9 29  1  1  0  0  0
 17 30  1  1  0  0  0
 12 31  1  1  0  0  0
  1 32  1  6  0  0  0
  4 33  1  6  0  0  0
 10 34  1  6  0  0  0
 11 35  1  6  0  0  0
 18 36  1  6  0  0  0
M  END
>  <cdx:fragmentId>
5

$$$$
