20316.cdx
  Mrv1902 05222410272D          

 20 22  0  0  0  0            999 V2000
    6.8542   -6.9893    0.0000 H   0  0  0  0  0  0  0  0  0  0  0  0
    7.3958   -6.7020    0.0000 H   0  0  0  0  0  0  0  0  0  0  0  0
    7.2420   -9.3319    0.0000 H   0  0  0  0  0  0  0  0  0  0  0  0
    9.4482   -8.0575    0.0000 C   0  0  0  0  0  0  0  0  0  0  0  0
    6.2929   -9.5688    0.0000 C   0  0  0  0  0  0  0  0  0  0  0  0
    7.2665   -6.0354    0.0000 C   0  0  0  0  0  0  0  0  0  0  0  0
    5.2110   -8.1368    0.0000 O   0  0  0  0  0  0  0  0  0  0  0  0
    9.4327   -7.2326    0.0000 C   0  0  0  0  0  0  0  0  0  0  0  0
    9.4173   -6.4077    0.0000 C   0  0  0  0  0  0  0  0  0  0  0  0
    8.6952   -6.0087    0.0000 C   0  0  0  0  0  0  0  0  0  0  0  0
    7.9886   -6.4345    0.0000 C   0  0  0  0  0  0  0  0  0  0  0  0
    7.2974   -7.6851    0.0000 C   0  0  2  0  0  0  0  0  0  0  0  0
    8.0040   -7.2593    0.0000 C   0  0  2  0  0  0  0  0  0  0  0  0
    8.7261   -7.6584    0.0000 C   0  0  2  0  0  0  0  0  0  0  0  0
    8.7415   -8.4833    0.0000 C   0  0  0  0  0  0  0  0  0  0  0  0
    8.0349   -8.9091    0.0000 C   0  0  0  0  0  0  0  0  0  0  0  0
    7.3128   -8.5100    0.0000 C   0  0  1  0  0  0  0  0  0  0  0  0
    6.5331   -8.7796    0.0000 C   0  0  0  0  0  0  0  0  0  0  0  0
    6.0358   -8.1213    0.0000 C   0  0  0  0  0  0  0  0  0  0  0  0
    6.5082   -7.4449    0.0000 O   0  0  0  0  0  0  0  0  0  0  0  0
 12  1  1  1  0  0  0
 13  2  1  6  0  0  0
 17  3  1  6  0  0  0
 14  4  1  1  0  0  0
 18  5  2  0  0  0  0
 11  6  1  0  0  0  0
 19  7  2  0  0  0  0
 11 13  1  0  0  0  0
  8 14  1  0  0  0  0
  9  8  1  0  0  0  0
 10  9  1  0  0  0  0
 11 10  2  0  0  0  0
 20 12  1  0  0  0  0
 17 12  1  0  0  0  0
 13 12  1  0  0  0  0
 14 13  1  0  0  0  0
 15 14  1  0  0  0  0
 16 15  1  0  0  0  0
 17 16  1  0  0  0  0
 18 17  1  0  0  0  0
 19 18  1  0  0  0  0
 20 19  1  0  0  0  0
M  END
>  <cdx:fragmentId>
78

$$$$
