20328.cdx
  Mrv1902 05222410282D          

 45 48  0  0  0  0            999 V2000
    4.9756  -11.9625    0.0000 C   0  0  1  0  0  0  0  0  0  0  0  0
    4.9756  -12.7875    0.0000 C   0  0  1  0  0  0  0  0  0  0  0  0
    5.6900  -13.2000    0.0000 C   0  0  2  0  0  0  0  0  0  0  0  0
    6.4045  -12.7875    0.0000 C   0  0  2  0  0  0  0  0  0  0  0  0
    6.4045  -11.9625    0.0000 C   0  0  1  0  0  0  0  0  0  0  0  0
    5.6900  -11.5500    0.0000 O   0  0  0  0  0  0  0  0  0  0  0  0
    7.1190  -11.5500    0.0000 O   0  0  0  0  0  0  0  0  0  0  0  0
    7.1190  -10.7250    0.0000 C   0  0  1  0  0  0  0  0  0  0  0  0
    6.4045  -10.3125    0.0000 C   0  0  2  0  0  0  0  0  0  0  0  0
    5.6900  -10.7250    0.0000 O   0  0  0  0  0  0  0  0  0  0  0  0
    7.8334  -10.3125    0.0000 C   0  0  2  0  0  0  0  0  0  0  0  0
    7.8334   -9.4875    0.0000 C   0  0  1  0  0  0  0  0  0  0  0  0
    7.1190   -9.0750    0.0000 O   0  0  0  0  0  0  0  0  0  0  0  0
    6.4045   -9.4875    0.0000 C   0  0  2  0  0  0  0  0  0  0  0  0
    5.6900   -9.0750    0.0000 C   0  0  0  0  0  0  0  0  0  0  0  0
    8.5479  -10.7250    0.0000 O   0  0  0  0  0  0  0  0  0  0  0  0
    8.5479   -9.0750    0.0000 O   0  0  0  0  0  0  0  0  0  0  0  0
    9.9769   -8.2500    0.0000 O   0  0  0  0  0  0  0  0  0  0  0  0
    9.2624   -7.8375    0.0000 C   0  0  0  0  0  0  0  0  0  0  0  0
    8.5479   -8.2500    0.0000 C   0  0  0  0  0  0  0  0  0  0  0  0
    9.2624   -7.0125    0.0000 C   0  0  0  0  0  0  0  0  0  0  0  0
    8.5479   -6.6000    0.0000 C   0  0  0  0  0  0  0  0  0  0  0  0
    9.9769   -6.6000    0.0000 C   0  0  0  0  0  0  0  0  0  0  0  0
    9.9769   -5.7750    0.0000 C   0  0  0  0  0  0  0  0  0  0  0  0
    9.2624   -5.3625    0.0000 C   0  0  0  0  0  0  0  0  0  0  0  0
    8.5479   -5.7750    0.0000 C   0  0  0  0  0  0  0  0  0  0  0  0
    5.6900   -8.2500    0.0000 O   0  0  0  0  0  0  0  0  0  0  0  0
    4.9756   -7.8375    0.0000 C   0  0  0  0  0  0  0  0  0  0  0  0
    4.2611   -8.2500    0.0000 O   0  0  0  0  0  0  0  0  0  0  0  0
    4.9756   -7.0125    0.0000 C   0  0  0  0  0  0  0  0  0  0  0  0
    4.2611   -6.6000    0.0000 C   0  0  0  0  0  0  0  0  0  0  0  0
    4.9756   -5.3625    0.0000 C   0  0  0  0  0  0  0  0  0  0  0  0
    4.2611   -5.7750    0.0000 C   0  0  0  0  0  0  0  0  0  0  0  0
    4.9756   -4.5375    0.0000 C   0  0  0  0  0  0  0  0  0  0  0  0
    4.2611   -4.1250    0.0000 C   0  0  0  0  0  0  0  0  0  0  0  0
    3.5466   -4.5375    0.0000 C   0  0  0  0  0  0  0  0  0  0  0  0
    3.5466   -5.3625    0.0000 C   0  0  0  0  0  0  0  0  0  0  0  0
    9.2624   -4.5375    0.0000 O   0  0  0  0  0  0  0  0  0  0  0  0
   10.6913   -5.3625    0.0000 O   0  0  0  0  0  0  0  0  0  0  0  0
    4.2611   -3.3000    0.0000 O   0  0  0  0  0  0  0  0  0  0  0  0
    5.6900   -4.1250    0.0000 O   0  0  0  0  0  0  0  0  0  0  0  0
    4.2611  -13.2000    0.0000 O   0  0  0  0  0  0  0  0  0  0  0  0
    4.2611  -11.5500    0.0000 C   0  0  0  0  0  0  0  0  0  0  0  0
    5.6900  -14.0250    0.0000 O   0  0  0  0  0  0  0  0  0  0  0  0
    7.1190  -13.2000    0.0000 O   0  0  0  0  0  0  0  0  0  0  0  0
  1  2  1  0  0  0  0
  2  3  1  0  0  0  0
  3  4  1  0  0  0  0
  4  5  1  0  0  0  0
  5  6  1  0  0  0  0
  6  1  1  0  0  0  0
  5  7  1  1  0  0  0
  8  7  1  1  0  0  0
  8  9  1  0  0  0  0
  9 10  1  6  0  0  0
  8 11  1  0  0  0  0
 11 12  1  0  0  0  0
 12 13  1  0  0  0  0
 13 14  1  0  0  0  0
 14  9  1  0  0  0  0
 14 15  1  1  0  0  0
 11 16  1  6  0  0  0
 12 17  1  1  0  0  0
 18 19  1  0  0  0  0
 19 20  1  0  0  0  0
 20 17  1  0  0  0  0
 19 21  1  0  0  0  0
 21 22  1  0  0  0  0
 21 23  2  0  0  0  0
 23 24  1  0  0  0  0
 24 25  2  0  0  0  0
 25 26  1  0  0  0  0
 26 22  2  0  0  0  0
 15 27  1  0  0  0  0
 27 28  1  0  0  0  0
 28 29  2  0  0  0  0
 28 30  1  0  0  0  0
 30 31  2  0  0  0  0
 32 33  2  0  0  0  0
 33 31  1  0  0  0  0
 32 34  1  0  0  0  0
 34 35  2  0  0  0  0
 35 36  1  0  0  0  0
 36 37  2  0  0  0  0
 37 33  1  0  0  0  0
 25 38  1  0  0  0  0
 24 39  1  0  0  0  0
 35 40  1  0  0  0  0
 34 41  1  0  0  0  0
  2 42  1  1  0  0  0
  1 43  1  6  0  0  0
  3 44  1  6  0  0  0
  4 45  1  6  0  0  0
M  END
>  <cdx:fragmentId>
5

$$$$
