20326.cdx
  Mrv1902 05222410192D          

 53 57  0  0  0  0            999 V2000
    5.4095   -8.4647    0.0000 C   0  0  0  0  0  0  0  0  0  0  0  0
    4.6950   -8.8772    0.0000 C   0  0  0  0  0  0  0  0  0  0  0  0
    3.9805   -8.4647    0.0000 C   0  0  0  0  0  0  0  0  0  0  0  0
    5.4095   -7.6397    0.0000 O   0  0  0  0  0  0  0  0  0  0  0  0
    6.1239   -8.8772    0.0000 O   0  0  0  0  0  0  0  0  0  0  0  0
    3.2661   -8.8772    0.0000 C   0  0  0  0  0  0  0  0  0  0  0  0
    2.5516   -8.4647    0.0000 C   0  0  0  0  0  0  0  0  0  0  0  0
    1.8371   -8.8772    0.0000 C   0  0  0  0  0  0  0  0  0  0  0  0
    1.8371   -9.7022    0.0000 C   0  0  0  0  0  0  0  0  0  0  0  0
    2.5516  -10.1147    0.0000 C   0  0  0  0  0  0  0  0  0  0  0  0
    3.2661   -9.7022    0.0000 C   0  0  0  0  0  0  0  0  0  0  0  0
    1.1226  -10.1147    0.0000 O   0  0  0  0  0  0  0  0  0  0  0  0
    1.1226   -8.4647    0.0000 O   0  0  0  0  0  0  0  0  0  0  0  0
    7.5529   -7.2272    0.0000 O   0  0  0  0  0  0  0  0  0  0  0  0
    6.8384   -7.6397    0.0000 C   0  0  1  0  0  0  0  0  0  0  0  0
    6.8384   -8.4647    0.0000 C   0  0  2  0  0  0  0  0  0  0  0  0
    7.5529   -8.8772    0.0000 C   0  0  1  0  0  0  0  0  0  0  0  0
    8.2674   -8.4647    0.0000 C   0  0  2  0  0  0  0  0  0  0  0  0
    8.2674   -7.6397    0.0000 C   0  0  2  0  0  0  0  0  0  0  0  0
    6.1239   -7.2272    0.0000 C   0  0  0  0  0  0  0  0  0  0  0  0
    6.1239   -6.4022    0.0000 O   0  0  0  0  0  0  0  0  0  0  0  0
    7.3602   -5.6857    0.0000 O   0  0  0  0  0  0  0  0  0  0  0  0
    6.5352   -5.6871    0.0000 C   0  0  2  0  0  0  0  0  0  0  0  0
    6.1216   -4.9733    0.0000 C   0  0  1  0  0  0  0  0  0  0  0  0
    6.5329   -4.2581    0.0000 C   0  0  2  0  0  0  0  0  0  0  0  0
    7.3579   -4.2567    0.0000 C   0  0  2  0  0  0  0  0  0  0  0  0
    7.7715   -4.9705    0.0000 C   0  0  0  0  0  0  0  0  0  0  0  0
    7.7692   -3.5416    0.0000 O   0  0  0  0  0  0  0  0  0  0  0  0
    6.1192   -3.5443    0.0000 O   0  0  0  0  0  0  0  0  0  0  0  0
    5.2966   -4.9747    0.0000 O   0  0  0  0  0  0  0  0  0  0  0  0
    7.5529   -9.7022    0.0000 O   0  0  0  0  0  0  0  0  0  0  0  0
    6.1239   -9.7022    0.0000 O   0  0  0  0  0  0  0  0  0  0  0  0
    6.8384  -10.1147    0.0000 C   0  0  2  0  0  0  0  0  0  0  0  0
    6.8384  -10.9397    0.0000 C   0  0  1  0  0  0  0  0  0  0  0  0
    6.1239  -11.3522    0.0000 C   0  0  1  0  0  0  0  0  0  0  0  0
    5.4095  -10.9397    0.0000 C   0  0  2  0  0  0  0  0  0  0  0  0
    5.4095  -10.1147    0.0000 C   0  0  2  0  0  0  0  0  0  0  0  0
    4.6950   -9.7022    0.0000 C   0  0  0  0  0  0  0  0  0  0  0  0
    4.6950  -11.3522    0.0000 O   0  0  0  0  0  0  0  0  0  0  0  0
    6.1239  -12.1772    0.0000 O   0  0  0  0  0  0  0  0  0  0  0  0
    7.5529  -11.3522    0.0000 O   0  0  0  0  0  0  0  0  0  0  0  0
    8.9818   -8.8772    0.0000 O   0  0  0  0  0  0  0  0  0  0  0  0
    8.9818   -7.2272    0.0000 O   0  0  0  0  0  0  0  0  0  0  0  0
    9.6963   -7.6397    0.0000 C   0  0  0  0  0  0  0  0  0  0  0  0
   10.4108   -7.2272    0.0000 C   0  0  0  0  0  0  0  0  0  0  0  0
   11.1252   -7.6397    0.0000 C   0  0  0  0  0  0  0  0  0  0  0  0
   11.8397   -7.2272    0.0000 C   0  0  0  0  0  0  0  0  0  0  0  0
   12.5542   -7.6397    0.0000 C   0  0  0  0  0  0  0  0  0  0  0  0
   12.5542   -8.4647    0.0000 C   0  0  0  0  0  0  0  0  0  0  0  0
   11.8397   -8.8772    0.0000 C   0  0  0  0  0  0  0  0  0  0  0  0
   11.1252   -8.4647    0.0000 C   0  0  0  0  0  0  0  0  0  0  0  0
   13.2687   -8.8772    0.0000 O   0  0  0  0  0  0  0  0  0  0  0  0
   13.2687   -7.2272    0.0000 O   0  0  0  0  0  0  0  0  0  0  0  0
  1  2  1  0  0  0  0
  2  3  2  0  0  0  0
  1  4  2  0  0  0  0
  1  5  1  0  0  0  0
  6  7  1  0  0  0  0
  7  8  2  0  0  0  0
  8  9  1  0  0  0  0
  9 10  2  0  0  0  0
 10 11  1  0  0  0  0
  6 11  2  0  0  0  0
  9 12  1  0  0  0  0
  8 13  1  0  0  0  0
  3  6  1  0  0  0  0
 14 15  1  0  0  0  0
 15 16  1  0  0  0  0
 16 17  1  0  0  0  0
 17 18  1  0  0  0  0
 18 19  1  0  0  0  0
 14 19  1  0  0  0  0
 22 23  1  0  0  0  0
 23 24  1  0  0  0  0
 24 25  1  0  0  0  0
 25 26  1  0  0  0  0
 26 27  1  0  0  0  0
 22 27  1  0  0  0  0
 26 28  1  1  0  0  0
 25 29  1  1  0  0  0
 24 30  1  6  0  0  0
 23 21  1  1  0  0  0
 20 21  1  0  0  0  0
 15 20  1  1  0  0  0
 32 33  1  0  0  0  0
 33 34  1  0  0  0  0
 34 35  1  0  0  0  0
 35 36  1  0  0  0  0
 36 37  1  0  0  0  0
 32 37  1  0  0  0  0
 37 38  1  6  0  0  0
 36 39  1  1  0  0  0
 35 40  1  6  0  0  0
 34 41  1  6  0  0  0
 33 31  1  1  0  0  0
 17 31  1  1  0  0  0
 18 42  1  6  0  0  0
 44 45  1  0  0  0  0
 43 44  1  0  0  0  0
 46 47  1  0  0  0  0
 47 48  2  0  0  0  0
 48 49  1  0  0  0  0
 49 50  2  0  0  0  0
 50 51  1  0  0  0  0
 46 51  2  0  0  0  0
 49 52  1  0  0  0  0
 48 53  1  0  0  0  0
 45 46  1  0  0  0  0
 19 43  1  1  0  0  0
 16  5  1  6  0  0  0
M  END
>  <cdx:fragmentId>
47

$$$$
