20321.cdx
  Mrv1902 05222410202D          

 16 18  0  0  0  0            999 V2000
    9.3061   -8.4921    0.0000 C   0  0  0  0  0  0  0  0  0  0  0  0
    6.8376   -5.8025    0.0000 C   0  0  0  0  0  0  0  0  0  0  0  0
    6.1231   -8.6900    0.0000 C   0  0  0  0  0  0  0  0  0  0  0  0
    9.0512   -7.7074    0.0000 C   0  0  0  0  0  0  0  0  0  0  0  0
    9.5361   -7.0400    0.0000 C   0  0  0  0  0  0  0  0  0  0  0  0
    9.0512   -6.3726    0.0000 O   0  0  0  0  0  0  0  0  0  0  0  0
    7.5521   -7.8650    0.0000 C   0  0  0  0  0  0  0  0  0  0  0  0
    8.2666   -7.4525    0.0000 C   0  0  0  0  0  0  0  0  0  0  0  0
    8.2666   -6.6275    0.0000 C   0  0  0  0  0  0  0  0  0  0  0  0
    7.5521   -6.2150    0.0000 C   0  0  0  0  0  0  0  0  0  0  0  0
    6.1231   -7.8650    0.0000 C   0  0  0  0  0  0  0  0  0  0  0  0
    6.8376   -7.4525    0.0000 C   0  0  0  0  0  0  0  0  0  0  0  0
    6.8376   -6.6275    0.0000 C   0  0  0  0  0  0  0  0  0  0  0  0
    6.1231   -6.2150    0.0000 C   0  0  0  0  0  0  0  0  0  0  0  0
    5.4087   -6.6275    0.0000 C   0  0  0  0  0  0  0  0  0  0  0  0
    5.4087   -7.4525    0.0000 C   0  0  0  0  0  0  0  0  0  0  0  0
  4  1  1  0  0  0  0
 13  2  1  0  0  0  0
 11  3  1  0  0  0  0
  4  8  1  0  0  0  0
  5  4  2  0  0  0  0
  6  5  1  0  0  0  0
  9  6  1  0  0  0  0
  7 12  1  0  0  0  0
  8  7  1  0  0  0  0
  9  8  2  0  0  0  0
 10  9  1  0  0  0  0
 13 10  1  0  0  0  0
 11 16  1  0  0  0  0
 12 11  2  0  0  0  0
 13 12  1  0  0  0  0
 14 13  1  0  0  0  0
 15 14  2  0  0  0  0
 16 15  1  0  0  0  0
M  END
>  <cdx:fragmentId>
5

$$$$
