20324.cdx
  Mrv1902 05222410182D          

 26 29  0  0  0  0            999 V2000
    4.0268   -8.1469    0.0000 C   0  0  0  0  0  0  0  0  0  0  0  0
    4.0268   -8.9719    0.0000 C   0  0  0  0  0  0  0  0  0  0  0  0
    4.7413   -9.3844    0.0000 C   0  0  0  0  0  0  0  0  0  0  0  0
    5.4557   -8.9719    0.0000 C   0  0  1  0  0  0  0  0  0  0  0  0
    5.4557   -8.1469    0.0000 C   0  0  2  0  0  0  0  0  0  0  0  0
    4.7413   -7.7344    0.0000 C   0  0  0  0  0  0  0  0  0  0  0  0
    6.1702   -9.3844    0.0000 C   0  0  0  0  0  0  0  0  0  0  0  0
    6.8847   -8.9719    0.0000 C   0  0  0  0  0  0  0  0  0  0  0  0
    6.8847   -8.1469    0.0000 C   0  0  0  0  0  0  0  0  0  0  0  0
    6.1702   -7.7344    0.0000 C   0  0  2  0  0  0  0  0  0  0  0  0
    7.5992   -7.7344    0.0000 C   0  0  0  0  0  0  0  0  0  0  0  0
    7.5992   -6.9094    0.0000 C   0  0  2  0  0  0  0  0  0  0  0  0
    6.8847   -6.4969    0.0000 C   0  0  0  0  0  0  0  0  0  0  0  0
    6.1702   -6.9094    0.0000 C   0  0  0  0  0  0  0  0  0  0  0  0
    8.3838   -7.9893    0.0000 C   0  0  0  0  0  0  0  0  0  0  0  0
    8.8687   -7.3219    0.0000 C   0  0  0  0  0  0  0  0  0  0  0  0
    8.3838   -6.6544    0.0000 C   0  0  0  0  0  0  0  0  0  0  0  0
    3.3123   -9.3844    0.0000 O   0  0  0  0  0  0  0  0  0  0  0  0
    4.3288  -10.0988    0.0000 C   0  0  0  0  0  0  0  0  0  0  0  0
    5.1538  -10.0988    0.0000 C   0  0  0  0  0  0  0  0  0  0  0  0
    7.4681   -8.7302    0.0000 C   0  0  0  0  0  0  0  0  0  0  0  0
    7.8127   -8.5313    0.0000 C   0  0  0  0  0  0  0  0  0  0  0  0
    5.4557   -7.3219    0.0000 C   0  0  0  0  0  0  0  0  0  0  0  0
    7.5992   -6.0844    0.0000 H   0  0  0  0  0  0  0  0  0  0  0  0
    6.1702   -8.5594    0.0000 H   0  0  0  0  0  0  0  0  0  0  0  0
    5.4557   -9.7969    0.0000 H   0  0  0  0  0  0  0  0  0  0  0  0
  1  2  1  0  0  0  0
  2  3  1  0  0  0  0
  3  4  1  0  0  0  0
  4  5  1  0  0  0  0
  5  6  1  0  0  0  0
  6  1  1  0  0  0  0
  4  7  1  0  0  0  0
  7  8  1  0  0  0  0
  8  9  1  0  0  0  0
  9 10  1  0  0  0  0
 10  5  1  0  0  0  0
  9 11  1  0  0  0  0
 11 12  1  0  0  0  0
 12 13  1  0  0  0  0
 13 14  1  0  0  0  0
 14 10  1  0  0  0  0
 11 15  1  0  0  0  0
 15 16  1  0  0  0  0
 16 17  2  0  0  0  0
 17 12  1  0  0  0  0
  2 18  2  0  0  0  0
  3 19  1  0  0  0  0
  3 20  1  0  0  0  0
  9 21  1  0  0  0  0
 11 22  1  0  0  0  0
  5 23  1  1  0  0  0
 12 24  1  1  0  0  0
 10 25  1  6  0  0  0
  4 26  1  6  0  0  0
M  END
>  <cdx:fragmentId>
5

$$$$
