203236.cdx
  Mrv1902 05222410212D          

 54 58  0  0  0  0            999 V2000
    4.4221   -8.3782    0.0000 O   0  0  0  0  0  0  0  0  0  0  0  0
    2.9932   -9.2032    0.0000 O   0  0  0  0  0  0  0  0  0  0  0  0
    1.5642   -8.3782    0.0000 O   0  0  0  0  0  0  0  0  0  0  0  0
    0.8498   -7.1407    0.0000 O   0  0  0  0  0  0  0  0  0  0  0  0
    1.5642   -6.7282    0.0000 C   0  0  0  0  0  0  0  0  0  0  0  0
    2.2787   -7.1407    0.0000 C   0  0  2  0  0  0  0  0  0  0  0  0
    2.2787   -7.9657    0.0000 C   0  0  2  0  0  0  0  0  0  0  0  0
    2.9932   -8.3782    0.0000 C   0  0  1  0  0  0  0  0  0  0  0  0
    3.7076   -7.9657    0.0000 C   0  0  2  0  0  0  0  0  0  0  0  0
    3.7076   -7.1407    0.0000 C   0  0  1  0  0  0  0  0  0  0  0  0
    2.9932   -6.7282    0.0000 O   0  0  0  0  0  0  0  0  0  0  0  0
    4.4221   -6.7282    0.0000 O   0  0  0  0  0  0  0  0  0  0  0  0
    5.8511   -8.3782    0.0000 C   0  0  0  0  0  0  0  0  0  0  0  0
    5.1366   -7.9657    0.0000 C   0  0  0  0  0  0  0  0  0  0  0  0
    5.1366   -7.1407    0.0000 C   0  0  0  0  0  0  0  0  0  0  0  0
    5.8511   -6.7282    0.0000 C   0  0  0  0  0  0  0  0  0  0  0  0
    6.5655   -7.1407    0.0000 C   0  0  0  0  0  0  0  0  0  0  0  0
    6.5655   -7.9657    0.0000 C   0  0  0  0  0  0  0  0  0  0  0  0
    7.2800   -8.3782    0.0000 C   0  0  0  0  0  0  0  0  0  0  0  0
   15.1392   -7.9657    0.0000 O   0  0  0  0  0  0  0  0  0  0  0  0
   16.5681   -7.1407    0.0000 O   0  0  0  0  0  0  0  0  0  0  0  0
   17.9971   -7.9657    0.0000 O   0  0  0  0  0  0  0  0  0  0  0  0
   18.7115   -9.2032    0.0000 O   0  0  0  0  0  0  0  0  0  0  0  0
   17.9971   -9.6157    0.0000 C   0  0  0  0  0  0  0  0  0  0  0  0
   17.2826   -9.2032    0.0000 C   0  0  2  0  0  0  0  0  0  0  0  0
   17.2826   -8.3782    0.0000 C   0  0  2  0  0  0  0  0  0  0  0  0
   16.5681   -7.9657    0.0000 C   0  0  1  0  0  0  0  0  0  0  0  0
   15.8537   -8.3782    0.0000 C   0  0  2  0  0  0  0  0  0  0  0  0
   15.8537   -9.2032    0.0000 C   0  0  1  0  0  0  0  0  0  0  0  0
   16.5681   -9.6157    0.0000 O   0  0  0  0  0  0  0  0  0  0  0  0
   15.1392   -9.6157    0.0000 O   0  0  0  0  0  0  0  0  0  0  0  0
   13.7102   -7.9657    0.0000 C   0  0  0  0  0  0  0  0  0  0  0  0
   14.4247   -8.3782    0.0000 C   0  0  0  0  0  0  0  0  0  0  0  0
   14.4247   -9.2032    0.0000 C   0  0  0  0  0  0  0  0  0  0  0  0
   13.7102   -9.6157    0.0000 C   0  0  0  0  0  0  0  0  0  0  0  0
   12.9958   -9.2032    0.0000 C   0  0  0  0  0  0  0  0  0  0  0  0
   12.9958   -8.3782    0.0000 C   0  0  0  0  0  0  0  0  0  0  0  0
   12.2813   -7.9657    0.0000 C   0  0  0  0  0  0  0  0  0  0  0  0
   11.5668   -9.2032    0.0000 C   0  0  0  0  0  0  0  0  0  0  0  0
   12.2813   -9.6157    0.0000 C   0  0  0  0  0  0  0  0  0  0  0  0
   12.2813  -10.4407    0.0000 C   0  0  0  0  0  0  0  0  0  0  0  0
   11.5668  -10.8532    0.0000 C   0  0  0  0  0  0  0  0  0  0  0  0
   10.8524  -10.4407    0.0000 C   0  0  0  0  0  0  0  0  0  0  0  0
   10.8524   -9.6157    0.0000 C   0  0  0  0  0  0  0  0  0  0  0  0
   10.1379   -9.2032    0.0000 C   0  0  0  0  0  0  0  0  0  0  0  0
   10.1379   -7.5532    0.0000 O   0  0  0  0  0  0  0  0  0  0  0  0
    7.9945   -7.9657    0.0000 O   0  0  0  0  0  0  0  0  0  0  0  0
    8.7089   -9.2032    0.0000 O   0  0  0  0  0  0  0  0  0  0  0  0
   11.5668   -8.3782    0.0000 O   0  0  0  0  0  0  0  0  0  0  0  0
   10.8524   -7.1407    0.0000 O   0  0  0  0  0  0  0  0  0  0  0  0
    8.7089   -8.3782    0.0000 C   0  0  0  0  0  0  0  0  0  0  0  0
    9.4234   -7.9657    0.0000 C   0  0  0  0  0  0  0  0  0  0  0  0
   10.1379   -8.3782    0.0000 C   0  0  1  0  0  0  0  0  0  0  0  0
   10.8524   -7.9657    0.0000 C   0  0  0  0  0  0  0  0  0  0  0  0
 47 19  1  0  0  0  0
 19 18  1  0  0  0  0
 15 12  1  0  0  0  0
 10 12  1  1  0  0  0
  9  1  1  6  0  0  0
  8  2  1  1  0  0  0
  7  3  1  6  0  0  0
  6  5  1  1  0  0  0
  5  4  1  0  0  0  0
 11  6  1  0  0  0  0
  7  6  1  0  0  0  0
  8  7  1  0  0  0  0
  9  8  1  0  0  0  0
 10  9  1  0  0  0  0
 11 10  1  0  0  0  0
 18 13  2  0  0  0  0
 14 13  1  0  0  0  0
 15 14  2  0  0  0  0
 16 15  1  0  0  0  0
 17 16  2  0  0  0  0
 18 17  1  0  0  0  0
 49 38  1  0  0  0  0
 38 37  1  0  0  0  0
 34 31  1  0  0  0  0
 29 31  1  1  0  0  0
 28 20  1  6  0  0  0
 27 21  1  1  0  0  0
 26 22  1  6  0  0  0
 25 24  1  1  0  0  0
 24 23  1  0  0  0  0
 30 25  1  0  0  0  0
 26 25  1  0  0  0  0
 27 26  1  0  0  0  0
 28 27  1  0  0  0  0
 29 28  1  0  0  0  0
 30 29  1  0  0  0  0
 37 32  2  0  0  0  0
 33 32  1  0  0  0  0
 34 33  2  0  0  0  0
 35 34  1  0  0  0  0
 36 35  2  0  0  0  0
 37 36  1  0  0  0  0
 53 45  1  0  0  0  0
 44 39  2  0  0  0  0
 40 39  1  0  0  0  0
 41 40  2  0  0  0  0
 42 41  1  0  0  0  0
 43 42  2  0  0  0  0
 44 43  1  0  0  0  0
 45 44  1  0  0  0  0
 53 46  1  6  0  0  0
 51 47  1  0  0  0  0
 51 48  2  0  0  0  0
 54 49  1  0  0  0  0
 54 50  2  0  0  0  0
 52 51  1  0  0  0  0
 53 52  1  0  0  0  0
 54 53  1  0  0  0  0
M  END
>  <cdx:fragmentId>
53

$$$$
