20323.cdx
  Mrv1902 05222410192D          

 17 19  0  0  0  0            999 V2000
    4.6662   -6.7031    0.0000 C   0  0  0  0  0  0  0  0  0  0  0  0
    4.6662   -7.5281    0.0000 C   0  0  0  0  0  0  0  0  0  0  0  0
    5.3806   -7.9406    0.0000 C   0  0  0  0  0  0  0  0  0  0  0  0
    6.0951   -7.5281    0.0000 C   0  0  1  0  0  0  0  0  0  0  0  0
    6.0951   -6.7031    0.0000 C   0  0  2  0  0  0  0  0  0  0  0  0
    5.3806   -6.2906    0.0000 C   0  0  0  0  0  0  0  0  0  0  0  0
    6.8096   -7.9406    0.0000 C   0  0  0  0  0  0  0  0  0  0  0  0
    7.5241   -7.5281    0.0000 C   0  0  0  0  0  0  0  0  0  0  0  0
    7.5241   -6.7031    0.0000 C   0  0  0  0  0  0  0  0  0  0  0  0
    6.8096   -6.2906    0.0000 C   0  0  0  0  0  0  0  0  0  0  0  0
    8.3087   -7.7831    0.0000 O   0  0  0  0  0  0  0  0  0  0  0  0
    8.7936   -7.1156    0.0000 C   0  0  0  0  0  0  0  0  0  0  0  0
    8.3087   -6.4482    0.0000 C   0  0  0  0  0  0  0  0  0  0  0  0
    5.3806   -5.4656    0.0000 C   0  0  0  0  0  0  0  0  0  0  0  0
    8.5636   -5.6636    0.0000 C   0  0  0  0  0  0  0  0  0  0  0  0
    6.0951   -5.8781    0.0000 H   0  0  0  0  0  0  0  0  0  0  0  0
    6.0951   -8.3531    0.0000 C   0  0  0  0  0  0  0  0  0  0  0  0
  1  2  1  0  0  0  0
  2  3  2  0  0  0  0
  3  4  1  0  0  0  0
  4  5  1  0  0  0  0
  5  6  1  0  0  0  0
  6  1  1  0  0  0  0
  4  7  1  0  0  0  0
  7  8  1  0  0  0  0
  8  9  2  0  0  0  0
  9 10  1  0  0  0  0
 10  5  1  0  0  0  0
  8 11  1  0  0  0  0
 11 12  1  0  0  0  0
 12 13  2  0  0  0  0
 13  9  1  0  0  0  0
  6 14  2  0  0  0  0
 13 15  1  0  0  0  0
  5 16  1  1  0  0  0
  4 17  1  6  0  0  0
M  END
>  <cdx:fragmentId>
5

$$$$
