20320.cdx
  Mrv1902 05222410202D          

 36 40  0  0  0  0            999 V2000
    4.4118   -8.5663    0.0000 C   0  0  1  0  0  0  0  0  0  0  0  0
    4.4118   -9.3913    0.0000 C   0  0  1  0  0  0  0  0  0  0  0  0
    5.1263   -9.8038    0.0000 C   0  0  0  0  0  0  0  0  0  0  0  0
    5.8407   -9.3913    0.0000 C   0  0  1  0  0  0  0  0  0  0  0  0
    5.8407   -8.5663    0.0000 C   0  0  2  0  0  0  0  0  0  0  0  0
    5.1263   -8.1538    0.0000 C   0  0  1  0  0  0  0  0  0  0  0  0
    6.5552   -9.8038    0.0000 C   0  0  0  0  0  0  0  0  0  0  0  0
    7.2697   -9.3913    0.0000 C   0  0  0  0  0  0  0  0  0  0  0  0
    7.2697   -8.5663    0.0000 C   0  0  2  0  0  0  0  0  0  0  0  0
    6.5552   -8.1538    0.0000 C   0  0  1  0  0  0  0  0  0  0  0  0
    7.9842   -8.1538    0.0000 C   0  0  2  0  0  0  0  0  0  0  0  0
    7.9842   -7.3287    0.0000 C   0  0  1  0  0  0  0  0  0  0  0  0
    7.2697   -6.9162    0.0000 C   0  0  0  0  0  0  0  0  0  0  0  0
    6.5552   -7.3287    0.0000 C   0  0  0  0  0  0  0  0  0  0  0  0
    3.6973   -9.8038    0.0000 O   0  0  0  0  0  0  0  0  0  0  0  0
    4.7138  -10.5182    0.0000 C   0  0  0  0  0  0  0  0  0  0  0  0
    5.8407   -7.7413    0.0000 C   0  0  0  0  0  0  0  0  0  0  0  0
    7.9842   -6.5038    0.0000 C   0  0  0  0  0  0  0  0  0  0  0  0
    3.6973   -8.1538    0.0000 O   0  0  0  0  0  0  0  0  0  0  0  0
    5.1263   -7.3287    0.0000 O   0  0  0  0  0  0  0  0  0  0  0  0
    5.5388  -10.5182    0.0000 C   0  0  0  0  0  0  0  0  0  0  0  0
    7.9842   -8.9788    0.0000 C   0  0  0  0  0  0  0  0  0  0  0  0
    8.7688   -8.4087    0.0000 C   0  0  0  0  0  0  0  0  0  0  0  0
    9.2537   -7.7413    0.0000 C   0  0  0  0  0  0  0  0  0  0  0  0
    8.7688   -7.0738    0.0000 C   0  0  2  0  0  0  0  0  0  0  0  0
    9.0237   -6.2892    0.0000 C   0  0  2  0  0  0  0  0  0  0  0  0
    8.4717   -5.6761    0.0000 C   0  0  0  0  0  0  0  0  0  0  0  0
    9.8307   -6.1177    0.0000 C   0  0  0  0  0  0  0  0  0  0  0  0
   10.0856   -5.3330    0.0000 C   0  0  0  0  0  0  0  0  0  0  0  0
   10.8926   -5.1615    0.0000 C   0  0  0  0  0  0  0  0  0  0  0  0
   11.1475   -4.3769    0.0000 C   0  0  0  0  0  0  0  0  0  0  0  0
    9.5534   -6.8189    0.0000 H   0  0  0  0  0  0  0  0  0  0  0  0
   10.5955   -3.7638    0.0000 C   0  0  0  0  0  0  0  0  0  0  0  0
   11.9545   -4.2054    0.0000 C   0  0  0  0  0  0  0  0  0  0  0  0
    5.8407  -10.2163    0.0000 H   0  0  0  0  0  0  0  0  0  0  0  0
    7.2697   -7.7413    0.0000 H   0  0  0  0  0  0  0  0  0  0  0  0
  1  2  1  0  0  0  0
  2  3  1  0  0  0  0
  3  4  1  0  0  0  0
  4  5  1  0  0  0  0
  5  6  1  0  0  0  0
  6  1  1  0  0  0  0
  4  7  1  0  0  0  0
  7  8  1  0  0  0  0
  8  9  1  0  0  0  0
  9 10  1  0  0  0  0
 10  5  1  0  0  0  0
  9 11  1  0  0  0  0
 11 12  1  0  0  0  0
 12 13  1  0  0  0  0
 13 14  1  0  0  0  0
 14 10  1  0  0  0  0
  2 15  1  1  0  0  0
  3 16  1  0  0  0  0
  5 17  1  1  0  0  0
 10 17  1  1  0  0  0
 12 18  1  1  0  0  0
  1 19  1  6  0  0  0
  6 20  1  6  0  0  0
  3 21  1  0  0  0  0
 11 22  1  6  0  0  0
 11 23  1  0  0  0  0
 23 24  1  0  0  0  0
 24 25  1  0  0  0  0
 25 12  1  0  0  0  0
 25 26  1  0  0  0  0
 26 27  1  6  0  0  0
 26 28  1  0  0  0  0
 28 29  1  0  0  0  0
 29 30  1  0  0  0  0
 30 31  2  0  0  0  0
 25 32  1  6  0  0  0
 31 33  1  0  0  0  0
 31 34  1  0  0  0  0
  4 35  1  6  0  0  0
  9 36  1  1  0  0  0
M  END
>  <cdx:fragmentId>
5

$$$$
