20325.cdx
  Mrv1902 05222410182D          

 24 26  0  0  0  0            999 V2000
    5.2437   -6.5794    0.0000 C   0  0  0  0  0  0  0  0  0  0  0  0
    5.2437   -7.4044    0.0000 C   0  0  0  0  0  0  0  0  0  0  0  0
    5.9581   -7.8169    0.0000 C   0  0  2  0  0  0  0  0  0  0  0  0
    6.6726   -7.4044    0.0000 C   0  0  1  0  0  0  0  0  0  0  0  0
    6.6726   -6.5794    0.0000 C   0  0  2  0  0  0  0  0  0  0  0  0
    5.9581   -6.1669    0.0000 C   0  0  0  0  0  0  0  0  0  0  0  0
    7.3871   -7.8169    0.0000 C   0  0  0  0  0  0  0  0  0  0  0  0
    8.1016   -7.4044    0.0000 C   0  0  0  0  0  0  0  0  0  0  0  0
    8.1016   -6.5794    0.0000 C   0  0  0  0  0  0  0  0  0  0  0  0
    7.3871   -6.1669    0.0000 C   0  0  2  0  0  0  0  0  0  0  0  0
    8.8160   -6.1669    0.0000 C   0  0  0  0  0  0  0  0  0  0  0  0
    8.8160   -5.3419    0.0000 C   0  0  2  0  0  0  0  0  0  0  0  0
    8.1016   -4.9294    0.0000 C   0  0  0  0  0  0  0  0  0  0  0  0
    7.3871   -5.3419    0.0000 C   0  0  0  0  0  0  0  0  0  0  0  0
    5.5456   -8.5313    0.0000 C   0  0  0  0  0  0  0  0  0  0  0  0
    4.7206   -8.5313    0.0000 O   0  0  0  0  0  0  0  0  0  0  0  0
    5.9581   -9.2458    0.0000 O   0  0  0  0  0  0  0  0  0  0  0  0
    9.2285   -4.6274    0.0000 C   0  0  0  0  0  0  0  0  0  0  0  0
    8.8160   -3.9129    0.0000 C   0  0  0  0  0  0  0  0  0  0  0  0
    6.3706   -8.5313    0.0000 C   0  0  0  0  0  0  0  0  0  0  0  0
    6.6726   -5.7544    0.0000 C   0  0  0  0  0  0  0  0  0  0  0  0
    9.6410   -5.3419    0.0000 C   0  0  0  0  0  0  0  0  0  0  0  0
    7.3871   -6.9919    0.0000 H   0  0  0  0  0  0  0  0  0  0  0  0
    6.6726   -8.2294    0.0000 H   0  0  0  0  0  0  0  0  0  0  0  0
  1  2  1  0  0  0  0
  2  3  1  0  0  0  0
  3  4  1  0  0  0  0
  4  5  1  0  0  0  0
  5  6  1  0  0  0  0
  6  1  1  0  0  0  0
  4  7  1  0  0  0  0
  7  8  1  0  0  0  0
  8  9  1  0  0  0  0
  9 10  1  0  0  0  0
 10  5  1  0  0  0  0
  9 11  2  0  0  0  0
 11 12  1  0  0  0  0
 12 13  1  0  0  0  0
 13 14  1  0  0  0  0
 14 10  1  0  0  0  0
  3 15  1  0  0  0  0
 15 16  1  0  0  0  0
 15 17  2  0  0  0  0
 12 18  1  0  0  0  0
 18 19  2  0  0  0  0
  3 20  1  1  0  0  0
  5 21  1  1  0  0  0
 12 22  1  1  0  0  0
 10 23  1  6  0  0  0
  4 24  1  6  0  0  0
M  END
>  <cdx:fragmentId>
5

$$$$
