203235.cdx
  Mrv1902 05222410212D          

 35 37  0  0  0  0            999 V2000
   12.3428   -9.5593    0.0000 C   0  0  0  0  0  0  0  0  0  0  0  0
   13.0573   -9.9718    0.0000 C   0  0  0  0  0  0  0  0  0  0  0  0
   13.0573  -10.7968    0.0000 C   0  0  0  0  0  0  0  0  0  0  0  0
   12.3428  -11.2093    0.0000 C   0  0  0  0  0  0  0  0  0  0  0  0
   11.6284  -10.7968    0.0000 C   0  0  0  0  0  0  0  0  0  0  0  0
   11.6284   -9.9718    0.0000 C   0  0  0  0  0  0  0  0  0  0  0  0
   10.9139   -9.5593    0.0000 C   0  0  0  0  0  0  0  0  0  0  0  0
   10.9139   -7.9093    0.0000 O   0  0  0  0  0  0  0  0  0  0  0  0
    9.4850   -9.5593    0.0000 O   0  0  0  0  0  0  0  0  0  0  0  0
    5.1981   -8.7343    0.0000 O   0  0  0  0  0  0  0  0  0  0  0  0
    3.7692   -9.5593    0.0000 O   0  0  0  0  0  0  0  0  0  0  0  0
    2.3403   -8.7343    0.0000 O   0  0  0  0  0  0  0  0  0  0  0  0
    1.6258   -7.4968    0.0000 O   0  0  0  0  0  0  0  0  0  0  0  0
    2.3403   -7.0843    0.0000 C   0  0  0  0  0  0  0  0  0  0  0  0
    3.0547   -7.4968    0.0000 C   0  0  2  0  0  0  0  0  0  0  0  0
    3.0547   -8.3218    0.0000 C   0  0  2  0  0  0  0  0  0  0  0  0
    3.7692   -8.7343    0.0000 C   0  0  1  0  0  0  0  0  0  0  0  0
    4.4837   -8.3218    0.0000 C   0  0  2  0  0  0  0  0  0  0  0  0
    4.4837   -7.4968    0.0000 C   0  0  1  0  0  0  0  0  0  0  0  0
    3.7692   -7.0843    0.0000 O   0  0  0  0  0  0  0  0  0  0  0  0
    5.1981   -7.0843    0.0000 O   0  0  0  0  0  0  0  0  0  0  0  0
    6.6271   -8.7343    0.0000 C   0  0  0  0  0  0  0  0  0  0  0  0
    5.9126   -8.3218    0.0000 C   0  0  0  0  0  0  0  0  0  0  0  0
    5.9126   -7.4968    0.0000 C   0  0  0  0  0  0  0  0  0  0  0  0
    6.6271   -7.0843    0.0000 C   0  0  0  0  0  0  0  0  0  0  0  0
    7.3415   -7.4968    0.0000 C   0  0  0  0  0  0  0  0  0  0  0  0
    7.3415   -8.3218    0.0000 C   0  0  0  0  0  0  0  0  0  0  0  0
    8.0560   -8.7343    0.0000 C   0  0  0  0  0  0  0  0  0  0  0  0
    8.7705   -8.3218    0.0000 O   0  0  0  0  0  0  0  0  0  0  0  0
   12.3428   -8.7343    0.0000 O   0  0  0  0  0  0  0  0  0  0  0  0
   11.6284   -7.4968    0.0000 O   0  0  0  0  0  0  0  0  0  0  0  0
    9.4850   -8.7343    0.0000 C   0  0  0  0  0  0  0  0  0  0  0  0
   10.1994   -8.3218    0.0000 C   0  0  0  0  0  0  0  0  0  0  0  0
   10.9139   -8.7343    0.0000 C   0  0  1  0  0  0  0  0  0  0  0  0
   11.6284   -8.3218    0.0000 C   0  0  0  0  0  0  0  0  0  0  0  0
 34  7  1  0  0  0  0
  6  1  2  0  0  0  0
  2  1  1  0  0  0  0
  3  2  2  0  0  0  0
  4  3  1  0  0  0  0
  5  4  2  0  0  0  0
  6  5  1  0  0  0  0
  7  6  1  0  0  0  0
 34  8  1  6  0  0  0
 32  9  2  0  0  0  0
 32 29  1  0  0  0  0
 28 27  1  0  0  0  0
 24 21  1  0  0  0  0
 19 21  1  1  0  0  0
 18 10  1  6  0  0  0
 17 11  1  1  0  0  0
 16 12  1  6  0  0  0
 15 14  1  1  0  0  0
 14 13  1  0  0  0  0
 20 15  1  0  0  0  0
 16 15  1  0  0  0  0
 17 16  1  0  0  0  0
 18 17  1  0  0  0  0
 19 18  1  0  0  0  0
 20 19  1  0  0  0  0
 27 22  2  0  0  0  0
 23 22  1  0  0  0  0
 24 23  2  0  0  0  0
 25 24  1  0  0  0  0
 26 25  2  0  0  0  0
 27 26  1  0  0  0  0
 29 28  1  0  0  0  0
 35 30  1  0  0  0  0
 35 31  2  0  0  0  0
 33 32  1  0  0  0  0
 34 33  1  0  0  0  0
 35 34  1  0  0  0  0
M  END
>  <cdx:fragmentId>
35

$$$$
