11203296.cdx
  Mrv1902 05222410192D          

 39 42  0  0  0  0            999 V2000
    5.5390  -13.6125    0.0000 C   0  0  0  0  0  0  0  0  0  0  0  0
    5.5390  -14.4375    0.0000 C   0  0  0  0  0  0  0  0  0  0  0  0
    6.2535  -14.8500    0.0000 C   0  0  2  0  0  0  0  0  0  0  0  0
    6.9680  -14.4375    0.0000 C   0  0  0  0  0  0  0  0  0  0  0  0
    6.9680  -13.6125    0.0000 C   0  0  0  0  0  0  0  0  0  0  0  0
    6.2535  -13.2000    0.0000 C   0  0  1  0  0  0  0  0  0  0  0  0
    6.2535  -15.6750    0.0000 C   0  0  1  0  0  0  0  0  0  0  0  0
    6.9680  -16.0875    0.0000 C   0  0  2  0  0  0  0  0  0  0  0  0
    7.6824  -15.6750    0.0000 C   0  0  0  0  0  0  0  0  0  0  0  0
    7.6824  -14.8500    0.0000 C   0  0  0  0  0  0  0  0  0  0  0  0
    5.5390  -16.0875    0.0000 C   0  0  0  0  0  0  0  0  0  0  0  0
    5.5390  -16.9125    0.0000 C   0  0  0  0  0  0  0  0  0  0  0  0
    6.2535  -17.3250    0.0000 C   0  0  2  0  0  0  0  0  0  0  0  0
    6.9680  -16.9125    0.0000 C   0  0  0  0  0  0  0  0  0  0  0  0
    6.2535  -12.3750    0.0000 C   0  0  2  0  0  0  0  0  0  0  0  0
    6.9680  -11.9625    0.0000 C   0  0  0  0  0  0  0  0  0  0  0  0
    6.9680  -11.1375    0.0000 O   0  0  0  0  0  0  0  0  0  0  0  0
    5.5390  -11.9625    0.0000 O   0  0  0  0  0  0  0  0  0  0  0  0
    5.5390  -11.1375    0.0000 C   0  0  0  0  0  0  0  0  0  0  0  0
    4.7421  -10.9240    0.0000 C   0  0  0  0  0  0  0  0  0  0  0  0
    6.1935  -10.6353    0.0000 O   0  0  0  0  0  0  0  0  0  0  0  0
    6.2535  -18.1500    0.0000 O   0  0  0  0  0  0  0  0  0  0  0  0
    6.8369  -12.6166    0.0000 C   0  0  0  0  0  0  0  0  0  0  0  0
    6.9680  -15.2625    0.0000 H   0  0  0  0  0  0  0  0  0  0  0  0
    7.6824  -16.5000    0.0000 H   0  0  0  0  0  0  0  0  0  0  0  0
    5.4566  -18.3635    0.0000 C   0  0  0  0  0  0  0  0  0  0  0  0
    4.8732  -17.7802    0.0000 O   0  0  0  0  0  0  0  0  0  0  0  0
    4.0764  -17.9937    0.0000 C   0  0  1  0  0  0  0  0  0  0  0  0
    3.8628  -18.7906    0.0000 C   0  0  2  0  0  0  0  0  0  0  0  0
    4.4462  -19.3739    0.0000 C   0  0  1  0  0  0  0  0  0  0  0  0
    5.2431  -19.1604    0.0000 C   0  0  1  0  0  0  0  0  0  0  0  0
    3.4930  -17.4103    0.0000 C   0  0  0  0  0  0  0  0  0  0  0  0
    4.2327  -20.1708    0.0000 O   0  0  0  0  0  0  0  0  0  0  0  0
    2.7785  -17.8228    0.0000 O   0  0  0  0  0  0  0  0  0  0  0  0
    3.0659  -19.0041    0.0000 O   0  0  0  0  0  0  0  0  0  0  0  0
    5.8264  -19.7438    0.0000 O   0  0  0  0  0  0  0  0  0  0  0  0
    5.5390  -15.2625    0.0000 C   0  0  0  0  0  0  0  0  0  0  0  0
    7.1815  -17.7094    0.0000 C   0  0  0  0  0  0  0  0  0  0  0  0
    7.7930  -16.9125    0.0000 C   0  0  0  0  0  0  0  0  0  0  0  0
  1  2  1  0  0  0  0
  2  3  1  0  0  0  0
  3  4  1  0  0  0  0
  4  5  2  0  0  0  0
  5  6  1  0  0  0  0
  6  1  1  0  0  0  0
  3  7  1  0  0  0  0
  7  8  1  0  0  0  0
  8  9  1  0  0  0  0
  9 10  1  0  0  0  0
 10  4  1  0  0  0  0
  7 11  1  0  0  0  0
 11 12  1  0  0  0  0
 12 13  1  0  0  0  0
 13 14  1  0  0  0  0
 14  8  1  0  0  0  0
  6 15  1  0  0  0  0
 15 16  1  0  0  0  0
 16 17  1  0  0  0  0
 15 18  1  1  0  0  0
 18 19  1  0  0  0  0
 19 20  1  0  0  0  0
 19 21  2  0  0  0  0
 13 22  1  6  0  0  0
  6 23  1  1  0  0  0
  3 24  1  1  0  0  0
  8 25  1  1  0  0  0
 22 26  1  1  0  0  0
 26 27  1  0  0  0  0
 27 28  1  0  0  0  0
 28 29  1  0  0  0  0
 29 30  1  0  0  0  0
 30 31  1  0  0  0  0
 31 26  1  0  0  0  0
 28 32  1  1  0  0  0
 30 33  1  1  0  0  0
 32 34  1  0  0  0  0
 29 35  1  6  0  0  0
 31 36  1  6  0  0  0
  7 37  1  6  0  0  0
 14 38  1  0  0  0  0
 14 39  1  0  0  0  0
M  END
>  <cdx:fragmentId>
46778

$$$$
