20329.cdx
  Mrv1902 05222410282D          

 42 46  0  0  0  0            999 V2000
   13.6531   -9.5191    0.0000 O   0  0  0  0  0  0  0  0  0  0  0  0
   13.6531   -7.8691    0.0000 O   0  0  0  0  0  0  0  0  0  0  0  0
   11.5097   -8.2816    0.0000 C   0  0  0  0  0  0  0  0  0  0  0  0
   12.2242   -7.8691    0.0000 C   0  0  0  0  0  0  0  0  0  0  0  0
   12.9387   -8.2816    0.0000 C   0  0  0  0  0  0  0  0  0  0  0  0
   12.9387   -9.1066    0.0000 C   0  0  0  0  0  0  0  0  0  0  0  0
   12.2242   -9.5191    0.0000 C   0  0  0  0  0  0  0  0  0  0  0  0
   11.5097   -9.1066    0.0000 C   0  0  0  0  0  0  0  0  0  0  0  0
    8.6518  -11.5816    0.0000 O   0  0  0  0  0  0  0  0  0  0  0  0
    7.2229  -10.7566    0.0000 O   0  0  0  0  0  0  0  0  0  0  0  0
    5.7939  -11.5816    0.0000 O   0  0  0  0  0  0  0  0  0  0  0  0
    4.3650  -10.7566    0.0000 O   0  0  0  0  0  0  0  0  0  0  0  0
    3.6505   -7.8691    0.0000 O   0  0  0  0  0  0  0  0  0  0  0  0
    2.2216   -7.0441    0.0000 O   0  0  0  0  0  0  0  0  0  0  0  0
    0.7926   -7.8691    0.0000 O   0  0  0  0  0  0  0  0  0  0  0  0
    0.7926   -9.5191    0.0000 C   0  0  0  0  0  0  0  0  0  0  0  0
    1.5071   -9.1066    0.0000 C   0  0  1  0  0  0  0  0  0  0  0  0
    1.5071   -8.2816    0.0000 C   0  0  1  0  0  0  0  0  0  0  0  0
    2.2216   -7.8691    0.0000 C   0  0  2  0  0  0  0  0  0  0  0  0
    2.9361   -8.2816    0.0000 C   0  0  2  0  0  0  0  0  0  0  0  0
    2.9361   -9.1066    0.0000 C   0  0  1  0  0  0  0  0  0  0  0  0
    2.2216   -9.5191    0.0000 O   0  0  0  0  0  0  0  0  0  0  0  0
    3.6505   -9.5191    0.0000 O   0  0  0  0  0  0  0  0  0  0  0  0
    4.3650   -9.1066    0.0000 C   0  0  0  0  0  0  0  0  0  0  0  0
    5.0795   -9.5191    0.0000 C   0  0  2  0  0  0  0  0  0  0  0  0
    5.0795  -10.3441    0.0000 C   0  0  2  0  0  0  0  0  0  0  0  0
    5.7939  -10.7566    0.0000 C   0  0  1  0  0  0  0  0  0  0  0  0
    6.5084  -10.3441    0.0000 C   0  0  2  0  0  0  0  0  0  0  0  0
    6.5084   -9.5191    0.0000 C   0  0  1  0  0  0  0  0  0  0  0  0
    5.7939   -9.1066    0.0000 O   0  0  0  0  0  0  0  0  0  0  0  0
    7.2229   -9.1066    0.0000 O   0  0  0  0  0  0  0  0  0  0  0  0
   10.0808  -11.5816    0.0000 O   0  0  0  0  0  0  0  0  0  0  0  0
   10.0808   -9.1066    0.0000 O   0  0  0  0  0  0  0  0  0  0  0  0
    9.3663   -9.5191    0.0000 C   0  0  0  0  0  0  0  0  0  0  0  0
    8.6518   -9.1066    0.0000 C   0  0  0  0  0  0  0  0  0  0  0  0
    7.9374   -9.5191    0.0000 C   0  0  0  0  0  0  0  0  0  0  0  0
    7.9374  -10.3441    0.0000 C   0  0  0  0  0  0  0  0  0  0  0  0
    8.6518  -10.7566    0.0000 C   0  0  0  0  0  0  0  0  0  0  0  0
    9.3663  -10.3441    0.0000 C   0  0  0  0  0  0  0  0  0  0  0  0
   10.0808  -10.7566    0.0000 C   0  0  0  0  0  0  0  0  0  0  0  0
   10.7952  -10.3441    0.0000 C   0  0  0  0  0  0  0  0  0  0  0  0
   10.7952   -9.5191    0.0000 C   0  0  0  0  0  0  0  0  0  0  0  0
 42  8  1  0  0  0  0
  6  1  1  0  0  0  0
  5  2  1  0  0  0  0
  8  3  2  0  0  0  0
  4  3  1  0  0  0  0
  5  4  2  0  0  0  0
  6  5  1  0  0  0  0
  7  6  2  0  0  0  0
  8  7  1  0  0  0  0
 38  9  1  0  0  0  0
 36 31  1  0  0  0  0
 29 31  1  1  0  0  0
 28 10  1  6  0  0  0
 27 11  1  1  0  0  0
 26 12  1  6  0  0  0
 25 24  1  1  0  0  0
 24 23  1  0  0  0  0
 21 23  1  6  0  0  0
 20 13  1  1  0  0  0
 19 14  1  1  0  0  0
 18 15  1  6  0  0  0
 17 16  1  1  0  0  0
 22 17  1  0  0  0  0
 18 17  1  0  0  0  0
 19 18  1  0  0  0  0
 20 19  1  0  0  0  0
 21 20  1  0  0  0  0
 22 21  1  0  0  0  0
 30 25  1  0  0  0  0
 26 25  1  0  0  0  0
 27 26  1  0  0  0  0
 28 27  1  0  0  0  0
 29 28  1  0  0  0  0
 30 29  1  0  0  0  0
 40 32  2  0  0  0  0
 42 33  1  0  0  0  0
 34 33  1  0  0  0  0
 39 34  2  0  0  0  0
 35 34  1  0  0  0  0
 36 35  2  0  0  0  0
 37 36  1  0  0  0  0
 38 37  2  0  0  0  0
 39 38  1  0  0  0  0
 40 39  1  0  0  0  0
 41 40  1  0  0  0  0
 42 41  2  0  0  0  0
M  END
>  <cdx:fragmentId>
45

$$$$
