102203234.cdx
  Mrv1902 05222410202D          

 35 37  0  0  0  0            999 V2000
   11.8876  -15.6032    0.0000 C   0  0  0  0  0  0  0  0  0  0  0  0
   11.1731  -16.0157    0.0000 C   0  0  0  0  0  0  0  0  0  0  0  0
   10.4586  -15.6032    0.0000 C   0  0  2  0  0  0  0  0  0  0  0  0
    9.7441  -16.0157    0.0000 C   0  0  0  0  0  0  0  0  0  0  0  0
   11.8876  -14.7782    0.0000 O   0  0  0  0  0  0  0  0  0  0  0  0
   12.6020  -16.0157    0.0000 O   0  0  0  0  0  0  0  0  0  0  0  0
    9.0297  -15.6032    0.0000 O   0  0  0  0  0  0  0  0  0  0  0  0
    8.3152  -16.0157    0.0000 C   0  0  0  0  0  0  0  0  0  0  0  0
    7.6007  -15.6032    0.0000 C   0  0  0  0  0  0  0  0  0  0  0  0
    6.8863  -16.0157    0.0000 C   0  0  0  0  0  0  0  0  0  0  0  0
    6.1718  -15.6032    0.0000 C   0  0  0  0  0  0  0  0  0  0  0  0
    6.1718  -14.7782    0.0000 C   0  0  0  0  0  0  0  0  0  0  0  0
    6.8863  -14.3657    0.0000 C   0  0  0  0  0  0  0  0  0  0  0  0
    7.6007  -14.7782    0.0000 C   0  0  0  0  0  0  0  0  0  0  0  0
    5.4573  -14.3657    0.0000 O   0  0  0  0  0  0  0  0  0  0  0  0
    4.0284  -14.3657    0.0000 O   0  0  0  0  0  0  0  0  0  0  0  0
    4.7429  -14.7782    0.0000 C   0  0  2  0  0  0  0  0  0  0  0  0
    4.7429  -15.6032    0.0000 C   0  0  1  0  0  0  0  0  0  0  0  0
    4.0284  -16.0157    0.0000 C   0  0  2  0  0  0  0  0  0  0  0  0
    3.3139  -15.6032    0.0000 C   0  0  1  0  0  0  0  0  0  0  0  0
    3.3139  -14.7782    0.0000 C   0  0  1  0  0  0  0  0  0  0  0  0
    2.5994  -14.3657    0.0000 C   0  0  0  0  0  0  0  0  0  0  0  0
    1.8850  -14.7782    0.0000 O   0  0  0  0  0  0  0  0  0  0  0  0
    2.5994  -16.0157    0.0000 O   0  0  0  0  0  0  0  0  0  0  0  0
    4.0284  -16.8407    0.0000 O   0  0  0  0  0  0  0  0  0  0  0  0
    5.4573  -16.0157    0.0000 O   0  0  0  0  0  0  0  0  0  0  0  0
    9.7441  -16.8407    0.0000 O   0  0  0  0  0  0  0  0  0  0  0  0
   10.4586  -16.4282    0.0000 O   0  0  0  0  0  0  0  0  0  0  0  0
   10.4586  -14.7782    0.0000 C   0  0  0  0  0  0  0  0  0  0  0  0
    9.7441  -14.3657    0.0000 C   0  0  0  0  0  0  0  0  0  0  0  0
    9.0297  -14.7782    0.0000 C   0  0  0  0  0  0  0  0  0  0  0  0
    8.3152  -14.3657    0.0000 C   0  0  0  0  0  0  0  0  0  0  0  0
    8.3152  -13.5407    0.0000 C   0  0  0  0  0  0  0  0  0  0  0  0
    9.0297  -13.1282    0.0000 C   0  0  0  0  0  0  0  0  0  0  0  0
    9.7441  -13.5407    0.0000 C   0  0  0  0  0  0  0  0  0  0  0  0
  1  2  1  0  0  0  0
  2  3  1  0  0  0  0
  3  4  1  0  0  0  0
  1  5  2  0  0  0  0
  1  6  1  0  0  0  0
  7  8  1  0  0  0  0
  9 10  1  0  0  0  0
 10 11  2  0  0  0  0
 11 12  1  0  0  0  0
 12 13  2  0  0  0  0
 13 14  1  0  0  0  0
  9 14  2  0  0  0  0
 16 17  1  0  0  0  0
 17 18  1  0  0  0  0
 18 19  1  0  0  0  0
 19 20  1  0  0  0  0
 20 21  1  0  0  0  0
 16 21  1  0  0  0  0
 22 23  1  0  0  0  0
 21 22  1  1  0  0  0
 20 24  1  6  0  0  0
 19 25  1  1  0  0  0
 18 26  1  6  0  0  0
 17 15  1  1  0  0  0
 12 15  1  0  0  0  0
  8  9  1  0  0  0  0
  4  7  1  0  0  0  0
  4 27  2  0  0  0  0
  3 28  1  6  0  0  0
 29 30  1  0  0  0  0
 30 31  1  0  0  0  0
 31 32  2  0  0  0  0
 32 33  1  0  0  0  0
 33 34  2  0  0  0  0
 34 35  1  0  0  0  0
 30 35  2  0  0  0  0
  3 29  1  0  0  0  0
M  END
>  <cdx:groupId>
25189

>  <cdx:fragmentId>
25115

$$$$
