20332.cdx
  Mrv1902 05222410192D          

 10 10  0  0  0  0            999 V2000
    6.3574   -7.1981    0.0000 C   0  0  0  0  0  0  0  0  0  0  0  0
    6.3574   -8.0231    0.0000 C   0  0  0  0  0  0  0  0  0  0  0  0
    7.0719   -8.4356    0.0000 C   0  0  0  0  0  0  0  0  0  0  0  0
    7.7864   -8.0231    0.0000 C   0  0  0  0  0  0  0  0  0  0  0  0
    7.7864   -7.1981    0.0000 C   0  0  0  0  0  0  0  0  0  0  0  0
    7.0719   -6.7856    0.0000 C   0  0  0  0  0  0  0  0  0  0  0  0
    7.0719   -9.2606    0.0000 C   0  0  0  0  0  0  0  0  0  0  0  0
    7.0719   -5.9606    0.0000 C   0  0  0  0  0  0  0  0  0  0  0  0
    7.7864   -5.5481    0.0000 C   0  0  0  0  0  0  0  0  0  0  0  0
    6.3574   -5.5481    0.0000 C   0  0  0  0  0  0  0  0  0  0  0  0
  1  2  2  0  0  0  0
  2  3  1  0  0  0  0
  3  4  1  0  0  0  0
  4  5  1  0  0  0  0
  5  6  1  0  0  0  0
  6  1  1  0  0  0  0
  3  7  1  0  0  0  0
  6  8  1  0  0  0  0
  8  9  1  0  0  0  0
  8 10  2  0  0  0  0
M  END
>  <cdx:fragmentId>
5

$$$$
