20330.cdx
  Mrv1902 05222410182D          

 15 16  0  0  0  0            999 V2000
    6.9306   -9.1433    0.0000 C   0  0  0  0  0  0  0  0  0  0  0  0
    6.1595   -8.8456    0.0000 C   0  0  0  0  0  0  0  0  0  0  0  0
    7.7098   -8.8755    0.0000 C   0  0  0  0  0  0  0  0  0  0  0  0
    8.1385   -8.1686    0.0000 C   0  0  0  0  0  0  0  0  0  0  0  0
    8.0086   -7.3550    0.0000 C   0  0  0  0  0  0  0  0  0  0  0  0
    7.3930   -6.8058    0.0000 C   0  0  0  0  0  0  0  0  0  0  0  0
    6.5676   -6.7850    0.0000 C   0  0  0  0  0  0  0  0  0  0  0  0
    5.9257   -7.3025    0.0000 C   0  0  0  0  0  0  0  0  0  0  0  0
    5.7762   -8.1133    0.0000 C   0  0  0  0  0  0  0  0  0  0  0  0
    4.9605   -8.2366    0.0000 C   0  0  0  0  0  0  0  0  0  0  0  0
    5.8618   -9.6167    0.0000 C   0  0  0  0  0  0  0  0  0  0  0  0
    6.6329   -9.9144    0.0000 C   0  0  0  0  0  0  0  0  0  0  0  0
    6.4194  -10.7113    0.0000 C   0  0  0  0  0  0  0  0  0  0  0  0
    7.4298  -10.1279    0.0000 C   0  0  0  0  0  0  0  0  0  0  0  0
    8.7325   -6.9593    0.0000 C   0  0  0  0  0  0  0  0  0  0  0  0
  1  2  1  0  0  0  0
  1  3  1  0  0  0  0
  3  4  1  0  0  0  0
  4  5  2  0  0  0  0
  5  6  1  0  0  0  0
  6  7  1  0  0  0  0
  7  8  1  0  0  0  0
  8  9  2  0  0  0  0
  2  9  1  0  0  0  0
  9 10  1  0  0  0  0
  2 11  1  0  0  0  0
 11 12  1  0  0  0  0
 12  1  1  0  0  0  0
 12 13  1  0  0  0  0
 12 14  1  0  0  0  0
  5 15  1  0  0  0  0
M  END
>  <cdx:groupId>
738

>  <cdx:fragmentId>
739

$$$$
