20334.cdx
  Mrv1902 05222410202D          

 22 24  0  0  0  0            999 V2000
    3.2018   -8.5800    0.0000 O   0  0  0  0  0  0  0  0  0  0  0  0
    3.9163   -9.8175    0.0000 C   0  0  0  0  0  0  0  0  0  0  0  0
    4.6307   -9.4050    0.0000 O   0  0  0  0  0  0  0  0  0  0  0  0
    4.6307   -8.5800    0.0000 C   0  0  0  0  0  0  0  0  0  0  0  0
    3.9163   -8.1675    0.0000 C   0  0  0  0  0  0  0  0  0  0  0  0
    5.3452   -8.1675    0.0000 C   0  0  0  0  0  0  0  0  0  0  0  0
    5.3452   -7.3425    0.0000 C   0  0  0  0  0  0  0  0  0  0  0  0
    4.6307   -6.9300    0.0000 C   0  0  0  0  0  0  0  0  0  0  0  0
    3.9163   -7.3425    0.0000 C   0  0  0  0  0  0  0  0  0  0  0  0
    6.0597   -8.5800    0.0000 O   0  0  0  0  0  0  0  0  0  0  0  0
    6.7742   -8.1675    0.0000 C   0  0  0  0  0  0  0  0  0  0  0  0
    6.7742   -7.3425    0.0000 C   0  0  0  0  0  0  0  0  0  0  0  0
    6.0597   -6.9300    0.0000 C   0  0  0  0  0  0  0  0  0  0  0  0
    6.7742   -9.8175    0.0000 O   0  0  0  0  0  0  0  0  0  0  0  0
    7.4886   -9.4050    0.0000 C   0  0  0  0  0  0  0  0  0  0  0  0
    7.4886   -8.5800    0.0000 C   0  0  0  0  0  0  0  0  0  0  0  0
    8.2031   -9.8175    0.0000 C   0  0  0  0  0  0  0  0  0  0  0  0
    8.9176   -9.4050    0.0000 C   0  0  0  0  0  0  0  0  0  0  0  0
    8.9176   -8.5800    0.0000 C   0  0  0  0  0  0  0  0  0  0  0  0
    8.2031   -8.1675    0.0000 C   0  0  0  0  0  0  0  0  0  0  0  0
    4.6307   -6.1050    0.0000 O   0  0  0  0  0  0  0  0  0  0  0  0
    6.0597   -6.1050    0.0000 O   0  0  0  0  0  0  0  0  0  0  0  0
  2  3  1  0  0  0  0
  3  4  1  0  0  0  0
  4  5  2  0  0  0  0
  5  1  1  0  0  0  0
  4  6  1  0  0  0  0
  6  7  2  0  0  0  0
  7  8  1  0  0  0  0
  8  9  2  0  0  0  0
  9  5  1  0  0  0  0
  6 10  1  0  0  0  0
 10 11  1  0  0  0  0
 11 12  1  0  0  0  0
 12 13  1  0  0  0  0
 13  7  1  0  0  0  0
 14 15  1  0  0  0  0
 15 16  1  0  0  0  0
 16 11  1  0  0  0  0
 15 17  2  0  0  0  0
 17 18  1  0  0  0  0
 18 19  2  0  0  0  0
 19 20  1  0  0  0  0
 20 16  2  0  0  0  0
  8 21  1  0  0  0  0
 13 22  2  0  0  0  0
M  END
>  <cdx:fragmentId>
5

$$$$
