20339.cdx
  Mrv1902 05222410262D          

 11 11  0  0  0  0            999 V2000
    8.9818   -8.0584    0.0000 C   0  0  0  0  0  0  0  0  0  0  0  0
    8.9818   -8.8834    0.0000 C   0  0  0  0  0  0  0  0  0  0  0  0
    8.2674   -9.2959    0.0000 C   0  0  0  0  0  0  0  0  0  0  0  0
    7.5529   -8.8834    0.0000 C   0  0  0  0  0  0  0  0  0  0  0  0
    7.5529   -8.0584    0.0000 C   0  0  0  0  0  0  0  0  0  0  0  0
    8.2674   -7.6459    0.0000 C   0  0  0  0  0  0  0  0  0  0  0  0
    9.6963   -7.6459    0.0000 O   0  0  0  0  0  0  0  0  0  0  0  0
    6.8384   -9.2959    0.0000 C   0  0  0  0  0  0  0  0  0  0  0  0
    6.1239   -8.8834    0.0000 C   0  0  0  0  0  0  0  0  0  0  0  0
    5.4095   -9.2959    0.0000 C   0  0  0  0  0  0  0  0  0  0  0  0
    4.6950   -8.8834    0.0000 O   0  0  0  0  0  0  0  0  0  0  0  0
  1  2  1  0  0  0  0
  2  3  2  0  0  0  0
  3  4  1  0  0  0  0
  4  5  2  0  0  0  0
  5  6  1  0  0  0  0
  1  6  2  0  0  0  0
  1  7  1  0  0  0  0
  8  9  2  0  0  0  0
  9 10  1  0  0  0  0
 10 11  1  0  0  0  0
  4  8  1  0  0  0  0
M  END
>  <cdx:fragmentId>
5

$$$$
