20337.cdx
  Mrv1902 05222410192D          

 10 12  0  0  0  0            999 V2000
    5.2770   -6.9387    0.0000 C   0  0  0  0  0  0  0  0  0  0  0  0
    4.9053   -7.6752    0.0000 C   0  0  0  0  0  0  0  0  0  0  0  0
    5.4909   -8.2563    0.0000 C   0  0  0  0  0  0  0  0  0  0  0  0
    6.2245   -7.8790    0.0000 C   0  0  0  0  0  0  0  0  0  0  0  0
    6.0923   -7.0646    0.0000 C   0  0  0  0  0  0  0  0  0  0  0  0
    7.0388   -7.7468    0.0000 C   0  0  0  0  0  0  0  0  0  0  0  0
    6.9066   -6.9324    0.0000 C   0  0  0  0  0  0  0  0  0  0  0  0
    7.8542   -7.8727    0.0000 C   0  0  0  0  0  0  0  0  0  0  0  0
    8.2259   -7.1361    0.0000 C   0  0  0  0  0  0  0  0  0  0  0  0
    7.6403   -6.5550    0.0000 C   0  0  0  0  0  0  0  0  0  0  0  0
  1  2  1  0  0  0  0
  2  3  2  0  0  0  0
  3  4  1  0  0  0  0
  4  5  1  0  0  0  0
  5  1  2  0  0  0  0
  4  6  2  0  0  0  0
  6  7  1  0  0  0  0
  7  5  1  0  0  0  0
  6  8  1  0  0  0  0
  8  9  2  0  0  0  0
  9 10  1  0  0  0  0
 10  7  2  0  0  0  0
M  END
>  <cdx:fragmentId>
5

$$$$
