20333.cdx
  Mrv1902 05222410182D          

 16 17  0  0  0  0            999 V2000
    4.0268   -8.3325    0.0000 C   0  0  0  0  0  0  0  0  0  0  0  0
    4.7413   -8.7450    0.0000 O   0  0  0  0  0  0  0  0  0  0  0  0
    5.4557   -8.3325    0.0000 C   0  0  0  0  0  0  0  0  0  0  0  0
    5.4557   -7.5075    0.0000 C   0  0  0  0  0  0  0  0  0  0  0  0
    6.1702   -8.7450    0.0000 C   0  0  0  0  0  0  0  0  0  0  0  0
    6.8847   -8.3325    0.0000 C   0  0  0  0  0  0  0  0  0  0  0  0
    6.8847   -7.5075    0.0000 C   0  0  0  0  0  0  0  0  0  0  0  0
    6.1702   -7.0950    0.0000 C   0  0  0  0  0  0  0  0  0  0  0  0
    7.5992   -8.7450    0.0000 O   0  0  0  0  0  0  0  0  0  0  0  0
    8.3136   -8.3325    0.0000 C   0  0  0  0  0  0  0  0  0  0  0  0
    8.3136   -7.5075    0.0000 C   0  0  0  0  0  0  0  0  0  0  0  0
    7.5992   -7.0950    0.0000 C   0  0  0  0  0  0  0  0  0  0  0  0
    6.1702   -9.5700    0.0000 O   0  0  0  0  0  0  0  0  0  0  0  0
    6.1702   -6.2700    0.0000 O   0  0  0  0  0  0  0  0  0  0  0  0
    5.4557   -5.8575    0.0000 C   0  0  0  0  0  0  0  0  0  0  0  0
    9.0281   -8.7450    0.0000 O   0  0  0  0  0  0  0  0  0  0  0  0
  1  2  1  0  0  0  0
  2  3  1  0  0  0  0
  3  4  1  0  0  0  0
  3  5  2  0  0  0  0
  5  6  1  0  0  0  0
  6  7  2  0  0  0  0
  7  8  1  0  0  0  0
  8  4  2  0  0  0  0
  6  9  1  0  0  0  0
  9 10  1  0  0  0  0
 10 11  1  0  0  0  0
 11 12  2  0  0  0  0
 12  7  1  0  0  0  0
  5 13  1  0  0  0  0
  8 14  1  0  0  0  0
 14 15  1  0  0  0  0
 10 16  2  0  0  0  0
M  END
>  <cdx:fragmentId>
5

$$$$
