20338.cdx
  Mrv1902 05222410262D          

  9  9  0  0  0  0            999 V2000
    6.1512   -9.6319    0.0000 C   0  0  0  0  0  0  0  0  0  0  0  0
    6.1512  -10.4569    0.0000 C   0  0  0  0  0  0  0  0  0  0  0  0
    6.8656  -10.8694    0.0000 C   0  0  0  0  0  0  0  0  0  0  0  0
    7.5801  -10.4569    0.0000 C   0  0  0  0  0  0  0  0  0  0  0  0
    7.5801   -9.6319    0.0000 C   0  0  0  0  0  0  0  0  0  0  0  0
    6.8656   -9.2194    0.0000 C   0  0  0  0  0  0  0  0  0  0  0  0
    6.8656   -8.3944    0.0000 O   0  0  0  0  0  0  0  0  0  0  0  0
    7.5801   -7.9819    0.0000 C   0  0  0  0  0  0  0  0  0  0  0  0
    7.5801   -7.1569    0.0000 C   0  0  0  0  0  0  0  0  0  0  0  0
  1  2  2  0  0  0  0
  2  3  1  0  0  0  0
  3  4  2  0  0  0  0
  4  5  1  0  0  0  0
  5  6  2  0  0  0  0
  6  1  1  0  0  0  0
  6  7  1  0  0  0  0
  7  8  1  0  0  0  0
  8  9  1  0  0  0  0
M  END
>  <cdx:fragmentId>
5

$$$$
