20340.cdx
  Mrv1902 05222410222D          

 34 37  0  0  0  0            999 V2000
    6.9352   -6.9113    0.0000 C   0  0  0  0  0  0  0  0  0  0  0  0
    6.9352   -6.0863    0.0000 C   0  0  0  0  0  0  0  0  0  0  0  0
    7.6497   -5.6738    0.0000 C   0  0  0  0  0  0  0  0  0  0  0  0
    8.3641   -6.0863    0.0000 C   0  0  0  0  0  0  0  0  0  0  0  0
    9.0786   -5.6738    0.0000 C   0  0  0  0  0  0  0  0  0  0  0  0
    9.7931   -6.0863    0.0000 C   0  0  0  0  0  0  0  0  0  0  0  0
    9.7931   -6.9113    0.0000 C   0  0  0  0  0  0  0  0  0  0  0  0
    9.0786   -7.3238    0.0000 C   0  0  0  0  0  0  0  0  0  0  0  0
    8.3641   -6.9113    0.0000 C   0  0  0  0  0  0  0  0  0  0  0  0
    7.6497   -7.3238    0.0000 O   0  0  0  0  0  0  0  0  0  0  0  0
   10.5777   -7.1662    0.0000 O   0  0  0  0  0  0  0  0  0  0  0  0
   10.5777   -5.8313    0.0000 C   0  0  0  0  0  0  0  0  0  0  0  0
   11.0626   -6.4988    0.0000 C   0  0  1  0  0  0  0  0  0  0  0  0
    7.6497   -4.8488    0.0000 O   0  0  0  0  0  0  0  0  0  0  0  0
    6.2207   -7.3238    0.0000 C   0  0  0  0  0  0  0  0  0  0  0  0
    5.5062   -6.9113    0.0000 O   0  0  0  0  0  0  0  0  0  0  0  0
    4.0773   -6.9121    0.0000 O   0  0  0  0  0  0  0  0  0  0  0  0
    4.7920   -7.3242    0.0000 C   0  0  2  0  0  0  0  0  0  0  0  0
    4.7925   -8.1492    0.0000 C   0  0  1  0  0  0  0  0  0  0  0  0
    4.0782   -8.5621    0.0000 C   0  0  2  0  0  0  0  0  0  0  0  0
    3.3635   -8.1500    0.0000 C   0  0  1  0  0  0  0  0  0  0  0  0
    3.3631   -7.3250    0.0000 C   0  0  1  0  0  0  0  0  0  0  0  0
    2.6484   -6.9129    0.0000 C   0  0  0  0  0  0  0  0  0  0  0  0
    1.9341   -7.3258    0.0000 O   0  0  0  0  0  0  0  0  0  0  0  0
    2.6493   -8.5629    0.0000 O   0  0  0  0  0  0  0  0  0  0  0  0
    4.0787   -9.3871    0.0000 O   0  0  0  0  0  0  0  0  0  0  0  0
    5.5072   -8.5613    0.0000 O   0  0  0  0  0  0  0  0  0  0  0  0
    9.0786   -4.8488    0.0000 O   0  0  0  0  0  0  0  0  0  0  0  0
    9.7931   -4.4363    0.0000 C   0  0  0  0  0  0  0  0  0  0  0  0
   11.8876   -5.6738    0.0000 C   0  0  0  0  0  0  0  0  0  0  0  0
   11.8876   -6.4988    0.0000 C   0  0  0  0  0  0  0  0  0  0  0  0
   11.8876   -7.3238    0.0000 C   0  0  0  0  0  0  0  0  0  0  0  0
   12.7126   -6.4988    0.0000 O   0  0  0  0  0  0  0  0  0  0  0  0
   11.4751   -7.2132    0.0000 H   0  0  0  0  0  0  0  0  0  0  0  0
  1  2  2  0  0  0  0
  2  3  1  0  0  0  0
  3  4  1  0  0  0  0
  4  5  2  0  0  0  0
  5  6  1  0  0  0  0
  6  7  2  0  0  0  0
  7  8  1  0  0  0  0
  8  9  2  0  0  0  0
  4  9  1  0  0  0  0
  9 10  1  0  0  0  0
  1 10  1  0  0  0  0
 12 13  1  0  0  0  0
 13 11  1  0  0  0  0
 12  6  1  0  0  0  0
 11  7  1  0  0  0  0
  3 14  2  0  0  0  0
 17 18  1  0  0  0  0
 18 19  1  0  0  0  0
 19 20  1  0  0  0  0
 20 21  1  0  0  0  0
 21 22  1  0  0  0  0
 17 22  1  0  0  0  0
 23 24  1  0  0  0  0
 22 23  1  1  0  0  0
 21 25  1  6  0  0  0
 20 26  1  1  0  0  0
 19 27  1  6  0  0  0
 18 16  1  1  0  0  0
 15 16  1  0  0  0  0
  1 15  1  0  0  0  0
 28 29  1  0  0  0  0
  5 28  1  0  0  0  0
 30 31  1  0  0  0  0
 31 32  1  0  0  0  0
 31 33  1  0  0  0  0
 13 31  1  0  0  0  0
 13 34  1  6  0  0  0
M  END
>  <cdx:fragmentId>
100292

$$$$
