20348.cdx
  Mrv1902 05222410242D          

 32 33  0  0  0  0            999 V2000
    5.8230  -11.0825    0.0000 O   0  0  0  0  0  0  0  0  0  0  0  0
    6.5375  -11.4950    0.0000 C   0  0  2  0  0  0  0  0  0  0  0  0
    6.5375  -12.3200    0.0000 C   0  0  1  0  0  0  0  0  0  0  0  0
    5.8230  -12.7325    0.0000 C   0  0  2  0  0  0  0  0  0  0  0  0
    5.1086  -12.3200    0.0000 C   0  0  1  0  0  0  0  0  0  0  0  0
    5.1086  -11.4950    0.0000 C   0  0  1  0  0  0  0  0  0  0  0  0
    4.3941  -11.0825    0.0000 C   0  0  0  0  0  0  0  0  0  0  0  0
    3.6796  -11.4950    0.0000 O   0  0  0  0  0  0  0  0  0  0  0  0
    4.3941  -12.7325    0.0000 O   0  0  0  0  0  0  0  0  0  0  0  0
    5.8230  -13.5575    0.0000 O   0  0  0  0  0  0  0  0  0  0  0  0
    7.2520  -12.7325    0.0000 O   0  0  0  0  0  0  0  0  0  0  0  0
    7.2520  -11.0825    0.0000 O   0  0  0  0  0  0  0  0  0  0  0  0
    7.9664   -9.0200    0.0000 C   0  0  0  0  0  0  0  0  0  0  0  0
    7.9664   -9.8450    0.0000 C   0  0  0  0  0  0  0  0  0  0  0  0
    7.2520  -10.2575    0.0000 C   0  0  0  0  0  0  0  0  0  0  0  0
    6.5375   -9.8450    0.0000 C   0  0  0  0  0  0  0  0  0  0  0  0
    6.5375   -9.0200    0.0000 C   0  0  0  0  0  0  0  0  0  0  0  0
    7.2520   -8.6075    0.0000 C   0  0  0  0  0  0  0  0  0  0  0  0
    7.2520   -7.7825    0.0000 C   0  0  0  0  0  0  0  0  0  0  0  0
    7.9664   -7.3700    0.0000 O   0  0  0  0  0  0  0  0  0  0  0  0
    7.2520   -6.1325    0.0000 O   0  0  0  0  0  0  0  0  0  0  0  0
    7.9664   -6.5450    0.0000 C   0  0  0  0  0  0  0  0  0  0  0  0
    8.5704   -5.1161    0.0000 C   0  0  0  0  0  0  0  0  0  0  0  0
    9.8079   -4.4016    0.0000 C   0  0  0  0  0  0  0  0  0  0  0  0
    9.3954   -5.1161    0.0000 C   0  0  0  0  0  0  0  0  0  0  0  0
    8.9829   -7.2595    0.0000 O   0  0  0  0  0  0  0  0  0  0  0  0
    9.8079   -5.8305    0.0000 C   0  0  0  0  0  0  0  0  0  0  0  0
   10.1099   -7.7825    0.0000 O   0  0  0  0  0  0  0  0  0  0  0  0
   10.8243   -6.5450    0.0000 O   0  0  0  0  0  0  0  0  0  0  0  0
   10.1099   -6.9575    0.0000 C   0  0  0  0  0  0  0  0  0  0  0  0
    9.3954   -6.5450    0.0000 C   0  0  0  0  0  0  0  0  0  0  0  0
    8.6809   -6.1325    0.0000 C   0  0  0  0  0  0  0  0  0  0  0  0
 32 22  1  0  0  0  0
 19 18  1  0  0  0  0
 15 12  1  0  0  0  0
 18 13  2  0  0  0  0
 14 13  1  0  0  0  0
 15 14  2  0  0  0  0
 16 15  1  0  0  0  0
 17 16  2  0  0  0  0
 18 17  1  0  0  0  0
 22 20  1  0  0  0  0
 20 19  1  0  0  0  0
 22 21  2  0  0  0  0
 25 23  1  0  0  0  0
  1  2  1  0  0  0  0
  2  3  1  0  0  0  0
  3  4  1  0  0  0  0
  4  5  1  0  0  0  0
  5  6  1  0  0  0  0
  1  6  1  0  0  0  0
  7  8  1  0  0  0  0
  6  7  1  1  0  0  0
  5  9  1  6  0  0  0
  4 10  1  1  0  0  0
  3 11  1  6  0  0  0
  2 12  1  1  0  0  0
 25 24  1  0  0  0  0
 27 25  1  0  0  0  0
 31 26  1  1  0  0  0
 31 27  1  0  0  0  0
 30 28  2  0  0  0  0
 30 29  1  0  0  0  0
 31 30  1  0  0  0  0
 31 32  1  0  0  0  0
M  END
>  <cdx:fragmentId>
43

$$$$
