203405.cdx
  Mrv1902 05222410242D          

 15 17  0  0  0  0            999 V2000
    7.8179   -6.4721    0.0000 C   0  0  0  0  0  0  0  0  0  0  0  0
    7.1729   -6.9865    0.0000 C   0  0  0  0  0  0  0  0  0  0  0  0
    6.3883   -6.7315    0.0000 C   0  0  0  0  0  0  0  0  0  0  0  0
    5.9033   -7.3990    0.0000 C   0  0  0  0  0  0  0  0  0  0  0  0
    6.3883   -8.0664    0.0000 C   0  0  0  0  0  0  0  0  0  0  0  0
    7.1729   -7.8115    0.0000 C   0  0  0  0  0  0  0  0  0  0  0  0
    7.8179   -8.3259    0.0000 C   0  0  0  0  0  0  0  0  0  0  0  0
    8.6222   -8.1423    0.0000 C   0  0  0  0  0  0  0  0  0  0  0  0
    8.9802   -7.3990    0.0000 C   0  0  0  0  0  0  0  0  0  0  0  0
    8.6222   -6.6557    0.0000 C   0  0  0  0  0  0  0  0  0  0  0  0
    7.6149   -7.1873    0.0000 C   0  0  0  0  0  0  0  0  0  0  0  0
    7.9370   -7.8562    0.0000 C   0  0  0  0  0  0  0  0  0  0  0  0
    9.8052   -7.3990    0.0000 C   0  0  0  0  0  0  0  0  0  0  0  0
    6.1333   -8.8510    0.0000 C   0  0  0  0  0  0  0  0  0  0  0  0
    7.6343   -5.6678    0.0000 C   0  0  0  0  0  0  0  0  0  0  0  0
  1  2  1  0  0  0  0
  2  3  1  0  0  0  0
  3  4  1  0  0  0  0
  4  5  1  0  0  0  0
  5  6  1  0  0  0  0
  6  7  1  0  0  0  0
  7  8  1  0  0  0  0
  8  9  1  0  0  0  0
  9 10  2  0  0  0  0
 11 12  1  0  0  0  0
  1 10  1  0  0  0  0
  1 11  1  0  0  0  0
 12  8  1  0  0  0  0
  2  6  1  0  0  0  0
  9 13  1  0  0  0  0
  5 14  1  0  0  0  0
  1 15  1  0  0  0  0
M  END
>  <cdx:fragmentId>
149022

$$$$
