20341.cdx
  Mrv1902 05222410222D          

 19 20  0  0  0  0            999 V2000
    2.7200   -8.5594    0.0000 C   0  0  0  0  0  0  0  0  0  0  0  0
    3.4345   -8.1469    0.0000 C   0  0  0  0  0  0  0  0  0  0  0  0
    3.4345   -7.3219    0.0000 C   0  0  0  0  0  0  0  0  0  0  0  0
    4.1490   -8.5594    0.0000 C   0  0  0  0  0  0  0  0  0  0  0  0
    4.8634   -8.1469    0.0000 C   0  0  0  0  0  0  0  0  0  0  0  0
    5.5779   -8.5594    0.0000 O   0  0  0  0  0  0  0  0  0  0  0  0
    6.2924   -8.1469    0.0000 C   0  0  0  0  0  0  0  0  0  0  0  0
    6.2924   -7.3219    0.0000 C   0  0  0  0  0  0  0  0  0  0  0  0
    7.0069   -8.5594    0.0000 C   0  0  0  0  0  0  0  0  0  0  0  0
    7.7213   -8.1469    0.0000 C   0  0  0  0  0  0  0  0  0  0  0  0
    7.7213   -7.3219    0.0000 C   0  0  0  0  0  0  0  0  0  0  0  0
    7.0069   -6.9094    0.0000 C   0  0  0  0  0  0  0  0  0  0  0  0
    8.4358   -8.5594    0.0000 O   0  0  0  0  0  0  0  0  0  0  0  0
    9.1503   -8.1469    0.0000 C   0  0  0  0  0  0  0  0  0  0  0  0
    9.1503   -7.3219    0.0000 C   0  0  0  0  0  0  0  0  0  0  0  0
    8.4358   -6.9094    0.0000 C   0  0  0  0  0  0  0  0  0  0  0  0
    9.8647   -8.5594    0.0000 O   0  0  0  0  0  0  0  0  0  0  0  0
    7.0069   -6.0844    0.0000 O   0  0  0  0  0  0  0  0  0  0  0  0
    6.2924   -5.6719    0.0000 C   0  0  0  0  0  0  0  0  0  0  0  0
  1  2  1  0  0  0  0
  2  3  1  0  0  0  0
  2  4  2  0  0  0  0
  4  5  1  0  0  0  0
  5  6  1  0  0  0  0
  6  7  1  0  0  0  0
  7  8  1  0  0  0  0
  7  9  2  0  0  0  0
  9 10  1  0  0  0  0
 10 11  2  0  0  0  0
 11 12  1  0  0  0  0
 12  8  2  0  0  0  0
 10 13  1  0  0  0  0
 13 14  1  0  0  0  0
 14 15  1  0  0  0  0
 15 16  2  0  0  0  0
 16 11  1  0  0  0  0
 14 17  2  0  0  0  0
 12 18  1  0  0  0  0
 18 19  1  0  0  0  0
M  END
>  <cdx:fragmentId>
5

$$$$
