20346.cdx
  Mrv1902 05222410212D          

 21 24  0  0  0  0            999 V2000
    3.5524   -8.7244    0.0000 C   0  0  0  0  0  0  0  0  0  0  0  0
    3.5524   -9.5494    0.0000 C   0  0  0  0  0  0  0  0  0  0  0  0
    4.2669   -9.9619    0.0000 C   0  0  0  0  0  0  0  0  0  0  0  0
    4.9814   -9.5494    0.0000 C   0  0  0  0  0  0  0  0  0  0  0  0
    4.9814   -8.7244    0.0000 C   0  0  0  0  0  0  0  0  0  0  0  0
    4.2669   -8.3119    0.0000 C   0  0  0  0  0  0  0  0  0  0  0  0
    5.6958   -8.3119    0.0000 C   0  0  0  0  0  0  0  0  0  0  0  0
    5.6958   -7.4869    0.0000 C   0  0  0  0  0  0  0  0  0  0  0  0
    4.9814   -7.0744    0.0000 C   0  0  0  0  0  0  0  0  0  0  0  0
    6.4103   -7.0744    0.0000 C   0  0  0  0  0  0  0  0  0  0  0  0
    6.4103   -6.2494    0.0000 C   0  0  0  0  0  0  0  0  0  0  0  0
    5.6958   -5.8369    0.0000 C   0  0  0  0  0  0  0  0  0  0  0  0
    4.9814   -6.2494    0.0000 C   0  0  0  0  0  0  0  0  0  0  0  0
    7.1248   -7.4869    0.0000 C   0  0  0  0  0  0  0  0  0  0  0  0
    7.8393   -7.0744    0.0000 C   0  0  0  0  0  0  0  0  0  0  0  0
    7.8393   -6.2494    0.0000 C   0  0  0  0  0  0  0  0  0  0  0  0
    7.1248   -5.8369    0.0000 C   0  0  0  0  0  0  0  0  0  0  0  0
    8.5537   -5.8369    0.0000 C   0  0  0  0  0  0  0  0  0  0  0  0
    8.5537   -5.0119    0.0000 C   0  0  0  0  0  0  0  0  0  0  0  0
    7.8393   -4.5994    0.0000 C   0  0  0  0  0  0  0  0  0  0  0  0
    7.1248   -5.0119    0.0000 C   0  0  0  0  0  0  0  0  0  0  0  0
  1  2  2  0  0  0  0
  2  3  1  0  0  0  0
  3  4  2  0  0  0  0
  4  5  1  0  0  0  0
  5  6  2  0  0  0  0
  6  1  1  0  0  0  0
  5  7  1  0  0  0  0
  7  8  1  0  0  0  0
  8  9  1  0  0  0  0
  8 10  2  0  0  0  0
 10 11  1  0  0  0  0
 11 12  2  0  0  0  0
 12 13  1  0  0  0  0
 13  9  2  0  0  0  0
 10 14  1  0  0  0  0
 14 15  2  0  0  0  0
 15 16  1  0  0  0  0
 16 17  1  0  0  0  0
 17 11  1  0  0  0  0
 16 18  2  0  0  0  0
 18 19  1  0  0  0  0
 19 20  2  0  0  0  0
 20 21  1  0  0  0  0
 21 17  2  0  0  0  0
M  END
>  <cdx:fragmentId>
5

$$$$
