20343.cdx
  Mrv1902 05222410232D          

 13 13  0  0  0  0            999 V2000
    6.0068   -8.0850    0.0000 C   0  0  0  0  0  0  0  0  0  0  0  0
    6.0068   -8.9100    0.0000 C   0  0  0  0  0  0  0  0  0  0  0  0
    6.7213   -9.3225    0.0000 N   0  0  0  0  0  0  0  0  0  0  0  0
    7.4357   -8.9100    0.0000 C   0  0  0  0  0  0  0  0  0  0  0  0
    7.4357   -8.0850    0.0000 C   0  0  0  0  0  0  0  0  0  0  0  0
    6.7213   -7.6725    0.0000 C   0  0  0  0  0  0  0  0  0  0  0  0
    5.2923   -9.3225    0.0000 C   0  0  0  0  0  0  0  0  0  0  0  0
    5.2923   -7.6725    0.0000 O   0  0  0  0  0  0  0  0  0  0  0  0
    6.7213   -6.8475    0.0000 C   0  0  0  0  0  0  0  0  0  0  0  0
    8.1502   -7.6725    0.0000 C   0  0  0  0  0  0  0  0  0  0  0  0
    7.4357   -6.4350    0.0000 O   0  0  0  0  0  0  0  0  0  0  0  0
    7.4357   -5.6100    0.0000 C   0  0  0  0  0  0  0  0  0  0  0  0
    8.8647   -8.0850    0.0000 O   0  0  0  0  0  0  0  0  0  0  0  0
  1  2  2  0  0  0  0
  2  3  1  0  0  0  0
  3  4  2  0  0  0  0
  4  5  1  0  0  0  0
  5  6  2  0  0  0  0
  6  1  1  0  0  0  0
  2  7  1  0  0  0  0
  1  8  1  0  0  0  0
  6  9  1  0  0  0  0
  5 10  1  0  0  0  0
  9 11  1  0  0  0  0
 11 12  1  0  0  0  0
 10 13  1  0  0  0  0
M  END
>  <cdx:fragmentId>
5

$$$$
