20358.cdx
  Mrv1902 05222410242D          

 19 21  0  0  0  0            999 V2000
    9.7260   -6.9369    0.0000 C   0  0  0  0  0  0  0  0  0  0  0  0
    9.7260   -7.7619    0.0000 C   0  0  0  0  0  0  0  0  0  0  0  0
    9.0115   -8.1744    0.0000 C   0  0  0  0  0  0  0  0  0  0  0  0
    8.2970   -7.7619    0.0000 C   0  0  0  0  0  0  0  0  0  0  0  0
    8.2970   -6.9369    0.0000 C   0  0  0  0  0  0  0  0  0  0  0  0
    9.0115   -6.5244    0.0000 O   0  0  0  0  0  0  0  0  0  0  0  0
    7.5826   -8.1744    0.0000 C   0  0  0  0  0  0  0  0  0  0  0  0
    6.8681   -7.7619    0.0000 C   0  0  0  0  0  0  0  0  0  0  0  0
    6.8681   -6.9369    0.0000 C   0  0  0  0  0  0  0  0  0  0  0  0
    7.5826   -6.5244    0.0000 C   0  0  0  0  0  0  0  0  0  0  0  0
    6.0835   -8.0168    0.0000 C   0  0  0  0  0  0  0  0  0  0  0  0
    5.5985   -7.3494    0.0000 C   0  0  1  0  0  0  0  0  0  0  0  0
    6.0835   -6.6819    0.0000 O   0  0  0  0  0  0  0  0  0  0  0  0
   10.4404   -6.5244    0.0000 O   0  0  0  0  0  0  0  0  0  0  0  0
    4.7735   -7.3494    0.0000 C   0  0  0  0  0  0  0  0  0  0  0  0
    3.9485   -7.3494    0.0000 O   0  0  0  0  0  0  0  0  0  0  0  0
    4.7735   -6.5244    0.0000 C   0  0  0  0  0  0  0  0  0  0  0  0
    4.7735   -8.1744    0.0000 C   0  0  0  0  0  0  0  0  0  0  0  0
    5.1860   -6.6349    0.0000 H   0  0  0  0  0  0  0  0  0  0  0  0
  1  2  1  0  0  0  0
  2  3  2  0  0  0  0
  3  4  1  0  0  0  0
  4  5  1  0  0  0  0
  5  6  1  0  0  0  0
  6  1  1  0  0  0  0
  4  7  2  0  0  0  0
  7  8  1  0  0  0  0
  8  9  2  0  0  0  0
  9 10  1  0  0  0  0
 10  5  2  0  0  0  0
  8 11  1  0  0  0  0
 11 12  1  0  0  0  0
 12 13  1  0  0  0  0
 13  9  1  0  0  0  0
  1 14  2  0  0  0  0
 12 15  1  0  0  0  0
 15 16  1  0  0  0  0
 15 17  1  0  0  0  0
 15 18  1  0  0  0  0
 12 19  1  1  0  0  0
M  END
>  <cdx:fragmentId>
5

$$$$
