20356.cdx
  Mrv1902 05222410222D          

 19 21  0  0  0  0            999 V2000
    9.3495   -6.6387    0.0000 O   0  0  0  0  0  0  0  0  0  0  0  0
    4.3790   -9.5731    0.0000 O   0  0  0  0  0  0  0  0  0  0  0  0
    8.6484   -7.8826    0.0000 C   0  0  0  0  0  0  0  0  0  0  0  0
    8.6394   -7.0586    0.0000 C   0  0  0  0  0  0  0  0  0  0  0  0
    7.9221   -6.6539    0.0000 C   0  0  0  0  0  0  0  0  0  0  0  0
    7.2128   -7.0732    0.0000 C   0  0  0  0  0  0  0  0  0  0  0  0
    7.2378   -9.5457    0.0000 C   0  0  0  0  0  0  0  0  0  0  0  0
    7.9480   -9.1259    0.0000 C   0  0  0  0  0  0  0  0  0  0  0  0
    7.9390   -8.3019    0.0000 C   0  0  0  0  0  0  0  0  0  0  0  0
    7.2215   -7.8967    0.0000 C   0  0  0  0  0  0  0  0  0  0  0  0
    5.8078   -9.5604    0.0000 C   0  0  0  0  0  0  0  0  0  0  0  0
    6.5186   -9.1415    0.0000 C   0  0  0  0  0  0  0  0  0  0  0  0
    6.5113   -8.3165    0.0000 C   0  0  0  0  0  0  0  0  0  0  0  0
    5.7932   -7.9104    0.0000 C   0  0  0  0  0  0  0  0  0  0  0  0
    5.0824   -8.3293    0.0000 C   0  0  0  0  0  0  0  0  0  0  0  0
    5.0897   -9.1542    0.0000 C   0  0  0  0  0  0  0  0  0  0  0  0
    6.4940   -6.6682    0.0000 O   0  0  0  0  0  0  0  0  0  0  0  0
    5.7796   -7.0807    0.0000 C   0  0  0  0  0  0  0  0  0  0  0  0
    9.3672   -8.2875    0.0000 C   0  0  0  0  0  0  0  0  0  0  0  0
  4  1  1  0  0  0  0
 16  2  1  0  0  0  0
  3  9  1  0  0  0  0
  4  3  2  0  0  0  0
  5  4  1  0  0  0  0
  6  5  2  0  0  0  0
 10  6  1  0  0  0  0
  7 12  1  0  0  0  0
  8  7  1  0  0  0  0
  9  8  1  0  0  0  0
 10  9  2  0  0  0  0
 13 10  1  0  0  0  0
 11 16  2  0  0  0  0
 12 11  1  0  0  0  0
 13 12  2  0  0  0  0
 14 13  1  0  0  0  0
 15 14  2  0  0  0  0
 16 15  1  0  0  0  0
  6 17  1  0  0  0  0
 17 18  1  0  0  0  0
  3 19  1  0  0  0  0
M  END
>  <cdx:fragmentId>
5

$$$$
