20352.cdx
  Mrv1902 05222410212D          

100110  0  0  0  0            999 V2000
   10.8160  -11.7997    0.0000 C   0  0  1  0  0  0  0  0  0  0  0  0
   10.8160  -10.9750    0.0000 C   0  0  0  0  0  0  0  0  0  0  0  0
   11.5302  -10.5626    0.0000 C   0  0  0  0  0  0  0  0  0  0  0  0
   11.5302  -12.2121    0.0000 C   0  0  2  0  0  0  0  0  0  0  0  0
   11.9426  -12.9264    0.0000 C   0  0  0  0  0  0  0  0  0  0  0  0
   11.1179  -12.9264    0.0000 C   0  0  0  0  0  0  0  0  0  0  0  0
   12.2445  -11.7997    0.0000 C   0  0  2  0  0  0  0  0  0  0  0  0
   12.2445  -12.6245    0.0000 H   0  0  0  0  0  0  0  0  0  0  0  0
   12.9587  -12.2121    0.0000 C   0  0  0  0  0  0  0  0  0  0  0  0
   13.6730  -11.7997    0.0000 C   0  0  0  0  0  0  0  0  0  0  0  0
   13.6730  -10.9750    0.0000 C   0  0  1  0  0  0  0  0  0  0  0  0
   13.6730  -10.1503    0.0000 C   0  0  0  0  0  0  0  0  0  0  0  0
   14.3872  -10.5626    0.0000 C   0  0  2  0  0  0  0  0  0  0  0  0
   14.3872  -11.3874    0.0000 C   0  0  0  0  0  0  0  0  0  0  0  0
   15.1015  -10.9750    0.0000 C   0  0  0  0  0  0  0  0  0  0  0  0
   15.8157  -10.5626    0.0000 C   0  0  0  0  0  0  0  0  0  0  0  0
   15.8157   -9.7379    0.0000 C   0  0  1  0  0  0  0  0  0  0  0  0
   16.5691  -10.0733    0.0000 C   0  0  0  0  0  0  0  0  0  0  0  0
   16.4286   -9.1860    0.0000 C   0  0  0  0  0  0  0  0  0  0  0  0
   16.0932   -8.4326    0.0000 C   0  0  0  0  0  0  0  0  0  0  0  0
   15.2729   -8.5188    0.0000 C   0  0  1  0  0  0  0  0  0  0  0  0
   14.7211   -7.9059    0.0000 C   0  0  0  0  0  0  0  0  0  0  0  0
   14.9759   -7.1215    0.0000 C   0  0  0  0  0  0  0  0  0  0  0  0
   13.9144   -8.0774    0.0000 C   0  0  0  0  0  0  0  0  0  0  0  0
   15.1015   -9.3255    0.0000 C   0  0  2  0  0  0  0  0  0  0  0  0
   15.1015  -10.1503    0.0000 H   0  0  0  0  0  0  0  0  0  0  0  0
   14.3872   -9.7379    0.0000 C   0  0  1  0  0  0  0  0  0  0  0  0
   14.3872   -8.9131    0.0000 H   0  0  0  0  0  0  0  0  0  0  0  0
   13.6730   -9.3255    0.0000 C   0  0  0  0  0  0  0  0  0  0  0  0
   12.9587   -9.7379    0.0000 C   0  0  0  0  0  0  0  0  0  0  0  0
   12.9587  -10.5626    0.0000 C   0  0  2  0  0  0  0  0  0  0  0  0
   12.2445  -10.9750    0.0000 C   0  0  1  0  0  0  0  0  0  0  0  0
   12.2445  -10.1503    0.0000 C   0  0  0  0  0  0  0  0  0  0  0  0
   16.5709  -10.8981    0.0000 O   0  0  0  0  0  0  0  0  0  0  0  0
   11.5302  -13.6406    0.0000 O   0  0  0  0  0  0  0  0  0  0  0  0
   19.4192  -12.5505    0.0000 O   0  0  0  0  0  0  0  0  0  0  0  0
   19.4288  -13.3752    0.0000 C   0  0  1  0  0  0  0  0  0  0  0  0
   20.1478  -13.7792    0.0000 C   0  0  2  0  0  0  0  0  0  0  0  0
   20.8572  -13.3585    0.0000 O   0  0  0  0  0  0  0  0  0  0  0  0
   20.1574  -14.6039    0.0000 C   0  0  1  0  0  0  0  0  0  0  0  0
   20.8764  -15.0079    0.0000 O   0  0  0  0  0  0  0  0  0  0  0  0
   19.4480  -15.0245    0.0000 C   0  0  1  0  0  0  0  0  0  0  0  0
   18.7290  -14.6205    0.0000 C   0  0  2  0  0  0  0  0  0  0  0  0
   18.7194  -13.7958    0.0000 O   0  0  0  0  0  0  0  0  0  0  0  0
   18.0196  -15.0412    0.0000 C   0  0  0  0  0  0  0  0  0  0  0  0
   18.0292  -15.8659    0.0000 O   0  0  0  0  0  0  0  0  0  0  0  0
   12.9587  -11.3874    0.0000 H   0  0  0  0  0  0  0  0  0  0  0  0
   10.1017  -12.2121    0.0000 O   0  0  0  0  0  0  0  0  0  0  0  0
   19.4799  -18.7061    0.0000 C   0  0  0  0  0  0  0  0  0  0  0  0
   19.4687  -17.2777    0.0000 O   0  0  0  0  0  0  0  0  0  0  0  0
   19.8866  -17.9887    0.0000 C   0  0  2  0  0  0  0  0  0  0  0  0
   21.1293  -18.6933    0.0000 O   0  0  0  0  0  0  0  0  0  0  0  0
   20.7114  -17.9823    0.0000 C   0  0  2  0  0  0  0  0  0  0  0  0
   21.9429  -17.2584    0.0000 O   0  0  0  0  0  0  0  0  0  0  0  0
   21.1182  -17.2648    0.0000 C   0  0  1  0  0  0  0  0  0  0  0  0
   21.1070  -15.8364    0.0000 O   0  0  0  0  0  0  0  0  0  0  0  0
   20.7002  -16.5538    0.0000 C   0  0  1  0  0  0  0  0  0  0  0  0
   19.8755  -16.5602    0.0000 C   0  0  2  0  0  0  0  0  0  0  0  0
   19.4576  -15.8492    0.0000 O   0  0  0  0  0  0  0  0  0  0  0  0
   18.7058  -12.1366    0.0000 C   0  0  0  0  0  0  0  0  0  0  0  0
   17.9941  -10.8980    0.0000 O   0  0  0  0  0  0  0  0  0  0  0  0
   18.7075  -11.3119    0.0000 C   0  0  1  0  0  0  0  0  0  0  0  0
   20.1360  -11.3149    0.0000 O   0  0  0  0  0  0  0  0  0  0  0  0
   19.4226  -10.9010    0.0000 C   0  0  1  0  0  0  0  0  0  0  0  0
   20.1395   -9.6654    0.0000 O   0  0  0  0  0  0  0  0  0  0  0  0
   19.4244  -10.0763    0.0000 C   0  0  2  0  0  0  0  0  0  0  0  0
   18.7127   -8.8377    0.0000 O   0  0  0  0  0  0  0  0  0  0  0  0
   18.7110   -9.6624    0.0000 C   0  0  1  0  0  0  0  0  0  0  0  0
   17.9959  -10.0733    0.0000 C   0  0  2  0  0  0  0  0  0  0  0  0
   17.2825   -9.6594    0.0000 O   0  0  0  0  0  0  0  0  0  0  0  0
    9.3873  -11.7996    0.0000 C   0  0  2  0  0  0  0  0  0  0  0  0
    9.3873  -10.9746    0.0000 O   0  0  0  0  0  0  0  0  0  0  0  0
    8.6728  -10.5621    0.0000 C   0  0  0  0  0  0  0  0  0  0  0  0
    7.9583  -10.9746    0.0000 C   0  0  1  0  0  0  0  0  0  0  0  0
    7.9583  -11.7996    0.0000 C   0  0  1  0  0  0  0  0  0  0  0  0
    8.6728  -12.2121    0.0000 C   0  0  1  0  0  0  0  0  0  0  0  0
    8.6728  -13.0371    0.0000 O   0  0  0  0  0  0  0  0  0  0  0  0
    7.2439  -12.2121    0.0000 O   0  0  0  0  0  0  0  0  0  0  0  0
    7.2439  -10.5621    0.0000 O   0  0  0  0  0  0  0  0  0  0  0  0
    7.9583  -13.4496    0.0000 C   0  0  2  0  0  0  0  0  0  0  0  0
    7.2439  -13.0371    0.0000 O   0  0  0  0  0  0  0  0  0  0  0  0
    6.5294  -13.4496    0.0000 C   0  0  2  0  0  0  0  0  0  0  0  0
    6.5294  -14.2746    0.0000 C   0  0  1  0  0  0  0  0  0  0  0  0
    7.2439  -14.6871    0.0000 C   0  0  2  0  0  0  0  0  0  0  0  0
    7.9583  -14.2746    0.0000 C   0  0  1  0  0  0  0  0  0  0  0  0
    5.8149  -14.6871    0.0000 O   0  0  0  0  0  0  0  0  0  0  0  0
    7.2439  -15.5121    0.0000 O   0  0  0  0  0  0  0  0  0  0  0  0
    8.6728  -14.6871    0.0000 O   0  0  0  0  0  0  0  0  0  0  0  0
    5.8149  -13.0371    0.0000 C   0  0  0  0  0  0  0  0  0  0  0  0
    7.2439   -9.7371    0.0000 C   0  0  2  0  0  0  0  0  0  0  0  0
    7.9583   -9.3246    0.0000 O   0  0  0  0  0  0  0  0  0  0  0  0
    7.9583   -8.4996    0.0000 C   0  0  1  0  0  0  0  0  0  0  0  0
    7.2439   -8.0871    0.0000 C   0  0  2  0  0  0  0  0  0  0  0  0
    6.5294   -8.4996    0.0000 C   0  0  1  0  0  0  0  0  0  0  0  0
    6.5294   -9.3246    0.0000 C   0  0  1  0  0  0  0  0  0  0  0  0
    8.6728   -8.0871    0.0000 C   0  0  0  0  0  0  0  0  0  0  0  0
    5.8149   -8.0871    0.0000 O   0  0  0  0  0  0  0  0  0  0  0  0
    7.2439   -7.2621    0.0000 O   0  0  0  0  0  0  0  0  0  0  0  0
    5.8149   -9.7371    0.0000 O   0  0  0  0  0  0  0  0  0  0  0  0
    8.6728   -7.2621    0.0000 O   0  0  0  0  0  0  0  0  0  0  0  0
 69 70  1  1  0  0  0
 58 59  1  1  0  0  0
 58 50  1  0  0  0  0
 51 49  1  6  0  0  0
 51 50  1  0  0  0  0
 53 51  1  0  0  0  0
 53 52  1  1  0  0  0
 55 53  1  0  0  0  0
 55 54  1  6  0  0  0
 57 55  1  0  0  0  0
 57 56  1  6  0  0  0
 58 57  1  0  0  0  0
 37 38  1  0  0  0  0
 69 61  1  0  0  0  0
 60 36  1  0  0  0  0
 62 60  1  1  0  0  0
 62 61  1  0  0  0  0
 64 62  1  0  0  0  0
 64 63  1  6  0  0  0
 66 64  1  0  0  0  0
 66 65  1  1  0  0  0
 68 66  1  0  0  0  0
  1  2  1  0  0  0  0
  2  3  1  0  0  0  0
  1  4  1  0  0  0  0
  4  5  1  6  0  0  0
  4  6  1  1  0  0  0
  4  7  1  0  0  0  0
  7  8  1  6  0  0  0
  7  9  1  0  0  0  0
  9 10  1  0  0  0  0
 10 11  1  0  0  0  0
 11 12  1  1  0  0  0
 11 13  1  0  0  0  0
 13 14  1  6  0  0  0
 13 15  1  0  0  0  0
 15 16  1  0  0  0  0
 16 17  1  0  0  0  0
 17 18  1  1  0  0  0
 17 19  1  0  0  0  0
 19 20  1  0  0  0  0
 20 21  1  0  0  0  0
 21 22  1  6  0  0  0
 22 23  2  0  0  0  0
 22 24  1  0  0  0  0
 21 25  1  0  0  0  0
 25 26  1  6  0  0  0
 17 25  1  0  0  0  0
 25 27  1  0  0  0  0
 13 27  1  0  0  0  0
 27 28  1  1  0  0  0
 27 29  1  0  0  0  0
 29 30  1  0  0  0  0
 30 31  1  0  0  0  0
 11 31  1  0  0  0  0
 31 32  1  0  0  0  0
  3 32  1  0  0  0  0
  7 32  1  0  0  0  0
 32 33  1  1  0  0  0
 18 34  2  0  0  0  0
 18 70  1  0  0  0  0
  1 48  1  1  0  0  0
  5 35  1  0  0  0  0
 68 67  1  6  0  0  0
 69 68  1  0  0  0  0
 38 39  1  6  0  0  0
 38 40  1  0  0  0  0
 40 41  1  1  0  0  0
 40 42  1  0  0  0  0
 42 59  1  6  0  0  0
 42 43  1  0  0  0  0
 43 44  1  0  0  0  0
 43 45  1  1  0  0  0
 45 46  1  0  0  0  0
 37 44  1  0  0  0  0
 37 36  1  1  0  0  0
 31 47  1  6  0  0  0
 71 48  1  1  0  0  0
 71 72  1  0  0  0  0
 72 73  1  0  0  0  0
 73 74  1  0  0  0  0
 74 75  1  0  0  0  0
 75 76  1  0  0  0  0
 76 71  1  0  0  0  0
 76 77  1  6  0  0  0
 75 78  1  1  0  0  0
 74 79  1  1  0  0  0
 80 77  1  1  0  0  0
 80 81  1  0  0  0  0
 81 82  1  0  0  0  0
 82 83  1  0  0  0  0
 83 84  1  0  0  0  0
 84 85  1  0  0  0  0
 85 80  1  0  0  0  0
 83 86  1  1  0  0  0
 84 87  1  6  0  0  0
 85 88  1  6  0  0  0
 82 89  1  6  0  0  0
 90 79  1  1  0  0  0
 90 91  1  0  0  0  0
 91 92  1  0  0  0  0
 92 93  1  0  0  0  0
 93 94  1  0  0  0  0
 94 95  1  0  0  0  0
 95 90  1  0  0  0  0
 92 96  1  1  0  0  0
 94 97  1  1  0  0  0
 93 98  1  6  0  0  0
 95 99  1  6  0  0  0
 96100  1  0  0  0  0
M  END
>  <cdx:groupId>
346

>  <cdx:fragmentId>
95

$$$$
