20353.cdx
  Mrv1902 05222410202D          

 72 80  0  0  0  0            999 V2000
   17.9601  -11.9070    0.0000 H   0  0  0  0  0  0  0  0  0  0  0  0
   16.0960  -10.4865    0.0000 H   0  0  0  0  0  0  0  0  0  0  0  0
   17.2259   -8.2655    0.0000 C   0  0  0  0  0  0  0  0  0  0  0  0
   19.4627   -9.4599    0.0000 C   0  0  0  0  0  0  0  0  0  0  0  0
   18.2208  -11.3079    0.0000 C   0  0  0  0  0  0  0  0  0  0  0  0
   16.7026  -12.7871    0.0000 C   0  0  0  0  0  0  0  0  0  0  0  0
   17.3559   -9.0802    0.0000 C   0  0  0  0  0  0  0  0  0  0  0  0
   14.3892  -12.4100    0.0000 C   0  0  1  0  0  0  0  0  0  0  0  0
   18.5460   -8.4694    0.0000 C   0  0  1  0  0  0  0  0  0  0  0  0
   18.7230   -9.8312    0.0000 C   0  0  2  0  0  0  0  0  0  0  0  0
   15.9219  -10.6766    0.0000 C   0  0  0  0  0  0  0  0  0  0  0  0
   16.6462   -9.5104    0.0000 C   0  0  0  0  0  0  0  0  0  0  0  0
   14.3770  -11.5096    0.0000 C   0  0  0  0  0  0  0  0  0  0  0  0
   15.1784  -12.8435    0.0000 C   0  0  0  0  0  0  0  0  0  0  0  0
   17.4384  -12.3333    0.0000 C   0  0  0  0  0  0  0  0  0  0  0  0
   18.1762   -9.2069    0.0000 C   0  0  1  0  0  0  0  0  0  0  0  0
   16.3789  -10.2961    0.0000 C   0  0  0  0  0  0  0  0  0  0  0  0
   15.1542  -11.0547    0.0000 C   0  0  0  0  0  0  0  0  0  0  0  0
   15.9450  -12.3709    0.0000 C   0  0  0  0  0  0  0  0  0  0  0  0
   17.4068  -11.4694    0.0000 C   0  0  2  0  0  0  0  0  0  0  0  0
   16.6793  -11.0698    0.0000 C   0  0  1  0  0  0  0  0  0  0  0  0
   15.9332  -11.5064    0.0000 C   0  0  2  0  0  0  0  0  0  0  0  0
   18.6510  -12.0177    0.0000 O   0  0  0  0  0  0  0  0  0  0  0  0
   13.6778  -12.8374    0.0000 O   0  0  0  0  0  0  0  0  0  0  0  0
   17.9599   -7.8888    0.0000 O   0  0  0  0  0  0  0  0  0  0  0  0
   19.3560   -8.6392    0.0000 O   0  0  0  0  0  0  0  0  0  0  0  0
   18.7407  -10.6610    0.0000 O   0  0  0  0  0  0  0  0  0  0  0  0
   19.4375  -10.2437    0.0000 H   0  0  0  0  0  0  0  0  0  0  0  0
   17.7637   -8.4924    0.0000 H   0  0  0  0  0  0  0  0  0  0  0  0
   18.9585   -7.7550    0.0000 C   0  0  0  0  0  0  0  0  0  0  0  0
   12.9562  -12.4374    0.0000 C   0  0  2  0  0  0  0  0  0  0  0  0
   12.9345  -11.6127    0.0000 O   0  0  0  0  0  0  0  0  0  0  0  0
   12.2095  -11.2192    0.0000 C   0  0  1  0  0  0  0  0  0  0  0  0
   11.5061  -11.6503    0.0000 C   0  0  2  0  0  0  0  0  0  0  0  0
   11.5061  -12.4750    0.0000 C   0  0  1  0  0  0  0  0  0  0  0  0
   12.2095  -12.8686    0.0000 C   0  0  1  0  0  0  0  0  0  0  0  0
   12.1878  -10.3944    0.0000 C   0  0  0  0  0  0  0  0  0  0  0  0
   10.7944  -12.8923    0.0000 O   0  0  0  0  0  0  0  0  0  0  0  0
   12.2150  -13.6936    0.0000 O   0  0  0  0  0  0  0  0  0  0  0  0
   10.8000  -13.7173    0.0000 C   0  0  0  0  0  0  0  0  0  0  0  0
    4.5432   -9.0824    0.0000 C   0  0  0  0  0  0  0  0  0  0  0  0
    4.9723   -9.7869    0.0000 O   0  0  0  0  0  0  0  0  0  0  0  0
    5.7546   -8.3465    0.0000 O   0  0  0  0  0  0  0  0  0  0  0  0
    7.4078   -8.3077    0.0000 C   0  0  0  0  0  0  0  0  0  0  0  0
    7.4322   -9.7312    0.0000 O   0  0  0  0  0  0  0  0  0  0  0  0
    7.0103   -9.0306    0.0000 C   0  0  1  0  0  0  0  0  0  0  0  0
    6.1856   -9.0500    0.0000 C   0  0  2  0  0  0  0  0  0  0  0  0
    5.7972   -9.7696    0.0000 C   0  0  2  0  0  0  0  0  0  0  0  0
    6.2192  -10.4785    0.0000 C   0  0  0  0  0  0  0  0  0  0  0  0
    7.0441  -10.4674    0.0000 C   0  0  2  0  0  0  0  0  0  0  0  0
    8.6814  -13.3267    0.0000 C   0  0  0  0  0  0  0  0  0  0  0  0
    8.2739  -12.6094    0.0000 O   0  0  0  0  0  0  0  0  0  0  0  0
    7.4685  -11.1749    0.0000 O   0  0  0  0  0  0  0  0  0  0  0  0
    8.3127   -9.7740    0.0000 C   0  0  0  0  0  0  0  0  0  0  0  0
    9.5541  -10.5135    0.0000 O   0  0  0  0  0  0  0  0  0  0  0  0
    8.7107  -10.4967    0.0000 C   0  0  2  0  0  0  0  0  0  0  0  0
    8.2935  -11.1863    0.0000 C   0  0  2  0  0  0  0  0  0  0  0  0
    8.7008  -11.9034    0.0000 C   0  0  2  0  0  0  0  0  0  0  0  0
    9.5253  -11.9309    0.0000 C   0  0  0  0  0  0  0  0  0  0  0  0
    9.9614  -11.2306    0.0000 C   0  0  2  0  0  0  0  0  0  0  0  0
   10.7863  -11.2472    0.0000 O   0  0  0  0  0  0  0  0  0  0  0  0
    6.1484   -7.6216    0.0000 C   0  0  2  0  0  0  0  0  0  0  0  0
    6.9727   -7.5891    0.0000 O   0  0  0  0  0  0  0  0  0  0  0  0
    7.3568   -6.8589    0.0000 C   0  0  1  0  0  0  0  0  0  0  0  0
    6.9165   -6.1613    0.0000 C   0  0  2  0  0  0  0  0  0  0  0  0
    6.0921   -6.1937    0.0000 C   0  0  1  0  0  0  0  0  0  0  0  0
    5.7081   -6.9239    0.0000 C   0  0  1  0  0  0  0  0  0  0  0  0
    8.1811   -6.8265    0.0000 C   0  0  0  0  0  0  0  0  0  0  0  0
    5.6518   -5.4961    0.0000 O   0  0  0  0  0  0  0  0  0  0  0  0
    7.3005   -5.4311    0.0000 O   0  0  0  0  0  0  0  0  0  0  0  0
    4.8837   -6.9564    0.0000 O   0  0  0  0  0  0  0  0  0  0  0  0
    8.5652   -6.0963    0.0000 O   0  0  0  0  0  0  0  0  0  0  0  0
  7  3  2  0  0  0  0
 10  4  1  0  0  0  0
 12  7  1  0  0  0  0
 13  8  1  0  0  0  0
 14  8  1  0  0  0  0
 15  6  1  0  0  0  0
 16  7  1  0  0  0  0
 16  9  1  0  0  0  0
 16 10  1  0  0  0  0
 17 12  1  0  0  0  0
 18 13  1  0  0  0  0
 19  6  2  0  0  0  0
 19 14  1  0  0  0  0
 20  1  1  1  0  0  0
 20  5  1  0  0  0  0
 20 15  1  0  0  0  0
 21  2  1  6  0  0  0
 21 17  1  0  0  0  0
 21 20  1  0  0  0  0
 22 11  1  1  0  0  0
 22 18  1  0  0  0  0
 22 19  1  0  0  0  0
 22 21  1  0  0  0  0
 23  5  2  0  0  0  0
  8 24  1  1  0  0  0
 25  3  1  0  0  0  0
 25  9  1  0  0  0  0
 26  4  1  0  0  0  0
 26  9  1  0  0  0  0
 27  5  1  0  0  0  0
 27 10  1  0  0  0  0
 10 28  1  6  0  0  0
 16 29  1  6  0  0  0
  9 30  1  6  0  0  0
 31 24  1  1  0  0  0
 31 32  1  0  0  0  0
 32 33  1  0  0  0  0
 33 34  1  0  0  0  0
 34 35  1  0  0  0  0
 35 36  1  0  0  0  0
 36 31  1  0  0  0  0
 33 37  1  1  0  0  0
 35 38  1  1  0  0  0
 42 41  1  0  0  0  0
 34 61  1  6  0  0  0
 36 39  1  6  0  0  0
 38 40  1  0  0  0  0
 48 42  1  6  0  0  0
 47 43  1  6  0  0  0
 46 44  1  1  0  0  0
 45 50  1  0  0  0  0
 46 45  1  0  0  0  0
 47 46  1  0  0  0  0
 48 47  1  0  0  0  0
 49 48  1  0  0  0  0
 50 49  1  0  0  0  0
 50 53  1  1  0  0  0
 52 51  1  0  0  0  0
 58 52  1  6  0  0  0
 57 53  1  6  0  0  0
 56 54  1  6  0  0  0
 55 60  1  0  0  0  0
 56 55  1  0  0  0  0
 57 56  1  0  0  0  0
 58 57  1  0  0  0  0
 59 58  1  0  0  0  0
 60 59  1  0  0  0  0
 60 61  1  1  0  0  0
 62 43  1  1  0  0  0
 62 63  1  0  0  0  0
 63 64  1  0  0  0  0
 64 65  1  0  0  0  0
 65 66  1  0  0  0  0
 66 67  1  0  0  0  0
 67 62  1  0  0  0  0
 64 68  1  1  0  0  0
 66 69  1  1  0  0  0
 65 70  1  6  0  0  0
 67 71  1  6  0  0  0
 68 72  1  0  0  0  0
M  END
>  <cdx:fragmentId>
1

$$$$
