20355.cdx
  Mrv1902 05222410222D          

 27 30  0  0  0  0            999 V2000
    6.3523   -6.8331    0.0000 N   0  0  0  0  0  0  0  0  0  0  0  0
    6.5366   -7.6372    0.0000 C   0  0  2  0  0  0  0  0  0  0  0  0
    7.2802   -7.9945    0.0000 C   0  0  1  0  0  0  0  0  0  0  0  0
    8.0232   -7.6359    0.0000 C   0  0  0  0  0  0  0  0  0  0  0  0
    8.2061   -6.8314    0.0000 C   0  0  0  0  0  0  0  0  0  0  0  0
    7.6911   -6.1869    0.0000 C   0  0  2  0  0  0  0  0  0  0  0  0
    6.8661   -6.1876    0.0000 C   0  0  0  0  0  0  0  0  0  0  0  0
    6.6120   -8.4784    0.0000 O   0  0  0  0  0  0  0  0  0  0  0  0
    6.8657   -9.2634    0.0000 C   0  0  0  0  0  0  0  0  0  0  0  0
    7.6907   -9.2634    0.0000 C   0  0  1  0  0  0  0  0  0  0  0  0
    7.9469   -8.4784    0.0000 C   0  0  0  0  0  0  0  0  0  0  0  0
    5.5306   -6.7598    0.0000 C   0  0  1  0  0  0  0  0  0  0  0  0
    5.2070   -7.5187    0.0000 C   0  0  0  0  0  0  0  0  0  0  0  0
    5.8287   -8.0610    0.0000 C   0  0  0  0  0  0  0  0  0  0  0  0
    5.1068   -6.0520    0.0000 C   0  0  2  0  0  0  0  0  0  0  0  0
    5.4304   -5.2931    0.0000 C   0  0  0  0  0  0  0  0  0  0  0  0
    4.8086   -4.7508    0.0000 C   0  0  1  0  0  0  0  0  0  0  0  0
    4.1008   -5.1746    0.0000 C   0  0  0  0  0  0  0  0  0  0  0  0
    4.2850   -5.9788    0.0000 O   0  0  0  0  0  0  0  0  0  0  0  0
    3.3419   -4.8510    0.0000 O   0  0  0  0  0  0  0  0  0  0  0  0
    6.3802   -9.9305    0.0000 O   0  0  0  0  0  0  0  0  0  0  0  0
    4.8818   -3.9291    0.0000 C   0  0  0  0  0  0  0  0  0  0  0  0
    7.1199   -7.0539    0.0000 H   0  0  0  0  0  0  0  0  0  0  0  0
    8.1752   -9.9312    0.0000 C   0  0  0  0  0  0  0  0  0  0  0  0
    8.1036   -5.4724    0.0000 O   0  0  0  0  0  0  0  0  0  0  0  0
    4.5234   -6.6354    0.0000 H   0  0  0  0  0  0  0  0  0  0  0  0
    4.7337   -6.9734    0.0000 H   0  0  0  0  0  0  0  0  0  0  0  0
  1  2  1  0  0  0  0
  2  3  1  0  0  0  0
  3  4  1  0  0  0  0
  4  5  1  0  0  0  0
  5  6  1  0  0  0  0
  6  7  1  0  0  0  0
  7  1  1  0  0  0  0
  3  8  1  1  0  0  0
  8  9  1  0  0  0  0
  9 10  1  0  0  0  0
 10 11  1  0  0  0  0
 11  3  1  0  0  0  0
  1 12  1  0  0  0  0
 12 13  1  0  0  0  0
 13 14  1  0  0  0  0
 14  2  1  0  0  0  0
 12 15  1  0  0  0  0
 15 16  1  0  0  0  0
 16 17  1  0  0  0  0
 17 18  1  0  0  0  0
 18 19  1  0  0  0  0
 19 15  1  0  0  0  0
 18 20  2  0  0  0  0
  9 21  2  0  0  0  0
 17 22  1  1  0  0  0
  2 23  1  1  0  0  0
 10 24  1  1  0  0  0
  6 25  1  6  0  0  0
 15 26  1  6  0  0  0
 12 27  1  6  0  0  0
M  END
>  <cdx:fragmentId>
5

$$$$
