20359.cdx
  Mrv1902 05222410242D          

 21 24  0  0  0  0            999 V2000
    5.3399   -9.4462    0.0000 C   0  0  0  0  0  0  0  0  0  0  0  0
    5.3399  -10.2713    0.0000 C   0  0  0  0  0  0  0  0  0  0  0  0
    6.0544  -10.6837    0.0000 C   0  0  0  0  0  0  0  0  0  0  0  0
    6.7689  -10.2713    0.0000 C   0  0  0  0  0  0  0  0  0  0  0  0
    6.7689   -9.4462    0.0000 C   0  0  0  0  0  0  0  0  0  0  0  0
    6.0544   -9.0337    0.0000 O   0  0  0  0  0  0  0  0  0  0  0  0
    7.4833  -10.6837    0.0000 C   0  0  0  0  0  0  0  0  0  0  0  0
    8.1978  -10.2713    0.0000 C   0  0  0  0  0  0  0  0  0  0  0  0
    8.1978   -9.4462    0.0000 C   0  0  0  0  0  0  0  0  0  0  0  0
    7.4833   -9.0337    0.0000 C   0  0  0  0  0  0  0  0  0  0  0  0
    8.9824  -10.5262    0.0000 C   0  0  0  0  0  0  0  0  0  0  0  0
    9.4674   -9.8588    0.0000 C   0  0  0  0  0  0  0  0  0  0  0  0
    8.9824   -9.1913    0.0000 O   0  0  0  0  0  0  0  0  0  0  0  0
    4.6255   -9.0337    0.0000 O   0  0  0  0  0  0  0  0  0  0  0  0
    7.1814   -5.4318    0.0000 C   0  0  0  0  0  0  0  0  0  0  0  0
    7.8958   -6.6693    0.0000 C   0  0  0  0  0  0  0  0  0  0  0  0
    7.1814   -6.2568    0.0000 C   0  0  0  0  0  0  0  0  0  0  0  0
    6.3564   -6.2568    0.0000 O   0  0  0  0  0  0  0  0  0  0  0  0
    6.7689   -6.9712    0.0000 C   0  0  2  0  0  0  0  0  0  0  0  0
    6.7689   -7.7963    0.0000 C   0  0  0  0  0  0  0  0  0  0  0  0
    7.4833   -8.2088    0.0000 O   0  0  0  0  0  0  0  0  0  0  0  0
  1  2  1  0  0  0  0
  2  3  2  0  0  0  0
  3  4  1  0  0  0  0
  4  5  1  0  0  0  0
  5  6  1  0  0  0  0
  6  1  1  0  0  0  0
  4  7  2  0  0  0  0
  7  8  1  0  0  0  0
  8  9  2  0  0  0  0
  9 10  1  0  0  0  0
 10  5  2  0  0  0  0
  8 11  1  0  0  0  0
 11 12  2  0  0  0  0
 12 13  1  0  0  0  0
 13  9  1  0  0  0  0
  1 14  2  0  0  0  0
 17 15  1  0  0  0  0
 10 21  1  0  0  0  0
 17 16  1  0  0  0  0
 17 19  1  0  0  0  0
 18 17  1  0  0  0  0
 19 18  1  0  0  0  0
 19 20  1  1  0  0  0
 21 20  1  0  0  0  0
M  END
>  <cdx:fragmentId>
5

$$$$
