20357.cdx
  Mrv1902 05222410232D          

 27 28  0  0  0  0            999 V2000
    4.7825  -12.2512    0.0000 C   0  0  0  0  0  0  0  0  0  0  0  0
    4.7825  -11.4262    0.0000 O   0  0  0  0  0  0  0  0  0  0  0  0
    5.4970  -11.0137    0.0000 C   0  0  0  0  0  0  0  0  0  0  0  0
    5.4970  -10.1888    0.0000 C   0  0  0  0  0  0  0  0  0  0  0  0
    6.2115  -11.4262    0.0000 C   0  0  0  0  0  0  0  0  0  0  0  0
    6.9259  -11.0137    0.0000 C   0  0  0  0  0  0  0  0  0  0  0  0
    6.9259  -10.1888    0.0000 C   0  0  0  0  0  0  0  0  0  0  0  0
    6.2115   -9.7763    0.0000 C   0  0  0  0  0  0  0  0  0  0  0  0
    6.9259   -8.5388    0.0000 C   0  0  0  0  0  0  0  0  0  0  0  0
    6.2115   -8.9513    0.0000 C   0  0  0  0  0  0  0  0  0  0  0  0
    6.9259   -7.7138    0.0000 C   0  0  0  0  0  0  0  0  0  0  0  0
    6.2115   -7.3012    0.0000 O   0  0  0  0  0  0  0  0  0  0  0  0
    7.6404   -7.3012    0.0000 O   0  0  0  0  0  0  0  0  0  0  0  0
    7.6404   -6.4763    0.0000 C   0  0  0  0  0  0  0  0  0  0  0  0
    6.9259   -6.0638    0.0000 C   0  0  2  0  0  0  0  0  0  0  0  0
    6.2115   -6.4763    0.0000 O   0  0  0  0  0  0  0  0  0  0  0  0
    8.3549   -6.0638    0.0000 C   0  0  1  0  0  0  0  0  0  0  0  0
    8.3549   -5.2387    0.0000 C   0  0  0  0  0  0  0  0  0  0  0  0
    7.6404   -4.8263    0.0000 C   0  0  0  0  0  0  0  0  0  0  0  0
    6.9259   -5.2387    0.0000 C   0  0  0  0  0  0  0  0  0  0  0  0
    6.2115  -12.2512    0.0000 O   0  0  0  0  0  0  0  0  0  0  0  0
    7.2279   -4.1118    0.0000 O   0  0  0  0  0  0  0  0  0  0  0  0
    8.0529   -4.1118    0.0000 C   0  0  0  0  0  0  0  0  0  0  0  0
    8.8779   -4.1118    0.0000 O   0  0  0  0  0  0  0  0  0  0  0  0
    7.6404   -3.3973    0.0000 O   0  0  0  0  0  0  0  0  0  0  0  0
    9.2904   -3.3973    0.0000 C   0  0  0  0  0  0  0  0  0  0  0  0
    9.0694   -6.4763    0.0000 O   0  0  0  0  0  0  0  0  0  0  0  0
  1  2  1  0  0  0  0
  2  3  1  0  0  0  0
  3  4  1  0  0  0  0
  3  5  2  0  0  0  0
  5  6  1  0  0  0  0
  6  7  2  0  0  0  0
  7  8  1  0  0  0  0
  8  4  2  0  0  0  0
  9 10  2  0  0  0  0
 10  8  1  0  0  0  0
  9 11  1  0  0  0  0
 11 12  2  0  0  0  0
 11 13  1  0  0  0  0
 13 14  1  0  0  0  0
 14 15  1  0  0  0  0
 15 16  1  6  0  0  0
 14 17  1  0  0  0  0
 17 18  1  0  0  0  0
 18 19  1  0  0  0  0
 19 20  1  0  0  0  0
 20 15  1  0  0  0  0
  5 21  1  0  0  0  0
 19 22  1  0  0  0  0
 19 23  1  0  0  0  0
 23 24  1  0  0  0  0
 23 25  2  0  0  0  0
 24 26  1  0  0  0  0
 17 27  1  1  0  0  0
M  END
>  <cdx:fragmentId>
5

$$$$
