20354.cdx
  Mrv1902 05222410222D          

 36 41  0  0  0  0            999 V2000
    8.1313   -7.6909    0.0000 C   0  0  2  0  0  0  0  0  0  0  0  0
    8.4914   -8.4332    0.0000 C   0  0  1  0  0  0  0  0  0  0  0  0
    8.1356   -9.1775    0.0000 C   0  0  1  0  0  0  0  0  0  0  0  0
    7.3318   -9.3635    0.0000 C   0  0  2  0  0  0  0  0  0  0  0  0
    6.6853   -8.8510    0.0000 C   0  0  1  0  0  0  0  0  0  0  0  0
    6.6829   -8.0260    0.0000 C   0  0  2  0  0  0  0  0  0  0  0  0
    7.3264   -7.5097    0.0000 C   0  0  2  0  0  0  0  0  0  0  0  0
    5.9721   -9.2655    0.0000 C   0  0  1  0  0  0  0  0  0  0  0  0
    5.2564   -8.8551    0.0000 C   0  0  0  0  0  0  0  0  0  0  0  0
    5.2540   -8.0301    0.0000 C   0  0  0  0  0  0  0  0  0  0  0  0
    5.9672   -7.6155    0.0000 C   0  0  2  0  0  0  0  0  0  0  0  0
    7.2501   -6.6882    0.0000 C   0  0  0  0  0  0  0  0  0  0  0  0
    8.0077   -6.3618    0.0000 C   0  0  1  0  0  0  0  0  0  0  0  0
    8.5523   -6.9815    0.0000 C   0  0  2  0  0  0  0  0  0  0  0  0
    5.9648   -6.7906    0.0000 O   0  0  0  0  0  0  0  0  0  0  0  0
    5.2537   -6.3724    0.0000 C   0  0  0  0  0  0  0  0  0  0  0  0
    5.9745  -10.0905    0.0000 H   0  0  0  0  0  0  0  0  0  0  0  0
    6.6825   -7.3700    0.0000 C   0  0  0  0  0  0  0  0  0  0  0  0
    5.9675   -8.3875    0.0000 N   0  0  0  0  0  0  0  0  0  0  0  0
    5.2525   -9.5700    0.0000 C   0  0  0  0  0  0  0  0  0  0  0  0
    9.2900   -8.2260    0.0000 C   0  0  0  0  0  0  0  0  0  0  0  0
    9.2675   -6.5175    0.0000 C   0  0  2  0  0  0  0  0  0  0  0  0
    8.7049   -9.2301    0.0000 O   0  0  0  0  0  0  0  0  0  0  0  0
    9.8725   -6.9300    0.0000 O   0  0  0  0  0  0  0  0  0  0  0  0
    6.6787   -9.6759    0.0000 H   0  0  0  0  0  0  0  0  0  0  0  0
    6.7431   -6.9263    0.0000 H   0  0  0  0  0  0  0  0  0  0  0  0
    8.9562   -7.6975    0.0000 H   0  0  0  0  0  0  0  0  0  0  0  0
    8.0077   -5.5368    0.0000 H   0  0  0  0  0  0  0  0  0  0  0  0
    8.1356  -10.0025    0.0000 O   0  0  0  0  0  0  0  0  0  0  0  0
    4.7850   -8.3875    0.0000 C   0  0  0  0  0  0  0  0  0  0  0  0
    7.3318  -10.1885    0.0000 O   0  0  0  0  0  0  0  0  0  0  0  0
    6.6174  -10.6010    0.0000 C   0  0  0  0  0  0  0  0  0  0  0  0
    4.2016   -7.8041    0.0000 C   0  0  0  0  0  0  0  0  0  0  0  0
    9.8820   -5.9670    0.0000 O   0  0  0  0  0  0  0  0  0  0  0  0
    9.8820   -5.1420    0.0000 C   0  0  0  0  0  0  0  0  0  0  0  0
   10.3125   -7.6279    0.0000 C   0  0  0  0  0  0  0  0  0  0  0  0
  1  2  1  0  0  0  0
  2  3  1  0  0  0  0
  3  4  1  0  0  0  0
  4  5  1  0  0  0  0
  5  6  1  0  0  0  0
  6  7  1  0  0  0  0
  7  1  1  0  0  0  0
  5  8  1  0  0  0  0
  8  9  1  0  0  0  0
  9 10  1  0  0  0  0
 10 11  1  0  0  0  0
  6 11  1  1  0  0  0
  7 12  1  0  0  0  0
 12 13  1  0  0  0  0
 13 14  1  0  0  0  0
 14  1  1  0  0  0  0
 11 15  1  6  0  0  0
 15 16  1  0  0  0  0
  8 17  1  1  0  0  0
  6 18  1  0  0  0  0
  3 18  1  0  0  0  0
 18 19  1  0  0  0  0
 19 20  1  0  0  0  0
  8 20  1  0  0  0  0
  2 21  1  0  0  0  0
 13 22  1  0  0  0  0
 22 21  1  0  0  0  0
  2 23  1  1  0  0  0
 14 24  1  6  0  0  0
  5 25  1  1  0  0  0
  7 26  1  1  0  0  0
  1 27  1  1  0  0  0
 13 28  1  1  0  0  0
  3 29  1  6  0  0  0
 19 30  1  0  0  0  0
  4 31  1  1  0  0  0
 31 32  1  0  0  0  0
 30 33  1  0  0  0  0
 22 34  1  1  0  0  0
 34 35  1  0  0  0  0
 24 36  1  0  0  0  0
M  END
>  <cdx:fragmentId>
491

$$$$
