20362.cdx
  Mrv1902 05222410252D          

 21 23  0  0  0  0            999 V2000
    4.0474   -7.4044    0.0000 C   0  0  0  0  0  0  0  0  0  0  0  0
    4.0474   -8.2294    0.0000 C   0  0  0  0  0  0  0  0  0  0  0  0
    4.7619   -8.6419    0.0000 C   0  0  0  0  0  0  0  0  0  0  0  0
    5.4764   -8.2294    0.0000 C   0  0  0  0  0  0  0  0  0  0  0  0
    5.4764   -7.4044    0.0000 C   0  0  0  0  0  0  0  0  0  0  0  0
    4.7619   -6.9919    0.0000 C   0  0  0  0  0  0  0  0  0  0  0  0
    6.1908   -8.6419    0.0000 C   0  0  0  0  0  0  0  0  0  0  0  0
    6.9053   -8.2294    0.0000 C   0  0  0  0  0  0  0  0  0  0  0  0
    6.9053   -7.4044    0.0000 C   0  0  0  0  0  0  0  0  0  0  0  0
    6.1908   -6.9919    0.0000 C   0  0  0  0  0  0  0  0  0  0  0  0
    7.6198   -8.6419    0.0000 C   0  0  0  0  0  0  0  0  0  0  0  0
    8.3343   -8.2294    0.0000 C   0  0  0  0  0  0  0  0  0  0  0  0
    8.3343   -7.4044    0.0000 C   0  0  0  0  0  0  0  0  0  0  0  0
    7.6198   -6.9919    0.0000 C   0  0  0  0  0  0  0  0  0  0  0  0
    3.3330   -8.6419    0.0000 O   0  0  0  0  0  0  0  0  0  0  0  0
    6.1908   -9.4669    0.0000 O   0  0  0  0  0  0  0  0  0  0  0  0
    6.1908   -6.1669    0.0000 O   0  0  0  0  0  0  0  0  0  0  0  0
    9.0487   -8.6419    0.0000 C   0  0  0  0  0  0  0  0  0  0  0  0
    9.0487   -6.9919    0.0000 O   0  0  0  0  0  0  0  0  0  0  0  0
    7.6198   -6.1669    0.0000 O   0  0  0  0  0  0  0  0  0  0  0  0
    8.3343   -5.7544    0.0000 C   0  0  0  0  0  0  0  0  0  0  0  0
  1  2  1  0  0  0  0
  2  3  2  0  0  0  0
  3  4  1  0  0  0  0
  4  5  2  0  0  0  0
  5  6  1  0  0  0  0
  6  1  2  0  0  0  0
  4  7  1  0  0  0  0
  7  8  1  0  0  0  0
  8  9  2  0  0  0  0
  9 10  1  0  0  0  0
 10  5  1  0  0  0  0
  8 11  1  0  0  0  0
 11 12  2  0  0  0  0
 12 13  1  0  0  0  0
 13 14  2  0  0  0  0
 14  9  1  0  0  0  0
  2 15  1  0  0  0  0
  7 16  2  0  0  0  0
 10 17  2  0  0  0  0
 12 18  1  0  0  0  0
 13 19  1  0  0  0  0
 14 20  1  0  0  0  0
 20 21  1  0  0  0  0
M  END
>  <cdx:fragmentId>
5

$$$$
