20363.cdx
  Mrv1902 05222410252D          

 41 44  0  0  0  0            999 V2000
    5.8870   -7.5694    0.0000 C   0  0  1  0  0  0  0  0  0  0  0  0
    6.6015   -7.1569    0.0000 C   0  0  1  0  0  0  0  0  0  0  0  0
    6.6015   -6.3319    0.0000 C   0  0  1  0  0  0  0  0  0  0  0  0
    5.8870   -5.9194    0.0000 C   0  0  0  0  0  0  0  0  0  0  0  0
    5.1725   -6.3319    0.0000 C   0  0  0  0  0  0  0  0  0  0  0  0
    5.1725   -7.1569    0.0000 O   0  0  0  0  0  0  0  0  0  0  0  0
    7.3861   -6.0769    0.0000 C   0  0  1  0  0  0  0  0  0  0  0  0
    7.8710   -6.7444    0.0000 C   0  0  0  0  0  0  0  0  0  0  0  0
    7.3861   -7.4118    0.0000 C   0  0  0  0  0  0  0  0  0  0  0  0
    5.8870   -5.0944    0.0000 C   0  0  0  0  0  0  0  0  0  0  0  0
    6.6015   -4.6819    0.0000 O   0  0  0  0  0  0  0  0  0  0  0  0
    5.1725   -4.6819    0.0000 O   0  0  0  0  0  0  0  0  0  0  0  0
    5.8870   -8.3944    0.0000 O   0  0  0  0  0  0  0  0  0  0  0  0
    5.1725   -8.8069    0.0000 C   0  0  1  0  0  0  0  0  0  0  0  0
    5.1725   -9.6319    0.0000 C   0  0  1  0  0  0  0  0  0  0  0  0
    4.4581  -10.0444    0.0000 C   0  0  2  0  0  0  0  0  0  0  0  0
    3.7436   -9.6319    0.0000 C   0  0  1  0  0  0  0  0  0  0  0  0
    3.7436   -8.8069    0.0000 C   0  0  2  0  0  0  0  0  0  0  0  0
    4.4581   -8.3944    0.0000 O   0  0  0  0  0  0  0  0  0  0  0  0
    3.0291   -8.3944    0.0000 C   0  0  0  0  0  0  0  0  0  0  0  0
    2.3147   -8.8069    0.0000 O   0  0  0  0  0  0  0  0  0  0  0  0
    3.0291  -10.0444    0.0000 O   0  0  0  0  0  0  0  0  0  0  0  0
    4.4581  -10.8694    0.0000 O   0  0  0  0  0  0  0  0  0  0  0  0
    5.8870  -10.0444    0.0000 O   0  0  0  0  0  0  0  0  0  0  0  0
    7.6410   -5.2923    0.0000 O   0  0  0  0  0  0  0  0  0  0  0  0
    8.4480   -5.1208    0.0000 C   0  0  0  0  0  0  0  0  0  0  0  0
    9.0000   -5.7339    0.0000 C   0  0  0  0  0  0  0  0  0  0  0  0
    9.8070   -5.5624    0.0000 C   0  0  0  0  0  0  0  0  0  0  0  0
    8.7030   -4.3362    0.0000 O   0  0  0  0  0  0  0  0  0  0  0  0
   10.3590   -6.1755    0.0000 C   0  0  0  0  0  0  0  0  0  0  0  0
   11.1660   -6.0039    0.0000 C   0  0  0  0  0  0  0  0  0  0  0  0
   11.7181   -6.6170    0.0000 C   0  0  0  0  0  0  0  0  0  0  0  0
   11.4631   -7.4016    0.0000 C   0  0  0  0  0  0  0  0  0  0  0  0
   10.6561   -7.5732    0.0000 C   0  0  0  0  0  0  0  0  0  0  0  0
   10.1041   -6.9601    0.0000 C   0  0  0  0  0  0  0  0  0  0  0  0
   12.0151   -8.0147    0.0000 O   0  0  0  0  0  0  0  0  0  0  0  0
    7.6410   -8.1964    0.0000 C   0  0  0  0  0  0  0  0  0  0  0  0
    8.4480   -8.3680    0.0000 O   0  0  0  0  0  0  0  0  0  0  0  0
    6.6877   -5.5114    0.0000 H   0  0  0  0  0  0  0  0  0  0  0  0
    6.6877   -7.9774    0.0000 H   0  0  0  0  0  0  0  0  0  0  0  0
    5.1725   -3.8569    0.0000 C   0  0  0  0  0  0  0  0  0  0  0  0
  1  2  1  0  0  0  0
  2  3  1  0  0  0  0
  3  4  1  0  0  0  0
  4  5  2  0  0  0  0
  5  6  1  0  0  0  0
  1  6  1  0  0  0  0
  7  8  1  0  0  0  0
  8  9  2  0  0  0  0
  9  2  1  0  0  0  0
  7  3  1  0  0  0  0
 10 11  2  0  0  0  0
 10 12  1  0  0  0  0
  4 10  1  0  0  0  0
 14 15  1  0  0  0  0
 15 16  1  0  0  0  0
 16 17  1  0  0  0  0
 17 18  1  0  0  0  0
 18 19  1  0  0  0  0
 14 19  1  0  0  0  0
 14 13  1  1  0  0  0
 20 21  1  0  0  0  0
 18 20  1  1  0  0  0
 17 22  1  6  0  0  0
 16 23  1  1  0  0  0
 15 24  1  6  0  0  0
  1 13  1  6  0  0  0
 26 27  1  0  0  0  0
 27 28  2  0  0  0  0
 26 29  2  0  0  0  0
 25 26  1  0  0  0  0
 30 31  1  0  0  0  0
 31 32  2  0  0  0  0
 32 33  1  0  0  0  0
 33 34  2  0  0  0  0
 34 35  1  0  0  0  0
 30 35  2  0  0  0  0
 33 36  1  0  0  0  0
 28 30  1  0  0  0  0
  7 25  1  6  0  0  0
 37 38  1  0  0  0  0
  9 37  1  0  0  0  0
  3 39  1  6  0  0  0
  2 40  1  6  0  0  0
 12 41  1  0  0  0  0
M  END
>  <cdx:fragmentId>
179

$$$$
