20367.cdx
  Mrv1902 05222410232D          

 21 24  0  0  0  0            999 V2000
    7.2952   -7.0248    0.0000 C   0  0  0  0  0  0  0  0  0  0  0  0
    7.2955   -6.1998    0.0000 C   0  0  2  0  0  0  0  0  0  0  0  0
    6.5812   -5.7871    0.0000 O   0  0  0  0  0  0  0  0  0  0  0  0
    5.8666   -6.1993    0.0000 C   0  0  0  0  0  0  0  0  0  0  0  0
    5.8663   -7.0243    0.0000 C   0  0  0  0  0  0  0  0  0  0  0  0
    6.5806   -7.4371    0.0000 C   0  0  0  0  0  0  0  0  0  0  0  0
    5.1522   -5.7866    0.0000 C   0  0  0  0  0  0  0  0  0  0  0  0
    4.4376   -6.1988    0.0000 C   0  0  0  0  0  0  0  0  0  0  0  0
    4.4373   -7.0238    0.0000 C   0  0  0  0  0  0  0  0  0  0  0  0
    5.1517   -7.4366    0.0000 C   0  0  0  0  0  0  0  0  0  0  0  0
    3.6531   -5.9436    0.0000 O   0  0  0  0  0  0  0  0  0  0  0  0
    3.1679   -6.6109    0.0000 C   0  0  0  0  0  0  0  0  0  0  0  0
    3.6526   -7.2785    0.0000 C   0  0  0  0  0  0  0  0  0  0  0  0
    8.0101   -5.7876    0.0000 C   0  0  0  0  0  0  0  0  0  0  0  0
    8.7244   -6.2003    0.0000 C   0  0  0  0  0  0  0  0  0  0  0  0
    9.4391   -5.7881    0.0000 C   0  0  0  0  0  0  0  0  0  0  0  0
    9.4394   -4.9631    0.0000 C   0  0  0  0  0  0  0  0  0  0  0  0
    8.7250   -4.5503    0.0000 C   0  0  0  0  0  0  0  0  0  0  0  0
    8.0104   -4.9626    0.0000 C   0  0  0  0  0  0  0  0  0  0  0  0
   10.1540   -4.5508    0.0000 O   0  0  0  0  0  0  0  0  0  0  0  0
    6.5803   -8.2621    0.0000 O   0  0  0  0  0  0  0  0  0  0  0  0
  1  2  1  0  0  0  0
  2  3  1  0  0  0  0
  3  4  1  0  0  0  0
  4  5  2  0  0  0  0
  5  6  1  0  0  0  0
  6  1  1  0  0  0  0
  4  7  1  0  0  0  0
  7  8  2  0  0  0  0
  8  9  1  0  0  0  0
  9 10  2  0  0  0  0
 10  5  1  0  0  0  0
  8 11  1  0  0  0  0
 11 12  1  0  0  0  0
 12 13  2  0  0  0  0
 13  9  1  0  0  0  0
  2 14  1  6  0  0  0
 14 15  2  0  0  0  0
 15 16  1  0  0  0  0
 16 17  2  0  0  0  0
 17 18  1  0  0  0  0
 18 19  2  0  0  0  0
 19 14  1  0  0  0  0
 17 20  1  0  0  0  0
  6 21  2  0  0  0  0
M  END
>  <cdx:fragmentId>
5

$$$$
