20364.cdx
  Mrv1902 05222410242D          

 26 29  0  0  0  0            999 V2000
   10.4496   -9.1316    0.0000 C   0  0  0  0  0  0  0  0  0  0  0  0
   10.4588   -8.3066    0.0000 C   0  0  0  0  0  0  0  0  0  0  0  0
    9.7489   -7.8862    0.0000 C   0  0  0  0  0  0  0  0  0  0  0  0
    9.0299   -8.2908    0.0000 C   0  0  0  0  0  0  0  0  0  0  0  0
    9.0208   -9.1158    0.0000 C   0  0  0  0  0  0  0  0  0  0  0  0
    9.7306   -9.5361    0.0000 C   0  0  0  0  0  0  0  0  0  0  0  0
    8.3292   -7.0455    0.0000 C   0  0  0  0  0  0  0  0  0  0  0  0
    8.3201   -7.8704    0.0000 C   0  0  0  0  0  0  0  0  0  0  0  0
    7.6193   -6.6251    0.0000 O   0  0  0  0  0  0  0  0  0  0  0  0
    6.9003   -7.0296    0.0000 C   0  0  0  0  0  0  0  0  0  0  0  0
    6.8912   -7.8546    0.0000 C   0  0  0  0  0  0  0  0  0  0  0  0
    7.6011   -8.2750    0.0000 C   0  0  0  0  0  0  0  0  0  0  0  0
    6.1905   -6.6093    0.0000 C   0  0  0  0  0  0  0  0  0  0  0  0
    5.4715   -7.0138    0.0000 C   0  0  0  0  0  0  0  0  0  0  0  0
    5.4624   -7.8388    0.0000 C   0  0  0  0  0  0  0  0  0  0  0  0
    6.1722   -8.2592    0.0000 C   0  0  0  0  0  0  0  0  0  0  0  0
    4.6897   -6.7502    0.0000 O   0  0  0  0  0  0  0  0  0  0  0  0
    4.1975   -7.4122    0.0000 C   0  0  0  0  0  0  0  0  0  0  0  0
    4.6750   -8.0850    0.0000 C   0  0  0  0  0  0  0  0  0  0  0  0
   11.1595   -9.5520    0.0000 O   0  0  0  0  0  0  0  0  0  0  0  0
    7.5919   -9.0999    0.0000 O   0  0  0  0  0  0  0  0  0  0  0  0
    3.3725   -7.4031    0.0000 C   0  0  0  0  0  0  0  0  0  0  0  0
    4.4113   -8.8668    0.0000 O   0  0  0  0  0  0  0  0  0  0  0  0
    3.3634   -8.2281    0.0000 C   0  0  0  0  0  0  0  0  0  0  0  0
    2.5476   -7.3940    0.0000 O   0  0  0  0  0  0  0  0  0  0  0  0
    3.3816   -6.5782    0.0000 C   0  0  0  0  0  0  0  0  0  0  0  0
  1  2  1  0  0  0  0
  2  3  2  0  0  0  0
  3  4  1  0  0  0  0
  4  5  2  0  0  0  0
  5  6  1  0  0  0  0
  6  1  2  0  0  0  0
  7  8  2  0  0  0  0
  8  4  1  0  0  0  0
  7  9  1  0  0  0  0
  9 10  1  0  0  0  0
 10 11  1  0  0  0  0
 11 12  1  0  0  0  0
 12  8  1  0  0  0  0
 10 13  2  0  0  0  0
 13 14  1  0  0  0  0
 14 15  2  0  0  0  0
 15 16  1  0  0  0  0
 16 11  2  0  0  0  0
 14 17  1  0  0  0  0
 17 18  1  0  0  0  0
 18 19  1  0  0  0  0
 19 15  1  0  0  0  0
  1 20  1  0  0  0  0
 12 21  2  0  0  0  0
 18 22  1  0  0  0  0
 19 23  1  0  0  0  0
 22 24  1  0  0  0  0
 22 25  1  0  0  0  0
 22 26  1  0  0  0  0
M  END
>  <cdx:fragmentId>
5

$$$$
