20366.cdx
  Mrv1902 05222410232D          

 25 26  0  0  0  0            999 V2000
    3.7911   -6.8181    0.0000 C   0  0  0  0  0  0  0  0  0  0  0  0
    4.5037   -7.2339    0.0000 C   0  0  0  0  0  0  0  0  0  0  0  0
    3.0747   -7.2273    0.0000 C   0  0  0  0  0  0  0  0  0  0  0  0
    3.0709   -8.0523    0.0000 C   0  0  0  0  0  0  0  0  0  0  0  0
    3.7835   -8.4681    0.0000 C   0  0  0  0  0  0  0  0  0  0  0  0
    4.4998   -8.0589    0.0000 C   0  0  0  0  0  0  0  0  0  0  0  0
    2.3622   -6.8115    0.0000 O   0  0  0  0  0  0  0  0  0  0  0  0
    2.3545   -8.4615    0.0000 O   0  0  0  0  0  0  0  0  0  0  0  0
    5.2200   -6.8248    0.0000 C   0  0  0  0  0  0  0  0  0  0  0  0
    5.9326   -7.2406    0.0000 C   0  0  0  0  0  0  0  0  0  0  0  0
    8.0817   -6.0130    0.0000 O   0  0  0  0  0  0  0  0  0  0  0  0
    6.6528   -6.0064    0.0000 O   0  0  0  0  0  0  0  0  0  0  0  0
    6.6490   -6.8314    0.0000 C   0  0  0  0  0  0  0  0  0  0  0  0
    8.0779   -6.8380    0.0000 C   0  0  0  0  0  0  0  0  0  0  0  0
    7.3615   -7.2472    0.0000 C   0  0  0  0  0  0  0  0  0  0  0  0
    7.3577   -8.0722    0.0000 C   0  0  0  0  0  0  0  0  0  0  0  0
    8.0702   -8.4880    0.0000 C   0  0  0  0  0  0  0  0  0  0  0  0
    8.7904   -7.2538    0.0000 C   0  0  0  0  0  0  0  0  0  0  0  0
    8.7866   -8.0788    0.0000 C   0  0  0  0  0  0  0  0  0  0  0  0
    9.4992   -8.4946    0.0000 O   0  0  0  0  0  0  0  0  0  0  0  0
    9.5068   -6.8447    0.0000 C   0  0  0  0  0  0  0  0  0  0  0  0
   10.2194   -7.2605    0.0000 C   0  0  0  0  0  0  0  0  0  0  0  0
   10.9396   -6.0263    0.0000 C   0  0  0  0  0  0  0  0  0  0  0  0
   10.9357   -6.8513    0.0000 C   0  0  0  0  0  0  0  0  0  0  0  0
   11.6483   -7.2671    0.0000 C   0  0  0  0  0  0  0  0  0  0  0  0
  1  2  2  0  0  0  0
  1  3  1  0  0  0  0
  3  4  2  0  0  0  0
  4  5  1  0  0  0  0
  5  6  2  0  0  0  0
  6  2  1  0  0  0  0
  2  9  1  0  0  0  0
  3  7  1  0  0  0  0
  8  4  1  0  0  0  0
 10  9  2  0  0  0  0
 10 13  1  0  0  0  0
 11 14  1  0  0  0  0
 13 12  2  0  0  0  0
 15 13  1  0  0  0  0
 14 18  1  0  0  0  0
 15 14  2  0  0  0  0
 16 15  1  0  0  0  0
 17 16  2  0  0  0  0
 19 17  1  0  0  0  0
 18 21  1  0  0  0  0
 19 18  2  0  0  0  0
 20 19  1  0  0  0  0
 22 21  1  0  0  0  0
 24 22  2  0  0  0  0
 24 23  1  0  0  0  0
 25 24  1  0  0  0  0
M  END
>  <cdx:fragmentId>
5

$$$$
