20360.cdx
  Mrv1902 05222410252D          

 22 24  0  0  0  0            999 V2000
    9.3243  -10.6639    0.0000 C   0  0  0  0  0  0  0  0  0  0  0  0
    8.6098  -11.9014    0.0000 C   0  0  0  0  0  0  0  0  0  0  0  0
    8.6098  -11.0764    0.0000 C   0  0  0  0  0  0  0  0  0  0  0  0
    7.8953  -10.6639    0.0000 C   0  0  0  0  0  0  0  0  0  0  0  0
    7.8953   -9.8389    0.0000 C   0  0  0  0  0  0  0  0  0  0  0  0
    7.1808   -9.4264    0.0000 O   0  0  0  0  0  0  0  0  0  0  0  0
    7.8953   -5.7139    0.0000 C   0  0  0  0  0  0  0  0  0  0  0  0
    7.1808   -6.1264    0.0000 O   0  0  0  0  0  0  0  0  0  0  0  0
    4.3230   -6.9514    0.0000 O   0  0  0  0  0  0  0  0  0  0  0  0
    8.6799   -7.1090    0.0000 O   0  0  0  0  0  0  0  0  0  0  0  0
    9.1649   -7.7764    0.0000 C   0  0  0  0  0  0  0  0  0  0  0  0
    8.6799   -8.4439    0.0000 C   0  0  0  0  0  0  0  0  0  0  0  0
    7.1808   -6.9514    0.0000 C   0  0  0  0  0  0  0  0  0  0  0  0
    7.8953   -7.3639    0.0000 C   0  0  0  0  0  0  0  0  0  0  0  0
    7.8953   -8.1889    0.0000 C   0  0  0  0  0  0  0  0  0  0  0  0
    7.1808   -8.6014    0.0000 C   0  0  0  0  0  0  0  0  0  0  0  0
    5.7519   -6.9514    0.0000 O   0  0  0  0  0  0  0  0  0  0  0  0
    6.4664   -7.3639    0.0000 C   0  0  0  0  0  0  0  0  0  0  0  0
    6.4664   -8.1889    0.0000 C   0  0  0  0  0  0  0  0  0  0  0  0
    5.7519   -8.6014    0.0000 C   0  0  0  0  0  0  0  0  0  0  0  0
    5.0374   -8.1889    0.0000 C   0  0  0  0  0  0  0  0  0  0  0  0
    5.0374   -7.3639    0.0000 C   0  0  0  0  0  0  0  0  0  0  0  0
  3  1  1  0  0  0  0
  3  2  1  0  0  0  0
  4  3  2  0  0  0  0
  5  4  1  0  0  0  0
  6  5  1  0  0  0  0
 16  6  1  0  0  0  0
  8  7  1  0  0  0  0
 13  8  1  0  0  0  0
 22  9  2  0  0  0  0
 10 14  1  0  0  0  0
 11 10  1  0  0  0  0
 12 11  2  0  0  0  0
 15 12  1  0  0  0  0
 13 18  2  0  0  0  0
 14 13  1  0  0  0  0
 15 14  2  0  0  0  0
 16 15  1  0  0  0  0
 19 16  2  0  0  0  0
 17 22  1  0  0  0  0
 18 17  1  0  0  0  0
 19 18  1  0  0  0  0
 20 19  1  0  0  0  0
 21 20  2  0  0  0  0
 22 21  1  0  0  0  0
M  END
>  <cdx:fragmentId>
5

$$$$
