20369.cdx
  Mrv1902 05222410222D          

 16 17  0  0  0  0            999 V2000
    5.0168   -6.7856    0.0000 C   0  0  0  0  0  0  0  0  0  0  0  0
    5.0168   -7.6106    0.0000 C   0  0  0  0  0  0  0  0  0  0  0  0
    5.7313   -8.0231    0.0000 C   0  0  0  0  0  0  0  0  0  0  0  0
    6.4457   -7.6106    0.0000 C   0  0  0  0  0  0  0  0  0  0  0  0
    6.4457   -6.7856    0.0000 C   0  0  0  0  0  0  0  0  0  0  0  0
    5.7313   -6.3731    0.0000 C   0  0  0  0  0  0  0  0  0  0  0  0
    7.2304   -7.8656    0.0000 N   0  0  0  0  0  0  0  0  0  0  0  0
    7.7153   -7.1981    0.0000 C   0  0  0  0  0  0  0  0  0  0  0  0
    7.2304   -6.5307    0.0000 C   0  0  0  0  0  0  0  0  0  0  0  0
    8.5403   -7.1981    0.0000 O   0  0  0  0  0  0  0  0  0  0  0  0
    7.0168   -5.7338    0.0000 O   0  0  0  0  0  0  0  0  0  0  0  0
    7.9448   -6.1182    0.0000 C   0  0  0  0  0  0  0  0  0  0  0  0
    7.9448   -5.2932    0.0000 C   0  0  0  0  0  0  0  0  0  0  0  0
    8.6593   -4.8807    0.0000 O   0  0  0  0  0  0  0  0  0  0  0  0
    7.2304   -4.8807    0.0000 O   0  0  0  0  0  0  0  0  0  0  0  0
    8.6593   -4.0557    0.0000 C   0  0  0  0  0  0  0  0  0  0  0  0
  1  2  2  0  0  0  0
  2  3  1  0  0  0  0
  3  4  2  0  0  0  0
  4  5  1  0  0  0  0
  5  6  2  0  0  0  0
  6  1  1  0  0  0  0
  4  7  1  0  0  0  0
  7  8  1  0  0  0  0
  8  9  1  0  0  0  0
  9  5  1  0  0  0  0
  8 10  2  0  0  0  0
  9 11  1  0  0  0  0
  9 12  1  0  0  0  0
 12 13  1  0  0  0  0
 13 14  1  0  0  0  0
 13 15  2  0  0  0  0
 14 16  1  0  0  0  0
M  END
>  <cdx:fragmentId>
6

$$$$
