20368.cdx
  Mrv1902 05222410222D          

 19 21  0  0  0  0            999 V2000
    3.2637   -7.8994    0.0000 C   0  0  0  0  0  0  0  0  0  0  0  0
    3.2637   -8.7244    0.0000 C   0  0  0  0  0  0  0  0  0  0  0  0
    3.9781   -9.1369    0.0000 C   0  0  0  0  0  0  0  0  0  0  0  0
    4.6926   -8.7244    0.0000 C   0  0  0  0  0  0  0  0  0  0  0  0
    4.6926   -7.8994    0.0000 C   0  0  0  0  0  0  0  0  0  0  0  0
    3.9781   -7.4869    0.0000 O   0  0  0  0  0  0  0  0  0  0  0  0
    5.4071   -9.1369    0.0000 C   0  0  0  0  0  0  0  0  0  0  0  0
    6.1216   -8.7244    0.0000 C   0  0  0  0  0  0  0  0  0  0  0  0
    6.1216   -7.8994    0.0000 C   0  0  0  0  0  0  0  0  0  0  0  0
    5.4071   -7.4869    0.0000 C   0  0  0  0  0  0  0  0  0  0  0  0
    6.9062   -8.9793    0.0000 C   0  0  0  0  0  0  0  0  0  0  0  0
    7.3911   -8.3119    0.0000 C   0  0  2  0  0  0  0  0  0  0  0  0
    6.9062   -7.6444    0.0000 O   0  0  0  0  0  0  0  0  0  0  0  0
    2.5492   -7.4869    0.0000 O   0  0  0  0  0  0  0  0  0  0  0  0
    8.2161   -8.3119    0.0000 C   0  0  0  0  0  0  0  0  0  0  0  0
    9.0411   -8.3119    0.0000 O   0  0  0  0  0  0  0  0  0  0  0  0
    8.2161   -7.4869    0.0000 C   0  0  0  0  0  0  0  0  0  0  0  0
    8.2161   -9.1369    0.0000 C   0  0  0  0  0  0  0  0  0  0  0  0
    7.8036   -7.5974    0.0000 H   0  0  0  0  0  0  0  0  0  0  0  0
  1  2  1  0  0  0  0
  2  3  2  0  0  0  0
  3  4  1  0  0  0  0
  4  5  1  0  0  0  0
  5  6  1  0  0  0  0
  6  1  1  0  0  0  0
  4  7  2  0  0  0  0
  7  8  1  0  0  0  0
  8  9  2  0  0  0  0
  9 10  1  0  0  0  0
 10  5  2  0  0  0  0
  8 11  1  0  0  0  0
 11 12  1  0  0  0  0
 12 13  1  0  0  0  0
 13  9  1  0  0  0  0
  1 14  2  0  0  0  0
 12 15  1  0  0  0  0
 15 16  1  0  0  0  0
 15 17  1  0  0  0  0
 15 18  1  0  0  0  0
 12 19  1  1  0  0  0
M  END
>  <cdx:fragmentId>
5

$$$$
