20370.cdx
  Mrv1902 05222410242D          

 14 15  0  0  0  0            999 V2000
    5.6791   -7.7756    0.0000 C   0  0  0  0  0  0  0  0  0  0  0  0
    5.6791   -8.6006    0.0000 C   0  0  0  0  0  0  0  0  0  0  0  0
    6.3241   -9.1150    0.0000 C   0  0  0  0  0  0  0  0  0  0  0  0
    7.1284   -8.9314    0.0000 C   0  0  0  0  0  0  0  0  0  0  0  0
    7.4864   -8.1881    0.0000 C   0  0  0  0  0  0  0  0  0  0  0  0
    7.1284   -7.4448    0.0000 N   0  0  0  0  0  0  0  0  0  0  0  0
    6.3241   -7.2612    0.0000 C   0  0  0  0  0  0  0  0  0  0  0  0
    4.9646   -7.3631    0.0000 C   0  0  0  0  0  0  0  0  0  0  0  0
    4.2501   -7.7756    0.0000 C   0  0  0  0  0  0  0  0  0  0  0  0
    4.2501   -8.6006    0.0000 C   0  0  0  0  0  0  0  0  0  0  0  0
    4.9646   -9.0131    0.0000 C   0  0  0  0  0  0  0  0  0  0  0  0
    7.6428   -9.5764    0.0000 O   0  0  0  0  0  0  0  0  0  0  0  0
    8.3114   -8.1881    0.0000 O   0  0  0  0  0  0  0  0  0  0  0  0
    6.1405   -6.4569    0.0000 O   0  0  0  0  0  0  0  0  0  0  0  0
  1  2  1  0  0  0  0
  2  3  1  0  0  0  0
  3  4  2  0  0  0  0
  4  5  1  0  0  0  0
  5  6  1  0  0  0  0
  6  7  1  0  0  0  0
  7  1  1  0  0  0  0
  1  8  2  0  0  0  0
  8  9  1  0  0  0  0
  9 10  2  0  0  0  0
 10 11  1  0  0  0  0
 11  2  2  0  0  0  0
  4 12  1  0  0  0  0
  5 13  2  0  0  0  0
  7 14  2  0  0  0  0
M  END
>  <cdx:fragmentId>
5

$$$$
