203734.cdx
  Mrv1902 05222410192D          

 50 55  0  0  0  0            999 V2000
   11.4728   -6.2287    0.0000 C   0  0  1  0  0  0  0  0  0  0  0  0
   12.1873   -5.8163    0.0000 C   0  0  1  0  0  0  0  0  0  0  0  0
   12.9018   -6.2287    0.0000 C   0  0  0  0  0  0  0  0  0  0  0  0
   12.9018   -7.0537    0.0000 C   0  0  0  0  0  0  0  0  0  0  0  0
   12.1873   -7.4663    0.0000 C   0  0  2  0  0  0  0  0  0  0  0  0
   12.1873   -8.2912    0.0000 C   0  0  0  0  0  0  0  0  0  0  0  0
   11.4728   -8.7037    0.0000 C   0  0  0  0  0  0  0  0  0  0  0  0
   10.7584   -8.2912    0.0000 C   0  0  1  0  0  0  0  0  0  0  0  0
   10.0439   -8.7037    0.0000 C   0  0  2  0  0  0  0  0  0  0  0  0
   10.0439   -9.5287    0.0000 C   0  0  0  0  0  0  0  0  0  0  0  0
    9.3294   -9.9413    0.0000 C   0  0  0  0  0  0  0  0  0  0  0  0
    8.6150   -9.5287    0.0000 C   0  0  1  0  0  0  0  0  0  0  0  0
    7.9005   -9.9413    0.0000 C   0  0  0  0  0  0  0  0  0  0  0  0
    7.1860   -9.5287    0.0000 C   0  0  2  0  0  0  0  0  0  0  0  0
    7.1860   -8.7037    0.0000 C   0  0  1  0  0  0  0  0  0  0  0  0
    7.9005   -8.2912    0.0000 C   0  0  0  0  0  0  0  0  0  0  0  0
    8.6150   -8.7037    0.0000 C   0  0  2  0  0  0  0  0  0  0  0  0
    9.3294   -8.2912    0.0000 C   0  0  1  0  0  0  0  0  0  0  0  0
    9.3294   -7.4663    0.0000 C   0  0  0  0  0  0  0  0  0  0  0  0
   10.0439   -7.0537    0.0000 C   0  0  0  0  0  0  0  0  0  0  0  0
   10.7584   -7.4663    0.0000 C   0  0  0  0  0  0  0  0  0  0  0  0
   11.4728   -7.0537    0.0000 C   0  0  2  0  0  0  0  0  0  0  0  0
   12.9018   -7.8788    0.0000 C   0  0  0  0  0  0  0  0  0  0  0  0
   12.9018   -8.7037    0.0000 O   0  0  0  0  0  0  0  0  0  0  0  0
   13.6163   -7.4663    0.0000 O   0  0  0  0  0  0  0  0  0  0  0  0
    8.3130  -10.6557    0.0000 C   0  0  0  0  0  0  0  0  0  0  0  0
    7.4880  -10.6557    0.0000 C   0  0  0  0  0  0  0  0  0  0  0  0
   12.1873   -4.9913    0.0000 C   0  0  0  0  0  0  0  0  0  0  0  0
   11.0603   -5.5143    0.0000 C   0  0  0  0  0  0  0  0  0  0  0  0
    6.4715   -9.9413    0.0000 O   0  0  0  0  0  0  0  0  0  0  0  0
    5.7571   -9.5287    0.0000 C   0  0  0  0  0  0  0  0  0  0  0  0
    5.0426   -9.9413    0.0000 C   0  0  0  0  0  0  0  0  0  0  0  0
    4.3281   -9.5287    0.0000 C   0  0  0  0  0  0  0  0  0  0  0  0
    5.7571   -8.7037    0.0000 O   0  0  0  0  0  0  0  0  0  0  0  0
    3.6137   -9.9413    0.0000 C   0  0  0  0  0  0  0  0  0  0  0  0
    3.6137  -10.7663    0.0000 C   0  0  0  0  0  0  0  0  0  0  0  0
    2.8992  -11.1788    0.0000 C   0  0  0  0  0  0  0  0  0  0  0  0
    2.1847  -10.7663    0.0000 C   0  0  0  0  0  0  0  0  0  0  0  0
    2.1847   -9.9412    0.0000 C   0  0  0  0  0  0  0  0  0  0  0  0
    2.8992   -9.5287    0.0000 C   0  0  0  0  0  0  0  0  0  0  0  0
    1.4702  -11.1788    0.0000 O   0  0  0  0  0  0  0  0  0  0  0  0
    8.6150  -10.3537    0.0000 H   0  0  0  0  0  0  0  0  0  0  0  0
   11.4728   -7.8788    0.0000 H   0  0  0  0  0  0  0  0  0  0  0  0
    8.6150   -7.8788    0.0000 C   0  0  0  0  0  0  0  0  0  0  0  0
   10.0439   -7.8788    0.0000 C   0  0  0  0  0  0  0  0  0  0  0  0
   10.7584   -9.1162    0.0000 C   0  0  0  0  0  0  0  0  0  0  0  0
    9.3294   -9.1162    0.0000 H   0  0  0  0  0  0  0  0  0  0  0  0
   10.6478   -6.2287    0.0000 O   0  0  0  0  0  0  0  0  0  0  0  0
    6.4715   -8.2912    0.0000 O   0  0  0  0  0  0  0  0  0  0  0  0
    0.7558  -10.7663    0.0000 C   0  0  0  0  0  0  0  0  0  0  0  0
  1  2  1  0  0  0  0
  2  3  1  0  0  0  0
  3  4  1  0  0  0  0
  4  5  1  0  0  0  0
  5  6  1  0  0  0  0
  6  7  1  0  0  0  0
  7  8  1  0  0  0  0
  8  9  1  0  0  0  0
  9 10  1  0  0  0  0
 10 11  1  0  0  0  0
 11 12  1  0  0  0  0
 12 13  1  0  0  0  0
 13 14  1  0  0  0  0
 14 15  1  0  0  0  0
 15 16  1  0  0  0  0
 16 17  1  0  0  0  0
 12 17  1  0  0  0  0
 17 18  1  0  0  0  0
  9 18  1  0  0  0  0
 18 19  1  0  0  0  0
 19 20  1  0  0  0  0
 20 21  2  0  0  0  0
  8 21  1  0  0  0  0
 21 22  1  0  0  0  0
  5 22  1  0  0  0  0
  1 22  1  0  0  0  0
 23 24  2  0  0  0  0
 23 25  1  0  0  0  0
  5 23  1  1  0  0  0
 13 26  1  0  0  0  0
 13 27  1  0  0  0  0
  2 28  1  6  0  0  0
  1 29  1  1  0  0  0
 31 32  1  0  0  0  0
 32 33  2  0  0  0  0
 31 34  2  0  0  0  0
 35 36  1  0  0  0  0
 36 37  2  0  0  0  0
 37 38  1  0  0  0  0
 38 39  2  0  0  0  0
 39 40  1  0  0  0  0
 35 40  2  0  0  0  0
 38 41  1  0  0  0  0
 33 35  1  0  0  0  0
 30 31  1  0  0  0  0
 14 30  1  1  0  0  0
 12 42  1  6  0  0  0
 22 43  1  1  0  0  0
 17 44  1  1  0  0  0
  9 45  1  1  0  0  0
  8 46  1  6  0  0  0
 18 47  1  6  0  0  0
  1 48  1  6  0  0  0
 15 49  1  6  0  0  0
 41 50  1  0  0  0  0
M  END
>  <cdx:fragmentId>
146352

$$$$
