20376.cdx
  Mrv1902 05222410252D          

 38 43  0  0  0  0            999 V2000
    7.7463   -6.1784    0.0000 C   0  0  2  0  0  0  0  0  0  0  0  0
    8.1064   -6.9207    0.0000 C   0  0  1  0  0  0  0  0  0  0  0  0
    7.7506   -7.6650    0.0000 C   0  0  1  0  0  0  0  0  0  0  0  0
    6.9468   -7.8510    0.0000 C   0  0  1  0  0  0  0  0  0  0  0  0
    6.3003   -7.3385    0.0000 C   0  0  1  0  0  0  0  0  0  0  0  0
    6.2979   -6.5135    0.0000 C   0  0  2  0  0  0  0  0  0  0  0  0
    6.9414   -5.9972    0.0000 C   0  0  2  0  0  0  0  0  0  0  0  0
    5.5871   -7.7530    0.0000 C   0  0  2  0  0  0  0  0  0  0  0  0
    4.8714   -7.3426    0.0000 C   0  0  0  0  0  0  0  0  0  0  0  0
    4.8690   -6.5176    0.0000 C   0  0  0  0  0  0  0  0  0  0  0  0
    5.5822   -6.1030    0.0000 C   0  0  2  0  0  0  0  0  0  0  0  0
    6.8651   -5.1757    0.0000 C   0  0  0  0  0  0  0  0  0  0  0  0
    7.6227   -4.8493    0.0000 C   0  0  1  0  0  0  0  0  0  0  0  0
    8.1673   -5.4690    0.0000 C   0  0  2  0  0  0  0  0  0  0  0  0
    5.5798   -5.2781    0.0000 O   0  0  0  0  0  0  0  0  0  0  0  0
    4.8687   -4.8599    0.0000 C   0  0  0  0  0  0  0  0  0  0  0  0
    5.5895   -8.5780    0.0000 C   0  0  0  0  0  0  0  0  0  0  0  0
    4.8762   -8.9926    0.0000 O   0  0  0  0  0  0  0  0  0  0  0  0
    4.8786   -9.8176    0.0000 C   0  0  0  0  0  0  0  0  0  0  0  0
    6.2975   -5.8575    0.0000 C   0  0  0  0  0  0  0  0  0  0  0  0
    5.5825   -6.8750    0.0000 N   0  0  0  0  0  0  0  0  0  0  0  0
    4.8675   -8.0575    0.0000 C   0  0  0  0  0  0  0  0  0  0  0  0
    8.9050   -6.7135    0.0000 C   0  0  2  0  0  0  0  0  0  0  0  0
    8.8825   -5.0050    0.0000 C   0  0  2  0  0  0  0  0  0  0  0  0
    8.3199   -7.7176    0.0000 O   0  0  0  0  0  0  0  0  0  0  0  0
    9.4875   -5.4175    0.0000 O   0  0  0  0  0  0  0  0  0  0  0  0
    6.2937   -8.1634    0.0000 H   0  0  0  0  0  0  0  0  0  0  0  0
    6.3581   -5.4138    0.0000 H   0  0  0  0  0  0  0  0  0  0  0  0
    8.5712   -6.1850    0.0000 H   0  0  0  0  0  0  0  0  0  0  0  0
    7.6227   -4.0243    0.0000 O   0  0  0  0  0  0  0  0  0  0  0  0
    7.7506   -8.4900    0.0000 H   0  0  0  0  0  0  0  0  0  0  0  0
    4.4000   -6.8750    0.0000 C   0  0  0  0  0  0  0  0  0  0  0  0
    6.9468   -8.6760    0.0000 O   0  0  0  0  0  0  0  0  0  0  0  0
    6.2324   -9.0885    0.0000 C   0  0  0  0  0  0  0  0  0  0  0  0
    9.7018   -6.9271    0.0000 O   0  0  0  0  0  0  0  0  0  0  0  0
    9.1122   -7.9267    0.0000 C   0  0  0  0  0  0  0  0  0  0  0  0
    9.4970   -4.4545    0.0000 O   0  0  0  0  0  0  0  0  0  0  0  0
    9.4970   -3.6295    0.0000 C   0  0  0  0  0  0  0  0  0  0  0  0
  1  2  1  0  0  0  0
  2  3  1  0  0  0  0
  3  4  1  0  0  0  0
  4  5  1  0  0  0  0
  5  6  1  0  0  0  0
  6  7  1  0  0  0  0
  7  1  1  0  0  0  0
  5  8  1  0  0  0  0
  8  9  1  0  0  0  0
  9 10  1  0  0  0  0
 10 11  1  0  0  0  0
  6 11  1  1  0  0  0
  7 12  1  0  0  0  0
 12 13  1  0  0  0  0
 13 14  1  0  0  0  0
 14  1  1  0  0  0  0
 11 15  1  6  0  0  0
 15 16  1  0  0  0  0
  8 17  1  1  0  0  0
 17 18  1  0  0  0  0
 18 19  1  0  0  0  0
  6 20  1  0  0  0  0
  3 20  1  0  0  0  0
 20 21  1  0  0  0  0
 21 22  1  0  0  0  0
  8 22  1  0  0  0  0
  2 23  1  0  0  0  0
 13 24  1  0  0  0  0
 24 23  1  0  0  0  0
  2 25  1  1  0  0  0
 14 26  1  6  0  0  0
  5 27  1  1  0  0  0
  7 28  1  1  0  0  0
  1 29  1  1  0  0  0
 13 30  1  1  0  0  0
  3 31  1  6  0  0  0
 21 32  1  0  0  0  0
  4 33  1  6  0  0  0
 33 34  1  0  0  0  0
 23 35  1  6  0  0  0
 25 36  1  0  0  0  0
 24 37  1  1  0  0  0
 37 38  1  0  0  0  0
M  END
>  <cdx:fragmentId>
491

$$$$
