20379.cdx
  Mrv1902 05222410212D          

 39 45  0  0  0  0            999 V2000
    4.9253   -8.9335    0.0000 C   0  0  0  0  0  0  0  0  0  0  0  0
    4.9229   -8.1085    0.0000 C   0  0  2  0  0  0  0  0  0  0  0  0
    4.2121   -9.3480    0.0000 C   0  0  2  0  0  0  0  0  0  0  0  0
    3.4964   -8.9376    0.0000 C   0  0  0  0  0  0  0  0  0  0  0  0
    3.4940   -8.1126    0.0000 C   0  0  0  0  0  0  0  0  0  0  0  0
    4.2072   -7.6980    0.0000 C   0  0  2  0  0  0  0  0  0  0  0  0
    4.2048   -6.8731    0.0000 O   0  0  0  0  0  0  0  0  0  0  0  0
    4.2145  -10.1730    0.0000 C   0  0  0  0  0  0  0  0  0  0  0  0
    4.9225   -7.4525    0.0000 C   0  0  0  0  0  0  0  0  0  0  0  0
    4.2075   -8.4700    0.0000 N   0  0  0  0  0  0  0  0  0  0  0  0
    3.4925   -9.6525    0.0000 C   0  0  0  0  0  0  0  0  0  0  0  0
    3.0250   -8.4700    0.0000 C   0  0  0  0  0  0  0  0  0  0  0  0
    2.4416   -7.8866    0.0000 C   0  0  0  0  0  0  0  0  0  0  0  0
    5.6410   -9.3439    0.0000 C   0  0  0  0  0  0  0  0  0  0  0  0
    6.3543   -8.9335    0.0000 C   0  0  0  0  0  0  0  0  0  0  0  0
    6.3543   -8.1085    0.0000 C   0  0  0  0  0  0  0  0  0  0  0  0
    5.6410   -7.6980    0.0000 C   0  0  0  0  0  0  0  0  0  0  0  0
    7.0663   -7.6980    0.0000 C   0  0  2  0  0  0  0  0  0  0  0  0
    7.0663   -6.8751    0.0000 C   0  0  1  0  0  0  0  0  0  0  0  0
    6.3543   -6.4647    0.0000 C   0  0  0  0  0  0  0  0  0  0  0  0
    5.6410   -6.8751    0.0000 C   0  0  2  0  0  0  0  0  0  0  0  0
    4.9268   -6.4621    0.0000 O   0  0  0  0  0  0  0  0  0  0  0  0
    7.7806   -6.4624    0.0000 C   0  0  0  0  0  0  0  0  0  0  0  0
    7.7806   -8.1108    0.0000 O   0  0  0  0  0  0  0  0  0  0  0  0
    7.0663   -6.0522    0.0000 O   0  0  0  0  0  0  0  0  0  0  0  0
    5.9418   -7.3940    0.0000 C   0  0  0  0  0  0  0  0  0  0  0  0
    5.9418   -5.7502    0.0000 C   0  0  0  0  0  0  0  0  0  0  0  0
    7.7803   -8.9358    0.0000 C   0  0  0  0  0  0  0  0  0  0  0  0
    8.4947   -9.3486    0.0000 C   0  0  0  0  0  0  0  0  0  0  0  0
    7.0657   -9.3480    0.0000 O   0  0  0  0  0  0  0  0  0  0  0  0
    8.4953   -6.8746    0.0000 O   0  0  0  0  0  0  0  0  0  0  0  0
    9.2096   -6.4618    0.0000 C   0  0  0  0  0  0  0  0  0  0  0  0
    9.9242   -6.8741    0.0000 C   0  0  0  0  0  0  0  0  0  0  0  0
    9.2093   -5.6368    0.0000 O   0  0  0  0  0  0  0  0  0  0  0  0
    9.9247   -7.6991    0.0000 C   0  0  0  0  0  0  0  0  0  0  0  0
   10.6393   -8.1112    0.0000 C   0  0  0  0  0  0  0  0  0  0  0  0
   11.3536   -7.6991    0.0000 C   0  0  0  0  0  0  0  0  0  0  0  0
   11.3536   -6.8741    0.0000 C   0  0  0  0  0  0  0  0  0  0  0  0
   10.6393   -6.4620    0.0000 C   0  0  0  0  0  0  0  0  0  0  0  0
  1  2  1  0  0  0  0
  1  3  1  0  0  0  0
  3  4  1  0  0  0  0
  4  5  1  0  0  0  0
  5  6  1  0  0  0  0
  2  6  1  1  0  0  0
  6  7  1  6  0  0  0
  3  8  1  1  0  0  0
  2  9  1  0  0  0  0
  9 10  1  0  0  0  0
 10 11  1  0  0  0  0
  3 11  1  0  0  0  0
 10 12  1  0  0  0  0
 12 13  1  0  0  0  0
  1 14  1  0  0  0  0
 14 15  1  0  0  0  0
 15 16  1  0  0  0  0
 16 17  1  0  0  0  0
 17  2  1  0  0  0  0
 16 18  1  0  0  0  0
 18 19  1  0  0  0  0
 19 20  1  0  0  0  0
 20 21  1  0  0  0  0
 21 17  1  0  0  0  0
  9 15  1  0  0  0  0
 21 22  1  1  0  0  0
 19 23  1  1  0  0  0
 18 24  1  6  0  0  0
 19 25  1  6  0  0  0
 16 26  1  0  0  0  0
 20 27  1  0  0  0  0
 27 26  1  0  0  0  0
 24 28  1  0  0  0  0
 28 29  1  0  0  0  0
 28 30  2  0  0  0  0
 23 31  1  0  0  0  0
 31 32  1  0  0  0  0
 32 33  1  0  0  0  0
 32 34  2  0  0  0  0
 33 35  2  0  0  0  0
 35 36  1  0  0  0  0
 36 37  2  0  0  0  0
 37 38  1  0  0  0  0
 38 39  2  0  0  0  0
 39 33  1  0  0  0  0
M  END
>  <cdx:fragmentId>
491

$$$$
