203733.cdx
  Mrv1902 05222410182D          

 49 54  0  0  0  0            999 V2000
   11.3078   -6.2287    0.0000 C   0  0  1  0  0  0  0  0  0  0  0  0
   12.0223   -5.8163    0.0000 C   0  0  1  0  0  0  0  0  0  0  0  0
   12.7368   -6.2287    0.0000 C   0  0  0  0  0  0  0  0  0  0  0  0
   12.7368   -7.0537    0.0000 C   0  0  0  0  0  0  0  0  0  0  0  0
   12.0223   -7.4663    0.0000 C   0  0  2  0  0  0  0  0  0  0  0  0
   12.0223   -8.2912    0.0000 C   0  0  0  0  0  0  0  0  0  0  0  0
   11.3078   -8.7037    0.0000 C   0  0  0  0  0  0  0  0  0  0  0  0
   10.5934   -8.2912    0.0000 C   0  0  1  0  0  0  0  0  0  0  0  0
    9.8789   -8.7037    0.0000 C   0  0  2  0  0  0  0  0  0  0  0  0
    9.8789   -9.5287    0.0000 C   0  0  0  0  0  0  0  0  0  0  0  0
    9.1644   -9.9413    0.0000 C   0  0  0  0  0  0  0  0  0  0  0  0
    8.4500   -9.5287    0.0000 C   0  0  1  0  0  0  0  0  0  0  0  0
    7.7355   -9.9413    0.0000 C   0  0  0  0  0  0  0  0  0  0  0  0
    7.0210   -9.5287    0.0000 C   0  0  2  0  0  0  0  0  0  0  0  0
    7.0210   -8.7037    0.0000 C   0  0  1  0  0  0  0  0  0  0  0  0
    7.7355   -8.2912    0.0000 C   0  0  0  0  0  0  0  0  0  0  0  0
    8.4500   -8.7037    0.0000 C   0  0  2  0  0  0  0  0  0  0  0  0
    9.1644   -8.2912    0.0000 C   0  0  1  0  0  0  0  0  0  0  0  0
    9.1644   -7.4663    0.0000 C   0  0  0  0  0  0  0  0  0  0  0  0
    9.8789   -7.0537    0.0000 C   0  0  0  0  0  0  0  0  0  0  0  0
   10.5934   -7.4663    0.0000 C   0  0  0  0  0  0  0  0  0  0  0  0
   11.3078   -7.0537    0.0000 C   0  0  2  0  0  0  0  0  0  0  0  0
   12.7368   -7.8788    0.0000 C   0  0  0  0  0  0  0  0  0  0  0  0
   12.7368   -8.7037    0.0000 O   0  0  0  0  0  0  0  0  0  0  0  0
   13.4513   -7.4663    0.0000 O   0  0  0  0  0  0  0  0  0  0  0  0
    8.1480  -10.6557    0.0000 C   0  0  0  0  0  0  0  0  0  0  0  0
    7.3230  -10.6557    0.0000 C   0  0  0  0  0  0  0  0  0  0  0  0
   12.0223   -4.9913    0.0000 C   0  0  0  0  0  0  0  0  0  0  0  0
   10.8953   -5.5143    0.0000 C   0  0  0  0  0  0  0  0  0  0  0  0
    6.3065   -9.9413    0.0000 O   0  0  0  0  0  0  0  0  0  0  0  0
    5.5921   -9.5287    0.0000 C   0  0  0  0  0  0  0  0  0  0  0  0
    4.8776   -9.9413    0.0000 C   0  0  0  0  0  0  0  0  0  0  0  0
    4.1631   -9.5287    0.0000 C   0  0  0  0  0  0  0  0  0  0  0  0
    5.5921   -8.7037    0.0000 O   0  0  0  0  0  0  0  0  0  0  0  0
    3.4487   -9.9413    0.0000 C   0  0  0  0  0  0  0  0  0  0  0  0
    3.4487  -10.7663    0.0000 C   0  0  0  0  0  0  0  0  0  0  0  0
    2.7342  -11.1788    0.0000 C   0  0  0  0  0  0  0  0  0  0  0  0
    2.0197  -10.7663    0.0000 C   0  0  0  0  0  0  0  0  0  0  0  0
    2.0197   -9.9412    0.0000 C   0  0  0  0  0  0  0  0  0  0  0  0
    2.7342   -9.5287    0.0000 C   0  0  0  0  0  0  0  0  0  0  0  0
    1.3052  -11.1788    0.0000 O   0  0  0  0  0  0  0  0  0  0  0  0
    8.4500  -10.3537    0.0000 H   0  0  0  0  0  0  0  0  0  0  0  0
   11.3078   -7.8788    0.0000 H   0  0  0  0  0  0  0  0  0  0  0  0
    8.4500   -7.8788    0.0000 C   0  0  0  0  0  0  0  0  0  0  0  0
    9.8789   -7.8788    0.0000 C   0  0  0  0  0  0  0  0  0  0  0  0
   10.5934   -9.1162    0.0000 C   0  0  0  0  0  0  0  0  0  0  0  0
    9.1644   -9.1162    0.0000 H   0  0  0  0  0  0  0  0  0  0  0  0
   10.4828   -6.2287    0.0000 O   0  0  0  0  0  0  0  0  0  0  0  0
    6.3065   -8.2912    0.0000 O   0  0  0  0  0  0  0  0  0  0  0  0
  1  2  1  0  0  0  0
  2  3  1  0  0  0  0
  3  4  1  0  0  0  0
  4  5  1  0  0  0  0
  5  6  1  0  0  0  0
  6  7  1  0  0  0  0
  7  8  1  0  0  0  0
  8  9  1  0  0  0  0
  9 10  1  0  0  0  0
 10 11  1  0  0  0  0
 11 12  1  0  0  0  0
 12 13  1  0  0  0  0
 13 14  1  0  0  0  0
 14 15  1  0  0  0  0
 15 16  1  0  0  0  0
 16 17  1  0  0  0  0
 12 17  1  0  0  0  0
 17 18  1  0  0  0  0
  9 18  1  0  0  0  0
 18 19  1  0  0  0  0
 19 20  1  0  0  0  0
 20 21  2  0  0  0  0
  8 21  1  0  0  0  0
 21 22  1  0  0  0  0
  5 22  1  0  0  0  0
  1 22  1  0  0  0  0
 23 24  2  0  0  0  0
 23 25  1  0  0  0  0
  5 23  1  1  0  0  0
 13 26  1  0  0  0  0
 13 27  1  0  0  0  0
  2 28  1  6  0  0  0
  1 29  1  1  0  0  0
 31 32  1  0  0  0  0
 32 33  2  0  0  0  0
 31 34  2  0  0  0  0
 35 36  1  0  0  0  0
 36 37  2  0  0  0  0
 37 38  1  0  0  0  0
 38 39  2  0  0  0  0
 39 40  1  0  0  0  0
 35 40  2  0  0  0  0
 38 41  1  0  0  0  0
 33 35  1  0  0  0  0
 30 31  1  0  0  0  0
 14 30  1  1  0  0  0
 12 42  1  6  0  0  0
 22 43  1  1  0  0  0
 17 44  1  1  0  0  0
  9 45  1  1  0  0  0
  8 46  1  6  0  0  0
 18 47  1  6  0  0  0
  1 48  1  6  0  0  0
 15 49  1  6  0  0  0
M  END
>  <cdx:fragmentId>
146352

$$$$
