20380.cdx
  Mrv1902 05222410232D          

 49 55  0  0  0  0            999 V2000
    5.8575   -7.2188    0.0000 C   0  0  1  0  0  0  0  0  0  0  0  0
    5.8575   -8.0437    0.0000 C   0  0  1  0  0  0  0  0  0  0  0  0
    5.1430   -8.4563    0.0000 C   0  0  1  0  0  0  0  0  0  0  0  0
    4.4285   -8.0437    0.0000 C   0  0  0  0  0  0  0  0  0  0  0  0
    4.4285   -7.2188    0.0000 C   0  0  0  0  0  0  0  0  0  0  0  0
    5.1430   -6.8062    0.0000 C   0  0  2  0  0  0  0  0  0  0  0  0
    6.5025   -6.7044    0.0000 C   0  0  1  0  0  0  0  0  0  0  0  0
    7.3068   -6.8880    0.0000 C   0  0  1  0  0  0  0  0  0  0  0  0
    7.6647   -7.6313    0.0000 C   0  0  1  0  0  0  0  0  0  0  0  0
    7.3068   -8.3745    0.0000 C   0  0  1  0  0  0  0  0  0  0  0  0
    6.5025   -8.5581    0.0000 C   0  0  2  0  0  0  0  0  0  0  0  0
    6.4285   -5.8827    0.0000 C   0  0  0  0  0  0  0  0  0  0  0  0
    7.1871   -5.5584    0.0000 C   0  0  1  0  0  0  0  0  0  0  0  0
    7.7299   -6.1797    0.0000 C   0  0  2  0  0  0  0  0  0  0  0  0
    3.8642   -8.4150    0.0000 C   0  0  0  0  0  0  0  0  0  0  0  0
    5.0325   -7.2188    0.0000 C   0  0  1  0  0  0  0  0  0  0  0  0
    3.8775   -7.7275    0.0000 N   0  0  0  0  0  0  0  0  0  0  0  0
    8.4378   -5.8957    0.0000 C   0  0  2  0  0  0  0  0  0  0  0  0
    8.4616   -7.4177    0.0000 C   0  0  0  0  0  0  0  0  0  0  0  0
    8.2481   -8.2146    0.0000 O   0  0  0  0  0  0  0  0  0  0  0  0
    9.0450   -8.0011    0.0000 C   0  0  0  0  0  0  0  0  0  0  0  0
    9.6283   -8.5845    0.0000 C   0  0  0  0  0  0  0  0  0  0  0  0
    9.2585   -7.2042    0.0000 O   0  0  0  0  0  0  0  0  0  0  0  0
   10.4252   -8.3709    0.0000 C   0  0  0  0  0  0  0  0  0  0  0  0
   11.0086   -8.9543    0.0000 C   0  0  0  0  0  0  0  0  0  0  0  0
   10.7951   -9.7512    0.0000 C   0  0  0  0  0  0  0  0  0  0  0  0
    9.9982   -9.9647    0.0000 C   0  0  0  0  0  0  0  0  0  0  0  0
    9.4148   -9.3813    0.0000 C   0  0  0  0  0  0  0  0  0  0  0  0
   11.3784  -10.3345    0.0000 O   0  0  0  0  0  0  0  0  0  0  0  0
    9.7847  -10.7616    0.0000 O   0  0  0  0  0  0  0  0  0  0  0  0
   12.1753  -10.1210    0.0000 C   0  0  0  0  0  0  0  0  0  0  0  0
   10.1972  -11.4761    0.0000 C   0  0  0  0  0  0  0  0  0  0  0  0
    6.9150   -9.2726    0.0000 O   0  0  0  0  0  0  0  0  0  0  0  0
    6.5025   -9.9871    0.0000 C   0  0  0  0  0  0  0  0  0  0  0  0
    5.1430   -9.2813    0.0000 C   0  0  0  0  0  0  0  0  0  0  0  0
    4.4285   -9.6937    0.0000 O   0  0  0  0  0  0  0  0  0  0  0  0
    4.4285  -10.5188    0.0000 C   0  0  0  0  0  0  0  0  0  0  0  0
    7.1292   -4.7355    0.0000 H   0  0  0  0  0  0  0  0  0  0  0  0
    9.0887   -5.3889    0.0000 O   0  0  0  0  0  0  0  0  0  0  0  0
    8.1318   -6.8880    0.0000 H   0  0  0  0  0  0  0  0  0  0  0  0
    5.7880   -6.2919    0.0000 H   0  0  0  0  0  0  0  0  0  0  0  0
    5.8575   -8.8688    0.0000 H   0  0  0  0  0  0  0  0  0  0  0  0
    8.5549   -6.1797    0.0000 O   0  0  0  0  0  0  0  0  0  0  0  0
    5.1430   -5.9813    0.0000 O   0  0  0  0  0  0  0  0  0  0  0  0
    4.6200   -6.5043    0.0000 H   0  0  0  0  0  0  0  0  0  0  0  0
    7.8212   -9.0196    0.0000 H   0  0  0  0  0  0  0  0  0  0  0  0
    9.0887   -4.5639    0.0000 C   0  0  0  0  0  0  0  0  0  0  0  0
    3.1909   -7.2702    0.0000 C   0  0  0  0  0  0  0  0  0  0  0  0
    2.4515   -7.6361    0.0000 C   0  0  0  0  0  0  0  0  0  0  0  0
  1  2  1  0  0  0  0
  2  3  1  0  0  0  0
  3  4  1  0  0  0  0
  4  5  1  0  0  0  0
  5  6  1  0  0  0  0
  1  6  1  1  0  0  0
  1  7  1  0  0  0  0
  7  8  1  0  0  0  0
  8  9  1  0  0  0  0
  9 10  1  0  0  0  0
 10 11  1  0  0  0  0
 11  2  1  0  0  0  0
  7 12  1  0  0  0  0
 12 13  1  0  0  0  0
 13 14  1  0  0  0  0
 14  8  1  0  0  0  0
  3 15  1  0  0  0  0
  1 16  1  0  0  0  0
 16 17  1  0  0  0  0
 15 17  1  0  0  0  0
 13 18  1  0  0  0  0
  9 19  1  0  0  0  0
 18 19  1  0  0  0  0
  9 20  1  1  0  0  0
 20 21  1  0  0  0  0
 21 22  1  0  0  0  0
 21 23  2  0  0  0  0
 22 24  2  0  0  0  0
 24 25  1  0  0  0  0
 25 26  2  0  0  0  0
 26 27  1  0  0  0  0
 27 28  2  0  0  0  0
 28 22  1  0  0  0  0
 26 29  1  0  0  0  0
 27 30  1  0  0  0  0
 29 31  1  0  0  0  0
 30 32  1  0  0  0  0
 11 33  1  6  0  0  0
 33 34  1  0  0  0  0
  3 35  1  1  0  0  0
 35 36  1  0  0  0  0
 36 37  1  0  0  0  0
 13 38  1  1  0  0  0
 18 39  1  1  0  0  0
  8 40  1  1  0  0  0
  7 41  1  1  0  0  0
  2 42  1  1  0  0  0
 10 16  1  0  0  0  0
 14 43  1  6  0  0  0
  6 44  1  6  0  0  0
 16 45  1  6  0  0  0
 10 46  1  6  0  0  0
 39 47  1  0  0  0  0
 17 48  1  0  0  0  0
 48 49  1  0  0  0  0
M  END
>  <cdx:fragmentId>
5

$$$$
