20385.cdx
  Mrv1902 05222410212D          

 35 41  0  0  0  0            999 V2000
    7.7188   -7.6909    0.0000 C   0  0  2  0  0  0  0  0  0  0  0  0
    8.0789   -8.4332    0.0000 C   0  0  1  0  0  0  0  0  0  0  0  0
    7.7231   -9.1775    0.0000 C   0  0  2  0  0  0  0  0  0  0  0  0
    6.9193   -9.3635    0.0000 C   0  0  2  0  0  0  0  0  0  0  0  0
    6.2728   -8.8510    0.0000 C   0  0  1  0  0  0  0  0  0  0  0  0
    6.2704   -8.0260    0.0000 C   0  0  0  0  0  0  0  0  0  0  0  0
    6.9139   -7.5097    0.0000 C   0  0  2  0  0  0  0  0  0  0  0  0
    5.5596   -9.2655    0.0000 C   0  0  2  0  0  0  0  0  0  0  0  0
    4.8439   -8.8551    0.0000 C   0  0  0  0  0  0  0  0  0  0  0  0
    4.8415   -8.0301    0.0000 C   0  0  0  0  0  0  0  0  0  0  0  0
    5.5547   -7.6155    0.0000 C   0  0  2  0  0  0  0  0  0  0  0  0
    6.8376   -6.6882    0.0000 C   0  0  0  0  0  0  0  0  0  0  0  0
    7.5952   -6.3618    0.0000 C   0  0  0  0  0  0  0  0  0  0  0  0
    8.1398   -6.9815    0.0000 C   0  0  0  0  0  0  0  0  0  0  0  0
    5.5523   -6.7906    0.0000 O   0  0  0  0  0  0  0  0  0  0  0  0
    4.8412   -6.3724    0.0000 C   0  0  0  0  0  0  0  0  0  0  0  0
    5.5620  -10.0905    0.0000 C   0  0  0  0  0  0  0  0  0  0  0  0
    6.2700   -7.3700    0.0000 C   0  0  0  0  0  0  0  0  0  0  0  0
    5.5550   -8.3875    0.0000 N   0  0  0  0  0  0  0  0  0  0  0  0
    4.8400   -9.5700    0.0000 C   0  0  0  0  0  0  0  0  0  0  0  0
    8.8775   -8.2260    0.0000 C   0  0  0  0  0  0  0  0  0  0  0  0
    8.9100   -6.5450    0.0000 C   0  0  2  0  0  0  0  0  0  0  0  0
    9.2675   -7.0125    0.0000 O   0  0  0  0  0  0  0  0  0  0  0  0
    6.2662   -9.6759    0.0000 H   0  0  0  0  0  0  0  0  0  0  0  0
    6.3306   -6.9263    0.0000 O   0  0  0  0  0  0  0  0  0  0  0  0
    8.5437   -7.6975    0.0000 H   0  0  0  0  0  0  0  0  0  0  0  0
    4.3725   -8.3875    0.0000 C   0  0  0  0  0  0  0  0  0  0  0  0
    9.6245   -6.1325    0.0000 O   0  0  0  0  0  0  0  0  0  0  0  0
    9.6245   -5.3075    0.0000 C   0  0  0  0  0  0  0  0  0  0  0  0
    3.7891   -7.8041    0.0000 C   0  0  0  0  0  0  0  0  0  0  0  0
    6.9193  -10.1885    0.0000 O   0  0  0  0  0  0  0  0  0  0  0  0
    8.4425   -9.7625    0.0000 O   0  0  0  0  0  0  0  0  0  0  0  0
    9.0475   -8.5800    0.0000 O   0  0  0  0  0  0  0  0  0  0  0  0
    9.2125   -9.3500    0.0000 C   0  0  0  0  0  0  0  0  0  0  0  0
    9.8509   -7.5959    0.0000 C   0  0  0  0  0  0  0  0  0  0  0  0
  1  2  1  0  0  0  0
  2  3  1  0  0  0  0
  3  4  1  0  0  0  0
  4  5  1  0  0  0  0
  5  6  1  0  0  0  0
  6  7  1  0  0  0  0
  7  1  1  0  0  0  0
  5  8  1  0  0  0  0
  8  9  1  0  0  0  0
  9 10  1  0  0  0  0
 10 11  1  0  0  0  0
 11  6  1  0  0  0  0
  7 12  1  0  0  0  0
 12 13  1  0  0  0  0
 13 14  1  0  0  0  0
 14  1  1  0  0  0  0
 11 15  1  6  0  0  0
 15 16  1  0  0  0  0
  8 17  1  1  0  0  0
  6 18  1  0  0  0  0
  3 18  1  0  0  0  0
 18 19  1  0  0  0  0
 19 20  1  0  0  0  0
  8 20  1  0  0  0  0
  2 21  1  0  0  0  0
 13 22  1  0  0  0  0
 22 21  1  0  0  0  0
 14 23  1  0  0  0  0
  5 24  1  1  0  0  0
  7 25  1  1  0  0  0
  1 26  1  1  0  0  0
 19 27  1  0  0  0  0
 22 28  1  1  0  0  0
 28 29  1  0  0  0  0
 27 30  1  0  0  0  0
  4 31  1  1  0  0  0
  3 32  1  1  0  0  0
  2 33  1  1  0  0  0
 32 34  1  0  0  0  0
 34 33  1  0  0  0  0
 23 35  1  0  0  0  0
M  END
>  <cdx:fragmentId>
491

$$$$
