20387.cdx
  Mrv1902 05222410212D          

 26 29  0  0  0  0            999 V2000
    3.9237   -9.0131    0.0000 C   0  0  0  0  0  0  0  0  0  0  0  0
    3.9237   -9.8381    0.0000 C   0  0  0  0  0  0  0  0  0  0  0  0
    4.6381  -10.2506    0.0000 C   0  0  0  0  0  0  0  0  0  0  0  0
    5.3526   -9.8381    0.0000 C   0  0  0  0  0  0  0  0  0  0  0  0
    5.3526   -9.0131    0.0000 C   0  0  0  0  0  0  0  0  0  0  0  0
    4.6381   -8.6006    0.0000 C   0  0  0  0  0  0  0  0  0  0  0  0
    6.0671  -10.2506    0.0000 C   0  0  0  0  0  0  0  0  0  0  0  0
    6.7816   -9.8381    0.0000 C   0  0  1  0  0  0  0  0  0  0  0  0
    6.7816   -9.0131    0.0000 C   0  0  0  0  0  0  0  0  0  0  0  0
    6.0671   -8.6006    0.0000 C   0  0  0  0  0  0  0  0  0  0  0  0
    7.4960  -10.2506    0.0000 N   0  3  0  0  0  0  0  0  0  0  0  0
    8.2105   -9.8381    0.0000 C   0  0  0  0  0  0  0  0  0  0  0  0
    8.2105   -9.0131    0.0000 C   0  0  0  0  0  0  0  0  0  0  0  0
    7.4960   -8.6006    0.0000 C   0  0  0  0  0  0  0  0  0  0  0  0
    7.4960   -7.7756    0.0000 C   0  0  0  0  0  0  0  0  0  0  0  0
    6.7816   -7.3631    0.0000 C   0  0  0  0  0  0  0  0  0  0  0  0
    6.0671   -7.7756    0.0000 C   0  0  0  0  0  0  0  0  0  0  0  0
    5.3526   -7.3631    0.0000 O   0  0  0  0  0  0  0  0  0  0  0  0
    4.6381   -7.7756    0.0000 O   0  0  0  0  0  0  0  0  0  0  0  0
    6.7816   -6.5381    0.0000 O   0  0  0  0  0  0  0  0  0  0  0  0
    5.3526   -6.5381    0.0000 C   0  0  0  0  0  0  0  0  0  0  0  0
    7.4960   -6.1256    0.0000 C   0  0  0  0  0  0  0  0  0  0  0  0
    3.2092   -8.6006    0.0000 O   0  0  0  0  0  0  0  0  0  0  0  0
    7.0835  -10.9651    0.0000 C   0  0  0  0  0  0  0  0  0  0  0  0
    7.9085  -10.9651    0.0000 C   0  0  0  0  0  0  0  0  0  0  0  0
    6.7816  -10.6631    0.0000 H   0  0  0  0  0  0  0  0  0  0  0  0
  1  2  1  0  0  0  0
  2  3  2  0  0  0  0
  3  4  1  0  0  0  0
  4  5  2  0  0  0  0
  5  6  1  0  0  0  0
  6  1  2  0  0  0  0
  4  7  1  0  0  0  0
  7  8  1  0  0  0  0
  8  9  1  0  0  0  0
  9 10  2  0  0  0  0
 10  5  1  0  0  0  0
  8 11  1  0  0  0  0
 11 12  1  0  0  0  0
 12 13  1  0  0  0  0
 13 14  1  0  0  0  0
 14  9  1  0  0  0  0
 14 15  2  0  0  0  0
 15 16  1  0  0  0  0
 16 17  2  0  0  0  0
 17 10  1  0  0  0  0
 17 18  1  0  0  0  0
 19  6  1  0  0  0  0
 16 20  1  0  0  0  0
 21 18  1  0  0  0  0
 20 22  1  0  0  0  0
  1 23  1  0  0  0  0
 11 24  1  0  0  0  0
 11 25  1  0  0  0  0
  8 26  1  6  0  0  0
M  CHG  1  11   1
M  END
>  <cdx:fragmentId>
5

$$$$
