20386.cdx
  Mrv1902 05222410212D          

 32 38  0  0  0  0            999 V2000
    7.6363   -7.3884    0.0000 C   0  0  2  0  0  0  0  0  0  0  0  0
    7.9964   -8.1307    0.0000 C   0  0  1  0  0  0  0  0  0  0  0  0
    7.6406   -8.8750    0.0000 C   0  0  1  0  0  0  0  0  0  0  0  0
    6.8368   -9.0610    0.0000 C   0  0  0  0  0  0  0  0  0  0  0  0
    6.1903   -8.5485    0.0000 C   0  0  1  0  0  0  0  0  0  0  0  0
    6.1879   -7.7235    0.0000 C   0  0  2  0  0  0  0  0  0  0  0  0
    6.8314   -7.2072    0.0000 C   0  0  2  0  0  0  0  0  0  0  0  0
    5.4771   -8.9630    0.0000 C   0  0  2  0  0  0  0  0  0  0  0  0
    4.7614   -8.5526    0.0000 C   0  0  2  0  0  0  0  0  0  0  0  0
    4.7590   -7.7276    0.0000 C   0  0  0  0  0  0  0  0  0  0  0  0
    5.4722   -7.3130    0.0000 C   0  0  2  0  0  0  0  0  0  0  0  0
    6.7551   -6.3857    0.0000 C   0  0  0  0  0  0  0  0  0  0  0  0
    7.5127   -6.0593    0.0000 C   0  0  0  0  0  0  0  0  0  0  0  0
    8.0573   -6.6790    0.0000 C   0  0  2  0  0  0  0  0  0  0  0  0
    5.4698   -6.4881    0.0000 O   0  0  0  0  0  0  0  0  0  0  0  0
    4.2075   -8.9650    0.0000 O   0  0  0  0  0  0  0  0  0  0  0  0
    6.1875   -7.0675    0.0000 C   0  0  0  0  0  0  0  0  0  0  0  0
    5.4725   -8.0850    0.0000 N   0  0  0  0  0  0  0  0  0  0  0  0
    4.7575   -9.2675    0.0000 C   0  0  0  0  0  0  0  0  0  0  0  0
    8.7950   -7.9235    0.0000 C   0  0  0  0  0  0  0  0  0  0  0  0
    8.7725   -6.2150    0.0000 C   0  0  2  0  0  0  0  0  0  0  0  0
    8.2099   -8.9276    0.0000 O   0  0  0  0  0  0  0  0  0  0  0  0
    9.3775   -6.6275    0.0000 O   0  0  0  0  0  0  0  0  0  0  0  0
    6.1837   -9.3734    0.0000 H   0  0  0  0  0  0  0  0  0  0  0  0
    6.2481   -6.6238    0.0000 H   0  0  0  0  0  0  0  0  0  0  0  0
    8.4612   -7.3950    0.0000 O   0  0  0  0  0  0  0  0  0  0  0  0
    7.6406   -9.7000    0.0000 H   0  0  0  0  0  0  0  0  0  0  0  0
    4.2900   -8.0850    0.0000 C   0  0  0  0  0  0  0  0  0  0  0  0
    3.7066   -7.5016    0.0000 C   0  0  0  0  0  0  0  0  0  0  0  0
    9.3870   -5.6645    0.0000 O   0  0  0  0  0  0  0  0  0  0  0  0
    9.3870   -4.8395    0.0000 C   0  0  0  0  0  0  0  0  0  0  0  0
    9.8175   -7.3254    0.0000 C   0  0  0  0  0  0  0  0  0  0  0  0
  1  2  1  0  0  0  0
  2  3  1  0  0  0  0
  3  4  1  0  0  0  0
  4  5  1  0  0  0  0
  5  6  1  0  0  0  0
  6  7  1  0  0  0  0
  7  1  1  0  0  0  0
  5  8  1  0  0  0  0
  8  9  1  0  0  0  0
  9 10  1  0  0  0  0
 10 11  1  0  0  0  0
  6 11  1  1  0  0  0
  7 12  1  0  0  0  0
 12 13  1  0  0  0  0
 13 14  1  0  0  0  0
 14  1  1  0  0  0  0
 11 15  1  6  0  0  0
  8 16  1  1  0  0  0
  6 17  1  0  0  0  0
  3 17  1  0  0  0  0
 17 18  1  0  0  0  0
 18 19  1  0  0  0  0
  8 19  1  0  0  0  0
  2 20  1  0  0  0  0
 13 21  1  0  0  0  0
 21 20  1  0  0  0  0
  2 22  1  1  0  0  0
 14 23  1  6  0  0  0
  5 24  1  1  0  0  0
  7 25  1  1  0  0  0
  1 26  1  1  0  0  0
  3 27  1  6  0  0  0
 18 28  1  0  0  0  0
 28 29  1  0  0  0  0
 21 30  1  1  0  0  0
 30 31  1  0  0  0  0
 23 32  1  0  0  0  0
  9 16  1  1  0  0  0
M  END
>  <cdx:fragmentId>
491

$$$$
