20393.cdx
  Mrv1902 05222410212D          

 20 20  0  0  0  0            999 V2000
    3.1813   -3.2046    0.0000 C   0  0  0  0  0  0  0  0  0  0  0  0
    3.1813   -2.3796    0.0000 C   0  0  0  0  0  0  0  0  0  0  0  0
    2.4668   -1.9671    0.0000 C   0  0  0  0  0  0  0  0  0  0  0  0
    1.7523   -2.3796    0.0000 C   0  0  0  0  0  0  0  0  0  0  0  0
    1.7523   -3.2046    0.0000 C   0  0  0  0  0  0  0  0  0  0  0  0
    2.4668   -3.6171    0.0000 C   0  0  0  0  0  0  0  0  0  0  0  0
    3.8957   -3.6171    0.0000 C   0  0  0  0  0  0  0  0  0  0  0  0
    3.8957   -4.4421    0.0000 O   0  0  0  0  0  0  0  0  0  0  0  0
    4.6102   -3.2046    0.0000 O   0  0  0  0  0  0  0  0  0  0  0  0
    3.8957   -1.9671    0.0000 C   0  0  0  0  0  0  0  0  0  0  0  0
    3.8957   -1.1421    0.0000 O   0  0  0  0  0  0  0  0  0  0  0  0
    4.6102   -2.3796    0.0000 O   0  0  0  0  0  0  0  0  0  0  0  0
    5.3247   -3.6171    0.0000 C   0  0  0  0  0  0  0  0  0  0  0  0
    6.0392   -3.2046    0.0000 C   0  0  0  0  0  0  0  0  0  0  0  0
    6.7536   -3.6171    0.0000 C   0  0  0  0  0  0  0  0  0  0  0  0
    7.4681   -3.2046    0.0000 C   0  0  0  0  0  0  0  0  0  0  0  0
    8.1826   -3.6171    0.0000 C   0  0  0  0  0  0  0  0  0  0  0  0
    8.8970   -3.2046    0.0000 C   0  0  0  0  0  0  0  0  0  0  0  0
    6.0392   -2.3796    0.0000 C   0  0  0  0  0  0  0  0  0  0  0  0
    6.7536   -1.9671    0.0000 C   0  0  0  0  0  0  0  0  0  0  0  0
  1  2  1  0  0  0  0
  2  3  2  0  0  0  0
  3  4  1  0  0  0  0
  4  5  2  0  0  0  0
  5  6  1  0  0  0  0
  1  6  2  0  0  0  0
  7  8  2  0  0  0  0
  7  9  1  0  0  0  0
  1  7  1  0  0  0  0
 10 11  2  0  0  0  0
 10 12  1  0  0  0  0
  2 10  1  0  0  0  0
 13 14  1  0  0  0  0
 14 15  1  0  0  0  0
 15 16  1  0  0  0  0
 16 17  1  0  0  0  0
 17 18  1  0  0  0  0
 19 20  1  0  0  0  0
 14 19  1  0  0  0  0
  9 13  1  0  0  0  0
M  END
>  <cdx:groupId>
62

>  <cdx:fragmentId>
5

$$$$
