20399.cdx
  Mrv1902 05222410232D          

 23 26  0  0  0  0            999 V2000
    8.8937   -8.5861    0.0000 C   0  0  0  0  0  0  0  0  0  0  0  0
    8.8804   -7.7613    0.0000 C   0  0  0  0  0  0  0  0  0  0  0  0
    8.1593   -7.3604    0.0000 C   0  0  0  0  0  0  0  0  0  0  0  0
    7.4516   -7.7844    0.0000 C   0  0  0  0  0  0  0  0  0  0  0  0
    7.4650   -8.6093    0.0000 C   0  0  0  0  0  0  0  0  0  0  0  0
    8.1860   -9.0101    0.0000 C   0  0  0  0  0  0  0  0  0  0  0  0
    6.7306   -7.3835    0.0000 C   0  0  0  0  0  0  0  0  0  0  0  0
    6.0229   -7.8075    0.0000 C   0  0  0  0  0  0  0  0  0  0  0  0
    6.0362   -8.6324    0.0000 C   0  0  0  0  0  0  0  0  0  0  0  0
    6.7573   -9.0332    0.0000 C   0  0  0  0  0  0  0  0  0  0  0  0
    5.3018   -7.4066    0.0000 C   0  0  0  0  0  0  0  0  0  0  0  0
    4.5941   -7.8306    0.0000 C   0  0  0  0  0  0  0  0  0  0  0  0
    4.6075   -8.6555    0.0000 C   0  0  0  0  0  0  0  0  0  0  0  0
    5.3285   -9.0564    0.0000 C   0  0  0  0  0  0  0  0  0  0  0  0
    5.3418   -9.8812    0.0000 C   0  0  0  0  0  0  0  0  0  0  0  0
    6.0629  -10.2821    0.0000 C   0  0  0  0  0  0  0  0  0  0  0  0
    6.7706   -9.8581    0.0000 N   0  0  0  0  0  0  0  0  0  0  0  0
    6.7172   -6.5586    0.0000 O   0  0  0  0  0  0  0  0  0  0  0  0
    5.2885   -6.5817    0.0000 O   0  0  0  0  0  0  0  0  0  0  0  0
    3.8731   -7.4297    0.0000 O   0  0  0  0  0  0  0  0  0  0  0  0
    4.5674   -6.1808    0.0000 C   0  0  0  0  0  0  0  0  0  0  0  0
    9.5881   -7.3373    0.0000 O   0  0  0  0  0  0  0  0  0  0  0  0
   10.3091   -7.7382    0.0000 C   0  0  0  0  0  0  0  0  0  0  0  0
  1  2  1  0  0  0  0
  2  3  2  0  0  0  0
  3  4  1  0  0  0  0
  4  5  2  0  0  0  0
  5  6  1  0  0  0  0
  6  1  2  0  0  0  0
  4  7  1  0  0  0  0
  7  8  1  0  0  0  0
  8  9  2  0  0  0  0
  9 10  1  0  0  0  0
 10  5  1  0  0  0  0
  8 11  1  0  0  0  0
 11 12  2  0  0  0  0
 12 13  1  0  0  0  0
 13 14  2  0  0  0  0
 14  9  1  0  0  0  0
 14 15  1  0  0  0  0
 15 16  2  0  0  0  0
 16 17  1  0  0  0  0
 17 10  2  0  0  0  0
  7 18  2  0  0  0  0
 19 11  1  0  0  0  0
 12 20  1  0  0  0  0
 19 21  1  0  0  0  0
  2 22  1  0  0  0  0
 22 23  1  0  0  0  0
M  END
>  <cdx:fragmentId>
5

$$$$
