20397.cdx
  Mrv1902 05222410222D          

 34 37  0  0  0  0            999 V2000
    4.0474   -4.7644    0.0000 C   0  0  0  0  0  0  0  0  0  0  0  0
    4.0474   -5.5894    0.0000 C   0  0  0  0  0  0  0  0  0  0  0  0
    4.7619   -6.0019    0.0000 C   0  0  0  0  0  0  0  0  0  0  0  0
    5.4764   -5.5894    0.0000 C   0  0  0  0  0  0  0  0  0  0  0  0
    5.4764   -4.7644    0.0000 C   0  0  0  0  0  0  0  0  0  0  0  0
    4.7619   -4.3519    0.0000 C   0  0  0  0  0  0  0  0  0  0  0  0
    6.1908   -6.0019    0.0000 C   0  0  2  0  0  0  0  0  0  0  0  0
    6.9053   -5.5894    0.0000 N   0  0  0  0  0  0  0  0  0  0  0  0
    6.9053   -4.7644    0.0000 C   0  0  0  0  0  0  0  0  0  0  0  0
    6.1908   -4.3519    0.0000 C   0  0  0  0  0  0  0  0  0  0  0  0
    6.1908   -6.8269    0.0000 C   0  0  0  0  0  0  0  0  0  0  0  0
    6.9053   -7.2394    0.0000 C   0  0  0  0  0  0  0  0  0  0  0  0
    7.6198   -6.8269    0.0000 C   0  0  0  0  0  0  0  0  0  0  0  0
    6.9053   -8.0644    0.0000 C   0  0  0  0  0  0  0  0  0  0  0  0
    7.6198   -8.4769    0.0000 C   0  0  0  0  0  0  0  0  0  0  0  0
    8.3343   -8.0644    0.0000 C   0  0  0  0  0  0  0  0  0  0  0  0
    8.3343   -7.2394    0.0000 C   0  0  0  0  0  0  0  0  0  0  0  0
    8.3343   -9.7144    0.0000 O   0  0  0  0  0  0  0  0  0  0  0  0
    9.0487   -9.3019    0.0000 C   0  0  1  0  0  0  0  0  0  0  0  0
    9.0487   -8.4769    0.0000 O   0  0  0  0  0  0  0  0  0  0  0  0
    8.3343  -10.5394    0.0000 C   0  0  1  0  0  0  0  0  0  0  0  0
    9.0487  -10.9519    0.0000 C   0  0  2  0  0  0  0  0  0  0  0  0
    9.7632  -10.5394    0.0000 C   0  0  1  0  0  0  0  0  0  0  0  0
    9.7632   -9.7144    0.0000 C   0  0  1  0  0  0  0  0  0  0  0  0
    3.3330   -4.3519    0.0000 O   0  0  0  0  0  0  0  0  0  0  0  0
    3.3330   -6.0019    0.0000 O   0  0  0  0  0  0  0  0  0  0  0  0
    7.6198   -6.0019    0.0000 C   0  0  0  0  0  0  0  0  0  0  0  0
    9.0487   -6.8269    0.0000 O   0  0  0  0  0  0  0  0  0  0  0  0
    7.6198  -10.9519    0.0000 C   0  0  0  0  0  0  0  0  0  0  0  0
    7.6198  -11.7769    0.0000 O   0  0  0  0  0  0  0  0  0  0  0  0
   10.4777  -10.9519    0.0000 O   0  0  0  0  0  0  0  0  0  0  0  0
    6.9053   -6.4144    0.0000 H   0  0  0  0  0  0  0  0  0  0  0  0
   10.4777   -9.3019    0.0000 O   0  0  0  0  0  0  0  0  0  0  0  0
    9.0487  -11.7769    0.0000 O   0  0  0  0  0  0  0  0  0  0  0  0
  1  2  2  0  0  0  0
  2  3  1  0  0  0  0
  3  4  2  0  0  0  0
  4  5  1  0  0  0  0
  5  6  2  0  0  0  0
  6  1  1  0  0  0  0
  4  7  1  0  0  0  0
  7  8  1  0  0  0  0
  8  9  1  0  0  0  0
  9 10  1  0  0  0  0
 10  5  1  0  0  0  0
  7 11  1  0  0  0  0
 11 12  1  0  0  0  0
 12 13  1  0  0  0  0
 12 14  2  0  0  0  0
 14 15  1  0  0  0  0
 15 16  2  0  0  0  0
 16 17  1  0  0  0  0
 17 13  2  0  0  0  0
 18 19  1  0  0  0  0
 19 20  1  1  0  0  0
 20 16  1  0  0  0  0
 18 21  1  0  0  0  0
 21 22  1  0  0  0  0
 22 23  1  0  0  0  0
 23 24  1  0  0  0  0
 24 19  1  0  0  0  0
  1 25  1  0  0  0  0
  2 26  1  0  0  0  0
  8 27  1  0  0  0  0
 17 28  1  0  0  0  0
 21 29  1  1  0  0  0
 29 30  1  0  0  0  0
 23 31  1  1  0  0  0
  7 32  1  1  0  0  0
 24 33  1  6  0  0  0
 22 34  1  6  0  0  0
M  END
>  <cdx:fragmentId>
5

$$$$
