20396.cdx
  Mrv1902 05222410222D          

 19 18  0  0  0  0            999 V2000
    2.3488   -9.7144    0.0000 C   0  0  0  0  0  0  0  0  0  0  0  0
    3.0632   -9.3019    0.0000 O   0  0  0  0  0  0  0  0  0  0  0  0
    3.7777   -9.7144    0.0000 C   0  0  0  0  0  0  0  0  0  0  0  0
    4.4922   -9.3019    0.0000 C   0  0  0  0  0  0  0  0  0  0  0  0
    5.2067   -9.7144    0.0000 C   0  0  0  0  0  0  0  0  0  0  0  0
    5.9211   -9.3019    0.0000 C   0  0  0  0  0  0  0  0  0  0  0  0
    6.6356   -9.7144    0.0000 C   0  0  0  0  0  0  0  0  0  0  0  0
    7.3501   -9.3019    0.0000 C   0  0  0  0  0  0  0  0  0  0  0  0
    8.0645   -9.7144    0.0000 C   0  0  0  0  0  0  0  0  0  0  0  0
    8.7790   -9.3019    0.0000 C   0  0  0  0  0  0  0  0  0  0  0  0
    3.7777  -10.5394    0.0000 O   0  0  0  0  0  0  0  0  0  0  0  0
    8.7790   -8.4769    0.0000 C   0  0  0  0  0  0  0  0  0  0  0  0
   11.6172   -4.3291    0.0000 C   0  0  0  0  0  0  0  0  0  0  0  0
   10.9033   -4.7427    0.0000 C   0  0  0  0  0  0  0  0  0  0  0  0
   10.9045   -5.5677    0.0000 C   0  0  0  0  0  0  0  0  0  0  0  0
   10.1907   -5.9813    0.0000 C   0  0  0  0  0  0  0  0  0  0  0  0
   10.1919   -6.8062    0.0000 C   0  0  0  0  0  0  0  0  0  0  0  0
    9.4781   -7.2198    0.0000 C   0  0  0  0  0  0  0  0  0  0  0  0
    9.4793   -8.0448    0.0000 C   0  0  0  0  0  0  0  0  0  0  0  0
  1  2  1  0  0  0  0
  2  3  1  0  0  0  0
  3  4  1  0  0  0  0
  4  5  1  0  0  0  0
  5  6  1  0  0  0  0
  6  7  1  0  0  0  0
  7  8  1  0  0  0  0
  8  9  1  0  0  0  0
  9 10  2  0  0  0  0
  3 11  2  0  0  0  0
 10 12  1  0  0  0  0
 14 13  1  0  0  0  0
 15 14  1  0  0  0  0
 16 15  1  0  0  0  0
 17 16  1  0  0  0  0
 18 17  1  0  0  0  0
 19 18  1  0  0  0  0
 19 12  1  0  0  0  0
M  END
>  <cdx:fragmentId>
3

$$$$
