20398.cdx
  Mrv1902 05222410232D          

 23 27  0  0  0  0            999 V2000
    6.8161   -5.9852    0.0000 C   0  0  0  0  0  0  0  0  0  0  0  0
    6.1051   -6.4038    0.0000 C   0  0  0  0  0  0  0  0  0  0  0  0
    6.1122   -7.2287    0.0000 C   0  0  0  0  0  0  0  0  0  0  0  0
    6.8301   -7.6351    0.0000 C   0  0  0  0  0  0  0  0  0  0  0  0
    7.5411   -7.2165    0.0000 C   0  0  0  0  0  0  0  0  0  0  0  0
    7.5340   -6.3916    0.0000 C   0  0  0  0  0  0  0  0  0  0  0  0
    6.8372   -8.4601    0.0000 C   0  0  0  0  0  0  0  0  0  0  0  0
    7.5551   -8.8665    0.0000 C   0  0  0  0  0  0  0  0  0  0  0  0
    8.2661   -8.4479    0.0000 N   0  0  0  0  0  0  0  0  0  0  0  0
    8.2590   -7.6229    0.0000 C   0  0  0  0  0  0  0  0  0  0  0  0
    8.9699   -7.2044    0.0000 C   0  0  0  0  0  0  0  0  0  0  0  0
    8.9629   -6.3794    0.0000 C   0  0  0  0  0  0  0  0  0  0  0  0
    8.2449   -5.9730    0.0000 C   0  0  0  0  0  0  0  0  0  0  0  0
    9.6879   -7.6108    0.0000 C   0  0  0  0  0  0  0  0  0  0  0  0
   10.3988   -7.1922    0.0000 C   0  0  0  0  0  0  0  0  0  0  0  0
   10.3918   -6.3672    0.0000 C   0  0  0  0  0  0  0  0  0  0  0  0
    9.6738   -5.9608    0.0000 C   0  0  0  0  0  0  0  0  0  0  0  0
    6.6377   -5.1797    0.0000 O   0  0  0  0  0  0  0  0  0  0  0  0
    5.8165   -5.1005    0.0000 C   0  0  0  0  0  0  0  0  0  0  0  0
    5.4873   -5.8570    0.0000 O   0  0  0  0  0  0  0  0  0  0  0  0
    8.2379   -5.1480    0.0000 O   0  0  0  0  0  0  0  0  0  0  0  0
    5.4012   -7.6473    0.0000 O   0  0  0  0  0  0  0  0  0  0  0  0
    4.6833   -7.2409    0.0000 C   0  0  0  0  0  0  0  0  0  0  0  0
  1  2  1  0  0  0  0
  2  3  2  0  0  0  0
  3  4  1  0  0  0  0
  4  5  2  0  0  0  0
  5  6  1  0  0  0  0
  6  1  2  0  0  0  0
  4  7  1  0  0  0  0
  7  8  2  0  0  0  0
  8  9  1  0  0  0  0
  9 10  2  0  0  0  0
 10  5  1  0  0  0  0
 10 11  1  0  0  0  0
 11 12  1  0  0  0  0
 12 13  1  0  0  0  0
 13  6  1  0  0  0  0
 11 14  2  0  0  0  0
 14 15  1  0  0  0  0
 15 16  2  0  0  0  0
 16 17  1  0  0  0  0
 17 12  2  0  0  0  0
  1 18  1  0  0  0  0
 18 19  1  0  0  0  0
 19 20  1  0  0  0  0
 20  2  1  0  0  0  0
 13 21  2  0  0  0  0
  3 22  1  0  0  0  0
 22 23  1  0  0  0  0
M  END
>  <cdx:fragmentId>
5

$$$$
