20407.cdx
  Mrv1902 05222410252D          

 53 58  0  0  0  0            999 V2000
    3.0781   -5.9194    0.0000 C   0  0  0  0  0  0  0  0  0  0  0  0
    3.0781   -6.7444    0.0000 C   0  0  0  0  0  0  0  0  0  0  0  0
    3.7925   -7.1569    0.0000 C   0  0  0  0  0  0  0  0  0  0  0  0
    4.5070   -6.7444    0.0000 C   0  0  0  0  0  0  0  0  0  0  0  0
    4.5070   -5.9194    0.0000 C   0  0  0  0  0  0  0  0  0  0  0  0
    3.7925   -5.5069    0.0000 C   0  0  0  0  0  0  0  0  0  0  0  0
    5.2215   -7.1569    0.0000 C   0  0  0  0  0  0  0  0  0  0  0  0
    5.9359   -6.7444    0.0000 C   0  0  0  0  0  0  0  0  0  0  0  0
    5.9359   -5.9194    0.0000 C   0  0  0  0  0  0  0  0  0  0  0  0
    5.2215   -5.5069    0.0000 O   0  0  0  0  0  0  0  0  0  0  0  0
    3.7925   -7.9819    0.0000 O   0  0  0  0  0  0  0  0  0  0  0  0
    5.2215   -7.9819    0.0000 O   0  0  0  0  0  0  0  0  0  0  0  0
    6.6504   -7.1569    0.0000 O   0  0  0  0  0  0  0  0  0  0  0  0
    7.3649   -5.9194    0.0000 C   0  0  0  0  0  0  0  0  0  0  0  0
    6.6504   -5.5069    0.0000 C   0  0  0  0  0  0  0  0  0  0  0  0
    8.0794   -5.5069    0.0000 C   0  0  0  0  0  0  0  0  0  0  0  0
    8.0794   -4.6819    0.0000 C   0  0  0  0  0  0  0  0  0  0  0  0
    7.3649   -4.2694    0.0000 C   0  0  0  0  0  0  0  0  0  0  0  0
    6.6504   -4.6819    0.0000 C   0  0  0  0  0  0  0  0  0  0  0  0
    5.9359   -8.3944    0.0000 O   0  0  0  0  0  0  0  0  0  0  0  0
    6.6504   -7.9819    0.0000 C   0  0  2  0  0  0  0  0  0  0  0  0
    5.9359   -9.2194    0.0000 C   0  0  2  0  0  0  0  0  0  0  0  0
    6.6504   -9.6319    0.0000 C   0  0  1  0  0  0  0  0  0  0  0  0
    7.3649   -9.2194    0.0000 C   0  0  2  0  0  0  0  0  0  0  0  0
    7.3649   -8.3944    0.0000 C   0  0  1  0  0  0  0  0  0  0  0  0
    2.3636   -5.5069    0.0000 O   0  0  0  0  0  0  0  0  0  0  0  0
    8.7938   -4.2694    0.0000 O   0  0  0  0  0  0  0  0  0  0  0  0
    6.6504  -10.4569    0.0000 O   0  0  0  0  0  0  0  0  0  0  0  0
    5.2215   -9.6319    0.0000 C   0  0  0  0  0  0  0  0  0  0  0  0
    8.0794   -9.6319    0.0000 O   0  0  0  0  0  0  0  0  0  0  0  0
    8.0794   -7.9819    0.0000 O   0  0  0  0  0  0  0  0  0  0  0  0
    2.3356   -9.6525    0.0000 C   0  0  0  0  0  0  0  0  0  0  0  0
    2.3356  -10.4775    0.0000 C   0  0  0  0  0  0  0  0  0  0  0  0
    3.0500  -10.8900    0.0000 C   0  0  0  0  0  0  0  0  0  0  0  0
    3.7645  -10.4775    0.0000 C   0  0  0  0  0  0  0  0  0  0  0  0
    3.7645   -9.6525    0.0000 C   0  0  0  0  0  0  0  0  0  0  0  0
    3.0500   -9.2400    0.0000 C   0  0  0  0  0  0  0  0  0  0  0  0
    1.6211   -9.2400    0.0000 O   0  0  0  0  0  0  0  0  0  0  0  0
    4.4790  -10.8900    0.0000 C   0  0  0  0  0  0  0  0  0  0  0  0
    5.1934  -10.4775    0.0000 C   0  0  0  0  0  0  0  0  0  0  0  0
    5.9079  -10.8900    0.0000 C   0  0  0  0  0  0  0  0  0  0  0  0
    5.9079  -11.7150    0.0000 O   0  0  0  0  0  0  0  0  0  0  0  0
    8.7965   -9.2232    0.0000 O   0  0  0  0  0  0  0  0  0  0  0  0
    8.8059   -8.3983    0.0000 C   0  0  0  0  0  0  0  0  0  0  0  0
    9.5250   -7.9939    0.0000 C   0  0  0  0  0  0  0  0  0  0  0  0
   10.2347   -8.4145    0.0000 C   0  0  0  0  0  0  0  0  0  0  0  0
   13.1111   -6.7971    0.0000 O   0  0  0  0  0  0  0  0  0  0  0  0
   11.6823   -6.7809    0.0000 C   0  0  0  0  0  0  0  0  0  0  0  0
   10.9632   -7.1852    0.0000 C   0  0  0  0  0  0  0  0  0  0  0  0
   10.9538   -8.0102    0.0000 C   0  0  0  0  0  0  0  0  0  0  0  0
   11.6636   -8.4308    0.0000 C   0  0  0  0  0  0  0  0  0  0  0  0
   12.3827   -8.0264    0.0000 C   0  0  0  0  0  0  0  0  0  0  0  0
   12.3920   -7.2015    0.0000 C   0  0  0  0  0  0  0  0  0  0  0  0
  1  2  2  0  0  0  0
  2  3  1  0  0  0  0
  3  4  2  0  0  0  0
  4  5  1  0  0  0  0
  5  6  2  0  0  0  0
  6  1  1  0  0  0  0
  4  7  1  0  0  0  0
  7  8  1  0  0  0  0
  8  9  2  0  0  0  0
  9 10  1  0  0  0  0
 10  5  1  0  0  0  0
  3 11  1  0  0  0  0
 12  7  2  0  0  0  0
  8 13  1  0  0  0  0
 14 15  2  0  0  0  0
 15  9  1  0  0  0  0
 14 16  1  0  0  0  0
 16 17  2  0  0  0  0
 17 18  1  0  0  0  0
 18 19  2  0  0  0  0
 19 15  1  0  0  0  0
 20 21  1  0  0  0  0
 21 13  1  1  0  0  0
 20 22  1  0  0  0  0
 22 23  1  0  0  0  0
 23 24  1  0  0  0  0
 24 25  1  0  0  0  0
 25 21  1  0  0  0  0
  1 26  1  0  0  0  0
 17 27  1  0  0  0  0
 23 28  1  1  0  0  0
 22 29  1  6  0  0  0
 24 30  1  6  0  0  0
 25 31  1  6  0  0  0
 32 33  2  0  0  0  0
 33 34  1  0  0  0  0
 34 35  2  0  0  0  0
 35 36  1  0  0  0  0
 36 37  2  0  0  0  0
 37 32  1  0  0  0  0
 32 38  1  0  0  0  0
 35 39  1  0  0  0  0
 39 40  2  0  0  0  0
 40 41  1  0  0  0  0
 41 42  2  0  0  0  0
 41 28  1  0  0  0  0
 44 43  2  0  0  0  0
 45 44  1  0  0  0  0
 46 45  2  0  0  0  0
 50 46  1  0  0  0  0
 53 47  1  0  0  0  0
 48 53  1  0  0  0  0
 49 48  2  0  0  0  0
 50 49  1  0  0  0  0
 51 50  2  0  0  0  0
 52 51  1  0  0  0  0
 53 52  2  0  0  0  0
 44 31  1  0  0  0  0
M  END
>  <cdx:fragmentId>
5

$$$$
