20402.cdx
  Mrv1902 05222410242D          

 12 12  0  0  0  0            999 V2000
    6.8937   -7.0331    0.0000 C   0  0  0  0  0  0  0  0  0  0  0  0
    6.8937   -7.8581    0.0000 C   0  0  0  0  0  0  0  0  0  0  0  0
    7.6081   -8.2706    0.0000 C   0  0  0  0  0  0  0  0  0  0  0  0
    8.3226   -7.8581    0.0000 C   0  0  0  0  0  0  0  0  0  0  0  0
    8.3226   -7.0331    0.0000 C   0  0  0  0  0  0  0  0  0  0  0  0
    7.6081   -6.6206    0.0000 C   0  0  0  0  0  0  0  0  0  0  0  0
    6.1792   -6.6206    0.0000 O   0  0  0  0  0  0  0  0  0  0  0  0
    7.6081   -5.7956    0.0000 C   0  0  0  0  0  0  0  0  0  0  0  0
    8.3226   -5.3831    0.0000 O   0  0  0  0  0  0  0  0  0  0  0  0
    6.8937   -5.3831    0.0000 O   0  0  0  0  0  0  0  0  0  0  0  0
    7.6081   -9.0956    0.0000 O   0  0  0  0  0  0  0  0  0  0  0  0
    8.3226   -9.5081    0.0000 C   0  0  0  0  0  0  0  0  0  0  0  0
  1  2  2  0  0  0  0
  2  3  1  0  0  0  0
  3  4  2  0  0  0  0
  4  5  1  0  0  0  0
  5  6  2  0  0  0  0
  6  1  1  0  0  0  0
  1  7  1  0  0  0  0
  6  8  1  0  0  0  0
  8  9  1  0  0  0  0
  8 10  2  0  0  0  0
  3 11  1  0  0  0  0
 11 12  1  0  0  0  0
M  END
>  <cdx:fragmentId>
5

$$$$
