20406.cdx
  Mrv1902 05222410252D          

 35 39  0  0  0  0            999 V2000
    3.1399   -7.9819    0.0000 C   0  0  0  0  0  0  0  0  0  0  0  0
    3.1399   -8.8069    0.0000 C   0  0  1  0  0  0  0  0  0  0  0  0
    3.8544   -9.2194    0.0000 C   0  0  1  0  0  0  0  0  0  0  0  0
    4.5689   -8.8069    0.0000 C   0  0  0  0  0  0  0  0  0  0  0  0
    4.5689   -7.9819    0.0000 C   0  0  2  0  0  0  0  0  0  0  0  0
    3.8544   -7.5694    0.0000 C   0  0  0  0  0  0  0  0  0  0  0  0
    5.2833   -9.2194    0.0000 C   0  0  0  0  0  0  0  0  0  0  0  0
    5.9978   -8.8069    0.0000 C   0  0  0  0  0  0  0  0  0  0  0  0
    5.9978   -7.9819    0.0000 C   0  0  2  0  0  0  0  0  0  0  0  0
    5.2833   -7.5694    0.0000 C   0  0  1  0  0  0  0  0  0  0  0  0
    6.7123   -7.5694    0.0000 C   0  0  1  0  0  0  0  0  0  0  0  0
    6.7123   -6.7444    0.0000 C   0  0  2  0  0  0  0  0  0  0  0  0
    5.9978   -6.3319    0.0000 C   0  0  0  0  0  0  0  0  0  0  0  0
    5.2833   -6.7444    0.0000 C   0  0  0  0  0  0  0  0  0  0  0  0
    7.4969   -7.8243    0.0000 C   0  0  0  0  0  0  0  0  0  0  0  0
    7.9818   -7.1569    0.0000 C   0  0  0  0  0  0  0  0  0  0  0  0
    7.4969   -6.4894    0.0000 C   0  0  2  0  0  0  0  0  0  0  0  0
    8.2114   -6.0769    0.0000 C   0  0  1  0  0  0  0  0  0  0  0  0
    8.9258   -6.4894    0.0000 C   0  0  0  0  0  0  0  0  0  0  0  0
    9.6403   -6.0769    0.0000 C   0  0  0  0  0  0  0  0  0  0  0  0
   10.3548   -6.4894    0.0000 C   0  0  0  0  0  0  0  0  0  0  0  0
   11.0693   -6.0769    0.0000 C   0  0  0  0  0  0  0  0  0  0  0  0
   11.7837   -6.4894    0.0000 C   0  0  0  0  0  0  0  0  0  0  0  0
   11.0693   -5.2519    0.0000 C   0  0  0  0  0  0  0  0  0  0  0  0
   11.0693   -6.9019    0.0000 O   0  0  0  0  0  0  0  0  0  0  0  0
   11.0693   -7.7269    0.0000 O   0  0  0  0  0  0  0  0  0  0  0  0
    2.4255   -9.2194    0.0000 O   0  0  0  0  0  0  0  0  0  0  0  0
    3.4419   -9.9338    0.0000 C   0  0  0  0  0  0  0  0  0  0  0  0
    4.5689   -7.1569    0.0000 C   0  0  0  0  0  0  0  0  0  0  0  0
    5.9978   -7.5488    0.0000 H   0  0  0  0  0  0  0  0  0  0  0  0
    6.7123   -5.9194    0.0000 C   0  0  0  0  0  0  0  0  0  0  0  0
    4.2669   -9.9338    0.0000 C   0  0  0  0  0  0  0  0  0  0  0  0
    6.7123   -8.3944    0.0000 C   0  0  0  0  0  0  0  0  0  0  0  0
    7.3113   -6.2081    0.0000 H   0  0  0  0  0  0  0  0  0  0  0  0
    8.2114   -5.2519    0.0000 C   0  0  0  0  0  0  0  0  0  0  0  0
  1  2  1  0  0  0  0
  2  3  1  0  0  0  0
  3  4  1  0  0  0  0
  4  5  1  0  0  0  0
  5  6  1  0  0  0  0
  6  1  1  0  0  0  0
  4  7  1  0  0  0  0
  7  8  1  0  0  0  0
  8  9  1  0  0  0  0
  9 10  1  0  0  0  0
 10  5  1  0  0  0  0
  9 11  1  0  0  0  0
 11 12  1  0  0  0  0
 12 13  1  0  0  0  0
 13 14  1  0  0  0  0
 14 10  1  0  0  0  0
 11 15  1  0  0  0  0
 15 16  1  0  0  0  0
 16 17  1  0  0  0  0
 17 12  1  0  0  0  0
 17 18  1  0  0  0  0
 18 19  1  0  0  0  0
 19 20  1  0  0  0  0
 20 21  2  0  0  0  0
 21 22  1  0  0  0  0
 22 23  1  0  0  0  0
 22 24  1  0  0  0  0
 22 25  1  0  0  0  0
  2 27  1  1  0  0  0
  3 28  1  1  0  0  0
  5 29  1  1  0  0  0
 10 29  1  1  0  0  0
  9 30  1  1  0  0  0
 12 31  1  1  0  0  0
  3 32  1  6  0  0  0
 11 33  1  6  0  0  0
 17 34  1  6  0  0  0
 18 35  1  6  0  0  0
 25 26  1  0  0  0  0
M  STY  1   1 SUP
M  SAL   1  2  25  26
M  SBL   1  1  28
M  SMT   1 OOH
M  SAP   1  1  25  22  1
M  END
>  <cdx:fragmentId>
5

$$$$
