20403.cdx
  Mrv1902 05222410242D          

  8  9  0  0  0  0            999 V2000
    5.7831   -8.4446    0.0000 C   0  0  0  0  0  0  0  0  0  0  0  0
    6.5798   -8.2305    0.0000 C   0  0  0  0  0  0  0  0  0  0  0  0
    7.3765   -8.4446    0.0000 C   0  0  0  0  0  0  0  0  0  0  0  0
    7.7902   -7.7309    0.0000 C   0  0  0  0  0  0  0  0  0  0  0  0
    5.4955   -7.8546    0.0000 C   0  0  0  0  0  0  0  0  0  0  0  0
    6.9934   -7.5168    0.0000 C   0  0  0  0  0  0  0  0  0  0  0  0
    6.5812   -6.8030    0.0000 C   0  0  0  0  0  0  0  0  0  0  0  0
    6.1673   -8.9449    0.0000 O   0  0  0  0  0  0  0  0  0  0  0  0
  1  2  1  0  0  0  0
  2  3  1  0  0  0  0
  3  4  1  0  0  0  0
  1  5  1  0  0  0  0
  5  6  1  0  0  0  0
  4  6  1  0  0  0  0
  6  7  1  0  0  0  0
  2  7  1  0  0  0  0
  2  8  1  0  0  0  0
M  END
>  <cdx:groupId>
799

>  <cdx:fragmentId>
800

$$$$
