20411.cdx
  Mrv1902 05222410252D          

 32 35  0  0  0  0            999 V2000
    3.2018   -9.7556    0.0000 C   0  0  1  0  0  0  0  0  0  0  0  0
    3.2018  -10.5806    0.0000 C   0  0  1  0  0  0  0  0  0  0  0  0
    3.9163  -10.9931    0.0000 C   0  0  2  0  0  0  0  0  0  0  0  0
    4.6307  -10.5806    0.0000 C   0  0  2  0  0  0  0  0  0  0  0  0
    4.6307   -9.7556    0.0000 C   0  0  1  0  0  0  0  0  0  0  0  0
    3.9163   -9.3431    0.0000 O   0  0  0  0  0  0  0  0  0  0  0  0
    5.3452   -9.3431    0.0000 O   0  0  0  0  0  0  0  0  0  0  0  0
    5.3452   -8.5181    0.0000 C   0  0  0  0  0  0  0  0  0  0  0  0
    4.6307   -8.1056    0.0000 C   0  0  0  0  0  0  0  0  0  0  0  0
    6.0597   -8.1056    0.0000 C   0  0  0  0  0  0  0  0  0  0  0  0
    6.0597   -7.2806    0.0000 C   0  0  0  0  0  0  0  0  0  0  0  0
    5.3452   -6.8681    0.0000 C   0  0  0  0  0  0  0  0  0  0  0  0
    4.6307   -7.2806    0.0000 C   0  0  0  0  0  0  0  0  0  0  0  0
    6.7742   -6.8681    0.0000 O   0  0  0  0  0  0  0  0  0  0  0  0
    6.7742   -6.0431    0.0000 C   0  0  0  0  0  0  0  0  0  0  0  0
    6.0597   -5.6306    0.0000 C   0  0  0  0  0  0  0  0  0  0  0  0
    5.3452   -6.0431    0.0000 C   0  0  0  0  0  0  0  0  0  0  0  0
    7.4886   -5.6306    0.0000 C   0  0  0  0  0  0  0  0  0  0  0  0
    7.4886   -4.8056    0.0000 C   0  0  0  0  0  0  0  0  0  0  0  0
    8.2031   -6.0431    0.0000 C   0  0  0  0  0  0  0  0  0  0  0  0
    8.9176   -5.6306    0.0000 C   0  0  0  0  0  0  0  0  0  0  0  0
    8.9176   -4.8056    0.0000 C   0  0  0  0  0  0  0  0  0  0  0  0
    8.2031   -4.3931    0.0000 C   0  0  0  0  0  0  0  0  0  0  0  0
    9.6320   -4.3931    0.0000 O   0  0  0  0  0  0  0  0  0  0  0  0
    9.6320   -6.0431    0.0000 O   0  0  0  0  0  0  0  0  0  0  0  0
    6.0597   -4.8056    0.0000 O   0  0  0  0  0  0  0  0  0  0  0  0
    4.6307   -5.6306    0.0000 O   0  0  0  0  0  0  0  0  0  0  0  0
    3.9163   -6.8681    0.0000 O   0  0  0  0  0  0  0  0  0  0  0  0
    2.4873  -10.9931    0.0000 O   0  0  0  0  0  0  0  0  0  0  0  0
    2.4873   -9.3431    0.0000 C   0  0  0  0  0  0  0  0  0  0  0  0
    3.9163  -11.8181    0.0000 O   0  0  0  0  0  0  0  0  0  0  0  0
    5.3452  -10.9931    0.0000 O   0  0  0  0  0  0  0  0  0  0  0  0
  1  2  1  0  0  0  0
  2  3  1  0  0  0  0
  3  4  1  0  0  0  0
  4  5  1  0  0  0  0
  5  6  1  0  0  0  0
  6  1  1  0  0  0  0
  5  7  1  1  0  0  0
  7  8  1  0  0  0  0
  8  9  2  0  0  0  0
  8 10  1  0  0  0  0
 10 11  2  0  0  0  0
 11 12  1  0  0  0  0
 12 13  2  0  0  0  0
 13  9  1  0  0  0  0
 11 14  1  0  0  0  0
 14 15  1  0  0  0  0
 15 16  2  0  0  0  0
 16 17  1  0  0  0  0
 17 12  1  0  0  0  0
 15 18  1  0  0  0  0
 18 19  1  0  0  0  0
 18 20  2  0  0  0  0
 20 21  1  0  0  0  0
 21 22  2  0  0  0  0
 22 23  1  0  0  0  0
 23 19  2  0  0  0  0
 22 24  1  0  0  0  0
 21 25  1  0  0  0  0
 16 26  1  0  0  0  0
 17 27  2  0  0  0  0
 13 28  1  0  0  0  0
  2 29  1  1  0  0  0
  1 30  1  6  0  0  0
  3 31  1  6  0  0  0
  4 32  1  6  0  0  0
M  END
>  <cdx:fragmentId>
5

$$$$
