20415.cdx
  Mrv1902 05222410232D          

 58 59  0  0  0  0            999 V2000
    1.8876  -15.5366    0.0000 C   0  0  0  0  0  0  0  0  0  0  0  0
    1.8736  -14.7117    0.0000 C   0  0  0  0  0  0  0  0  0  0  0  0
    2.5810  -14.2872    0.0000 C   0  0  0  0  0  0  0  0  0  0  0  0
    2.5670  -13.4623    0.0000 C   0  0  0  0  0  0  0  0  0  0  0  0
    3.2743  -13.0377    0.0000 C   0  0  0  0  0  0  0  0  0  0  0  0
    3.2603  -12.2128    0.0000 C   0  0  0  0  0  0  0  0  0  0  0  0
    3.9677  -11.7882    0.0000 C   0  0  0  0  0  0  0  0  0  0  0  0
    3.9536  -10.9634    0.0000 C   0  0  0  0  0  0  0  0  0  0  0  0
    4.6610  -10.5388    0.0000 C   0  0  0  0  0  0  0  0  0  0  0  0
    4.6470   -9.7139    0.0000 C   0  0  0  0  0  0  0  0  0  0  0  0
    5.3544   -9.2893    0.0000 C   0  0  0  0  0  0  0  0  0  0  0  0
    5.3403   -8.4644    0.0000 C   0  0  0  0  0  0  0  0  0  0  0  0
    6.0477   -8.0399    0.0000 C   0  0  0  0  0  0  0  0  0  0  0  0
    6.0337   -7.2150    0.0000 C   0  0  0  0  0  0  0  0  0  0  0  0
    6.7410   -6.7904    0.0000 C   0  0  0  0  0  0  0  0  0  0  0  0
    6.7270   -5.9655    0.0000 C   0  0  0  0  0  0  0  0  0  0  0  0
    7.4344   -5.5409    0.0000 C   0  0  0  0  0  0  0  0  0  0  0  0
    7.4204   -4.7161    0.0000 C   0  0  0  0  0  0  0  0  0  0  0  0
    8.1277   -4.2915    0.0000 C   0  0  0  0  0  0  0  0  0  0  0  0
    8.1137   -3.4666    0.0000 C   0  0  0  0  0  0  0  0  0  0  0  0
    1.1809  -15.9622    0.0000 C   0  0  0  0  0  0  0  0  0  0  0  0
    1.1960  -16.7870    0.0000 C   0  0  0  0  0  0  0  0  0  0  0  0
    1.9129  -17.1894    0.0000 C   0  0  1  0  0  0  0  0  0  0  0  0
    2.6214  -16.7667    0.0000 C   0  0  0  0  0  0  0  0  0  0  0  0
    2.6080  -15.9448    0.0000 C   0  0  0  0  0  0  0  0  0  0  0  0
    7.3929   -3.0653    0.0000 C   0  0  0  0  0  0  0  0  0  0  0  0
    7.3800   -2.2404    0.0000 C   0  0  0  0  0  0  0  0  0  0  0  0
    8.0828   -1.8140    0.0000 C   0  0  0  0  0  0  0  0  0  0  0  0
    8.8053   -2.2123    0.0000 C   0  0  0  0  0  0  0  0  0  0  0  0
    8.8198   -3.0342    0.0000 C   0  0  0  0  0  0  0  0  0  0  0  0
    3.3174  -15.5236    0.0000 C   0  0  0  0  0  0  0  0  0  0  0  0
    0.3559  -15.9739    0.0000 C   0  0  0  0  0  0  0  0  0  0  0  0
    0.9560  -15.1684    0.0000 C   0  0  0  0  0  0  0  0  0  0  0  0
    1.8456  -13.0620    0.0000 C   0  0  0  0  0  0  0  0  0  0  0  0
    6.6849   -3.4889    0.0000 C   0  0  0  0  0  0  0  0  0  0  0  0
    9.2463   -3.7404    0.0000 C   0  0  0  0  0  0  0  0  0  0  0  0
    9.6446   -3.0179    0.0000 C   0  0  0  0  0  0  0  0  0  0  0  0
    8.1558   -5.9412    0.0000 C   0  0  0  0  0  0  0  0  0  0  0  0
    6.7691   -8.4402    0.0000 C   0  0  0  0  0  0  0  0  0  0  0  0
    3.2323  -10.5631    0.0000 C   0  0  0  0  0  0  0  0  0  0  0  0
    1.9238  -18.0143    0.0000 O   0  0  0  0  0  0  0  0  0  0  0  0
    2.6436  -18.4173    0.0000 C   0  0  0  0  0  0  0  0  0  0  0  0
    3.3526  -17.9954    0.0000 C   0  0  0  0  0  0  0  0  0  0  0  0
    4.0725  -18.3984    0.0000 C   0  0  0  0  0  0  0  0  0  0  0  0
    4.7814  -17.9765    0.0000 C   0  0  0  0  0  0  0  0  0  0  0  0
    5.5013  -18.3795    0.0000 C   0  0  0  0  0  0  0  0  0  0  0  0
    6.2102  -17.9576    0.0000 C   0  0  0  0  0  0  0  0  0  0  0  0
    6.9301  -18.3607    0.0000 C   0  0  0  0  0  0  0  0  0  0  0  0
    7.6390  -17.9388    0.0000 C   0  0  0  0  0  0  0  0  0  0  0  0
    8.3589  -18.3418    0.0000 C   0  0  0  0  0  0  0  0  0  0  0  0
    9.0679  -17.9199    0.0000 C   0  0  0  0  0  0  0  0  0  0  0  0
    9.7877  -18.3229    0.0000 C   0  0  0  0  0  0  0  0  0  0  0  0
   10.4967  -17.9010    0.0000 C   0  0  0  0  0  0  0  0  0  0  0  0
   11.2165  -18.3040    0.0000 C   0  0  0  0  0  0  0  0  0  0  0  0
   11.9255  -17.8821    0.0000 C   0  0  0  0  0  0  0  0  0  0  0  0
   12.6454  -18.2851    0.0000 C   0  0  0  0  0  0  0  0  0  0  0  0
    2.6545  -19.2422    0.0000 O   0  0  0  0  0  0  0  0  0  0  0  0
   13.3543  -17.8632    0.0000 C   0  0  0  0  0  0  0  0  0  0  0  0
  1  2  1  0  0  0  0
  2  3  2  0  0  0  0
  3  4  1  0  0  0  0
  4  5  2  0  0  0  0
  5  6  1  0  0  0  0
  6  7  2  0  0  0  0
  7  8  1  0  0  0  0
  8  9  2  0  0  0  0
  9 10  1  0  0  0  0
 10 11  2  0  0  0  0
 11 12  1  0  0  0  0
 12 13  2  0  0  0  0
 13 14  1  0  0  0  0
 14 15  2  0  0  0  0
 15 16  1  0  0  0  0
 16 17  2  0  0  0  0
 17 18  1  0  0  0  0
 18 19  2  0  0  0  0
 19 20  1  0  0  0  0
  1 21  1  0  0  0  0
 21 22  1  0  0  0  0
 22 23  1  0  0  0  0
 23 24  1  0  0  0  0
 24 25  1  0  0  0  0
 25  1  2  0  0  0  0
 20 26  2  0  0  0  0
 26 27  1  0  0  0  0
 27 28  1  0  0  0  0
 28 29  1  0  0  0  0
 29 30  1  0  0  0  0
 30 20  1  0  0  0  0
 25 31  1  0  0  0  0
 21 32  1  0  0  0  0
 21 33  1  0  0  0  0
  4 34  1  0  0  0  0
 26 35  1  0  0  0  0
 30 36  1  0  0  0  0
 30 37  1  0  0  0  0
 17 38  1  0  0  0  0
 13 39  1  0  0  0  0
  8 40  1  0  0  0  0
 23 41  1  1  0  0  0
 41 42  1  0  0  0  0
 42 43  1  0  0  0  0
 43 44  1  0  0  0  0
 44 45  1  0  0  0  0
 45 46  1  0  0  0  0
 46 47  1  0  0  0  0
 47 48  1  0  0  0  0
 48 49  1  0  0  0  0
 49 50  1  0  0  0  0
 50 51  1  0  0  0  0
 51 52  1  0  0  0  0
 52 53  1  0  0  0  0
 53 54  1  0  0  0  0
 54 55  1  0  0  0  0
 55 56  1  0  0  0  0
 42 57  2  0  0  0  0
 56 58  1  0  0  0  0
M  END
>  <cdx:fragmentId>
3

$$$$
