20416.cdx
  Mrv1902 05222410242D          

 17 19  0  0  0  0            999 V2000
    6.0274   -8.3119    0.0000 C   0  0  0  0  0  0  0  0  0  0  0  0
    6.0274   -9.1369    0.0000 C   0  0  0  0  0  0  0  0  0  0  0  0
    6.7419   -9.5494    0.0000 C   0  0  0  0  0  0  0  0  0  0  0  0
    7.4564   -9.1369    0.0000 C   0  0  0  0  0  0  0  0  0  0  0  0
    7.4564   -8.3119    0.0000 C   0  0  0  0  0  0  0  0  0  0  0  0
    6.7419   -7.8994    0.0000 C   0  0  0  0  0  0  0  0  0  0  0  0
    8.1708   -7.8994    0.0000 C   0  0  0  0  0  0  0  0  0  0  0  0
    8.1708   -7.0744    0.0000 C   0  0  0  0  0  0  0  0  0  0  0  0
    7.4564   -6.6619    0.0000 C   0  0  0  0  0  0  0  0  0  0  0  0
    6.7419   -7.0744    0.0000 O   0  0  0  0  0  0  0  0  0  0  0  0
    5.2428   -8.0569    0.0000 C   0  0  0  0  0  0  0  0  0  0  0  0
    4.7579   -8.7244    0.0000 C   0  0  0  0  0  0  0  0  0  0  0  0
    5.2428   -9.3918    0.0000 O   0  0  0  0  0  0  0  0  0  0  0  0
    7.4564   -5.8369    0.0000 O   0  0  0  0  0  0  0  0  0  0  0  0
    3.9329   -8.7244    0.0000 C   0  0  0  0  0  0  0  0  0  0  0  0
    3.5204   -9.4388    0.0000 C   0  0  0  0  0  0  0  0  0  0  0  0
    3.5204   -8.0099    0.0000 O   0  0  0  0  0  0  0  0  0  0  0  0
  1  2  2  0  0  0  0
  2  3  1  0  0  0  0
  3  4  2  0  0  0  0
  4  5  1  0  0  0  0
  5  6  2  0  0  0  0
  6  1  1  0  0  0  0
  5  7  1  0  0  0  0
  7  8  2  0  0  0  0
  8  9  1  0  0  0  0
  9 10  1  0  0  0  0
 10  6  1  0  0  0  0
  1 11  1  0  0  0  0
 11 12  2  0  0  0  0
 12 13  1  0  0  0  0
 13  2  1  0  0  0  0
  9 14  2  0  0  0  0
 12 15  1  0  0  0  0
 15 16  1  0  0  0  0
 15 17  2  0  0  0  0
M  END
>  <cdx:fragmentId>
5

$$$$
