20419.cdx
  Mrv1902 05222410232D          

 12 12  0  0  0  0            999 V2000
    5.0718   -7.5064    0.0000 C   0  0  0  0  0  0  0  0  0  0  0  0
    5.0718   -8.3314    0.0000 C   0  0  0  0  0  0  0  0  0  0  0  0
    5.7863   -8.7439    0.0000 C   0  0  0  0  0  0  0  0  0  0  0  0
    6.5007   -8.3314    0.0000 C   0  0  0  0  0  0  0  0  0  0  0  0
    6.5007   -7.5064    0.0000 C   0  0  0  0  0  0  0  0  0  0  0  0
    5.7863   -7.0939    0.0000 C   0  0  0  0  0  0  0  0  0  0  0  0
    4.3573   -7.0939    0.0000 C   0  0  0  0  0  0  0  0  0  0  0  0
    4.3573   -6.2689    0.0000 C   0  0  0  0  0  0  0  0  0  0  0  0
    3.6429   -7.5064    0.0000 C   0  0  0  0  0  0  0  0  0  0  0  0
    5.7863   -6.2689    0.0000 O   0  0  0  0  0  0  0  0  0  0  0  0
    7.2152   -7.0939    0.0000 O   0  0  0  0  0  0  0  0  0  0  0  0
    7.2152   -8.7439    0.0000 C   0  0  0  0  0  0  0  0  0  0  0  0
  1  2  1  0  0  0  0
  2  3  1  0  0  0  0
  3  4  1  0  0  0  0
  4  5  1  0  0  0  0
  5  6  1  0  0  0  0
  6  1  2  0  0  0  0
  1  7  1  0  0  0  0
  7  8  1  0  0  0  0
  7  9  1  0  0  0  0
  6 10  1  0  0  0  0
  5 11  2  0  0  0  0
  4 12  1  0  0  0  0
M  END
>  <cdx:fragmentId>
5

$$$$
