20412.cdx
  Mrv1902 05222410242D          

 33 36  0  0  0  0            999 V2000
    3.6986   -7.9231    0.0000 C   0  0  0  0  0  0  0  0  0  0  0  0
    3.6986   -8.7481    0.0000 C   0  0  1  0  0  0  0  0  0  0  0  0
    4.4131   -9.1606    0.0000 C   0  0  0  0  0  0  0  0  0  0  0  0
    5.1276   -8.7481    0.0000 C   0  0  1  0  0  0  0  0  0  0  0  0
    5.1276   -7.9231    0.0000 C   0  0  2  0  0  0  0  0  0  0  0  0
    4.4131   -7.5106    0.0000 C   0  0  0  0  0  0  0  0  0  0  0  0
    5.8420   -9.1606    0.0000 C   0  0  0  0  0  0  0  0  0  0  0  0
    6.5565   -8.7481    0.0000 C   0  0  0  0  0  0  0  0  0  0  0  0
    6.5565   -7.9231    0.0000 C   0  0  0  0  0  0  0  0  0  0  0  0
    5.8420   -7.5106    0.0000 C   0  0  0  0  0  0  0  0  0  0  0  0
    7.2710   -7.5106    0.0000 C   0  0  1  0  0  0  0  0  0  0  0  0
    7.2710   -6.6856    0.0000 C   0  0  2  0  0  0  0  0  0  0  0  0
    6.5565   -6.2731    0.0000 C   0  0  0  0  0  0  0  0  0  0  0  0
    5.8420   -6.6856    0.0000 C   0  0  0  0  0  0  0  0  0  0  0  0
    8.0556   -7.7656    0.0000 C   0  0  0  0  0  0  0  0  0  0  0  0
    8.5405   -7.0981    0.0000 C   0  0  0  0  0  0  0  0  0  0  0  0
    8.0556   -6.4307    0.0000 C   0  0  2  0  0  0  0  0  0  0  0  0
    8.2691   -5.6338    0.0000 C   0  0  1  0  0  0  0  0  0  0  0  0
    9.0660   -5.4203    0.0000 C   0  0  0  0  0  0  0  0  0  0  0  0
    2.9842   -9.1606    0.0000 O   0  0  0  0  0  0  0  0  0  0  0  0
    5.1276   -7.0981    0.0000 C   0  0  0  0  0  0  0  0  0  0  0  0
    7.2710   -5.8606    0.0000 C   0  0  0  0  0  0  0  0  0  0  0  0
    7.6858   -5.0505    0.0000 C   0  0  0  0  0  0  0  0  0  0  0  0
    9.2796   -4.6234    0.0000 C   0  0  0  0  0  0  0  0  0  0  0  0
   10.0650   -4.4000    0.0000 C   0  0  2  0  0  0  0  0  0  0  0  0
   10.2785   -3.6031    0.0000 C   0  0  0  0  0  0  0  0  0  0  0  0
   11.0754   -3.3896    0.0000 C   0  0  0  0  0  0  0  0  0  0  0  0
    9.6952   -3.0197    0.0000 C   0  0  0  0  0  0  0  0  0  0  0  0
   10.6484   -4.9834    0.0000 C   0  0  0  0  0  0  0  0  0  0  0  0
   11.4453   -4.7698    0.0000 C   0  0  0  0  0  0  0  0  0  0  0  0
    7.2710   -8.3356    0.0000 H   0  0  0  0  0  0  0  0  0  0  0  0
    8.8525   -6.2172    0.0000 H   0  0  0  0  0  0  0  0  0  0  0  0
    5.1276   -9.5731    0.0000 H   0  0  0  0  0  0  0  0  0  0  0  0
  1  2  1  0  0  0  0
  2  3  1  0  0  0  0
  3  4  1  0  0  0  0
  4  5  1  0  0  0  0
  5  6  1  0  0  0  0
  6  1  1  0  0  0  0
  4  7  1  0  0  0  0
  7  8  1  0  0  0  0
  8  9  1  0  0  0  0
  9 10  2  0  0  0  0
 10  5  1  0  0  0  0
  9 11  1  0  0  0  0
 11 12  1  0  0  0  0
 12 13  1  0  0  0  0
 13 14  1  0  0  0  0
 14 10  1  0  0  0  0
 11 15  1  0  0  0  0
 15 16  1  0  0  0  0
 16 17  1  0  0  0  0
 17 12  1  0  0  0  0
 17 18  1  0  0  0  0
 18 19  1  0  0  0  0
  2 20  1  1  0  0  0
  5 21  1  1  0  0  0
 12 22  1  1  0  0  0
 18 23  1  6  0  0  0
 19 24  1  0  0  0  0
 25 24  1  6  0  0  0
 25 26  1  0  0  0  0
 26 27  1  0  0  0  0
 26 28  1  0  0  0  0
 25 29  1  0  0  0  0
 29 30  1  0  0  0  0
 11 31  1  6  0  0  0
 17 32  1  6  0  0  0
  4 33  1  6  0  0  0
M  END
>  <cdx:fragmentId>
122

$$$$
