20413.cdx
  Mrv1902 05222410252D          

 57 58  0  0  0  0            999 V2000
   19.8260   -8.4724    0.0000 C   0  0  0  0  0  0  0  0  0  0  0  0
   20.5410   -8.0608    0.0000 C   0  0  0  0  0  0  0  0  0  0  0  0
   20.5421   -7.2358    0.0000 C   0  0  1  0  0  0  0  0  0  0  0  0
   19.8281   -6.8224    0.0000 C   0  0  0  0  0  0  0  0  0  0  0  0
   19.1131   -7.2340    0.0000 C   0  0  0  0  0  0  0  0  0  0  0  0
   19.1121   -8.0590    0.0000 C   0  0  0  0  0  0  0  0  0  0  0  0
   18.3992   -6.8206    0.0000 C   0  0  0  0  0  0  0  0  0  0  0  0
   17.6831   -8.0572    0.0000 C   0  0  0  0  0  0  0  0  0  0  0  0
   18.3971   -8.4706    0.0000 C   0  0  0  0  0  0  0  0  0  0  0  0
   16.2542   -8.0554    0.0000 C   0  0  0  0  0  0  0  0  0  0  0  0
   16.9681   -8.4688    0.0000 C   0  0  0  0  0  0  0  0  0  0  0  0
   14.8252   -8.0536    0.0000 C   0  0  0  0  0  0  0  0  0  0  0  0
   15.5392   -8.4670    0.0000 C   0  0  0  0  0  0  0  0  0  0  0  0
   13.3963   -8.0518    0.0000 C   0  0  0  0  0  0  0  0  0  0  0  0
   14.1103   -8.4652    0.0000 C   0  0  0  0  0  0  0  0  0  0  0  0
   11.9674   -8.0500    0.0000 C   0  0  0  0  0  0  0  0  0  0  0  0
   12.6813   -8.4634    0.0000 C   0  0  0  0  0  0  0  0  0  0  0  0
   10.5395   -7.2232    0.0000 C   0  0  0  0  0  0  0  0  0  0  0  0
   10.5384   -8.0482    0.0000 C   0  0  0  0  0  0  0  0  0  0  0  0
   11.2524   -8.4616    0.0000 C   0  0  0  0  0  0  0  0  0  0  0  0
    9.1095   -8.0464    0.0000 C   0  0  0  0  0  0  0  0  0  0  0  0
    9.8234   -8.4598    0.0000 C   0  0  0  0  0  0  0  0  0  0  0  0
    7.6816   -7.2196    0.0000 C   0  0  0  0  0  0  0  0  0  0  0  0
    7.6805   -8.0446    0.0000 C   0  0  0  0  0  0  0  0  0  0  0  0
    8.3945   -8.4580    0.0000 C   0  0  0  0  0  0  0  0  0  0  0  0
    6.2516   -8.0428    0.0000 C   0  0  0  0  0  0  0  0  0  0  0  0
    6.9656   -8.4562    0.0000 C   0  0  0  0  0  0  0  0  0  0  0  0
   16.9671   -9.2938    0.0000 C   0  0  0  0  0  0  0  0  0  0  0  0
   14.1092   -9.2902    0.0000 C   0  0  0  0  0  0  0  0  0  0  0  0
    5.5366   -8.4544    0.0000 C   0  0  0  0  0  0  0  0  0  0  0  0
    5.5356   -9.2794    0.0000 C   0  0  0  0  0  0  0  0  0  0  0  0
    4.8227   -8.0410    0.0000 C   0  0  0  0  0  0  0  0  0  0  0  0
    4.1077   -8.4526    0.0000 C   0  0  0  0  0  0  0  0  0  0  0  0
    4.8206   -9.6910    0.0000 C   0  0  0  0  0  0  0  0  0  0  0  0
    4.1066   -9.2776    0.0000 C   0  0  1  0  0  0  0  0  0  0  0  0
    6.2495   -9.6928    0.0000 C   0  0  0  0  0  0  0  0  0  0  0  0
    4.4111   -7.3260    0.0000 C   0  0  0  0  0  0  0  0  0  0  0  0
    5.2361   -7.3271    0.0000 C   0  0  0  0  0  0  0  0  0  0  0  0
    3.3916   -9.6892    0.0000 O   0  0  0  0  0  0  0  0  0  0  0  0
   21.2570   -6.8242    0.0000 O   0  0  0  0  0  0  0  0  0  0  0  0
   21.7549   -5.4711    0.0000 O   0  0  0  0  0  0  0  0  0  0  0  0
   20.4863   -5.4934    0.0000 C   0  0  0  0  0  0  0  0  0  0  0  0
   19.7740   -5.9097    0.0000 C   0  0  0  0  0  0  0  0  0  0  0  0
   19.0574   -5.5009    0.0000 C   0  0  0  0  0  0  0  0  0  0  0  0
   18.3451   -5.9172    0.0000 C   0  0  0  0  0  0  0  0  0  0  0  0
   17.6284   -5.5085    0.0000 C   0  0  0  0  0  0  0  0  0  0  0  0
   16.9162   -5.9248    0.0000 C   0  0  0  0  0  0  0  0  0  0  0  0
   16.1995   -5.5161    0.0000 C   0  0  0  0  0  0  0  0  0  0  0  0
   15.4872   -5.9323    0.0000 C   0  0  0  0  0  0  0  0  0  0  0  0
   14.7706   -5.5236    0.0000 C   0  0  0  0  0  0  0  0  0  0  0  0
   14.0583   -5.9399    0.0000 C   0  0  0  0  0  0  0  0  0  0  0  0
   13.3417   -5.5312    0.0000 C   0  0  0  0  0  0  0  0  0  0  0  0
   12.6294   -5.9475    0.0000 C   0  0  0  0  0  0  0  0  0  0  0  0
   11.9127   -5.5387    0.0000 C   0  0  0  0  0  0  0  0  0  0  0  0
   21.2225   -5.8657    0.0000 C   0  0  0  0  0  0  0  0  0  0  0  0
   19.4135   -9.1869    0.0000 C   0  0  0  0  0  0  0  0  0  0  0  0
   20.2385   -9.1869    0.0000 C   0  0  0  0  0  0  0  0  0  0  0  0
  1  2  1  0  0  0  0
  2  3  1  0  0  0  0
  3  4  1  0  0  0  0
  4  5  1  0  0  0  0
  5  6  2  0  0  0  0
  6  1  1  0  0  0  0
  5  7  1  0  0  0  0
  8  9  2  0  0  0  0
  9  6  1  0  0  0  0
 10 11  2  0  0  0  0
 11  8  1  0  0  0  0
 12 13  2  0  0  0  0
 13 10  1  0  0  0  0
 14 15  2  0  0  0  0
 15 12  1  0  0  0  0
 16 17  2  0  0  0  0
 17 14  1  0  0  0  0
 18 19  1  0  0  0  0
 19 20  2  0  0  0  0
 20 16  1  0  0  0  0
 21 22  2  0  0  0  0
 22 19  1  0  0  0  0
 23 24  1  0  0  0  0
 24 25  2  0  0  0  0
 25 21  1  0  0  0  0
 26 27  2  0  0  0  0
 27 24  1  0  0  0  0
 11 28  1  0  0  0  0
 15 29  1  0  0  0  0
 26 30  1  0  0  0  0
 30 31  2  0  0  0  0
 30 32  1  0  0  0  0
 32 33  1  0  0  0  0
 31 34  1  0  0  0  0
 34 35  1  0  0  0  0
 33 35  1  0  0  0  0
 31 36  1  0  0  0  0
 32 37  1  0  0  0  0
 32 38  1  0  0  0  0
 35 39  1  1  0  0  0
  3 40  1  1  0  0  0
 55 41  2  0  0  0  0
 42 43  1  0  0  0  0
 43 44  1  0  0  0  0
 44 45  1  0  0  0  0
 45 46  1  0  0  0  0
 46 47  1  0  0  0  0
 47 48  1  0  0  0  0
 48 49  1  0  0  0  0
 49 50  1  0  0  0  0
 50 51  1  0  0  0  0
 51 52  1  0  0  0  0
 52 53  1  0  0  0  0
 55 42  1  0  0  0  0
 55 40  1  0  0  0  0
 53 54  1  0  0  0  0
  1 56  1  0  0  0  0
  1 57  1  0  0  0  0
M  END
>  <cdx:fragmentId>
5

$$$$
