20418.cdx
  Mrv1902 05222410222D          

 20 21  0  0  0  0            999 V2000
    7.7022   -9.4960    0.0000 O   0  0  0  0  0  0  0  0  0  0  0  0
    6.2733   -7.0210    0.0000 O   0  0  0  0  0  0  0  0  0  0  0  0
    4.1299   -9.9085    0.0000 O   0  0  0  0  0  0  0  0  0  0  0  0
    4.1299   -8.2585    0.0000 C   0  0  0  0  0  0  0  0  0  0  0  0
    4.8443   -9.4960    0.0000 C   0  0  0  0  0  0  0  0  0  0  0  0
    4.8443   -8.6710    0.0000 C   0  0  0  0  0  0  0  0  0  0  0  0
    5.5588   -8.2585    0.0000 C   0  0  0  0  0  0  0  0  0  0  0  0
    6.2733   -8.6710    0.0000 C   0  0  0  0  0  0  0  0  0  0  0  0
   10.5601   -7.0210    0.0000 C   0  0  0  0  0  0  0  0  0  0  0  0
    9.1312   -9.4960    0.0000 O   0  0  0  0  0  0  0  0  0  0  0  0
    9.1312   -7.0210    0.0000 O   0  0  0  0  0  0  0  0  0  0  0  0
    8.4167   -7.4335    0.0000 C   0  0  0  0  0  0  0  0  0  0  0  0
    7.7022   -7.0210    0.0000 C   0  0  0  0  0  0  0  0  0  0  0  0
    6.9878   -7.4335    0.0000 C   0  0  0  0  0  0  0  0  0  0  0  0
    6.9878   -8.2585    0.0000 C   0  0  0  0  0  0  0  0  0  0  0  0
    7.7022   -8.6710    0.0000 C   0  0  0  0  0  0  0  0  0  0  0  0
    8.4167   -8.2585    0.0000 C   0  0  0  0  0  0  0  0  0  0  0  0
    9.1312   -8.6710    0.0000 C   0  0  0  0  0  0  0  0  0  0  0  0
    9.8456   -8.2585    0.0000 C   0  0  0  0  0  0  0  0  0  0  0  0
    9.8456   -7.4335    0.0000 C   0  0  0  0  0  0  0  0  0  0  0  0
 16  1  1  0  0  0  0
 14  2  1  0  0  0  0
 15  8  1  0  0  0  0
  5  3  1  0  0  0  0
  6  4  1  0  0  0  0
  6  5  1  0  0  0  0
  7  6  2  0  0  0  0
  8  7  1  0  0  0  0
 20  9  1  0  0  0  0
 18 10  2  0  0  0  0
 20 11  1  0  0  0  0
 12 11  1  0  0  0  0
 17 12  2  0  0  0  0
 13 12  1  0  0  0  0
 14 13  2  0  0  0  0
 15 14  1  0  0  0  0
 16 15  2  0  0  0  0
 17 16  1  0  0  0  0
 18 17  1  0  0  0  0
 19 18  1  0  0  0  0
 20 19  2  0  0  0  0
M  END
>  <cdx:fragmentId>
5

$$$$
