20423.cdx
  Mrv1902 05222410212D          

 12 12  0  0  0  0            999 V2000
    6.2268  -10.5589    0.0000 C   0  0  0  0  0  0  0  0  0  0  0  0
    6.2268  -11.3839    0.0000 C   0  0  0  0  0  0  0  0  0  0  0  0
    6.9413  -11.7964    0.0000 C   0  0  0  0  0  0  0  0  0  0  0  0
    7.6557  -11.3839    0.0000 C   0  0  0  0  0  0  0  0  0  0  0  0
    7.6557  -10.5589    0.0000 C   0  0  0  0  0  0  0  0  0  0  0  0
    6.9413  -10.1464    0.0000 C   0  0  0  0  0  0  0  0  0  0  0  0
    5.5123  -11.7964    0.0000 C   0  0  0  0  0  0  0  0  0  0  0  0
    8.3702  -11.7964    0.0000 O   0  0  0  0  0  0  0  0  0  0  0  0
    5.5123  -10.1464    0.0000 C   0  0  0  0  0  0  0  0  0  0  0  0
    4.7979  -10.5589    0.0000 O   0  0  0  0  0  0  0  0  0  0  0  0
    6.5288   -9.4319    0.0000 C   0  0  0  0  0  0  0  0  0  0  0  0
    7.3538   -9.4319    0.0000 C   0  0  0  0  0  0  0  0  0  0  0  0
  1  2  1  0  0  0  0
  2  3  2  0  0  0  0
  3  4  1  0  0  0  0
  4  5  1  0  0  0  0
  5  6  1  0  0  0  0
  6  1  1  0  0  0  0
  2  7  1  0  0  0  0
  4  8  2  0  0  0  0
  1  9  1  0  0  0  0
  9 10  2  0  0  0  0
  6 11  1  0  0  0  0
  6 12  1  0  0  0  0
M  END
>  <cdx:fragmentId>
5

$$$$
