20422.cdx
  Mrv1902 05222410212D          

 12 12  0  0  0  0            999 V2000
    6.5293  -10.3114    0.0000 C   0  0  0  0  0  0  0  0  0  0  0  0
    6.5293  -11.1364    0.0000 C   0  0  0  0  0  0  0  0  0  0  0  0
    7.2438  -11.5489    0.0000 C   0  0  0  0  0  0  0  0  0  0  0  0
    7.9582  -11.1364    0.0000 C   0  0  0  0  0  0  0  0  0  0  0  0
    7.9582  -10.3114    0.0000 C   0  0  0  0  0  0  0  0  0  0  0  0
    7.2438   -9.8989    0.0000 C   0  0  0  0  0  0  0  0  0  0  0  0
    8.6727   -9.8989    0.0000 C   0  0  0  0  0  0  0  0  0  0  0  0
    8.6727  -11.5489    0.0000 O   0  0  0  0  0  0  0  0  0  0  0  0
    5.7043  -10.3114    0.0000 C   0  0  0  0  0  0  0  0  0  0  0  0
    6.1168   -9.5969    0.0000 C   0  0  0  0  0  0  0  0  0  0  0  0
    7.2438   -9.0739    0.0000 C   0  0  0  0  0  0  0  0  0  0  0  0
    7.9582   -8.6614    0.0000 O   0  0  0  0  0  0  0  0  0  0  0  0
  1  2  1  0  0  0  0
  2  3  1  0  0  0  0
  3  4  1  0  0  0  0
  4  5  1  0  0  0  0
  5  6  2  0  0  0  0
  6  1  1  0  0  0  0
  5  7  1  0  0  0  0
  4  8  2  0  0  0  0
  1  9  1  0  0  0  0
  1 10  1  0  0  0  0
  6 11  1  0  0  0  0
 11 12  2  0  0  0  0
M  END
>  <cdx:fragmentId>
5

$$$$
