20425.cdx
  Mrv1902 05222410232D          

 23 24  0  0  0  0            999 V2000
    5.7550  -10.7344    0.0000 C   0  0  2  0  0  0  0  0  0  0  0  0
    6.4694  -10.3219    0.0000 C   0  0  2  0  0  0  0  0  0  0  0  0
    6.4694   -9.4969    0.0000 C   0  0  1  0  0  0  0  0  0  0  0  0
    5.7550   -9.0844    0.0000 O   0  0  0  0  0  0  0  0  0  0  0  0
    5.0405   -9.4969    0.0000 C   0  0  1  0  0  0  0  0  0  0  0  0
    5.0405  -10.3219    0.0000 C   0  0  1  0  0  0  0  0  0  0  0  0
    4.3260   -9.0844    0.0000 C   0  0  0  0  0  0  0  0  0  0  0  0
    3.6115   -9.4969    0.0000 O   0  0  0  0  0  0  0  0  0  0  0  0
    5.7550  -11.5594    0.0000 O   0  0  0  0  0  0  0  0  0  0  0  0
    4.3260  -10.7344    0.0000 O   0  0  0  0  0  0  0  0  0  0  0  0
    7.1839  -10.7344    0.0000 O   0  0  0  0  0  0  0  0  0  0  0  0
    7.1839   -9.0844    0.0000 O   0  0  0  0  0  0  0  0  0  0  0  0
    7.1639   -8.2696    0.0000 C   0  0  1  0  0  0  0  0  0  0  0  0
    7.8784   -7.8571    0.0000 C   0  0  0  0  0  0  0  0  0  0  0  0
    7.8784   -7.0321    0.0000 C   0  0  0  0  0  0  0  0  0  0  0  0
    7.1639   -6.6196    0.0000 C   0  0  0  0  0  0  0  0  0  0  0  0
    6.4495   -7.0321    0.0000 C   0  0  0  0  0  0  0  0  0  0  0  0
    6.4495   -7.8571    0.0000 C   0  0  0  0  0  0  0  0  0  0  0  0
    8.6753   -6.8186    0.0000 C   0  0  0  0  0  0  0  0  0  0  0  0
    8.2909   -6.3176    0.0000 C   0  0  0  0  0  0  0  0  0  0  0  0
    5.7350   -6.6196    0.0000 C   0  0  0  0  0  0  0  0  0  0  0  0
    7.1639   -5.7946    0.0000 C   0  0  0  0  0  0  0  0  0  0  0  0
    6.4495   -5.3821    0.0000 O   0  0  0  0  0  0  0  0  0  0  0  0
  1  2  1  0  0  0  0
  2  3  1  0  0  0  0
  3  4  1  0  0  0  0
  4  5  1  0  0  0  0
  5  6  1  0  0  0  0
  6  1  1  0  0  0  0
  5  7  1  1  0  0  0
  7  8  1  0  0  0  0
  1  9  1  1  0  0  0
  6 10  1  6  0  0  0
  2 11  1  6  0  0  0
  3 12  1  1  0  0  0
 13 14  1  0  0  0  0
 14 15  1  0  0  0  0
 15 16  1  0  0  0  0
 16 17  2  0  0  0  0
 17 18  1  0  0  0  0
 18 13  1  0  0  0  0
 15 19  1  0  0  0  0
 15 20  1  0  0  0  0
 17 21  1  0  0  0  0
 16 22  1  0  0  0  0
 22 23  2  0  0  0  0
 13 12  1  6  0  0  0
M  END
>  <cdx:fragmentId>
101

$$$$
