20421.cdx
  Mrv1902 05222410202D          

 15 15  0  0  0  0            999 V2000
    6.6806  -10.2014    0.0000 C   0  0  0  0  0  0  0  0  0  0  0  0
    6.6806  -11.0264    0.0000 C   0  0  0  0  0  0  0  0  0  0  0  0
    7.3950  -11.4389    0.0000 C   0  0  0  0  0  0  0  0  0  0  0  0
    8.1095  -11.0264    0.0000 C   0  0  0  0  0  0  0  0  0  0  0  0
    8.1095  -10.2014    0.0000 C   0  0  0  0  0  0  0  0  0  0  0  0
    7.3950   -9.7889    0.0000 C   0  0  0  0  0  0  0  0  0  0  0  0
    5.9661   -9.7889    0.0000 C   0  0  0  0  0  0  0  0  0  0  0  0
    7.3950   -8.9639    0.0000 O   0  0  0  0  0  0  0  0  0  0  0  0
    8.8240   -9.7889    0.0000 C   0  0  0  0  0  0  0  0  0  0  0  0
    5.2516   -9.3764    0.0000 C   0  0  0  0  0  0  0  0  0  0  0  0
    5.5536  -10.5034    0.0000 C   0  0  0  0  0  0  0  0  0  0  0  0
    6.3786   -9.0744    0.0000 C   0  0  0  0  0  0  0  0  0  0  0  0
    9.5384   -9.3764    0.0000 C   0  0  0  0  0  0  0  0  0  0  0  0
    8.4115   -9.0744    0.0000 C   0  0  0  0  0  0  0  0  0  0  0  0
    9.2365  -10.5034    0.0000 C   0  0  0  0  0  0  0  0  0  0  0  0
  1  2  2  0  0  0  0
  2  3  1  0  0  0  0
  3  4  2  0  0  0  0
  4  5  1  0  0  0  0
  5  6  2  0  0  0  0
  6  1  1  0  0  0  0
  1  7  1  0  0  0  0
  6  8  1  0  0  0  0
  5  9  1  0  0  0  0
  7 10  1  0  0  0  0
  7 11  1  0  0  0  0
  7 12  1  0  0  0  0
  9 13  1  0  0  0  0
  9 14  1  0  0  0  0
  9 15  1  0  0  0  0
M  END
>  <cdx:fragmentId>
5

$$$$
