20420.cdx
  Mrv1902 05222410212D          

  9  9  0  0  0  0            999 V2000
    6.7631   -9.0464    0.0000 C   0  0  0  0  0  0  0  0  0  0  0  0
    6.7631   -9.8714    0.0000 C   0  0  0  0  0  0  0  0  0  0  0  0
    7.4775  -10.2839    0.0000 C   0  0  0  0  0  0  0  0  0  0  0  0
    8.1920   -9.8714    0.0000 O   0  0  0  0  0  0  0  0  0  0  0  0
    8.1920   -9.0464    0.0000 C   0  0  0  0  0  0  0  0  0  0  0  0
    7.4775   -8.6339    0.0000 C   0  0  0  0  0  0  0  0  0  0  0  0
    7.4775   -7.8089    0.0000 O   0  0  0  0  0  0  0  0  0  0  0  0
    8.9065   -8.6339    0.0000 C   0  0  0  0  0  0  0  0  0  0  0  0
    6.0486   -8.6339    0.0000 O   0  0  0  0  0  0  0  0  0  0  0  0
  1  2  1  0  0  0  0
  2  3  1  0  0  0  0
  3  4  1  0  0  0  0
  4  5  1  0  0  0  0
  5  6  2  0  0  0  0
  6  1  1  0  0  0  0
  6  7  1  0  0  0  0
  5  8  1  0  0  0  0
  1  9  2  0  0  0  0
M  END
>  <cdx:fragmentId>
5

$$$$
