20428.cdx
  Mrv1902 05222410232D          

 10 11  0  0  0  0            999 V2000
    6.5809   -8.5244    0.0000 C   0  0  0  0  0  0  0  0  0  0  0  0
    7.3656   -8.7793    0.0000 C   0  0  0  0  0  0  0  0  0  0  0  0
    7.8505   -8.1119    0.0000 C   0  0  0  0  0  0  0  0  0  0  0  0
    7.3656   -7.4444    0.0000 C   0  0  0  0  0  0  0  0  0  0  0  0
    6.5809   -7.6994    0.0000 C   0  0  0  0  0  0  0  0  0  0  0  0
    5.7559   -7.6994    0.0000 C   0  0  0  0  0  0  0  0  0  0  0  0
    5.7559   -8.5244    0.0000 C   0  0  0  0  0  0  0  0  0  0  0  0
    7.6205   -6.6598    0.0000 O   0  0  0  0  0  0  0  0  0  0  0  0
    8.4275   -6.4883    0.0000 C   0  0  0  0  0  0  0  0  0  0  0  0
    8.6824   -5.7037    0.0000 C   0  0  0  0  0  0  0  0  0  0  0  0
  1  2  1  0  0  0  0
  2  3  2  0  0  0  0
  3  4  1  0  0  0  0
  4  5  1  0  0  0  0
  5  6  1  0  0  0  0
  6  7  1  0  0  0  0
  1  7  1  0  0  0  0
  1  5  1  0  0  0  0
  9 10  1  0  0  0  0
  8  9  1  0  0  0  0
  4  8  1  0  0  0  0
M  END
>  <cdx:fragmentId>
2968

$$$$
