20434.cdx
  Mrv1902 05222410212D          

 12 13  0  0  0  0            999 V2000
    4.9068  -10.5314    0.0000 C   0  0  0  0  0  0  0  0  0  0  0  0
    4.9068  -11.3564    0.0000 C   0  0  0  0  0  0  0  0  0  0  0  0
    5.6213  -11.7689    0.0000 C   0  0  0  0  0  0  0  0  0  0  0  0
    6.3357  -11.3564    0.0000 C   0  0  0  0  0  0  0  0  0  0  0  0
    6.3357  -10.5314    0.0000 C   0  0  0  0  0  0  0  0  0  0  0  0
    5.6213  -10.1189    0.0000 C   0  0  0  0  0  0  0  0  0  0  0  0
    7.1204  -11.6113    0.0000 C   0  0  0  0  0  0  0  0  0  0  0  0
    7.6053  -10.9439    0.0000 C   0  0  0  0  0  0  0  0  0  0  0  0
    7.1204  -10.2765    0.0000 C   0  0  0  0  0  0  0  0  0  0  0  0
    4.1923  -11.7689    0.0000 C   0  0  0  0  0  0  0  0  0  0  0  0
    7.3753   -9.4918    0.0000 C   0  0  0  0  0  0  0  0  0  0  0  0
    8.4303  -10.9439    0.0000 O   0  0  0  0  0  0  0  0  0  0  0  0
  1  2  1  0  0  0  0
  2  3  1  0  0  0  0
  3  4  1  0  0  0  0
  4  5  1  0  0  0  0
  5  6  1  0  0  0  0
  6  1  1  0  0  0  0
  4  7  1  0  0  0  0
  7  8  1  0  0  0  0
  8  9  1  0  0  0  0
  9  5  2  0  0  0  0
  2 10  1  0  0  0  0
  9 11  1  0  0  0  0
  8 12  2  0  0  0  0
M  END
>  <cdx:fragmentId>
5

$$$$
