204324.cdx
  Mrv1902 05222410272D          

 26 28  0  0  0  0            999 V2000
   12.0513   -7.1500    0.0000 C   0  0  0  0  0  0  0  0  0  0  0  0
   12.0437   -7.9750    0.0000 C   0  0  0  0  0  0  0  0  0  0  0  0
   11.3255   -8.3809    0.0000 C   0  0  0  0  0  0  0  0  0  0  0  0
   10.6149   -7.9618    0.0000 C   0  0  0  0  0  0  0  0  0  0  0  0
   10.6224   -7.1369    0.0000 C   0  0  0  0  0  0  0  0  0  0  0  0
   11.3407   -6.7310    0.0000 C   0  0  0  0  0  0  0  0  0  0  0  0
   12.7695   -6.7441    0.0000 O   0  0  0  0  0  0  0  0  0  0  0  0
    9.8966   -8.3678    0.0000 C   0  0  0  0  0  0  0  0  0  0  0  0
    9.1860   -7.9487    0.0000 O   0  0  0  0  0  0  0  0  0  0  0  0
    8.4678   -8.3547    0.0000 C   0  0  0  0  0  0  0  0  0  0  0  0
    8.4602   -9.1796    0.0000 C   0  0  0  0  0  0  0  0  0  0  0  0
    7.7420   -9.5856    0.0000 C   0  0  0  0  0  0  0  0  0  0  0  0
    7.0313   -9.1665    0.0000 C   0  0  0  0  0  0  0  0  0  0  0  0
    7.0389   -8.3415    0.0000 C   0  0  0  0  0  0  0  0  0  0  0  0
    7.7571   -7.9356    0.0000 C   0  0  0  0  0  0  0  0  0  0  0  0
    6.3131   -9.5724    0.0000 C   0  0  0  0  0  0  0  0  0  0  0  0
    5.6024   -9.1534    0.0000 O   0  0  0  0  0  0  0  0  0  0  0  0
    4.8842   -9.5593    0.0000 C   0  0  0  0  0  0  0  0  0  0  0  0
    4.8766  -10.3843    0.0000 C   0  0  0  0  0  0  0  0  0  0  0  0
    4.1584  -10.7902    0.0000 C   0  0  0  0  0  0  0  0  0  0  0  0
    3.4477  -10.3712    0.0000 C   0  0  0  0  0  0  0  0  0  0  0  0
    3.4553   -9.5462    0.0000 C   0  0  0  0  0  0  0  0  0  0  0  0
    4.1735   -9.1403    0.0000 C   0  0  0  0  0  0  0  0  0  0  0  0
    2.7295  -10.7771    0.0000 C   0  0  0  0  0  0  0  0  0  0  0  0
    2.0189  -10.3581    0.0000 O   0  0  0  0  0  0  0  0  0  0  0  0
    1.3006  -10.7640    0.0000 C   0  0  0  0  0  0  0  0  0  0  0  0
  1  2  1  0  0  0  0
  2  3  2  0  0  0  0
  3  4  1  0  0  0  0
  4  5  2  0  0  0  0
  5  6  1  0  0  0  0
  1  6  2  0  0  0  0
  1  7  1  0  0  0  0
 10 11  1  0  0  0  0
 11 12  2  0  0  0  0
 12 13  1  0  0  0  0
 13 14  2  0  0  0  0
 14 15  1  0  0  0  0
 10 15  2  0  0  0  0
  9 10  1  0  0  0  0
 18 19  1  0  0  0  0
 19 20  2  0  0  0  0
 20 21  1  0  0  0  0
 21 22  2  0  0  0  0
 22 23  1  0  0  0  0
 18 23  2  0  0  0  0
 17 18  1  0  0  0  0
 25 26  1  0  0  0  0
 24 25  1  0  0  0  0
 21 24  1  0  0  0  0
 16 17  1  0  0  0  0
 13 16  1  0  0  0  0
  8  9  1  0  0  0  0
  4  8  1  0  0  0  0
M  END
>  <cdx:fragmentId>
209549

$$$$
