20449.cdx
  Mrv1902 05222410272D          

  7  7  0  0  0  0            999 V2000
    3.6197   -1.6831    0.0000 O   0  0  0  0  0  0  0  0  0  0  0  0
    4.4267   -1.8546    0.0000 C   0  0  0  0  0  0  0  0  0  0  0  0
    4.5129   -2.6751    0.0000 C   0  0  0  0  0  0  0  0  0  0  0  0
    3.7592   -3.0107    0.0000 C   0  0  0  0  0  0  0  0  0  0  0  0
    3.2072   -2.3976    0.0000 C   0  0  0  0  0  0  0  0  0  0  0  0
    5.2274   -3.0876    0.0000 C   0  0  0  0  0  0  0  0  0  0  0  0
    5.9419   -2.6751    0.0000 O   0  0  0  0  0  0  0  0  0  0  0  0
  1  2  1  0  0  0  0
  2  3  2  0  0  0  0
  3  4  1  0  0  0  0
  4  5  2  0  0  0  0
  1  5  1  0  0  0  0
  6  7  1  0  0  0  0
  3  6  1  0  0  0  0
M  END
>  <cdx:groupId>
23

>  <cdx:fragmentId>
5

$$$$
