205.cdx
  Mrv1902 05222410212D          

 99109  0  0  0  0            999 V2000
   14.3830   -8.3875    0.0000 C   0  0  0  0  0  0  0  0  0  0  0  0
   14.3830   -9.2125    0.0000 C   0  0  1  0  0  0  0  0  0  0  0  0
   15.0975   -9.6250    0.0000 C   0  0  1  0  0  0  0  0  0  0  0  0
   15.8120   -9.2125    0.0000 C   0  0  0  0  0  0  0  0  0  0  0  0
   15.8120   -8.3875    0.0000 C   0  0  2  0  0  0  0  0  0  0  0  0
   15.0975   -7.9750    0.0000 C   0  0  0  0  0  0  0  0  0  0  0  0
   16.5264   -9.6250    0.0000 C   0  0  0  0  0  0  0  0  0  0  0  0
   17.2409   -9.2125    0.0000 C   0  0  0  0  0  0  0  0  0  0  0  0
   17.2409   -8.3875    0.0000 C   0  0  0  0  0  0  0  0  0  0  0  0
   16.5264   -7.9750    0.0000 C   0  0  0  0  0  0  0  0  0  0  0  0
   17.9554   -7.9750    0.0000 C   0  0  1  0  0  0  0  0  0  0  0  0
   17.9554   -7.1500    0.0000 C   0  0  0  0  0  0  0  0  0  0  0  0
   17.2409   -6.7375    0.0000 C   0  0  0  0  0  0  0  0  0  0  0  0
   16.5264   -7.1500    0.0000 C   0  0  0  0  0  0  0  0  0  0  0  0
   18.7400   -8.2299    0.0000 C   0  0  0  0  0  0  0  0  0  0  0  0
   19.2249   -7.5625    0.0000 C   0  0  0  0  0  0  0  0  0  0  0  0
   18.7400   -6.8951    0.0000 C   0  0  2  0  0  0  0  0  0  0  0  0
   18.7400   -6.0701    0.0000 C   0  0  1  0  0  0  0  0  0  0  0  0
   17.9554   -5.8151    0.0000 O   0  0  0  0  0  0  0  0  0  0  0  0
   17.4705   -6.4826    0.0000 C   0  0  0  0  0  0  0  0  0  0  0  0
   19.4074   -5.5851    0.0000 C   0  0  0  0  0  0  0  0  0  0  0  0
   18.7400   -5.2451    0.0000 C   0  0  0  0  0  0  0  0  0  0  0  0
   16.6455   -6.4826    0.0000 O   0  0  0  0  0  0  0  0  0  0  0  0
   17.9554   -8.8000    0.0000 C   0  0  0  0  0  0  0  0  0  0  0  0
   15.8120   -7.5625    0.0000 C   0  0  0  0  0  0  0  0  0  0  0  0
   14.6850  -10.3395    0.0000 C   0  0  0  0  0  0  0  0  0  0  0  0
   15.5100  -10.3395    0.0000 C   0  0  0  0  0  0  0  0  0  0  0  0
   13.6686   -9.6250    0.0000 O   0  0  0  0  0  0  0  0  0  0  0  0
   12.9541   -9.2125    0.0000 C   0  0  2  0  0  0  0  0  0  0  0  0
   12.9541   -8.3875    0.0000 O   0  0  0  0  0  0  0  0  0  0  0  0
   12.2396   -7.9750    0.0000 C   0  0  0  0  0  0  0  0  0  0  0  0
   11.5251   -8.3875    0.0000 C   0  0  2  0  0  0  0  0  0  0  0  0
   11.5251   -9.2125    0.0000 C   0  0  1  0  0  0  0  0  0  0  0  0
   12.2396   -9.6250    0.0000 C   0  0  1  0  0  0  0  0  0  0  0  0
   10.8107   -9.6250    0.0000 O   0  0  0  0  0  0  0  0  0  0  0  0
   10.8107   -7.9750    0.0000 O   0  0  0  0  0  0  0  0  0  0  0  0
   12.2396  -10.4500    0.0000 O   0  0  0  0  0  0  0  0  0  0  0  0
   11.5251  -10.8625    0.0000 C   0  0  2  0  0  0  0  0  0  0  0  0
   10.8107  -10.4500    0.0000 O   0  0  0  0  0  0  0  0  0  0  0  0
   10.0962  -10.8625    0.0000 C   0  0  1  0  0  0  0  0  0  0  0  0
   10.0962  -11.6875    0.0000 C   0  0  2  0  0  0  0  0  0  0  0  0
   10.8107  -12.1000    0.0000 C   0  0  1  0  0  0  0  0  0  0  0  0
   11.5251  -11.6875    0.0000 C   0  0  1  0  0  0  0  0  0  0  0  0
    9.3817  -10.4500    0.0000 C   0  0  0  0  0  0  0  0  0  0  0  0
   10.8107  -12.9250    0.0000 O   0  0  0  0  0  0  0  0  0  0  0  0
    9.3817  -12.1000    0.0000 O   0  0  0  0  0  0  0  0  0  0  0  0
   12.2396  -12.1000    0.0000 O   0  0  0  0  0  0  0  0  0  0  0  0
    8.6673  -11.6875    0.0000 C   0  0  2  0  0  0  0  0  0  0  0  0
    8.6673  -10.8625    0.0000 O   0  0  0  0  0  0  0  0  0  0  0  0
    7.9528  -10.4500    0.0000 C   0  0  1  0  0  0  0  0  0  0  0  0
    7.2383  -10.8625    0.0000 C   0  0  2  0  0  0  0  0  0  0  0  0
    7.2383  -11.6875    0.0000 C   0  0  1  0  0  0  0  0  0  0  0  0
    7.9528  -12.1000    0.0000 C   0  0  1  0  0  0  0  0  0  0  0  0
    6.5238  -12.1000    0.0000 O   0  0  0  0  0  0  0  0  0  0  0  0
    6.5238  -10.4500    0.0000 O   0  0  0  0  0  0  0  0  0  0  0  0
    7.9528  -12.9250    0.0000 O   0  0  0  0  0  0  0  0  0  0  0  0
    5.8094  -11.6875    0.0000 C   0  0  2  0  0  0  0  0  0  0  0  0
    5.8094  -10.8625    0.0000 O   0  0  0  0  0  0  0  0  0  0  0  0
    5.0949  -10.4500    0.0000 C   0  0  1  0  0  0  0  0  0  0  0  0
    4.3804  -10.8625    0.0000 C   0  0  2  0  0  0  0  0  0  0  0  0
    4.3804  -11.6875    0.0000 C   0  0  1  0  0  0  0  0  0  0  0  0
    5.0949  -12.1000    0.0000 C   0  0  1  0  0  0  0  0  0  0  0  0
    5.0949   -9.6250    0.0000 C   0  0  0  0  0  0  0  0  0  0  0  0
    3.6660  -12.1000    0.0000 O   0  0  0  0  0  0  0  0  0  0  0  0
    5.0949  -12.9250    0.0000 O   0  0  0  0  0  0  0  0  0  0  0  0
    3.6660  -10.4500    0.0000 O   0  0  0  0  0  0  0  0  0  0  0  0
    4.3804   -9.2125    0.0000 O   0  0  0  0  0  0  0  0  0  0  0  0
    3.6660  -12.9250    0.0000 C   0  0  0  0  0  0  0  0  0  0  0  0
   10.8107   -7.1500    0.0000 C   0  0  2  0  0  0  0  0  0  0  0  0
   11.5251   -6.7375    0.0000 O   0  0  0  0  0  0  0  0  0  0  0  0
   11.5251   -5.9125    0.0000 C   0  0  1  0  0  0  0  0  0  0  0  0
   10.8107   -5.5000    0.0000 C   0  0  2  0  0  0  0  0  0  0  0  0
   10.0962   -5.9125    0.0000 C   0  0  1  0  0  0  0  0  0  0  0  0
   10.0962   -6.7375    0.0000 C   0  0  1  0  0  0  0  0  0  0  0  0
   12.2396   -5.5000    0.0000 C   0  0  0  0  0  0  0  0  0  0  0  0
    9.3817   -5.5000    0.0000 O   0  0  0  0  0  0  0  0  0  0  0  0
   10.8107   -4.6750    0.0000 O   0  0  0  0  0  0  0  0  0  0  0  0
    9.3817   -7.1500    0.0000 O   0  0  0  0  0  0  0  0  0  0  0  0
   12.2396   -4.6750    0.0000 O   0  0  0  0  0  0  0  0  0  0  0  0
   20.0499   -7.5625    0.0000 O   0  0  0  0  0  0  0  0  0  0  0  0
   20.1611   -5.9207    0.0000 C   0  0  0  0  0  0  0  0  0  0  0  0
   20.8286   -5.4358    0.0000 C   0  0  0  0  0  0  0  0  0  0  0  0
   21.5822   -5.7713    0.0000 C   0  0  0  0  0  0  0  0  0  0  0  0
   22.2497   -5.2864    0.0000 C   0  0  0  0  0  0  0  0  0  0  0  0
   21.6685   -6.5918    0.0000 C   0  0  0  0  0  0  0  0  0  0  0  0
   19.5369   -6.6815    0.0000 H   0  0  0  0  0  0  0  0  0  0  0  0
    9.3817   -4.6750    0.0000 C   0  0  2  0  0  0  0  0  0  0  0  0
   10.0962   -4.2625    0.0000 O   0  0  0  0  0  0  0  0  0  0  0  0
   10.0962   -3.4375    0.0000 C   0  0  1  0  0  0  0  0  0  0  0  0
    9.3817   -3.0250    0.0000 C   0  0  2  0  0  0  0  0  0  0  0  0
    8.6673   -3.4375    0.0000 C   0  0  1  0  0  0  0  0  0  0  0  0
    8.6673   -4.2625    0.0000 C   0  0  1  0  0  0  0  0  0  0  0  0
   10.8107   -3.0250    0.0000 C   0  0  0  0  0  0  0  0  0  0  0  0
    7.9528   -3.0250    0.0000 O   0  0  0  0  0  0  0  0  0  0  0  0
    7.9528   -4.6750    0.0000 O   0  0  0  0  0  0  0  0  0  0  0  0
    9.3817   -2.2000    0.0000 O   0  0  0  0  0  0  0  0  0  0  0  0
   10.8107   -2.2000    0.0000 O   0  0  0  0  0  0  0  0  0  0  0  0
    7.9528   -9.6250    0.0000 C   0  0  0  0  0  0  0  0  0  0  0  0
    7.2383   -9.2125    0.0000 O   0  0  0  0  0  0  0  0  0  0  0  0
  1  2  1  0  0  0  0
  2  3  1  0  0  0  0
  3  4  1  0  0  0  0
  4  5  1  0  0  0  0
  5  6  1  0  0  0  0
  6  1  1  0  0  0  0
  4  7  1  0  0  0  0
  7  8  1  0  0  0  0
  8  9  1  0  0  0  0
  9 10  1  0  0  0  0
 10  5  1  0  0  0  0
  9 11  1  0  0  0  0
 11 12  1  0  0  0  0
 12 13  1  0  0  0  0
 13 14  1  0  0  0  0
 14 10  2  0  0  0  0
 11 15  1  0  0  0  0
 15 16  1  0  0  0  0
 16 17  1  0  0  0  0
 17 12  1  0  0  0  0
 17 18  1  0  0  0  0
 18 19  1  0  0  0  0
 19 20  1  0  0  0  0
 20 12  1  0  0  0  0
 18 21  1  0  0  0  0
 18 22  1  6  0  0  0
 20 23  2  0  0  0  0
 11 24  1  6  0  0  0
  5 25  1  1  0  0  0
  3 26  1  1  0  0  0
  3 27  1  6  0  0  0
  2 28  1  1  0  0  0
 29 28  1  1  0  0  0
 29 30  1  0  0  0  0
 30 31  1  0  0  0  0
 31 32  1  0  0  0  0
 32 33  1  0  0  0  0
 33 34  1  0  0  0  0
 34 29  1  0  0  0  0
 33 35  1  1  0  0  0
 32 36  1  6  0  0  0
 34 37  1  6  0  0  0
 38 37  1  1  0  0  0
 38 39  1  0  0  0  0
 39 40  1  0  0  0  0
 40 41  1  0  0  0  0
 41 42  1  0  0  0  0
 42 43  1  0  0  0  0
 43 38  1  0  0  0  0
 40 44  1  1  0  0  0
 42 45  1  1  0  0  0
 41 46  1  6  0  0  0
 43 47  1  6  0  0  0
 48 46  1  1  0  0  0
 48 49  1  0  0  0  0
 49 50  1  0  0  0  0
 50 51  1  0  0  0  0
 51 52  1  0  0  0  0
 52 53  1  0  0  0  0
 53 48  1  0  0  0  0
 52 54  1  1  0  0  0
 51 55  1  6  0  0  0
 53 56  1  6  0  0  0
 57 54  1  1  0  0  0
 57 58  1  0  0  0  0
 58 59  1  0  0  0  0
 59 60  1  0  0  0  0
 60 61  1  0  0  0  0
 61 62  1  0  0  0  0
 62 57  1  0  0  0  0
 59 63  1  1  0  0  0
 61 64  1  1  0  0  0
 62 65  1  6  0  0  0
 60 66  1  6  0  0  0
 63 67  1  0  0  0  0
 64 68  1  0  0  0  0
 69 36  1  1  0  0  0
 69 70  1  0  0  0  0
 70 71  1  0  0  0  0
 71 72  1  0  0  0  0
 72 73  1  0  0  0  0
 73 74  1  0  0  0  0
 74 69  1  0  0  0  0
 71 75  1  1  0  0  0
 73 76  1  1  0  0  0
 72 77  1  6  0  0  0
 74 78  1  6  0  0  0
 75 79  1  0  0  0  0
 16 80  2  0  0  0  0
 21 81  1  0  0  0  0
 81 82  1  0  0  0  0
 82 83  1  0  0  0  0
 83 84  2  0  0  0  0
 83 85  1  0  0  0  0
 17 86  1  6  0  0  0
 87 76  1  1  0  0  0
 87 88  1  0  0  0  0
 88 89  1  0  0  0  0
 89 90  1  0  0  0  0
 90 91  1  0  0  0  0
 91 92  1  0  0  0  0
 92 87  1  0  0  0  0
 89 93  1  1  0  0  0
 91 94  1  1  0  0  0
 92 95  1  6  0  0  0
 90 96  1  6  0  0  0
 93 97  1  0  0  0  0
 50 98  1  1  0  0  0
 98 99  1  0  0  0  0
M  END
>  <cdx:fragmentId>
1776

$$$$
