20534.cdx
  Mrv1902 05222410192D          

  9  9  0  0  0  0            999 V2000
    6.6769   -2.6584    0.0000 O   0  0  0  0  0  0  0  0  0  0  0  0
    5.9232   -2.3229    0.0000 C   0  0  0  0  0  0  0  0  0  0  0  0
    6.0094   -1.5024    0.0000 C   0  0  0  0  0  0  0  0  0  0  0  0
    6.8164   -1.3309    0.0000 C   0  0  0  0  0  0  0  0  0  0  0  0
    7.2289   -2.0453    0.0000 C   0  0  0  0  0  0  0  0  0  0  0  0
    5.2087   -2.7354    0.0000 C   0  0  0  0  0  0  0  0  0  0  0  0
    4.4943   -2.3229    0.0000 C   0  0  0  0  0  0  0  0  0  0  0  0
    3.7798   -2.7354    0.0000 C   0  0  0  0  0  0  0  0  0  0  0  0
    3.0653   -2.3229    0.0000 C   0  0  0  0  0  0  0  0  0  0  0  0
  1  2  1  0  0  0  0
  2  3  2  0  0  0  0
  3  4  1  0  0  0  0
  4  5  2  0  0  0  0
  1  5  1  0  0  0  0
  6  7  1  0  0  0  0
  7  8  1  0  0  0  0
  8  9  1  0  0  0  0
  2  6  1  0  0  0  0
M  END
>  <cdx:groupId>
29

>  <cdx:fragmentId>
5

$$$$
