2072.cdx
  Mrv1902 05222410202D          

 12 12  0  0  0  0            999 V2000
    6.8508   -8.7244    0.0000 C   0  0  0  0  0  0  0  0  0  0  0  0
    6.8508   -9.5494    0.0000 C   0  0  0  0  0  0  0  0  0  0  0  0
    7.5652   -9.9619    0.0000 C   0  0  0  0  0  0  0  0  0  0  0  0
    8.2797   -9.5494    0.0000 C   0  0  0  0  0  0  0  0  0  0  0  0
    8.2797   -8.7244    0.0000 C   0  0  0  0  0  0  0  0  0  0  0  0
    7.5652   -8.3119    0.0000 C   0  0  0  0  0  0  0  0  0  0  0  0
    6.1363   -8.3119    0.0000 C   0  0  0  0  0  0  0  0  0  0  0  0
    8.9942   -9.9619    0.0000 C   0  0  0  0  0  0  0  0  0  0  0  0
    8.9942   -8.3119    0.0000 C   0  0  0  0  0  0  0  0  0  0  0  0
    7.5652   -7.4869    0.0000 C   0  0  0  0  0  0  0  0  0  0  0  0
    6.8508   -7.0744    0.0000 O   0  0  0  0  0  0  0  0  0  0  0  0
    5.4218   -8.7244    0.0000 O   0  0  0  0  0  0  0  0  0  0  0  0
  1  2  2  0  0  0  0
  2  3  1  0  0  0  0
  3  4  2  0  0  0  0
  4  5  1  0  0  0  0
  5  6  2  0  0  0  0
  6  1  1  0  0  0  0
  1  7  1  0  0  0  0
  4  8  1  0  0  0  0
  5  9  1  0  0  0  0
  6 10  1  0  0  0  0
 10 11  1  0  0  0  0
  7 12  1  0  0  0  0
M  END
>  <cdx:fragmentId>
5

$$$$
