20739.cdx
  Mrv1902 05222410282D          

 10 10  0  0  0  0            999 V2000
    6.8500   -6.6262    0.0000 C   0  0  0  0  0  0  0  0  0  0  0  0
    6.1345   -6.2154    0.0000 C   0  0  0  0  0  0  0  0  0  0  0  0
    6.1325   -5.3904    0.0000 C   0  0  0  0  0  0  0  0  0  0  0  0
    6.8459   -4.9762    0.0000 C   0  0  0  0  0  0  0  0  0  0  0  0
    7.5614   -5.3870    0.0000 C   0  0  0  0  0  0  0  0  0  0  0  0
    7.5634   -6.2120    0.0000 C   0  0  0  0  0  0  0  0  0  0  0  0
    6.8520   -7.4512    0.0000 O   0  0  0  0  0  0  0  0  0  0  0  0
    6.8439   -4.1512    0.0000 C   0  0  0  0  0  0  0  0  0  0  0  0
    7.5574   -3.7370    0.0000 C   0  0  0  0  0  0  0  0  0  0  0  0
    6.1285   -3.7404    0.0000 C   0  0  0  0  0  0  0  0  0  0  0  0
  1  2  1  0  0  0  0
  2  3  1  0  0  0  0
  3  4  1  0  0  0  0
  4  5  1  0  0  0  0
  5  6  1  0  0  0  0
  1  6  1  0  0  0  0
  1  7  1  0  0  0  0
  8  9  1  0  0  0  0
  8 10  1  0  0  0  0
  4  8  1  0  0  0  0
M  END
>  <cdx:fragmentId>
5

$$$$
