20745.cdx
  Mrv1902 05222410222D          

  9  8  0  0  0  0            999 V2000
    3.2768   -3.0866    0.0000 C   0  0  0  0  0  0  0  0  0  0  0  0
    3.9913   -2.6741    0.0000 C   0  0  0  0  0  0  0  0  0  0  0  0
    4.7058   -3.0866    0.0000 C   0  0  0  0  0  0  0  0  0  0  0  0
    5.4202   -2.6741    0.0000 C   0  0  0  0  0  0  0  0  0  0  0  0
    6.1347   -3.0866    0.0000 C   0  0  0  0  0  0  0  0  0  0  0  0
    6.8492   -2.6741    0.0000 C   0  0  0  0  0  0  0  0  0  0  0  0
    6.8492   -1.8491    0.0000 C   0  0  0  0  0  0  0  0  0  0  0  0
    3.9913   -1.8491    0.0000 O   0  0  0  0  0  0  0  0  0  0  0  0
    7.5637   -3.0866    0.0000 C   0  0  0  0  0  0  0  0  0  0  0  0
  1  2  1  0  0  0  0
  2  3  1  0  0  0  0
  3  4  1  0  0  0  0
  4  5  1  0  0  0  0
  5  6  2  0  0  0  0
  6  7  1  0  0  0  0
  2  8  1  0  0  0  0
  6  9  1  0  0  0  0
M  END
>  <cdx:groupId>
28

>  <cdx:fragmentId>
5

$$$$
