101207514.cdx
  Mrv1902 05222410242D          

 80 87  0  0  0  0            999 V2000
    2.4688  -12.8199    0.0000 O   0  0  0  0  0  0  0  0  0  0  0  0
    1.7543  -13.2324    0.0000 C   0  0  1  0  0  0  0  0  0  0  0  0
    1.7543  -14.0574    0.0000 C   0  0  2  0  0  0  0  0  0  0  0  0
    2.4688  -14.4699    0.0000 C   0  0  1  0  0  0  0  0  0  0  0  0
    3.1833  -14.0574    0.0000 C   0  0  2  0  0  0  0  0  0  0  0  0
    3.1833  -13.2324    0.0000 C   0  0  2  0  0  0  0  0  0  0  0  0
    1.0399  -14.4699    0.0000 O   0  0  0  0  0  0  0  0  0  0  0  0
    2.4688  -15.2949    0.0000 O   0  0  0  0  0  0  0  0  0  0  0  0
    3.8977  -14.4699    0.0000 O   0  0  0  0  0  0  0  0  0  0  0  0
    3.8977  -12.8199    0.0000 O   0  0  0  0  0  0  0  0  0  0  0  0
    4.6122  -13.2324    0.0000 C   0  0  0  0  0  0  0  0  0  0  0  0
    6.0411  -13.2324    0.0000 O   0  0  0  0  0  0  0  0  0  0  0  0
    5.3267  -12.8199    0.0000 C   0  0  1  0  0  0  0  0  0  0  0  0
    5.3267  -11.9949    0.0000 C   0  0  2  0  0  0  0  0  0  0  0  0
    6.0411  -11.5824    0.0000 C   0  0  1  0  0  0  0  0  0  0  0  0
    6.7556  -11.9949    0.0000 C   0  0  2  0  0  0  0  0  0  0  0  0
    6.7556  -12.8199    0.0000 C   0  0  2  0  0  0  0  0  0  0  0  0
    7.4701  -13.2324    0.0000 O   0  0  0  0  0  0  0  0  0  0  0  0
    8.8990  -11.5824    0.0000 C   0  0  0  0  0  0  0  0  0  0  0  0
    8.1846  -11.9949    0.0000 C   0  0  0  0  0  0  0  0  0  0  0  0
    8.1846  -12.8199    0.0000 C   0  0  1  0  0  0  0  0  0  0  0  0
    8.8990  -13.2324    0.0000 C   0  0  0  0  0  0  0  0  0  0  0  0
    9.6135  -12.8199    0.0000 C   0  0  0  0  0  0  0  0  0  0  0  0
   10.3280  -13.2324    0.0000 C   0  0  0  0  0  0  0  0  0  0  0  0
   11.0424  -12.8199    0.0000 C   0  0  0  0  0  0  0  0  0  0  0  0
   11.0424  -11.9949    0.0000 C   0  0  1  0  0  0  0  0  0  0  0  0
   11.7569  -11.5824    0.0000 C   0  0  2  0  0  0  0  0  0  0  0  0
   12.5415  -11.8373    0.0000 C   0  0  0  0  0  0  0  0  0  0  0  0
   13.0265  -11.1699    0.0000 C   0  0  0  0  0  0  0  0  0  0  0  0
   12.5415  -10.5025    0.0000 C   0  0  1  0  0  0  0  0  0  0  0  0
   11.7569  -10.7574    0.0000 C   0  0  1  0  0  0  0  0  0  0  0  0
   11.0424  -10.3449    0.0000 C   0  0  0  0  0  0  0  0  0  0  0  0
   10.3280  -10.7574    0.0000 C   0  0  2  0  0  0  0  0  0  0  0  0
   10.3280  -11.5824    0.0000 C   0  0  1  0  0  0  0  0  0  0  0  0
    9.6135  -11.9949    0.0000 C   0  0  2  0  0  0  0  0  0  0  0  0
   11.7569  -12.4074    0.0000 C   0  0  0  0  0  0  0  0  0  0  0  0
   11.8432   -9.9369    0.0000 C   0  0  0  0  0  0  0  0  0  0  0  0
   10.3280  -12.4074    0.0000 C   0  0  0  0  0  0  0  0  0  0  0  0
    9.3115  -13.9469    0.0000 C   0  0  0  0  0  0  0  0  0  0  0  0
    8.4865  -13.9469    0.0000 C   0  0  0  0  0  0  0  0  0  0  0  0
   12.2444   -9.1047    0.0000 C   0  0  0  0  0  0  0  0  0  0  0  0
   12.7965   -9.7178    0.0000 C   0  0  2  0  0  0  0  0  0  0  0  0
   13.6034   -9.5463    0.0000 C   0  0  0  0  0  0  0  0  0  0  0  0
   13.8584   -8.7617    0.0000 C   0  0  0  0  0  0  0  0  0  0  0  0
   14.6654   -8.5902    0.0000 C   0  0  2  0  0  0  0  0  0  0  0  0
   15.2174   -9.2033    0.0000 C   0  0  0  0  0  0  0  0  0  0  0  0
   16.0244   -9.0317    0.0000 C   0  0  0  0  0  0  0  0  0  0  0  0
   14.9203   -7.8055    0.0000 O   0  0  0  0  0  0  0  0  0  0  0  0
   16.2793   -8.2471    0.0000 O   0  0  0  0  0  0  0  0  0  0  0  0
   15.7273   -7.6340    0.0000 C   0  0  2  0  0  0  0  0  0  0  0  0
   15.9822   -6.8494    0.0000 C   0  0  1  0  0  0  0  0  0  0  0  0
   16.7892   -6.6779    0.0000 C   0  0  2  0  0  0  0  0  0  0  0  0
   17.3412   -7.2910    0.0000 C   0  0  1  0  0  0  0  0  0  0  0  0
   17.0863   -8.0756    0.0000 C   0  0  1  0  0  0  0  0  0  0  0  0
   17.6383   -8.6887    0.0000 C   0  0  0  0  0  0  0  0  0  0  0  0
   18.4453   -8.5172    0.0000 O   0  0  0  0  0  0  0  0  0  0  0  0
   19.8043   -8.9587    0.0000 O   0  0  0  0  0  0  0  0  0  0  0  0
   18.9973   -9.1302    0.0000 C   0  0  2  0  0  0  0  0  0  0  0  0
   18.7424   -9.9149    0.0000 C   0  0  1  0  0  0  0  0  0  0  0  0
   19.2944  -10.5280    0.0000 C   0  0  2  0  0  0  0  0  0  0  0  0
   20.1014  -10.3564    0.0000 C   0  0  1  0  0  0  0  0  0  0  0  0
   20.3563   -9.5718    0.0000 C   0  0  1  0  0  0  0  0  0  0  0  0
   21.1633   -9.4003    0.0000 C   0  0  0  0  0  0  0  0  0  0  0  0
   21.7153  -10.0134    0.0000 O   0  0  0  0  0  0  0  0  0  0  0  0
   20.6534  -10.9695    0.0000 O   0  0  0  0  0  0  0  0  0  0  0  0
   19.0395  -11.3126    0.0000 O   0  0  0  0  0  0  0  0  0  0  0  0
   17.9354  -10.0864    0.0000 O   0  0  0  0  0  0  0  0  0  0  0  0
   18.1482   -7.1194    0.0000 O   0  0  0  0  0  0  0  0  0  0  0  0
   17.0441   -5.8932    0.0000 O   0  0  0  0  0  0  0  0  0  0  0  0
   15.4302   -6.2363    0.0000 O   0  0  0  0  0  0  0  0  0  0  0  0
   14.9625   -9.9879    0.0000 C   0  0  0  0  0  0  0  0  0  0  0  0
   15.7694   -9.8164    0.0000 O   0  0  0  0  0  0  0  0  0  0  0  0
    9.6135  -10.3449    0.0000 O   0  0  0  0  0  0  0  0  0  0  0  0
    7.4701  -11.5824    0.0000 O   0  0  0  0  0  0  0  0  0  0  0  0
    6.0411  -10.7574    0.0000 O   0  0  0  0  0  0  0  0  0  0  0  0
    4.6122  -11.5824    0.0000 O   0  0  0  0  0  0  0  0  0  0  0  0
    1.0399  -12.8199    0.0000 C   0  0  0  0  0  0  0  0  0  0  0  0
    0.3254  -13.2324    0.0000 O   0  0  0  0  0  0  0  0  0  0  0  0
   11.0424  -11.1699    0.0000 H   0  0  0  0  0  0  0  0  0  0  0  0
    9.6135  -11.1699    0.0000 H   0  0  0  0  0  0  0  0  0  0  0  0
  1  2  1  0  0  0  0
  2  3  1  0  0  0  0
  3  4  1  0  0  0  0
  4  5  1  0  0  0  0
  5  6  1  0  0  0  0
  1  6  1  0  0  0  0
  3  7  1  6  0  0  0
  4  8  1  1  0  0  0
  5  9  1  6  0  0  0
 10 11  1  0  0  0  0
 12 13  1  0  0  0  0
 13 14  1  0  0  0  0
 14 15  1  0  0  0  0
 15 16  1  0  0  0  0
 16 17  1  0  0  0  0
 12 17  1  0  0  0  0
 19 20  1  0  0  0  0
 20 21  1  0  0  0  0
 21 22  1  0  0  0  0
 22 23  1  0  0  0  0
 23 24  2  0  0  0  0
 24 25  1  0  0  0  0
 25 26  1  0  0  0  0
 26 27  1  0  0  0  0
 27 28  1  0  0  0  0
 28 29  1  0  0  0  0
 30 29  1  1  0  0  0
 30 31  1  0  0  0  0
 27 31  1  0  0  0  0
 31 32  1  0  0  0  0
 32 33  1  0  0  0  0
 33 34  1  0  0  0  0
 26 34  1  0  0  0  0
 34 35  1  0  0  0  0
 23 35  1  0  0  0  0
 19 35  1  0  0  0  0
 27 36  1  6  0  0  0
 31 37  1  1  0  0  0
 34 38  1  1  0  0  0
 22 39  1  0  0  0  0
 22 40  1  0  0  0  0
 42 41  1  6  0  0  0
 42 43  1  0  0  0  0
 43 44  1  0  0  0  0
 44 45  1  0  0  0  0
 45 46  1  0  0  0  0
 46 47  1  0  0  0  0
 49 50  1  0  0  0  0
 50 51  1  0  0  0  0
 51 52  1  0  0  0  0
 52 53  1  0  0  0  0
 53 54  1  0  0  0  0
 49 54  1  0  0  0  0
 57 58  1  0  0  0  0
 58 59  1  0  0  0  0
 59 60  1  0  0  0  0
 60 61  1  0  0  0  0
 61 62  1  0  0  0  0
 57 62  1  0  0  0  0
 63 64  1  0  0  0  0
 62 63  1  6  0  0  0
 61 65  1  1  0  0  0
 60 66  1  6  0  0  0
 59 67  1  1  0  0  0
 58 56  1  6  0  0  0
 55 56  1  0  0  0  0
 54 55  1  1  0  0  0
 53 68  1  6  0  0  0
 52 69  1  1  0  0  0
 51 70  1  6  0  0  0
 50 48  1  1  0  0  0
 45 48  1  1  0  0  0
 46 71  1  0  0  0  0
 46 72  1  0  0  0  0
 30 42  1  0  0  0  0
 33 73  1  6  0  0  0
 21 18  1  1  0  0  0
 17 18  1  6  0  0  0
 16 74  1  1  0  0  0
 15 75  1  6  0  0  0
 14 76  1  1  0  0  0
 13 11  1  6  0  0  0
  6 10  1  1  0  0  0
 77 78  1  0  0  0  0
  2 77  1  1  0  0  0
 26 79  1  1  0  0  0
 35 80  1  6  0  0  0
M  END
>  <cdx:groupId>
1451

>  <cdx:fragmentId>
1319

$$$$
