2076.cdx
  Mrv1902 05222410232D          

 16 15  0  0  0  0            999 V2000
    1.4809   -6.4969    0.0000 C   0  0  0  0  0  0  0  0  0  0  0  0
    2.1953   -6.9094    0.0000 C   0  0  0  0  0  0  0  0  0  0  0  0
    2.9098   -6.4969    0.0000 C   0  0  0  0  0  0  0  0  0  0  0  0
    3.6243   -6.9094    0.0000 C   0  0  0  0  0  0  0  0  0  0  0  0
    4.3388   -6.4969    0.0000 C   0  0  0  0  0  0  0  0  0  0  0  0
    5.0532   -6.9094    0.0000 C   0  0  0  0  0  0  0  0  0  0  0  0
    5.7677   -6.4969    0.0000 C   0  0  0  0  0  0  0  0  0  0  0  0
    6.4822   -6.9094    0.0000 C   0  0  0  0  0  0  0  0  0  0  0  0
    7.1966   -6.4969    0.0000 C   0  0  0  0  0  0  0  0  0  0  0  0
    7.9111   -6.9094    0.0000 C   0  0  0  0  0  0  0  0  0  0  0  0
    8.6256   -7.3219    0.0000 C   0  0  0  0  0  0  0  0  0  0  0  0
    9.3401   -7.7344    0.0000 C   0  0  0  0  0  0  0  0  0  0  0  0
   10.0545   -7.3219    0.0000 C   0  0  0  0  0  0  0  0  0  0  0  0
   10.7690   -7.7344    0.0000 C   0  0  0  0  0  0  0  0  0  0  0  0
   11.4835   -7.3219    0.0000 C   0  0  0  0  0  0  0  0  0  0  0  0
   12.1979   -7.7344    0.0000 C   0  0  0  0  0  0  0  0  0  0  0  0
  1  2  1  0  0  0  0
  2  3  1  0  0  0  0
  3  4  1  0  0  0  0
  4  5  1  0  0  0  0
  5  6  1  0  0  0  0
  6  7  1  0  0  0  0
  7  8  1  0  0  0  0
  8  9  1  0  0  0  0
  9 10  1  0  0  0  0
 10 11  3  0  0  0  0
 11 12  1  0  0  0  0
 12 13  2  0  0  0  0
 13 14  1  0  0  0  0
 14 15  1  0  0  0  0
 15 16  1  0  0  0  0
M  END
>  <cdx:fragmentId>
3

$$$$
