2077.cdx
  Mrv1902 05222410222D          

 11 10  0  0  0  0            999 V2000
    9.4560   -7.4319    0.0000 C   0  0  0  0  0  0  0  0  0  0  0  0
    6.5982   -7.4319    0.0000 C   0  0  0  0  0  0  0  0  0  0  0  0
   10.1705   -6.1944    0.0000 C   0  0  0  0  0  0  0  0  0  0  0  0
    4.4547   -6.1944    0.0000 O   0  0  0  0  0  0  0  0  0  0  0  0
    5.1692   -6.6069    0.0000 C   0  0  0  0  0  0  0  0  0  0  0  0
    5.8837   -6.1944    0.0000 C   0  0  0  0  0  0  0  0  0  0  0  0
    6.5982   -6.6069    0.0000 C   0  0  0  0  0  0  0  0  0  0  0  0
    7.3126   -6.1944    0.0000 C   0  0  0  0  0  0  0  0  0  0  0  0
    8.0271   -6.6069    0.0000 C   0  0  0  0  0  0  0  0  0  0  0  0
    8.7416   -6.1944    0.0000 C   0  0  0  0  0  0  0  0  0  0  0  0
    9.4560   -6.6069    0.0000 C   0  0  0  0  0  0  0  0  0  0  0  0
 11  1  1  0  0  0  0
  7  2  1  0  0  0  0
 11  3  1  0  0  0  0
  5  4  1  0  0  0  0
  6  5  1  0  0  0  0
  7  6  1  0  0  0  0
  8  7  1  0  0  0  0
  9  8  1  0  0  0  0
 10  9  1  0  0  0  0
 11 10  1  0  0  0  0
M  END
>  <cdx:fragmentId>
3

$$$$
