208124.cdx
  Mrv1902 05222410282D          

 24 27  0  0  0  0            999 V2000
    3.1432   -6.7867    0.0000 O   0  0  0  0  0  0  0  0  0  0  0  0
    3.4510   -8.7378    0.0000 C   0  0  0  0  0  0  0  0  0  0  0  0
    3.0363   -8.0245    0.0000 C   0  0  0  0  0  0  0  0  0  0  0  0
    7.9875   -7.5971    0.0000 C   0  0  0  0  0  0  0  0  0  0  0  0
    7.5006   -6.9312    0.0000 C   0  0  0  0  0  0  0  0  0  0  0  0
    7.5046   -8.2660    0.0000 O   0  0  0  0  0  0  0  0  0  0  0  0
    4.5771   -8.4324    0.0000 O   0  0  0  0  0  0  0  0  0  0  0  0
    5.2903   -8.0178    0.0000 C   0  0  0  0  0  0  0  0  0  0  0  0
    6.0060   -8.4281    0.0000 C   0  0  0  0  0  0  0  0  0  0  0  0
    6.7192   -8.0135    0.0000 C   0  0  0  0  0  0  0  0  0  0  0  0
    6.7167   -7.1885    0.0000 C   0  0  0  0  0  0  0  0  0  0  0  0
    6.0010   -6.7781    0.0000 C   0  0  0  0  0  0  0  0  0  0  0  0
    5.2878   -7.1928    0.0000 C   0  0  0  0  0  0  0  0  0  0  0  0
    4.5721   -6.7824    0.0000 C   0  0  0  0  0  0  0  0  0  0  0  0
    3.8589   -7.1971    0.0000 C   0  0  0  0  0  0  0  0  0  0  0  0
    3.8613   -8.0221    0.0000 C   0  0  0  0  0  0  0  0  0  0  0  0
   10.4582   -6.1607    0.0000 O   0  0  0  0  0  0  0  0  0  0  0  0
   10.4668   -9.0186    0.0000 O   0  0  0  0  0  0  0  0  0  0  0  0
    9.2272   -8.3079    0.0000 C   0  0  0  0  0  0  0  0  0  0  0  0
    8.8125   -7.5946    0.0000 C   0  0  0  0  0  0  0  0  0  0  0  0
    9.2229   -6.8789    0.0000 C   0  0  0  0  0  0  0  0  0  0  0  0
   10.0479   -6.8765    0.0000 C   0  0  0  0  0  0  0  0  0  0  0  0
   10.4625   -7.5897    0.0000 C   0  0  0  0  0  0  0  0  0  0  0  0
   10.0522   -8.3054    0.0000 C   0  0  0  0  0  0  0  0  0  0  0  0
 20  4  1  0  0  0  0
 15  1  1  0  0  0  0
 16  2  1  0  0  0  0
 16  3  1  0  0  0  0
 10  6  1  0  0  0  0
 11  5  1  0  0  0  0
  6  4  1  0  0  0  0
  5  4  2  0  0  0  0
 16  7  1  0  0  0  0
  8  7  1  0  0  0  0
 13  8  2  0  0  0  0
  9  8  1  0  0  0  0
 10  9  2  0  0  0  0
 11 10  1  0  0  0  0
 12 11  2  0  0  0  0
 13 12  1  0  0  0  0
 14 13  1  0  0  0  0
 15 14  1  0  0  0  0
 16 15  1  0  0  0  0
 22 17  1  0  0  0  0
 24 18  1  0  0  0  0
 24 19  2  0  0  0  0
 20 19  1  0  0  0  0
 21 20  2  0  0  0  0
 22 21  1  0  0  0  0
 23 22  2  0  0  0  0
 24 23  1  0  0  0  0
M  END
>  <cdx:fragmentId>
995

$$$$
