2081.cdx
  Mrv1902 05222410252D          

 21 20  0  0  0  0            999 V2000
    2.9700   -9.5975    0.0000 C   0  0  0  0  0  0  0  0  0  0  0  0
    3.6845   -9.1850    0.0000 O   0  0  0  0  0  0  0  0  0  0  0  0
    4.3989   -9.5975    0.0000 C   0  0  0  0  0  0  0  0  0  0  0  0
    5.1134   -9.1850    0.0000 C   0  0  0  0  0  0  0  0  0  0  0  0
    5.8279   -9.5975    0.0000 C   0  0  0  0  0  0  0  0  0  0  0  0
    6.5424   -9.1850    0.0000 C   0  0  0  0  0  0  0  0  0  0  0  0
    7.2568   -9.5975    0.0000 C   0  0  0  0  0  0  0  0  0  0  0  0
    7.9713   -9.1850    0.0000 C   0  0  0  0  0  0  0  0  0  0  0  0
    8.6858   -9.5975    0.0000 C   0  0  0  0  0  0  0  0  0  0  0  0
    9.4002   -9.1850    0.0000 C   0  0  0  0  0  0  0  0  0  0  0  0
   10.1147   -9.5975    0.0000 C   0  0  0  0  0  0  0  0  0  0  0  0
   10.8292   -9.1850    0.0000 C   0  0  0  0  0  0  0  0  0  0  0  0
   10.8292   -8.3600    0.0000 C   0  0  0  0  0  0  0  0  0  0  0  0
   11.5437   -7.9475    0.0000 C   0  0  0  0  0  0  0  0  0  0  0  0
   11.5437   -7.1225    0.0000 C   0  0  0  0  0  0  0  0  0  0  0  0
   10.8292   -6.7100    0.0000 C   0  0  0  0  0  0  0  0  0  0  0  0
   10.8292   -5.8850    0.0000 C   0  0  0  0  0  0  0  0  0  0  0  0
   10.1147   -5.4725    0.0000 C   0  0  0  0  0  0  0  0  0  0  0  0
   10.1147   -4.6475    0.0000 C   0  0  0  0  0  0  0  0  0  0  0  0
    9.4002   -4.2350    0.0000 C   0  0  0  0  0  0  0  0  0  0  0  0
    4.3989  -10.4225    0.0000 O   0  0  0  0  0  0  0  0  0  0  0  0
  1  2  1  0  0  0  0
  2  3  1  0  0  0  0
  3  4  1  0  0  0  0
  4  5  1  0  0  0  0
  5  6  1  0  0  0  0
  6  7  1  0  0  0  0
  7  8  1  0  0  0  0
  8  9  1  0  0  0  0
  9 10  1  0  0  0  0
 10 11  1  0  0  0  0
 11 12  2  0  0  0  0
 12 13  1  0  0  0  0
 13 14  1  0  0  0  0
 14 15  2  0  0  0  0
 15 16  1  0  0  0  0
 16 17  1  0  0  0  0
 17 18  1  0  0  0  0
 18 19  1  0  0  0  0
 19 20  1  0  0  0  0
  3 21  2  0  0  0  0
M  END
>  <cdx:fragmentId>
80

$$$$
