20842.cdx
  Mrv1902 05222410282D          

 31 34  0  0  0  0            999 V2000
    7.6800  -12.2707    0.0000 C   0  0  0  0  0  0  0  0  0  0  0  0
    7.3979  -11.4955    0.0000 C   0  0  0  0  0  0  0  0  0  0  0  0
    8.4925  -12.4140    0.0000 O   0  0  0  0  0  0  0  0  0  0  0  0
    7.1497  -12.9027    0.0000 O   0  0  0  0  0  0  0  0  0  0  0  0
    8.4981  -13.7579    0.0000 C   0  0  0  0  0  0  0  0  0  0  0  0
    9.0125  -13.1129    0.0000 C   0  0  0  0  0  0  0  0  0  0  0  0
    9.8375  -13.1129    0.0000 C   0  0  2  0  0  0  0  0  0  0  0  0
   10.3519  -13.7579    0.0000 C   0  0  2  0  0  0  0  0  0  0  0  0
   11.1735  -13.6839    0.0000 C   0  0  0  0  0  0  0  0  0  0  0  0
   11.4978  -14.4425    0.0000 C   0  0  2  0  0  0  0  0  0  0  0  0
   10.8765  -14.9853    0.0000 C   0  0  0  0  0  0  0  0  0  0  0  0
   10.1683  -14.5622    0.0000 C   0  0  1  0  0  0  0  0  0  0  0  0
    9.4250  -14.9202    0.0000 C   0  0  2  0  0  0  0  0  0  0  0  0
    8.6817  -14.5622    0.0000 C   0  0  2  0  0  0  0  0  0  0  0  0
    8.1673  -15.2072    0.0000 C   0  0  0  0  0  0  0  0  0  0  0  0
    7.3423  -15.2072    0.0000 C   0  0  0  0  0  0  0  0  0  0  0  0
    6.8279  -14.5622    0.0000 C   0  0  0  0  0  0  0  0  0  0  0  0
    7.0115  -13.7579    0.0000 C   0  0  2  0  0  0  0  0  0  0  0  0
    7.7548  -13.3999    0.0000 C   0  0  0  0  0  0  0  0  0  0  0  0
    7.4319  -13.6780    0.0000 C   0  0  1  0  0  0  0  0  0  0  0  0
    6.7101  -12.9899    0.0000 C   0  0  0  0  0  0  0  0  0  0  0  0
    9.1428  -15.6954    0.0000 C   0  0  0  0  0  0  0  0  0  0  0  0
   11.1735  -12.8589    0.0000 C   0  0  0  0  0  0  0  0  0  0  0  0
   11.8880  -13.2714    0.0000 C   0  0  0  0  0  0  0  0  0  0  0  0
    6.1957  -13.6349    0.0000 O   0  0  0  0  0  0  0  0  0  0  0  0
    9.8982  -15.5960    0.0000 O   0  0  0  0  0  0  0  0  0  0  0  0
   12.3021  -14.6261    0.0000 O   0  0  0  0  0  0  0  0  0  0  0  0
   10.6761  -12.9993    0.0000 O   0  0  0  0  0  0  0  0  0  0  0  0
   10.2500  -12.3984    0.0000 O   0  0  0  0  0  0  0  0  0  0  0  0
    9.5233  -14.0478    0.0000 H   0  0  0  0  0  0  0  0  0  0  0  0
    8.7228  -15.3862    0.0000 H   0  0  0  0  0  0  0  0  0  0  0  0
  1  2  1  0  0  0  0
  1  3  2  0  0  0  0
  1  4  1  0  0  0  0
  5  6  1  0  0  0  0
  6  7  1  0  0  0  0
  7  8  1  0  0  0  0
  8  9  1  0  0  0  0
  9 10  1  0  0  0  0
 10 11  1  0  0  0  0
 11 12  1  0  0  0  0
 12 13  1  0  0  0  0
 13 14  1  0  0  0  0
 14 15  1  0  0  0  0
 15 16  1  0  0  0  0
 16 17  1  0  0  0  0
 17 18  1  0  0  0  0
 18 19  1  0  0  0  0
  5 19  1  0  0  0  0
  5 20  1  0  0  0  0
 17 20  1  0  0  0  0
  5 14  1  0  0  0  0
  8 12  1  0  0  0  0
 18 21  1  1  0  0  0
 13 22  1  1  0  0  0
  9 23  1  0  0  0  0
  9 24  1  0  0  0  0
 18 25  1  6  0  0  0
 13 26  1  6  0  0  0
 10 27  1  1  0  0  0
  8 28  1  1  0  0  0
  7 29  1  1  0  0  0
 20  4  1  1  0  0  0
 12 30  1  6  0  0  0
 14 31  1  1  0  0  0
M  END
>  <cdx:fragmentId>
52936

$$$$
