20893.cdx
  Mrv1902 05222410272D          

 20 21  0  0  0  0            999 V2000
    5.9186   -9.8478    0.0000 C   0  0  0  0  0  0  0  0  0  0  0  0
    5.2032   -9.4369    0.0000 O   0  0  0  0  0  0  0  0  0  0  0  0
    7.3457   -9.0197    0.0000 H   0  0  0  0  0  0  0  0  0  0  0  0
    7.3402   -6.5447    0.0000 H   0  0  0  0  0  0  0  0  0  0  0  0
    6.6248   -6.1338    0.0000 C   0  0  0  0  0  0  0  0  0  0  0  0
    9.4882   -8.6024    0.0000 C   0  0  0  0  0  0  0  0  0  0  0  0
    7.3438   -8.1947    0.0000 C   0  0  1  0  0  0  0  0  0  0  0  0
    8.0592   -8.6056    0.0000 C   0  0  0  0  0  0  0  0  0  0  0  0
    8.7728   -8.1915    0.0000 C   0  0  0  0  0  0  0  0  0  0  0  0
    8.7710   -7.3665    0.0000 C   0  0  0  0  0  0  0  0  0  0  0  0
    8.0556   -6.9556    0.0000 C   0  0  0  0  0  0  0  0  0  0  0  0
    7.3420   -7.3697    0.0000 C   0  0  1  0  0  0  0  0  0  0  0  0
    6.6266   -6.9588    0.0000 C   0  0  1  0  0  0  0  0  0  0  0  0
    5.9131   -7.3729    0.0000 C   0  0  0  0  0  0  0  0  0  0  0  0
    5.9149   -8.1978    0.0000 C   0  0  0  0  0  0  0  0  0  0  0  0
    6.6303   -8.6088    0.0000 C   0  0  1  0  0  0  0  0  0  0  0  0
    5.9204  -10.6728    0.0000 O   0  0  0  0  0  0  0  0  0  0  0  0
    7.3475   -9.8447    0.0000 C   0  0  0  0  0  0  0  0  0  0  0  0
    6.6321   -9.4338    0.0000 C   0  0  1  0  0  0  0  0  0  0  0  0
    5.9158   -9.0213    0.0000 H   0  0  0  0  0  0  0  0  0  0  0  0
  7  3  1  1  0  0  0
 12  4  1  1  0  0  0
 19 16  1  0  0  0  0
 13  5  1  1  0  0  0
  9  6  1  0  0  0  0
 12  7  1  0  0  0  0
 16  7  1  0  0  0  0
  8  7  1  0  0  0  0
  9  8  2  0  0  0  0
 10  9  1  0  0  0  0
 11 10  1  0  0  0  0
 12 11  1  0  0  0  0
 13 12  1  0  0  0  0
 14 13  1  0  0  0  0
 15 14  1  0  0  0  0
 16 15  1  0  0  0  0
 19 18  1  1  0  0  0
  1 19  1  0  0  0  0
  1  2  2  0  0  0  0
  1 17  1  0  0  0  0
 16 20  1  1  0  0  0
M  END
>  <cdx:fragmentId>
15

$$$$
