2090.cdx
  Mrv1902 05222410232D          

 47 51  0  0  0  0            999 V2000
   10.0738   -8.7599    0.0000 C   0  0  0  0  0  0  0  0  0  0  0  0
   10.0653   -7.9349    0.0000 C   0  0  0  0  0  0  0  0  0  0  0  0
    9.3467   -7.5297    0.0000 C   0  0  0  0  0  0  0  0  0  0  0  0
    8.6365   -7.9495    0.0000 C   0  0  0  0  0  0  0  0  0  0  0  0
    8.6449   -8.7744    0.0000 C   0  0  0  0  0  0  0  0  0  0  0  0
    9.3635   -9.1796    0.0000 C   0  0  0  0  0  0  0  0  0  0  0  0
    7.9178   -7.5443    0.0000 C   0  0  0  0  0  0  0  0  0  0  0  0
    7.2076   -7.9641    0.0000 C   0  0  0  0  0  0  0  0  0  0  0  0
    7.2160   -8.7890    0.0000 C   0  0  0  0  0  0  0  0  0  0  0  0
    7.9347   -9.1942    0.0000 C   0  0  0  0  0  0  0  0  0  0  0  0
    6.4890   -7.5589    0.0000 C   0  0  0  0  0  0  0  0  0  0  0  0
    5.7787   -7.9786    0.0000 O   0  0  0  0  0  0  0  0  0  0  0  0
    5.7872   -8.8036    0.0000 C   0  0  0  0  0  0  0  0  0  0  0  0
    6.5058   -9.2088    0.0000 C   0  0  0  0  0  0  0  0  0  0  0  0
    9.3719  -10.0046    0.0000 O   0  0  0  0  0  0  0  0  0  0  0  0
    7.9431  -10.0192    0.0000 O   0  0  0  0  0  0  0  0  0  0  0  0
    6.5142  -10.0337    0.0000 O   0  0  0  0  0  0  0  0  0  0  0  0
    4.3226   -6.3495    0.0000 C   0  0  0  0  0  0  0  0  0  0  0  0
    3.6121   -6.7687    0.0000 C   0  0  2  0  0  0  0  0  0  0  0  0
    3.6198   -7.5937    0.0000 C   0  0  1  0  0  0  0  0  0  0  0  0
    4.3381   -7.9994    0.0000 C   0  0  2  0  0  0  0  0  0  0  0  0
    5.0487   -7.5802    0.0000 C   0  0  1  0  0  0  0  0  0  0  0  0
    5.0409   -6.7553    0.0000 O   0  0  0  0  0  0  0  0  0  0  0  0
    2.8937   -6.3629    0.0000 O   0  0  0  0  0  0  0  0  0  0  0  0
    2.9092   -8.0129    0.0000 O   0  0  0  0  0  0  0  0  0  0  0  0
    4.3459   -8.8244    0.0000 O   0  0  0  0  0  0  0  0  0  0  0  0
    9.7869  -12.1377    0.0000 C   0  0  1  0  0  0  0  0  0  0  0  0
   10.6119  -12.1297    0.0000 C   0  0  1  0  0  0  0  0  0  0  0  0
   11.0173  -11.4112    0.0000 C   0  0  2  0  0  0  0  0  0  0  0  0
   10.5979  -10.7008    0.0000 C   0  0  2  0  0  0  0  0  0  0  0  0
    9.7729  -10.7089    0.0000 C   0  0  1  0  0  0  0  0  0  0  0  0
    9.3674  -11.4274    0.0000 O   0  0  0  0  0  0  0  0  0  0  0  0
   11.0313  -12.8401    0.0000 O   0  0  0  0  0  0  0  0  0  0  0  0
   11.8423  -11.4031    0.0000 O   0  0  0  0  0  0  0  0  0  0  0  0
   11.0033   -9.9823    0.0000 O   0  0  0  0  0  0  0  0  0  0  0  0
    9.3814  -12.8562    0.0000 C   0  0  0  0  0  0  0  0  0  0  0  0
    3.5851   -4.2840    0.0000 C   0  0  2  0  0  0  0  0  0  0  0  0
    2.8664   -3.8788    0.0000 C   0  0  2  0  0  0  0  0  0  0  0  0
    2.1562   -4.2986    0.0000 C   0  0  1  0  0  0  0  0  0  0  0  0
    2.1646   -5.1236    0.0000 C   0  0  2  0  0  0  0  0  0  0  0  0
    2.8833   -5.5288    0.0000 C   0  0  1  0  0  0  0  0  0  0  0  0
    3.5935   -5.1090    0.0000 O   0  0  0  0  0  0  0  0  0  0  0  0
    2.8580   -3.0539    0.0000 O   0  0  0  0  0  0  0  0  0  0  0  0
    1.4375   -3.8935    0.0000 O   0  0  0  0  0  0  0  0  0  0  0  0
    1.4544   -5.5434    0.0000 O   0  0  0  0  0  0  0  0  0  0  0  0
    4.2953   -3.8642    0.0000 C   0  0  0  0  0  0  0  0  0  0  0  0
    4.2868   -3.0393    0.0000 O   0  0  0  0  0  0  0  0  0  0  0  0
  1  2  2  0  0  0  0
  2  3  1  0  0  0  0
  3  4  2  0  0  0  0
  4  5  1  0  0  0  0
  5  6  2  0  0  0  0
  6  1  1  0  0  0  0
  4  7  1  0  0  0  0
  7  8  2  0  0  0  0
  8  9  1  0  0  0  0
  9 10  2  0  0  0  0
 10  5  1  0  0  0  0
  8 11  1  0  0  0  0
 11 12  1  0  0  0  0
 13 14  1  0  0  0  0
 14  9  1  0  0  0  0
  6 15  1  0  0  0  0
 10 16  1  0  0  0  0
 14 17  2  0  0  0  0
 18 19  1  0  0  0  0
 19 20  1  0  0  0  0
 20 21  1  0  0  0  0
 21 22  1  0  0  0  0
 22 23  1  0  0  0  0
 23 18  1  0  0  0  0
 19 24  1  6  0  0  0
 20 25  1  1  0  0  0
 21 26  1  6  0  0  0
 27 28  1  0  0  0  0
 28 29  1  0  0  0  0
 29 30  1  0  0  0  0
 30 31  1  0  0  0  0
 31 32  1  0  0  0  0
 32 27  1  0  0  0  0
 28 33  1  1  0  0  0
 29 34  1  6  0  0  0
 30 35  1  6  0  0  0
 27 36  1  6  0  0  0
 37 38  1  0  0  0  0
 38 39  1  0  0  0  0
 39 40  1  0  0  0  0
 40 41  1  0  0  0  0
 41 42  1  0  0  0  0
 42 37  1  0  0  0  0
 38 43  1  6  0  0  0
 39 44  1  1  0  0  0
 40 45  1  6  0  0  0
 37 46  1  1  0  0  0
 46 47  1  0  0  0  0
 22 12  1  1  0  0  0
 41 24  1  1  0  0  0
 31 15  1  1  0  0  0
M  END
>  <cdx:fragmentId>
261

$$$$
