2095.cdx
  Mrv1902 05222410252D          

 10 10  0  0  0  0            999 V2000
    6.1908   -8.0850    0.0000 C   0  0  0  0  0  0  0  0  0  0  0  0
    6.1908   -8.9100    0.0000 C   0  0  0  0  0  0  0  0  0  0  0  0
    6.9052   -9.3225    0.0000 C   0  0  0  0  0  0  0  0  0  0  0  0
    7.6197   -8.9100    0.0000 C   0  0  0  0  0  0  0  0  0  0  0  0
    7.6197   -8.0850    0.0000 C   0  0  0  0  0  0  0  0  0  0  0  0
    6.9052   -7.6725    0.0000 C   0  0  0  0  0  0  0  0  0  0  0  0
    6.9052   -6.8475    0.0000 C   0  0  0  0  0  0  0  0  0  0  0  0
    7.6197   -6.4350    0.0000 C   0  0  0  0  0  0  0  0  0  0  0  0
    6.1908   -6.4350    0.0000 C   0  0  0  0  0  0  0  0  0  0  0  0
    6.9052  -10.1475    0.0000 C   0  0  0  0  0  0  0  0  0  0  0  0
  1  2  1  0  0  0  0
  2  3  2  0  0  0  0
  3  4  1  0  0  0  0
  4  5  2  0  0  0  0
  5  6  1  0  0  0  0
  6  1  1  0  0  0  0
  6  7  1  0  0  0  0
  7  8  1  0  0  0  0
  7  9  1  0  0  0  0
  3 10  1  0  0  0  0
M  END
>  <cdx:fragmentId>
5

$$$$
