20967.cdx
  Mrv1902 05222410212D          

 13 12  0  0  0  0            999 V2000
    3.3707   -2.6949    0.0000 C   0  0  0  0  0  0  0  0  0  0  0  0
    4.0852   -3.1074    0.0000 C   0  0  0  0  0  0  0  0  0  0  0  0
    4.7996   -2.6949    0.0000 C   0  0  0  0  0  0  0  0  0  0  0  0
    5.5141   -3.1074    0.0000 C   0  0  0  0  0  0  0  0  0  0  0  0
    6.2286   -2.6949    0.0000 C   0  0  0  0  0  0  0  0  0  0  0  0
    6.9431   -3.1074    0.0000 C   0  0  0  0  0  0  0  0  0  0  0  0
    7.6575   -2.6949    0.0000 C   0  0  0  0  0  0  0  0  0  0  0  0
    8.3720   -3.1074    0.0000 C   0  0  0  0  0  0  0  0  0  0  0  0
    9.0865   -2.6949    0.0000 C   0  0  0  0  0  0  0  0  0  0  0  0
    9.8009   -3.1074    0.0000 C   0  0  0  0  0  0  0  0  0  0  0  0
   10.5154   -2.6949    0.0000 C   0  0  0  0  0  0  0  0  0  0  0  0
   11.2299   -3.1074    0.0000 C   0  0  0  0  0  0  0  0  0  0  0  0
    2.6562   -3.1074    0.0000 O   0  0  0  0  0  0  0  0  0  0  0  0
  1  2  1  0  0  0  0
  2  3  2  0  0  0  0
  3  4  1  0  0  0  0
  4  5  1  0  0  0  0
  5  6  1  0  0  0  0
  6  7  1  0  0  0  0
  7  8  1  0  0  0  0
  8  9  1  0  0  0  0
  9 10  1  0  0  0  0
 10 11  1  0  0  0  0
 11 12  1  0  0  0  0
  1 13  2  0  0  0  0
M  END
>  <cdx:groupId>
40

>  <cdx:fragmentId>
5

$$$$
