1-(2,4-dihydroxyphenyl)-3-hydroxy-3-(4'-hydroxyphenyl) 1-propanone.cdx
  Mrv1902 05222410212D          

 20 21  0  0  0  0            999 V2000
    2.8289   -7.5281    0.0000 C   0  0  0  0  0  0  0  0  0  0  0  0
    2.8289   -8.3531    0.0000 C   0  0  0  0  0  0  0  0  0  0  0  0
    3.5434   -8.7656    0.0000 C   0  0  0  0  0  0  0  0  0  0  0  0
    4.2578   -8.3531    0.0000 C   0  0  0  0  0  0  0  0  0  0  0  0
    4.2578   -7.5281    0.0000 C   0  0  0  0  0  0  0  0  0  0  0  0
    3.5434   -7.1156    0.0000 C   0  0  0  0  0  0  0  0  0  0  0  0
    4.9723   -7.1156    0.0000 C   0  0  0  0  0  0  0  0  0  0  0  0
    5.6868   -7.5281    0.0000 C   0  0  0  0  0  0  0  0  0  0  0  0
    6.4013   -7.1156    0.0000 C   0  0  0  0  0  0  0  0  0  0  0  0
    7.1157   -7.5281    0.0000 C   0  0  0  0  0  0  0  0  0  0  0  0
    7.1157   -8.3531    0.0000 C   0  0  0  0  0  0  0  0  0  0  0  0
    7.8302   -8.7656    0.0000 C   0  0  0  0  0  0  0  0  0  0  0  0
    8.5447   -8.3531    0.0000 C   0  0  0  0  0  0  0  0  0  0  0  0
    8.5447   -7.5281    0.0000 C   0  0  0  0  0  0  0  0  0  0  0  0
    7.8302   -7.1156    0.0000 C   0  0  0  0  0  0  0  0  0  0  0  0
    3.5434   -6.2906    0.0000 O   0  0  0  0  0  0  0  0  0  0  0  0
    2.1144   -8.7656    0.0000 O   0  0  0  0  0  0  0  0  0  0  0  0
    4.9723   -6.2906    0.0000 O   0  0  0  0  0  0  0  0  0  0  0  0
    9.2591   -8.7656    0.0000 O   0  0  0  0  0  0  0  0  0  0  0  0
    6.4013   -6.2906    0.0000 O   0  0  0  0  0  0  0  0  0  0  0  0
  1  2  2  0  0  0  0
  2  3  1  0  0  0  0
  3  4  2  0  0  0  0
  4  5  1  0  0  0  0
  5  6  2  0  0  0  0
  6  1  1  0  0  0  0
  5  7  1  0  0  0  0
  7  8  1  0  0  0  0
  8  9  1  0  0  0  0
  9 10  1  0  0  0  0
 10 11  2  0  0  0  0
 11 12  1  0  0  0  0
 12 13  2  0  0  0  0
 13 14  1  0  0  0  0
 14 15  2  0  0  0  0
 15 10  1  0  0  0  0
  6 16  1  0  0  0  0
  2 17  1  0  0  0  0
  7 18  2  0  0  0  0
 13 19  1  0  0  0  0
  9 20  1  0  0  0  0
M  END
>  <cdx:fragmentId>
5

$$$$
