20995.cdx
  Mrv1902 05222410252D          

 10 10  0  0  0  0            999 V2000
    6.8658   -8.9267    0.0000 C   0  0  0  0  0  0  0  0  0  0  0  0
    6.6104   -9.7111    0.0000 C   0  0  0  0  0  0  0  0  0  0  0  0
    5.7854   -9.7106    0.0000 C   0  0  0  0  0  0  0  0  0  0  0  0
    5.5310   -8.9258    0.0000 C   0  0  0  0  0  0  0  0  0  0  0  0
    6.1987   -8.4413    0.0000 S   0  0  0  0  0  0  0  0  0  0  0  0
    9.5643   -6.5496    0.0000 C   0  0  0  0  0  0  0  0  0  0  0  0
    8.7795   -6.8041    0.0000 C   0  0  0  0  0  0  0  0  0  0  0  0
    8.6075   -7.6109    0.0000 C   0  0  0  0  0  0  0  0  0  0  0  0
    7.8227   -7.8654    0.0000 C   0  0  0  0  0  0  0  0  0  0  0  0
    7.6506   -8.6722    0.0000 C   0  0  0  0  0  0  0  0  0  0  0  0
  7  6  1  0  0  0  0
  8  7  1  0  0  0  0
  9  8  1  0  0  0  0
 10  9  1  0  0  0  0
  1  2  2  0  0  0  0
  2  3  1  0  0  0  0
  3  4  2  0  0  0  0
  4  5  1  0  0  0  0
  1  5  1  0  0  0  0
  1 10  1  0  0  0  0
M  END
>  <cdx:fragmentId>
37

$$$$
