2099.cdx
  Mrv1902 05222410202D          

 31 33  0  0  0  0            999 V2000
    2.4164   -6.3525    0.0000 C   0  0  0  0  0  0  0  0  0  0  0  0
    2.4164   -7.1775    0.0000 C   0  0  0  0  0  0  0  0  0  0  0  0
    3.1309   -7.5900    0.0000 C   0  0  0  0  0  0  0  0  0  0  0  0
    3.8453   -7.1775    0.0000 C   0  0  0  0  0  0  0  0  0  0  0  0
    3.8453   -6.3525    0.0000 C   0  0  0  0  0  0  0  0  0  0  0  0
    3.1309   -5.9400    0.0000 C   0  0  0  0  0  0  0  0  0  0  0  0
    4.5598   -5.9400    0.0000 C   0  0  0  0  0  0  0  0  0  0  0  0
    5.2743   -6.3525    0.0000 C   0  0  0  0  0  0  0  0  0  0  0  0
    5.9888   -5.9400    0.0000 C   0  0  0  0  0  0  0  0  0  0  0  0
    6.7032   -6.3525    0.0000 C   0  0  0  0  0  0  0  0  0  0  0  0
    6.7032   -7.1775    0.0000 C   0  0  0  0  0  0  0  0  0  0  0  0
    7.4177   -7.5900    0.0000 C   0  0  0  0  0  0  0  0  0  0  0  0
    8.1322   -7.1775    0.0000 C   0  0  0  0  0  0  0  0  0  0  0  0
    8.1322   -6.3525    0.0000 C   0  0  0  0  0  0  0  0  0  0  0  0
    7.4177   -5.9400    0.0000 C   0  0  0  0  0  0  0  0  0  0  0  0
    4.5598   -5.1150    0.0000 O   0  0  0  0  0  0  0  0  0  0  0  0
    5.9888   -5.1150    0.0000 O   0  0  0  0  0  0  0  0  0  0  0  0
    3.1309   -5.1150    0.0000 O   0  0  0  0  0  0  0  0  0  0  0  0
    1.7019   -7.5900    0.0000 O   0  0  0  0  0  0  0  0  0  0  0  0
    8.8466   -7.5900    0.0000 O   0  0  0  0  0  0  0  0  0  0  0  0
    8.8466   -8.4150    0.0000 C   0  0  2  0  0  0  0  0  0  0  0  0
    8.1322   -8.8275    0.0000 O   0  0  0  0  0  0  0  0  0  0  0  0
    8.1322   -9.6525    0.0000 C   0  0  1  0  0  0  0  0  0  0  0  0
    8.8466  -10.0650    0.0000 C   0  0  2  0  0  0  0  0  0  0  0  0
    9.5611   -9.6525    0.0000 C   0  0  1  0  0  0  0  0  0  0  0  0
    9.5611   -8.8275    0.0000 C   0  0  1  0  0  0  0  0  0  0  0  0
   10.2756   -8.4150    0.0000 O   0  0  0  0  0  0  0  0  0  0  0  0
    8.8466  -10.8900    0.0000 O   0  0  0  0  0  0  0  0  0  0  0  0
    7.4177  -10.0650    0.0000 C   0  0  0  0  0  0  0  0  0  0  0  0
   10.2756  -10.0650    0.0000 O   0  0  0  0  0  0  0  0  0  0  0  0
    7.4177  -10.8900    0.0000 O   0  0  0  0  0  0  0  0  0  0  0  0
  1  2  2  0  0  0  0
  2  3  1  0  0  0  0
  3  4  2  0  0  0  0
  4  5  1  0  0  0  0
  5  6  2  0  0  0  0
  6  1  1  0  0  0  0
  5  7  1  0  0  0  0
  7  8  1  0  0  0  0
  8  9  1  0  0  0  0
  9 10  1  0  0  0  0
 10 11  2  0  0  0  0
 11 12  1  0  0  0  0
 12 13  2  0  0  0  0
 13 14  1  0  0  0  0
 14 15  2  0  0  0  0
 15 10  1  0  0  0  0
  7 16  2  0  0  0  0
  9 17  1  0  0  0  0
  6 18  1  0  0  0  0
  2 19  1  0  0  0  0
 13 20  1  0  0  0  0
 21 20  1  1  0  0  0
 21 22  1  0  0  0  0
 22 23  1  0  0  0  0
 23 24  1  0  0  0  0
 24 25  1  0  0  0  0
 25 26  1  0  0  0  0
 26 21  1  0  0  0  0
 26 27  1  6  0  0  0
 24 28  1  6  0  0  0
 23 29  1  1  0  0  0
 25 30  1  1  0  0  0
 29 31  1  0  0  0  0
M  END
>  <cdx:fragmentId>
5

$$$$
