46209991cdx.cdx
  Mrv1902 05222410272D          

 25 26  0  0  0  0            999 V2000
    4.4239   -7.5694    0.0000 C   0  0  0  0  0  0  0  0  0  0  0  0
    4.4239   -8.3944    0.0000 C   0  0  0  0  0  0  0  0  0  0  0  0
    5.1384   -8.8069    0.0000 C   0  0  0  0  0  0  0  0  0  0  0  0
    5.8528   -8.3944    0.0000 C   0  0  0  0  0  0  0  0  0  0  0  0
    5.8528   -7.5694    0.0000 C   0  0  0  0  0  0  0  0  0  0  0  0
    5.1384   -7.1569    0.0000 C   0  0  0  0  0  0  0  0  0  0  0  0
    6.5673   -8.8069    0.0000 C   0  0  0  0  0  0  0  0  0  0  0  0
    7.2818   -8.3944    0.0000 C   0  0  0  0  0  0  0  0  0  0  0  0
    7.9963   -8.8069    0.0000 C   0  0  0  0  0  0  0  0  0  0  0  0
    8.7107   -8.3944    0.0000 C   0  0  0  0  0  0  0  0  0  0  0  0
    8.7107   -7.5694    0.0000 C   0  0  0  0  0  0  0  0  0  0  0  0
    9.4252   -8.8069    0.0000 C   0  0  0  0  0  0  0  0  0  0  0  0
   10.1397   -8.3944    0.0000 C   0  0  0  0  0  0  0  0  0  0  0  0
   10.1397   -7.5694    0.0000 C   0  0  0  0  0  0  0  0  0  0  0  0
    9.4252   -7.1569    0.0000 C   0  0  0  0  0  0  0  0  0  0  0  0
    3.7094   -7.1569    0.0000 O   0  0  0  0  0  0  0  0  0  0  0  0
   10.8541   -7.1569    0.0000 O   0  0  0  0  0  0  0  0  0  0  0  0
    7.9963   -9.6319    0.0000 O   0  0  0  0  0  0  0  0  0  0  0  0
    5.1384   -9.6319    0.0000 O   0  0  0  0  0  0  0  0  0  0  0  0
    4.4239  -10.0444    0.0000 C   0  0  0  0  0  0  0  0  0  0  0  0
    5.1384   -6.3319    0.0000 C   0  0  2  0  0  0  0  0  0  0  0  0
    4.4239   -5.9194    0.0000 C   0  0  0  0  0  0  0  0  0  0  0  0
    5.8528   -5.9194    0.0000 C   0  0  0  0  0  0  0  0  0  0  0  0
    6.5673   -6.3319    0.0000 C   0  0  0  0  0  0  0  0  0  0  0  0
    5.8528   -5.0944    0.0000 C   0  0  0  0  0  0  0  0  0  0  0  0
  1  2  2  0  0  0  0
  2  3  1  0  0  0  0
  3  4  2  0  0  0  0
  4  5  1  0  0  0  0
  5  6  2  0  0  0  0
  6  1  1  0  0  0  0
  4  7  1  0  0  0  0
  7  8  2  0  0  0  0
  8  9  1  0  0  0  0
  9 10  1  0  0  0  0
 10 11  2  0  0  0  0
 10 12  1  0  0  0  0
 12 13  2  0  0  0  0
 13 14  1  0  0  0  0
 14 15  2  0  0  0  0
 15 11  1  0  0  0  0
 16  1  1  0  0  0  0
 14 17  1  0  0  0  0
  9 18  2  0  0  0  0
  3 19  1  0  0  0  0
 19 20  1  0  0  0  0
  6 21  1  0  0  0  0
 21 22  1  6  0  0  0
 21 23  1  0  0  0  0
 23 24  2  0  0  0  0
 23 25  1  0  0  0  0
M  END
>  <cdx:fragmentId>
88

$$$$
