2100.cdx
  Mrv1902 05222410222D          

 31 33  0  0  0  0            999 V2000
    4.8708   -6.1463    0.0000 C   0  0  0  0  0  0  0  0  0  0  0  0
    4.8708   -6.9712    0.0000 C   0  0  0  0  0  0  0  0  0  0  0  0
    5.5852   -7.3838    0.0000 C   0  0  0  0  0  0  0  0  0  0  0  0
    6.2997   -6.9712    0.0000 C   0  0  0  0  0  0  0  0  0  0  0  0
    6.2997   -6.1463    0.0000 C   0  0  0  0  0  0  0  0  0  0  0  0
    5.5852   -5.7338    0.0000 C   0  0  0  0  0  0  0  0  0  0  0  0
    7.0142   -5.7338    0.0000 C   0  0  0  0  0  0  0  0  0  0  0  0
    7.7287   -6.1463    0.0000 C   0  0  0  0  0  0  0  0  0  0  0  0
    8.4431   -5.7338    0.0000 C   0  0  0  0  0  0  0  0  0  0  0  0
    9.1576   -6.1463    0.0000 C   0  0  0  0  0  0  0  0  0  0  0  0
    9.1576   -6.9712    0.0000 C   0  0  0  0  0  0  0  0  0  0  0  0
    9.8721   -7.3838    0.0000 C   0  0  0  0  0  0  0  0  0  0  0  0
   10.5865   -6.9712    0.0000 C   0  0  0  0  0  0  0  0  0  0  0  0
   10.5865   -6.1463    0.0000 C   0  0  0  0  0  0  0  0  0  0  0  0
    9.8721   -5.7338    0.0000 C   0  0  0  0  0  0  0  0  0  0  0  0
    7.0142   -4.9088    0.0000 O   0  0  0  0  0  0  0  0  0  0  0  0
    8.4431   -4.9088    0.0000 O   0  0  0  0  0  0  0  0  0  0  0  0
    5.5852   -4.9088    0.0000 O   0  0  0  0  0  0  0  0  0  0  0  0
    4.1563   -7.3838    0.0000 O   0  0  0  0  0  0  0  0  0  0  0  0
   11.3010   -7.3838    0.0000 O   0  0  0  0  0  0  0  0  0  0  0  0
    4.1563   -8.2087    0.0000 C   0  0  2  0  0  0  0  0  0  0  0  0
    3.4418   -8.6212    0.0000 O   0  0  0  0  0  0  0  0  0  0  0  0
    3.4418   -9.4462    0.0000 C   0  0  1  0  0  0  0  0  0  0  0  0
    4.1563   -9.8587    0.0000 C   0  0  2  0  0  0  0  0  0  0  0  0
    4.8708   -9.4462    0.0000 C   0  0  1  0  0  0  0  0  0  0  0  0
    4.8708   -8.6212    0.0000 C   0  0  1  0  0  0  0  0  0  0  0  0
    2.7274   -9.8587    0.0000 C   0  0  0  0  0  0  0  0  0  0  0  0
    5.5852   -9.8587    0.0000 O   0  0  0  0  0  0  0  0  0  0  0  0
    4.1563  -10.6837    0.0000 O   0  0  0  0  0  0  0  0  0  0  0  0
    5.5852   -8.2087    0.0000 O   0  0  0  0  0  0  0  0  0  0  0  0
    2.7274  -10.6837    0.0000 O   0  0  0  0  0  0  0  0  0  0  0  0
  1  2  2  0  0  0  0
  2  3  1  0  0  0  0
  3  4  2  0  0  0  0
  4  5  1  0  0  0  0
  5  6  2  0  0  0  0
  6  1  1  0  0  0  0
  5  7  1  0  0  0  0
  7  8  1  0  0  0  0
  8  9  1  0  0  0  0
  9 10  1  0  0  0  0
 10 11  2  0  0  0  0
 11 12  1  0  0  0  0
 12 13  2  0  0  0  0
 13 14  1  0  0  0  0
 14 15  2  0  0  0  0
 15 10  1  0  0  0  0
  7 16  2  0  0  0  0
  9 17  1  0  0  0  0
  6 18  1  0  0  0  0
  2 19  1  0  0  0  0
 13 20  1  0  0  0  0
 21 19  1  1  0  0  0
 21 22  1  0  0  0  0
 22 23  1  0  0  0  0
 23 24  1  0  0  0  0
 24 25  1  0  0  0  0
 25 26  1  0  0  0  0
 26 21  1  0  0  0  0
 23 27  1  1  0  0  0
 25 28  1  1  0  0  0
 24 29  1  6  0  0  0
 26 30  1  6  0  0  0
 27 31  1  0  0  0  0
M  END
>  <cdx:fragmentId>
5

$$$$
