210176.cdx
  Mrv1902 05222410182D          

 38 42  0  0  0  0            999 V2000
    6.8026  -10.3287    0.0000 C   0  0  0  0  0  0  0  0  0  0  0  0
    7.5192   -9.9199    0.0000 C   0  0  1  0  0  0  0  0  0  0  0  0
    8.3025  -10.1789    0.0000 C   0  0  0  0  0  0  0  0  0  0  0  0
    8.7909   -9.5140    0.0000 C   0  0  2  0  0  0  0  0  0  0  0  0
    9.5768   -9.2632    0.0000 O   0  0  0  0  0  0  0  0  0  0  0  0
    9.5811   -8.4382    0.0000 C   0  0  0  0  0  0  0  0  0  0  0  0
    8.7978   -8.1791    0.0000 C   0  0  1  0  0  0  0  0  0  0  0  0
    8.3094   -8.8440    0.0000 C   0  0  1  0  0  0  0  0  0  0  0  0
    7.5235   -9.0949    0.0000 C   0  0  2  0  0  0  0  0  0  0  0  0
    6.8112   -8.6787    0.0000 C   0  0  0  0  0  0  0  0  0  0  0  0
    6.0946   -9.0875    0.0000 C   0  0  0  0  0  0  0  0  0  0  0  0
    6.0903   -9.9124    0.0000 C   0  0  2  0  0  0  0  0  0  0  0  0
    5.3737  -10.3212    0.0000 C   0  0  1  0  0  0  0  0  0  0  0  0
    4.6613   -9.9050    0.0000 C   0  0  0  0  0  0  0  0  0  0  0  0
    3.9447  -10.3138    0.0000 C   0  0  0  0  0  0  0  0  0  0  0  0
    3.9404  -11.1388    0.0000 C   0  0  1  0  0  0  0  0  0  0  0  0
    4.6527  -11.5550    0.0000 C   0  0  0  0  0  0  0  0  0  0  0  0
    5.3694  -11.1462    0.0000 C   0  0  2  0  0  0  0  0  0  0  0  0
    6.0817  -11.5624    0.0000 C   0  0  0  0  0  0  0  0  0  0  0  0
    6.7983  -11.1536    0.0000 C   0  0  0  0  0  0  0  0  0  0  0  0
   10.2511   -7.9567    0.0000 O   0  0  0  0  0  0  0  0  0  0  0  0
    6.0774  -12.3874    0.0000 O   0  0  0  0  0  0  0  0  0  0  0  0
   10.2126   -5.5626    0.0000 C   0  0  0  0  0  0  0  0  0  0  0  0
    5.0615  -12.2716    0.0000 C   0  0  0  0  0  0  0  0  0  0  0  0
    4.2365  -12.2673    0.0000 C   0  0  0  0  0  0  0  0  0  0  0  0
    5.3780   -9.4962    0.0000 C   0  0  0  0  0  0  0  0  0  0  0  0
    7.5235   -8.2699    0.0000 C   0  0  0  0  0  0  0  0  0  0  0  0
    7.5149  -10.7449    0.0000 C   0  0  0  0  0  0  0  0  0  0  0  0
    3.2238  -11.5475    0.0000 O   0  0  0  0  0  0  0  0  0  0  0  0
    9.2723  -10.1840    0.0000 H   0  0  0  0  0  0  0  0  0  0  0  0
    7.9516   -8.1007    0.0000 H   0  0  0  0  0  0  0  0  0  0  0  0
    6.0860  -10.7374    0.0000 H   0  0  0  0  0  0  0  0  0  0  0  0
    5.3651  -11.9712    0.0000 H   0  0  0  0  0  0  0  0  0  0  0  0
    9.1557   -4.6009    0.0000 C   0  0  0  0  0  0  0  0  0  0  0  0
    9.4066   -5.3868    0.0000 C   0  0  0  0  0  0  0  0  0  0  0  0
    8.8513   -5.9971    0.0000 C   0  0  0  0  0  0  0  0  0  0  0  0
    9.1022   -6.7830    0.0000 C   0  0  0  0  0  0  0  0  0  0  0  0
    8.5470   -7.3932    0.0000 C   0  0  0  0  0  0  0  0  0  0  0  0
 35 23  1  0  0  0  0
 35 34  1  0  0  0  0
 36 35  2  0  0  0  0
 37 36  1  0  0  0  0
 38 37  1  0  0  0  0
  1  2  1  0  0  0  0
  2  3  1  0  0  0  0
  3  4  1  0  0  0  0
  4  5  1  0  0  0  0
  5  6  1  0  0  0  0
  6  7  1  0  0  0  0
  7  8  1  0  0  0  0
  8  9  1  0  0  0  0
  9 10  1  0  0  0  0
 10 11  1  0  0  0  0
 11 12  1  0  0  0  0
 12 13  1  0  0  0  0
 13 14  1  0  0  0  0
 14 15  1  0  0  0  0
 15 16  1  0  0  0  0
 16 17  1  0  0  0  0
 17 18  1  0  0  0  0
 18 19  1  0  0  0  0
 19 20  1  0  0  0  0
  1 20  2  0  0  0  0
  1 12  1  0  0  0  0
 13 18  1  0  0  0  0
  2  9  1  0  0  0  0
  4  8  1  0  0  0  0
  6 21  2  0  0  0  0
 19 22  2  0  0  0  0
  7 38  1  1  0  0  0
 17 24  1  0  0  0  0
 17 25  1  0  0  0  0
 13 26  1  1  0  0  0
  9 27  1  6  0  0  0
  2 28  1  1  0  0  0
 16 29  1  1  0  0  0
  4 30  1  6  0  0  0
  8 31  1  1  0  0  0
 12 32  1  6  0  0  0
 18 33  1  6  0  0  0
M  END
>  <cdx:fragmentId>
176607

$$$$
