21015.cdx
  Mrv1902 05222410192D          

 20 19  0  0  0  0            999 V2000
    0.8056   -6.6283    0.0000 O   0  0  0  0  0  0  0  0  0  0  0  0
    1.5201   -7.8658    0.0000 O   0  0  0  0  0  0  0  0  0  0  0  0
   13.6661   -6.6283    0.0000 C   0  0  0  0  0  0  0  0  0  0  0  0
   12.9516   -7.0408    0.0000 C   0  0  0  0  0  0  0  0  0  0  0  0
   12.2371   -6.6283    0.0000 C   0  0  0  0  0  0  0  0  0  0  0  0
   11.5227   -7.0408    0.0000 C   0  0  0  0  0  0  0  0  0  0  0  0
   10.8082   -6.6283    0.0000 C   0  0  0  0  0  0  0  0  0  0  0  0
   10.0937   -7.0408    0.0000 C   0  0  0  0  0  0  0  0  0  0  0  0
    9.3793   -6.6283    0.0000 C   0  0  0  0  0  0  0  0  0  0  0  0
    8.6648   -7.0408    0.0000 C   0  0  0  0  0  0  0  0  0  0  0  0
    7.9503   -6.6283    0.0000 C   0  0  0  0  0  0  0  0  0  0  0  0
    7.2358   -7.0408    0.0000 C   0  0  0  0  0  0  0  0  0  0  0  0
    6.5214   -6.6283    0.0000 C   0  0  0  0  0  0  0  0  0  0  0  0
    5.8069   -7.0408    0.0000 C   0  0  0  0  0  0  0  0  0  0  0  0
    5.0924   -6.6283    0.0000 C   0  0  0  0  0  0  0  0  0  0  0  0
    4.3780   -7.0408    0.0000 C   0  0  0  0  0  0  0  0  0  0  0  0
    3.6635   -6.6283    0.0000 C   0  0  0  0  0  0  0  0  0  0  0  0
    2.9490   -7.0408    0.0000 C   0  0  0  0  0  0  0  0  0  0  0  0
    2.2346   -6.6283    0.0000 C   0  0  0  0  0  0  0  0  0  0  0  0
    1.5201   -7.0408    0.0000 C   0  0  0  0  0  0  0  0  0  0  0  0
 20  1  1  0  0  0  0
 20  2  2  0  0  0  0
  4  3  1  0  0  0  0
  5  4  1  0  0  0  0
  6  5  1  0  0  0  0
  7  6  2  0  0  0  0
  8  7  1  0  0  0  0
  9  8  1  0  0  0  0
 10  9  2  0  0  0  0
 11 10  1  0  0  0  0
 12 11  1  0  0  0  0
 13 12  2  0  0  0  0
 14 13  1  0  0  0  0
 15 14  1  0  0  0  0
 16 15  1  0  0  0  0
 17 16  1  0  0  0  0
 18 17  1  0  0  0  0
 19 18  1  0  0  0  0
 20 19  1  0  0  0  0
M  END
>  <cdx:fragmentId>
5

$$$$
