2102.cdx
  Mrv1902 05222410232D          

 12 12  0  0  0  0            999 V2000
    6.1702   -7.9200    0.0000 C   0  0  0  0  0  0  0  0  0  0  0  0
    6.1702   -8.7450    0.0000 C   0  0  0  0  0  0  0  0  0  0  0  0
    6.8846   -9.1575    0.0000 C   0  0  0  0  0  0  0  0  0  0  0  0
    7.5991   -8.7450    0.0000 C   0  0  0  0  0  0  0  0  0  0  0  0
    7.5991   -7.9200    0.0000 C   0  0  0  0  0  0  0  0  0  0  0  0
    6.8846   -7.5075    0.0000 C   0  0  0  0  0  0  0  0  0  0  0  0
    5.4557   -7.5075    0.0000 C   0  0  0  0  0  0  0  0  0  0  0  0
    6.8846   -9.9825    0.0000 C   0  0  0  0  0  0  0  0  0  0  0  0
    6.8846   -6.6825    0.0000 C   0  0  0  0  0  0  0  0  0  0  0  0
    7.5991   -6.2700    0.0000 C   0  0  0  0  0  0  0  0  0  0  0  0
    7.5991   -5.4450    0.0000 C   0  0  0  0  0  0  0  0  0  0  0  0
    6.1702   -6.2700    0.0000 O   0  0  0  0  0  0  0  0  0  0  0  0
  1  2  2  0  0  0  0
  2  3  1  0  0  0  0
  3  4  2  0  0  0  0
  4  5  1  0  0  0  0
  5  6  2  0  0  0  0
  6  1  1  0  0  0  0
  1  7  1  0  0  0  0
  3  8  1  0  0  0  0
  6  9  1  0  0  0  0
  9 10  1  0  0  0  0
 10 11  1  0  0  0  0
  9 12  2  0  0  0  0
M  END
>  <cdx:fragmentId>
5

$$$$
