2104.cdx
  Mrv1902 05222410212D          

 67 75  0  0  0  0            999 V2000
    6.8242   -9.3796    0.0000 C   0  0  0  0  0  0  0  0  0  0  0  0
    7.5148   -9.8309    0.0000 C   0  0  0  0  0  0  0  0  0  0  0  0
    8.3388   -9.7900    0.0000 O   0  0  0  0  0  0  0  0  0  0  0  0
    8.6765   -9.0373    0.0000 C   0  0  0  0  0  0  0  0  0  0  0  0
    9.4476   -8.7439    0.0000 C   0  0  0  0  0  0  0  0  0  0  0  0
    9.3637   -7.9232    0.0000 C   0  0  0  0  0  0  0  0  0  0  0  0
   10.0325   -7.4401    0.0000 C   0  0  0  0  0  0  0  0  0  0  0  0
   10.7852   -7.7779    0.0000 C   0  0  0  0  0  0  0  0  0  0  0  0
   10.8691   -8.5986    0.0000 C   0  0  0  0  0  0  0  0  0  0  0  0
   10.2003   -9.0816    0.0000 C   0  0  0  0  0  0  0  0  0  0  0  0
   10.4937   -9.8526    0.0000 C   0  0  0  0  0  0  0  0  0  0  0  0
   11.3145   -9.7688    0.0000 C   0  0  0  0  0  0  0  0  0  0  0  0
   11.7975  -10.4376    0.0000 C   0  0  0  0  0  0  0  0  0  0  0  0
   11.4598  -11.1903    0.0000 C   0  0  0  0  0  0  0  0  0  0  0  0
   10.6390  -11.2742    0.0000 C   0  0  0  0  0  0  0  0  0  0  0  0
   10.1560  -10.6054    0.0000 C   0  0  0  0  0  0  0  0  0  0  0  0
    9.3850  -10.8988    0.0000 C   0  0  0  0  0  0  0  0  0  0  0  0
    8.6323  -10.5611    0.0000 O   0  0  0  0  0  0  0  0  0  0  0  0
    7.9896  -11.0784    0.0000 C   0  0  0  0  0  0  0  0  0  0  0  0
    7.2990  -10.6271    0.0000 C   0  0  0  0  0  0  0  0  0  0  0  0
    6.4750  -10.6680    0.0000 O   0  0  0  0  0  0  0  0  0  0  0  0
    6.1373  -11.4207    0.0000 C   0  0  0  0  0  0  0  0  0  0  0  0
    5.3663  -11.7141    0.0000 C   0  0  0  0  0  0  0  0  0  0  0  0
    5.4502  -12.5348    0.0000 C   0  0  0  0  0  0  0  0  0  0  0  0
    4.7813  -13.0179    0.0000 C   0  0  0  0  0  0  0  0  0  0  0  0
    4.0286  -12.6801    0.0000 C   0  0  0  0  0  0  0  0  0  0  0  0
    3.9447  -11.8594    0.0000 C   0  0  0  0  0  0  0  0  0  0  0  0
    4.6136  -11.3764    0.0000 C   0  0  0  0  0  0  0  0  0  0  0  0
    4.3201  -10.6054    0.0000 C   0  0  0  0  0  0  0  0  0  0  0  0
    3.4954  -10.6240    0.0000 C   0  0  0  0  0  0  0  0  0  0  0  0
    3.0569   -9.9252    0.0000 C   0  0  0  0  0  0  0  0  0  0  0  0
    3.4309   -9.1899    0.0000 C   0  0  0  0  0  0  0  0  0  0  0  0
    4.2540   -9.1326    0.0000 C   0  0  0  0  0  0  0  0  0  0  0  0
    4.3467   -8.3128    0.0000 C   0  0  0  0  0  0  0  0  0  0  0  0
    3.5399   -8.1404    0.0000 C   0  0  0  0  0  0  0  0  0  0  0  0
    3.2859   -7.3554    0.0000 C   0  0  0  0  0  0  0  0  0  0  0  0
    3.8387   -6.7430    0.0000 C   0  0  0  0  0  0  0  0  0  0  0  0
    4.6455   -6.9155    0.0000 C   0  0  0  0  0  0  0  0  0  0  0  0
    4.8995   -7.7004    0.0000 C   0  0  0  0  0  0  0  0  0  0  0  0
    5.7055   -7.5244    0.0000 C   0  0  0  0  0  0  0  0  0  0  0  0
    6.4632   -7.8506    0.0000 O   0  0  0  0  0  0  0  0  0  0  0  0
    6.8893   -8.5571    0.0000 C   0  0  0  0  0  0  0  0  0  0  0  0
    6.1816   -9.8969    0.0000 O   0  0  0  0  0  0  0  0  0  0  0  0
    5.4289   -9.5592    0.0000 C   0  0  0  0  0  0  0  0  0  0  0  0
    4.6578   -9.8526    0.0000 C   0  0  0  0  0  0  0  0  0  0  0  0
    6.3740   -7.4691    0.0000 C   0  0  2  0  0  0  0  0  0  0  0  0
    8.1104   -8.4373    0.0000 O   0  0  0  0  0  0  0  0  0  0  0  0
    9.3850  -11.7238    0.0000 O   0  0  0  0  0  0  0  0  0  0  0  0
    6.7035  -12.0207    0.0000 O   0  0  0  0  0  0  0  0  0  0  0  0
    4.9104   -7.3041    0.0000 O   0  0  0  0  0  0  0  0  0  0  0  0
    5.4289   -8.7342    0.0000 O   0  0  0  0  0  0  0  0  0  0  0  0
    6.9175   -6.8485    0.0000 O   0  0  0  0  0  0  0  0  0  0  0  0
    3.5847   -5.9581    0.0000 O   0  0  0  0  0  0  0  0  0  0  0  0
    2.4792   -7.1829    0.0000 O   0  0  0  0  0  0  0  0  0  0  0  0
    2.7228   -8.2542    0.0000 O   0  0  0  0  0  0  0  0  0  0  0  0
    2.6557   -8.9077    0.0000 O   0  0  0  0  0  0  0  0  0  0  0  0
    2.2319   -9.9252    0.0000 O   0  0  0  0  0  0  0  0  0  0  0  0
    2.9651  -11.2560    0.0000 O   0  0  0  0  0  0  0  0  0  0  0  0
    3.1448  -11.6575    0.0000 O   0  0  0  0  0  0  0  0  0  0  0  0
    3.3598  -13.1631    0.0000 O   0  0  0  0  0  0  0  0  0  0  0  0
    4.8652  -13.8386    0.0000 O   0  0  0  0  0  0  0  0  0  0  0  0
   11.9428  -11.8591    0.0000 O   0  0  0  0  0  0  0  0  0  0  0  0
   12.6182  -10.3537    0.0000 O   0  0  0  0  0  0  0  0  0  0  0  0
   11.8893   -9.1769    0.0000 O   0  0  0  0  0  0  0  0  0  0  0  0
   11.6919   -8.6585    0.0000 O   0  0  0  0  0  0  0  0  0  0  0  0
   11.4541   -7.2949    0.0000 O   0  0  0  0  0  0  0  0  0  0  0  0
    9.9486   -6.6194    0.0000 O   0  0  0  0  0  0  0  0  0  0  0  0
  1  2  1  0  0  0  0
  2  3  1  0  0  0  0
  3  4  1  0  0  0  0
  4  5  1  0  0  0  0
  5  6  2  0  0  0  0
  6  7  1  0  0  0  0
  7  8  2  0  0  0  0
  8  9  1  0  0  0  0
  9 10  2  0  0  0  0
 10 11  1  0  0  0  0
 11 12  2  0  0  0  0
 12 13  1  0  0  0  0
 13 14  2  0  0  0  0
 14 15  1  0  0  0  0
 15 16  2  0  0  0  0
 16 17  1  0  0  0  0
 17 18  1  0  0  0  0
 18 19  1  0  0  0  0
 19 20  1  0  0  0  0
 20 21  1  0  0  0  0
 21 22  1  0  0  0  0
 22 23  1  0  0  0  0
 23 24  2  0  0  0  0
 24 25  1  0  0  0  0
 25 26  2  0  0  0  0
 26 27  1  0  0  0  0
 27 28  2  0  0  0  0
 28 29  1  0  0  0  0
 29 30  1  0  0  0  0
 30 31  2  0  0  0  0
 31 32  1  0  0  0  0
 32 33  2  0  0  0  0
 33 34  1  0  0  0  0
 34 35  1  0  0  0  0
 35 36  2  0  0  0  0
 36 37  1  0  0  0  0
 37 38  2  0  0  0  0
 38 39  1  0  0  0  0
 39 40  1  0  0  0  0
 40 41  1  0  0  0  0
 41 42  1  0  0  0  0
 43 44  1  0  0  0  0
 44 45  1  0  0  0  0
  1 42  1  0  0  0  0
  1 43  1  0  0  0  0
 45 29  2  0  0  0  0
 42 46  1  0  0  0  0
 46 38  1  0  0  0  0
 34 39  2  0  0  0  0
 23 28  1  0  0  0  0
  2 20  1  0  0  0  0
 11 16  1  0  0  0  0
  5 10  1  0  0  0  0
 33 45  1  0  0  0  0
  4 47  2  0  0  0  0
 17 48  2  0  0  0  0
 22 49  2  0  0  0  0
 40 50  2  0  0  0  0
 44 51  2  0  0  0  0
 46 52  1  1  0  0  0
 37 53  1  0  0  0  0
 36 54  1  0  0  0  0
 35 55  1  0  0  0  0
 32 56  1  0  0  0  0
 31 57  1  0  0  0  0
 30 58  1  0  0  0  0
 27 59  1  0  0  0  0
 26 60  1  0  0  0  0
 25 61  1  0  0  0  0
 14 62  1  0  0  0  0
 13 63  1  0  0  0  0
 12 64  1  0  0  0  0
  9 65  1  0  0  0  0
  8 66  1  0  0  0  0
  7 67  1  0  0  0  0
M  END
>  <cdx:fragmentId>
12095

$$$$
