2107.cdx
  Mrv1902 05222410212D          

 16 16  0  0  0  0            999 V2000
    8.4934   -7.4731    0.0000 C   0  0  0  0  0  0  0  0  0  0  0  0
    9.2078   -7.0606    0.0000 C   0  0  0  0  0  0  0  0  0  0  0  0
    9.9223   -7.4731    0.0000 C   0  0  0  0  0  0  0  0  0  0  0  0
    7.7789   -7.8856    0.0000 C   0  0  0  0  0  0  0  0  0  0  0  0
    7.0644   -8.2981    0.0000 C   0  0  0  0  0  0  0  0  0  0  0  0
    6.3500   -8.7106    0.0000 C   0  0  0  0  0  0  0  0  0  0  0  0
    5.6355   -9.1231    0.0000 C   0  0  0  0  0  0  0  0  0  0  0  0
    4.9210   -8.7106    0.0000 C   0  0  0  0  0  0  0  0  0  0  0  0
    4.2065   -9.1231    0.0000 C   0  0  0  0  0  0  0  0  0  0  0  0
    3.4529   -8.7876    0.0000 O   0  0  0  0  0  0  0  0  0  0  0  0
    2.9008   -9.4007    0.0000 C   0  0  0  0  0  0  0  0  0  0  0  0
    3.3133  -10.1151    0.0000 C   0  0  0  0  0  0  0  0  0  0  0  0
    4.1203   -9.9436    0.0000 C   0  0  0  0  0  0  0  0  0  0  0  0
   10.6408   -7.0676    0.0000 C   0  0  0  0  0  0  0  0  0  0  0  0
   11.3512   -7.4870    0.0000 O   0  0  0  0  0  0  0  0  0  0  0  0
   10.6488   -6.2426    0.0000 O   0  0  0  0  0  0  0  0  0  0  0  0
  1  2  1  0  0  0  0
  2  3  2  0  0  0  0
  1  4  3  0  0  0  0
  4  5  1  0  0  0  0
  5  6  3  0  0  0  0
  6  7  1  0  0  0  0
  7  8  2  0  0  0  0
  8  9  1  0  0  0  0
  9 10  1  0  0  0  0
 10 11  1  0  0  0  0
 11 12  2  0  0  0  0
 12 13  1  0  0  0  0
 13  9  2  0  0  0  0
  3 14  1  0  0  0  0
 14 15  1  0  0  0  0
 14 16  2  0  0  0  0
M  END
>  <cdx:fragmentId>
3

$$$$
