210830.cdx
  Mrv1902 05222410202D          

 10 11  0  0  0  0            999 V2000
   16.1381  -14.3261    0.0000 O   0  0  0  0  0  0  0  0  0  0  0  0
   16.6230  -13.6587    0.0000 N   0  0  0  0  0  0  0  0  0  0  0  0
   16.1381  -12.9912    0.0000 C   0  0  0  0  0  0  0  0  0  0  0  0
   15.3535  -13.2462    0.0000 C   0  0  0  0  0  0  0  0  0  0  0  0
   14.6390  -12.8337    0.0000 C   0  0  0  0  0  0  0  0  0  0  0  0
   13.9245  -13.2462    0.0000 C   0  0  0  0  0  0  0  0  0  0  0  0
   13.9245  -14.0712    0.0000 C   0  0  0  0  0  0  0  0  0  0  0  0
   14.6390  -14.4837    0.0000 C   0  0  0  0  0  0  0  0  0  0  0  0
   15.3535  -14.0712    0.0000 C   0  0  0  0  0  0  0  0  0  0  0  0
   16.3930  -12.2066    0.0000 O   0  0  0  0  0  0  0  0  0  0  0  0
  1  2  1  0  0  0  0
  2  3  2  0  0  0  0
  3  4  1  0  0  0  0
  4  5  1  0  0  0  0
  5  6  2  0  0  0  0
  6  7  1  0  0  0  0
  7  8  2  0  0  0  0
  8  9  1  0  0  0  0
  1  9  1  0  0  0  0
  4  9  2  0  0  0  0
  3 10  1  0  0  0  0
M  END
>  <cdx:groupId>
2638

>  <cdx:fragmentId>
2610

$$$$
