2109.cdx
  Mrv1902 05222410242D          

 24 25  0  0  0  0            999 V2000
   10.2124   -6.9039    0.0000 C   0  0  0  0  0  0  0  0  0  0  0  0
   10.3968   -6.0997    0.0000 C   0  0  0  0  0  0  0  0  0  0  0  0
    9.7926   -5.5380    0.0000 C   0  0  0  0  0  0  0  0  0  0  0  0
    9.9770   -4.7338    0.0000 C   0  0  0  0  0  0  0  0  0  0  0  0
   10.7656   -4.4915    0.0000 C   0  0  0  0  0  0  0  0  0  0  0  0
   11.3698   -5.0533    0.0000 C   0  0  0  0  0  0  0  0  0  0  0  0
   11.1854   -5.8574    0.0000 C   0  0  0  0  0  0  0  0  0  0  0  0
   10.8165   -7.4656    0.0000 O   0  0  0  0  0  0  0  0  0  0  0  0
    9.4238   -7.1462    0.0000 O   0  0  0  0  0  0  0  0  0  0  0  0
   10.9500   -3.6874    0.0000 C   0  0  0  0  0  0  0  0  0  0  0  0
    4.1389  -11.0127    0.0000 C   0  0  0  0  0  0  0  0  0  0  0  0
    4.3233  -10.2086    0.0000 C   0  0  0  0  0  0  0  0  0  0  0  0
    5.1119   -9.9662    0.0000 C   0  0  0  0  0  0  0  0  0  0  0  0
    5.9005   -9.7239    0.0000 C   0  0  0  0  0  0  0  0  0  0  0  0
    6.6891   -9.4815    0.0000 C   0  0  0  0  0  0  0  0  0  0  0  0
    7.4777   -9.2392    0.0000 C   0  0  0  0  0  0  0  0  0  0  0  0
    8.2663   -8.9968    0.0000 C   0  0  0  0  0  0  0  0  0  0  0  0
    8.4507   -8.1927    0.0000 C   0  0  0  0  0  0  0  0  0  0  0  0
    9.2393   -7.9503    0.0000 C   0  0  0  0  0  0  0  0  0  0  0  0
    2.6907  -10.7595    0.0000 O   0  0  0  0  0  0  0  0  0  0  0  0
    3.3503  -11.2550    0.0000 C   0  0  0  0  0  0  0  0  0  0  0  0
    3.0828  -12.0355    0.0000 C   0  0  0  0  0  0  0  0  0  0  0  0
    2.2579  -12.0223    0.0000 C   0  0  0  0  0  0  0  0  0  0  0  0
    2.0156  -11.2337    0.0000 C   0  0  0  0  0  0  0  0  0  0  0  0
  1  2  1  0  0  0  0
  2  3  1  0  0  0  0
  3  4  2  0  0  0  0
  4  5  1  0  0  0  0
  5  6  2  0  0  0  0
  6  7  1  0  0  0  0
  2  7  2  0  0  0  0
  1  8  2  0  0  0  0
  1  9  1  0  0  0  0
  5 10  1  0  0  0  0
 11 12  2  0  0  0  0
 12 13  1  0  0  0  0
 13 14  3  0  0  0  0
 14 15  1  0  0  0  0
 15 16  3  0  0  0  0
 16 17  1  0  0  0  0
 17 18  2  0  0  0  0
 18 19  1  0  0  0  0
 20 21  1  0  0  0  0
 21 22  2  0  0  0  0
 22 23  1  0  0  0  0
 23 24  2  0  0  0  0
 20 24  1  0  0  0  0
 11 21  1  0  0  0  0
  9 19  1  0  0  0  0
M  END
>  <cdx:fragmentId>
25

$$$$
