2110.cdx
  Mrv1902 05222410212D          

 22 23  0  0  0  0            999 V2000
    7.5034   -5.4656    0.0000 C   0  0  0  0  0  0  0  0  0  0  0  0
    8.2178   -5.0531    0.0000 C   0  0  0  0  0  0  0  0  0  0  0  0
    8.9323   -5.4656    0.0000 C   0  0  0  0  0  0  0  0  0  0  0  0
    6.7889   -5.8781    0.0000 C   0  0  0  0  0  0  0  0  0  0  0  0
    6.0744   -6.2906    0.0000 C   0  0  0  0  0  0  0  0  0  0  0  0
    5.3600   -6.7031    0.0000 C   0  0  0  0  0  0  0  0  0  0  0  0
    4.6455   -7.1156    0.0000 C   0  0  0  0  0  0  0  0  0  0  0  0
    3.9310   -6.7031    0.0000 C   0  0  0  0  0  0  0  0  0  0  0  0
    3.2165   -7.1156    0.0000 C   0  0  0  0  0  0  0  0  0  0  0  0
    2.4629   -6.7801    0.0000 O   0  0  0  0  0  0  0  0  0  0  0  0
    1.9108   -7.3932    0.0000 C   0  0  0  0  0  0  0  0  0  0  0  0
    2.3233   -8.1076    0.0000 C   0  0  0  0  0  0  0  0  0  0  0  0
    3.1303   -7.9361    0.0000 C   0  0  0  0  0  0  0  0  0  0  0  0
   11.5862   -3.8216    0.0000 C   0  0  0  0  0  0  0  0  0  0  0  0
   11.7501   -3.0131    0.0000 C   0  0  0  0  0  0  0  0  0  0  0  0
   11.1318   -2.4668    0.0000 C   0  0  0  0  0  0  0  0  0  0  0  0
   10.3497   -2.7292    0.0000 C   0  0  0  0  0  0  0  0  0  0  0  0
   10.1857   -3.5377    0.0000 C   0  0  0  0  0  0  0  0  0  0  0  0
   10.8040   -4.0839    0.0000 C   0  0  0  0  0  0  0  0  0  0  0  0
   10.6401   -4.8925    0.0000 C   0  0  0  0  0  0  0  0  0  0  0  0
   11.2584   -5.4387    0.0000 O   0  0  0  0  0  0  0  0  0  0  0  0
    9.8579   -5.1548    0.0000 O   0  0  0  0  0  0  0  0  0  0  0  0
  1  2  1  0  0  0  0
  2  3  2  0  0  0  0
  1  4  3  0  0  0  0
  4  5  1  0  0  0  0
  5  6  3  0  0  0  0
  6  7  1  0  0  0  0
  7  8  2  0  0  0  0
  8  9  1  0  0  0  0
  9 10  1  0  0  0  0
 10 11  1  0  0  0  0
 11 12  2  0  0  0  0
 12 13  1  0  0  0  0
 13  9  2  0  0  0  0
 14 15  2  0  0  0  0
 15 16  1  0  0  0  0
 16 17  2  0  0  0  0
 17 18  1  0  0  0  0
 18 19  2  0  0  0  0
 19 14  1  0  0  0  0
 19 20  1  0  0  0  0
 20 21  2  0  0  0  0
 20 22  1  0  0  0  0
  3 22  1  0  0  0  0
M  END
>  <cdx:fragmentId>
3

$$$$
