2111.cdx
  Mrv1902 05222410212D          

 15 15  0  0  0  0            999 V2000
    8.6584   -6.6619    0.0000 C   0  0  0  0  0  0  0  0  0  0  0  0
    9.3728   -6.2494    0.0000 C   0  0  0  0  0  0  0  0  0  0  0  0
   10.0873   -6.6619    0.0000 C   0  0  0  0  0  0  0  0  0  0  0  0
    7.9439   -7.0744    0.0000 C   0  0  0  0  0  0  0  0  0  0  0  0
    7.2294   -7.4869    0.0000 C   0  0  0  0  0  0  0  0  0  0  0  0
    6.5150   -7.8994    0.0000 C   0  0  0  0  0  0  0  0  0  0  0  0
    5.8005   -8.3119    0.0000 C   0  0  0  0  0  0  0  0  0  0  0  0
    5.0860   -7.8994    0.0000 C   0  0  0  0  0  0  0  0  0  0  0  0
    4.3715   -8.3119    0.0000 C   0  0  0  0  0  0  0  0  0  0  0  0
    3.6179   -7.9763    0.0000 O   0  0  0  0  0  0  0  0  0  0  0  0
    3.0658   -8.5894    0.0000 C   0  0  0  0  0  0  0  0  0  0  0  0
    3.4783   -9.3039    0.0000 C   0  0  0  0  0  0  0  0  0  0  0  0
    4.2853   -9.1324    0.0000 C   0  0  0  0  0  0  0  0  0  0  0  0
   10.8018   -6.2494    0.0000 C   0  0  0  0  0  0  0  0  0  0  0  0
   11.5163   -6.6619    0.0000 O   0  0  0  0  0  0  0  0  0  0  0  0
  1  2  1  0  0  0  0
  2  3  2  0  0  0  0
  1  4  3  0  0  0  0
  4  5  1  0  0  0  0
  5  6  3  0  0  0  0
  6  7  1  0  0  0  0
  7  8  2  0  0  0  0
  8  9  1  0  0  0  0
  9 10  1  0  0  0  0
 10 11  1  0  0  0  0
 11 12  2  0  0  0  0
 12 13  1  0  0  0  0
 13  9  2  0  0  0  0
  3 14  1  0  0  0  0
 14 15  1  0  0  0  0
M  END
>  <cdx:fragmentId>
3

$$$$
