14211227.cdx
  Mrv1902 05222410222D          

 40 43  0  0  0  0            999 V2000
   14.5267  -11.3514    0.0000 C   0  0  0  0  0  0  0  0  0  0  0  0
   13.8123  -10.9389    0.0000 C   0  0  0  0  0  0  0  0  0  0  0  0
   13.0978  -11.3514    0.0000 C   0  0  0  0  0  0  0  0  0  0  0  0
   14.5267  -12.1764    0.0000 O   0  0  0  0  0  0  0  0  0  0  0  0
   15.2412  -10.9389    0.0000 O   0  0  0  0  0  0  0  0  0  0  0  0
   12.3833  -10.9389    0.0000 C   0  0  0  0  0  0  0  0  0  0  0  0
   11.6689  -11.3514    0.0000 C   0  0  0  0  0  0  0  0  0  0  0  0
   10.9544  -10.9389    0.0000 C   0  0  0  0  0  0  0  0  0  0  0  0
   10.9544  -10.1139    0.0000 C   0  0  0  0  0  0  0  0  0  0  0  0
   11.6689   -9.7014    0.0000 C   0  0  0  0  0  0  0  0  0  0  0  0
   12.3833  -10.1139    0.0000 C   0  0  0  0  0  0  0  0  0  0  0  0
   10.2399   -9.7014    0.0000 O   0  0  0  0  0  0  0  0  0  0  0  0
   17.3846  -11.3514    0.0000 O   0  0  0  0  0  0  0  0  0  0  0  0
   16.6702  -10.9389    0.0000 C   0  0  2  0  0  0  0  0  0  0  0  0
   15.9557  -11.3514    0.0000 C   0  0  1  0  0  0  0  0  0  0  0  0
   15.9557  -12.1764    0.0000 C   0  0  2  0  0  0  0  0  0  0  0  0
   16.6702  -12.5889    0.0000 C   0  0  1  0  0  0  0  0  0  0  0  0
   17.3846  -12.1764    0.0000 C   0  0  1  0  0  0  0  0  0  0  0  0
   18.0991  -12.5889    0.0000 C   0  0  0  0  0  0  0  0  0  0  0  0
   18.8136  -12.1764    0.0000 O   0  0  0  0  0  0  0  0  0  0  0  0
   16.6702  -10.1139    0.0000 O   0  0  0  0  0  0  0  0  0  0  0  0
   15.9557   -9.7014    0.0000 C   0  0  0  0  0  0  0  0  0  0  0  0
   15.9557   -8.8764    0.0000 C   0  0  0  0  0  0  0  0  0  0  0  0
   15.2412   -8.4639    0.0000 C   0  0  0  0  0  0  0  0  0  0  0  0
   14.5267   -8.8764    0.0000 C   0  0  0  0  0  0  0  0  0  0  0  0
   14.5267   -9.7014    0.0000 C   0  0  0  0  0  0  0  0  0  0  0  0
   15.2412  -10.1139    0.0000 C   0  0  0  0  0  0  0  0  0  0  0  0
   15.2412   -7.6389    0.0000 C   0  0  0  0  0  0  0  0  0  0  0  0
   16.6702   -8.4639    0.0000 C   0  0  0  0  0  0  0  0  0  0  0  0
   17.3846   -8.8764    0.0000 C   0  0  0  0  0  0  0  0  0  0  0  0
   18.0991   -8.4639    0.0000 C   0  0  0  0  0  0  0  0  0  0  0  0
   18.0991   -7.6389    0.0000 C   0  0  0  0  0  0  0  0  0  0  0  0
   17.3846   -7.2264    0.0000 C   0  0  0  0  0  0  0  0  0  0  0  0
   16.6702   -7.6389    0.0000 O   0  0  0  0  0  0  0  0  0  0  0  0
   17.3846   -6.4014    0.0000 O   0  0  0  0  0  0  0  0  0  0  0  0
   18.8136   -8.8764    0.0000 O   0  0  0  0  0  0  0  0  0  0  0  0
   19.5280   -8.4639    0.0000 C   0  0  0  0  0  0  0  0  0  0  0  0
   13.8123  -10.1139    0.0000 O   0  0  0  0  0  0  0  0  0  0  0  0
   16.6702  -13.4139    0.0000 O   0  0  0  0  0  0  0  0  0  0  0  0
   15.2412  -12.5889    0.0000 O   0  0  0  0  0  0  0  0  0  0  0  0
  1  2  1  0  0  0  0
  2  3  2  0  0  0  0
  1  4  2  0  0  0  0
  1  5  1  0  0  0  0
  6  7  1  0  0  0  0
  7  8  2  0  0  0  0
  8  9  1  0  0  0  0
  9 10  2  0  0  0  0
 10 11  1  0  0  0  0
  6 11  2  0  0  0  0
  9 12  1  0  0  0  0
  3  6  1  0  0  0  0
 13 14  1  0  0  0  0
 14 15  1  0  0  0  0
 15 16  1  0  0  0  0
 16 17  1  0  0  0  0
 17 18  1  0  0  0  0
 13 18  1  0  0  0  0
 19 20  1  0  0  0  0
 18 19  1  6  0  0  0
 22 23  1  0  0  0  0
 23 24  2  0  0  0  0
 24 25  1  0  0  0  0
 25 26  2  0  0  0  0
 26 27  1  0  0  0  0
 22 27  2  0  0  0  0
 21 22  1  0  0  0  0
 24 28  1  0  0  0  0
 29 30  2  0  0  0  0
 30 31  1  0  0  0  0
 31 32  2  0  0  0  0
 32 33  1  0  0  0  0
 33 34  1  0  0  0  0
 29 34  1  0  0  0  0
 33 35  2  0  0  0  0
 36 37  1  0  0  0  0
 31 36  1  0  0  0  0
 23 29  1  0  0  0  0
 26 38  1  0  0  0  0
 14 21  1  6  0  0  0
 17 39  1  1  0  0  0
 16 40  1  6  0  0  0
 15  5  1  1  0  0  0
M  END
>  <cdx:groupId>
112534

>  <cdx:fragmentId>
112470

$$$$
