211225.cdx
  Mrv1902 05222410222D          

 40 43  0  0  0  0            999 V2000
    6.4790   -5.3022    0.0000 O   0  0  0  0  0  0  0  0  0  0  0  0
    7.9079   -4.4772    0.0000 O   0  0  0  0  0  0  0  0  0  0  0  0
    9.3369   -4.4772    0.0000 O   0  0  0  0  0  0  0  0  0  0  0  0
    9.3369   -5.3022    0.0000 C   0  0  0  0  0  0  0  0  0  0  0  0
   11.4803   -9.0147    0.0000 O   0  0  0  0  0  0  0  0  0  0  0  0
   12.1948   -7.7772    0.0000 C   0  0  0  0  0  0  0  0  0  0  0  0
   11.4803   -8.1897    0.0000 C   0  0  2  0  0  0  0  0  0  0  0  0
   10.7658   -7.7772    0.0000 C   0  0  0  0  0  0  0  0  0  0  0  0
    5.7645   -8.1897    0.0000 C   0  0  0  0  0  0  0  0  0  0  0  0
    6.4790   -7.7772    0.0000 O   0  0  0  0  0  0  0  0  0  0  0  0
    7.9079  -10.2522    0.0000 C   0  0  0  0  0  0  0  0  0  0  0  0
    9.3369  -10.2522    0.0000 O   0  0  0  0  0  0  0  0  0  0  0  0
    9.3369   -7.7772    0.0000 O   0  0  0  0  0  0  0  0  0  0  0  0
    8.6224   -8.1897    0.0000 C   0  0  0  0  0  0  0  0  0  0  0  0
    7.9079   -7.7772    0.0000 C   0  0  0  0  0  0  0  0  0  0  0  0
    7.1935   -8.1897    0.0000 C   0  0  0  0  0  0  0  0  0  0  0  0
    7.1935   -9.0147    0.0000 C   0  0  0  0  0  0  0  0  0  0  0  0
    7.9079   -9.4272    0.0000 C   0  0  0  0  0  0  0  0  0  0  0  0
    8.6224   -9.0147    0.0000 C   0  0  0  0  0  0  0  0  0  0  0  0
    9.3369   -9.4272    0.0000 C   0  0  0  0  0  0  0  0  0  0  0  0
   10.0514   -9.0147    0.0000 C   0  0  0  0  0  0  0  0  0  0  0  0
   10.0514   -8.1897    0.0000 C   0  0  0  0  0  0  0  0  0  0  0  0
    8.6224   -5.7147    0.0000 C   0  0  2  0  0  0  0  0  0  0  0  0
    7.9079   -5.3022    0.0000 C   0  0  2  0  0  0  0  0  0  0  0  0
    7.1935   -5.7147    0.0000 C   0  0  1  0  0  0  0  0  0  0  0  0
    7.1935   -6.5397    0.0000 C   0  0  2  0  0  0  0  0  0  0  0  0
    7.9079   -6.9522    0.0000 C   0  0  1  0  0  0  0  0  0  0  0  0
    8.6224   -6.5397    0.0000 O   0  0  0  0  0  0  0  0  0  0  0  0
    1.4777   -8.1897    0.0000 O   0  0  0  0  0  0  0  0  0  0  0  0
    2.9066   -6.5397    0.0000 C   0  0  0  0  0  0  0  0  0  0  0  0
    2.1922   -6.9522    0.0000 C   0  0  0  0  0  0  0  0  0  0  0  0
    2.1922   -7.7772    0.0000 C   0  0  0  0  0  0  0  0  0  0  0  0
    2.9066   -8.1897    0.0000 C   0  0  0  0  0  0  0  0  0  0  0  0
    3.6211   -7.7772    0.0000 C   0  0  0  0  0  0  0  0  0  0  0  0
    3.6211   -6.9522    0.0000 C   0  0  0  0  0  0  0  0  0  0  0  0
    6.4790   -6.9522    0.0000 O   0  0  0  0  0  0  0  0  0  0  0  0
    5.7645   -5.7147    0.0000 O   0  0  0  0  0  0  0  0  0  0  0  0
    4.3356   -6.5397    0.0000 C   0  0  0  0  0  0  0  0  0  0  0  0
    5.0501   -6.9522    0.0000 C   0  0  0  0  0  0  0  0  0  0  0  0
    5.7645   -6.5397    0.0000 C   0  0  0  0  0  0  0  0  0  0  0  0
 26 36  1  6  0  0  0
 25  1  1  1  0  0  0
 24  2  1  6  0  0  0
 23  4  1  1  0  0  0
  4  3  1  0  0  0  0
 27 15  1  1  0  0  0
 22  8  1  0  0  0  0
  7  5  1  1  0  0  0
  7  6  1  0  0  0  0
  8  7  1  0  0  0  0
 16 10  1  0  0  0  0
 10  9  1  0  0  0  0
 18 11  1  0  0  0  0
 20 12  2  0  0  0  0
 22 13  1  0  0  0  0
 14 13  1  0  0  0  0
 19 14  2  0  0  0  0
 15 14  1  0  0  0  0
 16 15  2  0  0  0  0
 17 16  1  0  0  0  0
 18 17  2  0  0  0  0
 19 18  1  0  0  0  0
 20 19  1  0  0  0  0
 21 20  1  0  0  0  0
 22 21  2  0  0  0  0
 28 23  1  0  0  0  0
 24 23  1  0  0  0  0
 25 24  1  0  0  0  0
 26 25  1  0  0  0  0
 27 26  1  0  0  0  0
 28 27  1  0  0  0  0
 38 35  1  0  0  0  0
 32 29  1  0  0  0  0
 35 30  2  0  0  0  0
 31 30  1  0  0  0  0
 32 31  2  0  0  0  0
 33 32  1  0  0  0  0
 34 33  2  0  0  0  0
 35 34  1  0  0  0  0
 40 36  1  0  0  0  0
 40 37  2  0  0  0  0
 39 38  2  0  0  0  0
 40 39  1  0  0  0  0
M  END
>  <cdx:fragmentId>
104214

$$$$
