211399.cdx
  Mrv1902 05222410252D          

 40 44  0  0  0  0            999 V2000
    4.6384   -7.1521    0.0000 O   0  0  0  0  0  0  0  0  0  0  0  0
    5.5853   -9.0154    0.0000 C   0  0  0  0  0  0  0  0  0  0  0  0
    4.9195   -8.5282    0.0000 O   0  0  0  0  0  0  0  0  0  0  0  0
    6.4994   -8.1981    0.0000 C   0  0  0  0  0  0  0  0  0  0  0  0
    5.6744   -8.1953    0.0000 C   0  0  1  0  0  0  0  0  0  0  0  0
    5.4222   -7.4097    0.0000 C   0  0  2  0  0  0  0  0  0  0  0  0
    6.0913   -6.9272    0.0000 C   0  0  1  0  0  0  0  0  0  0  0  0
    6.7570   -7.4144    0.0000 O   0  0  0  0  0  0  0  0  0  0  0  0
    6.0950   -6.0747    0.0000 O   0  0  0  0  0  0  0  0  0  0  0  0
    4.6143   -6.7977    0.0000 O   0  0  0  0  0  0  0  0  0  0  0  0
    3.1883   -5.9677    0.0000 O   0  0  0  0  0  0  0  0  0  0  0  0
    2.4781   -4.7277    0.0000 O   0  0  0  0  0  0  0  0  0  0  0  0
    3.1940   -4.3177    0.0000 C   0  0  0  0  0  0  0  0  0  0  0  0
    3.9070   -4.7327    0.0000 C   0  0  2  0  0  0  0  0  0  0  0  0
    3.9042   -5.5577    0.0000 C   0  0  2  0  0  0  0  0  0  0  0  0
    4.6172   -5.9727    0.0000 C   0  0  1  0  0  0  0  0  0  0  0  0
    5.3331   -5.5627    0.0000 C   0  0  2  0  0  0  0  0  0  0  0  0
    5.3360   -4.7377    0.0000 C   0  0  1  0  0  0  0  0  0  0  0  0
    4.6229   -4.3227    0.0000 O   0  0  0  0  0  0  0  0  0  0  0  0
    6.0519   -4.3277    0.0000 O   0  0  0  0  0  0  0  0  0  0  0  0
    7.4722   -6.8076    0.0000 O   0  0  0  0  0  0  0  0  0  0  0  0
   12.4864   -3.1126    0.0000 O   0  0  0  0  0  0  0  0  0  0  0  0
   10.3416   -3.5176    0.0000 C   0  0  0  0  0  0  0  0  0  0  0  0
   11.0575   -3.1076    0.0000 C   0  0  0  0  0  0  0  0  0  0  0  0
   11.7705   -3.5226    0.0000 C   0  0  0  0  0  0  0  0  0  0  0  0
   11.7676   -4.3476    0.0000 C   0  0  0  0  0  0  0  0  0  0  0  0
   11.0517   -4.7576    0.0000 C   0  0  0  0  0  0  0  0  0  0  0  0
   10.3387   -4.3426    0.0000 C   0  0  0  0  0  0  0  0  0  0  0  0
    8.9011   -6.8126    0.0000 O   0  0  0  0  0  0  0  0  0  0  0  0
    8.9097   -4.3376    0.0000 O   0  0  0  0  0  0  0  0  0  0  0  0
    8.1938   -4.7476    0.0000 C   0  0  0  0  0  0  0  0  0  0  0  0
    7.4808   -4.3327    0.0000 C   0  0  0  0  0  0  0  0  0  0  0  0
    6.7649   -4.7427    0.0000 C   0  0  0  0  0  0  0  0  0  0  0  0
    6.7620   -5.5677    0.0000 C   0  0  0  0  0  0  0  0  0  0  0  0
    7.4751   -5.9826    0.0000 C   0  0  0  0  0  0  0  0  0  0  0  0
    8.1910   -5.5726    0.0000 C   0  0  0  0  0  0  0  0  0  0  0  0
    8.9040   -5.9876    0.0000 C   0  0  0  0  0  0  0  0  0  0  0  0
    9.6199   -5.5776    0.0000 C   0  0  0  0  0  0  0  0  0  0  0  0
    9.6228   -4.7526    0.0000 C   0  0  0  0  0  0  0  0  0  0  0  0
    6.2997   -9.4279    0.0000 O   0  0  0  0  0  0  0  0  0  0  0  0
 33 20  1  0  0  0  0
 18 20  1  1  0  0  0
 17  9  1  6  0  0  0
  7  9  1  6  0  0  0
  6  1  1  1  0  0  0
  5  2  1  0  0  0  0
  5  3  1  1  0  0  0
  8  4  1  0  0  0  0
  5  4  1  0  0  0  0
  6  5  1  0  0  0  0
  7  6  1  0  0  0  0
  8  7  1  0  0  0  0
 16 10  1  1  0  0  0
 15 11  1  6  0  0  0
 14 13  1  1  0  0  0
 13 12  1  0  0  0  0
 19 14  1  0  0  0  0
 15 14  1  0  0  0  0
 16 15  1  0  0  0  0
 17 16  1  0  0  0  0
 18 17  1  0  0  0  0
 19 18  1  0  0  0  0
 35 21  1  0  0  0  0
 39 28  1  0  0  0  0
 25 22  1  0  0  0  0
 28 23  2  0  0  0  0
 24 23  1  0  0  0  0
 25 24  2  0  0  0  0
 26 25  1  0  0  0  0
 27 26  2  0  0  0  0
 28 27  1  0  0  0  0
 37 29  2  0  0  0  0
 39 30  1  0  0  0  0
 31 30  1  0  0  0  0
 36 31  2  0  0  0  0
 32 31  1  0  0  0  0
 33 32  2  0  0  0  0
 34 33  1  0  0  0  0
 35 34  2  0  0  0  0
 36 35  1  0  0  0  0
 37 36  1  0  0  0  0
 38 37  1  0  0  0  0
 39 38  2  0  0  0  0
  2 40  1  0  0  0  0
M  END
>  <cdx:fragmentId>
67

$$$$
