2113.cdx
  Mrv1902 05222410212D          

 10 10  0  0  0  0            999 V2000
    7.8832   -7.9297    0.0000 C   0  0  0  0  0  0  0  0  0  0  0  0
    7.8647   -7.1049    0.0000 C   0  0  0  0  0  0  0  0  0  0  0  0
    7.1412   -6.7085    0.0000 C   0  0  0  0  0  0  0  0  0  0  0  0
    6.4361   -7.1368    0.0000 C   0  0  0  0  0  0  0  0  0  0  0  0
    6.4546   -7.9616    0.0000 C   0  0  0  0  0  0  0  0  0  0  0  0
    7.1781   -8.3580    0.0000 C   0  0  0  0  0  0  0  0  0  0  0  0
    8.5698   -6.6765    0.0000 C   0  0  0  0  0  0  0  0  0  0  0  0
    7.1227   -5.8837    0.0000 C   0  0  0  0  0  0  0  0  0  0  0  0
    7.8278   -5.4553    0.0000 C   0  0  0  0  0  0  0  0  0  0  0  0
    6.3992   -5.4873    0.0000 O   0  0  0  0  0  0  0  0  0  0  0  0
  1  2  2  0  0  0  0
  2  3  1  0  0  0  0
  3  4  2  0  0  0  0
  4  5  1  0  0  0  0
  5  6  2  0  0  0  0
  6  1  1  0  0  0  0
  2  7  1  0  0  0  0
  3  8  1  0  0  0  0
  8  9  1  0  0  0  0
  8 10  2  0  0  0  0
M  END
>  <cdx:fragmentId>
5

$$$$
