2114.cdx
  Mrv1902 05222410222D          

 26 27  0  0  0  0            999 V2000
    3.4815   -7.3012    0.0000 C   0  0  0  0  0  0  0  0  0  0  0  0
    4.1960   -6.8888    0.0000 C   0  0  0  0  0  0  0  0  0  0  0  0
    4.9104   -7.3012    0.0000 C   0  0  0  0  0  0  0  0  0  0  0  0
    5.6249   -6.8888    0.0000 C   0  0  0  0  0  0  0  0  0  0  0  0
    6.3394   -7.3012    0.0000 C   0  0  0  0  0  0  0  0  0  0  0  0
    7.0539   -6.8888    0.0000 C   0  0  0  0  0  0  0  0  0  0  0  0
    7.7683   -7.3012    0.0000 C   0  0  0  0  0  0  0  0  0  0  0  0
    8.4828   -6.8888    0.0000 C   0  0  0  0  0  0  0  0  0  0  0  0
    9.1973   -7.3012    0.0000 C   0  0  0  0  0  0  0  0  0  0  0  0
    5.6249   -6.0638    0.0000 O   0  0  0  0  0  0  0  0  0  0  0  0
    7.0539   -6.0638    0.0000 O   0  0  0  0  0  0  0  0  0  0  0  0
    2.7670   -6.8888    0.0000 C   0  0  0  0  0  0  0  0  0  0  0  0
    2.0526   -7.3012    0.0000 C   0  0  0  0  0  0  0  0  0  0  0  0
    2.0526   -8.1263    0.0000 C   0  0  0  0  0  0  0  0  0  0  0  0
    2.7670   -8.5388    0.0000 C   0  0  0  0  0  0  0  0  0  0  0  0
    3.4815   -8.1263    0.0000 C   0  0  0  0  0  0  0  0  0  0  0  0
    1.3381   -8.5388    0.0000 O   0  0  0  0  0  0  0  0  0  0  0  0
    2.7670   -9.3637    0.0000 O   0  0  0  0  0  0  0  0  0  0  0  0
    9.1973   -8.1263    0.0000 C   0  0  0  0  0  0  0  0  0  0  0  0
    9.9117   -8.5388    0.0000 C   0  0  0  0  0  0  0  0  0  0  0  0
   10.6262   -8.1263    0.0000 C   0  0  0  0  0  0  0  0  0  0  0  0
   10.6262   -7.3012    0.0000 C   0  0  0  0  0  0  0  0  0  0  0  0
    9.9117   -6.8888    0.0000 C   0  0  0  0  0  0  0  0  0  0  0  0
   11.3407   -8.5388    0.0000 O   0  0  0  0  0  0  0  0  0  0  0  0
    9.9117   -9.3637    0.0000 O   0  0  0  0  0  0  0  0  0  0  0  0
   10.6262   -9.7763    0.0000 C   0  0  0  0  0  0  0  0  0  0  0  0
  1  2  1  0  0  0  0
  2  3  1  0  0  0  0
  3  4  1  0  0  0  0
  4  5  1  0  0  0  0
  5  6  1  0  0  0  0
  6  7  1  0  0  0  0
  7  8  2  0  0  0  0
  8  9  1  0  0  0  0
  4 10  2  0  0  0  0
  6 11  2  0  0  0  0
  1 12  2  0  0  0  0
 12 13  1  0  0  0  0
 13 14  2  0  0  0  0
 14 15  1  0  0  0  0
 15 16  2  0  0  0  0
 16  1  1  0  0  0  0
 14 17  1  0  0  0  0
 15 18  1  0  0  0  0
  9 19  2  0  0  0  0
 19 20  1  0  0  0  0
 20 21  2  0  0  0  0
 21 22  1  0  0  0  0
 22 23  2  0  0  0  0
 23  9  1  0  0  0  0
 21 24  1  0  0  0  0
 20 25  1  0  0  0  0
 25 26  1  0  0  0  0
M  END
>  <cdx:fragmentId>
3

$$$$
