211418.cdx
  Mrv1902 05222410212D          

 27 28  0  0  0  0            999 V2000
    6.4919   -8.6116    0.0000 C   0  0  2  0  0  0  0  0  0  0  0  0
    7.2056   -9.0254    0.0000 C   0  0  1  0  0  0  0  0  0  0  0  0
    7.9208   -8.6142    0.0000 C   0  0  0  0  0  0  0  0  0  0  0  0
    7.9224   -7.7892    0.0000 C   0  0  0  0  0  0  0  0  0  0  0  0
    7.2086   -7.3754    0.0000 C   0  0  0  0  0  0  0  0  0  0  0  0
    6.4934   -7.7866    0.0000 C   0  0  0  0  0  0  0  0  0  0  0  0
    6.7974   -6.6602    0.0000 C   0  0  0  0  0  0  0  0  0  0  0  0
    7.6224   -6.6617    0.0000 C   0  0  0  0  0  0  0  0  0  0  0  0
    8.6346   -9.0280    0.0000 C   0  0  0  0  0  0  0  0  0  0  0  0
    8.6376   -7.3780    0.0000 C   0  0  0  0  0  0  0  0  0  0  0  0
    8.6391   -6.5530    0.0000 C   0  0  0  0  0  0  0  0  0  0  0  0
    9.3543   -6.1419    0.0000 C   0  0  2  0  0  0  0  0  0  0  0  0
    9.3558   -5.3169    0.0000 C   0  0  0  0  0  0  0  0  0  0  0  0
   10.0680   -6.5557    0.0000 O   0  0  0  0  0  0  0  0  0  0  0  0
    7.2041   -9.8504    0.0000 O   0  0  0  0  0  0  0  0  0  0  0  0
    5.7767   -9.0228    0.0000 O   0  0  0  0  0  0  0  0  0  0  0  0
    3.6386   -6.1314    0.0000 O   0  0  0  0  0  0  0  0  0  0  0  0
    4.3523   -6.5452    0.0000 C   0  0  0  0  0  0  0  0  0  0  0  0
    2.9218   -7.3676    0.0000 O   0  0  0  0  0  0  0  0  0  0  0  0
    2.9188   -9.0176    0.0000 O   0  0  0  0  0  0  0  0  0  0  0  0
    4.3462   -9.8452    0.0000 O   0  0  0  0  0  0  0  0  0  0  0  0
    4.3508   -7.3702    0.0000 C   0  0  2  0  0  0  0  0  0  0  0  0
    3.6355   -7.7814    0.0000 C   0  0  2  0  0  0  0  0  0  0  0  0
    3.6340   -8.6064    0.0000 C   0  0  1  0  0  0  0  0  0  0  0  0
    4.3477   -9.0202    0.0000 C   0  0  2  0  0  0  0  0  0  0  0  0
    5.0630   -8.6090    0.0000 C   0  0  1  0  0  0  0  0  0  0  0  0
    5.0645   -7.7840    0.0000 O   0  0  0  0  0  0  0  0  0  0  0  0
 26 16  1  1  0  0  0
 22 18  1  1  0  0  0
 18 17  1  0  0  0  0
 23 19  1  6  0  0  0
 24 20  1  1  0  0  0
 25 21  1  6  0  0  0
 27 22  1  0  0  0  0
 23 22  1  0  0  0  0
 24 23  1  0  0  0  0
 25 24  1  0  0  0  0
 26 25  1  0  0  0  0
 27 26  1  0  0  0  0
  1  2  1  0  0  0  0
  2  3  1  0  0  0  0
  3  4  2  0  0  0  0
  4  5  1  0  0  0  0
  5  6  1  0  0  0  0
  1  6  1  0  0  0  0
  5  7  1  0  0  0  0
  5  8  1  0  0  0  0
  3  9  1  0  0  0  0
 10 11  2  0  0  0  0
 11 12  1  0  0  0  0
 12 13  1  0  0  0  0
 12 14  1  6  0  0  0
  4 10  1  0  0  0  0
  2 15  1  1  0  0  0
  1 16  1  1  0  0  0
M  END
>  <cdx:groupId>
67795

>  <cdx:fragmentId>
67740

$$$$
