2115.cdx
  Mrv1902 05222410222D          

 24 25  0  0  0  0            999 V2000
    3.9146   -8.3944    0.0000 C   0  0  0  0  0  0  0  0  0  0  0  0
    4.6291   -7.9819    0.0000 C   0  0  0  0  0  0  0  0  0  0  0  0
    5.3436   -8.3944    0.0000 C   0  0  0  0  0  0  0  0  0  0  0  0
    6.0580   -7.9819    0.0000 C   0  0  0  0  0  0  0  0  0  0  0  0
    6.7725   -8.3944    0.0000 C   0  0  0  0  0  0  0  0  0  0  0  0
    7.4870   -7.9819    0.0000 C   0  0  0  0  0  0  0  0  0  0  0  0
    8.2015   -8.3944    0.0000 C   0  0  0  0  0  0  0  0  0  0  0  0
    8.9159   -7.9819    0.0000 C   0  0  0  0  0  0  0  0  0  0  0  0
    9.6304   -8.3944    0.0000 C   0  0  0  0  0  0  0  0  0  0  0  0
    6.0580   -7.1569    0.0000 O   0  0  0  0  0  0  0  0  0  0  0  0
    7.4870   -7.1569    0.0000 O   0  0  0  0  0  0  0  0  0  0  0  0
    3.2002   -7.9819    0.0000 C   0  0  0  0  0  0  0  0  0  0  0  0
    2.4857   -8.3944    0.0000 C   0  0  0  0  0  0  0  0  0  0  0  0
    2.4857   -9.2194    0.0000 C   0  0  0  0  0  0  0  0  0  0  0  0
    3.2002   -9.6319    0.0000 C   0  0  0  0  0  0  0  0  0  0  0  0
    3.9146   -9.2194    0.0000 C   0  0  0  0  0  0  0  0  0  0  0  0
    1.7712   -9.6319    0.0000 O   0  0  0  0  0  0  0  0  0  0  0  0
    3.2002  -10.4569    0.0000 O   0  0  0  0  0  0  0  0  0  0  0  0
    9.6304   -9.2194    0.0000 C   0  0  0  0  0  0  0  0  0  0  0  0
   10.3449   -9.6319    0.0000 C   0  0  0  0  0  0  0  0  0  0  0  0
   11.0593   -9.2194    0.0000 C   0  0  0  0  0  0  0  0  0  0  0  0
   11.0593   -8.3944    0.0000 C   0  0  0  0  0  0  0  0  0  0  0  0
   10.3449   -7.9819    0.0000 C   0  0  0  0  0  0  0  0  0  0  0  0
   11.7738   -9.6319    0.0000 O   0  0  0  0  0  0  0  0  0  0  0  0
  1  2  1  0  0  0  0
  2  3  2  0  0  0  0
  3  4  1  0  0  0  0
  4  5  1  0  0  0  0
  5  6  1  0  0  0  0
  6  7  1  0  0  0  0
  7  8  2  0  0  0  0
  8  9  1  0  0  0  0
  4 10  2  0  0  0  0
  6 11  2  0  0  0  0
  1 12  2  0  0  0  0
 12 13  1  0  0  0  0
 13 14  2  0  0  0  0
 14 15  1  0  0  0  0
 15 16  2  0  0  0  0
 16  1  1  0  0  0  0
 14 17  1  0  0  0  0
 15 18  1  0  0  0  0
  9 19  2  0  0  0  0
 19 20  1  0  0  0  0
 20 21  2  0  0  0  0
 21 22  1  0  0  0  0
 22 23  2  0  0  0  0
 23  9  1  0  0  0  0
 21 24  1  0  0  0  0
M  END
>  <cdx:fragmentId>
3

$$$$
