10021151.cdx
  Mrv1902 05222410272D          

 29 34  0  0  0  0            999 V2000
    8.1425   -6.3140    0.0000 C   0  0  2  0  0  0  0  0  0  0  0  0
    7.4281   -5.9015    0.0000 O   0  0  0  0  0  0  0  0  0  0  0  0
    6.7136   -6.3140    0.0000 C   0  0  0  0  0  0  0  0  0  0  0  0
    5.9991   -5.9015    0.0000 C   0  0  0  0  0  0  0  0  0  0  0  0
    5.2846   -6.3140    0.0000 C   0  0  0  0  0  0  0  0  0  0  0  0
    4.5000   -6.0590    0.0000 O   0  0  0  0  0  0  0  0  0  0  0  0
    4.0151   -6.7265    0.0000 C   0  0  0  0  0  0  0  0  0  0  0  0
    4.5000   -7.3939    0.0000 O   0  0  0  0  0  0  0  0  0  0  0  0
    5.2846   -7.1390    0.0000 C   0  0  0  0  0  0  0  0  0  0  0  0
    5.9991   -7.5515    0.0000 C   0  0  0  0  0  0  0  0  0  0  0  0
    6.7136   -7.1390    0.0000 C   0  0  0  0  0  0  0  0  0  0  0  0
    7.4281   -7.5515    0.0000 C   0  0  2  0  0  0  0  0  0  0  0  0
    7.4270   -8.3765    0.0000 C   0  0  2  0  0  0  0  0  0  0  0  0
    8.1416   -8.7887    0.0000 C   0  0  1  0  0  0  0  0  0  0  0  0
    8.8562   -8.3765    0.0000 C   0  0  0  0  0  0  0  0  0  0  0  0
    8.8570   -7.5515    0.0000 C   0  0  2  0  0  0  0  0  0  0  0  0
    9.5715   -7.1390    0.0000 C   0  0  0  0  0  0  0  0  0  0  0  0
    9.5715   -6.3140    0.0000 C   0  0  0  0  0  0  0  0  0  0  0  0
    8.8570   -5.9015    0.0000 C   0  0  0  0  0  0  0  0  0  0  0  0
    8.8270   -5.0770    0.0000 O   0  0  0  0  0  0  0  0  0  0  0  0
    8.0201   -4.9054    0.0000 C   0  0  0  0  0  0  0  0  0  0  0  0
    7.6576   -5.6465    0.0000 O   0  0  0  0  0  0  0  0  0  0  0  0
    8.1425   -7.1390    0.0000 C   0  0  2  0  0  0  0  0  0  0  0  0
   10.2859   -7.5515    0.0000 O   0  0  0  0  0  0  0  0  0  0  0  0
    8.1416   -9.6137    0.0000 C   0  0  0  0  0  0  0  0  0  0  0  0
    6.7125   -8.7890    0.0000 C   0  0  0  0  0  0  0  0  0  0  0  0
    6.7136   -7.9640    0.0000 H   0  0  0  0  0  0  0  0  0  0  0  0
    9.5715   -7.9640    0.0000 H   0  0  0  0  0  0  0  0  0  0  0  0
    8.1425   -7.9640    0.0000 H   0  0  0  0  0  0  0  0  0  0  0  0
  1  2  1  1  0  0  0
  2  3  1  0  0  0  0
  3  4  2  0  0  0  0
  4  5  1  0  0  0  0
  5  6  1  0  0  0  0
  6  7  1  0  0  0  0
  7  8  1  0  0  0  0
  8  9  1  0  0  0  0
  9 10  1  0  0  0  0
 10 11  2  0  0  0  0
 11 12  1  0  0  0  0
 12 13  1  0  0  0  0
 13 14  1  0  0  0  0
 14 15  1  0  0  0  0
 15 16  1  0  0  0  0
 16 17  1  0  0  0  0
 17 18  1  0  0  0  0
 18 19  2  0  0  0  0
 19 20  1  0  0  0  0
 20 21  1  0  0  0  0
 21 22  1  0  0  0  0
  1 22  1  6  0  0  0
  1 23  1  0  0  0  0
 23 12  1  0  0  0  0
  1 19  1  0  0  0  0
  3 11  1  0  0  0  0
  5  9  2  0  0  0  0
 16 23  1  0  0  0  0
 17 24  2  0  0  0  0
 14 25  1  1  0  0  0
 13 26  1  6  0  0  0
 12 27  1  6  0  0  0
 16 28  1  6  0  0  0
 23 29  1  6  0  0  0
M  END
>  <cdx:groupId>
274

>  <cdx:fragmentId>
185

$$$$
