211956.cdx
  Mrv1902 05222410232D          

 42 46  0  0  0  0            999 V2000
    4.1469   -6.4725    0.0000 O   0  0  0  0  0  0  0  0  0  0  0  0
    5.5764   -5.6485    0.0000 O   0  0  0  0  0  0  0  0  0  0  0  0
    7.0054   -5.6495    0.0000 O   0  0  0  0  0  0  0  0  0  0  0  0
    7.0048   -6.4745    0.0000 C   0  0  0  0  0  0  0  0  0  0  0  0
    2.7096   -8.9622    0.0000 O   0  0  0  0  0  0  0  0  0  0  0  0
    2.7096  -10.6122    0.0000 O   0  0  0  0  0  0  0  0  0  0  0  0
    4.1385  -11.4372    0.0000 O   0  0  0  0  0  0  0  0  0  0  0  0
    5.5675  -10.6122    0.0000 C   0  0  0  0  0  0  0  0  0  0  0  0
    4.8530  -10.1997    0.0000 C   0  0  1  0  0  0  0  0  0  0  0  0
    4.1385  -10.6122    0.0000 C   0  0  1  0  0  0  0  0  0  0  0  0
    3.4241  -10.1997    0.0000 C   0  0  2  0  0  0  0  0  0  0  0  0
    3.4241   -9.3747    0.0000 C   0  0  2  0  0  0  0  0  0  0  0  0
    4.1385   -8.9622    0.0000 C   0  0  1  0  0  0  0  0  0  0  0  0
    4.8530   -9.3747    0.0000 O   0  0  0  0  0  0  0  0  0  0  0  0
    6.2901   -6.8865    0.0000 C   0  0  2  0  0  0  0  0  0  0  0  0
    5.5759   -6.4735    0.0000 C   0  0  2  0  0  0  0  0  0  0  0  0
    4.8611   -6.8855    0.0000 C   0  0  1  0  0  0  0  0  0  0  0  0
    4.8606   -7.7105    0.0000 C   0  0  2  0  0  0  0  0  0  0  0  0
    5.5748   -8.1235    0.0000 C   0  0  1  0  0  0  0  0  0  0  0  0
    6.2895   -7.7115    0.0000 O   0  0  0  0  0  0  0  0  0  0  0  0
    5.5742   -8.9485    0.0000 O   0  0  0  0  0  0  0  0  0  0  0  0
   12.0044   -9.3610    0.0000 O   0  0  0  0  0  0  0  0  0  0  0  0
   12.0044   -7.7110    0.0000 O   0  0  0  0  0  0  0  0  0  0  0  0
    9.8610   -8.1235    0.0000 C   0  0  0  0  0  0  0  0  0  0  0  0
   10.5755   -7.7110    0.0000 C   0  0  0  0  0  0  0  0  0  0  0  0
   11.2900   -8.1235    0.0000 C   0  0  0  0  0  0  0  0  0  0  0  0
   11.2900   -8.9485    0.0000 C   0  0  0  0  0  0  0  0  0  0  0  0
   10.5755   -9.3610    0.0000 C   0  0  0  0  0  0  0  0  0  0  0  0
    9.8610   -8.9485    0.0000 C   0  0  0  0  0  0  0  0  0  0  0  0
    7.0031  -11.4235    0.0000 O   0  0  0  0  0  0  0  0  0  0  0  0
    8.4321  -11.4235    0.0000 O   0  0  0  0  0  0  0  0  0  0  0  0
    8.4321   -8.9485    0.0000 O   0  0  0  0  0  0  0  0  0  0  0  0
    7.7176   -9.3610    0.0000 C   0  0  0  0  0  0  0  0  0  0  0  0
    7.0031   -8.9485    0.0000 C   0  0  0  0  0  0  0  0  0  0  0  0
    6.2887   -9.3610    0.0000 C   0  0  0  0  0  0  0  0  0  0  0  0
    6.2887  -10.1860    0.0000 C   0  0  0  0  0  0  0  0  0  0  0  0
    7.0031  -10.5985    0.0000 C   0  0  0  0  0  0  0  0  0  0  0  0
    7.7176  -10.1860    0.0000 C   0  0  0  0  0  0  0  0  0  0  0  0
    8.4321  -10.5985    0.0000 C   0  0  0  0  0  0  0  0  0  0  0  0
    9.1466  -10.1860    0.0000 C   0  0  0  0  0  0  0  0  0  0  0  0
    9.1466   -9.3610    0.0000 C   0  0  1  0  0  0  0  0  0  0  0  0
    4.1458   -8.1225    0.0000 O   0  0  0  0  0  0  0  0  0  0  0  0
 35 21  1  0  0  0  0
 19 21  1  1  0  0  0
 17  1  1  1  0  0  0
 16  2  1  6  0  0  0
 15  4  1  1  0  0  0
  4  3  1  0  0  0  0
 12  5  1  1  0  0  0
 11  6  1  1  0  0  0
 10  7  1  6  0  0  0
  9  8  1  1  0  0  0
 14  9  1  0  0  0  0
 10  9  1  0  0  0  0
 11 10  1  0  0  0  0
 12 11  1  0  0  0  0
 13 12  1  0  0  0  0
 14 13  1  0  0  0  0
 20 15  1  0  0  0  0
 16 15  1  0  0  0  0
 17 16  1  0  0  0  0
 18 17  1  0  0  0  0
 19 18  1  0  0  0  0
 20 19  1  0  0  0  0
 41 29  1  6  0  0  0
 27 22  1  0  0  0  0
 26 23  1  0  0  0  0
 29 24  2  0  0  0  0
 25 24  1  0  0  0  0
 26 25  2  0  0  0  0
 27 26  1  0  0  0  0
 28 27  2  0  0  0  0
 29 28  1  0  0  0  0
 37 30  1  0  0  0  0
 39 31  2  0  0  0  0
 41 32  1  0  0  0  0
 33 32  1  0  0  0  0
 38 33  2  0  0  0  0
 34 33  1  0  0  0  0
 35 34  2  0  0  0  0
 36 35  1  0  0  0  0
 37 36  2  0  0  0  0
 38 37  1  0  0  0  0
 39 38  1  0  0  0  0
 40 39  1  0  0  0  0
 41 40  1  0  0  0  0
 18 42  1  6  0  0  0
 13 42  1  6  0  0  0
M  END
>  <cdx:fragmentId>
61

$$$$
