211979.cdx
  Mrv1902 05222410252D          

 43 47  0  0  0  0            999 V2000
    4.5930   -7.5107    0.0000 O   0  0  0  0  0  0  0  0  0  0  0  0
    3.9021   -6.2816    0.0000 O   0  0  0  0  0  0  0  0  0  0  0  0
    3.8814   -7.1063    0.0000 C   0  0  2  0  0  0  0  0  0  0  0  0
    3.1568   -7.5008    0.0000 C   0  0  1  0  0  0  0  0  0  0  0  0
    2.4529   -7.0705    0.0000 C   0  0  1  0  0  0  0  0  0  0  0  0
    2.4736   -6.2458    0.0000 C   0  0  2  0  0  0  0  0  0  0  0  0
    3.1982   -5.8513    0.0000 C   0  0  2  0  0  0  0  0  0  0  0  0
    3.2188   -5.0266    0.0000 C   0  0  0  0  0  0  0  0  0  0  0  0
    1.7697   -5.8155    0.0000 O   0  0  0  0  0  0  0  0  0  0  0  0
    1.7283   -7.4650    0.0000 O   0  0  0  0  0  0  0  0  0  0  0  0
    3.1361   -8.3255    0.0000 O   0  0  0  0  0  0  0  0  0  0  0  0
   10.3022   -8.3302    0.0000 C   0  0  0  0  0  0  0  0  0  0  0  0
   10.2990   -7.5052    0.0000 C   0  0  0  0  0  0  0  0  0  0  0  0
   11.0119   -7.0899    0.0000 C   0  0  0  0  0  0  0  0  0  0  0  0
   11.7279   -7.4996    0.0000 C   0  0  0  0  0  0  0  0  0  0  0  0
   11.7311   -8.3246    0.0000 C   0  0  0  0  0  0  0  0  0  0  0  0
   11.0182   -8.7399    0.0000 C   0  0  0  0  0  0  0  0  0  0  0  0
   12.4408   -7.0844    0.0000 O   0  0  0  0  0  0  0  0  0  0  0  0
   12.4376   -6.2594    0.0000 C   0  0  0  0  0  0  0  0  0  0  0  0
   11.0087   -6.2649    0.0000 O   0  0  0  0  0  0  0  0  0  0  0  0
    4.5768   -5.8773    0.0000 O   0  0  0  0  0  0  0  0  0  0  0  0
    6.0025   -5.0467    0.0000 O   0  0  0  0  0  0  0  0  0  0  0  0
    7.4314   -5.0412    0.0000 O   0  0  0  0  0  0  0  0  0  0  0  0
    7.4347   -5.8662    0.0000 C   0  0  0  0  0  0  0  0  0  0  0  0
    6.7218   -6.2814    0.0000 C   0  0  2  0  0  0  0  0  0  0  0  0
    6.0057   -5.8717    0.0000 C   0  0  2  0  0  0  0  0  0  0  0  0
    5.2929   -6.2870    0.0000 C   0  0  1  0  0  0  0  0  0  0  0  0
    5.2961   -7.1120    0.0000 C   0  0  2  0  0  0  0  0  0  0  0  0
    6.0122   -7.5217    0.0000 C   0  0  1  0  0  0  0  0  0  0  0  0
    6.7250   -7.1064    0.0000 O   0  0  0  0  0  0  0  0  0  0  0  0
    6.0154   -8.3467    0.0000 O   0  0  0  0  0  0  0  0  0  0  0  0
    7.4539  -10.8162    0.0000 O   0  0  0  0  0  0  0  0  0  0  0  0
    8.8828  -10.8107    0.0000 O   0  0  0  0  0  0  0  0  0  0  0  0
    8.8732   -8.3357    0.0000 O   0  0  0  0  0  0  0  0  0  0  0  0
    8.1604   -8.7509    0.0000 C   0  0  0  0  0  0  0  0  0  0  0  0
    7.4443   -8.3412    0.0000 C   0  0  0  0  0  0  0  0  0  0  0  0
    6.7314   -8.7565    0.0000 C   0  0  0  0  0  0  0  0  0  0  0  0
    6.7346   -9.5814    0.0000 C   0  0  0  0  0  0  0  0  0  0  0  0
    7.4507   -9.9912    0.0000 C   0  0  0  0  0  0  0  0  0  0  0  0
    8.1636   -9.5759    0.0000 C   0  0  0  0  0  0  0  0  0  0  0  0
    8.8796   -9.9857    0.0000 C   0  0  0  0  0  0  0  0  0  0  0  0
    9.5925   -9.5704    0.0000 C   0  0  0  0  0  0  0  0  0  0  0  0
    9.5893   -8.7454    0.0000 C   0  0  0  0  0  0  0  0  0  0  0  0
 37 31  1  0  0  0  0
 29 31  1  1  0  0  0
 27 21  1  1  0  0  0
 26 22  1  6  0  0  0
 25 24  1  1  0  0  0
 24 23  1  0  0  0  0
 28  1  1  6  0  0  0
 30 25  1  0  0  0  0
 26 25  1  0  0  0  0
 27 26  1  0  0  0  0
 28 27  1  0  0  0  0
 29 28  1  0  0  0  0
 30 29  1  0  0  0  0
 39 32  1  0  0  0  0
 43 12  1  0  0  0  0
 41 33  2  0  0  0  0
 43 34  1  0  0  0  0
 35 34  1  0  0  0  0
 40 35  2  0  0  0  0
 36 35  1  0  0  0  0
 37 36  2  0  0  0  0
 38 37  1  0  0  0  0
 39 38  2  0  0  0  0
 40 39  1  0  0  0  0
 41 40  1  0  0  0  0
 42 41  1  0  0  0  0
 43 42  2  0  0  0  0
  2  3  1  0  0  0  0
  3  4  1  0  0  0  0
  4  5  1  0  0  0  0
  5  6  1  0  0  0  0
  6  7  1  0  0  0  0
  2  7  1  0  0  0  0
  7  8  1  6  0  0  0
  6  9  1  1  0  0  0
  5 10  1  6  0  0  0
  4 11  1  6  0  0  0
  3  1  1  1  0  0  0
 12 13  1  0  0  0  0
 13 14  2  0  0  0  0
 14 15  1  0  0  0  0
 15 16  2  0  0  0  0
 16 17  1  0  0  0  0
 12 17  2  0  0  0  0
 18 19  1  0  0  0  0
 15 18  1  0  0  0  0
 14 20  1  0  0  0  0
M  END
>  <cdx:fragmentId>
63

$$$$
