89211994.cdx
  Mrv1902 05222410242D          

 11 11  0  0  0  0            999 V2000
    6.5521  -14.2124    0.0000 C   0  0  0  0  0  0  0  0  0  0  0  0
    7.2666  -13.7999    0.0000 C   0  0  0  0  0  0  0  0  0  0  0  0
    7.9811  -14.2124    0.0000 C   0  0  0  0  0  0  0  0  0  0  0  0
    7.9811  -15.0374    0.0000 C   0  0  0  0  0  0  0  0  0  0  0  0
    7.2666  -15.4499    0.0000 C   0  0  0  0  0  0  0  0  0  0  0  0
    6.5521  -15.0374    0.0000 C   0  0  0  0  0  0  0  0  0  0  0  0
    5.8377  -13.7999    0.0000 O   0  0  0  0  0  0  0  0  0  0  0  0
    7.2666  -16.2749    0.0000 C   0  0  0  0  0  0  0  0  0  0  0  0
    8.6956  -15.4499    0.0000 C   0  0  0  0  0  0  0  0  0  0  0  0
    8.3936  -13.4980    0.0000 C   0  0  0  0  0  0  0  0  0  0  0  0
    8.8061  -14.2124    0.0000 C   0  0  0  0  0  0  0  0  0  0  0  0
  1  2  1  0  0  0  0
  2  3  1  0  0  0  0
  3  4  1  0  0  0  0
  4  5  1  0  0  0  0
  5  6  1  0  0  0  0
  1  6  1  0  0  0  0
  1  7  2  0  0  0  0
  5  8  1  0  0  0  0
  4  9  1  0  0  0  0
  3 10  1  0  0  0  0
  3 11  1  0  0  0  0
M  END
>  <cdx:groupId>
210911

>  <cdx:fragmentId>
210881

$$$$
