211972.cdx
  Mrv1902 05222410222D          

 42 46  0  0  0  0            999 V2000
    4.4830   -7.2112    0.0000 O   0  0  0  0  0  0  0  0  0  0  0  0
    3.7302   -5.9226    0.0000 O   0  0  0  0  0  0  0  0  0  0  0  0
    3.7270   -6.7476    0.0000 C   0  0  2  0  0  0  0  0  0  0  0  0
    3.0109   -7.1573    0.0000 C   0  0  1  0  0  0  0  0  0  0  0  0
    2.2981   -6.7420    0.0000 C   0  0  1  0  0  0  0  0  0  0  0  0
    2.3013   -5.9170    0.0000 C   0  0  2  0  0  0  0  0  0  0  0  0
    3.0174   -5.5073    0.0000 C   0  0  2  0  0  0  0  0  0  0  0  0
    3.0206   -4.6824    0.0000 C   0  0  0  0  0  0  0  0  0  0  0  0
    1.5885   -5.5018    0.0000 O   0  0  0  0  0  0  0  0  0  0  0  0
    1.5820   -7.1517    0.0000 O   0  0  0  0  0  0  0  0  0  0  0  0
    3.0077   -7.9823    0.0000 O   0  0  0  0  0  0  0  0  0  0  0  0
    4.4274   -5.5756    0.0000 O   0  0  0  0  0  0  0  0  0  0  0  0
    5.8588   -4.7548    0.0000 O   0  0  0  0  0  0  0  0  0  0  0  0
    7.2877   -4.7589    0.0000 O   0  0  0  0  0  0  0  0  0  0  0  0
    7.2853   -5.5839    0.0000 C   0  0  0  0  0  0  0  0  0  0  0  0
    6.5697   -5.9943    0.0000 C   0  0  2  0  0  0  0  0  0  0  0  0
    5.8564   -5.5798    0.0000 C   0  0  2  0  0  0  0  0  0  0  0  0
    5.1407   -5.9902    0.0000 C   0  0  1  0  0  0  0  0  0  0  0  0
    5.1383   -6.8152    0.0000 C   0  0  2  0  0  0  0  0  0  0  0  0
    5.8516   -7.2298    0.0000 C   0  0  1  0  0  0  0  0  0  0  0  0
    6.5673   -6.8193    0.0000 O   0  0  0  0  0  0  0  0  0  0  0  0
    5.8492   -8.0547    0.0000 O   0  0  0  0  0  0  0  0  0  0  0  0
   10.1360   -9.7047    0.0000 O   0  0  0  0  0  0  0  0  0  0  0  0
    7.2781  -10.5297    0.0000 O   0  0  0  0  0  0  0  0  0  0  0  0
   12.2794   -6.8172    0.0000 O   0  0  0  0  0  0  0  0  0  0  0  0
   10.1360   -7.2297    0.0000 C   0  0  0  0  0  0  0  0  0  0  0  0
   10.8505   -6.8172    0.0000 C   0  0  0  0  0  0  0  0  0  0  0  0
   11.5650   -7.2297    0.0000 C   0  0  0  0  0  0  0  0  0  0  0  0
   11.5650   -8.0547    0.0000 C   0  0  0  0  0  0  0  0  0  0  0  0
   10.8505   -8.4672    0.0000 C   0  0  0  0  0  0  0  0  0  0  0  0
   10.1360   -8.0547    0.0000 C   0  0  0  0  0  0  0  0  0  0  0  0
    8.7071  -10.5297    0.0000 O   0  0  0  0  0  0  0  0  0  0  0  0
    8.7071   -8.0547    0.0000 O   0  0  0  0  0  0  0  0  0  0  0  0
    7.9926   -8.4672    0.0000 C   0  0  0  0  0  0  0  0  0  0  0  0
    7.2781   -8.0547    0.0000 C   0  0  0  0  0  0  0  0  0  0  0  0
    6.5637   -8.4672    0.0000 C   0  0  0  0  0  0  0  0  0  0  0  0
    6.5637   -9.2922    0.0000 C   0  0  0  0  0  0  0  0  0  0  0  0
    7.2781   -9.7047    0.0000 C   0  0  0  0  0  0  0  0  0  0  0  0
    7.9926   -9.2922    0.0000 C   0  0  0  0  0  0  0  0  0  0  0  0
    8.7071   -9.7047    0.0000 C   0  0  0  0  0  0  0  0  0  0  0  0
    9.4216   -9.2922    0.0000 C   0  0  0  0  0  0  0  0  0  0  0  0
    9.4216   -8.4672    0.0000 C   0  0  0  0  0  0  0  0  0  0  0  0
 36 22  1  0  0  0  0
 20 22  1  1  0  0  0
 18 12  1  1  0  0  0
 17 13  1  6  0  0  0
 16 15  1  1  0  0  0
 15 14  1  0  0  0  0
 19  1  1  6  0  0  0
 21 16  1  0  0  0  0
 17 16  1  0  0  0  0
 18 17  1  0  0  0  0
 19 18  1  0  0  0  0
 20 19  1  0  0  0  0
 21 20  1  0  0  0  0
 41 23  1  0  0  0  0
 38 24  1  0  0  0  0
 42 31  1  0  0  0  0
 28 25  1  0  0  0  0
 31 26  2  0  0  0  0
 27 26  1  0  0  0  0
 28 27  2  0  0  0  0
 29 28  1  0  0  0  0
 30 29  2  0  0  0  0
 31 30  1  0  0  0  0
 40 32  2  0  0  0  0
 42 33  1  0  0  0  0
 34 33  1  0  0  0  0
 39 34  2  0  0  0  0
 35 34  1  0  0  0  0
 36 35  2  0  0  0  0
 37 36  1  0  0  0  0
 38 37  2  0  0  0  0
 39 38  1  0  0  0  0
 40 39  1  0  0  0  0
 41 40  1  0  0  0  0
 42 41  2  0  0  0  0
  2  3  1  0  0  0  0
  3  4  1  0  0  0  0
  4  5  1  0  0  0  0
  5  6  1  0  0  0  0
  6  7  1  0  0  0  0
  2  7  1  0  0  0  0
  7  8  1  6  0  0  0
  6  9  1  1  0  0  0
  5 10  1  6  0  0  0
  4 11  1  6  0  0  0
  3  1  1  1  0  0  0
M  END
>  <cdx:fragmentId>
61

$$$$
