21205.cdx
  Mrv1902 05222410182D          

 19 18  0  0  0  0            999 V2000
    1.3311   -6.0727    0.0000 C   0  0  0  0  0  0  0  0  0  0  0  0
   12.7626   -6.0727    0.0000 C   0  0  0  0  0  0  0  0  0  0  0  0
    2.0456   -5.6602    0.0000 O   0  0  0  0  0  0  0  0  0  0  0  0
    2.7600   -6.8977    0.0000 O   0  0  0  0  0  0  0  0  0  0  0  0
   12.0482   -4.8352    0.0000 C   0  0  0  0  0  0  0  0  0  0  0  0
   12.0482   -5.6602    0.0000 C   0  0  0  0  0  0  0  0  0  0  0  0
   11.3337   -6.0727    0.0000 C   0  0  0  0  0  0  0  0  0  0  0  0
   10.6192   -5.6602    0.0000 C   0  0  0  0  0  0  0  0  0  0  0  0
    9.9048   -6.0727    0.0000 C   0  0  0  0  0  0  0  0  0  0  0  0
    9.1903   -5.6602    0.0000 C   0  0  0  0  0  0  0  0  0  0  0  0
    8.4758   -6.0727    0.0000 C   0  0  0  0  0  0  0  0  0  0  0  0
    7.7613   -5.6602    0.0000 C   0  0  0  0  0  0  0  0  0  0  0  0
    7.0469   -6.0727    0.0000 C   0  0  0  0  0  0  0  0  0  0  0  0
    6.3324   -5.6602    0.0000 C   0  0  0  0  0  0  0  0  0  0  0  0
    5.6179   -6.0727    0.0000 C   0  0  0  0  0  0  0  0  0  0  0  0
    4.9035   -5.6602    0.0000 C   0  0  0  0  0  0  0  0  0  0  0  0
    4.1890   -6.0727    0.0000 C   0  0  0  0  0  0  0  0  0  0  0  0
    3.4745   -5.6602    0.0000 C   0  0  0  0  0  0  0  0  0  0  0  0
    2.7600   -6.0727    0.0000 C   0  0  0  0  0  0  0  0  0  0  0  0
  3  1  1  0  0  0  0
  6  2  1  0  0  0  0
 19  3  1  0  0  0  0
 19  4  2  0  0  0  0
  6  5  1  0  0  0  0
  7  6  1  0  0  0  0
  8  7  1  0  0  0  0
  9  8  1  0  0  0  0
 10  9  1  0  0  0  0
 11 10  1  0  0  0  0
 12 11  1  0  0  0  0
 13 12  1  0  0  0  0
 14 13  1  0  0  0  0
 15 14  1  0  0  0  0
 16 15  1  0  0  0  0
 17 16  1  0  0  0  0
 18 17  1  0  0  0  0
 19 18  1  0  0  0  0
M  END
>  <cdx:fragmentId>
5

$$$$
