212154.cdx
  Mrv1902 05222410282D          

 25 26  0  0  0  0            999 V2000
    6.8491   -7.2264    0.0000 C   0  0  0  0  0  0  0  0  0  0  0  0
    6.8491   -8.0514    0.0000 C   0  0  0  0  0  0  0  0  0  0  0  0
    6.1347   -8.4639    0.0000 C   0  0  0  0  0  0  0  0  0  0  0  0
    5.4202   -8.0514    0.0000 C   0  0  0  0  0  0  0  0  0  0  0  0
    4.7057   -8.4639    0.0000 C   0  0  0  0  0  0  0  0  0  0  0  0
    3.9913   -8.0514    0.0000 C   0  0  0  0  0  0  0  0  0  0  0  0
    3.9913   -7.2264    0.0000 C   0  0  0  0  0  0  0  0  0  0  0  0
    4.7057   -6.8139    0.0000 C   0  0  0  0  0  0  0  0  0  0  0  0
    5.4202   -7.2264    0.0000 C   0  0  0  0  0  0  0  0  0  0  0  0
    6.1347   -6.8139    0.0000 O   0  0  0  0  0  0  0  0  0  0  0  0
    6.1347   -9.2889    0.0000 O   0  0  0  0  0  0  0  0  0  0  0  0
    3.2768   -6.8139    0.0000 O   0  0  0  0  0  0  0  0  0  0  0  0
    4.7057   -9.2889    0.0000 O   0  0  0  0  0  0  0  0  0  0  0  0
    7.5636   -8.4639    0.0000 O   0  0  0  0  0  0  0  0  0  0  0  0
    7.5636   -6.8139    0.0000 C   0  0  0  0  0  0  0  0  0  0  0  0
    8.2781   -7.2264    0.0000 C   0  0  0  0  0  0  0  0  0  0  0  0
    8.9926   -6.8139    0.0000 C   0  0  0  0  0  0  0  0  0  0  0  0
    8.9926   -5.9889    0.0000 C   0  0  0  0  0  0  0  0  0  0  0  0
    8.2781   -5.5764    0.0000 C   0  0  0  0  0  0  0  0  0  0  0  0
    7.5636   -5.9889    0.0000 C   0  0  0  0  0  0  0  0  0  0  0  0
    9.7070   -5.5764    0.0000 O   0  0  0  0  0  0  0  0  0  0  0  0
    9.7070   -7.2264    0.0000 O   0  0  0  0  0  0  0  0  0  0  0  0
    9.5420   -8.5774    0.0000 H   0  0  0  0  0  0  0  0  0  0  0  0
   10.2565   -8.1649    0.0000 O   0  0  0  0  0  0  0  0  0  0  0  0
   10.9710   -8.5774    0.0000 H   0  0  0  0  0  0  0  0  0  0  0  0
  1  2  2  0  0  0  0
  2  3  1  0  0  0  0
  3  4  1  0  0  0  0
  4  5  1  0  0  0  0
  5  6  2  0  0  0  0
  6  7  1  0  0  0  0
  7  8  2  0  0  0  0
  8  9  1  0  0  0  0
  4  9  2  0  0  0  0
  9 10  1  0  0  0  0
  1 10  1  0  0  0  0
  3 11  2  0  0  0  0
  7 12  1  0  0  0  0
  5 13  1  0  0  0  0
  2 14  1  0  0  0  0
 15 16  1  0  0  0  0
 16 17  2  0  0  0  0
 17 18  1  0  0  0  0
 18 19  2  0  0  0  0
 19 20  1  0  0  0  0
 15 20  2  0  0  0  0
 18 21  1  0  0  0  0
 17 22  1  0  0  0  0
  1 15  1  0  0  0  0
 23 24  1  0  0  0  0
 24 25  1  0  0  0  0
M  END
>  <cdx:groupId>
122561

>  <cdx:fragmentId>
122532

$$$$
