2122.cdx
  Mrv1902 05222410252D          

 28 29  0  0  0  0            999 V2000
   11.1379   -9.6894    0.0000 C   0  0  0  0  0  0  0  0  0  0  0  0
   11.1379   -8.8644    0.0000 C   0  0  0  0  0  0  0  0  0  0  0  0
   10.4234   -8.4519    0.0000 C   0  0  0  0  0  0  0  0  0  0  0  0
    9.7090   -8.8644    0.0000 C   0  0  0  0  0  0  0  0  0  0  0  0
    9.7090   -9.6894    0.0000 C   0  0  0  0  0  0  0  0  0  0  0  0
   10.4234  -10.1019    0.0000 C   0  0  0  0  0  0  0  0  0  0  0  0
    8.9871  -10.1019    0.0000 C   0  0  0  0  0  0  0  0  0  0  0  0
    8.2726   -9.6894    0.0000 C   0  0  0  0  0  0  0  0  0  0  0  0
    7.5581  -10.1019    0.0000 C   0  0  0  0  0  0  0  0  0  0  0  0
    6.8437   -9.6894    0.0000 C   0  0  0  0  0  0  0  0  0  0  0  0
    6.1292  -10.1019    0.0000 C   0  0  0  0  0  0  0  0  0  0  0  0
    5.4147   -9.6894    0.0000 C   0  0  0  0  0  0  0  0  0  0  0  0
    4.7003  -10.1019    0.0000 C   0  0  0  0  0  0  0  0  0  0  0  0
    3.9858   -9.6894    0.0000 C   0  0  0  0  0  0  0  0  0  0  0  0
    7.5581  -10.9269    0.0000 O   0  0  0  0  0  0  0  0  0  0  0  0
    3.9858   -8.8644    0.0000 C   0  0  0  0  0  0  0  0  0  0  0  0
    3.2713   -8.4519    0.0000 C   0  0  0  0  0  0  0  0  0  0  0  0
    2.5569   -8.8644    0.0000 C   0  0  0  0  0  0  0  0  0  0  0  0
    2.5569   -9.6894    0.0000 C   0  0  0  0  0  0  0  0  0  0  0  0
    3.2713  -10.1019    0.0000 C   0  0  0  0  0  0  0  0  0  0  0  0
   11.8524  -10.1019    0.0000 O   0  0  0  0  0  0  0  0  0  0  0  0
   11.8524   -8.4519    0.0000 O   0  0  0  0  0  0  0  0  0  0  0  0
   10.4234   -7.6269    0.0000 O   0  0  0  0  0  0  0  0  0  0  0  0
    1.8424   -8.4519    0.0000 O   0  0  0  0  0  0  0  0  0  0  0  0
    1.8424  -10.1019    0.0000 O   0  0  0  0  0  0  0  0  0  0  0  0
    1.1279   -9.6894    0.0000 C   0  0  0  0  0  0  0  0  0  0  0  0
   11.1379   -7.2144    0.0000 C   0  0  0  0  0  0  0  0  0  0  0  0
   12.5668   -9.6894    0.0000 C   0  0  0  0  0  0  0  0  0  0  0  0
  1  2  2  0  0  0  0
  2  3  1  0  0  0  0
  3  4  2  0  0  0  0
  4  5  1  0  0  0  0
  5  6  2  0  0  0  0
  6  1  1  0  0  0  0
  7  8  1  0  0  0  0
  8  9  1  0  0  0  0
  9 10  1  0  0  0  0
 10 11  2  0  0  0  0
 11 12  1  0  0  0  0
 12 13  1  0  0  0  0
 13 14  1  0  0  0  0
  7  5  1  0  0  0  0
  9 15  2  0  0  0  0
 14 16  2  0  0  0  0
 16 17  1  0  0  0  0
 17 18  2  0  0  0  0
 18 19  1  0  0  0  0
 19 20  2  0  0  0  0
 20 14  1  0  0  0  0
  1 21  1  0  0  0  0
  2 22  1  0  0  0  0
  3 23  1  0  0  0  0
 18 24  1  0  0  0  0
 19 25  1  0  0  0  0
 25 26  1  0  0  0  0
 23 27  1  0  0  0  0
 21 28  1  0  0  0  0
M  END
>  <cdx:fragmentId>
21

$$$$
