21236.cdx
  Mrv1902 05222410272D          

  9  8  0  0  0  0            999 V2000
    5.6478   -2.7219    0.0000 C   0  0  0  0  0  0  0  0  0  0  0  0
    4.9334   -3.9594    0.0000 N   0  0  0  0  0  0  0  0  0  0  0  0
    4.9334   -3.1344    0.0000 C   0  0  1  0  0  0  0  0  0  0  0  0
    4.2189   -2.7219    0.0000 C   0  0  0  0  0  0  0  0  0  0  0  0
    3.5044   -3.1344    0.0000 C   0  0  0  0  0  0  0  0  0  0  0  0
    2.7899   -2.7219    0.0000 C   0  0  0  0  0  0  0  0  0  0  0  0
    2.0755   -3.1344    0.0000 C   0  0  0  0  0  0  0  0  0  0  0  0
    5.6478   -1.8969    0.0000 O   0  0  0  0  0  0  0  0  0  0  0  0
    6.3623   -3.1344    0.0000 O   0  0  0  0  0  0  0  0  0  0  0  0
  3  2  1  1  0  0  0
  1  3  1  0  0  0  0
  3  4  1  0  0  0  0
  4  5  1  0  0  0  0
  5  6  1  0  0  0  0
  6  7  1  0  0  0  0
  1  8  2  0  0  0  0
  1  9  1  0  0  0  0
M  END
>  <cdx:groupId>
28

>  <cdx:fragmentId>
5

$$$$
