2124.cdx
  Mrv1902 05222410242D          

 20 20  0  0  0  0            999 V2000
    3.2414   -7.6931    0.0000 C   0  0  0  0  0  0  0  0  0  0  0  0
    3.2414   -8.5181    0.0000 C   0  0  0  0  0  0  0  0  0  0  0  0
    3.9559   -8.9306    0.0000 C   0  0  0  0  0  0  0  0  0  0  0  0
    4.6703   -8.5181    0.0000 C   0  0  0  0  0  0  0  0  0  0  0  0
    4.6703   -7.6931    0.0000 C   0  0  0  0  0  0  0  0  0  0  0  0
    3.9559   -7.2806    0.0000 C   0  0  0  0  0  0  0  0  0  0  0  0
    5.3922   -7.2600    0.0000 C   0  0  0  0  0  0  0  0  0  0  0  0
    6.1067   -7.6725    0.0000 C   0  0  0  0  0  0  0  0  0  0  0  0
    6.8212   -7.2600    0.0000 C   0  0  0  0  0  0  0  0  0  0  0  0
    7.5356   -7.6725    0.0000 C   0  0  0  0  0  0  0  0  0  0  0  0
    8.2501   -7.2600    0.0000 C   0  0  0  0  0  0  0  0  0  0  0  0
    8.9646   -7.6725    0.0000 C   0  0  0  0  0  0  0  0  0  0  0  0
    9.6790   -7.2600    0.0000 C   0  0  0  0  0  0  0  0  0  0  0  0
   10.3935   -7.6725    0.0000 C   0  0  0  0  0  0  0  0  0  0  0  0
    2.5269   -8.9306    0.0000 O   0  0  0  0  0  0  0  0  0  0  0  0
    8.9646   -8.4975    0.0000 O   0  0  0  0  0  0  0  0  0  0  0  0
   11.1080   -7.2600    0.0000 C   0  0  0  0  0  0  0  0  0  0  0  0
   11.8225   -7.6725    0.0000 C   0  0  0  0  0  0  0  0  0  0  0  0
    2.5269   -7.2806    0.0000 O   0  0  0  0  0  0  0  0  0  0  0  0
    1.8125   -7.6931    0.0000 C   0  0  0  0  0  0  0  0  0  0  0  0
  1  2  2  0  0  0  0
  2  3  1  0  0  0  0
  3  4  2  0  0  0  0
  4  5  1  0  0  0  0
  5  6  2  0  0  0  0
  6  1  1  0  0  0  0
  7  8  1  0  0  0  0
  8  9  2  0  0  0  0
  9 10  1  0  0  0  0
 10 11  2  0  0  0  0
 11 12  1  0  0  0  0
 12 13  1  0  0  0  0
 13 14  1  0  0  0  0
  7  5  1  0  0  0  0
  2 15  1  0  0  0  0
 12 16  2  0  0  0  0
 14 17  1  0  0  0  0
 17 18  1  0  0  0  0
  1 19  1  0  0  0  0
 19 20  1  0  0  0  0
M  END
>  <cdx:fragmentId>
21

$$$$
