2128.cdx
  Mrv1902 05222410222D          

 32 32  0  0  0  0            999 V2000
    2.2720   -8.1675    0.0000 C   0  0  0  0  0  0  0  0  0  0  0  0
    2.2720   -8.9925    0.0000 C   0  0  0  0  0  0  0  0  0  0  0  0
    2.9865   -9.4050    0.0000 C   0  0  0  0  0  0  0  0  0  0  0  0
    3.7010   -8.9925    0.0000 C   0  0  0  0  0  0  0  0  0  0  0  0
    3.7010   -8.1675    0.0000 C   0  0  0  0  0  0  0  0  0  0  0  0
    2.9865   -7.7550    0.0000 C   0  0  0  0  0  0  0  0  0  0  0  0
    1.5576   -7.7550    0.0000 O   0  0  0  0  0  0  0  0  0  0  0  0
    1.5576   -9.4050    0.0000 O   0  0  0  0  0  0  0  0  0  0  0  0
    4.4154   -7.7550    0.0000 C   0  0  0  0  0  0  0  0  0  0  0  0
    5.1299   -8.1675    0.0000 C   0  0  0  0  0  0  0  0  0  0  0  0
    5.8444   -7.7550    0.0000 C   0  0  0  0  0  0  0  0  0  0  0  0
    6.5589   -8.1675    0.0000 C   0  0  0  0  0  0  0  0  0  0  0  0
    4.4154   -6.9300    0.0000 O   0  0  0  0  0  0  0  0  0  0  0  0
    0.8431   -8.9925    0.0000 C   0  0  0  0  0  0  0  0  0  0  0  0
    7.2733   -7.7550    0.0000 C   0  0  0  0  0  0  0  0  0  0  0  0
    7.9878   -8.1675    0.0000 C   0  0  0  0  0  0  0  0  0  0  0  0
    8.7023   -7.7550    0.0000 C   0  0  0  0  0  0  0  0  0  0  0  0
    9.4167   -8.1675    0.0000 C   0  0  0  0  0  0  0  0  0  0  0  0
   10.1312   -7.7550    0.0000 C   0  0  0  0  0  0  0  0  0  0  0  0
   10.8457   -8.1675    0.0000 C   0  0  0  0  0  0  0  0  0  0  0  0
   11.5602   -7.7550    0.0000 C   0  0  0  0  0  0  0  0  0  0  0  0
   12.2746   -8.1675    0.0000 C   0  0  0  0  0  0  0  0  0  0  0  0
   12.9891   -7.7550    0.0000 C   0  0  0  0  0  0  0  0  0  0  0  0
   13.7036   -8.1675    0.0000 C   0  0  0  0  0  0  0  0  0  0  0  0
   14.4180   -7.7550    0.0000 C   0  0  0  0  0  0  0  0  0  0  0  0
   15.1325   -8.1675    0.0000 C   0  0  0  0  0  0  0  0  0  0  0  0
   15.8470   -7.7550    0.0000 C   0  0  0  0  0  0  0  0  0  0  0  0
   16.5614   -8.1675    0.0000 C   0  0  0  0  0  0  0  0  0  0  0  0
   17.2759   -7.7550    0.0000 C   0  0  0  0  0  0  0  0  0  0  0  0
   17.9904   -8.1675    0.0000 C   0  0  0  0  0  0  0  0  0  0  0  0
   18.7049   -7.7550    0.0000 C   0  0  0  0  0  0  0  0  0  0  0  0
   19.4193   -8.1675    0.0000 C   0  0  0  0  0  0  0  0  0  0  0  0
  1  2  2  0  0  0  0
  2  3  1  0  0  0  0
  3  4  2  0  0  0  0
  4  5  1  0  0  0  0
  5  6  2  0  0  0  0
  6  1  1  0  0  0  0
  1  7  1  0  0  0  0
  2  8  1  0  0  0  0
  5  9  1  0  0  0  0
  9 10  1  0  0  0  0
 10 11  2  0  0  0  0
 11 12  1  0  0  0  0
  9 13  2  0  0  0  0
  8 14  1  0  0  0  0
 12 15  1  0  0  0  0
 15 16  1  0  0  0  0
 16 17  1  0  0  0  0
 17 18  1  0  0  0  0
 18 19  1  0  0  0  0
 19 20  1  0  0  0  0
 20 21  1  0  0  0  0
 21 22  1  0  0  0  0
 22 23  1  0  0  0  0
 23 24  1  0  0  0  0
 24 25  1  0  0  0  0
 25 26  1  0  0  0  0
 26 27  1  0  0  0  0
 27 28  1  0  0  0  0
 28 29  1  0  0  0  0
 29 30  1  0  0  0  0
 30 31  1  0  0  0  0
 31 32  1  0  0  0  0
M  END
>  <cdx:fragmentId>
5

$$$$
