10021298.cdx
  Mrv1902 05222410202D          

 26 27  0  0  0  0            999 V2000
    8.5505   -7.0422    0.0000 C   0  0  0  0  0  0  0  0  0  0  0  0
    7.8360   -7.4547    0.0000 C   0  0  0  0  0  0  0  0  0  0  0  0
    9.2649   -7.4547    0.0000 C   0  0  0  0  0  0  0  0  0  0  0  0
    9.2649   -8.2797    0.0000 C   0  0  0  0  0  0  0  0  0  0  0  0
    9.9794   -8.6922    0.0000 C   0  0  0  0  0  0  0  0  0  0  0  0
   10.6939   -8.2797    0.0000 C   0  0  0  0  0  0  0  0  0  0  0  0
   10.6939   -7.4547    0.0000 C   0  0  0  0  0  0  0  0  0  0  0  0
    9.9794   -7.0422    0.0000 C   0  0  0  0  0  0  0  0  0  0  0  0
   11.4083   -8.6922    0.0000 O   0  0  0  0  0  0  0  0  0  0  0  0
    8.5505   -8.6922    0.0000 O   0  0  0  0  0  0  0  0  0  0  0  0
    7.1215   -7.0422    0.0000 C   0  0  0  0  0  0  0  0  0  0  0  0
    6.4070   -7.4547    0.0000 C   0  0  0  0  0  0  0  0  0  0  0  0
    5.6926   -7.0422    0.0000 C   0  0  0  0  0  0  0  0  0  0  0  0
    5.6926   -6.2172    0.0000 C   0  0  0  0  0  0  0  0  0  0  0  0
    6.4070   -5.8047    0.0000 C   0  0  0  0  0  0  0  0  0  0  0  0
    7.1215   -6.2172    0.0000 C   0  0  0  0  0  0  0  0  0  0  0  0
    4.9781   -7.4547    0.0000 C   0  0  0  0  0  0  0  0  0  0  0  0
    4.2636   -7.0422    0.0000 C   0  0  0  0  0  0  0  0  0  0  0  0
    3.5492   -7.4547    0.0000 C   0  0  0  0  0  0  0  0  0  0  0  0
    3.5492   -8.2797    0.0000 C   0  0  0  0  0  0  0  0  0  0  0  0
    2.8347   -7.0422    0.0000 C   0  0  0  0  0  0  0  0  0  0  0  0
    6.4070   -8.2797    0.0000 O   0  0  0  0  0  0  0  0  0  0  0  0
    7.1215   -8.6922    0.0000 C   0  0  0  0  0  0  0  0  0  0  0  0
    7.8360   -5.8047    0.0000 O   0  0  0  0  0  0  0  0  0  0  0  0
    4.9781   -5.8047    0.0000 O   0  0  0  0  0  0  0  0  0  0  0  0
    8.5505   -6.2172    0.0000 O   0  0  0  0  0  0  0  0  0  0  0  0
  1  2  1  0  0  0  0
  3  4  1  0  0  0  0
  4  5  2  0  0  0  0
  5  6  1  0  0  0  0
  6  7  2  0  0  0  0
  7  8  1  0  0  0  0
  3  8  2  0  0  0  0
  6  9  1  0  0  0  0
  4 10  1  0  0  0  0
  1  3  1  0  0  0  0
 11 12  1  0  0  0  0
 12 13  2  0  0  0  0
 13 14  1  0  0  0  0
 14 15  2  0  0  0  0
 15 16  1  0  0  0  0
 11 16  2  0  0  0  0
 17 18  1  0  0  0  0
 18 19  2  0  0  0  0
 19 20  1  0  0  0  0
 19 21  1  0  0  0  0
 13 17  1  0  0  0  0
 22 23  1  0  0  0  0
 12 22  1  0  0  0  0
 16 24  1  0  0  0  0
 14 25  1  0  0  0  0
  2 11  1  0  0  0  0
  1 26  2  0  0  0  0
M  END
>  <cdx:fragmentId>
35760

$$$$
