2132.cdx
  Mrv1902 05222410232D          

 28 29  0  0  0  0            999 V2000
    4.4509   -7.5694    0.0000 C   0  0  0  0  0  0  0  0  0  0  0  0
    5.1653   -7.1569    0.0000 C   0  0  0  0  0  0  0  0  0  0  0  0
    5.8798   -7.5694    0.0000 C   0  0  0  0  0  0  0  0  0  0  0  0
    6.5943   -7.1569    0.0000 C   0  0  0  0  0  0  0  0  0  0  0  0
    7.3088   -7.5694    0.0000 C   0  0  0  0  0  0  0  0  0  0  0  0
    8.0232   -7.1569    0.0000 C   0  0  0  0  0  0  0  0  0  0  0  0
    8.7377   -7.5694    0.0000 C   0  0  0  0  0  0  0  0  0  0  0  0
    9.4522   -7.1569    0.0000 C   0  0  0  0  0  0  0  0  0  0  0  0
   10.1666   -7.5694    0.0000 C   0  0  0  0  0  0  0  0  0  0  0  0
    6.5943   -6.3319    0.0000 O   0  0  0  0  0  0  0  0  0  0  0  0
    3.7364   -7.1569    0.0000 C   0  0  0  0  0  0  0  0  0  0  0  0
    3.0219   -7.5694    0.0000 C   0  0  0  0  0  0  0  0  0  0  0  0
    3.0219   -8.3944    0.0000 C   0  0  0  0  0  0  0  0  0  0  0  0
    3.7364   -8.8069    0.0000 C   0  0  0  0  0  0  0  0  0  0  0  0
    4.4509   -8.3944    0.0000 C   0  0  0  0  0  0  0  0  0  0  0  0
    2.3075   -8.8069    0.0000 O   0  0  0  0  0  0  0  0  0  0  0  0
    3.7364   -9.6319    0.0000 O   0  0  0  0  0  0  0  0  0  0  0  0
   10.1666   -8.3944    0.0000 C   0  0  0  0  0  0  0  0  0  0  0  0
   10.8811   -8.8069    0.0000 C   0  0  0  0  0  0  0  0  0  0  0  0
   11.5956   -8.3944    0.0000 C   0  0  0  0  0  0  0  0  0  0  0  0
   11.5956   -7.5694    0.0000 C   0  0  0  0  0  0  0  0  0  0  0  0
   10.8811   -7.1569    0.0000 C   0  0  0  0  0  0  0  0  0  0  0  0
   12.3101   -8.8069    0.0000 O   0  0  0  0  0  0  0  0  0  0  0  0
   10.8811   -9.6319    0.0000 O   0  0  0  0  0  0  0  0  0  0  0  0
   12.3101   -7.1569    0.0000 O   0  0  0  0  0  0  0  0  0  0  0  0
   11.5956  -10.0444    0.0000 C   0  0  0  0  0  0  0  0  0  0  0  0
   13.0245   -7.5694    0.0000 C   0  0  0  0  0  0  0  0  0  0  0  0
    3.0219  -10.0444    0.0000 C   0  0  0  0  0  0  0  0  0  0  0  0
  1  2  1  0  0  0  0
  2  3  1  0  0  0  0
  3  4  1  0  0  0  0
  4  5  1  0  0  0  0
  5  6  2  0  0  0  0
  6  7  1  0  0  0  0
  7  8  2  0  0  0  0
  8  9  1  0  0  0  0
  4 10  2  0  0  0  0
  1 11  2  0  0  0  0
 11 12  1  0  0  0  0
 12 13  2  0  0  0  0
 13 14  1  0  0  0  0
 14 15  2  0  0  0  0
 15  1  1  0  0  0  0
 13 16  1  0  0  0  0
 14 17  1  0  0  0  0
  9 18  2  0  0  0  0
 18 19  1  0  0  0  0
 19 20  2  0  0  0  0
 20 21  1  0  0  0  0
 21 22  2  0  0  0  0
 22  9  1  0  0  0  0
 20 23  1  0  0  0  0
 19 24  1  0  0  0  0
 21 25  1  0  0  0  0
 24 26  1  0  0  0  0
 25 27  1  0  0  0  0
 17 28  1  0  0  0  0
M  END
>  <cdx:fragmentId>
3

$$$$
