22213307.cdx
  Mrv1902 05222410262D          

 32 35  0  0  0  0            999 V2000
    4.6208  -15.4514    0.0000 C   0  0  0  0  0  0  0  0  0  0  0  0
    3.9063  -15.8639    0.0000 C   0  0  0  0  0  0  0  0  0  0  0  0
    3.9063  -16.6889    0.0000 C   0  0  0  0  0  0  0  0  0  0  0  0
    4.6208  -17.1014    0.0000 C   0  0  0  0  0  0  0  0  0  0  0  0
    5.3353  -16.6889    0.0000 C   0  0  0  0  0  0  0  0  0  0  0  0
    6.0497  -17.1014    0.0000 C   0  0  0  0  0  0  0  0  0  0  0  0
    6.7642  -16.6889    0.0000 C   0  0  0  0  0  0  0  0  0  0  0  0
    6.7642  -15.8639    0.0000 C   0  0  0  0  0  0  0  0  0  0  0  0
    7.4787  -15.4514    0.0000 C   0  0  2  0  0  0  0  0  0  0  0  0
    8.2633  -15.7063    0.0000 C   0  0  0  0  0  0  0  0  0  0  0  0
    8.7482  -15.0389    0.0000 C   0  0  0  0  0  0  0  0  0  0  0  0
    8.2633  -14.3715    0.0000 C   0  0  1  0  0  0  0  0  0  0  0  0
    7.4787  -14.6264    0.0000 C   0  0  1  0  0  0  0  0  0  0  0  0
    6.7642  -14.2139    0.0000 C   0  0  0  0  0  0  0  0  0  0  0  0
    6.0497  -14.6264    0.0000 C   0  0  0  0  0  0  0  0  0  0  0  0
    6.0497  -15.4514    0.0000 C   0  0  2  0  0  0  0  0  0  0  0  0
    5.3353  -15.8639    0.0000 C   0  0  1  0  0  0  0  0  0  0  0  0
    3.1919  -17.1014    0.0000 O   0  0  0  0  0  0  0  0  0  0  0  0
    7.9662  -12.9737    0.0000 C   0  0  0  0  0  0  0  0  0  0  0  0
    8.5182  -13.5868    0.0000 C   0  0  2  0  0  0  0  0  0  0  0  0
    9.3252  -13.4153    0.0000 C   0  0  0  0  0  0  0  0  0  0  0  0
    9.5802  -12.6307    0.0000 C   0  0  0  0  0  0  0  0  0  0  0  0
   10.3871  -12.4592    0.0000 C   0  0  0  0  0  0  0  0  0  0  0  0
   10.6421  -11.6745    0.0000 C   0  0  0  0  0  0  0  0  0  0  0  0
   10.0900  -11.0615    0.0000 C   0  0  0  0  0  0  0  0  0  0  0  0
   11.4490  -11.5030    0.0000 C   0  0  0  0  0  0  0  0  0  0  0  0
    7.5649  -13.8059    0.0000 C   0  0  0  0  0  0  0  0  0  0  0  0
    5.3353  -15.0389    0.0000 C   0  0  0  0  0  0  0  0  0  0  0  0
    5.0333  -17.8159    0.0000 C   0  0  0  0  0  0  0  0  0  0  0  0
    4.2083  -17.8159    0.0000 C   0  0  0  0  0  0  0  0  0  0  0  0
    6.0497  -16.2764    0.0000 H   0  0  0  0  0  0  0  0  0  0  0  0
    7.4787  -16.2764    0.0000 H   0  0  0  0  0  0  0  0  0  0  0  0
  1  2  1  0  0  0  0
  2  3  1  0  0  0  0
  3  4  1  0  0  0  0
  4  5  1  0  0  0  0
  5  6  1  0  0  0  0
  6  7  1  0  0  0  0
  7  8  2  0  0  0  0
  8  9  1  0  0  0  0
  9 10  1  0  0  0  0
 10 11  1  0  0  0  0
 12 11  1  1  0  0  0
 12 13  1  0  0  0  0
  9 13  1  0  0  0  0
 13 14  1  0  0  0  0
 14 15  1  0  0  0  0
 15 16  1  0  0  0  0
  8 16  1  0  0  0  0
 16 17  1  0  0  0  0
  5 17  1  0  0  0  0
  1 17  1  0  0  0  0
  3 18  2  0  0  0  0
 20 19  1  6  0  0  0
 20 21  1  0  0  0  0
 21 22  1  0  0  0  0
 22 23  1  0  0  0  0
 23 24  1  0  0  0  0
 24 25  1  0  0  0  0
 24 26  1  0  0  0  0
 12 20  1  0  0  0  0
 13 27  1  1  0  0  0
 17 28  1  1  0  0  0
  4 29  1  0  0  0  0
  4 30  1  0  0  0  0
 16 31  1  6  0  0  0
  9 32  1  6  0  0  0
M  END
>  <cdx:groupId>
142236

>  <cdx:fragmentId>
142140

$$$$
