2135.cdx
  Mrv1902 05222410242D          

 24 25  0  0  0  0            999 V2000
    5.2226   -3.5607    0.0000 C   0  0  0  0  0  0  0  0  0  0  0  0
    5.9371   -3.9732    0.0000 C   0  0  0  0  0  0  0  0  0  0  0  0
    6.6515   -3.5607    0.0000 C   0  0  0  0  0  0  0  0  0  0  0  0
    7.3660   -3.9732    0.0000 C   0  0  0  0  0  0  0  0  0  0  0  0
    8.0805   -3.5607    0.0000 C   0  0  0  0  0  0  0  0  0  0  0  0
    8.7949   -3.9732    0.0000 C   0  0  0  0  0  0  0  0  0  0  0  0
    9.5094   -3.5607    0.0000 C   0  0  0  0  0  0  0  0  0  0  0  0
    6.6515   -2.7357    0.0000 O   0  0  0  0  0  0  0  0  0  0  0  0
   10.2239   -3.9732    0.0000 C   0  0  0  0  0  0  0  0  0  0  0  0
   10.9384   -3.5607    0.0000 C   0  0  0  0  0  0  0  0  0  0  0  0
   11.6528   -3.9732    0.0000 C   0  0  0  0  0  0  0  0  0  0  0  0
   11.6528   -4.7982    0.0000 C   0  0  0  0  0  0  0  0  0  0  0  0
   10.9384   -5.2107    0.0000 C   0  0  0  0  0  0  0  0  0  0  0  0
   10.2239   -4.7982    0.0000 C   0  0  0  0  0  0  0  0  0  0  0  0
   12.3673   -5.2107    0.0000 O   0  0  0  0  0  0  0  0  0  0  0  0
    4.5081   -3.9732    0.0000 C   0  0  0  0  0  0  0  0  0  0  0  0
    3.7936   -3.5607    0.0000 C   0  0  0  0  0  0  0  0  0  0  0  0
    3.0792   -3.9732    0.0000 C   0  0  0  0  0  0  0  0  0  0  0  0
    3.0792   -4.7982    0.0000 C   0  0  0  0  0  0  0  0  0  0  0  0
    3.7936   -5.2107    0.0000 C   0  0  0  0  0  0  0  0  0  0  0  0
    4.5081   -4.7982    0.0000 C   0  0  0  0  0  0  0  0  0  0  0  0
    2.3647   -3.5607    0.0000 O   0  0  0  0  0  0  0  0  0  0  0  0
    1.6502   -3.9732    0.0000 C   0  0  0  0  0  0  0  0  0  0  0  0
    2.3647   -5.2107    0.0000 O   0  0  0  0  0  0  0  0  0  0  0  0
  1  2  1  0  0  0  0
  2  3  1  0  0  0  0
  3  4  1  0  0  0  0
  4  5  2  0  0  0  0
  5  6  1  0  0  0  0
  6  7  1  0  0  0  0
  3  8  2  0  0  0  0
  9 10  1  0  0  0  0
 10 11  2  0  0  0  0
 11 12  1  0  0  0  0
 12 13  2  0  0  0  0
 13 14  1  0  0  0  0
  9 14  2  0  0  0  0
 12 15  1  0  0  0  0
  7  9  1  0  0  0  0
 16 17  1  0  0  0  0
 17 18  2  0  0  0  0
 18 19  1  0  0  0  0
 19 20  2  0  0  0  0
 20 21  1  0  0  0  0
 16 21  2  0  0  0  0
 22 23  1  0  0  0  0
 18 22  1  0  0  0  0
 19 24  1  0  0  0  0
  1 16  1  0  0  0  0
M  END
>  <cdx:fragmentId>
199175

$$$$
