213821.cdx
  Mrv1902 05222410242D          

 22 22  0  0  0  0            999 V2000
    2.5794   -5.8494    0.0000 C   0  0  0  0  0  0  0  0  0  0  0  0
    2.5794   -6.6761    0.0000 C   0  0  0  0  0  0  0  0  0  0  0  0
    3.2934   -5.4360    0.0000 C   0  0  0  0  0  0  0  0  0  0  0  0
    6.1493   -4.6093    0.0000 O   0  0  0  0  0  0  0  0  0  0  0  0
    3.2934   -7.0895    0.0000 C   0  0  0  0  0  0  0  0  0  0  0  0
    6.1535   -5.4360    0.0000 C   0  0  0  0  0  0  0  0  0  0  0  0
    4.0116   -5.8494    0.0000 C   0  0  0  0  0  0  0  0  0  0  0  0
    4.0116   -6.6761    0.0000 C   0  0  0  0  0  0  0  0  0  0  0  0
    1.8654   -5.4360    0.0000 O   0  0  0  0  0  0  0  0  0  0  0  0
    5.4395   -5.8494    0.0000 C   0  0  0  0  0  0  0  0  0  0  0  0
    1.8571   -7.0895    0.0000 O   0  0  0  0  0  0  0  0  0  0  0  0
    4.7256   -5.4360    0.0000 C   0  0  0  0  0  0  0  0  0  0  0  0
    6.8675   -5.8369    0.0000 C   0  0  0  0  0  0  0  0  0  0  0  0
    1.1431   -5.8494    0.0000 C   0  0  0  0  0  0  0  0  0  0  0  0
    7.5815   -5.4235    0.0000 C   0  0  0  0  0  0  0  0  0  0  0  0
   11.8653   -5.4110    0.0000 C   0  0  0  0  0  0  0  0  0  0  0  0
   11.1513   -5.8243    0.0000 C   0  0  0  0  0  0  0  0  0  0  0  0
   10.4374   -5.4235    0.0000 C   0  0  0  0  0  0  0  0  0  0  0  0
    9.0094   -5.4235    0.0000 C   0  0  0  0  0  0  0  0  0  0  0  0
    9.7234   -5.8369    0.0000 C   0  0  0  0  0  0  0  0  0  0  0  0
    8.2954   -5.8369    0.0000 C   0  0  0  0  0  0  0  0  0  0  0  0
   12.5793   -5.8243    0.0000 C   0  0  0  0  0  0  0  0  0  0  0  0
  2  1  2  0  0  0  0
  3  1  1  0  0  0  0
  4  6  2  0  0  0  0
  5  2  1  0  0  0  0
  6 10  1  0  0  0  0
  7  3  2  0  0  0  0
  8  7  1  0  0  0  0
  9  1  1  0  0  0  0
 10 12  1  0  0  0  0
 11  2  1  0  0  0  0
 12  7  1  0  0  0  0
 13  6  1  0  0  0  0
 14  9  1  0  0  0  0
 15 13  1  0  0  0  0
 16 17  1  0  0  0  0
 17 18  1  0  0  0  0
 18 20  1  0  0  0  0
 19 21  1  0  0  0  0
 20 19  1  0  0  0  0
 21 15  1  0  0  0  0
 22 16  1  0  0  0  0
  5  8  2  0  0  0  0
M  END
>  <cdx:fragmentId>
2642

$$$$
