2139.cdx
  Mrv1902 05222410212D          

 20 20  0  0  0  0            999 V2000
    3.7488   -4.8757    0.0000 C   0  0  0  0  0  0  0  0  0  0  0  0
    3.7488   -5.7007    0.0000 C   0  0  0  0  0  0  0  0  0  0  0  0
    4.4632   -6.1132    0.0000 C   0  0  0  0  0  0  0  0  0  0  0  0
    5.1777   -5.7007    0.0000 C   0  0  0  0  0  0  0  0  0  0  0  0
    5.1777   -4.8757    0.0000 C   0  0  0  0  0  0  0  0  0  0  0  0
    4.4632   -4.4632    0.0000 C   0  0  0  0  0  0  0  0  0  0  0  0
    3.0343   -6.1132    0.0000 O   0  0  0  0  0  0  0  0  0  0  0  0
    5.8922   -4.4632    0.0000 C   0  0  0  0  0  0  0  0  0  0  0  0
    6.6067   -4.8757    0.0000 C   0  0  0  0  0  0  0  0  0  0  0  0
    7.3211   -4.4632    0.0000 C   0  0  0  0  0  0  0  0  0  0  0  0
    8.0356   -4.8757    0.0000 C   0  0  0  0  0  0  0  0  0  0  0  0
    8.7501   -4.4632    0.0000 C   0  0  0  0  0  0  0  0  0  0  0  0
    9.4645   -4.8757    0.0000 C   0  0  0  0  0  0  0  0  0  0  0  0
    7.3211   -3.6382    0.0000 O   0  0  0  0  0  0  0  0  0  0  0  0
   10.1790   -4.4632    0.0000 C   0  0  0  0  0  0  0  0  0  0  0  0
   10.8935   -4.8757    0.0000 C   0  0  0  0  0  0  0  0  0  0  0  0
   11.6080   -4.4632    0.0000 C   0  0  0  0  0  0  0  0  0  0  0  0
   12.3224   -4.8757    0.0000 C   0  0  0  0  0  0  0  0  0  0  0  0
    3.0343   -4.4632    0.0000 O   0  0  0  0  0  0  0  0  0  0  0  0
    2.3198   -4.8757    0.0000 C   0  0  0  0  0  0  0  0  0  0  0  0
  1  2  2  0  0  0  0
  2  3  1  0  0  0  0
  3  4  2  0  0  0  0
  4  5  1  0  0  0  0
  5  6  2  0  0  0  0
  6  1  1  0  0  0  0
  2  7  1  0  0  0  0
  5  8  1  0  0  0  0
  8  9  1  0  0  0  0
  9 10  1  0  0  0  0
 10 11  1  0  0  0  0
 11 12  1  0  0  0  0
 12 13  1  0  0  0  0
 10 14  2  0  0  0  0
 13 15  1  0  0  0  0
 15 16  2  0  0  0  0
 16 17  1  0  0  0  0
 17 18  1  0  0  0  0
  1 19  1  0  0  0  0
 19 20  1  0  0  0  0
M  END
>  <cdx:fragmentId>
5

$$$$
