213995.cdx
  Mrv1902 05222410252D          

 30 32  0  0  0  0            999 V2000
    4.5304   -5.9810    0.0000 C   0  0  0  0  0  0  0  0  0  0  0  0
    5.2026   -6.4593    0.0000 O   0  0  0  0  0  0  0  0  0  0  0  0
    4.7426   -4.2998    0.0000 C   0  0  0  0  0  0  0  0  0  0  0  0
    4.9502   -5.0983    0.0000 O   0  0  0  0  0  0  0  0  0  0  0  0
    6.6623  -10.1343    0.0000 C   0  0  0  0  0  0  0  0  0  0  0  0
    6.0834   -9.5465    0.0000 O   0  0  0  0  0  0  0  0  0  0  0  0
    4.7060   -9.1663    0.0000 C   0  0  0  0  0  0  0  0  0  0  0  0
    4.9255   -8.3711    0.0000 O   0  0  0  0  0  0  0  0  0  0  0  0
    4.5191   -7.4821    0.0000 C   0  0  0  0  0  0  0  0  0  0  0  0
    5.1984   -7.0140    0.0000 O   0  0  0  0  0  0  0  0  0  0  0  0
    9.5044   -6.0409    0.0000 C   0  0  0  0  0  0  0  0  0  0  0  0
    9.4934   -7.4972    0.0000 C   0  0  0  0  0  0  0  0  0  0  0  0
    8.4559   -8.5193    0.0000 O   0  0  0  0  0  0  0  0  0  0  0  0
    6.1256   -3.9404    0.0000 O   0  0  0  0  0  0  0  0  0  0  0  0
    5.9435   -7.3683    0.0000 C   0  0  0  0  0  0  0  0  0  0  0  0
    5.7240   -8.1635    0.0000 C   0  0  0  0  0  0  0  0  0  0  0  0
    6.3029   -8.7513    0.0000 C   0  0  0  0  0  0  0  0  0  0  0  0
    7.1014   -8.5438    0.0000 C   0  0  0  0  0  0  0  0  0  0  0  0
    7.3209   -7.7485    0.0000 C   0  0  0  0  0  0  0  0  0  0  0  0
    8.1459   -7.7547    0.0000 C   0  0  2  0  0  0  0  0  0  0  0  0
    8.7336   -7.1758    0.0000 C   0  0  2  0  0  0  0  0  0  0  0  0
    8.7399   -6.3508    0.0000 C   0  0  2  0  0  0  0  0  0  0  0  0
    8.1609   -5.7631    0.0000 C   0  0  0  0  0  0  0  0  0  0  0  0
    7.3359   -5.7569    0.0000 C   0  0  0  0  0  0  0  0  0  0  0  0
    7.1284   -4.9584    0.0000 C   0  0  0  0  0  0  0  0  0  0  0  0
    6.3332   -4.7388    0.0000 C   0  0  0  0  0  0  0  0  0  0  0  0
    5.7454   -5.3178    0.0000 C   0  0  0  0  0  0  0  0  0  0  0  0
    5.9529   -6.1163    0.0000 C   0  0  0  0  0  0  0  0  0  0  0  0
    6.7482   -6.3358    0.0000 C   0  0  0  0  0  0  0  0  0  0  0  0
    6.7420   -7.1608    0.0000 C   0  0  0  0  0  0  0  0  0  0  0  0
 28  2  1  0  0  0  0
  2  1  1  0  0  0  0
 27  4  1  0  0  0  0
  4  3  1  0  0  0  0
 17  6  1  0  0  0  0
  6  5  1  0  0  0  0
 16  8  1  0  0  0  0
  8  7  1  0  0  0  0
 15 10  1  0  0  0  0
 10  9  1  0  0  0  0
 22 11  1  6  0  0  0
 21 12  1  6  0  0  0
 20 13  1  6  0  0  0
 26 14  1  0  0  0  0
 29 24  1  0  0  0  0
 30 19  1  0  0  0  0
 30 15  2  0  0  0  0
 16 15  1  0  0  0  0
 17 16  2  0  0  0  0
 18 17  1  0  0  0  0
 19 18  2  0  0  0  0
 20 19  1  0  0  0  0
 21 20  1  0  0  0  0
 22 21  1  0  0  0  0
 23 22  1  0  0  0  0
 24 23  1  0  0  0  0
 25 24  2  0  0  0  0
 26 25  1  0  0  0  0
 27 26  2  0  0  0  0
 28 27  1  0  0  0  0
 29 28  2  0  0  0  0
 30 29  1  0  0  0  0
M  END
>  <cdx:fragmentId>
112679

$$$$
