21428.cdx
  Mrv1902 05222410192D          

  9  9  0  0  0  0            999 V2000
    3.5896   -2.8383    0.0000 C   0  0  0  0  0  0  0  0  0  0  0  0
    3.5896   -3.6633    0.0000 C   0  0  0  0  0  0  0  0  0  0  0  0
    2.8751   -4.0758    0.0000 C   0  0  0  0  0  0  0  0  0  0  0  0
    2.1606   -3.6633    0.0000 C   0  0  0  0  0  0  0  0  0  0  0  0
    2.1606   -2.8383    0.0000 C   0  0  0  0  0  0  0  0  0  0  0  0
    2.8751   -2.4258    0.0000 C   0  0  0  0  0  0  0  0  0  0  0  0
    4.3040   -2.4258    0.0000 O   0  0  0  0  0  0  0  0  0  0  0  0
    2.8751   -1.6008    0.0000 C   0  0  0  0  0  0  0  0  0  0  0  0
    4.3040   -4.0758    0.0000 C   0  0  0  0  0  0  0  0  0  0  0  0
  1  2  1  0  0  0  0
  2  3  1  0  0  0  0
  3  4  1  0  0  0  0
  4  5  1  0  0  0  0
  5  6  1  0  0  0  0
  1  6  1  0  0  0  0
  1  7  1  0  0  0  0
  6  8  1  0  0  0  0
  2  9  1  0  0  0  0
M  END
>  <cdx:groupId>
29

>  <cdx:fragmentId>
5

$$$$
