2143.cdx
  Mrv1902 05222410272D          

 18 18  0  0  0  0            999 V2000
    2.8924   -7.0579    0.0000 O   0  0  0  0  0  0  0  0  0  0  0  0
    4.3213   -5.4079    0.0000 C   0  0  0  0  0  0  0  0  0  0  0  0
    3.6068   -5.8204    0.0000 C   0  0  0  0  0  0  0  0  0  0  0  0
    3.6068   -6.6454    0.0000 C   0  0  0  0  0  0  0  0  0  0  0  0
    4.3213   -7.0579    0.0000 C   0  0  0  0  0  0  0  0  0  0  0  0
    5.0358   -6.6454    0.0000 C   0  0  0  0  0  0  0  0  0  0  0  0
    5.0358   -5.8204    0.0000 C   0  0  0  0  0  0  0  0  0  0  0  0
    7.1792   -4.5829    0.0000 O   0  0  0  0  0  0  0  0  0  0  0  0
   10.7515   -5.8204    0.0000 C   0  0  0  0  0  0  0  0  0  0  0  0
   10.0371   -5.4079    0.0000 C   0  0  0  0  0  0  0  0  0  0  0  0
    9.3226   -5.8204    0.0000 C   0  0  0  0  0  0  0  0  0  0  0  0
    8.6081   -5.4079    0.0000 C   0  0  0  0  0  0  0  0  0  0  0  0
    7.8937   -5.8204    0.0000 C   0  0  0  0  0  0  0  0  0  0  0  0
    7.1792   -5.4079    0.0000 C   0  0  0  0  0  0  0  0  0  0  0  0
    6.4647   -5.8204    0.0000 C   0  0  0  0  0  0  0  0  0  0  0  0
    5.7502   -5.4079    0.0000 C   0  0  0  0  0  0  0  0  0  0  0  0
    2.8924   -5.4079    0.0000 O   0  0  0  0  0  0  0  0  0  0  0  0
    2.1779   -5.8204    0.0000 C   0  0  0  0  0  0  0  0  0  0  0  0
  4  1  1  0  0  0  0
  2  7  1  0  0  0  0
  3  2  2  0  0  0  0
  4  3  1  0  0  0  0
  5  4  2  0  0  0  0
  6  5  1  0  0  0  0
  7  6  2  0  0  0  0
 16  7  1  0  0  0  0
 14  8  2  0  0  0  0
 10  9  2  0  0  0  0
 11 10  1  0  0  0  0
 12 11  1  0  0  0  0
 13 12  1  0  0  0  0
 14 13  1  0  0  0  0
 15 14  1  0  0  0  0
 16 15  1  0  0  0  0
  3 17  1  0  0  0  0
 17 18  1  0  0  0  0
M  END
>  <cdx:fragmentId>
3

$$$$
