2146.cdx
  Mrv1902 05222410272D          

 20 20  0  0  0  0            999 V2000
    2.4370   -7.3012    0.0000 C   0  0  0  0  0  0  0  0  0  0  0  0
    2.4370   -8.1263    0.0000 C   0  0  0  0  0  0  0  0  0  0  0  0
    3.1515   -8.5388    0.0000 C   0  0  0  0  0  0  0  0  0  0  0  0
    3.8660   -8.1263    0.0000 C   0  0  0  0  0  0  0  0  0  0  0  0
    3.8660   -7.3012    0.0000 C   0  0  0  0  0  0  0  0  0  0  0  0
    3.1515   -6.8888    0.0000 C   0  0  0  0  0  0  0  0  0  0  0  0
    1.7226   -6.8888    0.0000 O   0  0  0  0  0  0  0  0  0  0  0  0
    1.0081   -7.3012    0.0000 C   0  0  0  0  0  0  0  0  0  0  0  0
    1.7226   -8.5388    0.0000 O   0  0  0  0  0  0  0  0  0  0  0  0
    4.6085   -6.8888    0.0000 C   0  0  0  0  0  0  0  0  0  0  0  0
    5.3229   -7.3012    0.0000 C   0  0  0  0  0  0  0  0  0  0  0  0
    6.0374   -6.8888    0.0000 C   0  0  0  0  0  0  0  0  0  0  0  0
    6.7519   -7.3012    0.0000 C   0  0  0  0  0  0  0  0  0  0  0  0
    8.8953   -3.5887    0.0000 C   0  0  0  0  0  0  0  0  0  0  0  0
    8.8953   -4.4137    0.0000 C   0  0  0  0  0  0  0  0  0  0  0  0
    8.1808   -4.8262    0.0000 C   0  0  0  0  0  0  0  0  0  0  0  0
    8.1808   -5.6512    0.0000 C   0  0  0  0  0  0  0  0  0  0  0  0
    7.4664   -6.0638    0.0000 C   0  0  0  0  0  0  0  0  0  0  0  0
    7.4664   -6.8888    0.0000 C   0  0  0  0  0  0  0  0  0  0  0  0
    6.0374   -6.0638    0.0000 O   0  0  0  0  0  0  0  0  0  0  0  0
  1  2  2  0  0  0  0
  2  3  1  0  0  0  0
  3  4  2  0  0  0  0
  4  5  1  0  0  0  0
  5  6  2  0  0  0  0
  6  1  1  0  0  0  0
  1  7  1  0  0  0  0
  7  8  1  0  0  0  0
  2  9  1  0  0  0  0
 10 11  1  0  0  0  0
 11 12  1  0  0  0  0
 12 13  1  0  0  0  0
 15 14  1  0  0  0  0
 13 19  2  0  0  0  0
 16 15  1  0  0  0  0
 17 16  1  0  0  0  0
 18 17  1  0  0  0  0
 19 18  1  0  0  0  0
 10  5  1  0  0  0  0
 12 20  2  0  0  0  0
M  END
>  <cdx:fragmentId>
27

$$$$
