214696.cdx
  Mrv1902 05222410262D          

 38 40  0  0  0  0            999 V2000
    4.3726   -5.4271    0.0000 C   0  0  0  0  0  0  0  0  0  0  0  0
    5.0869   -5.8399    0.0000 C   0  0  0  0  0  0  0  0  0  0  0  0
    4.3730   -4.6021    0.0000 O   0  0  0  0  0  0  0  0  0  0  0  0
    3.6580   -5.8392    0.0000 O   0  0  0  0  0  0  0  0  0  0  0  0
    5.8016   -5.4277    0.0000 C   0  0  0  0  0  0  0  0  0  0  0  0
    6.5158   -5.8406    0.0000 C   0  0  0  0  0  0  0  0  0  0  0  0
    7.2305   -5.4284    0.0000 C   0  0  0  0  0  0  0  0  0  0  0  0
    7.2309   -4.6034    0.0000 C   0  0  0  0  0  0  0  0  0  0  0  0
    6.5166   -4.1906    0.0000 C   0  0  0  0  0  0  0  0  0  0  0  0
    5.8020   -4.6027    0.0000 C   0  0  0  0  0  0  0  0  0  0  0  0
    6.5154   -6.6656    0.0000 O   0  0  0  0  0  0  0  0  0  0  0  0
    5.0865   -6.6649    0.0000 O   0  0  0  0  0  0  0  0  0  0  0  0
    5.8008   -7.0777    0.0000 C   0  0  2  0  0  0  0  0  0  0  0  0
    5.8004   -7.9027    0.0000 C   0  0  1  0  0  0  0  0  0  0  0  0
    5.0857   -8.3149    0.0000 C   0  0  2  0  0  0  0  0  0  0  0  0
    4.3714   -7.9021    0.0000 C   0  0  1  0  0  0  0  0  0  0  0  0
    4.3718   -7.0771    0.0000 C   0  0  1  0  0  0  0  0  0  0  0  0
    3.6576   -6.6642    0.0000 C   0  0  0  0  0  0  0  0  0  0  0  0
    2.9429   -7.0764    0.0000 O   0  0  0  0  0  0  0  0  0  0  0  0
    3.6568   -8.3142    0.0000 O   0  0  0  0  0  0  0  0  0  0  0  0
    5.0853   -9.1399    0.0000 O   0  0  0  0  0  0  0  0  0  0  0  0
    6.5147   -8.3156    0.0000 O   0  0  0  0  0  0  0  0  0  0  0  0
    7.9448   -5.8413    0.0000 C   0  0  0  0  0  0  0  0  0  0  0  0
    8.6594   -5.4291    0.0000 C   0  0  1  0  0  0  0  0  0  0  0  0
    9.8590   -5.1747    0.0000 O   0  0  0  0  0  0  0  0  0  0  0  0
    9.3737   -5.8419    0.0000 C   0  0  1  0  0  0  0  0  0  0  0  0
    9.8583   -6.5096    0.0000 C   0  0  0  0  0  0  0  0  0  0  0  0
   10.6431   -6.2551    0.0000 C   0  0  0  0  0  0  0  0  0  0  0  0
   10.6435   -5.4301    0.0000 C   0  0  1  0  0  0  0  0  0  0  0  0
    8.6591   -6.2541    0.0000 C   0  0  0  0  0  0  0  0  0  0  0  0
   10.8986   -4.2310    0.0000 C   0  0  0  0  0  0  0  0  0  0  0  0
   11.3111   -4.9455    0.0000 C   0  0  0  0  0  0  0  0  0  0  0  0
   11.7236   -5.6599    0.0000 C   0  0  0  0  0  0  0  0  0  0  0  0
   11.9788   -4.4608    0.0000 O   0  0  0  0  0  0  0  0  0  0  0  0
    6.5170   -3.3656    0.0000 O   0  0  0  0  0  0  0  0  0  0  0  0
    2.9437   -5.4264    0.0000 C   0  0  0  0  0  0  0  0  0  0  0  0
   10.4299   -4.6332    0.0000 H   0  0  0  0  0  0  0  0  0  0  0  0
    8.6598   -4.6041    0.0000 O   0  0  0  0  0  0  0  0  0  0  0  0
  1  2  1  0  0  0  0
  1  3  2  0  0  0  0
  1  4  1  0  0  0  0
  5  6  1  0  0  0  0
  6  7  2  0  0  0  0
  7  8  1  0  0  0  0
  8  9  2  0  0  0  0
  9 10  1  0  0  0  0
  5 10  2  0  0  0  0
 12 13  1  0  0  0  0
 13 14  1  0  0  0  0
 14 15  1  0  0  0  0
 15 16  1  0  0  0  0
 16 17  1  0  0  0  0
 12 17  1  0  0  0  0
 18 19  1  0  0  0  0
 17 18  1  1  0  0  0
 16 20  1  6  0  0  0
 15 21  1  1  0  0  0
 14 22  1  6  0  0  0
 13 11  1  1  0  0  0
  6 11  1  0  0  0  0
 23 24  1  0  0  0  0
 25 26  1  0  0  0  0
 26 27  1  0  0  0  0
 27 28  1  0  0  0  0
 28 29  1  0  0  0  0
 25 29  1  0  0  0  0
 26 30  1  6  0  0  0
 31 32  1  0  0  0  0
 32 33  1  0  0  0  0
 32 34  1  0  0  0  0
 29 32  1  0  0  0  0
 26 24  1  0  0  0  0
  7 23  1  0  0  0  0
  9 35  1  0  0  0  0
  2  5  1  0  0  0  0
  4 36  1  0  0  0  0
 29 37  1  1  0  0  0
 24 38  1  6  0  0  0
M  END
>  <cdx:fragmentId>
149097

$$$$
