14021478.cdx
  Mrv1902 05222410262D          

 19 20  0  0  0  0            999 V2000
    7.3886  -13.8297    0.0000 C   0  0  0  0  0  0  0  0  0  0  0  0
    7.3886  -14.6546    0.0000 C   0  0  0  0  0  0  0  0  0  0  0  0
    6.6741  -15.0671    0.0000 C   0  0  0  0  0  0  0  0  0  0  0  0
    6.6741  -15.8921    0.0000 C   0  0  2  0  0  0  0  0  0  0  0  0
    7.3886  -16.3045    0.0000 C   0  0  0  0  0  0  0  0  0  0  0  0
    8.1029  -15.8921    0.0000 C   0  0  0  0  0  0  0  0  0  0  0  0
    8.1029  -15.0671    0.0000 C   0  0  1  0  0  0  0  0  0  0  0  0
    8.8174  -14.6546    0.0000 C   0  0  1  0  0  0  0  0  0  0  0  0
    9.5319  -15.0671    0.0000 C   0  0  1  0  0  0  0  0  0  0  0  0
    9.5319  -15.8921    0.0000 C   0  0  0  0  0  0  0  0  0  0  0  0
    8.8174  -16.3045    0.0000 C   0  0  0  0  0  0  0  0  0  0  0  0
    8.8174  -17.1297    0.0000 C   0  0  0  0  0  0  0  0  0  0  0  0
   10.1450  -14.5153    0.0000 O   0  0  0  0  0  0  0  0  0  0  0  0
    9.8092  -13.7616    0.0000 O   0  0  0  0  0  0  0  0  0  0  0  0
    8.9889  -13.8477    0.0000 C   0  0  0  0  0  0  0  0  0  0  0  0
    8.2043  -13.5927    0.0000 C   0  0  0  0  0  0  0  0  0  0  0  0
    8.8174  -13.0407    0.0000 C   0  0  0  0  0  0  0  0  0  0  0  0
    8.1029  -14.2422    0.0000 C   0  0  0  0  0  0  0  0  0  0  0  0
    5.9596  -16.3045    0.0000 O   0  0  0  0  0  0  0  0  0  0  0  0
  2  1  1  1  0  0  0
  3  4  1  0  0  0  0
  4  5  1  0  0  0  0
  5  6  1  0  0  0  0
  6  7  1  0  0  0  0
  2  7  1  0  0  0  0
  7  8  1  0  0  0  0
  8  9  1  0  0  0  0
  9 10  1  0  0  0  0
 10 11  1  0  0  0  0
  6 11  1  0  0  0  0
 11 12  2  0  0  0  0
 13 14  1  0  0  0  0
 14 15  1  0  0  0  0
  8 15  1  6  0  0  0
 15 16  1  0  0  0  0
 15 17  1  0  0  0  0
  7 18  1  1  0  0  0
  4 19  1  6  0  0  0
  9 13  1  6  0  0  0
M  END
>  <cdx:fragmentId>
1

$$$$
