21476.cdx
  Mrv1902 05222410212D          

 10 10  0  0  0  0            999 V2000
    6.2577   -3.9108    0.0000 C   0  0  0  0  0  0  0  0  0  0  0  0
    5.5432   -4.3233    0.0000 C   0  0  0  0  0  0  0  0  0  0  0  0
    4.8287   -3.9108    0.0000 C   0  0  0  0  0  0  0  0  0  0  0  0
    4.8287   -3.0858    0.0000 C   0  0  0  0  0  0  0  0  0  0  0  0
    4.1143   -2.6733    0.0000 C   0  0  0  0  0  0  0  0  0  0  0  0
    3.3998   -3.0858    0.0000 C   0  0  0  0  0  0  0  0  0  0  0  0
    3.3998   -3.9108    0.0000 C   0  0  0  0  0  0  0  0  0  0  0  0
    4.1143   -4.3233    0.0000 C   0  0  0  0  0  0  0  0  0  0  0  0
    2.6853   -4.3233    0.0000 C   0  0  0  0  0  0  0  0  0  0  0  0
    4.1143   -1.8483    0.0000 C   0  0  0  0  0  0  0  0  0  0  0  0
  1  2  2  0  0  0  0
  2  3  1  0  0  0  0
  3  4  1  0  0  0  0
  4  5  2  0  0  0  0
  5  6  1  0  0  0  0
  6  7  2  0  0  0  0
  7  8  1  0  0  0  0
  3  8  2  0  0  0  0
  7  9  1  0  0  0  0
  5 10  1  0  0  0  0
M  END
>  <cdx:groupId>
32

>  <cdx:fragmentId>
5

$$$$
