21499.cdx
  Mrv1902 05222410222D          

 13 12  0  0  0  0            999 V2000
    8.8762   -3.2953    0.0000 N   0  0  0  0  0  0  0  0  0  0  0  0
    8.1617   -3.7078    0.0000 C   0  0  0  0  0  0  0  0  0  0  0  0
    7.4473   -3.2953    0.0000 C   0  0  0  0  0  0  0  0  0  0  0  0
    6.7328   -3.7078    0.0000 C   0  0  0  0  0  0  0  0  0  0  0  0
    6.0183   -3.2953    0.0000 O   0  0  0  0  0  0  0  0  0  0  0  0
    5.3039   -3.7078    0.0000 C   0  0  0  0  0  0  0  0  0  0  0  0
    4.5894   -3.2953    0.0000 C   0  0  0  0  0  0  0  0  0  0  0  0
    3.8749   -3.7078    0.0000 C   0  0  0  0  0  0  0  0  0  0  0  0
    3.1605   -3.2953    0.0000 C   0  0  0  0  0  0  0  0  0  0  0  0
    2.4460   -3.7078    0.0000 C   0  0  0  0  0  0  0  0  0  0  0  0
    1.7315   -3.2953    0.0000 C   0  0  0  0  0  0  0  0  0  0  0  0
    4.5894   -2.4703    0.0000 C   0  0  0  0  0  0  0  0  0  0  0  0
    3.8749   -2.0578    0.0000 C   0  0  0  0  0  0  0  0  0  0  0  0
  2  3  1  0  0  0  0
  3  4  1  0  0  0  0
  1  2  1  0  0  0  0
  6  7  1  0  0  0  0
  7  8  1  0  0  0  0
  8  9  1  0  0  0  0
  9 10  1  0  0  0  0
 10 11  1  0  0  0  0
  5  6  1  0  0  0  0
 12 13  1  0  0  0  0
  7 12  1  0  0  0  0
  4  5  1  0  0  0  0
M  END
>  <cdx:groupId>
40

>  <cdx:fragmentId>
15

$$$$
