2150.cdx
  Mrv1902 05222410262D          

 24 25  0  0  0  0            999 V2000
    3.9352   -7.3012    0.0000 C   0  0  0  0  0  0  0  0  0  0  0  0
    4.6497   -6.8888    0.0000 C   0  0  0  0  0  0  0  0  0  0  0  0
    5.3642   -7.3012    0.0000 C   0  0  0  0  0  0  0  0  0  0  0  0
    6.0787   -6.8888    0.0000 C   0  0  0  0  0  0  0  0  0  0  0  0
    6.7931   -7.3012    0.0000 C   0  0  0  0  0  0  0  0  0  0  0  0
    7.5076   -6.8888    0.0000 C   0  0  0  0  0  0  0  0  0  0  0  0
    8.2221   -7.3012    0.0000 C   0  0  0  0  0  0  0  0  0  0  0  0
    8.9365   -6.8888    0.0000 C   0  0  0  0  0  0  0  0  0  0  0  0
    9.6510   -7.3012    0.0000 C   0  0  0  0  0  0  0  0  0  0  0  0
    7.5076   -6.0638    0.0000 O   0  0  0  0  0  0  0  0  0  0  0  0
    3.2208   -6.8888    0.0000 C   0  0  0  0  0  0  0  0  0  0  0  0
    2.5063   -7.3012    0.0000 C   0  0  0  0  0  0  0  0  0  0  0  0
    2.5063   -8.1263    0.0000 C   0  0  0  0  0  0  0  0  0  0  0  0
    3.2208   -8.5388    0.0000 C   0  0  0  0  0  0  0  0  0  0  0  0
    3.9352   -8.1263    0.0000 C   0  0  0  0  0  0  0  0  0  0  0  0
    9.6510   -8.1263    0.0000 C   0  0  0  0  0  0  0  0  0  0  0  0
   10.3655   -8.5388    0.0000 C   0  0  0  0  0  0  0  0  0  0  0  0
   11.0800   -8.1263    0.0000 C   0  0  0  0  0  0  0  0  0  0  0  0
   11.0800   -7.3012    0.0000 C   0  0  0  0  0  0  0  0  0  0  0  0
   10.3655   -6.8888    0.0000 C   0  0  0  0  0  0  0  0  0  0  0  0
   11.7944   -8.5388    0.0000 O   0  0  0  0  0  0  0  0  0  0  0  0
    1.7918   -8.5388    0.0000 O   0  0  0  0  0  0  0  0  0  0  0  0
    3.2208   -9.3637    0.0000 O   0  0  0  0  0  0  0  0  0  0  0  0
    2.5063   -9.7763    0.0000 C   0  0  0  0  0  0  0  0  0  0  0  0
  1  2  1  0  0  0  0
  2  3  2  0  0  0  0
  3  4  1  0  0  0  0
  4  5  2  0  0  0  0
  5  6  1  0  0  0  0
  6  7  1  0  0  0  0
  7  8  2  0  0  0  0
  8  9  1  0  0  0  0
  6 10  2  0  0  0  0
  1 11  2  0  0  0  0
 11 12  1  0  0  0  0
 12 13  2  0  0  0  0
 13 14  1  0  0  0  0
 14 15  2  0  0  0  0
 15  1  1  0  0  0  0
  9 16  2  0  0  0  0
 16 17  1  0  0  0  0
 17 18  2  0  0  0  0
 18 19  1  0  0  0  0
 19 20  2  0  0  0  0
 20  9  1  0  0  0  0
 18 21  1  0  0  0  0
 13 22  1  0  0  0  0
 14 23  1  0  0  0  0
 23 24  1  0  0  0  0
M  END
>  <cdx:fragmentId>
3

$$$$
