2151.cdx
  Mrv1902 05222410262D          

 24 25  0  0  0  0            999 V2000
    3.7290   -6.9300    0.0000 C   0  0  0  0  0  0  0  0  0  0  0  0
    4.4435   -6.5175    0.0000 C   0  0  0  0  0  0  0  0  0  0  0  0
    5.1579   -6.9300    0.0000 C   0  0  0  0  0  0  0  0  0  0  0  0
    5.8724   -6.5175    0.0000 C   0  0  0  0  0  0  0  0  0  0  0  0
    6.5869   -6.9300    0.0000 C   0  0  0  0  0  0  0  0  0  0  0  0
    7.3014   -6.5175    0.0000 C   0  0  0  0  0  0  0  0  0  0  0  0
    8.0158   -6.9300    0.0000 C   0  0  0  0  0  0  0  0  0  0  0  0
    8.7303   -6.5175    0.0000 C   0  0  0  0  0  0  0  0  0  0  0  0
    9.4448   -6.9300    0.0000 C   0  0  0  0  0  0  0  0  0  0  0  0
    5.8724   -5.6925    0.0000 O   0  0  0  0  0  0  0  0  0  0  0  0
    3.0145   -6.5175    0.0000 C   0  0  0  0  0  0  0  0  0  0  0  0
    2.3001   -6.9300    0.0000 C   0  0  0  0  0  0  0  0  0  0  0  0
    2.3001   -7.7550    0.0000 C   0  0  0  0  0  0  0  0  0  0  0  0
    3.0145   -8.1675    0.0000 C   0  0  0  0  0  0  0  0  0  0  0  0
    3.7290   -7.7550    0.0000 C   0  0  0  0  0  0  0  0  0  0  0  0
    9.4448   -7.7550    0.0000 C   0  0  0  0  0  0  0  0  0  0  0  0
   10.1592   -8.1675    0.0000 C   0  0  0  0  0  0  0  0  0  0  0  0
   10.8737   -7.7550    0.0000 C   0  0  0  0  0  0  0  0  0  0  0  0
   10.8737   -6.9300    0.0000 C   0  0  0  0  0  0  0  0  0  0  0  0
   10.1592   -6.5175    0.0000 C   0  0  0  0  0  0  0  0  0  0  0  0
    1.5856   -8.1675    0.0000 O   0  0  0  0  0  0  0  0  0  0  0  0
   11.5882   -8.1675    0.0000 O   0  0  0  0  0  0  0  0  0  0  0  0
   10.1592   -8.9925    0.0000 O   0  0  0  0  0  0  0  0  0  0  0  0
   10.8737   -9.4050    0.0000 C   0  0  0  0  0  0  0  0  0  0  0  0
  1  2  1  0  0  0  0
  2  3  1  0  0  0  0
  3  4  1  0  0  0  0
  4  5  1  0  0  0  0
  5  6  2  0  0  0  0
  6  7  1  0  0  0  0
  7  8  2  0  0  0  0
  8  9  1  0  0  0  0
  4 10  2  0  0  0  0
  1 11  2  0  0  0  0
 11 12  1  0  0  0  0
 12 13  2  0  0  0  0
 13 14  1  0  0  0  0
 14 15  2  0  0  0  0
 15  1  1  0  0  0  0
  9 16  2  0  0  0  0
 16 17  1  0  0  0  0
 17 18  2  0  0  0  0
 18 19  1  0  0  0  0
 19 20  2  0  0  0  0
 20  9  1  0  0  0  0
 13 21  1  0  0  0  0
 18 22  1  0  0  0  0
 17 23  1  0  0  0  0
 23 24  1  0  0  0  0
M  END
>  <cdx:fragmentId>
3

$$$$
