2153.cdx
  Mrv1902 05222410262D          

 13 14  0  0  0  0            999 V2000
    2.7717   -3.7474    0.0000 N   0  0  0  0  0  0  0  0  0  0  0  0
    2.2868   -3.0800    0.0000 C   0  0  0  0  0  0  0  0  0  0  0  0
    2.7717   -2.4126    0.0000 N   0  0  0  0  0  0  0  0  0  0  0  0
    3.5563   -2.6675    0.0000 C   0  0  0  0  0  0  0  0  0  0  0  0
    4.2708   -2.2550    0.0000 N   0  0  0  0  0  0  0  0  0  0  0  0
    4.9853   -2.6675    0.0000 C   0  0  0  0  0  0  0  0  0  0  0  0
    4.9853   -3.4925    0.0000 N   0  0  0  0  0  0  0  0  0  0  0  0
    4.2708   -3.9050    0.0000 C   0  0  0  0  0  0  0  0  0  0  0  0
    3.5563   -3.4925    0.0000 C   0  0  0  0  0  0  0  0  0  0  0  0
    5.6997   -2.2550    0.0000 O   0  0  0  0  0  0  0  0  0  0  0  0
    4.2708   -4.7300    0.0000 O   0  0  0  0  0  0  0  0  0  0  0  0
    4.2708   -1.4300    0.0000 C   0  0  0  0  0  0  0  0  0  0  0  0
    5.6997   -3.9050    0.0000 C   0  0  0  0  0  0  0  0  0  0  0  0
  1  2  1  0  0  0  0
  2  3  2  0  0  0  0
  3  4  1  0  0  0  0
  4  5  1  0  0  0  0
  5  6  1  0  0  0  0
  6  7  1  0  0  0  0
  7  8  1  0  0  0  0
  8  9  1  0  0  0  0
  1  9  1  0  0  0  0
  4  9  2  0  0  0  0
  6 10  2  0  0  0  0
  8 11  2  0  0  0  0
  5 12  1  0  0  0  0
  7 13  1  0  0  0  0
M  END
>  <cdx:groupId>
42

>  <cdx:fragmentId>
5

$$$$
