2154.cdx
  Mrv1902 05222410282D          

 22 23  0  0  0  0            999 V2000
    2.5195   -8.2294    0.0000 C   0  0  0  0  0  0  0  0  0  0  0  0
    2.5195   -9.0544    0.0000 C   0  0  0  0  0  0  0  0  0  0  0  0
    3.2340   -9.4669    0.0000 C   0  0  0  0  0  0  0  0  0  0  0  0
    3.9485   -9.0544    0.0000 C   0  0  0  0  0  0  0  0  0  0  0  0
    3.9485   -8.2294    0.0000 C   0  0  0  0  0  0  0  0  0  0  0  0
    3.2340   -7.8169    0.0000 C   0  0  0  0  0  0  0  0  0  0  0  0
    4.6629   -7.8169    0.0000 C   0  0  0  0  0  0  0  0  0  0  0  0
    5.3774   -8.2294    0.0000 C   0  0  0  0  0  0  0  0  0  0  0  0
    6.0919   -7.8169    0.0000 C   0  0  0  0  0  0  0  0  0  0  0  0
    6.8064   -8.2294    0.0000 C   0  0  0  0  0  0  0  0  0  0  0  0
    7.5208   -7.8169    0.0000 C   0  0  0  0  0  0  0  0  0  0  0  0
    8.2353   -8.2294    0.0000 C   0  0  0  0  0  0  0  0  0  0  0  0
    8.9498   -7.8169    0.0000 C   0  0  0  0  0  0  0  0  0  0  0  0
    9.6642   -8.2294    0.0000 C   0  0  0  0  0  0  0  0  0  0  0  0
    9.6642   -9.0544    0.0000 C   0  0  0  0  0  0  0  0  0  0  0  0
   10.3787   -9.4669    0.0000 C   0  0  0  0  0  0  0  0  0  0  0  0
   11.0932   -9.0544    0.0000 C   0  0  0  0  0  0  0  0  0  0  0  0
   11.0932   -8.2294    0.0000 C   0  0  0  0  0  0  0  0  0  0  0  0
   10.3787   -7.8169    0.0000 C   0  0  0  0  0  0  0  0  0  0  0  0
    1.8051   -9.4669    0.0000 O   0  0  0  0  0  0  0  0  0  0  0  0
    6.0919   -6.9919    0.0000 O   0  0  0  0  0  0  0  0  0  0  0  0
    7.5208   -6.9919    0.0000 O   0  0  0  0  0  0  0  0  0  0  0  0
  1  2  2  0  0  0  0
  2  3  1  0  0  0  0
  3  4  2  0  0  0  0
  4  5  1  0  0  0  0
  5  6  2  0  0  0  0
  6  1  1  0  0  0  0
  5  7  1  0  0  0  0
  7  8  1  0  0  0  0
  8  9  1  0  0  0  0
  9 10  1  0  0  0  0
 10 11  1  0  0  0  0
 11 12  1  0  0  0  0
 12 13  1  0  0  0  0
 13 14  1  0  0  0  0
 14 15  2  0  0  0  0
 15 16  1  0  0  0  0
 16 17  2  0  0  0  0
 17 18  1  0  0  0  0
 18 19  2  0  0  0  0
 19 14  1  0  0  0  0
  2 20  1  0  0  0  0
  9 21  2  0  0  0  0
 11 22  2  0  0  0  0
M  END
>  <cdx:fragmentId>
5

$$$$
