2155.cdx
  Mrv1902 05222410282D          

 32 33  0  0  0  0            999 V2000
    4.9122   -4.4975    0.0000 C   0  0  0  0  0  0  0  0  0  0  0  0
    4.9122   -5.3225    0.0000 C   0  0  0  0  0  0  0  0  0  0  0  0
    5.6266   -5.7350    0.0000 C   0  0  0  0  0  0  0  0  0  0  0  0
    6.3411   -5.3225    0.0000 C   0  0  0  0  0  0  0  0  0  0  0  0
    6.3411   -4.4975    0.0000 C   0  0  0  0  0  0  0  0  0  0  0  0
    5.6266   -4.0850    0.0000 C   0  0  0  0  0  0  0  0  0  0  0  0
    7.0556   -4.0850    0.0000 C   0  0  0  0  0  0  0  0  0  0  0  0
    7.7700   -4.4975    0.0000 C   0  0  0  0  0  0  0  0  0  0  0  0
    8.4845   -4.0850    0.0000 C   0  0  0  0  0  0  0  0  0  0  0  0
    9.1990   -4.4975    0.0000 C   0  0  0  0  0  0  0  0  0  0  0  0
    9.9135   -4.0850    0.0000 C   0  0  0  0  0  0  0  0  0  0  0  0
   10.6279   -4.4975    0.0000 C   0  0  0  0  0  0  0  0  0  0  0  0
   11.3424   -4.0850    0.0000 C   0  0  0  0  0  0  0  0  0  0  0  0
   12.0569   -4.4975    0.0000 C   0  0  0  0  0  0  0  0  0  0  0  0
   12.7713   -4.0850    0.0000 C   0  0  0  0  0  0  0  0  0  0  0  0
   13.4858   -4.4975    0.0000 C   0  0  0  0  0  0  0  0  0  0  0  0
    4.1977   -4.0850    0.0000 O   0  0  0  0  0  0  0  0  0  0  0  0
    4.1977   -5.7350    0.0000 O   0  0  0  0  0  0  0  0  0  0  0  0
    8.4845   -3.2600    0.0000 O   0  0  0  0  0  0  0  0  0  0  0  0
    9.9135   -3.2600    0.0000 O   0  0  0  0  0  0  0  0  0  0  0  0
    3.4832   -4.4975    0.0000 C   0  0  0  0  0  0  0  0  0  0  0  0
    3.3866   -7.9444    0.0000 C   0  0  2  0  0  0  0  0  0  0  0  0
    4.0804   -8.3908    0.0000 C   0  0  2  0  0  0  0  0  0  0  0  0
    4.8139   -8.0131    0.0000 C   0  0  1  0  0  0  0  0  0  0  0  0
    4.8536   -7.1891    0.0000 C   0  0  2  0  0  0  0  0  0  0  0  0
    4.1598   -6.7427    0.0000 C   0  0  1  0  0  0  0  0  0  0  0  0
    3.4263   -7.1203    0.0000 O   0  0  0  0  0  0  0  0  0  0  0  0
    2.6531   -8.3220    0.0000 C   0  0  0  0  0  0  0  0  0  0  0  0
    5.5077   -8.4595    0.0000 O   0  0  0  0  0  0  0  0  0  0  0  0
    4.0407   -9.2148    0.0000 O   0  0  0  0  0  0  0  0  0  0  0  0
    5.5871   -6.8115    0.0000 O   0  0  0  0  0  0  0  0  0  0  0  0
    2.6134   -9.1460    0.0000 O   0  0  0  0  0  0  0  0  0  0  0  0
  1  2  2  0  0  0  0
  2  3  1  0  0  0  0
  3  4  2  0  0  0  0
  4  5  1  0  0  0  0
  5  6  2  0  0  0  0
  6  1  1  0  0  0  0
  5  7  1  0  0  0  0
  7  8  1  0  0  0  0
  8  9  1  0  0  0  0
  9 10  1  0  0  0  0
 10 11  1  0  0  0  0
 11 12  1  0  0  0  0
 12 13  1  0  0  0  0
 13 14  1  0  0  0  0
 14 15  1  0  0  0  0
 15 16  1  0  0  0  0
  1 17  1  0  0  0  0
  2 18  1  0  0  0  0
  9 19  1  0  0  0  0
 11 20  1  0  0  0  0
 17 21  1  0  0  0  0
 22 23  1  0  0  0  0
 23 24  1  0  0  0  0
 24 25  1  0  0  0  0
 25 26  1  0  0  0  0
 26 27  1  0  0  0  0
 27 22  1  0  0  0  0
 22 28  1  1  0  0  0
 24 29  1  1  0  0  0
 23 30  1  6  0  0  0
 25 31  1  6  0  0  0
 28 32  1  0  0  0  0
 26 18  1  1  0  0  0
M  END
>  <cdx:fragmentId>
5

$$$$
