2156.cdx
  Mrv1902 05222410272D          

 27 30  0  0  0  0            999 V2000
    8.7398   -9.8693    0.0000 O   0  0  0  0  0  0  0  0  0  0  0  0
    5.8821   -9.8965    0.0000 C   0  0  0  0  0  0  0  0  0  0  0  0
    5.1716  -10.3157    0.0000 C   0  0  0  0  0  0  0  0  0  0  0  0
    5.1794  -11.1407    0.0000 C   0  0  0  0  0  0  0  0  0  0  0  0
    5.8978  -11.5464    0.0000 C   0  0  0  0  0  0  0  0  0  0  0  0
    6.6004  -10.3021    0.0000 C   0  0  0  0  0  0  0  0  0  0  0  0
    6.6083  -11.1271    0.0000 C   0  0  0  0  0  0  0  0  0  0  0  0
    7.3267  -11.5328    0.0000 C   0  0  0  0  0  0  0  0  0  0  0  0
    8.0372  -11.1135    0.0000 C   0  0  0  0  0  0  0  0  0  0  0  0
    8.0293  -10.2886    0.0000 C   0  0  0  0  0  0  0  0  0  0  0  0
    7.3110   -9.8829    0.0000 C   0  0  0  0  0  0  0  0  0  0  0  0
    7.3031   -9.0579    0.0000 N   0  0  0  0  0  0  0  0  0  0  0  0
    8.0136   -8.6386    0.0000 N   0  0  0  0  0  0  0  0  0  0  0  0
    7.2796   -6.5830    0.0000 C   0  0  0  0  0  0  0  0  0  0  0  0
    7.2874   -7.4080    0.0000 C   0  0  0  0  0  0  0  0  0  0  0  0
    8.0058   -7.8137    0.0000 C   0  0  0  0  0  0  0  0  0  0  0  0
    8.7163   -7.3944    0.0000 C   0  0  0  0  0  0  0  0  0  0  0  0
    8.7085   -6.5694    0.0000 C   0  0  0  0  0  0  0  0  0  0  0  0
    7.9901   -6.1637    0.0000 C   0  0  0  0  0  0  0  0  0  0  0  0
    7.9823   -5.3388    0.0000 N   0  0  0  0  0  0  0  0  0  0  0  0
    8.6928   -4.9195    0.0000 N   0  0  0  0  0  0  0  0  0  0  0  0
    7.9587   -2.8639    0.0000 C   0  0  0  0  0  0  0  0  0  0  0  0
    7.9666   -3.6889    0.0000 C   0  0  0  0  0  0  0  0  0  0  0  0
    8.6849   -4.0945    0.0000 C   0  0  0  0  0  0  0  0  0  0  0  0
    9.3955   -3.6753    0.0000 C   0  0  0  0  0  0  0  0  0  0  0  0
    9.3876   -2.8503    0.0000 C   0  0  0  0  0  0  0  0  0  0  0  0
    8.6692   -2.4446    0.0000 C   0  0  0  0  0  0  0  0  0  0  0  0
 10  1  1  0  0  0  0
  2  6  2  0  0  0  0
  3  2  1  0  0  0  0
  4  3  2  0  0  0  0
  5  4  1  0  0  0  0
  7  5  2  0  0  0  0
  6 11  1  0  0  0  0
  7  6  1  0  0  0  0
  8  7  1  0  0  0  0
  9  8  2  0  0  0  0
 10  9  1  0  0  0  0
 11 10  2  0  0  0  0
 12 11  1  0  0  0  0
 13 12  2  0  0  0  0
 16 13  1  0  0  0  0
 14 19  2  0  0  0  0
 15 14  1  0  0  0  0
 16 15  2  0  0  0  0
 17 16  1  0  0  0  0
 18 17  2  0  0  0  0
 19 18  1  0  0  0  0
 20 19  1  0  0  0  0
 21 20  2  0  0  0  0
 24 21  1  0  0  0  0
 22 27  2  0  0  0  0
 23 22  1  0  0  0  0
 24 23  2  0  0  0  0
 25 24  1  0  0  0  0
 26 25  2  0  0  0  0
 27 26  1  0  0  0  0
M  END
>  <cdx:fragmentId>
5

$$$$
