215736.cdx
  Mrv1902 05222410222D          

 54 59  0  0  0  0            999 V2000
    4.7381  -11.6125    0.0000 O   0  0  0  0  0  0  0  0  0  0  0  0
    5.5423  -11.4286    0.0000 C   0  0  0  0  0  0  0  0  0  0  0  0
    5.6160  -10.6069    0.0000 C   0  0  1  0  0  0  0  0  0  0  0  0
    4.8572  -10.2830    0.0000 C   0  0  2  0  0  0  0  0  0  0  0  0
    4.3147  -10.9045    0.0000 C   0  0  0  0  0  0  0  0  0  0  0  0
    6.1638  -11.9712    0.0000 O   0  0  0  0  0  0  0  0  0  0  0  0
    6.3240  -10.1835    0.0000 C   0  0  0  0  0  0  0  0  0  0  0  0
    6.3114   -9.3586    0.0000 C   0  0  0  0  0  0  0  0  0  0  0  0
    7.0194   -8.9352    0.0000 C   0  0  0  0  0  0  0  0  0  0  0  0
    7.0068   -8.1103    0.0000 C   0  0  0  0  0  0  0  0  0  0  0  0
    6.2861   -7.7088    0.0000 C   0  0  0  0  0  0  0  0  0  0  0  0
    5.5780   -8.1322    0.0000 C   0  0  0  0  0  0  0  0  0  0  0  0
    5.5907   -8.9571    0.0000 C   0  0  0  0  0  0  0  0  0  0  0  0
    4.8573   -7.7307    0.0000 O   0  0  0  0  0  0  0  0  0  0  0  0
    4.1492   -8.1541    0.0000 C   0  0  0  0  0  0  0  0  0  0  0  0
    6.2734   -6.8839    0.0000 O   0  0  0  0  0  0  0  0  0  0  0  0
    7.7148   -7.6869    0.0000 C   0  0  0  0  0  0  0  0  0  0  0  0
    8.4356   -8.0884    0.0000 C   0  0  0  0  0  0  0  0  0  0  0  0
    9.1436   -7.6650    0.0000 C   0  0  0  0  0  0  0  0  0  0  0  0
    9.1310   -6.8401    0.0000 C   0  0  0  0  0  0  0  0  0  0  0  0
    8.4102   -6.4386    0.0000 C   0  0  0  0  0  0  0  0  0  0  0  0
    7.7022   -6.8620    0.0000 C   0  0  0  0  0  0  0  0  0  0  0  0
    9.8643   -8.0664    0.0000 O   0  0  0  0  0  0  0  0  0  0  0  0
   10.5724   -7.6430    0.0000 C   0  0  0  0  0  0  0  0  0  0  0  0
    8.4482   -8.9133    0.0000 O   0  0  0  0  0  0  0  0  0  0  0  0
    8.3976   -5.6137    0.0000 C   0  0  0  0  0  0  0  0  0  0  0  0
    9.9835   -4.1847    0.0000 O   0  0  0  0  0  0  0  0  0  0  0  0
    9.1793   -4.3685    0.0000 C   0  0  0  0  0  0  0  0  0  0  0  0
    9.1056   -5.1902    0.0000 C   0  0  1  0  0  0  0  0  0  0  0  0
    9.8644   -5.5142    0.0000 C   0  0  2  0  0  0  0  0  0  0  0  0
   10.4069   -4.8927    0.0000 C   0  0  0  0  0  0  0  0  0  0  0  0
    8.5578   -3.8260    0.0000 O   0  0  0  0  0  0  0  0  0  0  0  0
   10.0483   -6.3184    0.0000 C   0  0  0  0  0  0  0  0  0  0  0  0
   10.8367   -6.5613    0.0000 C   0  0  0  0  0  0  0  0  0  0  0  0
   11.4413   -5.9999    0.0000 C   0  0  0  0  0  0  0  0  0  0  0  0
   12.2297   -6.2428    0.0000 C   0  0  0  0  0  0  0  0  0  0  0  0
   12.4136   -7.0471    0.0000 C   0  0  0  0  0  0  0  0  0  0  0  0
   11.8090   -7.6084    0.0000 C   0  0  0  0  0  0  0  0  0  0  0  0
   11.0206   -7.3656    0.0000 C   0  0  0  0  0  0  0  0  0  0  0  0
   13.2020   -7.2899    0.0000 O   0  0  0  0  0  0  0  0  0  0  0  0
   13.8066   -6.7286    0.0000 C   0  0  0  0  0  0  0  0  0  0  0  0
   12.8343   -5.6814    0.0000 O   0  0  0  0  0  0  0  0  0  0  0  0
   12.6504   -4.8772    0.0000 C   0  0  0  0  0  0  0  0  0  0  0  0
    4.6734   -9.4787    0.0000 C   0  0  0  0  0  0  0  0  0  0  0  0
    3.8849   -9.2359    0.0000 C   0  0  0  0  0  0  0  0  0  0  0  0
    3.2804   -9.7972    0.0000 C   0  0  0  0  0  0  0  0  0  0  0  0
    2.4919   -9.5544    0.0000 C   0  0  0  0  0  0  0  0  0  0  0  0
    2.3080   -8.7501    0.0000 C   0  0  0  0  0  0  0  0  0  0  0  0
    2.9126   -8.1887    0.0000 C   0  0  0  0  0  0  0  0  0  0  0  0
    3.7010   -8.4316    0.0000 C   0  0  0  0  0  0  0  0  0  0  0  0
    1.5196   -8.5072    0.0000 O   0  0  0  0  0  0  0  0  0  0  0  0
    0.9150   -9.0686    0.0000 C   0  0  0  0  0  0  0  0  0  0  0  0
    1.8874  -10.1157    0.0000 O   0  0  0  0  0  0  0  0  0  0  0  0
    2.1131  -10.9092    0.0000 C   0  0  0  0  0  0  0  0  0  0  0  0
  1  2  1  0  0  0  0
  2  3  1  0  0  0  0
  3  4  1  0  0  0  0
  4  5  1  0  0  0  0
  1  5  1  0  0  0  0
  2  6  2  0  0  0  0
  8  9  1  0  0  0  0
  9 10  2  0  0  0  0
 10 11  1  0  0  0  0
 11 12  2  0  0  0  0
 12 13  1  0  0  0  0
  8 13  2  0  0  0  0
 14 15  1  0  0  0  0
 12 14  1  0  0  0  0
 11 16  1  0  0  0  0
 17 18  1  0  0  0  0
 18 19  2  0  0  0  0
 19 20  1  0  0  0  0
 20 21  2  0  0  0  0
 21 22  1  0  0  0  0
 17 22  2  0  0  0  0
 23 24  1  0  0  0  0
 19 23  1  0  0  0  0
 18 25  1  0  0  0  0
 27 28  1  0  0  0  0
 28 29  1  0  0  0  0
 29 30  1  0  0  0  0
 30 31  1  0  0  0  0
 27 31  1  0  0  0  0
 28 32  2  0  0  0  0
 34 35  1  0  0  0  0
 35 36  2  0  0  0  0
 36 37  1  0  0  0  0
 37 38  2  0  0  0  0
 38 39  1  0  0  0  0
 34 39  2  0  0  0  0
 40 41  1  0  0  0  0
 37 40  1  0  0  0  0
 42 43  1  0  0  0  0
 36 42  1  0  0  0  0
 33 34  1  0  0  0  0
 30 33  1  6  0  0  0
 29 26  1  1  0  0  0
 21 26  1  0  0  0  0
 10 17  1  0  0  0  0
  7  8  1  0  0  0  0
  3  7  1  1  0  0  0
 45 46  1  0  0  0  0
 46 47  2  0  0  0  0
 47 48  1  0  0  0  0
 48 49  2  0  0  0  0
 49 50  1  0  0  0  0
 45 50  2  0  0  0  0
 51 52  1  0  0  0  0
 48 51  1  0  0  0  0
 53 54  1  0  0  0  0
 47 53  1  0  0  0  0
 44 45  1  0  0  0  0
  4 44  1  6  0  0  0
M  END
>  <cdx:fragmentId>
71

$$$$
