21596.cdx
  Mrv1902 05222410272D          

 13 12  0  0  0  0            999 V2000
    6.1900   -2.2764    0.0000 C   0  0  0  0  0  0  0  0  0  0  0  0
    5.4755   -2.6889    0.0000 C   0  0  0  0  0  0  0  0  0  0  0  0
    4.7610   -2.2764    0.0000 C   0  0  0  0  0  0  0  0  0  0  0  0
    4.0466   -2.6889    0.0000 C   0  0  0  0  0  0  0  0  0  0  0  0
    3.3321   -2.2764    0.0000 C   0  0  0  0  0  0  0  0  0  0  0  0
    2.6176   -2.6889    0.0000 C   0  0  0  0  0  0  0  0  0  0  0  0
    1.9032   -2.2764    0.0000 C   0  0  0  0  0  0  0  0  0  0  0  0
    6.1900   -1.4514    0.0000 O   0  0  0  0  0  0  0  0  0  0  0  0
    6.9045   -2.6889    0.0000 O   0  0  0  0  0  0  0  0  0  0  0  0
    7.6189   -2.2764    0.0000 C   0  0  0  0  0  0  0  0  0  0  0  0
    8.3334   -2.6889    0.0000 C   0  0  0  0  0  0  0  0  0  0  0  0
    9.0479   -2.2764    0.0000 C   0  0  0  0  0  0  0  0  0  0  0  0
    9.7623   -2.6889    0.0000 C   0  0  0  0  0  0  0  0  0  0  0  0
  1  2  1  0  0  0  0
  2  3  1  0  0  0  0
  3  4  1  0  0  0  0
  4  5  1  0  0  0  0
  5  6  1  0  0  0  0
  6  7  1  0  0  0  0
  1  8  2  0  0  0  0
  1  9  1  0  0  0  0
 10 11  1  0  0  0  0
 11 12  1  0  0  0  0
 12 13  1  0  0  0  0
  9 10  1  0  0  0  0
M  END
>  <cdx:groupId>
40

>  <cdx:fragmentId>
5

$$$$
