21595.cdx
  Mrv1902 05222410262D          

 12 12  0  0  0  0            999 V2000
    9.6096  -13.9751    0.0000 C   0  0  0  0  0  0  0  0  0  0  0  0
    8.8951  -14.3876    0.0000 C   0  0  0  0  0  0  0  0  0  0  0  0
    9.6096  -13.1501    0.0000 O   0  0  0  0  0  0  0  0  0  0  0  0
   10.3241  -14.3876    0.0000 O   0  0  0  0  0  0  0  0  0  0  0  0
    8.1806  -13.9751    0.0000 C   0  0  0  0  0  0  0  0  0  0  0  0
    8.1806  -13.1501    0.0000 C   0  0  0  0  0  0  0  0  0  0  0  0
    7.4662  -12.7376    0.0000 C   0  0  0  0  0  0  0  0  0  0  0  0
    6.7517  -13.1501    0.0000 C   0  0  0  0  0  0  0  0  0  0  0  0
    6.7517  -13.9751    0.0000 C   0  0  0  0  0  0  0  0  0  0  0  0
    7.4662  -14.3876    0.0000 C   0  0  0  0  0  0  0  0  0  0  0  0
   11.0385  -13.9751    0.0000 C   0  0  0  0  0  0  0  0  0  0  0  0
   11.7530  -14.3876    0.0000 C   0  0  0  0  0  0  0  0  0  0  0  0
  1  2  1  0  0  0  0
  1  3  2  0  0  0  0
  1  4  1  0  0  0  0
  5  6  1  0  0  0  0
  6  7  1  0  0  0  0
  7  8  1  0  0  0  0
  8  9  1  0  0  0  0
  9 10  1  0  0  0  0
  5 10  1  0  0  0  0
  2  5  1  0  0  0  0
 11 12  1  0  0  0  0
  4 11  1  0  0  0  0
M  END
>  <cdx:fragmentId>
54560

$$$$
