2159.cdx
  Mrv1902 05222410182D          

 13 14  0  0  0  0            999 V2000
    4.3139   -6.7031    0.0000 C   0  0  0  0  0  0  0  0  0  0  0  0
    4.3139   -7.5281    0.0000 C   0  0  0  0  0  0  0  0  0  0  0  0
    5.0284   -7.9406    0.0000 C   0  0  0  0  0  0  0  0  0  0  0  0
    5.7428   -7.5281    0.0000 C   0  0  0  0  0  0  0  0  0  0  0  0
    5.7428   -6.7031    0.0000 C   0  0  0  0  0  0  0  0  0  0  0  0
    5.0284   -6.2906    0.0000 C   0  0  0  0  0  0  0  0  0  0  0  0
    6.5275   -7.7831    0.0000 C   0  0  0  0  0  0  0  0  0  0  0  0
    7.0124   -7.1156    0.0000 C   0  0  0  0  0  0  0  0  0  0  0  0
    6.5275   -6.4482    0.0000 C   0  0  0  0  0  0  0  0  0  0  0  0
    6.3139   -5.6513    0.0000 C   0  0  0  0  0  0  0  0  0  0  0  0
    7.2419   -6.0357    0.0000 O   0  0  0  0  0  0  0  0  0  0  0  0
    6.7264   -4.9368    0.0000 C   0  0  0  0  0  0  0  0  0  0  0  0
    6.5129   -4.1399    0.0000 C   0  0  0  0  0  0  0  0  0  0  0  0
  1  2  2  0  0  0  0
  2  3  1  0  0  0  0
  3  4  2  0  0  0  0
  4  5  1  0  0  0  0
  5  6  2  0  0  0  0
  6  1  1  0  0  0  0
  4  7  1  0  0  0  0
  7  8  1  0  0  0  0
  8  9  1  0  0  0  0
  9  5  1  0  0  0  0
  9 10  1  0  0  0  0
  9 11  1  0  0  0  0
 10 12  1  0  0  0  0
 12 13  2  0  0  0  0
M  END
>  <cdx:fragmentId>
5

$$$$
