2172.cdx
  Mrv1902 05222410182D          

  8  8  0  0  0  0            999 V2000
    5.9533   -8.8350    0.0000 C   0  0  0  0  0  0  0  0  0  0  0  0
    6.2048   -9.6207    0.0000 C   0  0  0  0  0  0  0  0  0  0  0  0
    7.0298   -9.6242    0.0000 C   0  0  0  0  0  0  0  0  0  0  0  0
    7.2881   -8.8407    0.0000 C   0  0  0  0  0  0  0  0  0  0  0  0
    6.6228   -8.3529    0.0000 C   0  0  0  0  0  0  0  0  0  0  0  0
    7.0298  -10.4492    0.0000 C   0  0  0  0  0  0  0  0  0  0  0  0
    7.8267   -9.8377    0.0000 C   0  0  0  0  0  0  0  0  0  0  0  0
    6.6228   -7.5279    0.0000 C   0  0  0  0  0  0  0  0  0  0  0  0
  1  2  2  0  0  0  0
  2  3  1  0  0  0  0
  3  4  1  0  0  0  0
  4  5  2  0  0  0  0
  5  1  1  0  0  0  0
  3  6  1  0  0  0  0
  3  7  1  0  0  0  0
  5  8  1  0  0  0  0
M  END
>  <cdx:fragmentId>
5

$$$$
