2175.cdx
  Mrv1902 05222410202D          

 16 17  0  0  0  0            999 V2000
    8.2312   -6.9802    0.0000 C   0  0  0  0  0  0  0  0  0  0  0  0
    8.9456   -6.5677    0.0000 C   0  0  0  0  0  0  0  0  0  0  0  0
    8.9456   -5.7427    0.0000 C   0  0  0  0  0  0  0  0  0  0  0  0
    8.2312   -5.3302    0.0000 C   0  0  0  0  0  0  0  0  0  0  0  0
    7.5167   -5.7427    0.0000 C   0  0  0  0  0  0  0  0  0  0  0  0
    6.8022   -5.3302    0.0000 C   0  0  0  0  0  0  0  0  0  0  0  0
    6.0878   -5.7427    0.0000 C   0  0  0  0  0  0  0  0  0  0  0  0
    6.0878   -6.5677    0.0000 C   0  0  0  0  0  0  0  0  0  0  0  0
    6.8022   -6.9802    0.0000 C   0  0  0  0  0  0  0  0  0  0  0  0
    7.5167   -6.5677    0.0000 C   0  0  0  0  0  0  0  0  0  0  0  0
    7.5167   -4.9177    0.0000 O   0  0  0  0  0  0  0  0  0  0  0  0
    7.5167   -8.2177    0.0000 C   0  0  0  0  0  0  0  0  0  0  0  0
    8.2312   -7.8052    0.0000 C   0  0  0  0  0  0  0  0  0  0  0  0
    8.9456   -8.2177    0.0000 C   0  0  0  0  0  0  0  0  0  0  0  0
    5.3733   -6.9802    0.0000 C   0  0  0  0  0  0  0  0  0  0  0  0
    8.2312   -4.5052    0.0000 C   0  0  0  0  0  0  0  0  0  0  0  0
  1  2  1  0  0  0  0
  2  3  1  0  0  0  0
  3  4  1  0  0  0  0
  4  5  1  0  0  0  0
  5  6  1  0  0  0  0
  6  7  1  0  0  0  0
  7  8  1  0  0  0  0
  8  9  2  0  0  0  0
  9 10  1  0  0  0  0
  1 10  1  0  0  0  0
  5 10  1  0  0  0  0
  5 11  1  0  0  0  0
 12 13  1  0  0  0  0
 13 14  1  0  0  0  0
  1 13  1  0  0  0  0
  8 15  1  0  0  0  0
  4 16  1  0  0  0  0
M  END
>  <cdx:fragmentId>
24316

$$$$
