1,1-biphenyl, 4-methyl-.cdx
  Mrv1902 05222410192D          

 13 14  0  0  0  0            999 V2000
    3.6254   -6.3596    0.0000 C   0  0  0  0  0  0  0  0  0  0  0  0
    2.8004   -6.3602    0.0000 C   0  0  0  0  0  0  0  0  0  0  0  0
    2.3884   -7.0749    0.0000 C   0  0  0  0  0  0  0  0  0  0  0  0
    2.8013   -7.7891    0.0000 C   0  0  0  0  0  0  0  0  0  0  0  0
    3.6263   -7.7886    0.0000 C   0  0  0  0  0  0  0  0  0  0  0  0
    4.0384   -7.0739    0.0000 C   0  0  0  0  0  0  0  0  0  0  0  0
    4.8634   -7.0739    0.0000 C   0  0  0  0  0  0  0  0  0  0  0  0
    5.2759   -7.7883    0.0000 C   0  0  0  0  0  0  0  0  0  0  0  0
    6.1009   -7.7883    0.0000 C   0  0  0  0  0  0  0  0  0  0  0  0
    6.5134   -7.0739    0.0000 C   0  0  0  0  0  0  0  0  0  0  0  0
    6.1009   -6.3594    0.0000 C   0  0  0  0  0  0  0  0  0  0  0  0
    5.2759   -6.3594    0.0000 C   0  0  0  0  0  0  0  0  0  0  0  0
    7.3384   -7.0739    0.0000 C   0  0  0  0  0  0  0  0  0  0  0  0
  1  2  2  0  0  0  0
  2  3  1  0  0  0  0
  3  4  2  0  0  0  0
  4  5  1  0  0  0  0
  5  6  2  0  0  0  0
  6  1  1  0  0  0  0
  6  7  1  0  0  0  0
  7  8  2  0  0  0  0
  8  9  1  0  0  0  0
  9 10  2  0  0  0  0
 10 11  1  0  0  0  0
 11 12  2  0  0  0  0
 12  7  1  0  0  0  0
 10 13  1  0  0  0  0
M  END
>  <cdx:fragmentId>
5

$$$$
