217712.cdx
  Mrv1902 05222410242D          

 20 22  0  0  0  0            999 V2000
    8.3500   -6.2755    0.0000 C   0  0  0  0  0  0  0  0  0  0  0  0
    9.0645   -6.6880    0.0000 C   0  0  0  0  0  0  0  0  0  0  0  0
    9.0645   -7.5130    0.0000 C   0  0  0  0  0  0  0  0  0  0  0  0
    8.3500   -7.9255    0.0000 C   0  0  0  0  0  0  0  0  0  0  0  0
    7.6356   -7.5130    0.0000 C   0  0  0  0  0  0  0  0  0  0  0  0
    6.9211   -7.9255    0.0000 C   0  0  0  0  0  0  0  0  0  0  0  0
    6.9211   -8.7505    0.0000 O   0  0  0  0  0  0  0  0  0  0  0  0
    6.2066   -7.5130    0.0000 C   0  0  0  0  0  0  0  0  0  0  0  0
    5.4921   -7.9255    0.0000 C   0  0  0  0  0  0  0  0  0  0  0  0
    4.7777   -7.5130    0.0000 C   0  0  0  0  0  0  0  0  0  0  0  0
    4.7777   -6.6880    0.0000 C   0  0  0  0  0  0  0  0  0  0  0  0
    5.4921   -6.2755    0.0000 C   0  0  0  0  0  0  0  0  0  0  0  0
    6.2066   -6.6880    0.0000 C   0  0  0  0  0  0  0  0  0  0  0  0
    6.9211   -6.2755    0.0000 C   0  0  0  0  0  0  0  0  0  0  0  0
    6.9211   -5.4505    0.0000 O   0  0  0  0  0  0  0  0  0  0  0  0
    7.6356   -6.6880    0.0000 C   0  0  0  0  0  0  0  0  0  0  0  0
    9.7790   -6.2755    0.0000 O   0  0  0  0  0  0  0  0  0  0  0  0
   10.4934   -6.6880    0.0000 C   0  0  0  0  0  0  0  0  0  0  0  0
    8.3500   -5.4505    0.0000 O   0  0  0  0  0  0  0  0  0  0  0  0
    9.0645   -5.0380    0.0000 C   0  0  0  0  0  0  0  0  0  0  0  0
  1  2  1  0  0  0  0
  2  3  2  0  0  0  0
  3  4  1  0  0  0  0
  4  5  2  0  0  0  0
  5  6  1  0  0  0  0
  6  7  2  0  0  0  0
  6  8  1  0  0  0  0
  8  9  1  0  0  0  0
  9 10  2  0  0  0  0
 10 11  1  0  0  0  0
 11 12  2  0  0  0  0
 12 13  1  0  0  0  0
  8 13  2  0  0  0  0
 13 14  1  0  0  0  0
 14 15  2  0  0  0  0
 14 16  1  0  0  0  0
  5 16  1  0  0  0  0
  1 16  2  0  0  0  0
 17 18  1  0  0  0  0
  2 17  1  0  0  0  0
 19 20  1  0  0  0  0
  1 19  1  0  0  0  0
M  END
>  <cdx:groupId>
5483

>  <cdx:fragmentId>
5424

$$$$
