2178.cdx
  Mrv1902 05222410262D          

 33 35  0  0  0  0            999 V2000
    3.4889   -7.8994    0.0000 C   0  0  0  0  0  0  0  0  0  0  0  0
    3.4889   -8.7244    0.0000 C   0  0  0  0  0  0  0  0  0  0  0  0
    4.2034   -9.1369    0.0000 C   0  0  0  0  0  0  0  0  0  0  0  0
    4.9178   -8.7244    0.0000 C   0  0  0  0  0  0  0  0  0  0  0  0
    4.9178   -7.8994    0.0000 C   0  0  0  0  0  0  0  0  0  0  0  0
    4.2034   -7.4869    0.0000 C   0  0  0  0  0  0  0  0  0  0  0  0
    3.4889   -5.4244    0.0000 C   0  0  0  0  0  0  0  0  0  0  0  0
    3.4889   -6.2494    0.0000 C   0  0  0  0  0  0  0  0  0  0  0  0
    2.7744   -5.0119    0.0000 O   0  0  0  0  0  0  0  0  0  0  0  0
    2.7744   -6.6619    0.0000 O   0  0  0  0  0  0  0  0  0  0  0  0
    4.2034   -6.6619    0.0000 C   0  0  0  0  0  0  0  0  0  0  0  0
    4.2034   -9.9619    0.0000 O   0  0  0  0  0  0  0  0  0  0  0  0
    5.6323   -9.9619    0.0000 C   0  0  0  0  0  0  0  0  0  0  0  0
    5.6323   -9.1369    0.0000 C   0  0  0  0  0  0  0  0  0  0  0  0
    6.3468  -10.3744    0.0000 C   0  0  0  0  0  0  0  0  0  0  0  0
    7.0613   -9.9619    0.0000 C   0  0  0  0  0  0  0  0  0  0  0  0
    7.0613   -9.1369    0.0000 C   0  0  0  0  0  0  0  0  0  0  0  0
    6.3468   -8.7244    0.0000 C   0  0  0  0  0  0  0  0  0  0  0  0
    7.7757   -8.7244    0.0000 C   0  0  0  0  0  0  0  0  0  0  0  0
    8.4902   -7.4869    0.0000 C   0  0  0  0  0  0  0  0  0  0  0  0
    7.7757   -7.8994    0.0000 C   0  0  0  0  0  0  0  0  0  0  0  0
    7.7757  -10.3744    0.0000 O   0  0  0  0  0  0  0  0  0  0  0  0
    7.7757  -11.1994    0.0000 C   0  0  2  0  0  0  0  0  0  0  0  0
    7.0613  -11.6119    0.0000 O   0  0  0  0  0  0  0  0  0  0  0  0
    7.0613  -12.4369    0.0000 C   0  0  1  0  0  0  0  0  0  0  0  0
    7.7757  -12.8494    0.0000 C   0  0  2  0  0  0  0  0  0  0  0  0
    8.4902  -12.4369    0.0000 C   0  0  1  0  0  0  0  0  0  0  0  0
    8.4902  -11.6119    0.0000 C   0  0  1  0  0  0  0  0  0  0  0  0
    6.3468  -12.8494    0.0000 C   0  0  0  0  0  0  0  0  0  0  0  0
    9.2047  -12.8494    0.0000 O   0  0  0  0  0  0  0  0  0  0  0  0
    7.7757  -13.6744    0.0000 O   0  0  0  0  0  0  0  0  0  0  0  0
    9.2047  -11.1994    0.0000 O   0  0  0  0  0  0  0  0  0  0  0  0
    6.3468  -13.6744    0.0000 O   0  0  0  0  0  0  0  0  0  0  0  0
  1  2  2  0  0  0  0
  2  3  1  0  0  0  0
  3  4  2  0  0  0  0
  4  5  1  0  0  0  0
  5  6  2  0  0  0  0
  6  1  1  0  0  0  0
  7  8  1  0  0  0  0
  8 11  1  0  0  0  0
 11  6  1  0  0  0  0
  7  9  1  0  0  0  0
 10  8  1  0  0  0  0
  3 12  1  0  0  0  0
 13 14  2  0  0  0  0
 14  4  1  0  0  0  0
 13 15  1  0  0  0  0
 15 16  2  0  0  0  0
 16 17  1  0  0  0  0
 17 18  2  0  0  0  0
 18 14  1  0  0  0  0
 21 20  2  0  0  0  0
 17 19  1  0  0  0  0
 19 21  1  0  0  0  0
 16 22  1  0  0  0  0
 23 22  1  1  0  0  0
 23 24  1  0  0  0  0
 24 25  1  0  0  0  0
 25 26  1  0  0  0  0
 26 27  1  0  0  0  0
 27 28  1  0  0  0  0
 28 23  1  0  0  0  0
 25 29  1  1  0  0  0
 27 30  1  1  0  0  0
 26 31  1  6  0  0  0
 28 32  1  6  0  0  0
 29 33  1  0  0  0  0
M  END
>  <cdx:fragmentId>
5

$$$$
