14218027.cdx
  Mrv1902 05222410232D          

 25 27  0  0  0  0            999 V2000
    6.7033  -15.0474    0.0000 C   0  0  0  0  0  0  0  0  0  0  0  0
    6.7033  -14.2224    0.0000 C   0  0  0  0  0  0  0  0  0  0  0  0
    5.9888  -13.8099    0.0000 C   0  0  0  0  0  0  0  0  0  0  0  0
    5.2743  -14.2224    0.0000 C   0  0  0  0  0  0  0  0  0  0  0  0
    4.5599  -13.8099    0.0000 C   0  0  0  0  0  0  0  0  0  0  0  0
    3.8454  -14.2224    0.0000 C   0  0  0  0  0  0  0  0  0  0  0  0
    3.8454  -15.0474    0.0000 C   0  0  0  0  0  0  0  0  0  0  0  0
    4.5599  -15.4599    0.0000 C   0  0  0  0  0  0  0  0  0  0  0  0
    5.2743  -15.0474    0.0000 C   0  0  0  0  0  0  0  0  0  0  0  0
    5.9888  -15.4599    0.0000 O   0  0  0  0  0  0  0  0  0  0  0  0
    5.9888  -12.9849    0.0000 O   0  0  0  0  0  0  0  0  0  0  0  0
    7.4177  -15.4599    0.0000 C   0  0  0  0  0  0  0  0  0  0  0  0
    8.1322  -15.0474    0.0000 C   0  0  0  0  0  0  0  0  0  0  0  0
    8.8467  -15.4599    0.0000 C   0  0  0  0  0  0  0  0  0  0  0  0
    8.8467  -16.2849    0.0000 C   0  0  0  0  0  0  0  0  0  0  0  0
    8.1322  -16.6974    0.0000 C   0  0  0  0  0  0  0  0  0  0  0  0
    7.4177  -16.2849    0.0000 C   0  0  0  0  0  0  0  0  0  0  0  0
    9.5611  -15.0474    0.0000 C   0  0  0  0  0  0  0  0  0  0  0  0
   10.2756  -15.4599    0.0000 C   0  0  0  0  0  0  0  0  0  0  0  0
   10.9901  -15.0474    0.0000 C   0  0  0  0  0  0  0  0  0  0  0  0
   10.9901  -14.2224    0.0000 C   0  0  0  0  0  0  0  0  0  0  0  0
   11.7046  -15.4599    0.0000 C   0  0  0  0  0  0  0  0  0  0  0  0
    9.5611  -16.6974    0.0000 O   0  0  0  0  0  0  0  0  0  0  0  0
    3.1309  -15.4599    0.0000 O   0  0  0  0  0  0  0  0  0  0  0  0
    4.5599  -12.9849    0.0000 O   0  0  0  0  0  0  0  0  0  0  0  0
  1  2  1  0  0  0  0
  2  3  1  0  0  0  0
  3  4  1  0  0  0  0
  4  5  1  0  0  0  0
  5  6  2  0  0  0  0
  6  7  1  0  0  0  0
  7  8  2  0  0  0  0
  8  9  1  0  0  0  0
  4  9  2  0  0  0  0
  9 10  1  0  0  0  0
  1 10  1  0  0  0  0
  3 11  2  0  0  0  0
 12 13  1  0  0  0  0
 13 14  2  0  0  0  0
 14 15  1  0  0  0  0
 15 16  2  0  0  0  0
 16 17  1  0  0  0  0
 12 17  2  0  0  0  0
 18 19  1  0  0  0  0
 19 20  2  0  0  0  0
 20 21  1  0  0  0  0
 20 22  1  0  0  0  0
 14 18  1  0  0  0  0
 15 23  1  0  0  0  0
  1 12  1  0  0  0  0
  7 24  1  0  0  0  0
  5 25  1  0  0  0  0
M  END
>  <cdx:fragmentId>
104336

$$$$
