2181.cdx
  Mrv1902 05222410272D          

 14 15  0  0  0  0            999 V2000
    4.6825   -7.0366    0.0000 C   0  0  0  0  0  0  0  0  0  0  0  0
    4.3298   -7.7824    0.0000 C   0  0  0  0  0  0  0  0  0  0  0  0
    4.6929   -8.5232    0.0000 C   0  0  0  0  0  0  0  0  0  0  0  0
    5.4985   -8.7012    0.0000 C   0  0  0  0  0  0  0  0  0  0  0  0
    6.1399   -8.1823    0.0000 C   0  0  0  0  0  0  0  0  0  0  0  0
    6.1341   -7.3573    0.0000 C   0  0  0  0  0  0  0  0  0  0  0  0
    5.4856   -6.8475    0.0000 C   0  0  0  0  0  0  0  0  0  0  0  0
    6.8572   -8.5898    0.0000 C   0  0  0  0  0  0  0  0  0  0  0  0
    7.5688   -8.1823    0.0000 C   0  0  0  0  0  0  0  0  0  0  0  0
    7.5688   -7.3573    0.0000 C   0  0  0  0  0  0  0  0  0  0  0  0
    6.8572   -6.9498    0.0000 C   0  0  0  0  0  0  0  0  0  0  0  0
    4.1095   -9.1066    0.0000 O   0  0  0  0  0  0  0  0  0  0  0  0
    6.4447   -6.2354    0.0000 C   0  0  0  0  0  0  0  0  0  0  0  0
    7.2697   -6.2354    0.0000 C   0  0  0  0  0  0  0  0  0  0  0  0
  1  2  1  0  0  0  0
  2  3  1  0  0  0  0
  3  4  1  0  0  0  0
  4  5  1  0  0  0  0
  5  6  1  0  0  0  0
  6  7  1  0  0  0  0
  7  1  1  0  0  0  0
  5  8  2  0  0  0  0
  8  9  1  0  0  0  0
  9 10  1  0  0  0  0
 10 11  1  0  0  0  0
 11  6  1  0  0  0  0
  3 12  2  0  0  0  0
 11 13  1  0  0  0  0
 11 14  1  0  0  0  0
M  END
>  <cdx:fragmentId>
5

$$$$
