2183.cdx
  Mrv1902 05222410282D          

 16 17  0  0  0  0            999 V2000
    6.3050   -6.5416    0.0000 C   0  0  2  0  0  0  0  0  0  0  0  0
    5.9523   -7.2874    0.0000 C   0  0  0  0  0  0  0  0  0  0  0  0
    6.3154   -8.0282    0.0000 C   0  0  0  0  0  0  0  0  0  0  0  0
    7.1210   -8.2062    0.0000 C   0  0  2  0  0  0  0  0  0  0  0  0
    7.7624   -7.6873    0.0000 C   0  0  2  0  0  0  0  0  0  0  0  0
    7.7566   -6.8623    0.0000 C   0  0  0  0  0  0  0  0  0  0  0  0
    7.1081   -6.3525    0.0000 C   0  0  0  0  0  0  0  0  0  0  0  0
    8.5488   -7.9368    0.0000 C   0  0  0  0  0  0  0  0  0  0  0  0
    9.0290   -7.2660    0.0000 C   0  0  0  0  0  0  0  0  0  0  0  0
    8.5488   -6.6020    0.0000 C   0  0  1  0  0  0  0  0  0  0  0  0
    8.9613   -5.8875    0.0000 C   0  0  0  0  0  0  0  0  0  0  0  0
    7.3345   -9.0031    0.0000 C   0  0  0  0  0  0  0  0  0  0  0  0
    5.7217   -5.9583    0.0000 C   0  0  0  0  0  0  0  0  0  0  0  0
    5.9352   -5.1614    0.0000 C   0  0  0  0  0  0  0  0  0  0  0  0
    4.9248   -6.1718    0.0000 C   0  0  0  0  0  0  0  0  0  0  0  0
    7.7681   -8.5123    0.0000 H   0  0  0  0  0  0  0  0  0  0  0  0
  1  2  1  0  0  0  0
  2  3  1  0  0  0  0
  3  4  1  0  0  0  0
  4  5  1  0  0  0  0
  5  6  1  0  0  0  0
  6  7  2  0  0  0  0
  7  1  1  0  0  0  0
  5  8  1  0  0  0  0
  8  9  1  0  0  0  0
  9 10  1  0  0  0  0
 10  6  1  0  0  0  0
 10 11  1  6  0  0  0
  4 12  1  6  0  0  0
  1 13  1  1  0  0  0
 13 14  1  0  0  0  0
 13 15  2  0  0  0  0
  5 16  1  1  0  0  0
M  END
>  <cdx:fragmentId>
5

$$$$
