21832.cdx
  Mrv1902 05222410182D          

 13 13  0  0  0  0            999 V2000
   10.3576   -3.8363    0.0000 C   0  0  0  0  0  0  0  0  0  0  0  0
    9.6431   -4.2488    0.0000 C   0  0  0  0  0  0  0  0  0  0  0  0
    8.9286   -3.8363    0.0000 C   0  0  0  0  0  0  0  0  0  0  0  0
    8.2141   -4.2488    0.0000 C   0  0  0  0  0  0  0  0  0  0  0  0
    7.4997   -3.8363    0.0000 C   0  0  0  0  0  0  0  0  0  0  0  0
    6.7852   -4.2488    0.0000 C   0  0  0  0  0  0  0  0  0  0  0  0
    6.0707   -3.8363    0.0000 C   0  0  0  0  0  0  0  0  0  0  0  0
    4.6418   -3.8363    0.0000 C   0  0  0  0  0  0  0  0  0  0  0  0
    3.9273   -4.2488    0.0000 C   0  0  0  0  0  0  0  0  0  0  0  0
    3.9273   -5.0738    0.0000 C   0  0  0  0  0  0  0  0  0  0  0  0
    4.6418   -5.4863    0.0000 C   0  0  0  0  0  0  0  0  0  0  0  0
    5.3563   -5.0737    0.0000 C   0  0  0  0  0  0  0  0  0  0  0  0
    5.3563   -4.2488    0.0000 C   0  0  0  0  0  0  0  0  0  0  0  0
 13  7  1  0  0  0  0
  2  1  1  0  0  0  0
  3  2  1  0  0  0  0
  4  3  1  0  0  0  0
  5  4  1  0  0  0  0
  6  5  1  0  0  0  0
  7  6  1  0  0  0  0
 13  8  1  0  0  0  0
  9  8  1  0  0  0  0
 10  9  1  0  0  0  0
 11 10  1  0  0  0  0
 12 11  1  0  0  0  0
 13 12  1  0  0  0  0
M  END
>  <cdx:fragmentId>
17

$$$$
