21833.cdx
  Mrv1902 05222410182D          

 24 28  0  0  0  0            999 V2000
    7.6286   -5.0397    0.0000 N   0  0  0  0  0  0  0  0  0  0  0  0
    7.1008   -7.6751    0.0000 N   0  0  0  0  0  0  0  0  0  0  0  0
    8.1461   -5.6886    0.0000 C   0  0  0  0  0  0  0  0  0  0  0  0
    7.9614   -6.4977    0.0000 C   0  0  0  0  0  0  0  0  0  0  0  0
    9.4141   -6.8470    0.0000 C   0  0  0  0  0  0  0  0  0  0  0  0
    8.9681   -5.4211    0.0000 C   0  0  0  0  0  0  0  0  0  0  0  0
    8.5860   -7.0955    0.0000 C   0  0  0  0  0  0  0  0  0  0  0  0
    9.6064   -6.0042    0.0000 C   0  0  0  0  0  0  0  0  0  0  0  0
    7.2136   -6.8579    0.0000 C   0  0  0  0  0  0  0  0  0  0  0  0
    6.7986   -5.0397    0.0000 C   0  0  0  0  0  0  0  0  0  0  0  0
    6.4659   -6.4977    0.0000 C   0  0  2  0  0  0  0  0  0  0  0  0
    6.2812   -5.6886    0.0000 C   0  0  0  0  0  0  0  0  0  0  0  0
    5.8973   -7.0956    0.0000 C   0  0  0  0  0  0  0  0  0  0  0  0
    6.2889   -7.8218    0.0000 C   0  0  0  0  0  0  0  0  0  0  0  0
    5.0387   -7.0574    0.0000 C   0  0  0  0  0  0  0  0  0  0  0  0
    5.8491   -8.5601    0.0000 C   0  0  0  0  0  0  0  0  0  0  0  0
    4.5820   -7.7853    0.0000 C   0  0  0  0  0  0  0  0  0  0  0  0
    4.9899   -8.5417    0.0000 C   0  0  0  0  0  0  0  0  0  0  0  0
    9.1424   -4.6147    0.0000 C   0  0  0  0  0  0  0  0  0  0  0  0
    9.4050   -5.3350    0.0000 C   0  0  0  0  0  0  0  0  0  0  0  0
    9.9393   -4.4012    0.0000 C   0  0  0  0  0  0  0  0  0  0  0  0
    5.6979   -6.1963    0.0000 O   0  0  0  0  0  0  0  0  0  0  0  0
    3.7574   -7.7582    0.0000 O   0  0  0  0  0  0  0  0  0  0  0  0
    3.3217   -8.4587    0.0000 C   0  0  0  0  0  0  0  0  0  0  0  0
  1  3  1  0  0  0  0
  1 10  1  0  0  0  0
  2  9  2  0  0  0  0
  2 14  1  0  0  0  0
  3  4  1  0  0  0  0
  3  6  1  0  0  0  0
  4  7  1  0  0  0  0
  4  9  1  0  0  0  0
  5  7  1  0  0  0  0
  5  8  1  0  0  0  0
  6  8  1  0  0  0  0
  9 11  1  0  0  0  0
 10 12  1  0  0  0  0
 11 12  1  0  0  0  0
 11 13  1  0  0  0  0
 13 14  1  0  0  0  0
 13 15  2  0  0  0  0
 14 16  2  0  0  0  0
 15 17  1  0  0  0  0
 16 18  1  0  0  0  0
 17 18  2  0  0  0  0
  6 19  1  0  0  0  0
  5 20  1  0  0  0  0
 20  1  1  0  0  0  0
 19 21  1  0  0  0  0
 11 22  1  6  0  0  0
 17 23  1  0  0  0  0
 23 24  1  0  0  0  0
M  END
>  <cdx:fragmentId>
1

$$$$
