2185.cdx
  Mrv1902 05222410272D          

 15 16  0  0  0  0            999 V2000
    5.8877   -5.7956    0.0000 C   0  0  0  0  0  0  0  0  0  0  0  0
    5.1733   -7.0331    0.0000 C   0  0  0  0  0  0  0  0  0  0  0  0
    5.8877   -6.6206    0.0000 C   0  0  0  0  0  0  0  0  0  0  0  0
    8.0312   -6.2081    0.0000 C   0  0  0  0  0  0  0  0  0  0  0  0
    8.7456   -5.7956    0.0000 C   0  0  0  0  0  0  0  0  0  0  0  0
    7.3167   -6.6206    0.0000 C   0  0  0  0  0  0  0  0  0  0  0  0
    6.6022   -7.0331    0.0000 C   0  0  0  0  0  0  0  0  0  0  0  0
    6.6022   -7.8581    0.0000 C   0  0  0  0  0  0  0  0  0  0  0  0
    7.3167   -8.2706    0.0000 C   0  0  0  0  0  0  0  0  0  0  0  0
    8.7456   -6.6206    0.0000 C   0  0  0  0  0  0  0  0  0  0  0  0
    8.0312   -7.0331    0.0000 C   0  0  0  0  0  0  0  0  0  0  0  0
    8.0312   -7.8581    0.0000 C   0  0  0  0  0  0  0  0  0  0  0  0
    8.7456   -8.2706    0.0000 C   0  0  0  0  0  0  0  0  0  0  0  0
    9.4601   -7.8581    0.0000 C   0  0  0  0  0  0  0  0  0  0  0  0
    9.4601   -7.0331    0.0000 C   0  0  0  0  0  0  0  0  0  0  0  0
  3  1  1  0  0  0  0
  3  2  1  0  0  0  0
  7  3  1  0  0  0  0
 11  4  1  0  0  0  0
 10  5  1  0  0  0  0
  6 11  1  0  0  0  0
  7  6  2  0  0  0  0
  8  7  1  0  0  0  0
  9  8  1  0  0  0  0
 12  9  1  0  0  0  0
 10 15  1  0  0  0  0
 11 10  1  0  0  0  0
 12 11  1  0  0  0  0
 13 12  1  0  0  0  0
 14 13  1  0  0  0  0
 15 14  1  0  0  0  0
M  END
>  <cdx:fragmentId>
5

$$$$
