2186.cdx
  Mrv1902 05222410262D          

 15 16  0  0  0  0            999 V2000
    9.6124   -6.1806    0.0000 C   0  0  0  0  0  0  0  0  0  0  0  0
    8.8979   -4.9431    0.0000 C   0  0  0  0  0  0  0  0  0  0  0  0
    8.8979   -5.7681    0.0000 C   0  0  0  0  0  0  0  0  0  0  0  0
    6.0401   -4.9431    0.0000 C   0  0  0  0  0  0  0  0  0  0  0  0
    6.7545   -7.8306    0.0000 C   0  0  0  0  0  0  0  0  0  0  0  0
    6.0401   -5.7681    0.0000 C   0  0  0  0  0  0  0  0  0  0  0  0
    5.3256   -6.1806    0.0000 C   0  0  0  0  0  0  0  0  0  0  0  0
    5.3256   -7.0056    0.0000 C   0  0  0  0  0  0  0  0  0  0  0  0
    6.0401   -7.4181    0.0000 C   0  0  0  0  0  0  0  0  0  0  0  0
    7.4690   -5.7681    0.0000 C   0  0  0  0  0  0  0  0  0  0  0  0
    6.7545   -6.1806    0.0000 C   0  0  0  0  0  0  0  0  0  0  0  0
    6.7545   -7.0056    0.0000 C   0  0  0  0  0  0  0  0  0  0  0  0
    7.4690   -7.4181    0.0000 C   0  0  0  0  0  0  0  0  0  0  0  0
    8.1835   -7.0056    0.0000 C   0  0  0  0  0  0  0  0  0  0  0  0
    8.1835   -6.1806    0.0000 C   0  0  0  0  0  0  0  0  0  0  0  0
  3  1  1  0  0  0  0
  3  2  2  0  0  0  0
 15  3  1  0  0  0  0
  6  4  1  0  0  0  0
 12  5  1  0  0  0  0
  6 11  1  0  0  0  0
  7  6  2  0  0  0  0
  8  7  1  0  0  0  0
  9  8  1  0  0  0  0
 12  9  1  0  0  0  0
 10 15  1  0  0  0  0
 11 10  1  0  0  0  0
 12 11  1  0  0  0  0
 13 12  1  0  0  0  0
 14 13  1  0  0  0  0
 15 14  1  0  0  0  0
M  END
>  <cdx:fragmentId>
5

$$$$
