218791.cdx
  Mrv1902 05222410252D          

 36 38  0  0  0  0            999 V2000
    6.0567   -9.4440    0.0000 P   0  0  0  0  0  0  0  0  0  0  0  0
    6.0567  -10.2690    0.0000 O   0  0  0  0  0  0  0  0  0  0  0  0
    5.3423   -9.0315    0.0000 O   0  0  0  0  0  0  0  0  0  0  0  0
    6.7712   -9.0315    0.0000 O   0  0  0  0  0  0  0  0  0  0  0  0
    6.0567   -8.6190    0.0000 O   0  0  0  0  0  0  0  0  0  0  0  0
    3.9133   -9.0315    0.0000 O   0  0  0  0  0  0  0  0  0  0  0  0
    4.6278   -9.4440    0.0000 C   0  0  1  0  0  0  0  0  0  0  0  0
    4.6278  -10.2690    0.0000 C   0  0  1  0  0  0  0  0  0  0  0  0
    3.9133  -10.6815    0.0000 C   0  0  2  0  0  0  0  0  0  0  0  0
    3.1988  -10.2690    0.0000 C   0  0  2  0  0  0  0  0  0  0  0  0
    3.1988   -9.4440    0.0000 C   0  0  1  0  0  0  0  0  0  0  0  0
    2.4844   -9.0315    0.0000 C   0  0  0  0  0  0  0  0  0  0  0  0
    1.7699   -9.4440    0.0000 O   0  0  0  0  0  0  0  0  0  0  0  0
    2.4844  -10.6815    0.0000 O   0  0  0  0  0  0  0  0  0  0  0  0
    3.9133  -11.5065    0.0000 O   0  0  0  0  0  0  0  0  0  0  0  0
    5.3423  -10.6815    0.0000 O   0  0  0  0  0  0  0  0  0  0  0  0
    7.4857   -9.4440    0.0000 P   0  0  0  0  0  0  0  0  0  0  0  0
    7.4857  -10.2690    0.0000 O   0  0  0  0  0  0  0  0  0  0  0  0
    7.4857   -8.6190    0.0000 O   0  0  0  0  0  0  0  0  0  0  0  0
    8.2001   -9.0315    0.0000 O   0  0  0  0  0  0  0  0  0  0  0  0
    8.9146   -9.4440    0.0000 C   0  0  0  0  0  0  0  0  0  0  0  0
    9.9036   -8.3563    0.0000 O   0  0  0  0  0  0  0  0  0  0  0  0
    9.6862   -9.1521    0.0000 C   0  0  1  0  0  0  0  0  0  0  0  0
   10.3760   -9.6048    0.0000 C   0  0  2  0  0  0  0  0  0  0  0  0
   11.0196   -9.0887    0.0000 C   0  0  2  0  0  0  0  0  0  0  0  0
   10.7277   -8.3171    0.0000 C   0  0  2  0  0  0  0  0  0  0  0  0
   11.8155   -9.3061    0.0000 O   0  0  0  0  0  0  0  0  0  0  0  0
   10.4151  -10.4288    0.0000 O   0  0  0  0  0  0  0  0  0  0  0  0
   12.0040   -7.6745    0.0000 C   0  0  0  0  0  0  0  0  0  0  0  0
   12.4567   -6.9848    0.0000 N   0  0  0  0  0  0  0  0  0  0  0  0
   12.0857   -6.2479    0.0000 C   0  0  0  0  0  0  0  0  0  0  0  0
   11.2621   -6.2008    0.0000 C   0  0  0  0  0  0  0  0  0  0  0  0
   10.8094   -6.8905    0.0000 C   0  0  0  0  0  0  0  0  0  0  0  0
   11.1804   -7.6274    0.0000 N   0  0  0  0  0  0  0  0  0  0  0  0
   12.5384   -5.5582    0.0000 O   0  0  0  0  0  0  0  0  0  0  0  0
   12.3750   -8.4114    0.0000 O   0  0  0  0  0  0  0  0  0  0  0  0
  1  2  2  0  0  0  0
  1  3  1  0  0  0  0
  1  4  1  0  0  0  0
  1  5  1  0  0  0  0
  6  7  1  0  0  0  0
  7  8  1  0  0  0  0
  8  9  1  0  0  0  0
  9 10  1  0  0  0  0
 10 11  1  0  0  0  0
  6 11  1  0  0  0  0
 12 13  1  0  0  0  0
 11 12  1  1  0  0  0
 10 14  1  1  0  0  0
  9 15  1  1  0  0  0
  8 16  1  6  0  0  0
  7  3  1  6  0  0  0
 17 18  2  0  0  0  0
 17 19  1  0  0  0  0
 20 21  1  0  0  0  0
 17 20  1  0  0  0  0
 22 23  1  0  0  0  0
 23 24  1  0  0  0  0
 24 25  1  0  0  0  0
 25 26  1  0  0  0  0
 22 26  1  0  0  0  0
 25 27  1  6  0  0  0
 24 28  1  6  0  0  0
 29 30  1  0  0  0  0
 30 31  1  0  0  0  0
 31 32  1  0  0  0  0
 32 33  2  0  0  0  0
 33 34  1  0  0  0  0
 29 34  1  0  0  0  0
 31 35  2  0  0  0  0
 29 36  2  0  0  0  0
 26 34  1  1  0  0  0
 23 21  1  1  0  0  0
  4 17  1  0  0  0  0
M  END
>  <cdx:fragmentId>
25215

$$$$
