13218779.cdx
  Mrv1902 05222410262D          

 18 19  0  0  0  0            999 V2000
    7.0675   -6.9308    0.0000 C   0  0  0  0  0  0  0  0  0  0  0  0
    6.3530   -7.3433    0.0000 C   0  0  0  0  0  0  0  0  0  0  0  0
    7.0675   -6.1058    0.0000 O   0  0  0  0  0  0  0  0  0  0  0  0
    7.7819   -7.3433    0.0000 O   0  0  0  0  0  0  0  0  0  0  0  0
    5.6385   -6.9308    0.0000 S   0  0  0  0  0  0  0  0  0  0  0  0
    4.9241   -7.3433    0.0000 C   0  0  0  0  0  0  0  0  0  0  0  0
    4.2096   -7.7558    0.0000 N   0  0  0  0  0  0  0  0  0  0  0  0
    8.4964   -6.1058    0.0000 C   0  0  2  0  0  0  0  0  0  0  0  0
    8.4964   -6.9308    0.0000 C   0  0  1  0  0  0  0  0  0  0  0  0
    9.2109   -7.3433    0.0000 C   0  0  0  0  0  0  0  0  0  0  0  0
    9.9253   -6.9308    0.0000 C   0  0  1  0  0  0  0  0  0  0  0  0
    9.9253   -6.1058    0.0000 C   0  0  0  0  0  0  0  0  0  0  0  0
    9.2109   -5.6933    0.0000 C   0  0  0  0  0  0  0  0  0  0  0  0
    9.3790   -6.2279    0.0000 C   0  0  0  0  0  0  0  0  0  0  0  0
    9.3790   -5.4029    0.0000 C   0  0  0  0  0  0  0  0  0  0  0  0
   10.0935   -5.8154    0.0000 C   0  0  0  0  0  0  0  0  0  0  0  0
    7.7819   -5.6933    0.0000 C   0  0  0  0  0  0  0  0  0  0  0  0
   10.6398   -7.3433    0.0000 H   0  0  0  0  0  0  0  0  0  0  0  0
  1  2  1  0  0  0  0
  1  3  2  0  0  0  0
  1  4  1  0  0  0  0
  5  6  1  0  0  0  0
  6  7  3  0  0  0  0
  2  5  1  0  0  0  0
  8  9  1  0  0  0  0
  9 10  1  0  0  0  0
 10 11  1  0  0  0  0
 11 12  1  0  0  0  0
 12 13  1  0  0  0  0
  8 13  1  0  0  0  0
  8 14  1  1  0  0  0
 11 14  1  1  0  0  0
 14 15  1  0  0  0  0
 14 16  1  0  0  0  0
  8 17  1  0  0  0  0
  9  4  1  1  0  0  0
 11 18  1  0  0  0  0
M  END
>  <cdx:groupId>
57

>  <cdx:fragmentId>
19

$$$$
