2187.cdx
  Mrv1902 05222410262D          

 14 15  0  0  0  0            999 V2000
    9.6325   -5.7406    0.0000 C   0  0  0  0  0  0  0  0  0  0  0  0
    8.9180   -5.3281    0.0000 C   0  0  0  0  0  0  0  0  0  0  0  0
    6.0602   -4.5031    0.0000 C   0  0  0  0  0  0  0  0  0  0  0  0
    6.7746   -7.3906    0.0000 C   0  0  0  0  0  0  0  0  0  0  0  0
    6.0602   -5.3281    0.0000 C   0  0  0  0  0  0  0  0  0  0  0  0
    5.3457   -5.7406    0.0000 C   0  0  0  0  0  0  0  0  0  0  0  0
    5.3457   -6.5656    0.0000 C   0  0  0  0  0  0  0  0  0  0  0  0
    6.0602   -6.9781    0.0000 C   0  0  0  0  0  0  0  0  0  0  0  0
    7.4891   -5.3281    0.0000 C   0  0  0  0  0  0  0  0  0  0  0  0
    6.7746   -5.7406    0.0000 C   0  0  0  0  0  0  0  0  0  0  0  0
    6.7746   -6.5656    0.0000 C   0  0  0  0  0  0  0  0  0  0  0  0
    7.4891   -6.9781    0.0000 C   0  0  0  0  0  0  0  0  0  0  0  0
    8.2036   -6.5656    0.0000 C   0  0  0  0  0  0  0  0  0  0  0  0
    8.2036   -5.7406    0.0000 C   0  0  0  0  0  0  0  0  0  0  0  0
  2  1  1  0  0  0  0
 14  2  1  0  0  0  0
  5  3  1  0  0  0  0
 11  4  1  0  0  0  0
  5 10  1  0  0  0  0
  6  5  2  0  0  0  0
  7  6  1  0  0  0  0
  8  7  1  0  0  0  0
 11  8  1  0  0  0  0
  9 14  1  0  0  0  0
 10  9  1  0  0  0  0
 11 10  1  0  0  0  0
 12 11  1  0  0  0  0
 13 12  1  0  0  0  0
 14 13  1  0  0  0  0
M  END
>  <cdx:fragmentId>
5

$$$$
