2188.cdx
  Mrv1902 05222410192D          

 13 14  0  0  0  0            999 V2000
    9.1999   -6.0431    0.0000 C   0  0  0  0  0  0  0  0  0  0  0  0
    6.3420   -5.2181    0.0000 C   0  0  0  0  0  0  0  0  0  0  0  0
    7.0565   -8.1056    0.0000 C   0  0  0  0  0  0  0  0  0  0  0  0
    6.3420   -6.0431    0.0000 C   0  0  0  0  0  0  0  0  0  0  0  0
    5.6276   -6.4556    0.0000 C   0  0  0  0  0  0  0  0  0  0  0  0
    5.6276   -7.2806    0.0000 C   0  0  0  0  0  0  0  0  0  0  0  0
    6.3420   -7.6931    0.0000 C   0  0  0  0  0  0  0  0  0  0  0  0
    7.7710   -6.0431    0.0000 C   0  0  0  0  0  0  0  0  0  0  0  0
    7.0565   -6.4556    0.0000 C   0  0  0  0  0  0  0  0  0  0  0  0
    7.0565   -7.2806    0.0000 C   0  0  0  0  0  0  0  0  0  0  0  0
    7.7710   -7.6931    0.0000 C   0  0  0  0  0  0  0  0  0  0  0  0
    8.4854   -7.2806    0.0000 C   0  0  0  0  0  0  0  0  0  0  0  0
    8.4854   -6.4556    0.0000 C   0  0  0  0  0  0  0  0  0  0  0  0
 13  1  1  0  0  0  0
  4  2  1  0  0  0  0
 10  3  1  0  0  0  0
  4  9  1  0  0  0  0
  5  4  2  0  0  0  0
  6  5  1  0  0  0  0
  7  6  1  0  0  0  0
 10  7  1  0  0  0  0
  8 13  1  0  0  0  0
  9  8  1  0  0  0  0
 10  9  1  0  0  0  0
 11 10  1  0  0  0  0
 12 11  1  0  0  0  0
 13 12  1  0  0  0  0
M  END
>  <cdx:fragmentId>
5

$$$$
