2190.cdx
  Mrv1902 05222410262D          

 14 15  0  0  0  0            999 V2000
    8.7456   -5.3831    0.0000 C   0  0  0  0  0  0  0  0  0  0  0  0
    8.0312   -5.7956    0.0000 C   0  0  0  0  0  0  0  0  0  0  0  0
    8.0312   -9.0956    0.0000 C   0  0  0  0  0  0  0  0  0  0  0  0
    5.1733   -6.6206    0.0000 C   0  0  0  0  0  0  0  0  0  0  0  0
    6.6022   -6.6206    0.0000 C   0  0  0  0  0  0  0  0  0  0  0  0
    5.8877   -7.0331    0.0000 C   0  0  0  0  0  0  0  0  0  0  0  0
    5.8877   -7.8581    0.0000 C   0  0  0  0  0  0  0  0  0  0  0  0
    6.6022   -8.2706    0.0000 C   0  0  0  0  0  0  0  0  0  0  0  0
    8.0312   -6.6206    0.0000 C   0  0  0  0  0  0  0  0  0  0  0  0
    7.3167   -7.0331    0.0000 C   0  0  0  0  0  0  0  0  0  0  0  0
    7.3167   -7.8581    0.0000 C   0  0  0  0  0  0  0  0  0  0  0  0
    8.0312   -8.2706    0.0000 C   0  0  0  0  0  0  0  0  0  0  0  0
    8.7456   -7.8581    0.0000 C   0  0  0  0  0  0  0  0  0  0  0  0
    8.7456   -7.0331    0.0000 C   0  0  0  0  0  0  0  0  0  0  0  0
  2  1  1  0  0  0  0
  9  2  1  0  0  0  0
 12  3  2  0  0  0  0
  6  4  1  0  0  0  0
  5 10  1  0  0  0  0
  6  5  2  0  0  0  0
  7  6  1  0  0  0  0
  8  7  1  0  0  0  0
 11  8  1  0  0  0  0
  9 14  1  0  0  0  0
 10  9  1  0  0  0  0
 11 10  1  0  0  0  0
 12 11  1  0  0  0  0
 13 12  1  0  0  0  0
 14 13  1  0  0  0  0
M  END
>  <cdx:fragmentId>
5

$$$$
