219274.cdx
  Mrv1902 05222410252D          

 24 26  0  0  0  0            999 V2000
    7.2523  -10.4847    0.0000 C   0  0  2  0  0  0  0  0  0  0  0  0
    6.4677  -10.7396    0.0000 O   0  0  0  0  0  0  0  0  0  0  0  0
    6.4677  -11.5646    0.0000 C   0  0  1  0  0  0  0  0  0  0  0  0
    7.2523  -11.8196    0.0000 C   0  0  2  0  0  0  0  0  0  0  0  0
    7.7372  -11.1521    0.0000 C   0  0  1  0  0  0  0  0  0  0  0  0
    5.8002  -12.0496    0.0000 C   0  0  0  0  0  0  0  0  0  0  0  0
    5.8865  -12.8701    0.0000 O   0  0  0  0  0  0  0  0  0  0  0  0
    8.5622  -11.1521    0.0000 O   0  0  0  0  0  0  0  0  0  0  0  0
    7.5072  -12.6042    0.0000 O   0  0  0  0  0  0  0  0  0  0  0  0
    8.2918   -6.9701    0.0000 C   0  0  0  0  0  0  0  0  0  0  0  0
    8.2918   -6.1451    0.0000 C   0  0  0  0  0  0  0  0  0  0  0  0
    7.5774   -5.7326    0.0000 C   0  0  0  0  0  0  0  0  0  0  0  0
    7.5774   -4.9076    0.0000 C   0  0  0  0  0  0  0  0  0  0  0  0
    6.8629   -6.1451    0.0000 C   0  0  0  0  0  0  0  0  0  0  0  0
    9.0063   -7.3826    0.0000 N   0  0  0  0  0  0  0  0  0  0  0  0
    7.5072   -8.3652    0.0000 N   0  0  0  0  0  0  0  0  0  0  0  0
    7.0223   -9.0326    0.0000 C   0  0  0  0  0  0  0  0  0  0  0  0
    7.5072   -9.7001    0.0000 N   0  0  0  0  0  0  0  0  0  0  0  0
    9.0063   -8.2076    0.0000 C   0  0  0  0  0  0  0  0  0  0  0  0
    8.2918   -8.6201    0.0000 C   0  0  0  0  0  0  0  0  0  0  0  0
    8.2918   -9.4451    0.0000 C   0  0  0  0  0  0  0  0  0  0  0  0
    9.0063   -9.8576    0.0000 N   0  0  0  0  0  0  0  0  0  0  0  0
    9.7208   -9.4451    0.0000 C   0  0  0  0  0  0  0  0  0  0  0  0
    9.7208   -8.6201    0.0000 N   0  0  0  0  0  0  0  0  0  0  0  0
  1  2  1  0  0  0  0
  2  3  1  0  0  0  0
  3  4  1  0  0  0  0
  4  5  1  0  0  0  0
  5  1  1  0  0  0  0
  3  6  1  1  0  0  0
  6  7  1  0  0  0  0
  5  8  1  6  0  0  0
  1 18  1  1  0  0  0
  4  9  1  6  0  0  0
 10 11  1  0  0  0  0
 11 12  2  0  0  0  0
 12 13  1  0  0  0  0
 15 10  1  0  0  0  0
 12 14  1  0  0  0  0
 19 15  1  0  0  0  0
 16 20  1  0  0  0  0
 17 16  2  0  0  0  0
 18 17  1  0  0  0  0
 21 18  1  0  0  0  0
 19 24  1  0  0  0  0
 20 19  2  0  0  0  0
 21 20  1  0  0  0  0
 22 21  2  0  0  0  0
 23 22  1  0  0  0  0
 24 23  2  0  0  0  0
M  END
>  <cdx:fragmentId>
5

$$$$
