2195.cdx
  Mrv1902 05222410272D          

 15 16  0  0  0  0            999 V2000
    7.5218   -8.2372    0.0000 C   0  0  0  0  0  0  0  0  0  0  0  0
    8.9503   -8.2700    0.0000 C   0  0  0  0  0  0  0  0  0  0  0  0
    8.2455   -7.8412    0.0000 C   0  0  0  0  0  0  0  0  0  0  0  0
    5.4073   -6.9508    0.0000 C   0  0  0  0  0  0  0  0  0  0  0  0
    8.3212   -4.5421    0.0000 C   0  0  0  0  0  0  0  0  0  0  0  0
    6.8737   -5.3341    0.0000 C   0  0  0  0  0  0  0  0  0  0  0  0
    6.1500   -5.7301    0.0000 C   0  0  0  0  0  0  0  0  0  0  0  0
    6.1311   -6.5548    0.0000 C   0  0  0  0  0  0  0  0  0  0  0  0
    6.8359   -6.9836    0.0000 C   0  0  0  0  0  0  0  0  0  0  0  0
    8.3023   -5.3668    0.0000 C   0  0  0  0  0  0  0  0  0  0  0  0
    7.5786   -5.7628    0.0000 C   0  0  0  0  0  0  0  0  0  0  0  0
    7.5596   -6.5876    0.0000 C   0  0  0  0  0  0  0  0  0  0  0  0
    8.2644   -7.0164    0.0000 C   0  0  0  0  0  0  0  0  0  0  0  0
    8.9882   -6.6204    0.0000 C   0  0  0  0  0  0  0  0  0  0  0  0
    9.0071   -5.7956    0.0000 C   0  0  0  0  0  0  0  0  0  0  0  0
  3  1  1  0  0  0  0
  3  2  1  0  0  0  0
 13  3  1  0  0  0  0
  8  4  1  0  0  0  0
 10  5  1  0  0  0  0
  6 11  2  0  0  0  0
  7  6  1  0  0  0  0
  8  7  1  0  0  0  0
  9  8  2  0  0  0  0
 12  9  1  0  0  0  0
 10 15  1  0  0  0  0
 11 10  1  0  0  0  0
 12 11  1  0  0  0  0
 13 12  1  0  0  0  0
 14 13  1  0  0  0  0
 15 14  1  0  0  0  0
M  END
>  <cdx:fragmentId>
5

$$$$
