2196.cdx
  Mrv1902 05222410282D          

 15 16  0  0  0  0            999 V2000
    6.5136   -3.8210    0.0000 C   0  0  0  0  0  0  0  0  0  0  0  0
    5.3329   -4.6260    0.0000 C   0  0  0  0  0  0  0  0  0  0  0  0
    6.1556   -4.5643    0.0000 C   0  0  0  0  0  0  0  0  0  0  0  0
    9.2118   -4.5912    0.0000 C   0  0  0  0  0  0  0  0  0  0  0  0
    7.6877   -7.6994    0.0000 C   0  0  0  0  0  0  0  0  0  0  0  0
    8.8463   -6.6693    0.0000 C   0  0  0  0  0  0  0  0  0  0  0  0
    9.3350   -6.0046    0.0000 C   0  0  0  0  0  0  0  0  0  0  0  0
    8.8538   -5.3345    0.0000 C   0  0  0  0  0  0  0  0  0  0  0  0
    7.4152   -6.9207    0.0000 C   0  0  0  0  0  0  0  0  0  0  0  0
    8.0631   -6.4099    0.0000 C   0  0  0  0  0  0  0  0  0  0  0  0
    8.0678   -5.5850    0.0000 C   0  0  0  0  0  0  0  0  0  0  0  0
    7.4257   -5.0669    0.0000 C   0  0  0  0  0  0  0  0  0  0  0  0
    6.6203   -5.2460    0.0000 C   0  0  0  0  0  0  0  0  0  0  0  0
    6.2582   -5.9872    0.0000 C   0  0  0  0  0  0  0  0  0  0  0  0
    6.6119   -6.7325    0.0000 C   0  0  0  0  0  0  0  0  0  0  0  0
  3  1  1  0  0  0  0
  3  2  2  0  0  0  0
 13  3  1  0  0  0  0
  8  4  1  0  0  0  0
  9  5  1  0  0  0  0
  6 10  1  0  0  0  0
  7  6  1  0  0  0  0
  8  7  1  0  0  0  0
 11  8  1  0  0  0  0
  9 15  1  0  0  0  0
 10  9  1  0  0  0  0
 11 10  2  0  0  0  0
 12 11  1  0  0  0  0
 13 12  1  0  0  0  0
 14 13  1  0  0  0  0
 15 14  1  0  0  0  0
M  END
>  <cdx:fragmentId>
5

$$$$
