85219724.cdx
  Mrv1902 05222410232D          

 41 43  0  0  0  0            999 V2000
    8.0527  -14.9007    0.0000 C   0  0  0  0  0  0  0  0  0  0  0  0
    8.8373  -15.1556    0.0000 C   0  0  0  0  0  0  0  0  0  0  0  0
    9.3222  -14.4882    0.0000 C   0  0  0  0  0  0  0  0  0  0  0  0
    8.8373  -13.8208    0.0000 O   0  0  0  0  0  0  0  0  0  0  0  0
    8.0527  -14.0757    0.0000 C   0  0  0  0  0  0  0  0  0  0  0  0
    7.3382  -13.6632    0.0000 C   0  0  0  0  0  0  0  0  0  0  0  0
    6.6237  -14.0757    0.0000 C   0  0  0  0  0  0  0  0  0  0  0  0
    6.6237  -14.9007    0.0000 C   0  0  0  0  0  0  0  0  0  0  0  0
    6.6395  -15.7049    0.0000 C   0  0  0  0  0  0  0  0  0  0  0  0
    7.3386  -16.1028    0.0000 C   0  0  0  0  0  0  0  0  0  0  0  0
    8.0377  -15.7049    0.0000 C   0  0  0  0  0  0  0  0  0  0  0  0
    7.3382  -15.3132    0.0000 C   0  0  0  0  0  0  0  0  0  0  0  0
    5.9093  -13.6632    0.0000 O   0  0  0  0  0  0  0  0  0  0  0  0
    7.1950  -16.1257    0.0000 O   0  0  0  0  0  0  0  0  0  0  0  0
    5.5512  -14.9007    0.0000 C   0  0  0  0  0  0  0  0  0  0  0  0
    5.0150  -13.9719    0.0000 C   0  0  0  0  0  0  0  0  0  0  0  0
    5.4275  -13.2574    0.0000 C   0  0  0  0  0  0  0  0  0  0  0  0
    5.1387  -15.6152    0.0000 O   0  0  0  0  0  0  0  0  0  0  0  0
    4.1900  -13.9719    0.0000 C   0  0  0  0  0  0  0  0  0  0  0  0
    5.7107  -16.2412    0.0000 C   0  0  0  0  0  0  0  0  0  0  0  0
    4.9962  -15.8287    0.0000 C   0  0  0  0  0  0  0  0  0  0  0  0
    4.2817  -16.2412    0.0000 C   0  0  0  0  0  0  0  0  0  0  0  0
    3.5673  -15.8287    0.0000 C   0  0  0  0  0  0  0  0  0  0  0  0
    2.8528  -16.2412    0.0000 C   0  0  0  0  0  0  0  0  0  0  0  0
    3.5673  -15.0037    0.0000 C   0  0  0  0  0  0  0  0  0  0  0  0
    7.3386  -16.9278    0.0000 C   0  0  0  0  0  0  0  0  0  0  0  0
    6.6241  -17.3403    0.0000 C   0  0  0  0  0  0  0  0  0  0  0  0
    6.6241  -18.1653    0.0000 C   0  0  0  0  0  0  0  0  0  0  0  0
    7.3386  -18.5778    0.0000 C   0  0  0  0  0  0  0  0  0  0  0  0
    5.9096  -18.5778    0.0000 C   0  0  0  0  0  0  0  0  0  0  0  0
    7.3382  -12.8382    0.0000 C   0  0  0  0  0  0  0  0  0  0  0  0
    6.6237  -12.4257    0.0000 C   0  0  0  0  0  0  0  0  0  0  0  0
    6.6237  -11.6007    0.0000 C   0  0  0  0  0  0  0  0  0  0  0  0
    7.3382  -11.1882    0.0000 C   0  0  0  0  0  0  0  0  0  0  0  0
    5.9093  -11.1882    0.0000 C   0  0  0  0  0  0  0  0  0  0  0  0
    6.6395  -16.5299    0.0000 C   0  0  0  0  0  0  0  0  0  0  0  0
   10.8617  -14.9007    0.0000 C   0  0  0  0  0  0  0  0  0  0  0  0
   10.1472  -14.4882    0.0000 C   0  0  0  0  0  0  0  0  0  0  0  0
   10.1472  -15.3132    0.0000 C   0  0  0  0  0  0  0  0  0  0  0  0
   10.5597  -13.7737    0.0000 O   0  0  0  0  0  0  0  0  0  0  0  0
   11.3847  -13.7737    0.0000 O   0  0  0  0  0  0  0  0  0  0  0  0
  1  2  1  0  0  0  0
  2  3  1  0  0  0  0
  3  4  1  0  0  0  0
  4  5  1  0  0  0  0
  5  6  2  0  0  0  0
  6  7  1  0  0  0  0
  7  8  1  0  0  0  0
  8  9  1  0  0  0  0
  9 10  1  0  0  0  0
 10 11  1  0  0  0  0
  1 11  1  0  0  0  0
  1 12  1  0  0  0  0
 12  8  1  0  0  0  0
  1  5  1  0  0  0  0
  7 13  2  0  0  0  0
 12 14  2  0  0  0  0
 15 16  1  0  0  0  0
 16 17  1  0  0  0  0
 15 18  2  0  0  0  0
 16 19  1  0  0  0  0
  8 15  1  0  0  0  0
 20 21  1  0  0  0  0
 21 22  1  0  0  0  0
 22 23  2  0  0  0  0
 23 24  1  0  0  0  0
 23 25  1  0  0  0  0
  9 20  1  0  0  0  0
 26 27  1  0  0  0  0
 27 28  2  0  0  0  0
 28 29  1  0  0  0  0
 28 30  1  0  0  0  0
 10 26  1  0  0  0  0
 31 32  1  0  0  0  0
 32 33  2  0  0  0  0
 33 34  1  0  0  0  0
 33 35  1  0  0  0  0
  6 31  1  0  0  0  0
  9 36  1  0  0  0  0
 37 38  1  0  0  0  0
 38 39  1  0  0  0  0
 40 41  1  0  0  0  0
 38 40  1  0  0  0  0
  3 38  1  0  0  0  0
M  END
>  <cdx:groupId>
209057

>  <cdx:fragmentId>
208935

$$$$
