22015.cdx
  Mrv1902 05222410232D          

 10 10  0  0  0  0            999 V2000
    5.5879   -3.7538    0.0000 C   0  0  0  0  0  0  0  0  0  0  0  0
    4.8734   -3.3413    0.0000 C   0  0  0  0  0  0  0  0  0  0  0  0
    4.8734   -2.5162    0.0000 C   0  0  0  0  0  0  0  0  0  0  0  0
    4.1590   -2.1037    0.0000 C   0  0  0  0  0  0  0  0  0  0  0  0
    3.4445   -2.5162    0.0000 C   0  0  0  0  0  0  0  0  0  0  0  0
    3.4445   -3.3412    0.0000 C   0  0  0  0  0  0  0  0  0  0  0  0
    4.1590   -3.7538    0.0000 C   0  0  0  0  0  0  0  0  0  0  0  0
    6.3024   -3.3413    0.0000 O   0  0  0  0  0  0  0  0  0  0  0  0
    2.7300   -3.7537    0.0000 C   0  0  0  0  0  0  0  0  0  0  0  0
    5.5879   -2.1037    0.0000 C   0  0  0  0  0  0  0  0  0  0  0  0
  1  2  1  0  0  0  0
  2  3  1  0  0  0  0
  3  4  2  0  0  0  0
  4  5  1  0  0  0  0
  5  6  2  0  0  0  0
  6  7  1  0  0  0  0
  2  7  2  0  0  0  0
  1  8  2  0  0  0  0
  6  9  1  0  0  0  0
  3 10  1  0  0  0  0
M  END
>  <cdx:groupId>
32

>  <cdx:fragmentId>
5

$$$$
