22013.cdx
  Mrv1902 05222410252D          

 11 11  0  0  0  0            999 V2000
    5.9798   -3.2588    0.0000 C   0  0  0  0  0  0  0  0  0  0  0  0
    5.2653   -2.8463    0.0000 C   0  0  0  0  0  0  0  0  0  0  0  0
    5.2653   -2.0213    0.0000 C   0  0  0  0  0  0  0  0  0  0  0  0
    4.5508   -1.6087    0.0000 C   0  0  0  0  0  0  0  0  0  0  0  0
    3.8364   -2.0212    0.0000 C   0  0  0  0  0  0  0  0  0  0  0  0
    3.8364   -2.8462    0.0000 C   0  0  0  0  0  0  0  0  0  0  0  0
    4.5508   -3.2588    0.0000 C   0  0  0  0  0  0  0  0  0  0  0  0
    6.6942   -2.8463    0.0000 O   0  0  0  0  0  0  0  0  0  0  0  0
    3.1219   -3.2587    0.0000 C   0  0  0  0  0  0  0  0  0  0  0  0
    3.1219   -1.6087    0.0000 C   0  0  0  0  0  0  0  0  0  0  0  0
    5.9798   -1.6087    0.0000 C   0  0  0  0  0  0  0  0  0  0  0  0
  1  2  1  0  0  0  0
  2  3  1  0  0  0  0
  3  4  2  0  0  0  0
  4  5  1  0  0  0  0
  5  6  2  0  0  0  0
  6  7  1  0  0  0  0
  2  7  2  0  0  0  0
  1  8  2  0  0  0  0
  6  9  1  0  0  0  0
  5 10  1  0  0  0  0
  3 11  1  0  0  0  0
M  END
>  <cdx:groupId>
35

>  <cdx:fragmentId>
5

$$$$
