220338.cdx
  Mrv1902 05222410192D          

 24 26  0  0  0  0            999 V2000
    7.9408   -5.5055    0.0000 C   0  0  0  0  0  0  0  0  0  0  0  0
    8.6589   -5.9116    0.0000 C   0  0  2  0  0  0  0  0  0  0  0  0
    8.6662   -6.7366    0.0000 C   0  0  0  0  0  0  0  0  0  0  0  0
    7.9554   -7.1554    0.0000 C   0  0  0  0  0  0  0  0  0  0  0  0
    7.2373   -6.7493    0.0000 C   0  0  2  0  0  0  0  0  0  0  0  0
    7.2300   -5.9243    0.0000 C   0  0  0  0  0  0  0  0  0  0  0  0
    7.9628   -7.9804    0.0000 C   0  0  0  0  0  0  0  0  0  0  0  0
    7.2520   -8.3992    0.0000 C   0  0  0  0  0  0  0  0  0  0  0  0
    6.5339   -7.9931    0.0000 C   0  0  2  0  0  0  0  0  0  0  0  0
    6.5265   -7.1681    0.0000 C   0  0  2  0  0  0  0  0  0  0  0  0
    5.8231   -8.4119    0.0000 C   0  0  2  0  0  0  0  0  0  0  0  0
    5.1050   -8.0058    0.0000 C   0  0  0  0  0  0  0  0  0  0  0  0
    5.0977   -7.1808    0.0000 C   0  0  0  0  0  0  0  0  0  0  0  0
    5.8084   -6.7620    0.0000 C   0  0  0  0  0  0  0  0  0  0  0  0
    6.5192   -6.3432    0.0000 C   0  0  0  0  0  0  0  0  0  0  0  0
    6.5412   -8.8181    0.0000 H   0  0  0  0  0  0  0  0  0  0  0  0
    5.4106   -9.1264    0.0000 C   0  0  0  0  0  0  0  0  0  0  0  0
    6.2356   -9.1264    0.0000 C   0  0  0  0  0  0  0  0  0  0  0  0
    7.2447   -7.5743    0.0000 H   0  0  0  0  0  0  0  0  0  0  0  0
    9.4839   -5.9116    0.0000 C   0  0  0  0  0  0  0  0  0  0  0  0
    9.0714   -5.1972    0.0000 C   0  0  0  0  0  0  0  0  0  0  0  0
    9.8964   -5.1972    0.0000 C   0  0  0  0  0  0  0  0  0  0  0  0
    5.8231   -9.8409    0.0000 O   0  0  0  0  0  0  0  0  0  0  0  0
    7.0606   -9.1264    0.0000 O   0  0  0  0  0  0  0  0  0  0  0  0
  1  2  1  0  0  0  0
  2  3  1  0  0  0  0
  3  4  2  0  0  0  0
  4  5  1  0  0  0  0
  5  6  1  0  0  0  0
  6  1  1  0  0  0  0
  4  7  1  0  0  0  0
  7  8  1  0  0  0  0
  8  9  1  0  0  0  0
  9 10  1  0  0  0  0
 10  5  1  0  0  0  0
  9 11  1  0  0  0  0
 11 12  1  0  0  0  0
 12 13  1  0  0  0  0
 13 14  1  0  0  0  0
 14 10  1  0  0  0  0
 10 15  1  1  0  0  0
  9 16  1  6  0  0  0
 11 17  1  1  0  0  0
 11 18  1  6  0  0  0
  5 19  1  6  0  0  0
  2 20  1  1  0  0  0
  2 21  1  6  0  0  0
 20 22  2  0  0  0  0
 18 23  1  0  0  0  0
 18 24  2  0  0  0  0
M  END
>  <cdx:fragmentId>
1324

$$$$
