220520.cdx
  Mrv1902 05222410282D          

 33 39  0  0  0  0            999 V2000
    5.2361   -9.5872    0.0000 C   0  0  0  0  0  0  0  0  0  0  0  0
    4.5216   -9.1747    0.0000 O   0  0  0  0  0  0  0  0  0  0  0  0
    3.8072   -9.5872    0.0000 C   0  0  0  0  0  0  0  0  0  0  0  0
    5.2361  -10.4122    0.0000 C   0  0  0  0  0  0  0  0  0  0  0  0
    4.5216  -10.8247    0.0000 O   0  0  0  0  0  0  0  0  0  0  0  0
    3.8072  -10.4122    0.0000 C   0  0  0  0  0  0  0  0  0  0  0  0
    5.9506  -10.8247    0.0000 C   0  0  0  0  0  0  0  0  0  0  0  0
    6.6650  -10.4122    0.0000 C   0  0  0  0  0  0  0  0  0  0  0  0
    6.6650   -9.5872    0.0000 C   0  0  0  0  0  0  0  0  0  0  0  0
    5.9506   -9.1747    0.0000 C   0  0  0  0  0  0  0  0  0  0  0  0
    7.4497  -10.6672    0.0000 N   0  0  0  0  0  0  0  0  0  0  0  0
    7.8925  -11.3634    0.0000 C   0  0  0  0  0  0  0  0  0  0  0  0
    7.4800  -12.0779    0.0000 O   0  0  0  0  0  0  0  0  0  0  0  0
    8.7174  -11.3526    0.0000 C   0  0  0  0  0  0  0  0  0  0  0  0
    9.1392  -10.6436    0.0000 C   0  0  2  0  0  0  0  0  0  0  0  0
    9.9488  -10.8008    0.0000 O   0  0  0  0  0  0  0  0  0  0  0  0
   10.5770  -10.2660    0.0000 C   0  0  0  0  0  0  0  0  0  0  0  0
   10.5501   -9.4414    0.0000 C   0  0  0  0  0  0  0  0  0  0  0  0
    9.8882   -8.9489    0.0000 C   0  0  0  0  0  0  0  0  0  0  0  0
    8.8303   -7.6056    0.0000 C   0  0  0  0  0  0  0  0  0  0  0  0
    9.0906   -9.1598    0.0000 C   0  0  1  0  0  0  0  0  0  0  0  0
    9.0848   -8.3348    0.0000 H   0  0  0  0  0  0  0  0  0  0  0  0
    8.7551   -9.9135    0.0000 C   0  0  2  0  0  0  0  0  0  0  0  0
    9.5801   -9.9135    0.0000 H   0  0  0  0  0  0  0  0  0  0  0  0
    8.6057   -8.4924    0.0000 C   0  0  0  0  0  0  0  0  0  0  0  0
    7.7852   -8.5786    0.0000 C   0  0  1  0  0  0  0  0  0  0  0  0
    8.2702   -9.2461    0.0000 H   0  0  0  0  0  0  0  0  0  0  0  0
    7.4497   -9.3323    0.0000 C   0  0  2  0  0  0  0  0  0  0  0  0
    7.9346   -9.9997    0.0000 C   0  0  1  0  0  0  0  0  0  0  0  0
    7.1096   -9.9997    0.0000 H   0  0  0  0  0  0  0  0  0  0  0  0
    6.6292   -9.2461    0.0000 C   0  0  0  0  0  0  0  0  0  0  0  0
    6.4577   -8.4391    0.0000 C   0  0  0  0  0  0  0  0  0  0  0  0
    7.1721   -8.0266    0.0000 N   0  0  0  0  0  0  0  0  0  0  0  0
  1  2  1  0  0  0  0
  2  3  1  0  0  0  0
  1  4  1  0  0  0  0
  4  5  1  0  0  0  0
  5  6  1  0  0  0  0
  4  7  2  0  0  0  0
  7  8  1  0  0  0  0
  8  9  2  0  0  0  0
  9 10  1  0  0  0  0
  1 10  2  0  0  0  0
  8 11  1  0  0  0  0
 11 12  1  0  0  0  0
 12 13  2  0  0  0  0
 12 14  1  0  0  0  0
 14 15  1  0  0  0  0
 15 16  1  1  0  0  0
 16 17  1  0  0  0  0
 17 18  1  0  0  0  0
 18 19  2  0  0  0  0
 19 20  1  0  0  0  0
 19 21  1  0  0  0  0
 21 22  1  6  0  0  0
 21 23  1  0  0  0  0
 23 24  1  6  0  0  0
 15 23  1  0  0  0  0
 21 25  1  0  0  0  0
 25 26  1  0  0  0  0
 26 27  1  6  0  0  0
 26 28  1  0  0  0  0
 28  9  1  6  0  0  0
 28 29  1  0  0  0  0
 29 30  1  1  0  0  0
 11 29  1  0  0  0  0
 23 29  1  0  0  0  0
 28 31  1  1  0  0  0
 31 32  1  0  0  0  0
 32 33  1  0  0  0  0
 20 33  1  0  0  0  0
 26 33  1  0  0  0  0
M  END
>  <cdx:groupId>
1239

>  <cdx:fragmentId>
1137

$$$$
