221168.cdx
  Mrv1902 05222410182D          

  9  8  0  0  0  0            999 V2000
    6.5870   -8.6433    0.0000 C   0  0  0  0  0  0  0  0  0  0  0  0
    6.1745   -7.9288    0.0000 C   0  0  0  0  0  0  0  0  0  0  0  0
    6.8890   -7.5163    0.0000 C   0  0  0  0  0  0  0  0  0  0  0  0
    7.6035   -7.9288    0.0000 C   0  0  0  0  0  0  0  0  0  0  0  0
    8.3180   -7.5163    0.0000 C   0  0  0  0  0  0  0  0  0  0  0  0
    9.0324   -7.9288    0.0000 C   0  0  0  0  0  0  0  0  0  0  0  0
    6.8890   -6.6913    0.0000 O   0  0  0  0  0  0  0  0  0  0  0  0
    5.4601   -8.3413    0.0000 C   0  0  0  0  0  0  0  0  0  0  0  0
    5.7620   -7.2144    0.0000 C   0  0  0  0  0  0  0  0  0  0  0  0
  1  2  1  0  0  0  0
  2  3  1  0  0  0  0
  3  4  1  0  0  0  0
  4  5  1  0  0  0  0
  5  6  1  0  0  0  0
  3  7  2  0  0  0  0
  2  8  1  0  0  0  0
  2  9  1  0  0  0  0
M  END
>  <cdx:groupId>
2951

>  <cdx:fragmentId>
2928

$$$$
