221496.cdx
  Mrv1902 05222410222D          

 58 67  0  0  0  0            999 V2000
    3.0530  -11.8800    0.0000 C   0  0  0  0  0  0  0  0  0  0  0  0
    3.0530  -12.7050    0.0000 C   0  0  0  0  0  0  0  0  0  0  0  0
    3.7675  -13.1175    0.0000 C   0  0  0  0  0  0  0  0  0  0  0  0
    4.4820  -12.7050    0.0000 C   0  0  2  0  0  0  0  0  0  0  0  0
    4.4820  -11.8800    0.0000 C   0  0  1  0  0  0  0  0  0  0  0  0
    3.7675  -11.4675    0.0000 C   0  0  0  0  0  0  0  0  0  0  0  0
    5.1964  -13.1175    0.0000 C   0  0  0  0  0  0  0  0  0  0  0  0
    5.9109  -12.7050    0.0000 C   0  0  0  0  0  0  0  0  0  0  0  0
    5.9109  -11.8800    0.0000 C   0  0  2  0  0  0  0  0  0  0  0  0
    5.1964  -11.4675    0.0000 C   0  0  1  0  0  0  0  0  0  0  0  0
    6.5240  -11.3280    0.0000 C   0  0  1  0  0  0  0  0  0  0  0  0
    6.1884  -10.5743    0.0000 C   0  0  1  0  0  0  0  0  0  0  0  0
    5.3680  -10.6605    0.0000 C   0  0  1  0  0  0  0  0  0  0  0  0
    7.3445  -11.2417    0.0000 O   0  0  0  0  0  0  0  0  0  0  0  0
    7.5160  -10.4348    0.0000 C   0  0  0  0  0  0  0  0  0  0  0  0
    6.8015  -10.0223    0.0000 C   0  0  0  0  0  0  0  0  0  0  0  0
    8.2697  -10.0992    0.0000 O   0  0  0  0  0  0  0  0  0  0  0  0
    3.3550  -13.8320    0.0000 C   0  0  0  0  0  0  0  0  0  0  0  0
    4.1800  -13.8320    0.0000 C   0  0  0  0  0  0  0  0  0  0  0  0
    4.4820  -13.5300    0.0000 H   0  0  0  0  0  0  0  0  0  0  0  0
    4.4820  -11.0550    0.0000 C   0  0  0  0  0  0  0  0  0  0  0  0
    5.1964  -12.2925    0.0000 H   0  0  0  0  0  0  0  0  0  0  0  0
    6.9365  -12.0424    0.0000 H   0  0  0  0  0  0  0  0  0  0  0  0
    5.7759   -9.8598    0.0000 H   0  0  0  0  0  0  0  0  0  0  0  0
    6.7153   -9.2018    0.0000 C   0  0  0  0  0  0  0  0  0  0  0  0
    7.3827   -8.7169    0.0000 C   0  0  0  0  0  0  0  0  0  0  0  0
    7.2965   -7.8964    0.0000 C   0  0  0  0  0  0  0  0  0  0  0  0
    7.9096   -7.3443    0.0000 C   0  0  1  0  0  0  0  0  0  0  0  0
    7.5740   -6.5907    0.0000 C   0  0  1  0  0  0  0  0  0  0  0  0
    6.7536   -6.6769    0.0000 C   0  0  0  0  0  0  0  0  0  0  0  0
    6.5820   -7.4839    0.0000 C   0  0  0  0  0  0  0  0  0  0  0  0
    8.7301   -7.2581    0.0000 C   0  0  2  0  0  0  0  0  0  0  0  0
    8.9016   -6.4511    0.0000 C   0  0  2  0  0  0  0  0  0  0  0  0
    8.1871   -6.0386    0.0000 C   0  0  1  0  0  0  0  0  0  0  0  0
    9.6161   -6.0386    0.0000 C   0  0  1  0  0  0  0  0  0  0  0  0
    9.6161   -5.2136    0.0000 C   0  0  2  0  0  0  0  0  0  0  0  0
    8.9016   -4.8011    0.0000 C   0  0  0  0  0  0  0  0  0  0  0  0
    8.1871   -5.2136    0.0000 C   0  0  0  0  0  0  0  0  0  0  0  0
   10.3306   -6.4511    0.0000 C   0  0  0  0  0  0  0  0  0  0  0  0
   11.0450   -6.0386    0.0000 C   0  0  0  0  0  0  0  0  0  0  0  0
   11.0450   -5.2136    0.0000 C   0  0  0  0  0  0  0  0  0  0  0  0
   10.3306   -4.8011    0.0000 C   0  0  0  0  0  0  0  0  0  0  0  0
    9.9181   -4.0867    0.0000 C   0  0  0  0  0  0  0  0  0  0  0  0
   10.7431   -4.0867    0.0000 C   0  0  0  0  0  0  0  0  0  0  0  0
    9.6161   -4.3886    0.0000 H   0  0  0  0  0  0  0  0  0  0  0  0
    9.6161   -6.8636    0.0000 C   0  0  0  0  0  0  0  0  0  0  0  0
    8.9016   -5.6261    0.0000 H   0  0  0  0  0  0  0  0  0  0  0  0
    9.2821   -7.8712    0.0000 O   0  0  0  0  0  0  0  0  0  0  0  0
    7.1615   -5.8762    0.0000 H   0  0  0  0  0  0  0  0  0  0  0  0
    8.3221   -8.0588    0.0000 H   0  0  0  0  0  0  0  0  0  0  0  0
    5.8284   -7.8194    0.0000 O   0  0  0  0  0  0  0  0  0  0  0  0
    4.8159  -10.0474    0.0000 O   0  0  0  0  0  0  0  0  0  0  0  0
    5.3680   -9.8355    0.0000 C   0  0  0  0  0  0  0  0  0  0  0  0
    5.9109  -11.0550    0.0000 O   0  0  0  0  0  0  0  0  0  0  0  0
    5.1964   -9.0286    0.0000 O   0  0  0  0  0  0  0  0  0  0  0  0
    8.7301   -8.0831    0.0000 C   0  0  0  0  0  0  0  0  0  0  0  0
    8.1871   -6.8636    0.0000 O   0  0  0  0  0  0  0  0  0  0  0  0
    8.9016   -8.8901    0.0000 O   0  0  0  0  0  0  0  0  0  0  0  0
  1  2  1  0  0  0  0
  2  3  1  0  0  0  0
  3  4  1  0  0  0  0
  4  5  1  0  0  0  0
  5  6  1  0  0  0  0
  6  1  1  0  0  0  0
  4  7  1  0  0  0  0
  7  8  1  0  0  0  0
  8  9  1  0  0  0  0
  9 10  1  0  0  0  0
 10  5  1  0  0  0  0
  9 11  1  0  0  0  0
 11 12  1  0  0  0  0
 12 13  1  0  0  0  0
 13 10  1  0  0  0  0
 11 14  1  0  0  0  0
 14 15  1  0  0  0  0
 15 16  1  0  0  0  0
 16 12  1  0  0  0  0
 15 17  2  0  0  0  0
  3 18  1  0  0  0  0
  3 19  1  0  0  0  0
  4 20  1  1  0  0  0
  5 21  1  6  0  0  0
 10 22  1  1  0  0  0
 11 23  1  6  0  0  0
 12 24  1  6  0  0  0
 16 25  2  0  0  0  0
 25 26  1  0  0  0  0
 26 27  2  0  0  0  0
 27 28  1  0  0  0  0
 28 29  1  0  0  0  0
 29 30  1  0  0  0  0
 30 31  1  0  0  0  0
 31 27  1  0  0  0  0
 28 32  1  0  0  0  0
 32 33  1  0  0  0  0
 33 34  1  0  0  0  0
 34 29  1  0  0  0  0
 33 35  1  0  0  0  0
 35 36  1  0  0  0  0
 36 37  1  0  0  0  0
 37 38  1  0  0  0  0
 38 34  1  0  0  0  0
 35 39  1  0  0  0  0
 39 40  1  0  0  0  0
 40 41  1  0  0  0  0
 41 42  1  0  0  0  0
 42 36  1  0  0  0  0
 42 43  1  0  0  0  0
 42 44  1  0  0  0  0
 36 45  1  1  0  0  0
 35 46  1  6  0  0  0
 33 47  1  1  0  0  0
 32 48  1  0  0  0  0
 29 49  1  6  0  0  0
 28 50  1  6  0  0  0
 31 51  2  0  0  0  0
 13 52  1  0  0  0  0
 13 53  1  1  0  0  0
  9 54  1  1  0  0  0
 53 54  1  0  0  0  0
 53 55  2  0  0  0  0
 32 56  1  1  0  0  0
 34 57  1  1  0  0  0
 57 56  1  0  0  0  0
 56 58  2  0  0  0  0
M  END
>  <cdx:fragmentId>
234627

$$$$
