2214.cdx
  Mrv1902 05222410192D          

 12 12  0  0  0  0            999 V2000
    4.9517   -2.8127    0.0000 C   0  0  0  0  0  0  0  0  0  0  0  0
    5.6662   -3.2252    0.0000 C   0  0  0  0  0  0  0  0  0  0  0  0
    4.2372   -3.2252    0.0000 C   0  0  0  0  0  0  0  0  0  0  0  0
    3.5227   -2.8127    0.0000 C   0  0  0  0  0  0  0  0  0  0  0  0
    2.8083   -3.2252    0.0000 C   0  0  0  0  0  0  0  0  0  0  0  0
    2.8083   -4.0502    0.0000 C   0  0  0  0  0  0  0  0  0  0  0  0
    3.5227   -4.4627    0.0000 C   0  0  0  0  0  0  0  0  0  0  0  0
    4.2372   -4.0502    0.0000 C   0  0  0  0  0  0  0  0  0  0  0  0
    2.0938   -2.8127    0.0000 O   0  0  0  0  0  0  0  0  0  0  0  0
    1.3793   -3.2252    0.0000 C   0  0  0  0  0  0  0  0  0  0  0  0
    2.0938   -4.4627    0.0000 O   0  0  0  0  0  0  0  0  0  0  0  0
    4.9517   -1.9877    0.0000 O   0  0  0  0  0  0  0  0  0  0  0  0
  1  2  1  0  0  0  0
  3  4  1  0  0  0  0
  4  5  2  0  0  0  0
  5  6  1  0  0  0  0
  6  7  2  0  0  0  0
  7  8  1  0  0  0  0
  3  8  2  0  0  0  0
  9 10  1  0  0  0  0
  5  9  1  0  0  0  0
  6 11  1  0  0  0  0
  1  3  1  0  0  0  0
  1 12  2  0  0  0  0
M  END
>  <cdx:groupId>
38

>  <cdx:fragmentId>
9

$$$$
