221691.cdx
  Mrv1902 05222410212D          

 16 16  0  0  0  0            999 V2000
    5.0799   -6.1625    0.0000 C   0  0  0  0  0  0  0  0  0  0  0  0
    5.0799   -6.9875    0.0000 C   0  0  0  0  0  0  0  0  0  0  0  0
    4.3654   -7.4000    0.0000 C   0  0  0  0  0  0  0  0  0  0  0  0
    3.6510   -6.9875    0.0000 C   0  0  0  0  0  0  0  0  0  0  0  0
    3.6510   -6.1625    0.0000 C   0  0  0  0  0  0  0  0  0  0  0  0
    4.3654   -5.7500    0.0000 C   0  0  0  0  0  0  0  0  0  0  0  0
    6.5088   -6.1625    0.0000 C   0  0  0  0  0  0  0  0  0  0  0  0
    5.7944   -5.7500    0.0000 C   0  0  0  0  0  0  0  0  0  0  0  0
    6.5088   -6.9875    0.0000 O   0  0  0  0  0  0  0  0  0  0  0  0
    7.2233   -5.7500    0.0000 O   0  0  0  0  0  0  0  0  0  0  0  0
    7.9378   -6.1625    0.0000 C   0  0  0  0  0  0  0  0  0  0  0  0
    8.6523   -5.7500    0.0000 C   0  0  0  0  0  0  0  0  0  0  0  0
    9.3667   -6.1625    0.0000 C   0  0  0  0  0  0  0  0  0  0  0  0
   10.0812   -5.7500    0.0000 C   0  0  0  0  0  0  0  0  0  0  0  0
   10.7957   -6.1625    0.0000 C   0  0  0  0  0  0  0  0  0  0  0  0
   11.5101   -5.7500    0.0000 C   0  0  0  0  0  0  0  0  0  0  0  0
  1  2  1  0  0  0  0
  2  3  2  0  0  0  0
  3  4  1  0  0  0  0
  4  5  2  0  0  0  0
  5  6  1  0  0  0  0
  1  6  2  0  0  0  0
  7  8  1  0  0  0  0
  7  9  2  0  0  0  0
  7 10  1  0  0  0  0
  1  8  1  0  0  0  0
 11 12  1  0  0  0  0
 12 13  1  0  0  0  0
 13 14  1  0  0  0  0
 14 15  1  0  0  0  0
 15 16  1  0  0  0  0
 10 11  1  0  0  0  0
M  END
>  <cdx:fragmentId>
3001

$$$$
