221641.cdx
  Mrv1902 05222410222D          

 13 13  0  0  0  0            999 V2000
    7.0977   -8.6458    0.0000 C   0  0  0  0  0  0  0  0  0  0  0  0
    7.0985   -7.8208    0.0000 C   0  0  0  0  0  0  0  0  0  0  0  0
    7.8117   -9.0590    0.0000 O   0  0  0  0  0  0  0  0  0  0  0  0
    6.3828   -9.0577    0.0000 O   0  0  0  0  0  0  0  0  0  0  0  0
    6.3820   -9.8827    0.0000 C   0  0  0  0  0  0  0  0  0  0  0  0
    7.0961  -10.2958    0.0000 C   0  0  0  0  0  0  0  0  0  0  0  0
    7.0953  -11.1208    0.0000 C   0  0  0  0  0  0  0  0  0  0  0  0
    6.3804  -11.5327    0.0000 C   0  0  0  0  0  0  0  0  0  0  0  0
    5.6664  -11.1195    0.0000 C   0  0  0  0  0  0  0  0  0  0  0  0
    5.6672  -10.2945    0.0000 C   0  0  0  0  0  0  0  0  0  0  0  0
    7.8133   -7.4090    0.0000 C   0  0  0  0  0  0  0  0  0  0  0  0
    7.8141   -6.5840    0.0000 C   0  0  0  0  0  0  0  0  0  0  0  0
    8.5290   -6.1722    0.0000 C   0  0  0  0  0  0  0  0  0  0  0  0
  1  2  1  0  0  0  0
  1  3  2  0  0  0  0
  1  4  1  0  0  0  0
  5  6  1  0  0  0  0
  6  7  2  0  0  0  0
  7  8  1  0  0  0  0
  8  9  2  0  0  0  0
  9 10  1  0  0  0  0
  5 10  2  0  0  0  0
  4  5  1  0  0  0  0
 11 12  1  0  0  0  0
 12 13  1  0  0  0  0
  2 11  1  0  0  0  0
M  END
>  <cdx:fragmentId>
13

$$$$
