22179.cdx
  Mrv1902 05222410222D          

 24 27  0  0  0  0            999 V2000
    9.5646   -8.2930    0.0000 N   0  0  0  0  0  0  0  0  0  0  0  0
   10.2790   -7.8803    0.0000 C   0  0  0  0  0  0  0  0  0  0  0  0
   10.2792   -7.0553    0.0000 C   0  0  0  0  0  0  0  0  0  0  0  0
    9.5652   -6.6421    0.0000 C   0  0  0  0  0  0  0  0  0  0  0  0
    8.8507   -7.0546    0.0000 C   0  0  0  0  0  0  0  0  0  0  0  0
    8.1362   -6.6421    0.0000 C   0  0  0  0  0  0  0  0  0  0  0  0
    7.4218   -7.0546    0.0000 C   0  0  0  0  0  0  0  0  0  0  0  0
    7.4218   -7.8796    0.0000 C   0  0  0  0  0  0  0  0  0  0  0  0
    8.1362   -8.2921    0.0000 C   0  0  0  0  0  0  0  0  0  0  0  0
    8.8507   -7.8796    0.0000 C   0  0  2  0  0  0  0  0  0  0  0  0
    8.1362   -5.8171    0.0000 C   0  0  0  0  0  0  0  0  0  0  0  0
    8.8507   -5.4046    0.0000 C   0  0  0  0  0  0  0  0  0  0  0  0
    9.5652   -5.8171    0.0000 C   0  0  0  0  0  0  0  0  0  0  0  0
    6.7073   -8.2921    0.0000 C   0  0  0  0  0  0  0  0  0  0  0  0
    5.9928   -7.8796    0.0000 C   0  0  0  0  0  0  0  0  0  0  0  0
    5.9928   -7.0546    0.0000 C   0  0  0  0  0  0  0  0  0  0  0  0
    6.7073   -6.6421    0.0000 C   0  0  0  0  0  0  0  0  0  0  0  0
    8.8507   -4.5796    0.0000 O   0  0  0  0  0  0  0  0  0  0  0  0
    5.2784   -8.2921    0.0000 O   0  0  0  0  0  0  0  0  0  0  0  0
    5.2784   -6.6421    0.0000 O   0  0  0  0  0  0  0  0  0  0  0  0
    4.5639   -7.0546    0.0000 C   0  0  0  0  0  0  0  0  0  0  0  0
    7.4218   -5.4046    0.0000 O   0  0  0  0  0  0  0  0  0  0  0  0
    6.7073   -5.8171    0.0000 C   0  0  0  0  0  0  0  0  0  0  0  0
    8.8507   -8.7046    0.0000 H   0  0  0  0  0  0  0  0  0  0  0  0
  1  2  1  0  0  0  0
  2  3  1  0  0  0  0
  3  4  1  0  0  0  0
  4  5  1  0  0  0  0
  5  6  2  0  0  0  0
  6  7  1  0  0  0  0
  7  8  1  0  0  0  0
  8  9  1  0  0  0  0
  9 10  1  0  0  0  0
  1 10  1  0  0  0  0
  5 10  1  0  0  0  0
 11 12  2  0  0  0  0
 12 13  1  0  0  0  0
 13  4  2  0  0  0  0
 11  6  1  0  0  0  0
 14 15  1  0  0  0  0
 15 16  2  0  0  0  0
 16 17  1  0  0  0  0
 17  7  2  0  0  0  0
 14  8  2  0  0  0  0
 12 18  1  0  0  0  0
 15 19  1  0  0  0  0
 20 21  1  0  0  0  0
 16 20  1  0  0  0  0
 22 23  1  0  0  0  0
 11 22  1  0  0  0  0
 10 24  1  6  0  0  0
M  END
>  <cdx:groupId>
155

>  <cdx:fragmentId>
83

$$$$
