22172.cdx
  Mrv1902 05222410252D          

  6  5  0  0  0  0            999 V2000
    4.4921   -2.9422    0.0000 C   0  0  0  0  0  0  0  0  0  0  0  0
    5.2066   -2.5297    0.0000 C   0  0  0  0  0  0  0  0  0  0  0  0
    5.9211   -2.9422    0.0000 C   0  0  0  0  0  0  0  0  0  0  0  0
    5.2066   -1.7047    0.0000 O   0  0  0  0  0  0  0  0  0  0  0  0
    3.7777   -2.5297    0.0000 O   0  0  0  0  0  0  0  0  0  0  0  0
    3.0632   -2.9422    0.0000 C   0  0  0  0  0  0  0  0  0  0  0  0
  1  2  1  0  0  0  0
  2  3  1  0  0  0  0
  2  4  2  0  0  0  0
  5  6  1  0  0  0  0
  1  5  1  0  0  0  0
M  END
>  <cdx:groupId>
19

>  <cdx:fragmentId>
5

$$$$
