221800.cdx
  Mrv1902 05222410182D          

 16 19  0  0  0  0            999 V2000
    8.7308   -7.8603    0.0000 C   0  0  0  0  0  0  0  0  0  0  0  0
    8.7415   -8.6852    0.0000 C   0  0  0  0  0  0  0  0  0  0  0  0
    8.0325   -9.1070    0.0000 C   0  0  0  0  0  0  0  0  0  0  0  0
    7.3127   -8.7038    0.0000 C   0  0  0  0  0  0  0  0  0  0  0  0
    6.6036   -9.1255    0.0000 C   0  0  0  0  0  0  0  0  0  0  0  0
    5.8839   -8.7224    0.0000 C   0  0  0  0  0  0  0  0  0  0  0  0
    5.8732   -7.8974    0.0000 C   0  0  0  0  0  0  0  0  0  0  0  0
    6.5822   -7.4757    0.0000 C   0  0  0  0  0  0  0  0  0  0  0  0
    6.8755   -6.7036    0.0000 C   0  0  0  0  0  0  0  0  0  0  0  0
    6.4537   -5.9945    0.0000 C   0  0  0  0  0  0  0  0  0  0  0  0
    6.8569   -5.2747    0.0000 C   0  0  0  0  0  0  0  0  0  0  0  0
    7.6818   -5.2640    0.0000 C   0  0  0  0  0  0  0  0  0  0  0  0
    8.1036   -5.9731    0.0000 C   0  0  0  0  0  0  0  0  0  0  0  0
    7.7004   -6.6928    0.0000 C   0  0  0  0  0  0  0  0  0  0  0  0
    8.0110   -7.4571    0.0000 C   0  0  0  0  0  0  0  0  0  0  0  0
    7.3020   -7.8789    0.0000 C   0  0  0  0  0  0  0  0  0  0  0  0
  1  2  1  0  0  0  0
  2  3  2  0  0  0  0
  3  4  1  0  0  0  0
  4  5  2  0  0  0  0
  5  6  1  0  0  0  0
  6  7  2  0  0  0  0
  7  8  1  0  0  0  0
  8  9  1  0  0  0  0
  9 10  1  0  0  0  0
 10 11  2  0  0  0  0
 11 12  1  0  0  0  0
 12 13  2  0  0  0  0
 13 14  1  0  0  0  0
  9 14  2  0  0  0  0
 14 15  1  0  0  0  0
  1 15  2  0  0  0  0
 15 16  1  0  0  0  0
  4 16  1  0  0  0  0
  8 16  2  0  0  0  0
M  END
>  <cdx:fragmentId>
94286

$$$$
