22199.cdx
  Mrv1902 05222410252D          

 26 25  0  0  0  0            999 V2000
    1.6110   -9.8046    0.0000 C   0  0  0  0  0  0  0  0  0  0  0  0
    2.3254   -9.3921    0.0000 C   0  0  0  0  0  0  0  0  0  0  0  0
    3.0399   -9.8046    0.0000 O   0  0  0  0  0  0  0  0  0  0  0  0
    3.7544   -8.5671    0.0000 O   0  0  0  0  0  0  0  0  0  0  0  0
   18.7583   -9.8046    0.0000 C   0  0  0  0  0  0  0  0  0  0  0  0
   18.0438   -9.3921    0.0000 C   0  0  0  0  0  0  0  0  0  0  0  0
   17.3293   -9.8046    0.0000 C   0  0  0  0  0  0  0  0  0  0  0  0
   16.6149   -9.3921    0.0000 C   0  0  0  0  0  0  0  0  0  0  0  0
   15.9004   -9.8046    0.0000 C   0  0  0  0  0  0  0  0  0  0  0  0
   15.1859   -9.3921    0.0000 C   0  0  0  0  0  0  0  0  0  0  0  0
   14.4715   -9.8046    0.0000 C   0  0  0  0  0  0  0  0  0  0  0  0
   13.7570   -9.3921    0.0000 C   0  0  0  0  0  0  0  0  0  0  0  0
   13.0425   -9.8046    0.0000 C   0  0  0  0  0  0  0  0  0  0  0  0
   12.3280   -9.3921    0.0000 C   0  0  0  0  0  0  0  0  0  0  0  0
   11.6136   -9.8046    0.0000 C   0  0  0  0  0  0  0  0  0  0  0  0
   10.8991   -9.3921    0.0000 C   0  0  0  0  0  0  0  0  0  0  0  0
   10.1846   -9.8046    0.0000 C   0  0  0  0  0  0  0  0  0  0  0  0
    9.4702   -9.3921    0.0000 C   0  0  0  0  0  0  0  0  0  0  0  0
    8.7557   -9.8046    0.0000 C   0  0  0  0  0  0  0  0  0  0  0  0
    8.0412   -9.3921    0.0000 C   0  0  0  0  0  0  0  0  0  0  0  0
    7.3267   -9.8046    0.0000 C   0  0  0  0  0  0  0  0  0  0  0  0
    6.6123   -9.3921    0.0000 C   0  0  0  0  0  0  0  0  0  0  0  0
    5.8978   -9.8046    0.0000 C   0  0  0  0  0  0  0  0  0  0  0  0
    5.1833   -9.3921    0.0000 C   0  0  0  0  0  0  0  0  0  0  0  0
    4.4689   -9.8046    0.0000 C   0  0  0  0  0  0  0  0  0  0  0  0
    3.7544   -9.3921    0.0000 C   0  0  0  0  0  0  0  0  0  0  0  0
  3  2  1  0  0  0  0
  2  1  1  0  0  0  0
 26  3  1  0  0  0  0
 26  4  2  0  0  0  0
  6  5  1  0  0  0  0
  7  6  1  0  0  0  0
  8  7  1  0  0  0  0
  9  8  1  0  0  0  0
 10  9  1  0  0  0  0
 11 10  1  0  0  0  0
 12 11  1  0  0  0  0
 13 12  1  0  0  0  0
 14 13  1  0  0  0  0
 15 14  1  0  0  0  0
 16 15  1  0  0  0  0
 17 16  1  0  0  0  0
 18 17  1  0  0  0  0
 19 18  1  0  0  0  0
 20 19  1  0  0  0  0
 21 20  1  0  0  0  0
 22 21  1  0  0  0  0
 23 22  1  0  0  0  0
 24 23  1  0  0  0  0
 25 24  1  0  0  0  0
 26 25  1  0  0  0  0
M  END
>  <cdx:groupId>
79

>  <cdx:fragmentId>
5

$$$$
