102222061.cdx
  Mrv1902 05222410202D          

124137  0  0  0  0            999 V2000
   44.3075   -9.6882    0.0000 C   0  0  0  0  0  0  0  0  0  0  0  0
   45.0219   -9.2757    0.0000 C   0  0  0  0  0  0  0  0  0  0  0  0
   45.7364   -9.6882    0.0000 C   0  0  0  0  0  0  0  0  0  0  0  0
   45.7364  -10.5132    0.0000 C   0  0  0  0  0  0  0  0  0  0  0  0
   45.0219  -10.9257    0.0000 C   0  0  2  0  0  0  0  0  0  0  0  0
   45.0219  -11.7507    0.0000 C   0  0  0  0  0  0  0  0  0  0  0  0
   44.3075  -12.1632    0.0000 C   0  0  0  0  0  0  0  0  0  0  0  0
   43.5930  -11.7507    0.0000 C   0  0  1  0  0  0  0  0  0  0  0  0
   42.8785  -12.1632    0.0000 C   0  0  2  0  0  0  0  0  0  0  0  0
   42.8785  -12.9882    0.0000 C   0  0  0  0  0  0  0  0  0  0  0  0
   42.1641  -13.4007    0.0000 C   0  0  0  0  0  0  0  0  0  0  0  0
   41.4496  -12.9882    0.0000 C   0  0  1  0  0  0  0  0  0  0  0  0
   40.7351  -13.4007    0.0000 C   0  0  2  0  0  0  0  0  0  0  0  0
   40.0206  -12.9882    0.0000 C   0  0  2  0  0  0  0  0  0  0  0  0
   40.0206  -12.1632    0.0000 C   0  0  0  0  0  0  0  0  0  0  0  0
   40.7351  -11.7507    0.0000 C   0  0  0  0  0  0  0  0  0  0  0  0
   41.4496  -12.1632    0.0000 C   0  0  2  0  0  0  0  0  0  0  0  0
   42.1641  -11.7507    0.0000 C   0  0  1  0  0  0  0  0  0  0  0  0
   42.1641  -10.9257    0.0000 C   0  0  0  0  0  0  0  0  0  0  0  0
   42.8785  -10.5132    0.0000 C   0  0  0  0  0  0  0  0  0  0  0  0
   43.5930  -10.9257    0.0000 C   0  0  0  0  0  0  0  0  0  0  0  0
   44.3075  -10.5132    0.0000 C   0  0  2  0  0  0  0  0  0  0  0  0
   45.7364  -11.3382    0.0000 C   0  0  0  0  0  0  0  0  0  0  0  0
   45.7364  -12.1632    0.0000 O   0  0  0  0  0  0  0  0  0  0  0  0
   46.4509  -10.9257    0.0000 O   0  0  0  0  0  0  0  0  0  0  0  0
   40.3226  -14.1152    0.0000 C   0  0  0  0  0  0  0  0  0  0  0  0
   44.6094   -8.5613    0.0000 C   0  0  0  0  0  0  0  0  0  0  0  0
   45.4344   -8.5613    0.0000 C   0  0  0  0  0  0  0  0  0  0  0  0
   41.1476  -14.1152    0.0000 C   0  0  0  0  0  0  0  0  0  0  0  0
   40.7351  -14.8297    0.0000 O   0  0  0  0  0  0  0  0  0  0  0  0
   39.3062  -13.4007    0.0000 O   0  0  0  0  0  0  0  0  0  0  0  0
   38.5917  -12.1632    0.0000 O   0  0  0  0  0  0  0  0  0  0  0  0
   38.5917  -12.9882    0.0000 C   0  0  2  0  0  0  0  0  0  0  0  0
   37.8772  -13.4007    0.0000 C   0  0  1  0  0  0  0  0  0  0  0  0
   37.1628  -12.9882    0.0000 C   0  0  2  0  0  0  0  0  0  0  0  0
   37.1628  -12.1632    0.0000 C   0  0  2  0  0  0  0  0  0  0  0  0
   37.8772  -11.7507    0.0000 C   0  0  0  0  0  0  0  0  0  0  0  0
   36.4483  -11.7507    0.0000 O   0  0  0  0  0  0  0  0  0  0  0  0
   36.4483  -13.4007    0.0000 O   0  0  0  0  0  0  0  0  0  0  0  0
   37.8772  -14.2257    0.0000 O   0  0  0  0  0  0  0  0  0  0  0  0
   36.4483  -14.2257    0.0000 O   0  0  0  0  0  0  0  0  0  0  0  0
   37.1628  -14.6382    0.0000 C   0  0  2  0  0  0  0  0  0  0  0  0
   37.1628  -15.4632    0.0000 C   0  0  1  0  0  0  0  0  0  0  0  0
   36.4483  -15.8757    0.0000 C   0  0  1  0  0  0  0  0  0  0  0  0
   35.7338  -15.4632    0.0000 C   0  0  2  0  0  0  0  0  0  0  0  0
   35.7338  -14.6382    0.0000 C   0  0  2  0  0  0  0  0  0  0  0  0
   35.0193  -14.2257    0.0000 C   0  0  0  0  0  0  0  0  0  0  0  0
   35.0193  -15.8757    0.0000 O   0  0  0  0  0  0  0  0  0  0  0  0
   37.8772  -15.8757    0.0000 O   0  0  0  0  0  0  0  0  0  0  0  0
   36.4483  -16.7007    0.0000 O   0  0  0  0  0  0  0  0  0  0  0  0
   37.8772  -16.7007    0.0000 O   0  0  0  0  0  0  0  0  0  0  0  0
   37.1628  -17.1132    0.0000 C   0  0  2  0  0  0  0  0  0  0  0  0
   37.1628  -17.9382    0.0000 C   0  0  1  0  0  0  0  0  0  0  0  0
   37.8772  -18.3507    0.0000 C   0  0  2  0  0  0  0  0  0  0  0  0
   38.5917  -17.9382    0.0000 C   0  0  1  0  0  0  0  0  0  0  0  0
   38.5917  -17.1132    0.0000 C   0  0  0  0  0  0  0  0  0  0  0  0
   39.3062  -18.3507    0.0000 O   0  0  0  0  0  0  0  0  0  0  0  0
   40.7351  -18.3507    0.0000 O   0  0  0  0  0  0  0  0  0  0  0  0
   40.0206  -17.9382    0.0000 C   0  0  2  0  0  0  0  0  0  0  0  0
   40.0206  -17.1132    0.0000 C   0  0  1  0  0  0  0  0  0  0  0  0
   40.7351  -16.7007    0.0000 C   0  0  2  0  0  0  0  0  0  0  0  0
   41.4496  -17.1132    0.0000 C   0  0  1  0  0  0  0  0  0  0  0  0
   41.4496  -17.9382    0.0000 C   0  0  0  0  0  0  0  0  0  0  0  0
   42.1641  -16.7007    0.0000 O   0  0  0  0  0  0  0  0  0  0  0  0
   40.7351  -15.8757    0.0000 O   0  0  0  0  0  0  0  0  0  0  0  0
   39.3062  -16.7007    0.0000 O   0  0  0  0  0  0  0  0  0  0  0  0
   37.8772  -19.1757    0.0000 O   0  0  0  0  0  0  0  0  0  0  0  0
   36.4483  -18.3507    0.0000 O   0  0  0  0  0  0  0  0  0  0  0  0
   41.4496  -13.8132    0.0000 H   0  0  0  0  0  0  0  0  0  0  0  0
   44.3075  -11.3382    0.0000 H   0  0  0  0  0  0  0  0  0  0  0  0
   47.1654  -12.1632    0.0000 O   0  0  0  0  0  0  0  0  0  0  0  0
   47.1654  -11.3382    0.0000 C   0  0  2  0  0  0  0  0  0  0  0  0
   47.8798  -10.9257    0.0000 C   0  0  1  0  0  0  0  0  0  0  0  0
   48.5943  -11.3382    0.0000 C   0  0  2  0  0  0  0  0  0  0  0  0
   48.5943  -12.1632    0.0000 C   0  0  1  0  0  0  0  0  0  0  0  0
   47.8798  -12.5757    0.0000 C   0  0  1  0  0  0  0  0  0  0  0  0
   49.3088  -12.5757    0.0000 O   0  0  0  0  0  0  0  0  0  0  0  0
   49.3088  -10.9257    0.0000 O   0  0  0  0  0  0  0  0  0  0  0  0
   47.8798  -10.1007    0.0000 O   0  0  0  0  0  0  0  0  0  0  0  0
   49.3088  -10.1007    0.0000 O   0  0  0  0  0  0  0  0  0  0  0  0
   48.5943   -9.6882    0.0000 C   0  0  2  0  0  0  0  0  0  0  0  0
   48.5943   -8.8632    0.0000 C   0  0  1  0  0  0  0  0  0  0  0  0
   49.3088   -8.4507    0.0000 C   0  0  2  0  0  0  0  0  0  0  0  0
   50.0232   -8.8632    0.0000 C   0  0  1  0  0  0  0  0  0  0  0  0
   50.0232   -9.6882    0.0000 C   0  0  0  0  0  0  0  0  0  0  0  0
   49.3088   -7.6257    0.0000 O   0  0  0  0  0  0  0  0  0  0  0  0
   50.7377   -7.6257    0.0000 O   0  0  0  0  0  0  0  0  0  0  0  0
   50.0232   -7.2132    0.0000 C   0  0  2  0  0  0  0  0  0  0  0  0
   50.0232   -6.3882    0.0000 C   0  0  1  0  0  0  0  0  0  0  0  0
   50.7377   -5.9757    0.0000 C   0  0  2  0  0  0  0  0  0  0  0  0
   51.4522   -6.3882    0.0000 C   0  0  1  0  0  0  0  0  0  0  0  0
   51.4522   -7.2132    0.0000 C   0  0  0  0  0  0  0  0  0  0  0  0
   52.1667   -5.9757    0.0000 O   0  0  0  0  0  0  0  0  0  0  0  0
   50.7377   -5.1507    0.0000 O   0  0  0  0  0  0  0  0  0  0  0  0
   49.3088   -5.9757    0.0000 O   0  0  0  0  0  0  0  0  0  0  0  0
   50.7377   -8.4507    0.0000 O   0  0  0  0  0  0  0  0  0  0  0  0
   47.8798   -8.4507    0.0000 O   0  0  0  0  0  0  0  0  0  0  0  0
   47.8798  -13.4007    0.0000 C   0  0  0  0  0  0  0  0  0  0  0  0
   48.5943  -13.8132    0.0000 O   0  0  0  0  0  0  0  0  0  0  0  0
   47.8798  -15.0507    0.0000 O   0  0  0  0  0  0  0  0  0  0  0  0
   48.5943  -14.6382    0.0000 C   0  0  2  0  0  0  0  0  0  0  0  0
   49.3088  -15.0507    0.0000 C   0  0  1  0  0  0  0  0  0  0  0  0
   49.3088  -15.8757    0.0000 C   0  0  2  0  0  0  0  0  0  0  0  0
   48.5943  -16.2882    0.0000 C   0  0  1  0  0  0  0  0  0  0  0  0
   47.8798  -15.8757    0.0000 C   0  0  1  0  0  0  0  0  0  0  0  0
   48.5943  -17.1132    0.0000 O   0  0  0  0  0  0  0  0  0  0  0  0
   47.1654  -17.1132    0.0000 O   0  0  0  0  0  0  0  0  0  0  0  0
   47.8798  -17.5257    0.0000 C   0  0  2  0  0  0  0  0  0  0  0  0
   47.8798  -18.3507    0.0000 C   0  0  1  0  0  0  0  0  0  0  0  0
   47.1654  -18.7632    0.0000 C   0  0  1  0  0  0  0  0  0  0  0  0
   46.4509  -18.3507    0.0000 C   0  0  2  0  0  0  0  0  0  0  0  0
   46.4509  -17.5257    0.0000 C   0  0  2  0  0  0  0  0  0  0  0  0
   45.7364  -17.1132    0.0000 C   0  0  0  0  0  0  0  0  0  0  0  0
   45.7364  -18.7632    0.0000 O   0  0  0  0  0  0  0  0  0  0  0  0
   47.1654  -19.5882    0.0000 O   0  0  0  0  0  0  0  0  0  0  0  0
   48.5943  -18.7632    0.0000 O   0  0  0  0  0  0  0  0  0  0  0  0
   47.1654  -16.2882    0.0000 C   0  0  0  0  0  0  0  0  0  0  0  0
   46.4509  -15.8757    0.0000 O   0  0  0  0  0  0  0  0  0  0  0  0
   50.0232  -16.2882    0.0000 O   0  0  0  0  0  0  0  0  0  0  0  0
   50.0232  -14.6382    0.0000 O   0  0  0  0  0  0  0  0  0  0  0  0
   41.4496  -11.3382    0.0000 C   0  0  0  0  0  0  0  0  0  0  0  0
   43.4619  -12.7466    0.0000 C   0  0  0  0  0  0  0  0  0  0  0  0
   41.7516  -11.0363    0.0000 H   0  0  0  0  0  0  0  0  0  0  0  0
   43.8065  -12.5476    0.0000 C   0  0  0  0  0  0  0  0  0  0  0  0
  1  2  1  0  0  0  0
  2  3  1  0  0  0  0
  3  4  1  0  0  0  0
  4  5  1  0  0  0  0
  5  6  1  0  0  0  0
  6  7  1  0  0  0  0
  7  8  1  0  0  0  0
  8  9  1  0  0  0  0
  9 10  1  0  0  0  0
 10 11  1  0  0  0  0
 11 12  1  0  0  0  0
 12 13  1  0  0  0  0
 13 14  1  0  0  0  0
 14 15  1  0  0  0  0
 15 16  1  0  0  0  0
 16 17  1  0  0  0  0
 12 17  1  0  0  0  0
 17 18  1  0  0  0  0
  9 18  1  0  0  0  0
 18 19  1  0  0  0  0
 19 20  1  0  0  0  0
 20 21  2  0  0  0  0
  8 21  1  0  0  0  0
 21 22  1  0  0  0  0
  5 22  1  0  0  0  0
  1 22  1  0  0  0  0
 23 24  2  0  0  0  0
 23 25  1  0  0  0  0
  5 23  1  1  0  0  0
 13 26  1  1  0  0  0
  2 27  1  0  0  0  0
  2 28  1  0  0  0  0
 29 30  1  0  0  0  0
 13 29  1  6  0  0  0
 32 33  1  0  0  0  0
 33 34  1  0  0  0  0
 34 35  1  0  0  0  0
 35 36  1  0  0  0  0
 36 37  1  0  0  0  0
 32 37  1  0  0  0  0
 36 38  1  1  0  0  0
 35 39  1  1  0  0  0
 41 42  1  0  0  0  0
 42 43  1  0  0  0  0
 43 44  1  0  0  0  0
 44 45  1  0  0  0  0
 45 46  1  0  0  0  0
 41 46  1  0  0  0  0
 46 47  1  6  0  0  0
 45 48  1  1  0  0  0
 43 49  1  6  0  0  0
 51 52  1  0  0  0  0
 52 53  1  0  0  0  0
 53 54  1  0  0  0  0
 54 55  1  0  0  0  0
 55 56  1  0  0  0  0
 51 56  1  0  0  0  0
 58 59  1  0  0  0  0
 59 60  1  0  0  0  0
 60 61  1  0  0  0  0
 61 62  1  0  0  0  0
 62 63  1  0  0  0  0
 58 63  1  0  0  0  0
 62 64  1  6  0  0  0
 61 65  1  1  0  0  0
 60 66  1  6  0  0  0
 59 57  1  1  0  0  0
 55 57  1  1  0  0  0
 54 67  1  6  0  0  0
 53 68  1  1  0  0  0
 52 50  1  6  0  0  0
 44 50  1  6  0  0  0
 42 40  1  1  0  0  0
 34 40  1  6  0  0  0
 33 31  1  1  0  0  0
 14 31  1  1  0  0  0
 12 69  1  6  0  0  0
 22 70  1  1  0  0  0
 71 72  1  0  0  0  0
 72 73  1  0  0  0  0
 73 74  1  0  0  0  0
 74 75  1  0  0  0  0
 75 76  1  0  0  0  0
 71 76  1  0  0  0  0
 75 77  1  6  0  0  0
 74 78  1  1  0  0  0
 80 81  1  0  0  0  0
 81 82  1  0  0  0  0
 82 83  1  0  0  0  0
 83 84  1  0  0  0  0
 84 85  1  0  0  0  0
 80 85  1  0  0  0  0
 87 88  1  0  0  0  0
 88 89  1  0  0  0  0
 89 90  1  0  0  0  0
 90 91  1  0  0  0  0
 91 92  1  0  0  0  0
 87 92  1  0  0  0  0
 91 93  1  6  0  0  0
 90 94  1  1  0  0  0
 89 95  1  6  0  0  0
 88 86  1  1  0  0  0
 83 86  1  1  0  0  0
 84 96  1  6  0  0  0
 82 97  1  6  0  0  0
 81 79  1  1  0  0  0
 73 79  1  6  0  0  0
100101  1  0  0  0  0
101102  1  0  0  0  0
102103  1  0  0  0  0
103104  1  0  0  0  0
104105  1  0  0  0  0
100105  1  0  0  0  0
107108  1  0  0  0  0
108109  1  0  0  0  0
109110  1  0  0  0  0
110111  1  0  0  0  0
111112  1  0  0  0  0
107112  1  0  0  0  0
112113  1  6  0  0  0
111114  1  1  0  0  0
110115  1  6  0  0  0
109116  1  6  0  0  0
108106  1  1  0  0  0
104106  1  6  0  0  0
117118  1  0  0  0  0
105117  1  1  0  0  0
103119  1  1  0  0  0
102120  1  6  0  0  0
101 99  1  1  0  0  0
 98 99  1  0  0  0  0
 76 98  1  1  0  0  0
 72 25  1  1  0  0  0
 17121  1  1  0  0  0
  9122  1  1  0  0  0
 18123  1  6  0  0  0
  8124  1  6  0  0  0
M  END
>  <cdx:groupId>
26989

>  <cdx:fragmentId>
26730

$$$$
