102222064.cdx
  Mrv1902 05222410182D          

106117  0  0  0  0            999 V2000
   42.5799   -9.6882    0.0000 C   0  0  0  0  0  0  0  0  0  0  0  0
   43.2944   -9.2757    0.0000 C   0  0  0  0  0  0  0  0  0  0  0  0
   44.0089   -9.6882    0.0000 C   0  0  0  0  0  0  0  0  0  0  0  0
   44.0089  -10.5132    0.0000 C   0  0  0  0  0  0  0  0  0  0  0  0
   43.2944  -10.9257    0.0000 C   0  0  2  0  0  0  0  0  0  0  0  0
   43.2944  -11.7507    0.0000 C   0  0  0  0  0  0  0  0  0  0  0  0
   42.5799  -12.1632    0.0000 C   0  0  0  0  0  0  0  0  0  0  0  0
   41.8655  -11.7507    0.0000 C   0  0  1  0  0  0  0  0  0  0  0  0
   41.1510  -12.1632    0.0000 C   0  0  2  0  0  0  0  0  0  0  0  0
   41.1510  -12.9882    0.0000 C   0  0  0  0  0  0  0  0  0  0  0  0
   40.4365  -13.4007    0.0000 C   0  0  0  0  0  0  0  0  0  0  0  0
   39.7221  -12.9882    0.0000 C   0  0  1  0  0  0  0  0  0  0  0  0
   39.0076  -13.4007    0.0000 C   0  0  2  0  0  0  0  0  0  0  0  0
   38.2931  -12.9882    0.0000 C   0  0  2  0  0  0  0  0  0  0  0  0
   38.2931  -12.1632    0.0000 C   0  0  0  0  0  0  0  0  0  0  0  0
   39.0076  -11.7507    0.0000 C   0  0  0  0  0  0  0  0  0  0  0  0
   39.7221  -12.1632    0.0000 C   0  0  2  0  0  0  0  0  0  0  0  0
   40.4365  -11.7507    0.0000 C   0  0  1  0  0  0  0  0  0  0  0  0
   40.4365  -10.9257    0.0000 C   0  0  0  0  0  0  0  0  0  0  0  0
   41.1510  -10.5132    0.0000 C   0  0  0  0  0  0  0  0  0  0  0  0
   41.8655  -10.9257    0.0000 C   0  0  0  0  0  0  0  0  0  0  0  0
   42.5799  -10.5132    0.0000 C   0  0  2  0  0  0  0  0  0  0  0  0
   44.0089  -11.3382    0.0000 C   0  0  0  0  0  0  0  0  0  0  0  0
   44.0089  -12.1632    0.0000 O   0  0  0  0  0  0  0  0  0  0  0  0
   44.7234  -10.9257    0.0000 O   0  0  0  0  0  0  0  0  0  0  0  0
   38.5951  -14.1152    0.0000 C   0  0  0  0  0  0  0  0  0  0  0  0
   42.8819   -8.5613    0.0000 C   0  0  0  0  0  0  0  0  0  0  0  0
   43.7069   -8.5613    0.0000 C   0  0  0  0  0  0  0  0  0  0  0  0
   39.4201  -14.1152    0.0000 C   0  0  0  0  0  0  0  0  0  0  0  0
   39.0076  -14.8297    0.0000 O   0  0  0  0  0  0  0  0  0  0  0  0
   37.5786  -13.4007    0.0000 O   0  0  0  0  0  0  0  0  0  0  0  0
   36.8642  -12.1632    0.0000 O   0  0  0  0  0  0  0  0  0  0  0  0
   36.8642  -12.9882    0.0000 C   0  0  2  0  0  0  0  0  0  0  0  0
   36.1497  -13.4007    0.0000 C   0  0  1  0  0  0  0  0  0  0  0  0
   35.4352  -12.9882    0.0000 C   0  0  2  0  0  0  0  0  0  0  0  0
   35.4352  -12.1632    0.0000 C   0  0  2  0  0  0  0  0  0  0  0  0
   36.1497  -11.7507    0.0000 C   0  0  0  0  0  0  0  0  0  0  0  0
   34.7208  -11.7507    0.0000 O   0  0  0  0  0  0  0  0  0  0  0  0
   34.7208  -13.4007    0.0000 O   0  0  0  0  0  0  0  0  0  0  0  0
   36.1497  -14.2257    0.0000 O   0  0  0  0  0  0  0  0  0  0  0  0
   34.7208  -14.2257    0.0000 O   0  0  0  0  0  0  0  0  0  0  0  0
   35.4352  -14.6382    0.0000 C   0  0  2  0  0  0  0  0  0  0  0  0
   35.4352  -15.4632    0.0000 C   0  0  1  0  0  0  0  0  0  0  0  0
   34.7208  -15.8757    0.0000 C   0  0  1  0  0  0  0  0  0  0  0  0
   34.0063  -15.4632    0.0000 C   0  0  2  0  0  0  0  0  0  0  0  0
   34.0063  -14.6382    0.0000 C   0  0  2  0  0  0  0  0  0  0  0  0
   34.7208  -16.7007    0.0000 O   0  0  0  0  0  0  0  0  0  0  0  0
   36.1497  -16.7007    0.0000 O   0  0  0  0  0  0  0  0  0  0  0  0
   35.4352  -17.1132    0.0000 C   0  0  2  0  0  0  0  0  0  0  0  0
   35.4352  -17.9382    0.0000 C   0  0  1  0  0  0  0  0  0  0  0  0
   36.1497  -18.3507    0.0000 C   0  0  2  0  0  0  0  0  0  0  0  0
   36.8642  -17.9382    0.0000 C   0  0  1  0  0  0  0  0  0  0  0  0
   36.8642  -17.1132    0.0000 C   0  0  0  0  0  0  0  0  0  0  0  0
   37.5786  -18.3507    0.0000 O   0  0  0  0  0  0  0  0  0  0  0  0
   36.1497  -19.1757    0.0000 O   0  0  0  0  0  0  0  0  0  0  0  0
   34.7208  -18.3507    0.0000 O   0  0  0  0  0  0  0  0  0  0  0  0
   33.2918  -14.2257    0.0000 C   0  0  0  0  0  0  0  0  0  0  0  0
   33.2918  -15.8757    0.0000 O   0  0  0  0  0  0  0  0  0  0  0  0
   36.1497  -15.8757    0.0000 O   0  0  0  0  0  0  0  0  0  0  0  0
   39.7221  -13.8132    0.0000 H   0  0  0  0  0  0  0  0  0  0  0  0
   42.5799  -11.3382    0.0000 H   0  0  0  0  0  0  0  0  0  0  0  0
   45.4378  -12.1632    0.0000 O   0  0  0  0  0  0  0  0  0  0  0  0
   45.4378  -11.3382    0.0000 C   0  0  2  0  0  0  0  0  0  0  0  0
   46.1523  -10.9257    0.0000 C   0  0  1  0  0  0  0  0  0  0  0  0
   46.8668  -11.3382    0.0000 C   0  0  2  0  0  0  0  0  0  0  0  0
   46.8668  -12.1632    0.0000 C   0  0  1  0  0  0  0  0  0  0  0  0
   46.1523  -12.5757    0.0000 C   0  0  1  0  0  0  0  0  0  0  0  0
   46.1523  -10.1007    0.0000 O   0  0  0  0  0  0  0  0  0  0  0  0
   47.5812  -10.1007    0.0000 O   0  0  0  0  0  0  0  0  0  0  0  0
   46.8668   -9.6882    0.0000 C   0  0  2  0  0  0  0  0  0  0  0  0
   46.8668   -8.8632    0.0000 C   0  0  1  0  0  0  0  0  0  0  0  0
   47.5812   -8.4507    0.0000 C   0  0  2  0  0  0  0  0  0  0  0  0
   48.2957   -8.8632    0.0000 C   0  0  1  0  0  0  0  0  0  0  0  0
   48.2957   -9.6882    0.0000 C   0  0  0  0  0  0  0  0  0  0  0  0
   49.0102   -8.4507    0.0000 O   0  0  0  0  0  0  0  0  0  0  0  0
   47.5812   -7.6257    0.0000 O   0  0  0  0  0  0  0  0  0  0  0  0
   46.1523   -8.4507    0.0000 O   0  0  0  0  0  0  0  0  0  0  0  0
   47.5812  -12.5757    0.0000 O   0  0  0  0  0  0  0  0  0  0  0  0
   47.5812  -10.9257    0.0000 O   0  0  0  0  0  0  0  0  0  0  0  0
   46.1523  -13.4007    0.0000 C   0  0  0  0  0  0  0  0  0  0  0  0
   46.8668  -13.8132    0.0000 O   0  0  0  0  0  0  0  0  0  0  0  0
   46.1523  -15.0507    0.0000 O   0  0  0  0  0  0  0  0  0  0  0  0
   46.8668  -14.6382    0.0000 C   0  0  2  0  0  0  0  0  0  0  0  0
   47.5812  -15.0507    0.0000 C   0  0  1  0  0  0  0  0  0  0  0  0
   47.5812  -15.8757    0.0000 C   0  0  2  0  0  0  0  0  0  0  0  0
   46.8668  -16.2882    0.0000 C   0  0  1  0  0  0  0  0  0  0  0  0
   46.1523  -15.8757    0.0000 C   0  0  1  0  0  0  0  0  0  0  0  0
   46.8668  -17.1132    0.0000 O   0  0  0  0  0  0  0  0  0  0  0  0
   45.4378  -17.1132    0.0000 O   0  0  0  0  0  0  0  0  0  0  0  0
   46.1523  -17.5257    0.0000 C   0  0  2  0  0  0  0  0  0  0  0  0
   46.1523  -18.3507    0.0000 C   0  0  1  0  0  0  0  0  0  0  0  0
   45.4378  -18.7632    0.0000 C   0  0  1  0  0  0  0  0  0  0  0  0
   44.7234  -18.3507    0.0000 C   0  0  2  0  0  0  0  0  0  0  0  0
   44.7234  -17.5257    0.0000 C   0  0  2  0  0  0  0  0  0  0  0  0
   44.0089  -17.1132    0.0000 C   0  0  0  0  0  0  0  0  0  0  0  0
   44.0089  -18.7632    0.0000 O   0  0  0  0  0  0  0  0  0  0  0  0
   45.4378  -19.5882    0.0000 O   0  0  0  0  0  0  0  0  0  0  0  0
   46.8668  -18.7632    0.0000 O   0  0  0  0  0  0  0  0  0  0  0  0
   45.4378  -16.2882    0.0000 C   0  0  0  0  0  0  0  0  0  0  0  0
   44.7234  -15.8757    0.0000 O   0  0  0  0  0  0  0  0  0  0  0  0
   48.2957  -16.2882    0.0000 O   0  0  0  0  0  0  0  0  0  0  0  0
   48.2957  -14.6382    0.0000 O   0  0  0  0  0  0  0  0  0  0  0  0
   39.7221  -11.3382    0.0000 C   0  0  0  0  0  0  0  0  0  0  0  0
   41.7344  -12.7466    0.0000 C   0  0  0  0  0  0  0  0  0  0  0  0
   42.0790  -12.5476    0.0000 C   0  0  0  0  0  0  0  0  0  0  0  0
   40.0240  -11.0363    0.0000 H   0  0  0  0  0  0  0  0  0  0  0  0
  1  2  1  0  0  0  0
  2  3  1  0  0  0  0
  3  4  1  0  0  0  0
  4  5  1  0  0  0  0
  5  6  1  0  0  0  0
  6  7  1  0  0  0  0
  7  8  1  0  0  0  0
  8  9  1  0  0  0  0
  9 10  1  0  0  0  0
 10 11  1  0  0  0  0
 11 12  1  0  0  0  0
 12 13  1  0  0  0  0
 13 14  1  0  0  0  0
 14 15  1  0  0  0  0
 15 16  1  0  0  0  0
 16 17  1  0  0  0  0
 12 17  1  0  0  0  0
 17 18  1  0  0  0  0
  9 18  1  0  0  0  0
 18 19  1  0  0  0  0
 19 20  1  0  0  0  0
 20 21  2  0  0  0  0
  8 21  1  0  0  0  0
 21 22  1  0  0  0  0
  5 22  1  0  0  0  0
  1 22  1  0  0  0  0
 23 24  2  0  0  0  0
 23 25  1  0  0  0  0
  5 23  1  1  0  0  0
 13 26  1  1  0  0  0
  2 27  1  0  0  0  0
  2 28  1  0  0  0  0
 29 30  1  0  0  0  0
 13 29  1  6  0  0  0
 32 33  1  0  0  0  0
 33 34  1  0  0  0  0
 34 35  1  0  0  0  0
 35 36  1  0  0  0  0
 36 37  1  0  0  0  0
 32 37  1  0  0  0  0
 36 38  1  1  0  0  0
 35 39  1  1  0  0  0
 41 42  1  0  0  0  0
 42 43  1  0  0  0  0
 43 44  1  0  0  0  0
 44 45  1  0  0  0  0
 45 46  1  0  0  0  0
 41 46  1  0  0  0  0
 48 49  1  0  0  0  0
 49 50  1  0  0  0  0
 50 51  1  0  0  0  0
 51 52  1  0  0  0  0
 52 53  1  0  0  0  0
 48 53  1  0  0  0  0
 52 54  1  1  0  0  0
 51 55  1  6  0  0  0
 50 56  1  1  0  0  0
 49 47  1  6  0  0  0
 44 47  1  6  0  0  0
 46 57  1  6  0  0  0
 45 58  1  1  0  0  0
 43 59  1  6  0  0  0
 42 40  1  1  0  0  0
 34 40  1  6  0  0  0
 33 31  1  1  0  0  0
 14 31  1  1  0  0  0
 12 60  1  6  0  0  0
 22 61  1  1  0  0  0
 62 63  1  0  0  0  0
 63 64  1  0  0  0  0
 64 65  1  0  0  0  0
 65 66  1  0  0  0  0
 66 67  1  0  0  0  0
 62 67  1  0  0  0  0
 69 70  1  0  0  0  0
 70 71  1  0  0  0  0
 71 72  1  0  0  0  0
 72 73  1  0  0  0  0
 73 74  1  0  0  0  0
 69 74  1  0  0  0  0
 73 75  1  6  0  0  0
 72 76  1  1  0  0  0
 71 77  1  6  0  0  0
 70 68  1  1  0  0  0
 64 68  1  6  0  0  0
 66 78  1  6  0  0  0
 65 79  1  1  0  0  0
 82 83  1  0  0  0  0
 83 84  1  0  0  0  0
 84 85  1  0  0  0  0
 85 86  1  0  0  0  0
 86 87  1  0  0  0  0
 82 87  1  0  0  0  0
 89 90  1  0  0  0  0
 90 91  1  0  0  0  0
 91 92  1  0  0  0  0
 92 93  1  0  0  0  0
 93 94  1  0  0  0  0
 89 94  1  0  0  0  0
 94 95  1  6  0  0  0
 93 96  1  1  0  0  0
 92 97  1  6  0  0  0
 91 98  1  6  0  0  0
 90 88  1  1  0  0  0
 86 88  1  6  0  0  0
 99100  1  0  0  0  0
 87 99  1  1  0  0  0
 85101  1  1  0  0  0
 84102  1  6  0  0  0
 83 81  1  1  0  0  0
 80 81  1  0  0  0  0
 67 80  1  1  0  0  0
 63 25  1  1  0  0  0
 17103  1  1  0  0  0
  9104  1  1  0  0  0
  8105  1  6  0  0  0
 18106  1  6  0  0  0
M  END
>  <cdx:groupId>
28114

>  <cdx:fragmentId>
27791

$$$$
