22207.cdx
  Mrv1902 05222410252D          

 19 18  0  0  0  0            999 V2000
   11.5570   -9.0346    0.0000 C   0  0  0  0  0  0  0  0  0  0  0  0
    1.5545   -8.2096    0.0000 O   0  0  0  0  0  0  0  0  0  0  0  0
    2.2689   -6.9721    0.0000 O   0  0  0  0  0  0  0  0  0  0  0  0
   12.9860   -8.2096    0.0000 C   0  0  0  0  0  0  0  0  0  0  0  0
   12.2715   -7.7971    0.0000 C   0  0  0  0  0  0  0  0  0  0  0  0
   11.5570   -8.2096    0.0000 C   0  0  0  0  0  0  0  0  0  0  0  0
   10.8426   -7.7971    0.0000 C   0  0  0  0  0  0  0  0  0  0  0  0
   10.1281   -8.2096    0.0000 C   0  0  0  0  0  0  0  0  0  0  0  0
    9.4136   -7.7971    0.0000 C   0  0  0  0  0  0  0  0  0  0  0  0
    8.6992   -8.2096    0.0000 C   0  0  0  0  0  0  0  0  0  0  0  0
    7.9847   -7.7971    0.0000 C   0  0  0  0  0  0  0  0  0  0  0  0
    7.2702   -8.2096    0.0000 C   0  0  0  0  0  0  0  0  0  0  0  0
    6.5558   -7.7971    0.0000 C   0  0  0  0  0  0  0  0  0  0  0  0
    5.8413   -8.2096    0.0000 C   0  0  0  0  0  0  0  0  0  0  0  0
    5.1268   -7.7971    0.0000 C   0  0  0  0  0  0  0  0  0  0  0  0
    4.4123   -8.2096    0.0000 C   0  0  0  0  0  0  0  0  0  0  0  0
    3.6979   -7.7971    0.0000 C   0  0  0  0  0  0  0  0  0  0  0  0
    2.9834   -8.2096    0.0000 C   0  0  0  0  0  0  0  0  0  0  0  0
    2.2689   -7.7971    0.0000 C   0  0  0  0  0  0  0  0  0  0  0  0
  6  1  1  0  0  0  0
 19  2  1  0  0  0  0
 19  3  2  0  0  0  0
  5  4  1  0  0  0  0
  6  5  1  0  0  0  0
  7  6  1  0  0  0  0
  8  7  1  0  0  0  0
  9  8  1  0  0  0  0
 10  9  1  0  0  0  0
 11 10  1  0  0  0  0
 12 11  1  0  0  0  0
 13 12  1  0  0  0  0
 14 13  1  0  0  0  0
 15 14  1  0  0  0  0
 16 15  1  0  0  0  0
 17 16  1  0  0  0  0
 18 17  1  0  0  0  0
 19 18  1  0  0  0  0
M  END
>  <cdx:groupId>
58

>  <cdx:fragmentId>
5

$$$$
