102222063.cdx
  Mrv1902 05222410192D          

115127  0  0  0  0            999 V2000
   42.5799   -9.6882    0.0000 C   0  0  0  0  0  0  0  0  0  0  0  0
   43.2944   -9.2757    0.0000 C   0  0  0  0  0  0  0  0  0  0  0  0
   44.0089   -9.6882    0.0000 C   0  0  0  0  0  0  0  0  0  0  0  0
   44.0089  -10.5132    0.0000 C   0  0  0  0  0  0  0  0  0  0  0  0
   43.2944  -10.9257    0.0000 C   0  0  2  0  0  0  0  0  0  0  0  0
   43.2944  -11.7507    0.0000 C   0  0  0  0  0  0  0  0  0  0  0  0
   42.5799  -12.1632    0.0000 C   0  0  0  0  0  0  0  0  0  0  0  0
   41.8655  -11.7507    0.0000 C   0  0  1  0  0  0  0  0  0  0  0  0
   41.1510  -12.1632    0.0000 C   0  0  2  0  0  0  0  0  0  0  0  0
   41.1510  -12.9882    0.0000 C   0  0  0  0  0  0  0  0  0  0  0  0
   40.4365  -13.4007    0.0000 C   0  0  0  0  0  0  0  0  0  0  0  0
   39.7221  -12.9882    0.0000 C   0  0  1  0  0  0  0  0  0  0  0  0
   39.0076  -13.4007    0.0000 C   0  0  2  0  0  0  0  0  0  0  0  0
   38.2931  -12.9882    0.0000 C   0  0  2  0  0  0  0  0  0  0  0  0
   38.2931  -12.1632    0.0000 C   0  0  0  0  0  0  0  0  0  0  0  0
   39.0076  -11.7507    0.0000 C   0  0  0  0  0  0  0  0  0  0  0  0
   39.7221  -12.1632    0.0000 C   0  0  2  0  0  0  0  0  0  0  0  0
   40.4365  -11.7507    0.0000 C   0  0  1  0  0  0  0  0  0  0  0  0
   40.4365  -10.9257    0.0000 C   0  0  0  0  0  0  0  0  0  0  0  0
   41.1510  -10.5132    0.0000 C   0  0  0  0  0  0  0  0  0  0  0  0
   41.8655  -10.9257    0.0000 C   0  0  0  0  0  0  0  0  0  0  0  0
   42.5799  -10.5132    0.0000 C   0  0  2  0  0  0  0  0  0  0  0  0
   44.0089  -11.3382    0.0000 C   0  0  0  0  0  0  0  0  0  0  0  0
   44.0089  -12.1632    0.0000 O   0  0  0  0  0  0  0  0  0  0  0  0
   44.7234  -10.9257    0.0000 O   0  0  0  0  0  0  0  0  0  0  0  0
   38.5951  -14.1152    0.0000 C   0  0  0  0  0  0  0  0  0  0  0  0
   42.8819   -8.5613    0.0000 C   0  0  0  0  0  0  0  0  0  0  0  0
   43.7069   -8.5613    0.0000 C   0  0  0  0  0  0  0  0  0  0  0  0
   39.4201  -14.1152    0.0000 C   0  0  0  0  0  0  0  0  0  0  0  0
   39.0076  -14.8297    0.0000 O   0  0  0  0  0  0  0  0  0  0  0  0
   37.5786  -13.4007    0.0000 O   0  0  0  0  0  0  0  0  0  0  0  0
   36.8642  -12.1632    0.0000 O   0  0  0  0  0  0  0  0  0  0  0  0
   36.8642  -12.9882    0.0000 C   0  0  2  0  0  0  0  0  0  0  0  0
   36.1497  -13.4007    0.0000 C   0  0  1  0  0  0  0  0  0  0  0  0
   35.4352  -12.9882    0.0000 C   0  0  2  0  0  0  0  0  0  0  0  0
   35.4352  -12.1632    0.0000 C   0  0  2  0  0  0  0  0  0  0  0  0
   36.1497  -11.7507    0.0000 C   0  0  0  0  0  0  0  0  0  0  0  0
   34.7208  -11.7507    0.0000 O   0  0  0  0  0  0  0  0  0  0  0  0
   34.7208  -13.4007    0.0000 O   0  0  0  0  0  0  0  0  0  0  0  0
   36.1497  -14.2257    0.0000 O   0  0  0  0  0  0  0  0  0  0  0  0
   34.7208  -14.2257    0.0000 O   0  0  0  0  0  0  0  0  0  0  0  0
   35.4352  -14.6382    0.0000 C   0  0  2  0  0  0  0  0  0  0  0  0
   35.4352  -15.4632    0.0000 C   0  0  1  0  0  0  0  0  0  0  0  0
   34.7208  -15.8757    0.0000 C   0  0  1  0  0  0  0  0  0  0  0  0
   34.0063  -15.4632    0.0000 C   0  0  2  0  0  0  0  0  0  0  0  0
   34.0063  -14.6382    0.0000 C   0  0  2  0  0  0  0  0  0  0  0  0
   33.2918  -14.2257    0.0000 C   0  0  0  0  0  0  0  0  0  0  0  0
   33.2918  -15.8757    0.0000 O   0  0  0  0  0  0  0  0  0  0  0  0
   36.1497  -15.8757    0.0000 O   0  0  0  0  0  0  0  0  0  0  0  0
   34.7208  -16.7007    0.0000 O   0  0  0  0  0  0  0  0  0  0  0  0
   36.1497  -16.7007    0.0000 O   0  0  0  0  0  0  0  0  0  0  0  0
   35.4352  -17.1132    0.0000 C   0  0  2  0  0  0  0  0  0  0  0  0
   35.4352  -17.9382    0.0000 C   0  0  1  0  0  0  0  0  0  0  0  0
   36.1497  -18.3507    0.0000 C   0  0  2  0  0  0  0  0  0  0  0  0
   36.8642  -17.9382    0.0000 C   0  0  1  0  0  0  0  0  0  0  0  0
   36.8642  -17.1132    0.0000 C   0  0  0  0  0  0  0  0  0  0  0  0
   37.5786  -18.3507    0.0000 O   0  0  0  0  0  0  0  0  0  0  0  0
   39.0076  -18.3507    0.0000 O   0  0  0  0  0  0  0  0  0  0  0  0
   38.2931  -17.9382    0.0000 C   0  0  2  0  0  0  0  0  0  0  0  0
   38.2931  -17.1132    0.0000 C   0  0  1  0  0  0  0  0  0  0  0  0
   39.0076  -16.7007    0.0000 C   0  0  2  0  0  0  0  0  0  0  0  0
   39.7221  -17.1132    0.0000 C   0  0  1  0  0  0  0  0  0  0  0  0
   39.7221  -17.9382    0.0000 C   0  0  0  0  0  0  0  0  0  0  0  0
   40.4365  -16.7007    0.0000 O   0  0  0  0  0  0  0  0  0  0  0  0
   39.0076  -15.8757    0.0000 O   0  0  0  0  0  0  0  0  0  0  0  0
   37.5786  -16.7007    0.0000 O   0  0  0  0  0  0  0  0  0  0  0  0
   36.1497  -19.1757    0.0000 O   0  0  0  0  0  0  0  0  0  0  0  0
   34.7208  -18.3507    0.0000 O   0  0  0  0  0  0  0  0  0  0  0  0
   39.7221  -13.8132    0.0000 H   0  0  0  0  0  0  0  0  0  0  0  0
   42.5799  -11.3382    0.0000 H   0  0  0  0  0  0  0  0  0  0  0  0
   45.4378  -12.1632    0.0000 O   0  0  0  0  0  0  0  0  0  0  0  0
   45.4378  -11.3382    0.0000 C   0  0  2  0  0  0  0  0  0  0  0  0
   46.1523  -10.9257    0.0000 C   0  0  1  0  0  0  0  0  0  0  0  0
   46.8668  -11.3382    0.0000 C   0  0  2  0  0  0  0  0  0  0  0  0
   46.8668  -12.1632    0.0000 C   0  0  1  0  0  0  0  0  0  0  0  0
   46.1523  -12.5757    0.0000 C   0  0  1  0  0  0  0  0  0  0  0  0
   46.1523  -10.1007    0.0000 O   0  0  0  0  0  0  0  0  0  0  0  0
   47.5812  -10.1007    0.0000 O   0  0  0  0  0  0  0  0  0  0  0  0
   46.8668   -9.6882    0.0000 C   0  0  2  0  0  0  0  0  0  0  0  0
   46.8668   -8.8632    0.0000 C   0  0  1  0  0  0  0  0  0  0  0  0
   47.5812   -8.4507    0.0000 C   0  0  2  0  0  0  0  0  0  0  0  0
   48.2957   -8.8632    0.0000 C   0  0  1  0  0  0  0  0  0  0  0  0
   48.2957   -9.6882    0.0000 C   0  0  0  0  0  0  0  0  0  0  0  0
   49.0102   -8.4507    0.0000 O   0  0  0  0  0  0  0  0  0  0  0  0
   47.5812   -7.6257    0.0000 O   0  0  0  0  0  0  0  0  0  0  0  0
   46.1523   -8.4507    0.0000 O   0  0  0  0  0  0  0  0  0  0  0  0
   47.5812  -12.5757    0.0000 O   0  0  0  0  0  0  0  0  0  0  0  0
   47.5812  -10.9257    0.0000 O   0  0  0  0  0  0  0  0  0  0  0  0
   46.1523  -13.4007    0.0000 C   0  0  0  0  0  0  0  0  0  0  0  0
   46.8668  -13.8132    0.0000 O   0  0  0  0  0  0  0  0  0  0  0  0
   46.1523  -15.0507    0.0000 O   0  0  0  0  0  0  0  0  0  0  0  0
   46.8668  -14.6382    0.0000 C   0  0  2  0  0  0  0  0  0  0  0  0
   47.5812  -15.0507    0.0000 C   0  0  1  0  0  0  0  0  0  0  0  0
   47.5812  -15.8757    0.0000 C   0  0  2  0  0  0  0  0  0  0  0  0
   46.8668  -16.2882    0.0000 C   0  0  1  0  0  0  0  0  0  0  0  0
   46.1523  -15.8757    0.0000 C   0  0  1  0  0  0  0  0  0  0  0  0
   46.8668  -17.1132    0.0000 O   0  0  0  0  0  0  0  0  0  0  0  0
   45.4378  -17.1132    0.0000 O   0  0  0  0  0  0  0  0  0  0  0  0
   46.1523  -17.5257    0.0000 C   0  0  2  0  0  0  0  0  0  0  0  0
   46.1523  -18.3507    0.0000 C   0  0  1  0  0  0  0  0  0  0  0  0
   45.4378  -18.7632    0.0000 C   0  0  1  0  0  0  0  0  0  0  0  0
   44.7234  -18.3507    0.0000 C   0  0  2  0  0  0  0  0  0  0  0  0
   44.7234  -17.5257    0.0000 C   0  0  2  0  0  0  0  0  0  0  0  0
   44.0089  -17.1132    0.0000 C   0  0  0  0  0  0  0  0  0  0  0  0
   44.0089  -18.7632    0.0000 O   0  0  0  0  0  0  0  0  0  0  0  0
   45.4378  -19.5882    0.0000 O   0  0  0  0  0  0  0  0  0  0  0  0
   46.8668  -18.7632    0.0000 O   0  0  0  0  0  0  0  0  0  0  0  0
   45.4378  -16.2882    0.0000 C   0  0  0  0  0  0  0  0  0  0  0  0
   44.7234  -15.8757    0.0000 O   0  0  0  0  0  0  0  0  0  0  0  0
   48.2957  -16.2882    0.0000 O   0  0  0  0  0  0  0  0  0  0  0  0
   48.2957  -14.6382    0.0000 O   0  0  0  0  0  0  0  0  0  0  0  0
   39.7221  -11.3382    0.0000 C   0  0  0  0  0  0  0  0  0  0  0  0
   41.7344  -12.7466    0.0000 C   0  0  0  0  0  0  0  0  0  0  0  0
   42.0790  -12.5476    0.0000 C   0  0  0  0  0  0  0  0  0  0  0  0
   39.8532  -11.1674    0.0000 H   0  0  0  0  0  0  0  0  0  0  0  0
  1  2  1  0  0  0  0
  2  3  1  0  0  0  0
  3  4  1  0  0  0  0
  4  5  1  0  0  0  0
  5  6  1  0  0  0  0
  6  7  1  0  0  0  0
  7  8  1  0  0  0  0
  8  9  1  0  0  0  0
  9 10  1  0  0  0  0
 10 11  1  0  0  0  0
 11 12  1  0  0  0  0
 12 13  1  0  0  0  0
 13 14  1  0  0  0  0
 14 15  1  0  0  0  0
 15 16  1  0  0  0  0
 16 17  1  0  0  0  0
 12 17  1  0  0  0  0
 17 18  1  0  0  0  0
  9 18  1  0  0  0  0
 18 19  1  0  0  0  0
 19 20  1  0  0  0  0
 20 21  2  0  0  0  0
  8 21  1  0  0  0  0
 21 22  1  0  0  0  0
  5 22  1  0  0  0  0
  1 22  1  0  0  0  0
 23 24  2  0  0  0  0
 23 25  1  0  0  0  0
  5 23  1  1  0  0  0
 13 26  1  1  0  0  0
  2 27  1  0  0  0  0
  2 28  1  0  0  0  0
 29 30  1  0  0  0  0
 13 29  1  6  0  0  0
 32 33  1  0  0  0  0
 33 34  1  0  0  0  0
 34 35  1  0  0  0  0
 35 36  1  0  0  0  0
 36 37  1  0  0  0  0
 32 37  1  0  0  0  0
 36 38  1  1  0  0  0
 35 39  1  1  0  0  0
 41 42  1  0  0  0  0
 42 43  1  0  0  0  0
 43 44  1  0  0  0  0
 44 45  1  0  0  0  0
 45 46  1  0  0  0  0
 41 46  1  0  0  0  0
 46 47  1  6  0  0  0
 45 48  1  1  0  0  0
 43 49  1  6  0  0  0
 51 52  1  0  0  0  0
 52 53  1  0  0  0  0
 53 54  1  0  0  0  0
 54 55  1  0  0  0  0
 55 56  1  0  0  0  0
 51 56  1  0  0  0  0
 58 59  1  0  0  0  0
 59 60  1  0  0  0  0
 60 61  1  0  0  0  0
 61 62  1  0  0  0  0
 62 63  1  0  0  0  0
 58 63  1  0  0  0  0
 62 64  1  6  0  0  0
 61 65  1  1  0  0  0
 60 66  1  6  0  0  0
 59 57  1  1  0  0  0
 55 57  1  1  0  0  0
 54 67  1  6  0  0  0
 53 68  1  1  0  0  0
 52 50  1  6  0  0  0
 44 50  1  6  0  0  0
 42 40  1  1  0  0  0
 34 40  1  6  0  0  0
 33 31  1  1  0  0  0
 14 31  1  1  0  0  0
 12 69  1  6  0  0  0
 22 70  1  1  0  0  0
 71 72  1  0  0  0  0
 72 73  1  0  0  0  0
 73 74  1  0  0  0  0
 74 75  1  0  0  0  0
 75 76  1  0  0  0  0
 71 76  1  0  0  0  0
 78 79  1  0  0  0  0
 79 80  1  0  0  0  0
 80 81  1  0  0  0  0
 81 82  1  0  0  0  0
 82 83  1  0  0  0  0
 78 83  1  0  0  0  0
 82 84  1  6  0  0  0
 81 85  1  1  0  0  0
 80 86  1  6  0  0  0
 79 77  1  1  0  0  0
 73 77  1  6  0  0  0
 75 87  1  6  0  0  0
 74 88  1  1  0  0  0
 91 92  1  0  0  0  0
 92 93  1  0  0  0  0
 93 94  1  0  0  0  0
 94 95  1  0  0  0  0
 95 96  1  0  0  0  0
 91 96  1  0  0  0  0
 98 99  1  0  0  0  0
 99100  1  0  0  0  0
100101  1  0  0  0  0
101102  1  0  0  0  0
102103  1  0  0  0  0
 98103  1  0  0  0  0
103104  1  6  0  0  0
102105  1  1  0  0  0
101106  1  6  0  0  0
100107  1  6  0  0  0
 99 97  1  1  0  0  0
 95 97  1  6  0  0  0
108109  1  0  0  0  0
 96108  1  1  0  0  0
 94110  1  1  0  0  0
 93111  1  6  0  0  0
 92 90  1  1  0  0  0
 89 90  1  0  0  0  0
 76 89  1  1  0  0  0
 72 25  1  1  0  0  0
 17112  1  1  0  0  0
  9113  1  1  0  0  0
  8114  1  6  0  0  0
 18115  1  6  0  0  0
M  END
>  <cdx:groupId>
27755

>  <cdx:fragmentId>
27524

$$$$
