22208.cdx
  Mrv1902 05222410212D          

 22 21  0  0  0  0            999 V2000
    7.5089  -10.9021    0.0000 C   0  0  0  0  0  0  0  0  0  0  0  0
    7.5089  -10.0771    0.0000 C   0  0  0  0  0  0  0  0  0  0  0  0
    8.2233   -9.6646    0.0000 C   0  0  0  0  0  0  0  0  0  0  0  0
    8.2233   -8.8396    0.0000 C   0  0  0  0  0  0  0  0  0  0  0  0
    1.7931  -10.9021    0.0000 O   0  0  0  0  0  0  0  0  0  0  0  0
    2.5076  -12.1396    0.0000 O   0  0  0  0  0  0  0  0  0  0  0  0
    8.9378   -8.4271    0.0000 C   0  0  0  0  0  0  0  0  0  0  0  0
    9.6523   -8.8396    0.0000 C   0  0  0  0  0  0  0  0  0  0  0  0
    5.3654  -11.3146    0.0000 C   0  0  0  0  0  0  0  0  0  0  0  0
    4.6510  -10.9021    0.0000 C   0  0  0  0  0  0  0  0  0  0  0  0
    3.9365  -11.3146    0.0000 C   0  0  0  0  0  0  0  0  0  0  0  0
    3.2220  -10.9021    0.0000 C   0  0  0  0  0  0  0  0  0  0  0  0
    2.5076  -11.3146    0.0000 C   0  0  0  0  0  0  0  0  0  0  0  0
   10.3667   -8.4271    0.0000 C   0  0  0  0  0  0  0  0  0  0  0  0
   11.0812   -8.8396    0.0000 C   0  0  0  0  0  0  0  0  0  0  0  0
   11.0812   -9.6646    0.0000 C   0  0  0  0  0  0  0  0  0  0  0  0
   11.7957  -10.0771    0.0000 C   0  0  0  0  0  0  0  0  0  0  0  0
   11.7957  -10.9021    0.0000 C   0  0  0  0  0  0  0  0  0  0  0  0
   12.5102  -11.3146    0.0000 C   0  0  0  0  0  0  0  0  0  0  0  0
   12.5102  -12.1396    0.0000 C   0  0  0  0  0  0  0  0  0  0  0  0
    6.7944  -11.3146    0.0000 C   0  0  0  0  0  0  0  0  0  0  0  0
    6.0799  -10.9021    0.0000 C   0  0  0  0  0  0  0  0  0  0  0  0
 13  5  1  0  0  0  0
 13  6  2  0  0  0  0
  1  2  1  0  0  0  0
  2  3  1  0  0  0  0
  9 22  1  0  0  0  0
 10  9  1  0  0  0  0
 11 10  1  0  0  0  0
 12 11  1  0  0  0  0
 13 12  1  0  0  0  0
  3  4  1  0  0  0  0
  4  7  2  0  0  0  0
  7  8  1  0  0  0  0
  8 14  1  0  0  0  0
 14 15  2  0  0  0  0
 15 16  1  0  0  0  0
 16 17  1  0  0  0  0
 17 18  1  0  0  0  0
 21  1  2  0  0  0  0
 22 21  1  0  0  0  0
 18 19  1  0  0  0  0
 19 20  1  0  0  0  0
M  END
>  <cdx:fragmentId>
297

$$$$
