22202.cdx
  Mrv1902 05222410232D          

 10  9  0  0  0  0            999 V2000
    7.6594   -2.9621    0.0000 C   0  0  0  0  0  0  0  0  0  0  0  0
    6.9449   -3.3746    0.0000 C   0  0  0  0  0  0  0  0  0  0  0  0
    6.2304   -2.9621    0.0000 C   0  0  0  0  0  0  0  0  0  0  0  0
    5.5160   -3.3746    0.0000 C   0  0  0  0  0  0  0  0  0  0  0  0
    4.8015   -2.9621    0.0000 C   0  0  0  0  0  0  0  0  0  0  0  0
    4.0870   -3.3746    0.0000 C   0  0  0  0  0  0  0  0  0  0  0  0
    3.3726   -2.9621    0.0000 C   0  0  0  0  0  0  0  0  0  0  0  0
    2.6581   -3.3746    0.0000 C   0  0  0  0  0  0  0  0  0  0  0  0
    1.9436   -2.9621    0.0000 C   0  0  0  0  0  0  0  0  0  0  0  0
    6.2304   -2.1371    0.0000 C   0  0  0  0  0  0  0  0  0  0  0  0
  1  2  1  0  0  0  0
  2  3  1  0  0  0  0
  3  4  1  0  0  0  0
  4  5  1  0  0  0  0
  5  6  1  0  0  0  0
  6  7  1  0  0  0  0
  7  8  1  0  0  0  0
  8  9  1  0  0  0  0
  3 10  1  0  0  0  0
M  END
>  <cdx:groupId>
31

>  <cdx:fragmentId>
5

$$$$
