102222062.cdx
  Mrv1902 05222410192D          

115127  0  0  0  0            999 V2000
   41.8869   -9.6882    0.0000 C   0  0  0  0  0  0  0  0  0  0  0  0
   42.6014   -9.2757    0.0000 C   0  0  0  0  0  0  0  0  0  0  0  0
   43.3159   -9.6882    0.0000 C   0  0  0  0  0  0  0  0  0  0  0  0
   43.3159  -10.5132    0.0000 C   0  0  0  0  0  0  0  0  0  0  0  0
   42.6014  -10.9257    0.0000 C   0  0  2  0  0  0  0  0  0  0  0  0
   42.6014  -11.7507    0.0000 C   0  0  0  0  0  0  0  0  0  0  0  0
   41.8869  -12.1632    0.0000 C   0  0  0  0  0  0  0  0  0  0  0  0
   41.1725  -11.7507    0.0000 C   0  0  1  0  0  0  0  0  0  0  0  0
   40.4580  -12.1632    0.0000 C   0  0  2  0  0  0  0  0  0  0  0  0
   40.4580  -12.9882    0.0000 C   0  0  0  0  0  0  0  0  0  0  0  0
   39.7435  -13.4007    0.0000 C   0  0  0  0  0  0  0  0  0  0  0  0
   39.0291  -12.9882    0.0000 C   0  0  1  0  0  0  0  0  0  0  0  0
   38.3146  -13.4007    0.0000 C   0  0  2  0  0  0  0  0  0  0  0  0
   37.6001  -12.9882    0.0000 C   0  0  2  0  0  0  0  0  0  0  0  0
   37.6001  -12.1632    0.0000 C   0  0  0  0  0  0  0  0  0  0  0  0
   38.3146  -11.7507    0.0000 C   0  0  0  0  0  0  0  0  0  0  0  0
   39.0291  -12.1632    0.0000 C   0  0  2  0  0  0  0  0  0  0  0  0
   39.7435  -11.7507    0.0000 C   0  0  1  0  0  0  0  0  0  0  0  0
   39.7435  -10.9257    0.0000 C   0  0  0  0  0  0  0  0  0  0  0  0
   40.4580  -10.5132    0.0000 C   0  0  0  0  0  0  0  0  0  0  0  0
   41.1725  -10.9257    0.0000 C   0  0  0  0  0  0  0  0  0  0  0  0
   41.8869  -10.5132    0.0000 C   0  0  2  0  0  0  0  0  0  0  0  0
   43.3159  -11.3382    0.0000 C   0  0  0  0  0  0  0  0  0  0  0  0
   43.3159  -12.1632    0.0000 O   0  0  0  0  0  0  0  0  0  0  0  0
   44.0304  -10.9257    0.0000 O   0  0  0  0  0  0  0  0  0  0  0  0
   37.9021  -14.1152    0.0000 C   0  0  0  0  0  0  0  0  0  0  0  0
   42.1889   -8.5613    0.0000 C   0  0  0  0  0  0  0  0  0  0  0  0
   43.0139   -8.5613    0.0000 C   0  0  0  0  0  0  0  0  0  0  0  0
   38.7271  -14.1152    0.0000 C   0  0  0  0  0  0  0  0  0  0  0  0
   38.3146  -14.8297    0.0000 O   0  0  0  0  0  0  0  0  0  0  0  0
   36.8856  -13.4007    0.0000 O   0  0  0  0  0  0  0  0  0  0  0  0
   36.1712  -12.1632    0.0000 O   0  0  0  0  0  0  0  0  0  0  0  0
   36.1712  -12.9882    0.0000 C   0  0  2  0  0  0  0  0  0  0  0  0
   35.4567  -13.4007    0.0000 C   0  0  1  0  0  0  0  0  0  0  0  0
   34.7422  -12.9882    0.0000 C   0  0  2  0  0  0  0  0  0  0  0  0
   34.7422  -12.1632    0.0000 C   0  0  2  0  0  0  0  0  0  0  0  0
   35.4567  -11.7507    0.0000 C   0  0  0  0  0  0  0  0  0  0  0  0
   34.0278  -11.7507    0.0000 O   0  0  0  0  0  0  0  0  0  0  0  0
   34.0278  -13.4007    0.0000 O   0  0  0  0  0  0  0  0  0  0  0  0
   35.4567  -14.2257    0.0000 O   0  0  0  0  0  0  0  0  0  0  0  0
   34.0278  -14.2257    0.0000 O   0  0  0  0  0  0  0  0  0  0  0  0
   34.7422  -14.6382    0.0000 C   0  0  2  0  0  0  0  0  0  0  0  0
   34.7422  -15.4632    0.0000 C   0  0  1  0  0  0  0  0  0  0  0  0
   34.0278  -15.8757    0.0000 C   0  0  1  0  0  0  0  0  0  0  0  0
   33.3133  -15.4632    0.0000 C   0  0  2  0  0  0  0  0  0  0  0  0
   33.3133  -14.6382    0.0000 C   0  0  2  0  0  0  0  0  0  0  0  0
   32.5988  -14.2257    0.0000 C   0  0  0  0  0  0  0  0  0  0  0  0
   32.5988  -15.8757    0.0000 O   0  0  0  0  0  0  0  0  0  0  0  0
   35.4567  -15.8757    0.0000 O   0  0  0  0  0  0  0  0  0  0  0  0
   34.0278  -16.7007    0.0000 O   0  0  0  0  0  0  0  0  0  0  0  0
   35.4567  -16.7007    0.0000 O   0  0  0  0  0  0  0  0  0  0  0  0
   34.7422  -17.1132    0.0000 C   0  0  2  0  0  0  0  0  0  0  0  0
   34.7422  -17.9382    0.0000 C   0  0  1  0  0  0  0  0  0  0  0  0
   35.4567  -18.3507    0.0000 C   0  0  2  0  0  0  0  0  0  0  0  0
   36.1712  -17.9382    0.0000 C   0  0  1  0  0  0  0  0  0  0  0  0
   36.1712  -17.1132    0.0000 C   0  0  0  0  0  0  0  0  0  0  0  0
   36.8856  -18.3507    0.0000 O   0  0  0  0  0  0  0  0  0  0  0  0
   38.3146  -18.3507    0.0000 O   0  0  0  0  0  0  0  0  0  0  0  0
   37.6001  -17.9382    0.0000 C   0  0  2  0  0  0  0  0  0  0  0  0
   37.6001  -17.1132    0.0000 C   0  0  1  0  0  0  0  0  0  0  0  0
   38.3146  -16.7007    0.0000 C   0  0  2  0  0  0  0  0  0  0  0  0
   39.0291  -17.1132    0.0000 C   0  0  1  0  0  0  0  0  0  0  0  0
   39.0291  -17.9382    0.0000 C   0  0  0  0  0  0  0  0  0  0  0  0
   39.7435  -16.7007    0.0000 O   0  0  0  0  0  0  0  0  0  0  0  0
   38.3146  -15.8757    0.0000 O   0  0  0  0  0  0  0  0  0  0  0  0
   36.8856  -16.7007    0.0000 O   0  0  0  0  0  0  0  0  0  0  0  0
   35.4567  -19.1757    0.0000 O   0  0  0  0  0  0  0  0  0  0  0  0
   34.0278  -18.3507    0.0000 O   0  0  0  0  0  0  0  0  0  0  0  0
   39.0291  -13.8132    0.0000 H   0  0  0  0  0  0  0  0  0  0  0  0
   41.8869  -11.3382    0.0000 H   0  0  0  0  0  0  0  0  0  0  0  0
   44.7448  -12.1632    0.0000 O   0  0  0  0  0  0  0  0  0  0  0  0
   44.7448  -11.3382    0.0000 C   0  0  2  0  0  0  0  0  0  0  0  0
   45.4593  -10.9257    0.0000 C   0  0  1  0  0  0  0  0  0  0  0  0
   46.1738  -11.3382    0.0000 C   0  0  2  0  0  0  0  0  0  0  0  0
   46.1738  -12.1632    0.0000 C   0  0  1  0  0  0  0  0  0  0  0  0
   45.4593  -12.5757    0.0000 C   0  0  1  0  0  0  0  0  0  0  0  0
   45.4593  -10.1007    0.0000 O   0  0  0  0  0  0  0  0  0  0  0  0
   46.8882  -10.1007    0.0000 O   0  0  0  0  0  0  0  0  0  0  0  0
   46.1738   -9.6882    0.0000 C   0  0  2  0  0  0  0  0  0  0  0  0
   46.1738   -8.8632    0.0000 C   0  0  1  0  0  0  0  0  0  0  0  0
   46.8882   -8.4507    0.0000 C   0  0  2  0  0  0  0  0  0  0  0  0
   47.6027   -8.8632    0.0000 C   0  0  2  0  0  0  0  0  0  0  0  0
   47.6027   -9.6882    0.0000 C   0  0  0  0  0  0  0  0  0  0  0  0
   48.3172   -8.4507    0.0000 O   0  0  0  0  0  0  0  0  0  0  0  0
   46.8882   -7.6257    0.0000 O   0  0  0  0  0  0  0  0  0  0  0  0
   45.4593   -8.4507    0.0000 O   0  0  0  0  0  0  0  0  0  0  0  0
   46.8882  -12.5757    0.0000 O   0  0  0  0  0  0  0  0  0  0  0  0
   46.8882  -10.9257    0.0000 O   0  0  0  0  0  0  0  0  0  0  0  0
   45.4593  -13.4007    0.0000 C   0  0  0  0  0  0  0  0  0  0  0  0
   46.1738  -13.8132    0.0000 O   0  0  0  0  0  0  0  0  0  0  0  0
   45.4593  -15.0507    0.0000 O   0  0  0  0  0  0  0  0  0  0  0  0
   46.1738  -14.6382    0.0000 C   0  0  2  0  0  0  0  0  0  0  0  0
   46.8882  -15.0507    0.0000 C   0  0  1  0  0  0  0  0  0  0  0  0
   46.8882  -15.8757    0.0000 C   0  0  2  0  0  0  0  0  0  0  0  0
   46.1738  -16.2882    0.0000 C   0  0  1  0  0  0  0  0  0  0  0  0
   45.4593  -15.8757    0.0000 C   0  0  1  0  0  0  0  0  0  0  0  0
   46.1738  -17.1132    0.0000 O   0  0  0  0  0  0  0  0  0  0  0  0
   44.7448  -17.1132    0.0000 O   0  0  0  0  0  0  0  0  0  0  0  0
   45.4593  -17.5257    0.0000 C   0  0  2  0  0  0  0  0  0  0  0  0
   45.4593  -18.3507    0.0000 C   0  0  1  0  0  0  0  0  0  0  0  0
   44.7448  -18.7632    0.0000 C   0  0  1  0  0  0  0  0  0  0  0  0
   44.0304  -18.3507    0.0000 C   0  0  2  0  0  0  0  0  0  0  0  0
   44.0304  -17.5257    0.0000 C   0  0  2  0  0  0  0  0  0  0  0  0
   43.3159  -17.1132    0.0000 C   0  0  0  0  0  0  0  0  0  0  0  0
   43.3159  -18.7632    0.0000 O   0  0  0  0  0  0  0  0  0  0  0  0
   44.7448  -19.5882    0.0000 O   0  0  0  0  0  0  0  0  0  0  0  0
   46.1738  -18.7632    0.0000 O   0  0  0  0  0  0  0  0  0  0  0  0
   44.7448  -16.2882    0.0000 C   0  0  0  0  0  0  0  0  0  0  0  0
   44.0304  -15.8757    0.0000 O   0  0  0  0  0  0  0  0  0  0  0  0
   47.6027  -16.2882    0.0000 O   0  0  0  0  0  0  0  0  0  0  0  0
   47.6027  -14.6382    0.0000 O   0  0  0  0  0  0  0  0  0  0  0  0
   39.0291  -11.3382    0.0000 C   0  0  0  0  0  0  0  0  0  0  0  0
   41.0414  -12.7466    0.0000 C   0  0  0  0  0  0  0  0  0  0  0  0
   39.3310  -11.0363    0.0000 H   0  0  0  0  0  0  0  0  0  0  0  0
   41.3860  -12.5476    0.0000 C   0  0  0  0  0  0  0  0  0  0  0  0
  1  2  1  0  0  0  0
  2  3  1  0  0  0  0
  3  4  1  0  0  0  0
  4  5  1  0  0  0  0
  5  6  1  0  0  0  0
  6  7  1  0  0  0  0
  7  8  1  0  0  0  0
  8  9  1  0  0  0  0
  9 10  1  0  0  0  0
 10 11  1  0  0  0  0
 11 12  1  0  0  0  0
 12 13  1  0  0  0  0
 13 14  1  0  0  0  0
 14 15  1  0  0  0  0
 15 16  1  0  0  0  0
 16 17  1  0  0  0  0
 12 17  1  0  0  0  0
 17 18  1  0  0  0  0
  9 18  1  0  0  0  0
 18 19  1  0  0  0  0
 19 20  1  0  0  0  0
 20 21  2  0  0  0  0
  8 21  1  0  0  0  0
 21 22  1  0  0  0  0
  5 22  1  0  0  0  0
  1 22  1  0  0  0  0
 23 24  2  0  0  0  0
 23 25  1  0  0  0  0
  5 23  1  1  0  0  0
 13 26  1  1  0  0  0
  2 27  1  0  0  0  0
  2 28  1  0  0  0  0
 29 30  1  0  0  0  0
 13 29  1  6  0  0  0
 32 33  1  0  0  0  0
 33 34  1  0  0  0  0
 34 35  1  0  0  0  0
 35 36  1  0  0  0  0
 36 37  1  0  0  0  0
 32 37  1  0  0  0  0
 36 38  1  1  0  0  0
 35 39  1  1  0  0  0
 41 42  1  0  0  0  0
 42 43  1  0  0  0  0
 43 44  1  0  0  0  0
 44 45  1  0  0  0  0
 45 46  1  0  0  0  0
 41 46  1  0  0  0  0
 46 47  1  6  0  0  0
 45 48  1  1  0  0  0
 43 49  1  6  0  0  0
 51 52  1  0  0  0  0
 52 53  1  0  0  0  0
 53 54  1  0  0  0  0
 54 55  1  0  0  0  0
 55 56  1  0  0  0  0
 51 56  1  0  0  0  0
 58 59  1  0  0  0  0
 59 60  1  0  0  0  0
 60 61  1  0  0  0  0
 61 62  1  0  0  0  0
 62 63  1  0  0  0  0
 58 63  1  0  0  0  0
 62 64  1  6  0  0  0
 61 65  1  1  0  0  0
 60 66  1  6  0  0  0
 59 57  1  1  0  0  0
 55 57  1  1  0  0  0
 54 67  1  6  0  0  0
 53 68  1  1  0  0  0
 52 50  1  6  0  0  0
 44 50  1  6  0  0  0
 42 40  1  1  0  0  0
 34 40  1  6  0  0  0
 33 31  1  1  0  0  0
 14 31  1  1  0  0  0
 12 69  1  6  0  0  0
 22 70  1  1  0  0  0
 71 72  1  0  0  0  0
 72 73  1  0  0  0  0
 73 74  1  0  0  0  0
 74 75  1  0  0  0  0
 75 76  1  0  0  0  0
 71 76  1  0  0  0  0
 78 79  1  0  0  0  0
 79 80  1  0  0  0  0
 80 81  1  0  0  0  0
 81 82  1  0  0  0  0
 82 83  1  0  0  0  0
 78 83  1  0  0  0  0
 82 84  1  1  0  0  0
 81 85  1  1  0  0  0
 80 86  1  6  0  0  0
 79 77  1  1  0  0  0
 73 77  1  6  0  0  0
 75 87  1  6  0  0  0
 74 88  1  1  0  0  0
 91 92  1  0  0  0  0
 92 93  1  0  0  0  0
 93 94  1  0  0  0  0
 94 95  1  0  0  0  0
 95 96  1  0  0  0  0
 91 96  1  0  0  0  0
 98 99  1  0  0  0  0
 99100  1  0  0  0  0
100101  1  0  0  0  0
101102  1  0  0  0  0
102103  1  0  0  0  0
 98103  1  0  0  0  0
103104  1  6  0  0  0
102105  1  1  0  0  0
101106  1  6  0  0  0
100107  1  6  0  0  0
 99 97  1  1  0  0  0
 95 97  1  6  0  0  0
108109  1  0  0  0  0
 96108  1  1  0  0  0
 94110  1  1  0  0  0
 93111  1  6  0  0  0
 92 90  1  1  0  0  0
 89 90  1  0  0  0  0
 76 89  1  1  0  0  0
 72 25  1  1  0  0  0
 17112  1  1  0  0  0
  9113  1  1  0  0  0
 18114  1  6  0  0  0
  8115  1  6  0  0  0
M  END
>  <cdx:groupId>
27371

>  <cdx:fragmentId>
27140

$$$$
