22201.cdx
  Mrv1902 05222410242D          

  8  8  0  0  0  0            999 V2000
    7.5065   -4.4831    0.0000 C   0  0  0  0  0  0  0  0  0  0  0  0
    7.5065   -5.3081    0.0000 C   0  0  0  0  0  0  0  0  0  0  0  0
    6.7921   -4.0706    0.0000 N   0  0  0  0  0  0  0  0  0  0  0  0
    6.7921   -5.7206    0.0000 N   0  0  0  0  0  0  0  0  0  0  0  0
    6.0776   -5.3081    0.0000 C   0  0  0  0  0  0  0  0  0  0  0  0
    6.0776   -4.4831    0.0000 C   0  0  0  0  0  0  0  0  0  0  0  0
    8.2210   -5.7206    0.0000 C   0  0  0  0  0  0  0  0  0  0  0  0
    8.2210   -4.0706    0.0000 C   0  0  0  0  0  0  0  0  0  0  0  0
  1  2  1  0  0  0  0
  1  3  2  0  0  0  0
  2  4  2  0  0  0  0
  4  5  1  0  0  0  0
  5  6  2  0  0  0  0
  3  6  1  0  0  0  0
  2  7  1  0  0  0  0
  1  8  1  0  0  0  0
M  END
>  <cdx:fragmentId>
5

$$$$
