222182.cdx
  Mrv1902 05222410252D          

 26 25  0  0  0  0            999 V2000
   14.3848  -10.9582    0.0000 C   0  0  0  0  0  0  0  0  0  0  0  0
    2.2388  -10.5457    0.0000 C   0  0  0  0  0  0  0  0  0  0  0  0
    2.9533  -11.7832    0.0000 C   0  0  0  0  0  0  0  0  0  0  0  0
    2.9533  -10.9582    0.0000 C   0  0  0  0  0  0  0  0  0  0  0  0
    3.6678  -10.5457    0.0000 C   0  0  0  0  0  0  0  0  0  0  0  0
    4.3822  -10.9582    0.0000 C   0  0  0  0  0  0  0  0  0  0  0  0
    5.0967  -10.5457    0.0000 C   0  0  0  0  0  0  0  0  0  0  0  0
    5.8112  -10.9582    0.0000 N   0  0  0  0  0  0  0  0  0  0  0  0
    6.5256   -9.7207    0.0000 O   0  0  0  0  0  0  0  0  0  0  0  0
   13.6704  -10.5457    0.0000 C   0  0  0  0  0  0  0  0  0  0  0  0
   12.9559  -10.9582    0.0000 C   0  0  0  0  0  0  0  0  0  0  0  0
   12.2414  -10.5457    0.0000 C   0  0  0  0  0  0  0  0  0  0  0  0
   11.5269  -10.9582    0.0000 C   0  0  0  0  0  0  0  0  0  0  0  0
   10.8125  -10.5457    0.0000 C   0  0  0  0  0  0  0  0  0  0  0  0
   10.0980  -10.9582    0.0000 C   0  0  0  0  0  0  0  0  0  0  0  0
    9.3835  -10.5457    0.0000 C   0  0  0  0  0  0  0  0  0  0  0  0
    8.6691  -10.9582    0.0000 C   0  0  0  0  0  0  0  0  0  0  0  0
    7.9546  -10.5457    0.0000 C   0  0  0  0  0  0  0  0  0  0  0  0
    7.2401  -10.9582    0.0000 C   0  0  0  0  0  0  0  0  0  0  0  0
    6.5256  -10.5457    0.0000 C   0  0  0  0  0  0  0  0  0  0  0  0
   15.0993  -10.5457    0.0000 C   0  0  0  0  0  0  0  0  0  0  0  0
   15.0993   -9.7207    0.0000 C   0  0  0  0  0  0  0  0  0  0  0  0
   15.8138   -9.3082    0.0000 C   0  0  0  0  0  0  0  0  0  0  0  0
   15.8138   -8.4832    0.0000 C   0  0  0  0  0  0  0  0  0  0  0  0
   16.5282   -8.0707    0.0000 C   0  0  0  0  0  0  0  0  0  0  0  0
   16.5282   -7.2457    0.0000 C   0  0  0  0  0  0  0  0  0  0  0  0
  8  7  1  0  0  0  0
  4  2  1  0  0  0  0
  4  3  1  0  0  0  0
  5  4  1  0  0  0  0
  6  5  1  0  0  0  0
  7  6  1  0  0  0  0
 20  8  1  0  0  0  0
 20  9  2  0  0  0  0
 10  1  1  0  0  0  0
 11 10  1  0  0  0  0
 12 11  1  0  0  0  0
 13 12  1  0  0  0  0
 14 13  1  0  0  0  0
 15 14  1  0  0  0  0
 16 15  1  0  0  0  0
 17 16  2  0  0  0  0
 18 17  1  0  0  0  0
 19 18  2  0  0  0  0
 20 19  1  0  0  0  0
  1 21  2  0  0  0  0
 21 22  1  0  0  0  0
 22 23  1  0  0  0  0
 23 24  1  0  0  0  0
 24 25  1  0  0  0  0
 25 26  1  0  0  0  0
M  END
>  <cdx:groupId>
67994

>  <cdx:fragmentId>
67920

$$$$
