222280.cdx
  Mrv1902 05222410282D          

 46 49  0  0  0  0            999 V2000
    4.5610   -8.7127    0.0000 C   0  0  0  0  0  0  0  0  0  0  0  0
    4.5489   -7.8878    0.0000 C   0  0  0  0  0  0  0  0  0  0  0  0
    3.8284   -7.4859    0.0000 C   0  0  0  0  0  0  0  0  0  0  0  0
    3.8526   -9.1357    0.0000 O   0  0  0  0  0  0  0  0  0  0  0  0
    5.2814   -9.1147    0.0000 O   0  0  0  0  0  0  0  0  0  0  0  0
    3.8163   -6.6610    0.0000 C   0  0  0  0  0  0  0  0  0  0  0  0
    3.0958   -6.2590    0.0000 C   0  0  0  0  0  0  0  0  0  0  0  0
    3.0837   -5.4341    0.0000 C   0  0  0  0  0  0  0  0  0  0  0  0
    3.7921   -5.0111    0.0000 C   0  0  0  0  0  0  0  0  0  0  0  0
    4.5125   -5.4131    0.0000 C   0  0  0  0  0  0  0  0  0  0  0  0
    4.5246   -6.2380    0.0000 C   0  0  0  0  0  0  0  0  0  0  0  0
    2.3633   -5.0321    0.0000 O   0  0  0  0  0  0  0  0  0  0  0  0
    2.3512   -4.2072    0.0000 C   0  0  0  0  0  0  0  0  0  0  0  0
    3.7799   -4.1862    0.0000 O   0  0  0  0  0  0  0  0  0  0  0  0
    5.2936   -9.9396    0.0000 C   0  0  0  0  0  0  0  0  0  0  0  0
    6.7223   -9.9186    0.0000 O   0  0  0  0  0  0  0  0  0  0  0  0
    6.0140  -10.3416    0.0000 C   0  0  1  0  0  0  0  0  0  0  0  0
    6.0261  -11.1665    0.0000 C   0  0  2  0  0  0  0  0  0  0  0  0
    6.7466  -11.5685    0.0000 C   0  0  1  0  0  0  0  0  0  0  0  0
    7.4549  -11.1455    0.0000 C   0  0  2  0  0  0  0  0  0  0  0  0
    7.4428  -10.3206    0.0000 C   0  0  2  0  0  0  0  0  0  0  0  0
    8.1511   -9.8976    0.0000 O   0  0  0  0  0  0  0  0  0  0  0  0
    8.8716  -10.2996    0.0000 C   0  0  0  0  0  0  0  0  0  0  0  0
    9.5799   -9.8767    0.0000 C   0  0  0  0  0  0  0  0  0  0  0  0
   10.3004  -10.2786    0.0000 C   0  0  0  0  0  0  0  0  0  0  0  0
   10.3125  -11.1035    0.0000 C   0  0  0  0  0  0  0  0  0  0  0  0
   11.0329  -11.5055    0.0000 C   0  0  0  0  0  0  0  0  0  0  0  0
   11.7413  -11.0825    0.0000 C   0  0  0  0  0  0  0  0  0  0  0  0
   11.7292  -10.2576    0.0000 C   0  0  0  0  0  0  0  0  0  0  0  0
   11.0087   -9.8557    0.0000 C   0  0  0  0  0  0  0  0  0  0  0  0
   12.4617  -11.4845    0.0000 O   0  0  0  0  0  0  0  0  0  0  0  0
   12.4738  -12.3094    0.0000 C   0  0  0  0  0  0  0  0  0  0  0  0
   11.0451  -12.3304    0.0000 O   0  0  0  0  0  0  0  0  0  0  0  0
    8.1754  -11.5475    0.0000 O   0  0  0  0  0  0  0  0  0  0  0  0
    5.3178  -11.5894    0.0000 O   0  0  0  0  0  0  0  0  0  0  0  0
    6.7829  -14.0432    0.0000 O   0  0  0  0  0  0  0  0  0  0  0  0
    5.3663  -14.8891    0.0000 O   0  0  0  0  0  0  0  0  0  0  0  0
    3.9254  -14.0852    0.0000 O   0  0  0  0  0  0  0  0  0  0  0  0
    3.9011  -12.4353    0.0000 C   0  0  0  0  0  0  0  0  0  0  0  0
    4.6216  -12.8373    0.0000 C   0  0  1  0  0  0  0  0  0  0  0  0
    4.6337  -13.6622    0.0000 C   0  0  1  0  0  0  0  0  0  0  0  0
    5.3541  -14.0642    0.0000 C   0  0  2  0  0  0  0  0  0  0  0  0
    6.0625  -13.6412    0.0000 C   0  0  2  0  0  0  0  0  0  0  0  0
    6.0504  -12.8163    0.0000 C   0  0  1  0  0  0  0  0  0  0  0  0
    5.3299  -12.4144    0.0000 O   0  0  0  0  0  0  0  0  0  0  0  0
    6.7587  -12.3934    0.0000 O   0  0  0  0  0  0  0  0  0  0  0  0
 44 46  1  1  0  0  0
 43 36  1  6  0  0  0
 42 37  1  6  0  0  0
 41 38  1  1  0  0  0
 40 39  1  6  0  0  0
 45 40  1  0  0  0  0
 41 40  1  0  0  0  0
 42 41  1  0  0  0  0
 43 42  1  0  0  0  0
 44 43  1  0  0  0  0
 45 44  1  0  0  0  0
  1  2  1  0  0  0  0
  2  3  2  0  0  0  0
  1  4  2  0  0  0  0
  1  5  1  0  0  0  0
  6  7  1  0  0  0  0
  7  8  2  0  0  0  0
  8  9  1  0  0  0  0
  9 10  2  0  0  0  0
 10 11  1  0  0  0  0
  6 11  2  0  0  0  0
 12 13  1  0  0  0  0
  8 12  1  0  0  0  0
  9 14  1  0  0  0  0
  3  6  1  0  0  0  0
 16 17  1  0  0  0  0
 17 18  1  0  0  0  0
 18 19  1  0  0  0  0
 19 20  1  0  0  0  0
 20 21  1  0  0  0  0
 16 21  1  0  0  0  0
 19 46  1  1  0  0  0
 23 24  1  0  0  0  0
 22 23  1  0  0  0  0
 25 26  1  0  0  0  0
 26 27  2  0  0  0  0
 27 28  1  0  0  0  0
 28 29  2  0  0  0  0
 29 30  1  0  0  0  0
 25 30  2  0  0  0  0
 31 32  1  0  0  0  0
 28 31  1  0  0  0  0
 27 33  1  0  0  0  0
 24 25  1  0  0  0  0
 21 22  1  1  0  0  0
 20 34  1  6  0  0  0
 18 35  1  6  0  0  0
 17 15  1  1  0  0  0
  5 15  1  0  0  0  0
M  END
>  <cdx:fragmentId>
40106

$$$$
