15222503.cdx
  Mrv1902 05222410192D          

 19 20  0  0  0  0            999 V2000
    8.5511  -13.8182    0.0000 C   0  0  0  0  0  0  0  0  0  0  0  0
    9.2656  -14.2307    0.0000 C   0  0  0  0  0  0  0  0  0  0  0  0
    9.2656  -15.0557    0.0000 C   0  0  0  0  0  0  0  0  0  0  0  0
    8.5511  -15.4682    0.0000 C   0  0  0  0  0  0  0  0  0  0  0  0
    7.8367  -15.0557    0.0000 C   0  0  0  0  0  0  0  0  0  0  0  0
    7.8367  -14.2307    0.0000 C   0  0  0  0  0  0  0  0  0  0  0  0
    8.5511  -12.9932    0.0000 O   0  0  0  0  0  0  0  0  0  0  0  0
    9.9801  -15.4682    0.0000 O   0  0  0  0  0  0  0  0  0  0  0  0
    9.9801  -13.8182    0.0000 C   0  0  0  0  0  0  0  0  0  0  0  0
    7.1222  -15.4682    0.0000 C   0  0  0  0  0  0  0  0  0  0  0  0
    6.4077  -15.0557    0.0000 C   0  0  0  0  0  0  0  0  0  0  0  0
    5.6933  -15.4682    0.0000 C   0  0  0  0  0  0  0  0  0  0  0  0
    5.6933  -16.2932    0.0000 C   0  0  0  0  0  0  0  0  0  0  0  0
    4.9788  -16.7057    0.0000 C   0  0  0  0  0  0  0  0  0  0  0  0
    4.2643  -16.2932    0.0000 C   0  0  0  0  0  0  0  0  0  0  0  0
    4.2643  -15.4682    0.0000 C   0  0  0  0  0  0  0  0  0  0  0  0
    4.9788  -15.0557    0.0000 C   0  0  0  0  0  0  0  0  0  0  0  0
    6.4077  -16.7057    0.0000 O   0  0  0  0  0  0  0  0  0  0  0  0
    7.1222  -16.2932    0.0000 C   0  0  0  0  0  0  0  0  0  0  0  0
  1  2  1  0  0  0  0
  2  3  2  0  0  0  0
  3  4  1  0  0  0  0
  4  5  2  0  0  0  0
  5  6  1  0  0  0  0
  1  6  2  0  0  0  0
  1  7  1  0  0  0  0
  3  8  1  0  0  0  0
  2  9  1  0  0  0  0
 10 11  1  0  0  0  0
 12 13  1  0  0  0  0
 13 14  2  0  0  0  0
 14 15  1  0  0  0  0
 15 16  2  0  0  0  0
 16 17  1  0  0  0  0
 12 17  2  0  0  0  0
 18 19  1  0  0  0  0
 13 18  1  0  0  0  0
 11 12  1  0  0  0  0
  5 10  1  0  0  0  0
M  END
>  <cdx:groupId>
111318

>  <cdx:fragmentId>
111285

$$$$
