222560.cdx
  Mrv1902 05222410212D          

 49 51  0  0  0  0            999 V2000
    7.8494   -4.9861    0.0000 C   0  0  0  0  0  0  0  0  0  0  0  0
    8.3285   -4.3145    0.0000 C   0  0  0  0  0  0  0  0  0  0  0  0
    9.1497   -4.3936    0.0000 C   0  0  0  0  0  0  0  0  0  0  0  0
    8.1914   -5.7368    0.0000 O   0  0  0  0  0  0  0  0  0  0  0  0
    7.0282   -4.9069    0.0000 O   0  0  0  0  0  0  0  0  0  0  0  0
    9.6289   -3.7220    0.0000 C   0  0  0  0  0  0  0  0  0  0  0  0
    9.2868   -2.9713    0.0000 C   0  0  0  0  0  0  0  0  0  0  0  0
    9.7660   -2.2997    0.0000 C   0  0  0  0  0  0  0  0  0  0  0  0
   10.5872   -2.3788    0.0000 C   0  0  0  0  0  0  0  0  0  0  0  0
   10.9292   -3.1296    0.0000 C   0  0  0  0  0  0  0  0  0  0  0  0
   10.4501   -3.8012    0.0000 C   0  0  0  0  0  0  0  0  0  0  0  0
   11.0663   -1.7072    0.0000 O   0  0  0  0  0  0  0  0  0  0  0  0
    6.1475   -6.8516    0.0000 O   0  0  0  0  0  0  0  0  0  0  0  0
    6.8108   -6.3609    0.0000 C   0  0  1  0  0  0  0  0  0  0  0  0
    6.5491   -5.5785    0.0000 C   0  0  2  0  0  0  0  0  0  0  0  0
    5.7241   -5.5857    0.0000 C   0  0  1  0  0  0  0  0  0  0  0  0
    5.4759   -6.3725    0.0000 C   0  0  1  0  0  0  0  0  0  0  0  0
    4.6935   -6.6342    0.0000 C   0  0  0  0  0  0  0  0  0  0  0  0
    4.1102   -6.0508    0.0000 O   0  0  0  0  0  0  0  0  0  0  0  0
    5.2334   -4.9224    0.0000 O   0  0  0  0  0  0  0  0  0  0  0  0
    7.6245   -6.2249    0.0000 C   0  0  0  0  0  0  0  0  0  0  0  0
    7.3941   -6.9443    0.0000 O   0  0  0  0  0  0  0  0  0  0  0  0
    7.3941   -7.7693    0.0000 C   0  0  1  0  0  0  0  0  0  0  0  0
    6.6797   -8.1818    0.0000 O   0  0  0  0  0  0  0  0  0  0  0  0
    6.6797   -9.0068    0.0000 C   0  0  1  0  0  0  0  0  0  0  0  0
    7.3941   -9.4193    0.0000 C   0  0  2  0  0  0  0  0  0  0  0  0
    8.1086   -9.0068    0.0000 C   0  0  1  0  0  0  0  0  0  0  0  0
    8.1086   -8.1818    0.0000 C   0  0  1  0  0  0  0  0  0  0  0  0
    5.9652   -9.4193    0.0000 C   0  0  0  0  0  0  0  0  0  0  0  0
    8.8231   -9.4193    0.0000 O   0  0  0  0  0  0  0  0  0  0  0  0
    8.8231   -7.7693    0.0000 O   0  0  0  0  0  0  0  0  0  0  0  0
    7.3941  -10.2443    0.0000 O   0  0  0  0  0  0  0  0  0  0  0  0
    8.1492   -6.8615    0.0000 O   0  0  0  0  0  0  0  0  0  0  0  0
    5.5625   -4.1659    0.0000 C   0  0  0  0  0  0  0  0  0  0  0  0
    5.0718   -3.5027    0.0000 O   0  0  0  0  0  0  0  0  0  0  0  0
    6.3822   -4.0726    0.0000 C   0  0  0  0  0  0  0  0  0  0  0  0
    8.8231  -10.2443    0.0000 C   0  0  0  0  0  0  0  0  0  0  0  0
    8.1086  -10.6568    0.0000 O   0  0  0  0  0  0  0  0  0  0  0  0
    9.5375  -10.6568    0.0000 C   0  0  0  0  0  0  0  0  0  0  0  0
    5.2507   -9.0068    0.0000 O   0  0  0  0  0  0  0  0  0  0  0  0
    4.5362   -9.4193    0.0000 C   0  0  0  0  0  0  0  0  0  0  0  0
    3.8218   -9.0068    0.0000 C   0  0  0  0  0  0  0  0  0  0  0  0
    4.5362  -10.2443    0.0000 O   0  0  0  0  0  0  0  0  0  0  0  0
    3.3133   -6.2643    0.0000 C   0  0  0  0  0  0  0  0  0  0  0  0
    2.7299   -5.6810    0.0000 C   0  0  0  0  0  0  0  0  0  0  0  0
    3.0998   -7.0612    0.0000 O   0  0  0  0  0  0  0  0  0  0  0  0
    6.6797  -10.6568    0.0000 C   0  0  0  0  0  0  0  0  0  0  0  0
    5.9652  -10.2443    0.0000 C   0  0  0  0  0  0  0  0  0  0  0  0
    6.6797  -11.4818    0.0000 O   0  0  0  0  0  0  0  0  0  0  0  0
  1  2  1  0  0  0  0
  2  3  2  0  0  0  0
  1  4  2  0  0  0  0
  1  5  1  0  0  0  0
  6  7  1  0  0  0  0
  7  8  2  0  0  0  0
  8  9  1  0  0  0  0
  9 10  2  0  0  0  0
 10 11  1  0  0  0  0
  6 11  2  0  0  0  0
  9 12  1  0  0  0  0
  3  6  1  0  0  0  0
 13 14  1  0  0  0  0
 14 15  1  0  0  0  0
 15 16  1  0  0  0  0
 16 17  1  0  0  0  0
 13 17  1  0  0  0  0
 18 19  1  0  0  0  0
 17 18  1  6  0  0  0
 16 20  1  1  0  0  0
 15  5  1  6  0  0  0
 14 21  1  0  0  0  0
 14 22  1  6  0  0  0
 23 22  1  6  0  0  0
 23 24  1  0  0  0  0
 24 25  1  0  0  0  0
 25 26  1  0  0  0  0
 26 27  1  0  0  0  0
 27 28  1  0  0  0  0
 28 23  1  0  0  0  0
 25 29  1  1  0  0  0
 27 30  1  1  0  0  0
 28 31  1  6  0  0  0
 26 32  1  6  0  0  0
 21 33  1  0  0  0  0
 20 34  1  0  0  0  0
 34 35  2  0  0  0  0
 34 36  1  0  0  0  0
 30 37  1  0  0  0  0
 37 38  2  0  0  0  0
 37 39  1  0  0  0  0
 29 40  1  0  0  0  0
 40 41  1  0  0  0  0
 41 42  1  0  0  0  0
 41 43  2  0  0  0  0
 19 44  1  0  0  0  0
 44 45  1  0  0  0  0
 44 46  2  0  0  0  0
 32 47  1  0  0  0  0
 47 48  1  0  0  0  0
 47 49  2  0  0  0  0
M  END
>  <cdx:fragmentId>
204591

$$$$
