222536.cdx
  Mrv1902 05222410262D          

 10  9  0  0  0  0            999 V2000
    7.6863   -7.8901    0.0000 C   0  0  0  0  0  0  0  0  0  0  0  0
    7.6863   -7.0651    0.0000 C   0  0  0  0  0  0  0  0  0  0  0  0
    6.2573   -7.8901    0.0000 C   0  0  0  0  0  0  0  0  0  0  0  0
    5.5428   -8.3026    0.0000 C   0  0  0  0  0  0  0  0  0  0  0  0
    6.2573   -7.0651    0.0000 O   0  0  0  0  0  0  0  0  0  0  0  0
    6.9718   -8.3026    0.0000 O   0  0  0  0  0  0  0  0  0  0  0  0
    9.1152   -7.8901    0.0000 C   0  0  0  0  0  0  0  0  0  0  0  0
    9.8297   -8.3026    0.0000 C   0  0  0  0  0  0  0  0  0  0  0  0
    9.1152   -7.0651    0.0000 O   0  0  0  0  0  0  0  0  0  0  0  0
    8.4007   -8.3026    0.0000 O   0  0  0  0  0  0  0  0  0  0  0  0
  1  2  1  0  0  0  0
  3  4  1  0  0  0  0
  3  5  2  0  0  0  0
  3  6  1  0  0  0  0
  1  6  1  0  0  0  0
  7  8  1  0  0  0  0
  7  9  2  0  0  0  0
  7 10  1  0  0  0  0
  1 10  1  0  0  0  0
M  END
>  <cdx:groupId>
3371

>  <cdx:fragmentId>
3349

$$$$
