2227.cdx
  Mrv1902 05222410262D          

 15 16  0  0  0  0            999 V2000
    7.3167   -5.3831    0.0000 C   0  0  0  0  0  0  0  0  0  0  0  0
    8.7456   -5.3831    0.0000 C   0  0  0  0  0  0  0  0  0  0  0  0
    8.0312   -5.7956    0.0000 C   0  0  0  0  0  0  0  0  0  0  0  0
    5.1733   -6.6206    0.0000 C   0  0  0  0  0  0  0  0  0  0  0  0
    8.0312   -9.0956    0.0000 C   0  0  0  0  0  0  0  0  0  0  0  0
    6.6022   -6.6206    0.0000 C   0  0  0  0  0  0  0  0  0  0  0  0
    5.8877   -7.0331    0.0000 C   0  0  0  0  0  0  0  0  0  0  0  0
    5.8877   -7.8581    0.0000 C   0  0  0  0  0  0  0  0  0  0  0  0
    6.6022   -8.2706    0.0000 C   0  0  0  0  0  0  0  0  0  0  0  0
    8.0312   -6.6206    0.0000 C   0  0  1  0  0  0  0  0  0  0  0  0
    7.3167   -7.0331    0.0000 C   0  0  0  0  0  0  0  0  0  0  0  0
    7.3167   -7.8581    0.0000 C   0  0  0  0  0  0  0  0  0  0  0  0
    8.0312   -8.2706    0.0000 C   0  0  0  0  0  0  0  0  0  0  0  0
    8.7456   -7.8581    0.0000 C   0  0  0  0  0  0  0  0  0  0  0  0
    8.7456   -7.0331    0.0000 C   0  0  0  0  0  0  0  0  0  0  0  0
  3  1  1  0  0  0  0
  3  2  1  0  0  0  0
 10  3  1  6  0  0  0
  7  4  1  0  0  0  0
 13  5  1  6  0  0  0
  6 11  1  0  0  0  0
  7  6  2  0  0  0  0
  8  7  1  0  0  0  0
  9  8  1  0  0  0  0
 12  9  1  0  0  0  0
 10 15  1  0  0  0  0
 11 10  1  0  0  0  0
 12 11  1  0  0  0  0
 13 12  2  0  0  0  0
 14 13  1  0  0  0  0
 15 14  1  0  0  0  0
M  END
>  <cdx:fragmentId>
5

$$$$
