44222875.cdx
  Mrv1902 05222410282D          

 18 20  0  0  0  0            999 V2000
    9.4860  -14.8363    0.0000 O   0  0  0  0  0  0  0  0  0  0  0  0
    8.8647  -15.3791    0.0000 C   0  0  0  0  0  0  0  0  0  0  0  0
    8.1565  -14.9560    0.0000 C   0  0  0  0  0  0  0  0  0  0  0  0
    8.3401  -14.1517    0.0000 C   0  0  0  0  0  0  0  0  0  0  0  0
    9.1617  -14.0777    0.0000 C   0  0  0  0  0  0  0  0  0  0  0  0
    5.6646  -14.0777    0.0000 C   0  0  0  0  0  0  0  0  0  0  0  0
    5.3404  -14.8363    0.0000 C   0  0  0  0  0  0  0  0  0  0  0  0
    5.9617  -15.3791    0.0000 C   0  0  0  0  0  0  0  0  0  0  0  0
    6.6699  -14.9560    0.0000 C   0  0  1  0  0  0  0  0  0  0  0  0
    7.4132  -15.3139    0.0000 C   0  0  2  0  0  0  0  0  0  0  0  0
    7.8257  -13.5066    0.0000 C   0  0  0  0  0  0  0  0  0  0  0  0
    7.0007  -13.5066    0.0000 C   0  0  2  0  0  0  0  0  0  0  0  0
    6.4863  -14.1517    0.0000 C   0  0  0  0  0  0  0  0  0  0  0  0
    6.5882  -12.7922    0.0000 C   0  0  0  0  0  0  0  0  0  0  0  0
    4.7570  -15.4197    0.0000 C   0  0  0  0  0  0  0  0  0  0  0  0
    4.6259  -14.4238    0.0000 C   0  0  0  0  0  0  0  0  0  0  0  0
    6.6699  -15.7810    0.0000 H   0  0  0  0  0  0  0  0  0  0  0  0
    7.4132  -16.1389    0.0000 O   0  0  0  0  0  0  0  0  0  0  0  0
  1  2  1  0  0  0  0
  2  3  2  0  0  0  0
  3  4  1  0  0  0  0
  4  5  2  0  0  0  0
  1  5  1  0  0  0  0
  6  7  1  0  0  0  0
  7  8  1  0  0  0  0
  8  9  1  0  0  0  0
  9 10  1  0  0  0  0
 11 12  1  0  0  0  0
 12 13  1  0  0  0  0
  6 13  2  0  0  0  0
  9 13  1  0  0  0  0
 10  3  1  0  0  0  0
 11  4  1  0  0  0  0
 12 14  1  6  0  0  0
  7 15  1  0  0  0  0
  7 16  1  0  0  0  0
  9 17  1  1  0  0  0
 10 18  1  1  0  0  0
M  END
>  <cdx:groupId>
153768

>  <cdx:fragmentId>
153728

$$$$
