22294.cdx
  Mrv1902 05222410192D          

  7  7  0  0  0  0            999 V2000
    3.5640   -3.7438    0.0000 O   0  0  0  0  0  0  0  0  0  0  0  0
    3.0496   -3.0988    0.0000 C   0  0  0  0  0  0  0  0  0  0  0  0
    3.2332   -2.2944    0.0000 O   0  0  0  0  0  0  0  0  0  0  0  0
    3.9765   -1.9365    0.0000 C   0  0  0  0  0  0  0  0  0  0  0  0
    4.7198   -2.2944    0.0000 O   0  0  0  0  0  0  0  0  0  0  0  0
    4.9034   -3.0988    0.0000 C   0  0  0  0  0  0  0  0  0  0  0  0
    4.3890   -3.7438    0.0000 C   0  0  0  0  0  0  0  0  0  0  0  0
  1  2  1  0  0  0  0
  2  3  1  0  0  0  0
  3  4  1  0  0  0  0
  4  5  1  0  0  0  0
  5  6  1  0  0  0  0
  6  7  1  0  0  0  0
  1  7  1  0  0  0  0
M  END
>  <cdx:groupId>
23

>  <cdx:fragmentId>
5

$$$$
