2229.cdx
  Mrv1902 05222410192D          

 25 27  0  0  0  0            999 V2000
    9.7035   -6.9784    0.0000 C   0  0  0  0  0  0  0  0  0  0  0  0
    9.7049   -6.1534    0.0000 C   0  0  0  0  0  0  0  0  0  0  0  0
    8.9911   -5.7396    0.0000 C   0  0  0  0  0  0  0  0  0  0  0  0
    8.2759   -6.1509    0.0000 C   0  0  0  0  0  0  0  0  0  0  0  0
    8.2745   -6.9759    0.0000 C   0  0  0  0  0  0  0  0  0  0  0  0
    8.9883   -7.3896    0.0000 C   0  0  0  0  0  0  0  0  0  0  0  0
    7.5622   -5.7372    0.0000 O   0  0  0  0  0  0  0  0  0  0  0  0
    6.8470   -6.1485    0.0000 C   0  0  0  0  0  0  0  0  0  0  0  0
    6.8456   -6.9735    0.0000 C   0  0  0  0  0  0  0  0  0  0  0  0
    7.5594   -7.3872    0.0000 C   0  0  0  0  0  0  0  0  0  0  0  0
    6.1332   -5.7348    0.0000 C   0  0  0  0  0  0  0  0  0  0  0  0
    5.4181   -6.1461    0.0000 C   0  0  0  0  0  0  0  0  0  0  0  0
    5.4167   -6.9711    0.0000 C   0  0  0  0  0  0  0  0  0  0  0  0
    6.1304   -7.3848    0.0000 C   0  0  0  0  0  0  0  0  0  0  0  0
    7.5580   -8.2122    0.0000 O   0  0  0  0  0  0  0  0  0  0  0  0
    8.9869   -8.2146    0.0000 O   0  0  0  0  0  0  0  0  0  0  0  0
   10.4173   -7.3921    0.0000 O   0  0  0  0  0  0  0  0  0  0  0  0
   10.4201   -5.7421    0.0000 O   0  0  0  0  0  0  0  0  0  0  0  0
    4.7043   -5.7324    0.0000 O   0  0  0  0  0  0  0  0  0  0  0  0
    4.7015   -7.3824    0.0000 O   0  0  0  0  0  0  0  0  0  0  0  0
    3.9891   -6.1436    0.0000 C   0  0  0  0  0  0  0  0  0  0  0  0
    3.9877   -6.9686    0.0000 C   0  0  0  0  0  0  0  0  0  0  0  0
    9.7007   -8.6284    0.0000 C   0  0  0  0  0  0  0  0  0  0  0  0
   11.1324   -6.9808    0.0000 C   0  0  0  0  0  0  0  0  0  0  0  0
   11.1338   -6.1558    0.0000 C   0  0  0  0  0  0  0  0  0  0  0  0
  1  2  2  0  0  0  0
  2  3  1  0  0  0  0
  3  4  2  0  0  0  0
  4  5  1  0  0  0  0
  5  6  2  0  0  0  0
  6  1  1  0  0  0  0
  4  7  1  0  0  0  0
  7  8  1  0  0  0  0
  8  9  1  0  0  0  0
  9 10  1  0  0  0  0
 10  5  1  0  0  0  0
  8 11  2  0  0  0  0
 11 12  1  0  0  0  0
 12 13  2  0  0  0  0
 13 14  1  0  0  0  0
 14  9  2  0  0  0  0
 10 15  2  0  0  0  0
  6 16  1  0  0  0  0
  1 17  1  0  0  0  0
  2 18  1  0  0  0  0
 12 19  1  0  0  0  0
 13 20  1  0  0  0  0
 19 21  1  0  0  0  0
 20 22  1  0  0  0  0
 16 23  1  0  0  0  0
 17 24  1  0  0  0  0
 18 25  1  0  0  0  0
M  END
>  <cdx:fragmentId>
5

$$$$
