2230.cdx
  Mrv1902 05222410272D          

 11 11  0  0  0  0            999 V2000
    5.7651   -5.8297    0.0000 C   0  0  0  0  0  0  0  0  0  0  0  0
    6.4795   -6.2422    0.0000 C   0  0  0  0  0  0  0  0  0  0  0  0
    7.1940   -5.8297    0.0000 C   0  0  0  0  0  0  0  0  0  0  0  0
    7.1940   -5.0047    0.0000 C   0  0  0  0  0  0  0  0  0  0  0  0
    6.4795   -4.5922    0.0000 C   0  0  0  0  0  0  0  0  0  0  0  0
    5.7651   -5.0047    0.0000 N   0  0  0  0  0  0  0  0  0  0  0  0
    7.9085   -4.5922    0.0000 C   0  0  0  0  0  0  0  0  0  0  0  0
    7.9085   -3.7672    0.0000 O   0  0  0  0  0  0  0  0  0  0  0  0
    8.6229   -5.0047    0.0000 O   0  0  0  0  0  0  0  0  0  0  0  0
    5.0506   -4.5922    0.0000 C   0  0  0  0  0  0  0  0  0  0  0  0
    9.3374   -4.5922    0.0000 C   0  0  0  0  0  0  0  0  0  0  0  0
  1  2  1  0  0  0  0
  2  3  1  0  0  0  0
  3  4  2  0  0  0  0
  4  5  1  0  0  0  0
  5  6  1  0  0  0  0
  1  6  1  0  0  0  0
  7  8  2  0  0  0  0
  7  9  1  0  0  0  0
  4  7  1  0  0  0  0
  6 10  1  0  0  0  0
  9 11  1  0  0  0  0
M  END
>  <cdx:groupId>
35

>  <cdx:fragmentId>
5

$$$$
