22310.cdx
  Mrv1902 05222410282D          

 12 12  0  0  0  0            999 V2000
    6.1330   -6.7100    0.0000 C   0  0  0  0  0  0  0  0  0  0  0  0
    6.1330   -7.5350    0.0000 C   0  0  1  0  0  0  0  0  0  0  0  0
    6.8475   -7.9475    0.0000 O   0  0  0  0  0  0  0  0  0  0  0  0
    7.5620   -7.5350    0.0000 C   0  0  0  0  0  0  0  0  0  0  0  0
    7.5620   -6.7100    0.0000 C   0  0  2  0  0  0  0  0  0  0  0  0
    6.8475   -6.2975    0.0000 C   0  0  0  0  0  0  0  0  0  0  0  0
    5.4186   -7.9475    0.0000 C   0  0  0  0  0  0  0  0  0  0  0  0
    5.4186   -7.1225    0.0000 C   0  0  0  0  0  0  0  0  0  0  0  0
    8.2764   -7.9475    0.0000 C   0  0  0  0  0  0  0  0  0  0  0  0
    8.2764   -7.1225    0.0000 C   0  0  0  0  0  0  0  0  0  0  0  0
    8.2764   -6.2975    0.0000 O   0  0  0  0  0  0  0  0  0  0  0  0
    5.4186   -6.2975    0.0000 C   0  0  0  0  0  0  0  0  0  0  0  0
  1  2  1  0  0  0  0
  2  3  1  0  0  0  0
  3  4  1  0  0  0  0
  4  5  1  0  0  0  0
  5  6  1  0  0  0  0
  6  1  1  0  0  0  0
  2  7  1  1  0  0  0
  2  8  1  0  0  0  0
  4  9  1  0  0  0  0
  4 10  1  0  0  0  0
  5 11  1  6  0  0  0
  8 12  2  0  0  0  0
M  END
>  <cdx:fragmentId>
79

$$$$
