22312.cdx
  Mrv1902 05222410272D          

 10 10  0  0  0  0            999 V2000
    7.3646   -5.1255    0.0000 C   0  0  0  0  0  0  0  0  0  0  0  0
    6.6485   -4.7159    0.0000 C   0  0  0  0  0  0  0  0  0  0  0  0
    6.6451   -3.8909    0.0000 C   0  0  0  0  0  0  0  0  0  0  0  0
    7.3578   -3.4755    0.0000 C   0  0  2  0  0  0  0  0  0  0  0  0
    8.0740   -3.8851    0.0000 C   0  0  0  0  0  0  0  0  0  0  0  0
    8.0774   -4.7100    0.0000 C   0  0  0  0  0  0  0  0  0  0  0  0
    7.3545   -2.6505    0.0000 C   0  0  0  0  0  0  0  0  0  0  0  0
    8.0672   -2.2351    0.0000 C   0  0  0  0  0  0  0  0  0  0  0  0
    6.6383   -2.2409    0.0000 C   0  0  0  0  0  0  0  0  0  0  0  0
    7.3680   -5.9505    0.0000 C   0  0  0  0  0  0  0  0  0  0  0  0
  1  2  1  0  0  0  0
  2  3  1  0  0  0  0
  3  4  1  0  0  0  0
  4  5  1  0  0  0  0
  5  6  1  0  0  0  0
  1  6  2  0  0  0  0
  7  8  1  0  0  0  0
  7  9  2  0  0  0  0
  4  7  1  1  0  0  0
  1 10  1  0  0  0  0
M  END
>  <cdx:fragmentId>
5

$$$$
