15223506.cdx
  Mrv1902 05222410262D          

 23 25  0  0  0  0            999 V2000
    7.4177  -15.8807    0.0000 C   0  0  0  0  0  0  0  0  0  0  0  0
    7.4177  -15.0557    0.0000 C   0  0  0  0  0  0  0  0  0  0  0  0
    6.7033  -14.6432    0.0000 C   0  0  0  0  0  0  0  0  0  0  0  0
    5.9888  -15.0557    0.0000 C   0  0  0  0  0  0  0  0  0  0  0  0
    5.2743  -14.6432    0.0000 C   0  0  0  0  0  0  0  0  0  0  0  0
    4.5599  -15.0557    0.0000 C   0  0  0  0  0  0  0  0  0  0  0  0
    4.5599  -15.8807    0.0000 C   0  0  0  0  0  0  0  0  0  0  0  0
    5.2743  -16.2932    0.0000 C   0  0  0  0  0  0  0  0  0  0  0  0
    5.9888  -15.8807    0.0000 C   0  0  0  0  0  0  0  0  0  0  0  0
    6.7033  -16.2932    0.0000 O   0  0  0  0  0  0  0  0  0  0  0  0
    6.7033  -13.8182    0.0000 O   0  0  0  0  0  0  0  0  0  0  0  0
    5.2743  -13.8182    0.0000 O   0  0  0  0  0  0  0  0  0  0  0  0
    4.5599  -13.4057    0.0000 C   0  0  0  0  0  0  0  0  0  0  0  0
    8.1322  -14.6432    0.0000 C   0  0  0  0  0  0  0  0  0  0  0  0
    8.8467  -15.0557    0.0000 C   0  0  0  0  0  0  0  0  0  0  0  0
    9.5611  -14.6432    0.0000 C   0  0  0  0  0  0  0  0  0  0  0  0
    9.5611  -13.8182    0.0000 C   0  0  0  0  0  0  0  0  0  0  0  0
    8.8467  -13.4057    0.0000 C   0  0  0  0  0  0  0  0  0  0  0  0
    8.1322  -13.8182    0.0000 C   0  0  0  0  0  0  0  0  0  0  0  0
   10.2756  -15.0557    0.0000 O   0  0  0  0  0  0  0  0  0  0  0  0
   10.9901  -14.6432    0.0000 C   0  0  0  0  0  0  0  0  0  0  0  0
   10.2756  -13.4057    0.0000 O   0  0  0  0  0  0  0  0  0  0  0  0
    3.8454  -16.2932    0.0000 O   0  0  0  0  0  0  0  0  0  0  0  0
  1  2  2  0  0  0  0
  2  3  1  0  0  0  0
  3  4  1  0  0  0  0
  4  5  1  0  0  0  0
  5  6  2  0  0  0  0
  6  7  1  0  0  0  0
  7  8  2  0  0  0  0
  8  9  1  0  0  0  0
  4  9  2  0  0  0  0
  9 10  1  0  0  0  0
  1 10  1  0  0  0  0
  3 11  2  0  0  0  0
 12 13  1  0  0  0  0
  5 12  1  0  0  0  0
 14 15  1  0  0  0  0
 15 16  2  0  0  0  0
 16 17  1  0  0  0  0
 17 18  2  0  0  0  0
 18 19  1  0  0  0  0
 14 19  2  0  0  0  0
 20 21  1  0  0  0  0
 16 20  1  0  0  0  0
 17 22  1  0  0  0  0
  2 14  1  0  0  0  0
  7 23  1  0  0  0  0
M  END
>  <cdx:groupId>
111394

>  <cdx:fragmentId>
111326

$$$$
