2236.cdx
  Mrv1902 05222410282D          

 25 28  0  0  0  0            999 V2000
    5.0029   -7.8094    0.0000 O   0  0  0  0  0  0  0  0  0  0  0  0
    4.5171   -7.1426    0.0000 C   0  0  0  0  0  0  0  0  0  0  0  0
    5.0011   -6.4745    0.0000 O   0  0  0  0  0  0  0  0  0  0  0  0
    5.7860   -6.7284    0.0000 C   0  0  0  0  0  0  0  0  0  0  0  0
    5.7872   -7.5534    0.0000 C   0  0  0  0  0  0  0  0  0  0  0  0
    6.4999   -6.3149    0.0000 C   0  0  0  0  0  0  0  0  0  0  0  0
    7.2150   -6.7264    0.0000 C   0  0  0  0  0  0  0  0  0  0  0  0
    7.2161   -7.5514    0.0000 C   0  0  0  0  0  0  0  0  0  0  0  0
    6.5022   -7.9649    0.0000 C   0  0  0  0  0  0  0  0  0  0  0  0
    7.9311   -7.9630    0.0000 C   0  0  0  0  0  0  0  0  0  0  0  0
    7.9323   -8.7880    0.0000 C   0  0  0  0  0  0  0  0  0  0  0  0
    7.2184   -9.2014    0.0000 C   0  0  0  0  0  0  0  0  0  0  0  0
    7.2195  -10.0264    0.0000 C   0  0  0  0  0  0  0  0  0  0  0  0
    6.5056  -10.4399    0.0000 C   0  0  0  0  0  0  0  0  0  0  0  0
    5.7905  -10.0284    0.0000 C   0  0  0  0  0  0  0  0  0  0  0  0
    5.7894   -9.2034    0.0000 C   0  0  0  0  0  0  0  0  0  0  0  0
    6.5033   -8.7899    0.0000 C   0  0  0  0  0  0  0  0  0  0  0  0
    7.8462   -6.1953    0.0000 C   0  0  0  0  0  0  0  0  0  0  0  0
    8.6219   -6.4764    0.0000 O   0  0  0  0  0  0  0  0  0  0  0  0
    7.7019   -5.3830    0.0000 O   0  0  0  0  0  0  0  0  0  0  0  0
    8.7060   -7.6797    0.0000 N   0  3  0  0  0  0  0  0  0  0  0  0
    9.3387   -8.2092    0.0000 O   0  0  0  0  0  0  0  0  0  0  0  0
    8.8481   -6.8671    0.0000 O   0  5  0  0  0  0  0  0  0  0  0  0
    7.9345  -10.4380    0.0000 O   0  0  0  0  0  0  0  0  0  0  0  0
    7.9356  -11.2630    0.0000 C   0  0  0  0  0  0  0  0  0  0  0  0
  1  2  1  0  0  0  0
  2  3  1  0  0  0  0
  3  4  1  0  0  0  0
  4  5  1  0  0  0  0
  1  5  1  0  0  0  0
  6  7  1  0  0  0  0
  7  8  2  0  0  0  0
  8  9  1  0  0  0  0
  9  5  2  0  0  0  0
  6  4  2  0  0  0  0
 10 11  2  0  0  0  0
 11 12  1  0  0  0  0
 12 13  2  0  0  0  0
 13 14  1  0  0  0  0
 14 15  2  0  0  0  0
 15 16  1  0  0  0  0
 16 17  2  0  0  0  0
 12 17  1  0  0  0  0
 10  8  1  0  0  0  0
 17  9  1  0  0  0  0
 18 19  2  0  0  0  0
 18 20  1  0  0  0  0
  7 18  1  0  0  0  0
 21 22  2  0  0  0  0
 21 23  1  0  0  0  0
 10 21  1  0  0  0  0
 24 25  1  0  0  0  0
 13 24  1  0  0  0  0
M  CHG  2  21   1  23  -1
M  END
>  <cdx:fragmentId>
5

$$$$
