223682.cdx
  Mrv1902 05222410202D          

 16 16  0  0  0  0            999 V2000
    4.6959   -7.1297    0.0000 C   0  0  0  0  0  0  0  0  0  0  0  0
    5.4104   -7.5422    0.0000 C   0  0  0  0  0  0  0  0  0  0  0  0
    6.1249   -7.9547    0.0000 C   0  0  0  0  0  0  0  0  0  0  0  0
    6.8393   -7.5422    0.0000 C   0  0  0  0  0  0  0  0  0  0  0  0
    7.5538   -7.9547    0.0000 C   0  0  0  0  0  0  0  0  0  0  0  0
    6.5374   -8.6691    0.0000 O   0  0  0  0  0  0  0  0  0  0  0  0
    8.2683   -7.5422    0.0000 C   0  0  0  0  0  0  0  0  0  0  0  0
    8.9828   -7.9547    0.0000 C   0  0  0  0  0  0  0  0  0  0  0  0
    9.6972   -7.5422    0.0000 C   0  0  0  0  0  0  0  0  0  0  0  0
    9.6972   -6.7172    0.0000 C   0  0  0  0  0  0  0  0  0  0  0  0
    8.9828   -6.3047    0.0000 C   0  0  0  0  0  0  0  0  0  0  0  0
    8.2683   -6.7172    0.0000 C   0  0  0  0  0  0  0  0  0  0  0  0
    7.4433   -6.7172    0.0000 C   0  0  0  0  0  0  0  0  0  0  0  0
    7.8558   -6.0027    0.0000 C   0  0  0  0  0  0  0  0  0  0  0  0
    8.9828   -8.7797    0.0000 C   0  0  0  0  0  0  0  0  0  0  0  0
    5.7124   -8.6691    0.0000 C   0  0  0  0  0  0  0  0  0  0  0  0
  1  2  3  0  0  0  0
  2  3  1  0  0  0  0
  3  4  1  0  0  0  0
  4  5  1  0  0  0  0
  3  6  1  0  0  0  0
  7  8  2  0  0  0  0
  8  9  1  0  0  0  0
  9 10  1  0  0  0  0
 10 11  1  0  0  0  0
 11 12  1  0  0  0  0
  7 12  1  0  0  0  0
 12 13  1  0  0  0  0
 12 14  1  0  0  0  0
  8 15  1  0  0  0  0
  5  7  1  0  0  0  0
  3 16  1  0  0  0  0
M  END
>  <cdx:fragmentId>
3419

$$$$
