22376.cdx
  Mrv1902 05222410242D          

 23 26  0  0  0  0            999 V2000
    7.3053   -9.5198    0.0000 C   0  0  0  0  0  0  0  0  0  0  0  0
    8.0146   -9.0985    0.0000 C   0  0  0  0  0  0  0  0  0  0  0  0
    8.7348   -9.5010    0.0000 C   0  0  0  0  0  0  0  0  0  0  0  0
    9.4434   -9.0786    0.0000 C   0  0  0  0  0  0  0  0  0  0  0  0
    9.4319   -8.2536    0.0000 C   0  0  0  0  0  0  0  0  0  0  0  0
    8.7117   -7.8512    0.0000 C   0  0  0  0  0  0  0  0  0  0  0  0
    8.0031   -8.2736    0.0000 C   0  0  0  0  0  0  0  0  0  0  0  0
    7.2832   -7.8706    0.0000 C   0  0  0  0  0  0  0  0  0  0  0  0
    6.5740   -8.2921    0.0000 C   0  0  0  0  0  0  0  0  0  0  0  0
    5.8540   -7.8894    0.0000 C   0  0  0  0  0  0  0  0  0  0  0  0
    5.1452   -8.3116    0.0000 C   0  0  0  0  0  0  0  0  0  0  0  0
    5.1564   -9.1366    0.0000 C   0  0  0  0  0  0  0  0  0  0  0  0
    5.8765   -9.5393    0.0000 C   0  0  0  0  0  0  0  0  0  0  0  0
    5.8877  -10.3642    0.0000 C   0  0  0  0  0  0  0  0  0  0  0  0
    6.6077  -10.7669    0.0000 C   0  0  0  0  0  0  0  0  0  0  0  0
    7.3165  -10.3447    0.0000 N   0  0  0  0  0  0  0  0  0  0  0  0
    6.5852   -9.1171    0.0000 C   0  0  0  0  0  0  0  0  0  0  0  0
    7.2719   -7.0457    0.0000 O   0  0  0  0  0  0  0  0  0  0  0  0
    4.4252   -7.9089    0.0000 O   0  0  0  0  0  0  0  0  0  0  0  0
    3.7164   -8.3311    0.0000 C   0  0  0  0  0  0  0  0  0  0  0  0
   10.1407   -7.8314    0.0000 O   0  0  0  0  0  0  0  0  0  0  0  0
   10.8607   -8.2342    0.0000 C   0  0  0  0  0  0  0  0  0  0  0  0
    5.8427   -7.0645    0.0000 O   0  0  0  0  0  0  0  0  0  0  0  0
  1  2  1  0  0  0  0
  2  3  1  0  0  0  0
  3  4  2  0  0  0  0
  4  5  1  0  0  0  0
  5  6  2  0  0  0  0
  6  7  1  0  0  0  0
  7  8  1  0  0  0  0
  8  9  1  0  0  0  0
  9 10  1  0  0  0  0
 10 11  2  0  0  0  0
 11 12  1  0  0  0  0
 12 13  2  0  0  0  0
 13 14  1  0  0  0  0
 14 15  2  0  0  0  0
 15 16  1  0  0  0  0
  1 16  2  0  0  0  0
  1 17  1  0  0  0  0
 17  9  2  0  0  0  0
  2  7  2  0  0  0  0
 13 17  1  0  0  0  0
  8 18  2  0  0  0  0
 19 20  1  0  0  0  0
 11 19  1  0  0  0  0
 21 22  1  0  0  0  0
  5 21  1  0  0  0  0
 10 23  1  0  0  0  0
M  END
>  <cdx:groupId>
209419

>  <cdx:fragmentId>
209350

$$$$
