22383.cdx
  Mrv1902 05222410212D          

  9  8  0  0  0  0            999 V2000
    5.4202   -4.1121    0.0000 S   0  0  0  0  0  0  0  0  0  0  0  0
    4.7058   -3.6996    0.0000 S   0  0  0  0  0  0  0  0  0  0  0  0
    6.1347   -3.6996    0.0000 S   0  0  0  0  0  0  0  0  0  0  0  0
    3.9913   -4.1121    0.0000 C   0  0  0  0  0  0  0  0  0  0  0  0
    3.2768   -3.6996    0.0000 C   0  0  0  0  0  0  0  0  0  0  0  0
    2.5624   -4.1121    0.0000 C   0  0  0  0  0  0  0  0  0  0  0  0
    6.8492   -4.1121    0.0000 C   0  0  0  0  0  0  0  0  0  0  0  0
    7.5637   -3.6996    0.0000 C   0  0  0  0  0  0  0  0  0  0  0  0
    8.2781   -4.1121    0.0000 C   0  0  0  0  0  0  0  0  0  0  0  0
  1  2  1  0  0  0  0
  1  3  1  0  0  0  0
  4  5  1  0  0  0  0
  5  6  1  0  0  0  0
  2  4  1  0  0  0  0
  7  8  1  0  0  0  0
  8  9  1  0  0  0  0
  3  7  1  0  0  0  0
M  END
>  <cdx:groupId>
28

>  <cdx:fragmentId>
11

$$$$
