22392.cdx
  Mrv1902 05222410222D          

 27 28  0  0  0  0            999 V2000
    8.5363   -7.8325    0.0000 C   0  0  1  0  0  0  0  0  0  0  0  0
    7.1018  -11.1301    0.0000 C   0  0  0  0  0  0  0  0  0  0  0  0
    4.9660   -6.5890    0.0000 C   0  0  0  0  0  0  0  0  0  0  0  0
    4.9646   -7.4140    0.0000 C   0  0  0  0  0  0  0  0  0  0  0  0
    5.6784   -7.8277    0.0000 C   0  0  0  0  0  0  0  0  0  0  0  0
    6.3935   -7.4164    0.0000 C   0  0  0  0  0  0  0  0  0  0  0  0
    7.1073   -7.8301    0.0000 C   0  0  0  0  0  0  0  0  0  0  0  0
    7.8225   -7.4188    0.0000 C   0  0  0  0  0  0  0  0  0  0  0  0
    7.8239   -6.5938    0.0000 C   0  0  0  0  0  0  0  0  0  0  0  0
    7.1101   -6.1801    0.0000 C   0  0  0  0  0  0  0  0  0  0  0  0
    6.3949   -6.5914    0.0000 C   0  0  0  0  0  0  0  0  0  0  0  0
    5.6811   -6.1777    0.0000 O   0  0  0  0  0  0  0  0  0  0  0  0
    4.2522   -6.1753    0.0000 O   0  0  0  0  0  0  0  0  0  0  0  0
    8.5390   -6.1825    0.0000 O   0  0  0  0  0  0  0  0  0  0  0  0
    8.5404   -5.3575    0.0000 C   0  0  0  0  0  0  0  0  0  0  0  0
    9.9625   -9.4848    0.0000 O   0  0  0  0  0  0  0  0  0  0  0  0
    9.2514   -7.4212    0.0000 O   0  0  0  0  0  0  0  0  0  0  0  0
    9.9638   -8.6598    0.0000 C   0  0  0  0  0  0  0  0  0  0  0  0
    9.2473   -9.8962    0.0000 C   0  0  0  0  0  0  0  0  0  0  0  0
    9.2487   -9.0712    0.0000 C   0  0  0  0  0  0  0  0  0  0  0  0
    8.5349   -8.6575    0.0000 C   0  0  2  0  0  0  0  0  0  0  0  0
    6.3894   -9.8914    0.0000 C   0  0  0  0  0  0  0  0  0  0  0  0
    7.8197   -9.0688    0.0000 O   0  0  0  0  0  0  0  0  0  0  0  0
    8.5321  -10.3075    0.0000 O   0  0  0  0  0  0  0  0  0  0  0  0
    7.8156  -11.5438    0.0000 C   0  0  0  0  0  0  0  0  0  0  0  0
    7.1032  -10.3051    0.0000 C   0  0  0  0  0  0  0  0  0  0  0  0
    7.8184   -9.8938    0.0000 C   0  0  0  0  0  0  0  0  0  0  0  0
 21 23  1  6  0  0  0
 20 16  1  0  0  0  0
 20 18  1  0  0  0  0
 20 19  1  0  0  0  0
 21 20  1  0  0  0  0
 26 22  1  0  0  0  0
 27 23  1  0  0  0  0
 27 24  2  0  0  0  0
 26  2  2  0  0  0  0
 27 26  1  0  0  0  0
  1 21  1  0  0  0  0
  2 25  1  0  0  0  0
  3  4  1  0  0  0  0
  4  5  2  0  0  0  0
  5  6  1  0  0  0  0
  6  7  1  0  0  0  0
  7  8  2  0  0  0  0
  8  9  1  0  0  0  0
  9 10  2  0  0  0  0
 10 11  1  0  0  0  0
  6 11  2  0  0  0  0
 11 12  1  0  0  0  0
  3 12  1  0  0  0  0
  3 13  2  0  0  0  0
 14 15  1  0  0  0  0
  9 14  1  0  0  0  0
  1  8  1  0  0  0  0
  1 17  1  1  0  0  0
M  END
>  <cdx:fragmentId>
35849

$$$$
