2239.cdx
  Mrv1902 05222410192D          

 10 10  0  0  0  0            999 V2000
    5.8195   -7.2188    0.0000 C   0  0  0  0  0  0  0  0  0  0  0  0
    5.8195   -8.0437    0.0000 C   0  0  0  0  0  0  0  0  0  0  0  0
    6.5340   -8.4563    0.0000 C   0  0  0  0  0  0  0  0  0  0  0  0
    7.2485   -8.0437    0.0000 C   0  0  0  0  0  0  0  0  0  0  0  0
    7.2485   -7.2188    0.0000 C   0  0  0  0  0  0  0  0  0  0  0  0
    6.5340   -6.8062    0.0000 C   0  0  0  0  0  0  0  0  0  0  0  0
    5.1051   -6.8062    0.0000 O   0  0  0  0  0  0  0  0  0  0  0  0
    7.9629   -8.4563    0.0000 O   0  0  0  0  0  0  0  0  0  0  0  0
    7.9629   -6.8062    0.0000 O   0  0  0  0  0  0  0  0  0  0  0  0
    5.1051   -8.4563    0.0000 O   0  0  0  0  0  0  0  0  0  0  0  0
  1  2  2  0  0  0  0
  2  3  1  0  0  0  0
  3  4  2  0  0  0  0
  4  5  1  0  0  0  0
  5  6  2  0  0  0  0
  6  1  1  0  0  0  0
  1  7  1  0  0  0  0
  4  8  1  0  0  0  0
  5  9  1  0  0  0  0
  2 10  1  0  0  0  0
M  END
>  <cdx:fragmentId>
5

$$$$
