2244.cdx
  Mrv1902 05222410232D          

 13 13  0  0  0  0            999 V2000
    5.0175   -5.0267    0.0000 C   0  0  0  0  0  0  0  0  0  0  0  0
    5.0175   -4.2017    0.0000 C   0  0  0  0  0  0  0  0  0  0  0  0
    5.7320   -3.7892    0.0000 C   0  0  0  0  0  0  0  0  0  0  0  0
    5.7320   -2.9642    0.0000 C   0  0  0  0  0  0  0  0  0  0  0  0
    5.0175   -2.5517    0.0000 C   0  0  0  0  0  0  0  0  0  0  0  0
    4.3030   -2.9642    0.0000 C   0  0  0  0  0  0  0  0  0  0  0  0
    4.3030   -3.7892    0.0000 C   0  0  0  0  0  0  0  0  0  0  0  0
    4.3030   -5.4392    0.0000 O   0  0  0  0  0  0  0  0  0  0  0  0
    5.7320   -5.4392    0.0000 O   0  0  0  0  0  0  0  0  0  0  0  0
    6.4464   -4.2017    0.0000 O   0  0  0  0  0  0  0  0  0  0  0  0
    7.1609   -3.7892    0.0000 C   0  0  0  0  0  0  0  0  0  0  0  0
    7.1609   -2.9642    0.0000 O   0  0  0  0  0  0  0  0  0  0  0  0
    7.8754   -4.2017    0.0000 C   0  0  0  0  0  0  0  0  0  0  0  0
  1  2  1  0  0  0  0
  2  3  1  0  0  0  0
  3  4  2  0  0  0  0
  4  5  1  0  0  0  0
  5  6  2  0  0  0  0
  6  7  1  0  0  0  0
  2  7  2  0  0  0  0
  1  8  2  0  0  0  0
  1  9  1  0  0  0  0
 11 12  2  0  0  0  0
 11 13  1  0  0  0  0
 10 11  1  0  0  0  0
  3 10  1  0  0  0  0
M  END
>  <cdx:groupId>
41

>  <cdx:fragmentId>
5

$$$$
