2249.cdx
  Mrv1902 05222410232D          

 19 19  0  0  0  0            999 V2000
   10.2540   -3.5676    0.0000 C   0  0  0  0  0  0  0  0  0  0  0  0
    9.5395   -3.9801    0.0000 C   0  0  0  0  0  0  0  0  0  0  0  0
   10.2540   -2.7426    0.0000 O   0  0  0  0  0  0  0  0  0  0  0  0
   10.9684   -3.9801    0.0000 N   0  0  0  0  0  0  0  0  0  0  0  0
    8.8250   -3.5676    0.0000 C   0  0  0  0  0  0  0  0  0  0  0  0
    8.8250   -2.7426    0.0000 C   0  0  0  0  0  0  0  0  0  0  0  0
    8.1106   -2.3301    0.0000 C   0  0  0  0  0  0  0  0  0  0  0  0
    7.3961   -2.7426    0.0000 C   0  0  0  0  0  0  0  0  0  0  0  0
    7.3961   -3.5676    0.0000 C   0  0  0  0  0  0  0  0  0  0  0  0
    8.1106   -3.9801    0.0000 C   0  0  0  0  0  0  0  0  0  0  0  0
    6.6816   -2.3301    0.0000 O   0  0  0  0  0  0  0  0  0  0  0  0
    5.9671   -2.7426    0.0000 C   0  0  0  0  0  0  0  0  0  0  0  0
    5.2527   -2.3301    0.0000 C   0  0  0  0  0  0  0  0  0  0  0  0
    4.5382   -2.7426    0.0000 C   0  0  0  0  0  0  0  0  0  0  0  0
    3.8237   -2.3301    0.0000 N   0  0  0  0  0  0  0  0  0  0  0  0
    2.3948   -2.3301    0.0000 C   0  0  0  0  0  0  0  0  0  0  0  0
    3.1093   -2.7426    0.0000 C   0  0  0  0  0  0  0  0  0  0  0  0
    3.1093   -3.5676    0.0000 C   0  0  0  0  0  0  0  0  0  0  0  0
    5.2527   -1.5051    0.0000 O   0  0  0  0  0  0  0  0  0  0  0  0
  1  2  1  0  0  0  0
  1  3  2  0  0  0  0
  1  4  1  0  0  0  0
  5  6  1  0  0  0  0
  6  7  2  0  0  0  0
  7  8  1  0  0  0  0
  8  9  2  0  0  0  0
  9 10  1  0  0  0  0
  5 10  2  0  0  0  0
 12 13  1  0  0  0  0
 13 14  1  0  0  0  0
 11 12  1  0  0  0  0
 16 17  1  0  0  0  0
 17 18  1  0  0  0  0
 15 17  1  0  0  0  0
 14 15  1  0  0  0  0
 13 19  1  0  0  0  0
  8 11  1  0  0  0  0
  2  5  1  0  0  0  0
M  END
>  <cdx:groupId>
59

>  <cdx:fragmentId>
35

$$$$
