225228.cdx
  Mrv1902 05222410252D          

 42 46  0  0  0  0            999 V2000
    3.6798   -6.4193    0.0000 O   0  0  0  0  0  0  0  0  0  0  0  0
    2.9500   -5.1908    0.0000 O   0  0  0  0  0  0  0  0  0  0  0  0
    2.9602   -6.0157    0.0000 C   0  0  2  0  0  0  0  0  0  0  0  0
    2.2509   -6.4371    0.0000 C   0  0  1  0  0  0  0  0  0  0  0  0
    1.5314   -6.0335    0.0000 C   0  0  1  0  0  0  0  0  0  0  0  0
    1.5212   -5.2085    0.0000 C   0  0  2  0  0  0  0  0  0  0  0  0
    2.2304   -4.7872    0.0000 C   0  0  2  0  0  0  0  0  0  0  0  0
    2.2202   -3.9622    0.0000 C   0  0  0  0  0  0  0  0  0  0  0  0
    0.8016   -4.8049    0.0000 O   0  0  0  0  0  0  0  0  0  0  0  0
    0.8221   -6.4548    0.0000 O   0  0  0  0  0  0  0  0  0  0  0  0
    2.2612   -7.2620    0.0000 O   0  0  0  0  0  0  0  0  0  0  0  0
   11.5537   -7.5592    0.0000 O   0  0  0  0  0  0  0  0  0  0  0  0
    8.7063   -8.4196    0.0000 O   0  0  0  0  0  0  0  0  0  0  0  0
   13.6611   -4.6453    0.0000 O   0  0  0  0  0  0  0  0  0  0  0  0
   11.5230   -5.0844    0.0000 C   0  0  0  0  0  0  0  0  0  0  0  0
   12.2323   -4.6630    0.0000 C   0  0  0  0  0  0  0  0  0  0  0  0
   12.9518   -5.0666    0.0000 C   0  0  0  0  0  0  0  0  0  0  0  0
   12.9620   -5.8916    0.0000 C   0  0  0  0  0  0  0  0  0  0  0  0
   12.2527   -6.3129    0.0000 C   0  0  0  0  0  0  0  0  0  0  0  0
   11.5332   -5.9093    0.0000 C   0  0  0  0  0  0  0  0  0  0  0  0
    7.2672   -7.6124    0.0000 O   0  0  0  0  0  0  0  0  0  0  0  0
    5.8486   -8.4551    0.0000 O   0  0  0  0  0  0  0  0  0  0  0  0
    4.4095   -7.6479    0.0000 O   0  0  0  0  0  0  0  0  0  0  0  0
    4.3891   -5.9980    0.0000 C   0  0  0  0  0  0  0  0  0  0  0  0
    5.1086   -6.4016    0.0000 C   0  0  2  0  0  0  0  0  0  0  0  0
    5.1188   -7.2265    0.0000 C   0  0  2  0  0  0  0  0  0  0  0  0
    5.8384   -7.6301    0.0000 C   0  0  1  0  0  0  0  0  0  0  0  0
    6.5477   -7.2088    0.0000 C   0  0  2  0  0  0  0  0  0  0  0  0
    6.5374   -6.3839    0.0000 C   0  0  1  0  0  0  0  0  0  0  0  0
    5.8179   -5.9803    0.0000 O   0  0  0  0  0  0  0  0  0  0  0  0
    7.2467   -5.9625    0.0000 O   0  0  0  0  0  0  0  0  0  0  0  0
   10.1351   -8.4019    0.0000 O   0  0  0  0  0  0  0  0  0  0  0  0
   10.1044   -5.9270    0.0000 O   0  0  0  0  0  0  0  0  0  0  0  0
    9.3951   -6.3484    0.0000 C   0  0  0  0  0  0  0  0  0  0  0  0
    8.6755   -5.9448    0.0000 C   0  0  0  0  0  0  0  0  0  0  0  0
    7.9663   -6.3661    0.0000 C   0  0  0  0  0  0  0  0  0  0  0  0
    7.9765   -7.1911    0.0000 C   0  0  0  0  0  0  0  0  0  0  0  0
    8.6960   -7.5947    0.0000 C   0  0  0  0  0  0  0  0  0  0  0  0
    9.4053   -7.1733    0.0000 C   0  0  0  0  0  0  0  0  0  0  0  0
   10.1249   -7.5769    0.0000 C   0  0  0  0  0  0  0  0  0  0  0  0
   10.8342   -7.1556    0.0000 C   0  0  0  0  0  0  0  0  0  0  0  0
   10.8239   -6.3306    0.0000 C   0  0  0  0  0  0  0  0  0  0  0  0
 41 12  1  0  0  0  0
 38 13  1  0  0  0  0
 42 20  1  0  0  0  0
 17 14  1  0  0  0  0
 20 15  2  0  0  0  0
 16 15  1  0  0  0  0
 17 16  2  0  0  0  0
 18 17  1  0  0  0  0
 19 18  2  0  0  0  0
 20 19  1  0  0  0  0
 36 31  1  0  0  0  0
 29 31  1  1  0  0  0
 28 21  1  6  0  0  0
 27 22  1  1  0  0  0
 26 23  1  6  0  0  0
 25 24  1  1  0  0  0
 24  1  1  0  0  0  0
 30 25  1  0  0  0  0
 26 25  1  0  0  0  0
 27 26  1  0  0  0  0
 28 27  1  0  0  0  0
 29 28  1  0  0  0  0
 30 29  1  0  0  0  0
 40 32  2  0  0  0  0
 42 33  1  0  0  0  0
 34 33  1  0  0  0  0
 39 34  2  0  0  0  0
 35 34  1  0  0  0  0
 36 35  2  0  0  0  0
 37 36  1  0  0  0  0
 38 37  2  0  0  0  0
 39 38  1  0  0  0  0
 40 39  1  0  0  0  0
 41 40  1  0  0  0  0
 42 41  2  0  0  0  0
  2  3  1  0  0  0  0
  3  4  1  0  0  0  0
  4  5  1  0  0  0  0
  5  6  1  0  0  0  0
  6  7  1  0  0  0  0
  2  7  1  0  0  0  0
  7  8  1  6  0  0  0
  6  9  1  1  0  0  0
  5 10  1  6  0  0  0
  4 11  1  6  0  0  0
  3  1  1  1  0  0  0
M  END
>  <cdx:groupId>
28600

>  <cdx:fragmentId>
28513

$$$$
