2253.cdx
  Mrv1902 05222410242D          

 24 26  0  0  0  0            999 V2000
    5.5588   -6.9635    0.0000 O   0  0  0  0  0  0  0  0  0  0  0  0
    4.1299   -7.7885    0.0000 O   0  0  0  0  0  0  0  0  0  0  0  0
    9.8456   -9.4385    0.0000 O   0  0  0  0  0  0  0  0  0  0  0  0
   10.5601   -8.2010    0.0000 C   0  0  0  0  0  0  0  0  0  0  0  0
    9.8456   -7.7885    0.0000 O   0  0  0  0  0  0  0  0  0  0  0  0
    9.1312   -6.5510    0.0000 C   0  0  0  0  0  0  0  0  0  0  0  0
    8.4167   -6.9635    0.0000 O   0  0  0  0  0  0  0  0  0  0  0  0
    4.1299   -9.4385    0.0000 C   0  0  0  0  0  0  0  0  0  0  0  0
    6.9878  -10.2635    0.0000 O   0  0  0  0  0  0  0  0  0  0  0  0
    6.9878   -6.9635    0.0000 O   0  0  0  0  0  0  0  0  0  0  0  0
    6.2733   -8.2010    0.0000 C   0  0  0  0  0  0  0  0  0  0  0  0
    6.9878   -7.7885    0.0000 C   0  0  0  0  0  0  0  0  0  0  0  0
    7.7022   -8.2010    0.0000 C   0  0  0  0  0  0  0  0  0  0  0  0
    8.4167   -7.7885    0.0000 C   0  0  0  0  0  0  0  0  0  0  0  0
    9.1312   -8.2010    0.0000 C   0  0  0  0  0  0  0  0  0  0  0  0
    9.1312   -9.0260    0.0000 C   0  0  0  0  0  0  0  0  0  0  0  0
    8.4167   -9.4385    0.0000 C   0  0  0  0  0  0  0  0  0  0  0  0
    7.7022   -9.0260    0.0000 C   0  0  0  0  0  0  0  0  0  0  0  0
    6.9878   -9.4385    0.0000 C   0  0  0  0  0  0  0  0  0  0  0  0
    6.2733   -9.0260    0.0000 C   0  0  0  0  0  0  0  0  0  0  0  0
    5.5588   -9.4385    0.0000 C   0  0  0  0  0  0  0  0  0  0  0  0
    4.8443   -9.0260    0.0000 C   0  0  0  0  0  0  0  0  0  0  0  0
    4.8443   -8.2010    0.0000 C   0  0  0  0  0  0  0  0  0  0  0  0
    5.5588   -7.7885    0.0000 C   0  0  0  0  0  0  0  0  0  0  0  0
 24  1  1  0  0  0  0
 23  2  1  0  0  0  0
 16  3  1  0  0  0  0
 15  5  1  0  0  0  0
  5  4  1  0  0  0  0
 14  7  1  0  0  0  0
  7  6  1  0  0  0  0
 22  8  1  0  0  0  0
 19  9  2  0  0  0  0
 12 10  2  0  0  0  0
 24 11  2  0  0  0  0
 20 11  1  0  0  0  0
 12 11  1  0  0  0  0
 13 12  1  0  0  0  0
 18 13  2  0  0  0  0
 14 13  1  0  0  0  0
 15 14  2  0  0  0  0
 16 15  1  0  0  0  0
 17 16  2  0  0  0  0
 18 17  1  0  0  0  0
 19 18  1  0  0  0  0
 20 19  1  0  0  0  0
 21 20  2  0  0  0  0
 22 21  1  0  0  0  0
 23 22  2  0  0  0  0
 24 23  1  0  0  0  0
M  END
>  <cdx:fragmentId>
5

$$$$
