225400.cdx
  Mrv1902 05222410242D          

 44 50  0  0  0  0            999 V2000
    6.5722   -4.9965    0.0000 O   0  0  0  0  0  0  0  0  0  0  0  0
    6.8509   -7.1181    0.0000 C   0  0  1  0  0  0  0  0  0  0  0  0
    6.8374   -7.9430    0.0000 C   0  0  1  0  0  0  0  0  0  0  0  0
    7.5451   -8.3671    0.0000 C   0  0  0  0  0  0  0  0  0  0  0  0
    7.5316   -9.1920    0.0000 C   0  0  1  0  0  0  0  0  0  0  0  0
    6.8105   -9.5928    0.0000 C   0  0  1  0  0  0  0  0  0  0  0  0
    6.6258  -10.3969    0.0000 C   0  0  1  0  0  0  0  0  0  0  0  0
    5.8040  -10.4697    0.0000 C   0  0  0  0  0  0  0  0  0  0  0  0
    5.4808   -9.7106    0.0000 C   0  0  1  0  0  0  0  0  0  0  0  0
    5.3225   -8.9010    0.0000 O   0  0  0  0  0  0  0  0  0  0  0  0
    6.1028   -9.1687    0.0000 C   0  0  1  0  0  0  0  0  0  0  0  0
    6.1163   -8.3438    0.0000 C   0  0  2  0  0  0  0  0  0  0  0  0
    5.4087   -7.9197    0.0000 C   0  0  1  0  0  0  0  0  0  0  0  0
    5.4221   -7.0948    0.0000 C   0  0  0  0  0  0  0  0  0  0  0  0
    6.1433   -6.6940    0.0000 C   0  0  1  0  0  0  0  0  0  0  0  0
    6.1325   -5.8300    0.0000 C   0  0  1  0  0  0  0  0  0  0  0  0
    6.9025   -5.3625    0.0000 C   0  0  1  0  0  0  0  0  0  0  0  0
    7.6175   -5.8025    0.0000 O   0  0  0  0  0  0  0  0  0  0  0  0
    7.6139   -6.6670    0.0000 C   0  0  0  0  0  0  0  0  0  0  0  0
    7.1225   -6.6000    0.0000 C   0  0  2  0  0  0  0  0  0  0  0  0
    7.1352   -6.0633    0.0000 C   0  0  0  0  0  0  0  0  0  0  0  0
    6.6805   -5.8438    0.0000 C   0  0  1  0  0  0  0  0  0  0  0  0
    8.2662   -7.9664    0.0000 O   0  0  0  0  0  0  0  0  0  0  0  0
    5.4180   -5.4175    0.0000 C   0  0  0  0  0  0  0  0  0  0  0  0
    6.8239   -8.7679    0.0000 C   0  0  0  0  0  0  0  0  0  0  0  0
    7.4699  -10.0886    0.0000 C   0  0  0  0  0  0  0  0  0  0  0  0
    7.8841   -7.0247    0.0000 O   0  0  0  0  0  0  0  0  0  0  0  0
    6.9032   -4.5624    0.0000 O   0  0  0  0  0  0  0  0  0  0  0  0
    4.6876   -8.3204    0.0000 O   0  0  0  0  0  0  0  0  0  0  0  0
    7.6907  -12.2471    0.0000 O   0  0  0  0  0  0  0  0  0  0  0  0
    6.9830  -11.8229    0.0000 C   0  0  0  0  0  0  0  0  0  0  0  0
    7.1677  -11.0189    0.0000 C   0  0  0  0  0  0  0  0  0  0  0  0
    7.9895  -10.9461    0.0000 C   0  0  0  0  0  0  0  0  0  0  0  0
    8.3127  -11.7051    0.0000 C   0  0  0  0  0  0  0  0  0  0  0  0
    8.2392   -9.6161    0.0000 O   0  0  0  0  0  0  0  0  0  0  0  0
    8.9603   -9.2154    0.0000 C   0  0  0  0  0  0  0  0  0  0  0  0
    9.6680   -9.6395    0.0000 O   0  0  0  0  0  0  0  0  0  0  0  0
    8.9738   -8.3905    0.0000 C   0  0  0  0  0  0  0  0  0  0  0  0
    7.5585   -7.5422    0.0000 H   0  0  0  0  0  0  0  0  0  0  0  0
    4.6921   -9.9527    0.0000 H   0  0  0  0  0  0  0  0  0  0  0  0
    5.4044   -6.3271    0.0000 H   0  0  0  0  0  0  0  0  0  0  0  0
    5.1475   -5.0678    0.0000 O   0  0  0  0  0  0  0  0  0  0  0  0
    5.8620   -3.8303    0.0000 C   0  0  0  0  0  0  0  0  0  0  0  0
    5.8620   -4.6553    0.0000 C   0  0  0  0  0  0  0  0  0  0  0  0
 44  1  1  0  0  0  0
 44 42  2  0  0  0  0
 44 43  1  0  0  0  0
  2  3  1  0  0  0  0
  3  4  1  0  0  0  0
  4  5  1  0  0  0  0
  5  6  1  0  0  0  0
  6  7  1  0  0  0  0
  7  8  1  0  0  0  0
  8  9  1  0  0  0  0
  9 10  1  0  0  0  0
 11 10  1  1  0  0  0
 11 12  1  0  0  0  0
 12 13  1  0  0  0  0
 13 14  1  0  0  0  0
 14 15  1  0  0  0  0
 15 16  1  0  0  0  0
 16 17  1  0  0  0  0
 17 18  1  0  0  0  0
 18 19  1  0  0  0  0
 20 21  1  0  0  0  0
 21 22  1  0  0  0  0
  2 19  1  1  0  0  0
  2 20  1  0  0  0  0
 22 16  1  0  0  0  0
  2 15  1  0  0  0  0
  3 12  1  0  0  0  0
  9 11  1  0  0  0  0
  6 11  1  0  0  0  0
  4 23  2  0  0  0  0
 16 24  1  6  0  0  0
 12 25  1  1  0  0  0
  6 26  1  6  0  0  0
 20 27  1  6  0  0  0
 17 28  1  6  0  0  0
 13 29  1  6  0  0  0
 30 31  1  0  0  0  0
 31 32  2  0  0  0  0
 32 33  1  0  0  0  0
 33 34  2  0  0  0  0
 30 34  1  0  0  0  0
  7 32  1  6  0  0  0
 36 37  2  0  0  0  0
 36 38  1  0  0  0  0
 35 36  1  0  0  0  0
  5 35  1  6  0  0  0
 22  1  1  6  0  0  0
  3 39  1  6  0  0  0
  9 40  1  6  0  0  0
 15 41  1  6  0  0  0
M  END
>  <cdx:fragmentId>
104401

$$$$
