2255.cdx
  Mrv1902 05222410252D          

 25 27  0  0  0  0            999 V2000
    5.7667   -6.9635    0.0000 O   0  0  0  0  0  0  0  0  0  0  0  0
    4.3378   -9.4385    0.0000 O   0  0  0  0  0  0  0  0  0  0  0  0
    3.6233   -8.2010    0.0000 C   0  0  0  0  0  0  0  0  0  0  0  0
    4.3378   -7.7885    0.0000 O   0  0  0  0  0  0  0  0  0  0  0  0
   10.7680   -8.2010    0.0000 C   0  0  0  0  0  0  0  0  0  0  0  0
   10.0535   -7.7885    0.0000 O   0  0  0  0  0  0  0  0  0  0  0  0
    9.3391   -6.5510    0.0000 C   0  0  0  0  0  0  0  0  0  0  0  0
    8.6246   -6.9635    0.0000 O   0  0  0  0  0  0  0  0  0  0  0  0
   10.0535   -9.4385    0.0000 C   0  0  0  0  0  0  0  0  0  0  0  0
    7.1956  -10.2635    0.0000 O   0  0  0  0  0  0  0  0  0  0  0  0
    7.1956   -6.9635    0.0000 O   0  0  0  0  0  0  0  0  0  0  0  0
    6.4812   -8.2010    0.0000 C   0  0  0  0  0  0  0  0  0  0  0  0
    7.1956   -7.7885    0.0000 C   0  0  0  0  0  0  0  0  0  0  0  0
    7.9101   -8.2010    0.0000 C   0  0  0  0  0  0  0  0  0  0  0  0
    8.6246   -7.7885    0.0000 C   0  0  0  0  0  0  0  0  0  0  0  0
    9.3391   -8.2010    0.0000 C   0  0  0  0  0  0  0  0  0  0  0  0
    9.3391   -9.0260    0.0000 C   0  0  0  0  0  0  0  0  0  0  0  0
    8.6246   -9.4385    0.0000 C   0  0  0  0  0  0  0  0  0  0  0  0
    7.9101   -9.0260    0.0000 C   0  0  0  0  0  0  0  0  0  0  0  0
    7.1956   -9.4385    0.0000 C   0  0  0  0  0  0  0  0  0  0  0  0
    6.4812   -9.0260    0.0000 C   0  0  0  0  0  0  0  0  0  0  0  0
    5.7667   -9.4385    0.0000 C   0  0  0  0  0  0  0  0  0  0  0  0
    5.0522   -9.0260    0.0000 C   0  0  0  0  0  0  0  0  0  0  0  0
    5.0522   -8.2010    0.0000 C   0  0  0  0  0  0  0  0  0  0  0  0
    5.7667   -7.7885    0.0000 C   0  0  0  0  0  0  0  0  0  0  0  0
 25  1  1  0  0  0  0
 23  2  1  0  0  0  0
 24  4  1  0  0  0  0
  4  3  1  0  0  0  0
 16  6  1  0  0  0  0
  6  5  1  0  0  0  0
 15  8  1  0  0  0  0
  8  7  1  0  0  0  0
 17  9  1  0  0  0  0
 20 10  2  0  0  0  0
 13 11  2  0  0  0  0
 25 12  2  0  0  0  0
 21 12  1  0  0  0  0
 13 12  1  0  0  0  0
 14 13  1  0  0  0  0
 19 14  2  0  0  0  0
 15 14  1  0  0  0  0
 16 15  2  0  0  0  0
 17 16  1  0  0  0  0
 18 17  2  0  0  0  0
 19 18  1  0  0  0  0
 20 19  1  0  0  0  0
 21 20  1  0  0  0  0
 22 21  2  0  0  0  0
 23 22  1  0  0  0  0
 24 23  2  0  0  0  0
 25 24  1  0  0  0  0
M  END
>  <cdx:fragmentId>
5

$$$$
