22556.cdx
  Mrv1902 05222410222D          

 13 12  0  0  0  0            999 V2000
    2.0855   -2.4060    0.0000 O   0  0  0  0  0  0  0  0  0  0  0  0
    9.2302   -3.2310    0.0000 C   0  0  0  0  0  0  0  0  0  0  0  0
    8.5157   -3.6435    0.0000 C   0  0  0  0  0  0  0  0  0  0  0  0
    7.8013   -3.2310    0.0000 C   0  0  0  0  0  0  0  0  0  0  0  0
    7.0868   -3.6435    0.0000 C   0  0  0  0  0  0  0  0  0  0  0  0
    6.3723   -3.2310    0.0000 C   0  0  0  0  0  0  0  0  0  0  0  0
    5.6579   -3.6435    0.0000 C   0  0  0  0  0  0  0  0  0  0  0  0
    4.9434   -3.2310    0.0000 C   0  0  0  0  0  0  0  0  0  0  0  0
    4.2289   -3.6435    0.0000 C   0  0  0  0  0  0  0  0  0  0  0  0
    3.5144   -3.2310    0.0000 C   0  0  0  0  0  0  0  0  0  0  0  0
    2.8000   -3.6435    0.0000 C   0  0  0  0  0  0  0  0  0  0  0  0
    2.0855   -3.2310    0.0000 C   0  0  0  0  0  0  0  0  0  0  0  0
    1.3710   -3.6435    0.0000 C   0  0  0  0  0  0  0  0  0  0  0  0
 12  1  2  0  0  0  0
  3  2  1  0  0  0  0
  4  3  1  0  0  0  0
  5  4  1  0  0  0  0
  6  5  1  0  0  0  0
  7  6  1  0  0  0  0
  8  7  1  0  0  0  0
  9  8  1  0  0  0  0
 10  9  1  0  0  0  0
 11 10  1  0  0  0  0
 12 11  1  0  0  0  0
 13 12  1  0  0  0  0
M  END
>  <cdx:groupId>
40

>  <cdx:fragmentId>
5

$$$$
