225582.cdx
  Mrv1902 05222410212D          

 31 33  0  0  0  0            999 V2000
    5.7521  -11.5026    0.0000 C   0  0  0  0  0  0  0  0  0  0  0  0
    5.0377  -11.0901    0.0000 C   0  0  0  0  0  0  0  0  0  0  0  0
    4.3232  -11.5026    0.0000 C   0  0  0  0  0  0  0  0  0  0  0  0
    3.6087  -11.0901    0.0000 C   0  0  0  0  0  0  0  0  0  0  0  0
    3.6087  -10.2651    0.0000 C   0  0  0  0  0  0  0  0  0  0  0  0
    4.3232   -9.8526    0.0000 C   0  0  0  0  0  0  0  0  0  0  0  0
    5.0377  -10.2651    0.0000 C   0  0  0  0  0  0  0  0  0  0  0  0
    5.7521  -12.3276    0.0000 O   0  0  0  0  0  0  0  0  0  0  0  0
    6.4666  -11.0901    0.0000 O   0  0  0  0  0  0  0  0  0  0  0  0
    7.1811  -11.5026    0.0000 C   0  0  0  0  0  0  0  0  0  0  0  0
    8.3805  -10.4227    0.0000 O   0  0  0  0  0  0  0  0  0  0  0  0
    7.8955  -11.0901    0.0000 C   0  0  1  0  0  0  0  0  0  0  0  0
    8.3805  -11.7576    0.0000 C   0  0  2  0  0  0  0  0  0  0  0  0
    9.1651  -11.5026    0.0000 C   0  0  1  0  0  0  0  0  0  0  0  0
    9.1651  -10.6776    0.0000 C   0  0  1  0  0  0  0  0  0  0  0  0
    7.1811  -10.6776    0.0000 O   0  0  0  0  0  0  0  0  0  0  0  0
    7.8955   -9.4401    0.0000 O   0  0  0  0  0  0  0  0  0  0  0  0
    7.1811   -9.8526    0.0000 C   0  0  1  0  0  0  0  0  0  0  0  0
    6.4666   -9.4401    0.0000 C   0  0  1  0  0  0  0  0  0  0  0  0
    6.4666   -8.6151    0.0000 C   0  0  2  0  0  0  0  0  0  0  0  0
    7.1811   -8.2026    0.0000 C   0  0  1  0  0  0  0  0  0  0  0  0
    7.8955   -8.6151    0.0000 C   0  0  1  0  0  0  0  0  0  0  0  0
    8.6100   -8.2026    0.0000 C   0  0  0  0  0  0  0  0  0  0  0  0
    9.3245   -8.6151    0.0000 O   0  0  0  0  0  0  0  0  0  0  0  0
    7.1811   -7.3776    0.0000 O   0  0  0  0  0  0  0  0  0  0  0  0
    5.7521   -8.2026    0.0000 O   0  0  0  0  0  0  0  0  0  0  0  0
    5.7521   -9.8526    0.0000 O   0  0  0  0  0  0  0  0  0  0  0  0
    9.8325  -10.1927    0.0000 C   0  0  0  0  0  0  0  0  0  0  0  0
   10.5862  -10.5283    0.0000 O   0  0  0  0  0  0  0  0  0  0  0  0
    9.8325  -11.9876    0.0000 O   0  0  0  0  0  0  0  0  0  0  0  0
    8.1255  -12.5422    0.0000 O   0  0  0  0  0  0  0  0  0  0  0  0
  1  2  1  0  0  0  0
  2  3  1  0  0  0  0
  3  4  2  0  0  0  0
  4  5  1  0  0  0  0
  5  6  2  0  0  0  0
  6  7  1  0  0  0  0
  2  7  2  0  0  0  0
  1  8  2  0  0  0  0
  1  9  1  0  0  0  0
 11 12  1  0  0  0  0
 12 13  1  0  0  0  0
 13 14  1  0  0  0  0
 14 15  1  0  0  0  0
 11 15  1  0  0  0  0
 17 18  1  0  0  0  0
 18 19  1  0  0  0  0
 19 20  1  0  0  0  0
 20 21  1  0  0  0  0
 21 22  1  0  0  0  0
 17 22  1  0  0  0  0
 23 24  1  0  0  0  0
 22 23  1  1  0  0  0
 21 25  1  6  0  0  0
 20 26  1  1  0  0  0
 19 27  1  6  0  0  0
 18 16  1  6  0  0  0
 12 16  1  6  0  0  0
 28 29  1  0  0  0  0
 15 28  1  6  0  0  0
 14 30  1  1  0  0  0
 13 31  1  6  0  0  0
 12 10  1  1  0  0  0
  9 10  1  0  0  0  0
M  END
>  <cdx:groupId>
42747

>  <cdx:fragmentId>
42687

$$$$
