2256.cdx
  Mrv1902 05222410252D          

 36 39  0  0  0  0            999 V2000
    5.3475   -9.4385    0.0000 O   0  0  0  0  0  0  0  0  0  0  0  0
    4.6282  -11.4988    0.0000 C   0  0  2  0  0  0  0  0  0  0  0  0
    5.3432  -11.9104    0.0000 C   0  0  2  0  0  0  0  0  0  0  0  0
    6.0571  -11.4970    0.0000 C   0  0  1  0  0  0  0  0  0  0  0  0
    6.0561  -10.6720    0.0000 C   0  0  2  0  0  0  0  0  0  0  0  0
    5.3411  -10.2604    0.0000 C   0  0  1  0  0  0  0  0  0  0  0  0
    4.6272  -10.6738    0.0000 O   0  0  0  0  0  0  0  0  0  0  0  0
    3.9142  -11.9122    0.0000 C   0  0  0  0  0  0  0  0  0  0  0  0
    6.7721  -11.9087    0.0000 O   0  0  0  0  0  0  0  0  0  0  0  0
    5.3442  -12.7354    0.0000 O   0  0  0  0  0  0  0  0  0  0  0  0
    6.7701  -10.2587    0.0000 O   0  0  0  0  0  0  0  0  0  0  0  0
    3.9152  -12.7372    0.0000 O   0  0  0  0  0  0  0  0  0  0  0  0
    6.7765   -6.9635    0.0000 O   0  0  0  0  0  0  0  0  0  0  0  0
    4.6331   -8.2010    0.0000 C   0  0  0  0  0  0  0  0  0  0  0  0
    5.3475   -7.7885    0.0000 O   0  0  0  0  0  0  0  0  0  0  0  0
   11.7778   -8.2010    0.0000 C   0  0  0  0  0  0  0  0  0  0  0  0
   11.0633   -7.7885    0.0000 O   0  0  0  0  0  0  0  0  0  0  0  0
   10.3488   -6.5510    0.0000 C   0  0  0  0  0  0  0  0  0  0  0  0
    9.6343   -6.9635    0.0000 O   0  0  0  0  0  0  0  0  0  0  0  0
   11.0633   -9.4385    0.0000 C   0  0  0  0  0  0  0  0  0  0  0  0
    8.2054  -10.2635    0.0000 O   0  0  0  0  0  0  0  0  0  0  0  0
    8.2054   -6.9635    0.0000 O   0  0  0  0  0  0  0  0  0  0  0  0
    7.4909   -8.2010    0.0000 C   0  0  0  0  0  0  0  0  0  0  0  0
    8.2054   -7.7885    0.0000 C   0  0  0  0  0  0  0  0  0  0  0  0
    8.9199   -8.2010    0.0000 C   0  0  0  0  0  0  0  0  0  0  0  0
    9.6343   -7.7885    0.0000 C   0  0  0  0  0  0  0  0  0  0  0  0
   10.3488   -8.2010    0.0000 C   0  0  0  0  0  0  0  0  0  0  0  0
   10.3488   -9.0260    0.0000 C   0  0  0  0  0  0  0  0  0  0  0  0
    9.6343   -9.4385    0.0000 C   0  0  0  0  0  0  0  0  0  0  0  0
    8.9199   -9.0260    0.0000 C   0  0  0  0  0  0  0  0  0  0  0  0
    8.2054   -9.4385    0.0000 C   0  0  0  0  0  0  0  0  0  0  0  0
    7.4909   -9.0260    0.0000 C   0  0  0  0  0  0  0  0  0  0  0  0
    6.7765   -9.4385    0.0000 C   0  0  0  0  0  0  0  0  0  0  0  0
    6.0620   -9.0260    0.0000 C   0  0  0  0  0  0  0  0  0  0  0  0
    6.0620   -8.2010    0.0000 C   0  0  0  0  0  0  0  0  0  0  0  0
    6.7765   -7.7885    0.0000 C   0  0  0  0  0  0  0  0  0  0  0  0
  2  3  1  0  0  0  0
  3  4  1  0  0  0  0
  4  5  1  0  0  0  0
  5  6  1  0  0  0  0
  6  7  1  0  0  0  0
  7  2  1  0  0  0  0
  2  8  1  1  0  0  0
  4  9  1  1  0  0  0
  3 10  1  6  0  0  0
  5 11  1  6  0  0  0
  8 12  1  0  0  0  0
 36 13  1  0  0  0  0
 34  1  1  0  0  0  0
 35 15  1  0  0  0  0
 15 14  1  0  0  0  0
 27 17  1  0  0  0  0
 17 16  1  0  0  0  0
 26 19  1  0  0  0  0
 19 18  1  0  0  0  0
 28 20  1  0  0  0  0
 31 21  2  0  0  0  0
 24 22  2  0  0  0  0
 36 23  2  0  0  0  0
 32 23  1  0  0  0  0
 24 23  1  0  0  0  0
 25 24  1  0  0  0  0
 30 25  2  0  0  0  0
 26 25  1  0  0  0  0
 27 26  2  0  0  0  0
 28 27  1  0  0  0  0
 29 28  2  0  0  0  0
 30 29  1  0  0  0  0
 31 30  1  0  0  0  0
 32 31  1  0  0  0  0
 33 32  2  0  0  0  0
 34 33  1  0  0  0  0
 35 34  2  0  0  0  0
 36 35  1  0  0  0  0
  6  1  1  1  0  0  0
M  END
>  <cdx:fragmentId>
5

$$$$
