225680.cdx
  Mrv1902 05222410182D          

 17 17  0  0  0  0            999 V2000
    8.9931   -7.0623    0.0000 C   0  0  0  0  0  0  0  0  0  0  0  0
    8.2787   -7.4748    0.0000 C   0  0  0  0  0  0  0  0  0  0  0  0
    8.2787   -8.2998    0.0000 C   0  0  0  0  0  0  0  0  0  0  0  0
    7.5642   -8.7123    0.0000 C   0  0  0  0  0  0  0  0  0  0  0  0
    6.8497   -8.2998    0.0000 C   0  0  0  0  0  0  0  0  0  0  0  0
    6.8497   -7.4748    0.0000 C   0  0  0  0  0  0  0  0  0  0  0  0
    6.1353   -7.0623    0.0000 O   0  0  0  0  0  0  0  0  0  0  0  0
    6.1353   -6.2373    0.0000 C   0  0  0  0  0  0  0  0  0  0  0  0
    7.5642   -7.0623    0.0000 C   0  0  0  0  0  0  0  0  0  0  0  0
    7.5642   -9.5373    0.0000 O   0  0  0  0  0  0  0  0  0  0  0  0
    8.2787   -9.9498    0.0000 C   0  0  0  0  0  0  0  0  0  0  0  0
    8.9931   -6.2373    0.0000 O   0  0  0  0  0  0  0  0  0  0  0  0
    9.7076   -7.4748    0.0000 O   0  0  0  0  0  0  0  0  0  0  0  0
    5.4208   -8.2998    0.0000 C   0  0  0  0  0  0  0  0  0  0  0  0
    4.7063   -8.7123    0.0000 C   0  0  0  0  0  0  0  0  0  0  0  0
    5.4208   -7.4748    0.0000 O   0  0  0  0  0  0  0  0  0  0  0  0
    6.1353   -8.7123    0.0000 O   0  0  0  0  0  0  0  0  0  0  0  0
  1  2  1  0  0  0  0
  2  3  1  0  0  0  0
  3  4  2  0  0  0  0
  4  5  1  0  0  0  0
  5  6  2  0  0  0  0
  6  7  1  0  0  0  0
  7  8  1  0  0  0  0
  6  9  1  0  0  0  0
  2  9  2  0  0  0  0
  4 10  1  0  0  0  0
 10 11  1  0  0  0  0
  1 12  2  0  0  0  0
  1 13  1  0  0  0  0
 14 15  1  0  0  0  0
 14 16  2  0  0  0  0
 14 17  1  0  0  0  0
  5 17  1  0  0  0  0
M  END
>  <cdx:fragmentId>
3462

$$$$
