226036.cdx
  Mrv1902 05222410262D          

 29 33  0  0  0  0            999 V2000
    8.9103   -8.8144    0.0000 C   0  0  2  0  0  0  0  0  0  0  0  0
    8.4989   -9.5295    0.0000 C   0  0  0  0  0  0  0  0  0  0  0  0
    8.9125  -10.2433    0.0000 C   0  0  2  0  0  0  0  0  0  0  0  0
    9.7375  -10.2421    0.0000 O   0  0  0  0  0  0  0  0  0  0  0  0
   10.1489   -9.5269    0.0000 C   0  0  0  0  0  0  0  0  0  0  0  0
    9.7353   -8.8131    0.0000 C   0  0  2  0  0  0  0  0  0  0  0  0
   10.1467   -8.0980    0.0000 C   0  0  0  0  0  0  0  0  0  0  0  0
    9.7330   -7.3842    0.0000 C   0  0  0  0  0  0  0  0  0  0  0  0
    8.9080   -7.3854    0.0000 C   0  0  2  0  0  0  0  0  0  0  0  0
    8.4967   -8.1006    0.0000 C   0  0  1  0  0  0  0  0  0  0  0  0
    8.5011  -10.9584    0.0000 C   0  0  0  0  0  0  0  0  0  0  0  0
    7.6807  -11.0459    0.0000 C   0  0  0  0  0  0  0  0  0  0  0  0
    7.5105  -11.8532    0.0000 O   0  0  0  0  0  0  0  0  0  0  0  0
    8.2256  -12.2646    0.0000 C   0  0  0  0  0  0  0  0  0  0  0  0
    8.8378  -11.7116    0.0000 C   0  0  0  0  0  0  0  0  0  0  0  0
   10.9739   -9.5257    0.0000 O   0  0  0  0  0  0  0  0  0  0  0  0
   10.5603   -8.8118    0.0000 H   0  0  0  0  0  0  0  0  0  0  0  0
    8.1134   -9.0279    0.0000 C   0  0  0  0  0  0  0  0  0  0  0  0
    7.5900   -7.8375    0.0000 C   0  0  2  0  0  0  0  0  0  0  0  0
    7.3150   -7.1225    0.0000 C   0  0  2  0  0  0  0  0  0  0  0  0
    9.3205   -6.6710    0.0000 C   0  0  0  0  0  0  0  0  0  0  0  0
    7.9133   -8.6839    0.0000 H   0  0  0  0  0  0  0  0  0  0  0  0
    6.2975   -7.2050    0.0000 C   0  0  0  0  0  0  0  0  0  0  0  0
    7.1015   -6.3256    0.0000 O   0  0  0  0  0  0  0  0  0  0  0  0
    6.3525   -7.9475    0.0000 O   0  0  0  0  0  0  0  0  0  0  0  0
    7.5900   -8.6625    0.0000 H   0  0  0  0  0  0  0  0  0  0  0  0
    5.7141   -6.6216    0.0000 O   0  0  0  0  0  0  0  0  0  0  0  0
    7.8375   -6.0500    0.0000 C   0  0  0  0  0  0  0  0  0  0  0  0
    8.4425   -6.2975    0.0000 C   0  0  0  0  0  0  0  0  0  0  0  0
  1  2  1  0  0  0  0
  2  3  1  0  0  0  0
  3  4  1  0  0  0  0
  4  5  1  0  0  0  0
  5  6  1  0  0  0  0
  6  1  1  0  0  0  0
  6  7  1  0  0  0  0
  7  8  1  0  0  0  0
  8  9  1  0  0  0  0
  9 10  1  0  0  0  0
 10  1  1  0  0  0  0
  3 11  1  6  0  0  0
 11 12  2  0  0  0  0
 12 13  1  0  0  0  0
 13 14  1  0  0  0  0
 14 15  2  0  0  0  0
 15 11  1  0  0  0  0
  5 16  2  0  0  0  0
  6 17  1  6  0  0  0
  1 18  1  6  0  0  0
 10 19  1  0  0  0  0
  9 20  1  0  0  0  0
  9 21  1  1  0  0  0
 10 22  1  1  0  0  0
 20 23  1  0  0  0  0
 20 24  1  6  0  0  0
 19 25  1  0  0  0  0
 19 26  1  1  0  0  0
 23 25  1  0  0  0  0
 23 27  2  0  0  0  0
 20 28  1  0  0  0  0
 19 29  1  0  0  0  0
 28 29  2  0  0  0  0
M  END
>  <cdx:fragmentId>
27358

$$$$
