2263.cdx
  Mrv1902 05222410222D          

  9 10  0  0  0  0            999 V2000
    5.3525   -6.8475    0.0000 C   0  0  0  0  0  0  0  0  0  0  0  0
    5.3525   -7.6725    0.0000 C   0  0  0  0  0  0  0  0  0  0  0  0
    5.9359   -8.2559    0.0000 C   0  0  0  0  0  0  0  0  0  0  0  0
    6.7609   -8.2559    0.0000 C   0  0  0  0  0  0  0  0  0  0  0  0
    7.3442   -7.6725    0.0000 C   0  0  0  0  0  0  0  0  0  0  0  0
    7.3442   -6.8475    0.0000 C   0  0  0  0  0  0  0  0  0  0  0  0
    6.7609   -6.2641    0.0000 C   0  0  0  0  0  0  0  0  0  0  0  0
    5.9359   -6.2641    0.0000 C   0  0  0  0  0  0  0  0  0  0  0  0
    8.0587   -7.2600    0.0000 O   0  0  0  0  0  0  0  0  0  0  0  0
  1  2  1  0  0  0  0
  2  3  1  0  0  0  0
  3  4  1  0  0  0  0
  4  5  1  0  0  0  0
  5  6  1  0  0  0  0
  6  7  1  0  0  0  0
  7  8  1  0  0  0  0
  8  1  1  0  0  0  0
  6  9  1  0  0  0  0
  5  9  1  0  0  0  0
M  END
>  <cdx:fragmentId>
5

$$$$
