226486.cdx
  Mrv1902 05222410242D          

 14 14  0  0  0  0            999 V2000
    6.1195   -6.7478    0.0000 C   0  0  0  0  0  0  0  0  0  0  0  0
    6.1195   -7.5728    0.0000 C   0  0  0  0  0  0  0  0  0  0  0  0
    6.8340   -7.9853    0.0000 C   0  0  0  0  0  0  0  0  0  0  0  0
    7.5485   -7.5728    0.0000 C   0  0  0  0  0  0  0  0  0  0  0  0
    7.5485   -6.7478    0.0000 C   0  0  0  0  0  0  0  0  0  0  0  0
    6.8340   -6.3353    0.0000 C   0  0  0  0  0  0  0  0  0  0  0  0
    5.4051   -6.3353    0.0000 O   0  0  0  0  0  0  0  0  0  0  0  0
    8.2630   -7.9853    0.0000 C   0  0  0  0  0  0  0  0  0  0  0  0
    8.9774   -7.5728    0.0000 C   0  0  0  0  0  0  0  0  0  0  0  0
    9.6919   -7.9853    0.0000 C   0  0  0  0  0  0  0  0  0  0  0  0
    6.8340   -5.5103    0.0000 O   0  0  0  0  0  0  0  0  0  0  0  0
    6.1195   -5.0978    0.0000 C   0  0  0  0  0  0  0  0  0  0  0  0
    5.4051   -7.9853    0.0000 O   0  0  0  0  0  0  0  0  0  0  0  0
    4.6906   -7.5728    0.0000 C   0  0  0  0  0  0  0  0  0  0  0  0
  1  2  1  0  0  0  0
  2  3  2  0  0  0  0
  3  4  1  0  0  0  0
  4  5  2  0  0  0  0
  5  6  1  0  0  0  0
  1  6  2  0  0  0  0
  1  7  1  0  0  0  0
  8  9  1  0  0  0  0
  9 10  2  0  0  0  0
  4  8  1  0  0  0  0
 11 12  1  0  0  0  0
  6 11  1  0  0  0  0
 13 14  1  0  0  0  0
  2 13  1  0  0  0  0
M  END
>  <cdx:fragmentId>
3636

$$$$
