2265.cdx
  Mrv1902 05222410212D          

 21 23  0  0  0  0            999 V2000
    4.4789   -9.5906    0.0000 C   0  0  0  0  0  0  0  0  0  0  0  0
    4.4789  -10.4156    0.0000 C   0  0  0  0  0  0  0  0  0  0  0  0
    5.1934  -10.8281    0.0000 C   0  0  0  0  0  0  0  0  0  0  0  0
    5.9078  -10.4156    0.0000 C   0  0  0  0  0  0  0  0  0  0  0  0
    5.9078   -9.5906    0.0000 C   0  0  0  0  0  0  0  0  0  0  0  0
    5.1934   -9.1781    0.0000 C   0  0  0  0  0  0  0  0  0  0  0  0
    6.6223  -10.8281    0.0000 C   0  0  0  0  0  0  0  0  0  0  0  0
    7.3368  -10.4156    0.0000 C   0  0  0  0  0  0  0  0  0  0  0  0
    7.3368   -9.5906    0.0000 C   0  0  0  0  0  0  0  0  0  0  0  0
    6.6223   -9.1781    0.0000 C   0  0  0  0  0  0  0  0  0  0  0  0
    8.0513   -9.1781    0.0000 C   0  0  0  0  0  0  0  0  0  0  0  0
    8.0513   -8.3531    0.0000 C   0  0  0  0  0  0  0  0  0  0  0  0
    7.3368   -7.9406    0.0000 C   0  0  0  0  0  0  0  0  0  0  0  0
    6.6223   -8.3531    0.0000 C   0  0  0  0  0  0  0  0  0  0  0  0
    8.7657   -7.9406    0.0000 C   0  0  0  0  0  0  0  0  0  0  0  0
    8.7657   -7.1156    0.0000 C   0  0  0  0  0  0  0  0  0  0  0  0
    9.4802   -8.3531    0.0000 C   0  0  0  0  0  0  0  0  0  0  0  0
    7.3368   -7.1156    0.0000 O   0  0  0  0  0  0  0  0  0  0  0  0
    5.9078   -7.9406    0.0000 O   0  0  0  0  0  0  0  0  0  0  0  0
    4.7809  -11.5426    0.0000 C   0  0  0  0  0  0  0  0  0  0  0  0
    5.6059  -11.5426    0.0000 C   0  0  0  0  0  0  0  0  0  0  0  0
  1  2  1  0  0  0  0
  2  3  1  0  0  0  0
  3  4  1  0  0  0  0
  4  5  2  0  0  0  0
  5  6  1  0  0  0  0
  6  1  2  0  0  0  0
  4  7  1  0  0  0  0
  7  8  2  0  0  0  0
  8  9  1  0  0  0  0
  9 10  2  0  0  0  0
 10  5  1  0  0  0  0
  9 11  1  0  0  0  0
 11 12  2  0  0  0  0
 12 13  1  0  0  0  0
 13 14  1  0  0  0  0
 14 10  1  0  0  0  0
 12 15  1  0  0  0  0
 15 16  1  0  0  0  0
 15 17  1  0  0  0  0
 13 18  2  0  0  0  0
 14 19  2  0  0  0  0
  3 20  1  0  0  0  0
  3 21  1  0  0  0  0
M  END
>  <cdx:fragmentId>
5

$$$$
