2266.cdx
  Mrv1902 05222410212D          

 13 12  0  0  0  0            999 V2000
    7.8863   -5.3702    0.0000 C   0  0  0  0  0  0  0  0  0  0  0  0
    7.1718   -5.7827    0.0000 C   0  0  0  0  0  0  0  0  0  0  0  0
    6.4573   -5.3702    0.0000 C   0  0  0  0  0  0  0  0  0  0  0  0
    5.7428   -5.7827    0.0000 C   0  0  0  0  0  0  0  0  0  0  0  0
    5.0284   -5.3702    0.0000 C   0  0  0  0  0  0  0  0  0  0  0  0
    4.3139   -5.7827    0.0000 C   0  0  0  0  0  0  0  0  0  0  0  0
    3.5994   -5.3702    0.0000 C   0  0  0  0  0  0  0  0  0  0  0  0
    2.8850   -5.7827    0.0000 C   0  0  0  0  0  0  0  0  0  0  0  0
    2.1705   -5.3702    0.0000 C   0  0  0  0  0  0  0  0  0  0  0  0
    7.8863   -4.5452    0.0000 O   0  0  0  0  0  0  0  0  0  0  0  0
    8.6007   -5.7827    0.0000 O   0  0  0  0  0  0  0  0  0  0  0  0
    2.1705   -4.5452    0.0000 O   0  0  0  0  0  0  0  0  0  0  0  0
    1.4560   -5.7827    0.0000 O   0  0  0  0  0  0  0  0  0  0  0  0
  1  2  1  0  0  0  0
  2  3  1  0  0  0  0
  3  4  1  0  0  0  0
  4  5  1  0  0  0  0
  5  6  1  0  0  0  0
  6  7  1  0  0  0  0
  7  8  1  0  0  0  0
  8  9  1  0  0  0  0
  1 10  2  0  0  0  0
  1 11  1  0  0  0  0
  9 12  2  0  0  0  0
  9 13  1  0  0  0  0
M  END
>  <cdx:groupId>
40

>  <cdx:fragmentId>
5

$$$$
