226907.cdx
  Mrv1902 05222410252D          

 31 36  0  0  0  0            999 V2000
    4.9230   -9.2125    0.0000 C   0  0  0  0  0  0  0  0  0  0  0  0
    4.9230  -10.0375    0.0000 C   0  0  0  0  0  0  0  0  0  0  0  0
    5.6375  -10.4500    0.0000 C   0  0  0  0  0  0  0  0  0  0  0  0
    6.3520  -10.0375    0.0000 C   0  0  0  0  0  0  0  0  0  0  0  0
    6.3520   -9.2125    0.0000 C   0  0  0  0  0  0  0  0  0  0  0  0
    5.6375   -8.8000    0.0000 C   0  0  1  0  0  0  0  0  0  0  0  0
    7.0664   -8.8000    0.0000 C   0  0  1  0  0  0  0  0  0  0  0  0
    7.0664   -7.9750    0.0000 C   0  0  0  0  0  0  0  0  0  0  0  0
    6.3520   -7.5625    0.0000 C   0  0  2  0  0  0  0  0  0  0  0  0
    5.6375   -7.9750    0.0000 C   0  0  0  0  0  0  0  0  0  0  0  0
    7.7809   -9.2125    0.0000 C   0  0  2  0  0  0  0  0  0  0  0  0
    8.4954   -8.8000    0.0000 C   0  0  1  0  0  0  0  0  0  0  0  0
    8.4954   -7.9750    0.0000 C   0  0  0  0  0  0  0  0  0  0  0  0
    7.7809   -7.5625    0.0000 C   0  0  0  0  0  0  0  0  0  0  0  0
    4.2086   -8.8000    0.0000 C   0  0  0  0  0  0  0  0  0  0  0  0
    7.0664  -10.4500    0.0000 O   0  0  0  0  0  0  0  0  0  0  0  0
    6.5725   -8.3875    0.0000 C   0  0  1  0  0  0  0  0  0  0  0  0
    7.7825   -6.9025    0.0000 C   0  0  1  0  0  0  0  0  0  0  0  0
    9.1025   -7.7275    0.0000 C   0  0  0  0  0  0  0  0  0  0  0  0
    5.9125   -8.2500    0.0000 N   0  0  0  0  0  0  0  0  0  0  0  0
    5.9125   -7.3425    0.0000 C   0  0  0  0  0  0  0  0  0  0  0  0
    5.6375   -9.6250    0.0000 H   0  0  0  0  0  0  0  0  0  0  0  0
    7.0664   -9.6250    0.0000 H   0  0  0  0  0  0  0  0  0  0  0  0
    7.3975   -8.3875    0.0000 H   0  0  0  0  0  0  0  0  0  0  0  0
    9.2099   -9.2125    0.0000 H   0  0  0  0  0  0  0  0  0  0  0  0
    7.7809  -10.0375    0.0000 O   0  0  0  0  0  0  0  0  0  0  0  0
    5.1980   -6.9300    0.0000 C   0  0  0  0  0  0  0  0  0  0  0  0
    6.1314   -6.7375    0.0000 H   0  0  0  0  0  0  0  0  0  0  0  0
    7.6091   -6.0959    0.0000 O   0  0  0  0  0  0  0  0  0  0  0  0
    9.9021   -7.5246    0.0000 C   0  0  0  0  0  0  0  0  0  0  0  0
    5.1150   -8.5250    0.0000 C   0  0  0  0  0  0  0  0  0  0  0  0
  1  2  1  0  0  0  0
  2  3  1  0  0  0  0
  3  4  1  0  0  0  0
  4  5  1  0  0  0  0
  5  6  1  0  0  0  0
  6  1  1  0  0  0  0
  5  7  1  0  0  0  0
  7  8  1  0  0  0  0
  8  9  1  0  0  0  0
  9 10  1  0  0  0  0
 10  6  1  0  0  0  0
  7 11  1  0  0  0  0
 11 12  1  0  0  0  0
 12 13  1  0  0  0  0
 13 14  1  0  0  0  0
 14  8  1  0  0  0  0
  1 15  1  0  0  0  0
  4 16  1  0  0  0  0
  9 17  1  0  0  0  0
  8 18  1  0  0  0  0
 12 19  1  0  0  0  0
 17  5  1  0  0  0  0
 17 20  1  0  0  0  0
 20 21  1  0  0  0  0
  6 22  1  1  0  0  0
  7 23  1  6  0  0  0
 17 24  1  1  0  0  0
 12 25  1  6  0  0  0
 11 26  1  6  0  0  0
 19 18  1  0  0  0  0
 21 27  1  0  0  0  0
  9 28  1  6  0  0  0
 18 29  1  6  0  0  0
 19 30  2  0  0  0  0
  1 31  1  0  0  0  0
 31 20  1  0  0  0  0
M  END
>  <cdx:fragmentId>
6101

$$$$
