227.cdx
  Mrv1902 05222410232D          

 10 10  0  0  0  0            999 V2000
    7.2339   -4.7431    0.0000 C   0  0  0  0  0  0  0  0  0  0  0  0
    7.2394   -5.5681    0.0000 C   0  0  0  0  0  0  0  0  0  0  0  0
    7.9566   -5.9758    0.0000 C   0  0  0  0  0  0  0  0  0  0  0  0
    7.9621   -6.8008    0.0000 C   0  0  0  0  0  0  0  0  0  0  0  0
    7.2504   -7.2181    0.0000 C   0  0  0  0  0  0  0  0  0  0  0  0
    6.5332   -6.8104    0.0000 C   0  0  0  0  0  0  0  0  0  0  0  0
    6.5277   -5.9854    0.0000 C   0  0  0  0  0  0  0  0  0  0  0  0
    6.5166   -4.3354    0.0000 O   0  0  0  0  0  0  0  0  0  0  0  0
    7.9456   -4.3259    0.0000 O   0  0  0  0  0  0  0  0  0  0  0  0
    8.6683   -5.5586    0.0000 N   0  0  0  0  0  0  0  0  0  0  0  0
  1  2  1  0  0  0  0
  2  3  1  0  0  0  0
  3  4  2  0  0  0  0
  4  5  1  0  0  0  0
  5  6  2  0  0  0  0
  6  7  1  0  0  0  0
  2  7  2  0  0  0  0
  1  8  2  0  0  0  0
  1  9  1  0  0  0  0
  3 10  1  0  0  0  0
M  END
>  <cdx:groupId>
32

>  <cdx:fragmentId>
5

$$$$
