2270.cdx
  Mrv1902 05222410212D          

 29 32  0  0  0  0            999 V2000
    2.2514   -7.8581    0.0000 C   0  0  0  0  0  0  0  0  0  0  0  0
    2.2514   -8.6831    0.0000 C   0  0  0  0  0  0  0  0  0  0  0  0
    2.9659   -9.0956    0.0000 C   0  0  0  0  0  0  0  0  0  0  0  0
    3.6803   -8.6831    0.0000 C   0  0  0  0  0  0  0  0  0  0  0  0
    3.6803   -7.8581    0.0000 C   0  0  0  0  0  0  0  0  0  0  0  0
    2.9659   -7.4456    0.0000 O   0  0  0  0  0  0  0  0  0  0  0  0
    4.3948   -9.0956    0.0000 C   0  0  0  0  0  0  0  0  0  0  0  0
    5.1093   -8.6831    0.0000 C   0  0  0  0  0  0  0  0  0  0  0  0
    5.1093   -7.8581    0.0000 C   0  0  0  0  0  0  0  0  0  0  0  0
    4.3948   -7.4456    0.0000 C   0  0  0  0  0  0  0  0  0  0  0  0
    5.8238   -9.0956    0.0000 C   0  0  0  0  0  0  0  0  0  0  0  0
    6.5382   -8.6831    0.0000 C   0  0  0  0  0  0  0  0  0  0  0  0
    6.5382   -7.8581    0.0000 C   0  0  0  0  0  0  0  0  0  0  0  0
    7.2527   -7.4456    0.0000 C   0  0  0  0  0  0  0  0  0  0  0  0
    7.2527   -6.6206    0.0000 C   0  0  0  0  0  0  0  0  0  0  0  0
    7.9672   -7.8581    0.0000 C   0  0  0  0  0  0  0  0  0  0  0  0
    8.6816   -7.4456    0.0000 C   0  0  0  0  0  0  0  0  0  0  0  0
    8.6816   -6.6206    0.0000 C   0  0  0  0  0  0  0  0  0  0  0  0
    7.9672   -6.2081    0.0000 C   0  0  0  0  0  0  0  0  0  0  0  0
    9.3961   -7.8581    0.0000 C   0  0  0  0  0  0  0  0  0  0  0  0
   10.1106   -7.4456    0.0000 C   0  0  0  0  0  0  0  0  0  0  0  0
   10.1106   -6.6206    0.0000 C   0  0  0  0  0  0  0  0  0  0  0  0
    9.3961   -6.2081    0.0000 O   0  0  0  0  0  0  0  0  0  0  0  0
    1.4264   -7.8581    0.0000 C   0  0  0  0  0  0  0  0  0  0  0  0
    1.8389   -7.1437    0.0000 C   0  0  0  0  0  0  0  0  0  0  0  0
    4.3948   -9.9206    0.0000 O   0  0  0  0  0  0  0  0  0  0  0  0
    5.8238   -9.9206    0.0000 O   0  0  0  0  0  0  0  0  0  0  0  0
   10.6939   -6.0373    0.0000 C   0  0  0  0  0  0  0  0  0  0  0  0
   10.9075   -6.8342    0.0000 C   0  0  0  0  0  0  0  0  0  0  0  0
  1  2  1  0  0  0  0
  2  3  2  0  0  0  0
  3  4  1  0  0  0  0
  4  5  2  0  0  0  0
  5  6  1  0  0  0  0
  6  1  1  0  0  0  0
  4  7  1  0  0  0  0
  7  8  2  0  0  0  0
  8  9  1  0  0  0  0
  9 10  2  0  0  0  0
 10  5  1  0  0  0  0
  8 11  1  0  0  0  0
 11 12  1  0  0  0  0
 12 13  2  0  0  0  0
 13 14  1  0  0  0  0
 14 15  1  0  0  0  0
 14 16  2  0  0  0  0
 16 17  1  0  0  0  0
 17 18  2  0  0  0  0
 18 19  1  0  0  0  0
 19 15  2  0  0  0  0
 17 20  1  0  0  0  0
 20 21  2  0  0  0  0
 21 22  1  0  0  0  0
 22 23  1  0  0  0  0
 23 18  1  0  0  0  0
  1 24  1  0  0  0  0
  1 25  1  0  0  0  0
  7 26  1  0  0  0  0
 11 27  2  0  0  0  0
 22 28  1  0  0  0  0
 22 29  1  0  0  0  0
M  END
>  <cdx:fragmentId>
5

$$$$
