227631.cdx
  Mrv1902 05222410212D          

 34 36  0  0  0  0            999 V2000
    6.8144   -7.0073    0.0000 O   0  0  0  0  0  0  0  0  0  0  0  0
    6.0999   -7.4198    0.0000 C   0  0  1  0  0  0  0  0  0  0  0  0
    6.0999   -8.2448    0.0000 C   0  0  2  0  0  0  0  0  0  0  0  0
    6.8144   -8.6573    0.0000 C   0  0  1  0  0  0  0  0  0  0  0  0
    7.5289   -8.2448    0.0000 C   0  0  2  0  0  0  0  0  0  0  0  0
    7.5289   -7.4198    0.0000 C   0  0  2  0  0  0  0  0  0  0  0  0
    8.2434   -8.6573    0.0000 O   0  0  0  0  0  0  0  0  0  0  0  0
    6.8144   -9.4823    0.0000 O   0  0  0  0  0  0  0  0  0  0  0  0
    5.3855   -8.6573    0.0000 O   0  0  0  0  0  0  0  0  0  0  0  0
    5.3855   -7.0073    0.0000 C   0  0  0  0  0  0  0  0  0  0  0  0
    1.0986   -7.0073    0.0000 O   0  0  0  0  0  0  0  0  0  0  0  0
    1.0986   -8.6573    0.0000 O   0  0  0  0  0  0  0  0  0  0  0  0
    2.5276   -9.4823    0.0000 O   0  0  0  0  0  0  0  0  0  0  0  0
    4.6710   -7.4198    0.0000 O   0  0  0  0  0  0  0  0  0  0  0  0
    3.9565   -6.1823    0.0000 O   0  0  0  0  0  0  0  0  0  0  0  0
    3.2421   -8.2448    0.0000 C   0  0  0  0  0  0  0  0  0  0  0  0
    2.5276   -8.6573    0.0000 C   0  0  0  0  0  0  0  0  0  0  0  0
    1.8131   -8.2448    0.0000 C   0  0  0  0  0  0  0  0  0  0  0  0
    1.8131   -7.4198    0.0000 C   0  0  0  0  0  0  0  0  0  0  0  0
    2.5276   -7.0073    0.0000 C   0  0  0  0  0  0  0  0  0  0  0  0
    3.2421   -7.4198    0.0000 C   0  0  0  0  0  0  0  0  0  0  0  0
   11.8157   -7.4198    0.0000 O   0  0  0  0  0  0  0  0  0  0  0  0
   11.8157   -5.7698    0.0000 O   0  0  0  0  0  0  0  0  0  0  0  0
   10.3868   -4.9448    0.0000 O   0  0  0  0  0  0  0  0  0  0  0  0
    8.9578   -8.2448    0.0000 O   0  0  0  0  0  0  0  0  0  0  0  0
    9.6723   -6.1823    0.0000 C   0  0  0  0  0  0  0  0  0  0  0  0
   10.3868   -5.7698    0.0000 C   0  0  0  0  0  0  0  0  0  0  0  0
   11.1012   -6.1823    0.0000 C   0  0  0  0  0  0  0  0  0  0  0  0
   11.1012   -7.0073    0.0000 C   0  0  0  0  0  0  0  0  0  0  0  0
   10.3868   -7.4198    0.0000 C   0  0  0  0  0  0  0  0  0  0  0  0
    9.6723   -7.0073    0.0000 C   0  0  0  0  0  0  0  0  0  0  0  0
    8.9578   -7.4198    0.0000 C   0  0  0  0  0  0  0  0  0  0  0  0
    8.2434   -7.0073    0.0000 O   0  0  0  0  0  0  0  0  0  0  0  0
    3.9565   -7.0073    0.0000 C   0  0  0  0  0  0  0  0  0  0  0  0
 14 10  1  0  0  0  0
 19 11  1  0  0  0  0
 18 12  1  0  0  0  0
 17 13  1  0  0  0  0
 34 14  1  0  0  0  0
 34 15  2  0  0  0  0
 21 16  2  0  0  0  0
 17 16  1  0  0  0  0
 18 17  2  0  0  0  0
 19 18  1  0  0  0  0
 20 19  2  0  0  0  0
 21 20  1  0  0  0  0
 34 21  1  0  0  0  0
 33 32  1  0  0  0  0
 29 22  1  0  0  0  0
 28 23  1  0  0  0  0
 27 24  1  0  0  0  0
 32 25  2  0  0  0  0
 31 26  2  0  0  0  0
 27 26  1  0  0  0  0
 28 27  2  0  0  0  0
 29 28  1  0  0  0  0
 30 29  2  0  0  0  0
 31 30  1  0  0  0  0
 32 31  1  0  0  0  0
  1  2  1  0  0  0  0
  2  3  1  0  0  0  0
  3  4  1  0  0  0  0
  4  5  1  0  0  0  0
  5  6  1  0  0  0  0
  1  6  1  0  0  0  0
  6 33  1  1  0  0  0
  5  7  1  6  0  0  0
  4  8  1  1  0  0  0
  3  9  1  6  0  0  0
  2 10  1  1  0  0  0
M  END
>  <cdx:fragmentId>
45

$$$$
