227829.cdx
  Mrv1902 05222410212D          

 18 19  0  0  0  0            999 V2000
   16.5202  -14.3809    0.0000 C   0  0  0  0  0  0  0  0  0  0  0  0
   16.2188  -15.1489    0.0000 C   0  0  0  0  0  0  0  0  0  0  0  0
   17.3360  -14.2580    0.0000 C   0  0  0  0  0  0  0  0  0  0  0  0
   14.5565  -12.5801    0.0000 C   0  0  2  0  0  0  0  0  0  0  0  0
   14.4092  -11.7684    0.0000 H   0  0  0  0  0  0  0  0  0  0  0  0
   13.7719  -12.3252    0.0000 C   0  0  0  0  0  0  0  0  0  0  0  0
   13.2870  -12.9926    0.0000 C   0  0  0  0  0  0  0  0  0  0  0  0
   13.7719  -13.6601    0.0000 C   0  0  2  0  0  0  0  0  0  0  0  0
   13.5170  -14.4447    0.0000 C   0  0  0  0  0  0  0  0  0  0  0  0
   14.5565  -13.4051    0.0000 C   0  0  2  0  0  0  0  0  0  0  0  0
   14.4092  -14.2169    0.0000 H   0  0  0  0  0  0  0  0  0  0  0  0
   15.2015  -13.9195    0.0000 C   0  0  0  0  0  0  0  0  0  0  0  0
   16.0058  -13.7359    0.0000 C   0  0  1  0  0  0  0  0  0  0  0  0
   16.3638  -12.9926    0.0000 C   0  0  0  0  0  0  0  0  0  0  0  0
   16.0058  -12.2493    0.0000 C   0  0  0  0  0  0  0  0  0  0  0  0
   15.2015  -12.0657    0.0000 C   0  0  2  0  0  0  0  0  0  0  0  0
   15.0179  -11.2614    0.0000 C   0  0  0  0  0  0  0  0  0  0  0  0
   17.0346  -15.0259    0.0000 O   0  0  0  0  0  0  0  0  0  0  0  0
  1  2  1  0  0  0  0
  1  3  1  0  0  0  0
  4  5  1  6  0  0  0
  4  6  1  0  0  0  0
  6  7  1  0  0  0  0
  7  8  1  0  0  0  0
  8  9  1  1  0  0  0
  8 10  1  0  0  0  0
 10 11  1  6  0  0  0
  4 10  1  0  0  0  0
 10 12  1  0  0  0  0
 12 13  1  0  0  0  0
 13  1  1  1  0  0  0
 13 14  1  0  0  0  0
 14 15  1  0  0  0  0
 15 16  1  0  0  0  0
 16 17  1  1  0  0  0
  4 16  1  0  0  0  0
  1 18  1  0  0  0  0
M  END
>  <cdx:groupId>
3826

>  <cdx:fragmentId>
3780

$$$$
