227977.cdx
  Mrv1902 05222410212D          

 78 86  0  0  0  0            999 V2000
   15.0995   -8.6212    0.0000 C   0  0  0  0  0  0  0  0  0  0  0  0
   15.8139   -8.2087    0.0000 C   0  0  0  0  0  0  0  0  0  0  0  0
   16.5284   -8.6212    0.0000 C   0  0  0  0  0  0  0  0  0  0  0  0
   16.5284   -9.4462    0.0000 C   0  0  0  0  0  0  0  0  0  0  0  0
   15.8139   -9.8587    0.0000 C   0  0  2  0  0  0  0  0  0  0  0  0
   15.8139  -10.6837    0.0000 C   0  0  0  0  0  0  0  0  0  0  0  0
   15.0995  -11.0962    0.0000 C   0  0  0  0  0  0  0  0  0  0  0  0
   14.3850  -10.6837    0.0000 C   0  0  1  0  0  0  0  0  0  0  0  0
   13.6705  -11.0962    0.0000 C   0  0  2  0  0  0  0  0  0  0  0  0
   13.6705  -11.9212    0.0000 C   0  0  0  0  0  0  0  0  0  0  0  0
   12.9560  -12.3337    0.0000 C   0  0  0  0  0  0  0  0  0  0  0  0
   12.2416  -11.9212    0.0000 C   0  0  1  0  0  0  0  0  0  0  0  0
   11.5271  -12.3337    0.0000 C   0  0  2  0  0  0  0  0  0  0  0  0
   10.8126  -11.9212    0.0000 C   0  0  2  0  0  0  0  0  0  0  0  0
   10.8126  -11.0962    0.0000 C   0  0  0  0  0  0  0  0  0  0  0  0
   11.5271  -10.6837    0.0000 C   0  0  0  0  0  0  0  0  0  0  0  0
   12.2416  -11.0962    0.0000 C   0  0  2  0  0  0  0  0  0  0  0  0
   12.9560  -10.6837    0.0000 C   0  0  1  0  0  0  0  0  0  0  0  0
   12.9560   -9.8587    0.0000 C   0  0  0  0  0  0  0  0  0  0  0  0
   13.6705   -9.4462    0.0000 C   0  0  0  0  0  0  0  0  0  0  0  0
   14.3850   -9.8587    0.0000 C   0  0  0  0  0  0  0  0  0  0  0  0
   15.0995   -9.4462    0.0000 C   0  0  2  0  0  0  0  0  0  0  0  0
   16.5284  -10.2712    0.0000 C   0  0  0  0  0  0  0  0  0  0  0  0
   16.5284  -11.0962    0.0000 O   0  0  0  0  0  0  0  0  0  0  0  0
   17.2429   -9.8587    0.0000 O   0  0  0  0  0  0  0  0  0  0  0  0
   11.1146  -13.0482    0.0000 C   0  0  0  0  0  0  0  0  0  0  0  0
   15.4014   -7.4943    0.0000 C   0  0  0  0  0  0  0  0  0  0  0  0
   16.2264   -7.4943    0.0000 C   0  0  0  0  0  0  0  0  0  0  0  0
   11.9396  -13.0482    0.0000 C   0  0  0  0  0  0  0  0  0  0  0  0
   11.5271  -13.7627    0.0000 O   0  0  0  0  0  0  0  0  0  0  0  0
   12.2416  -12.7462    0.0000 H   0  0  0  0  0  0  0  0  0  0  0  0
   14.3850   -9.0337    0.0000 H   0  0  0  0  0  0  0  0  0  0  0  0
   17.9573  -11.0962    0.0000 O   0  0  0  0  0  0  0  0  0  0  0  0
   17.9573  -10.2712    0.0000 C   0  0  2  0  0  0  0  0  0  0  0  0
   18.6718   -9.8587    0.0000 C   0  0  1  0  0  0  0  0  0  0  0  0
   19.3863  -10.2712    0.0000 C   0  0  2  0  0  0  0  0  0  0  0  0
   19.3863  -11.0962    0.0000 C   0  0  1  0  0  0  0  0  0  0  0  0
   18.6718  -11.5087    0.0000 C   0  0  1  0  0  0  0  0  0  0  0  0
   18.6718  -12.3337    0.0000 C   0  0  0  0  0  0  0  0  0  0  0  0
   19.3863  -12.7462    0.0000 O   0  0  0  0  0  0  0  0  0  0  0  0
   18.6718  -13.9837    0.0000 O   0  0  0  0  0  0  0  0  0  0  0  0
   19.3863  -13.5712    0.0000 C   0  0  2  0  0  0  0  0  0  0  0  0
   20.1008  -13.9837    0.0000 C   0  0  1  0  0  0  0  0  0  0  0  0
   20.1008  -14.8087    0.0000 C   0  0  2  0  0  0  0  0  0  0  0  0
   19.3863  -15.2212    0.0000 C   0  0  1  0  0  0  0  0  0  0  0  0
   18.6718  -14.8087    0.0000 C   0  0  0  0  0  0  0  0  0  0  0  0
   19.3863  -16.0462    0.0000 O   0  0  0  0  0  0  0  0  0  0  0  0
   20.8152  -15.2212    0.0000 O   0  0  0  0  0  0  0  0  0  0  0  0
   20.8152  -13.5712    0.0000 O   0  0  0  0  0  0  0  0  0  0  0  0
   18.6718   -9.0337    0.0000 O   0  0  0  0  0  0  0  0  0  0  0  0
   20.1008   -9.0337    0.0000 O   0  0  0  0  0  0  0  0  0  0  0  0
   19.3863   -8.6212    0.0000 C   0  0  2  0  0  0  0  0  0  0  0  0
   19.3863   -7.7962    0.0000 C   0  0  1  0  0  0  0  0  0  0  0  0
   20.1008   -7.3837    0.0000 C   0  0  1  0  0  0  0  0  0  0  0  0
   20.8152   -7.7962    0.0000 C   0  0  2  0  0  0  0  0  0  0  0  0
   20.8152   -8.6212    0.0000 C   0  0  2  0  0  0  0  0  0  0  0  0
   21.5297   -9.0337    0.0000 C   0  0  0  0  0  0  0  0  0  0  0  0
   21.5297   -7.3837    0.0000 O   0  0  0  0  0  0  0  0  0  0  0  0
   20.1008   -6.5587    0.0000 O   0  0  0  0  0  0  0  0  0  0  0  0
   18.6718   -7.3837    0.0000 O   0  0  0  0  0  0  0  0  0  0  0  0
   20.1008  -11.5087    0.0000 O   0  0  0  0  0  0  0  0  0  0  0  0
   20.1008   -9.8587    0.0000 O   0  0  0  0  0  0  0  0  0  0  0  0
    8.6637  -13.1491    0.0000 O   0  0  0  0  0  0  0  0  0  0  0  0
    7.2403  -12.3145    0.0000 O   0  0  0  0  0  0  0  0  0  0  0  0
    7.2514  -10.6645    0.0000 O   0  0  0  0  0  0  0  0  0  0  0  0
    7.9742   -9.4319    0.0000 O   0  0  0  0  0  0  0  0  0  0  0  0
    8.6859   -9.8492    0.0000 C   0  0  0  0  0  0  0  0  0  0  0  0
    8.6804  -10.6741    0.0000 C   0  0  2  0  0  0  0  0  0  0  0  0
    7.9631  -11.0818    0.0000 C   0  0  2  0  0  0  0  0  0  0  0  0
    7.9576  -11.9068    0.0000 C   0  0  1  0  0  0  0  0  0  0  0  0
    8.6692  -12.3241    0.0000 C   0  0  2  0  0  0  0  0  0  0  0  0
    9.3865  -11.9164    0.0000 C   0  0  1  0  0  0  0  0  0  0  0  0
    9.3920  -11.0914    0.0000 O   0  0  0  0  0  0  0  0  0  0  0  0
   10.0982  -12.3337    0.0000 O   0  0  0  0  0  0  0  0  0  0  0  0
   12.2416  -10.2712    0.0000 C   0  0  0  0  0  0  0  0  0  0  0  0
   13.6705  -10.2712    0.0000 C   0  0  0  0  0  0  0  0  0  0  0  0
   12.9560  -11.5087    0.0000 H   0  0  0  0  0  0  0  0  0  0  0  0
   14.3850  -11.5087    0.0000 C   0  0  0  0  0  0  0  0  0  0  0  0
 72 74  1  1  0  0  0
 71 63  1  6  0  0  0
 70 64  1  1  0  0  0
 69 65  1  6  0  0  0
 68 67  1  1  0  0  0
 67 66  1  0  0  0  0
 73 68  1  0  0  0  0
 69 68  1  0  0  0  0
 70 69  1  0  0  0  0
 71 70  1  0  0  0  0
 72 71  1  0  0  0  0
 73 72  1  0  0  0  0
  1  2  1  0  0  0  0
  2  3  1  0  0  0  0
  3  4  1  0  0  0  0
  4  5  1  0  0  0  0
  5  6  1  0  0  0  0
  6  7  1  0  0  0  0
  7  8  1  0  0  0  0
  8  9  1  0  0  0  0
  9 10  1  0  0  0  0
 10 11  1  0  0  0  0
 11 12  1  0  0  0  0
 12 13  1  0  0  0  0
 13 14  1  0  0  0  0
 14 15  1  0  0  0  0
 15 16  1  0  0  0  0
 16 17  1  0  0  0  0
 12 17  1  0  0  0  0
 17 18  1  0  0  0  0
  9 18  1  0  0  0  0
 18 19  1  0  0  0  0
 19 20  1  0  0  0  0
 20 21  2  0  0  0  0
  8 21  1  0  0  0  0
 21 22  1  0  0  0  0
  5 22  1  0  0  0  0
  1 22  1  0  0  0  0
 23 24  2  0  0  0  0
 23 25  1  0  0  0  0
  5 23  1  1  0  0  0
 14 74  1  1  0  0  0
 13 26  1  1  0  0  0
  2 27  1  0  0  0  0
  2 28  1  0  0  0  0
 29 30  1  0  0  0  0
 13 29  1  6  0  0  0
 12 31  1  6  0  0  0
 22 32  1  1  0  0  0
 33 34  1  0  0  0  0
 34 35  1  0  0  0  0
 35 36  1  0  0  0  0
 36 37  1  0  0  0  0
 37 38  1  0  0  0  0
 33 38  1  0  0  0  0
 41 42  1  0  0  0  0
 42 43  1  0  0  0  0
 43 44  1  0  0  0  0
 44 45  1  0  0  0  0
 45 46  1  0  0  0  0
 41 46  1  0  0  0  0
 45 47  1  6  0  0  0
 44 48  1  1  0  0  0
 43 49  1  6  0  0  0
 42 40  1  1  0  0  0
 39 40  1  0  0  0  0
 38 39  1  1  0  0  0
 51 52  1  0  0  0  0
 52 53  1  0  0  0  0
 53 54  1  0  0  0  0
 54 55  1  0  0  0  0
 55 56  1  0  0  0  0
 51 56  1  0  0  0  0
 56 57  1  6  0  0  0
 55 58  1  1  0  0  0
 54 59  1  6  0  0  0
 53 60  1  6  0  0  0
 52 50  1  1  0  0  0
 35 50  1  6  0  0  0
 37 61  1  6  0  0  0
 36 62  1  1  0  0  0
 34 25  1  1  0  0  0
 17 75  1  1  0  0  0
  9 76  1  1  0  0  0
 18 77  1  6  0  0  0
  8 78  1  6  0  0  0
M  END
>  <cdx:fragmentId>
234592

$$$$
