2280.cdx
  Mrv1902 05222410252D          

 44 47  0  0  0  0            999 V2000
    6.3558   -9.1575    0.0000 C   0  0  2  0  0  0  0  0  0  0  0  0
    6.3558   -9.9825    0.0000 C   0  0  2  0  0  0  0  0  0  0  0  0
    7.0702  -10.3950    0.0000 C   0  0  1  0  0  0  0  0  0  0  0  0
    7.7847   -9.9825    0.0000 C   0  0  2  0  0  0  0  0  0  0  0  0
    7.7847   -9.1575    0.0000 C   0  0  1  0  0  0  0  0  0  0  0  0
    7.0702   -8.7450    0.0000 O   0  0  0  0  0  0  0  0  0  0  0  0
    8.4992   -8.7450    0.0000 O   0  0  0  0  0  0  0  0  0  0  0  0
    7.0702  -11.2200    0.0000 O   0  0  0  0  0  0  0  0  0  0  0  0
    5.6413   -8.7450    0.0000 C   0  0  0  0  0  0  0  0  0  0  0  0
    8.4992  -10.3950    0.0000 O   0  0  0  0  0  0  0  0  0  0  0  0
    5.6413  -10.3950    0.0000 O   0  0  0  0  0  0  0  0  0  0  0  0
    4.9268   -9.1575    0.0000 O   0  0  0  0  0  0  0  0  0  0  0  0
    9.3242   -8.7450    0.0000 C   0  0  0  0  0  0  0  0  0  0  0  0
    9.7367   -8.0305    0.0000 C   0  0  0  0  0  0  0  0  0  0  0  0
    9.7367   -9.4595    0.0000 O   0  0  0  0  0  0  0  0  0  0  0  0
   10.5617   -8.0305    0.0000 C   0  0  0  0  0  0  0  0  0  0  0  0
   10.9742   -7.3161    0.0000 C   0  0  0  0  0  0  0  0  0  0  0  0
   10.5617   -6.6016    0.0000 C   0  0  0  0  0  0  0  0  0  0  0  0
    9.7367   -6.6016    0.0000 C   0  0  0  0  0  0  0  0  0  0  0  0
    9.3242   -7.3161    0.0000 C   0  0  0  0  0  0  0  0  0  0  0  0
    9.3242   -5.8871    0.0000 O   0  0  0  0  0  0  0  0  0  0  0  0
   10.9742   -5.8871    0.0000 O   0  0  0  0  0  0  0  0  0  0  0  0
   11.7992   -7.3161    0.0000 O   0  0  0  0  0  0  0  0  0  0  0  0
    8.9198  -11.1047    0.0000 C   0  0  0  0  0  0  0  0  0  0  0  0
    8.5155  -11.8238    0.0000 C   0  0  0  0  0  0  0  0  0  0  0  0
    9.7448  -11.0953    0.0000 O   0  0  0  0  0  0  0  0  0  0  0  0
    7.6906  -11.8333    0.0000 C   0  0  0  0  0  0  0  0  0  0  0  0
    7.2862  -12.5524    0.0000 C   0  0  0  0  0  0  0  0  0  0  0  0
    7.7069  -13.2621    0.0000 C   0  0  0  0  0  0  0  0  0  0  0  0
    8.5318  -13.2527    0.0000 C   0  0  0  0  0  0  0  0  0  0  0  0
    8.9361  -12.5336    0.0000 C   0  0  0  0  0  0  0  0  0  0  0  0
    7.3026  -13.9812    0.0000 O   0  0  0  0  0  0  0  0  0  0  0  0
    6.4613  -12.5618    0.0000 O   0  0  0  0  0  0  0  0  0  0  0  0
    8.9524  -13.9624    0.0000 O   0  0  0  0  0  0  0  0  0  0  0  0
    4.2124   -8.7450    0.0000 C   0  0  0  0  0  0  0  0  0  0  0  0
    3.4979   -9.1575    0.0000 C   0  0  0  0  0  0  0  0  0  0  0  0
    4.2124   -7.9200    0.0000 O   0  0  0  0  0  0  0  0  0  0  0  0
    2.7834   -8.7450    0.0000 C   0  0  0  0  0  0  0  0  0  0  0  0
    2.0690   -9.1575    0.0000 C   0  0  0  0  0  0  0  0  0  0  0  0
    1.3545   -8.7450    0.0000 C   0  0  0  0  0  0  0  0  0  0  0  0
    0.6400   -9.1575    0.0000 C   0  0  0  0  0  0  0  0  0  0  0  0
    0.6400   -9.9825    0.0000 C   0  0  0  0  0  0  0  0  0  0  0  0
    1.3545  -10.3950    0.0000 C   0  0  0  0  0  0  0  0  0  0  0  0
    2.0690   -9.9825    0.0000 C   0  0  0  0  0  0  0  0  0  0  0  0
  1  2  1  0  0  0  0
  2  3  1  0  0  0  0
  3  4  1  0  0  0  0
  4  5  1  0  0  0  0
  5  6  1  0  0  0  0
  6  1  1  0  0  0  0
  5  7  1  1  0  0  0
  3  8  1  1  0  0  0
  1  9  1  1  0  0  0
  4 10  1  6  0  0  0
  2 11  1  6  0  0  0
  9 12  1  0  0  0  0
  7 13  1  0  0  0  0
 13 14  1  0  0  0  0
 13 15  2  0  0  0  0
 14 16  2  0  0  0  0
 16 17  1  0  0  0  0
 17 18  2  0  0  0  0
 18 19  1  0  0  0  0
 19 20  2  0  0  0  0
 20 14  1  0  0  0  0
 19 21  1  0  0  0  0
 18 22  1  0  0  0  0
 17 23  1  0  0  0  0
 10 24  1  0  0  0  0
 24 25  1  0  0  0  0
 24 26  2  0  0  0  0
 25 27  2  0  0  0  0
 27 28  1  0  0  0  0
 28 29  2  0  0  0  0
 29 30  1  0  0  0  0
 30 31  2  0  0  0  0
 31 25  1  0  0  0  0
 29 32  1  0  0  0  0
 28 33  1  0  0  0  0
 30 34  1  0  0  0  0
 12 35  1  0  0  0  0
 35 36  1  0  0  0  0
 35 37  2  0  0  0  0
 36 38  2  0  0  0  0
 38 39  1  0  0  0  0
 39 40  2  0  0  0  0
 40 41  1  0  0  0  0
 41 42  2  0  0  0  0
 42 43  1  0  0  0  0
 43 44  2  0  0  0  0
 44 39  1  0  0  0  0
M  END
>  <cdx:fragmentId>
5

$$$$
