11228220.cdx
  Mrv1902 05222410272D          

 61 67  0  0  0  0            999 V2000
    8.3942  -14.8005    0.0000 C   0  0  0  0  0  0  0  0  0  0  0  0
    7.6797  -14.3880    0.0000 C   0  0  0  0  0  0  0  0  0  0  0  0
    6.9653  -14.8005    0.0000 C   0  0  0  0  0  0  0  0  0  0  0  0
    6.2508  -14.3880    0.0000 C   0  0  0  0  0  0  0  0  0  0  0  0
    8.3942  -15.6255    0.0000 O   0  0  0  0  0  0  0  0  0  0  0  0
    9.1087  -14.3880    0.0000 O   0  0  0  0  0  0  0  0  0  0  0  0
    7.6797  -13.5630    0.0000 C   0  0  0  0  0  0  0  0  0  0  0  0
   10.9663  -16.2855    0.0000 C   0  0  2  0  0  0  0  0  0  0  0  0
   11.6808  -16.6980    0.0000 O   0  0  0  0  0  0  0  0  0  0  0  0
   11.6808  -15.8730    0.0000 C   0  0  1  0  0  0  0  0  0  0  0  0
   12.4654  -16.1279    0.0000 C   0  0  0  0  0  0  0  0  0  0  0  0
   12.9503  -15.4605    0.0000 C   0  0  0  0  0  0  0  0  0  0  0  0
   12.4654  -14.7931    0.0000 C   0  0  2  0  0  0  0  0  0  0  0  0
   11.6808  -15.0480    0.0000 C   0  0  1  0  0  0  0  0  0  0  0  0
   10.9663  -14.6355    0.0000 C   0  0  1  0  0  0  0  0  0  0  0  0
   10.2518  -15.0480    0.0000 C   0  0  2  0  0  0  0  0  0  0  0  0
   10.2518  -15.8730    0.0000 C   0  0  2  0  0  0  0  0  0  0  0  0
    9.5374  -16.2855    0.0000 C   0  0  1  0  0  0  0  0  0  0  0  0
    8.8229  -15.8730    0.0000 C   0  0  0  0  0  0  0  0  0  0  0  0
    8.1084  -16.2855    0.0000 C   0  0  0  0  0  0  0  0  0  0  0  0
    8.1084  -17.1105    0.0000 C   0  0  1  0  0  0  0  0  0  0  0  0
    8.8229  -17.5230    0.0000 C   0  0  0  0  0  0  0  0  0  0  0  0
    9.5374  -17.1105    0.0000 C   0  0  2  0  0  0  0  0  0  0  0  0
   10.2518  -17.5230    0.0000 C   0  0  0  0  0  0  0  0  0  0  0  0
   10.9663  -17.1105    0.0000 C   0  0  0  0  0  0  0  0  0  0  0  0
   10.9663  -13.8105    0.0000 O   0  0  0  0  0  0  0  0  0  0  0  0
   10.2518  -13.3980    0.0000 C   0  0  0  0  0  0  0  0  0  0  0  0
   10.2518  -12.5730    0.0000 C   0  0  0  0  0  0  0  0  0  0  0  0
    9.5374  -12.1605    0.0000 C   0  0  0  0  0  0  0  0  0  0  0  0
    9.5374  -11.3355    0.0000 C   0  0  0  0  0  0  0  0  0  0  0  0
    9.5374  -13.8105    0.0000 O   0  0  0  0  0  0  0  0  0  0  0  0
   10.9663  -12.1605    0.0000 C   0  0  0  0  0  0  0  0  0  0  0  0
    9.5374  -15.4605    0.0000 C   0  0  0  0  0  0  0  0  0  0  0  0
   11.7670  -14.2275    0.0000 C   0  0  0  0  0  0  0  0  0  0  0  0
    7.3939  -17.5230    0.0000 O   0  0  0  0  0  0  0  0  0  0  0  0
    6.6795  -16.2855    0.0000 O   0  0  0  0  0  0  0  0  0  0  0  0
    6.6795  -17.1105    0.0000 C   0  0  2  0  0  0  0  0  0  0  0  0
    5.9650  -17.5230    0.0000 C   0  0  0  0  0  0  0  0  0  0  0  0
    5.2505  -17.1105    0.0000 C   0  0  2  0  0  0  0  0  0  0  0  0
    5.2505  -16.2855    0.0000 C   0  0  1  0  0  0  0  0  0  0  0  0
    5.9650  -15.8730    0.0000 C   0  0  1  0  0  0  0  0  0  0  0  0
    5.9650  -15.0480    0.0000 C   0  0  0  0  0  0  0  0  0  0  0  0
    4.5361  -17.5230    0.0000 O   0  0  0  0  0  0  0  0  0  0  0  0
    4.5361  -18.3480    0.0000 C   0  0  0  0  0  0  0  0  0  0  0  0
    4.5361  -15.8730    0.0000 O   0  0  0  0  0  0  0  0  0  0  0  0
    3.8216  -17.1105    0.0000 O   0  0  0  0  0  0  0  0  0  0  0  0
    3.8216  -16.2855    0.0000 C   0  0  2  0  0  0  0  0  0  0  0  0
    3.1071  -15.8730    0.0000 C   0  0  1  0  0  0  0  0  0  0  0  0
    2.3927  -16.2855    0.0000 C   0  0  1  0  0  0  0  0  0  0  0  0
    2.3927  -17.1105    0.0000 C   0  0  1  0  0  0  0  0  0  0  0  0
    3.1071  -17.5230    0.0000 C   0  0  1  0  0  0  0  0  0  0  0  0
    3.1071  -18.3480    0.0000 C   0  0  0  0  0  0  0  0  0  0  0  0
    1.6782  -15.8730    0.0000 O   0  0  0  0  0  0  0  0  0  0  0  0
    0.9637  -16.2855    0.0000 C   0  0  0  0  0  0  0  0  0  0  0  0
    1.6782  -17.5230    0.0000 O   0  0  0  0  0  0  0  0  0  0  0  0
    3.1071  -15.0480    0.0000 O   0  0  0  0  0  0  0  0  0  0  0  0
   12.7203  -14.0084    0.0000 C   0  0  0  0  0  0  0  0  0  0  0  0
   12.1683  -13.3953    0.0000 O   0  0  0  0  0  0  0  0  0  0  0  0
   13.5273  -13.8369    0.0000 C   0  0  0  0  0  0  0  0  0  0  0  0
   10.2518  -16.6980    0.0000 H   0  0  0  0  0  0  0  0  0  0  0  0
    9.5374  -17.9355    0.0000 H   0  0  0  0  0  0  0  0  0  0  0  0
  1  2  1  0  0  0  0
  2  3  1  0  0  0  0
  3  4  1  0  0  0  0
  1  5  2  0  0  0  0
  1  6  1  0  0  0  0
  2  7  1  0  0  0  0
  8  9  1  1  0  0  0
 10  9  1  1  0  0  0
 10 11  1  0  0  0  0
 11 12  1  0  0  0  0
 12 13  1  0  0  0  0
 13 14  1  0  0  0  0
 14 15  1  0  0  0  0
 15 16  1  0  0  0  0
 16 17  1  0  0  0  0
 17 18  1  0  0  0  0
 18 19  1  0  0  0  0
 19 20  1  0  0  0  0
 20 21  1  0  0  0  0
 21 22  1  0  0  0  0
 22 23  1  0  0  0  0
 23 24  1  0  0  0  0
 24 25  1  0  0  0  0
  8 25  1  0  0  0  0
  8 17  1  0  0  0  0
 18 23  1  0  0  0  0
 10 14  1  0  0  0  0
  8 10  1  0  0  0  0
 27 28  1  0  0  0  0
 28 29  2  0  0  0  0
 29 30  1  0  0  0  0
 27 31  2  0  0  0  0
 28 32  1  0  0  0  0
 26 27  1  0  0  0  0
 15 26  1  1  0  0  0
 18 33  1  1  0  0  0
 14 34  1  1  0  0  0
 36 37  1  0  0  0  0
 37 38  1  0  0  0  0
 38 39  1  0  0  0  0
 39 40  1  0  0  0  0
 40 41  1  0  0  0  0
 36 41  1  0  0  0  0
 41 42  1  1  0  0  0
 43 44  1  0  0  0  0
 39 43  1  1  0  0  0
 46 47  1  0  0  0  0
 47 48  1  0  0  0  0
 48 49  1  0  0  0  0
 49 50  1  0  0  0  0
 50 51  1  0  0  0  0
 46 51  1  0  0  0  0
 51 52  1  6  0  0  0
 53 54  1  0  0  0  0
 49 53  1  1  0  0  0
 50 55  1  1  0  0  0
 48 56  1  1  0  0  0
 47 45  1  6  0  0  0
 40 45  1  6  0  0  0
 37 35  1  1  0  0  0
 21 35  1  1  0  0  0
 57 58  2  0  0  0  0
 57 59  1  0  0  0  0
 13 57  1  6  0  0  0
 16  6  1  6  0  0  0
 17 60  1  6  0  0  0
 23 61  1  6  0  0  0
M  END
>  <cdx:groupId>
68189

>  <cdx:fragmentId>
68017

$$$$
