46228332.cdx
  Mrv1902 05222410242D          

 27 31  0  0  0  0            999 V2000
    7.1328   -7.0667    0.0000 C   0  0  1  0  0  0  0  0  0  0  0  0
    7.1328   -7.8917    0.0000 C   0  0  1  0  0  0  0  0  0  0  0  0
    6.4183   -8.3042    0.0000 C   0  0  0  0  0  0  0  0  0  0  0  0
    5.7039   -7.8917    0.0000 C   0  0  0  0  0  0  0  0  0  0  0  0
    5.7039   -7.0667    0.0000 C   0  0  0  0  0  0  0  0  0  0  0  0
    6.4183   -6.6542    0.0000 C   0  0  2  0  0  0  0  0  0  0  0  0
    7.4036   -6.5942    0.0000 C   0  0  1  0  0  0  0  0  0  0  0  0
    7.8473   -7.4792    0.0000 C   0  0  1  0  0  0  0  0  0  0  0  0
    4.9894   -6.6542    0.0000 O   0  0  0  0  0  0  0  0  0  0  0  0
    6.1807   -5.8642    0.0000 C   0  0  0  0  0  0  0  0  0  0  0  0
    5.3777   -5.6750    0.0000 C   0  0  0  0  0  0  0  0  0  0  0  0
    5.1400   -4.8850    0.0000 C   0  0  0  0  0  0  0  0  0  0  0  0
    8.6375   -7.7161    0.0000 C   0  0  0  0  0  0  0  0  0  0  0  0
    6.4183   -9.1292    0.0000 O   0  0  0  0  0  0  0  0  0  0  0  0
    5.7039   -9.5417    0.0000 C   0  0  0  0  0  0  0  0  0  0  0  0
    7.5453   -8.6062    0.0000 O   0  0  0  0  0  0  0  0  0  0  0  0
    8.3703   -8.6062    0.0000 C   0  0  0  0  0  0  0  0  0  0  0  0
    9.1932   -3.8377    0.0000 O   0  0  0  0  0  0  0  0  0  0  0  0
    9.9468   -4.1733    0.0000 C   0  0  0  0  0  0  0  0  0  0  0  0
    9.8606   -4.9937    0.0000 O   0  0  0  0  0  0  0  0  0  0  0  0
    9.0536   -5.1653    0.0000 C   0  0  0  0  0  0  0  0  0  0  0  0
    8.6411   -4.4508    0.0000 C   0  0  0  0  0  0  0  0  0  0  0  0
    8.6411   -5.8797    0.0000 C   0  0  0  0  0  0  0  0  0  0  0  0
    7.8161   -5.8797    0.0000 C   0  0  0  0  0  0  0  0  0  0  0  0
    7.4036   -5.1653    0.0000 C   0  0  0  0  0  0  0  0  0  0  0  0
    7.8161   -4.4508    0.0000 C   0  0  0  0  0  0  0  0  0  0  0  0
    7.9453   -6.9235    0.0000 H   0  0  0  0  0  0  0  0  0  0  0  0
  1  2  1  0  0  0  0
  2  3  1  0  0  0  0
  3  4  2  0  0  0  0
  4  5  1  0  0  0  0
  5  6  1  0  0  0  0
  6  7  1  0  0  0  0
  7  8  1  0  0  0  0
  1  8  1  0  0  0  0
  1  6  1  0  0  0  0
  2  8  1  0  0  0  0
  5  9  2  0  0  0  0
 10 11  1  0  0  0  0
 11 12  2  0  0  0  0
  6 10  1  1  0  0  0
  8 13  1  1  0  0  0
 14 15  1  0  0  0  0
  3 14  1  0  0  0  0
 16 17  1  0  0  0  0
  2 16  1  1  0  0  0
 18 19  1  0  0  0  0
 19 20  1  0  0  0  0
 20 21  1  0  0  0  0
 21 22  1  0  0  0  0
 18 22  1  0  0  0  0
 23 24  1  0  0  0  0
 24 25  2  0  0  0  0
 25 26  1  0  0  0  0
 26 22  2  0  0  0  0
 23 21  2  0  0  0  0
  7 24  1  6  0  0  0
  1 27  1  6  0  0  0
M  END
>  <cdx:groupId>
87

>  <cdx:fragmentId>
5

$$$$
