2283.cdx
  Mrv1902 05222410252D          

 34 36  0  0  0  0            999 V2000
    4.3639   -9.6509    0.0000 O   0  0  0  0  0  0  0  0  0  0  0  0
    5.7929  -10.4759    0.0000 O   0  0  0  0  0  0  0  0  0  0  0  0
    9.3652  -11.7134    0.0000 O   0  0  0  0  0  0  0  0  0  0  0  0
   10.7942  -10.8884    0.0000 O   0  0  0  0  0  0  0  0  0  0  0  0
   10.7942   -9.2384    0.0000 O   0  0  0  0  0  0  0  0  0  0  0  0
    7.9363   -8.4134    0.0000 O   0  0  0  0  0  0  0  0  0  0  0  0
    9.3652   -9.2384    0.0000 C   0  0  0  0  0  0  0  0  0  0  0  0
   10.0797   -9.6509    0.0000 C   0  0  0  0  0  0  0  0  0  0  0  0
   10.0797  -10.4759    0.0000 C   0  0  0  0  0  0  0  0  0  0  0  0
    9.3652  -10.8884    0.0000 C   0  0  0  0  0  0  0  0  0  0  0  0
    8.6508  -10.4759    0.0000 C   0  0  0  0  0  0  0  0  0  0  0  0
    8.6508   -9.6509    0.0000 C   0  0  0  0  0  0  0  0  0  0  0  0
    7.9363   -9.2384    0.0000 C   0  0  0  0  0  0  0  0  0  0  0  0
    7.2218   -9.6509    0.0000 O   0  0  0  0  0  0  0  0  0  0  0  0
   10.0797   -7.1759    0.0000 O   0  0  0  0  0  0  0  0  0  0  0  0
   10.0797   -5.5259    0.0000 O   0  0  0  0  0  0  0  0  0  0  0  0
    8.6508   -4.7009    0.0000 O   0  0  0  0  0  0  0  0  0  0  0  0
    6.5074   -6.7634    0.0000 O   0  0  0  0  0  0  0  0  0  0  0  0
    7.9363   -5.9384    0.0000 C   0  0  0  0  0  0  0  0  0  0  0  0
    8.6508   -5.5259    0.0000 C   0  0  0  0  0  0  0  0  0  0  0  0
    9.3652   -5.9384    0.0000 C   0  0  0  0  0  0  0  0  0  0  0  0
    9.3652   -6.7634    0.0000 C   0  0  0  0  0  0  0  0  0  0  0  0
    8.6508   -7.1759    0.0000 C   0  0  0  0  0  0  0  0  0  0  0  0
    7.9363   -6.7634    0.0000 C   0  0  0  0  0  0  0  0  0  0  0  0
    7.2218   -7.1759    0.0000 C   0  0  0  0  0  0  0  0  0  0  0  0
    7.2218   -8.0009    0.0000 O   0  0  0  0  0  0  0  0  0  0  0  0
    6.5074   -8.4134    0.0000 C   0  0  1  0  0  0  0  0  0  0  0  0
    6.5074   -9.2384    0.0000 C   0  0  1  0  0  0  0  0  0  0  0  0
    5.7929   -9.6509    0.0000 C   0  0  2  0  0  0  0  0  0  0  0  0
    5.0784   -9.2384    0.0000 C   0  0  1  0  0  0  0  0  0  0  0  0
    5.0784   -8.4134    0.0000 C   0  0  2  0  0  0  0  0  0  0  0  0
    5.7929   -8.0009    0.0000 O   0  0  0  0  0  0  0  0  0  0  0  0
    4.3639   -8.0009    0.0000 C   0  0  0  0  0  0  0  0  0  0  0  0
    3.6495   -8.4134    0.0000 O   0  0  0  0  0  0  0  0  0  0  0  0
 34 33  1  0  0  0  0
 31 33  1  1  0  0  0
 30  1  1  6  0  0  0
 29  2  1  1  0  0  0
 28 14  1  6  0  0  0
 14 13  1  0  0  0  0
 10  3  1  0  0  0  0
  9  4  1  0  0  0  0
  8  5  1  0  0  0  0
 13  6  2  0  0  0  0
 12  7  2  0  0  0  0
  8  7  1  0  0  0  0
  9  8  2  0  0  0  0
 10  9  1  0  0  0  0
 11 10  2  0  0  0  0
 12 11  1  0  0  0  0
 13 12  1  0  0  0  0
 27 26  1  1  0  0  0
 26 25  1  0  0  0  0
 22 15  1  0  0  0  0
 21 16  1  0  0  0  0
 20 17  1  0  0  0  0
 25 18  2  0  0  0  0
 24 19  2  0  0  0  0
 20 19  1  0  0  0  0
 21 20  2  0  0  0  0
 22 21  1  0  0  0  0
 23 22  2  0  0  0  0
 24 23  1  0  0  0  0
 25 24  1  0  0  0  0
 32 27  1  0  0  0  0
 28 27  1  0  0  0  0
 29 28  1  0  0  0  0
 30 29  1  0  0  0  0
 31 30  1  0  0  0  0
 32 31  1  0  0  0  0
M  END
>  <cdx:fragmentId>
45

$$$$
