46228396.cdx
  Mrv1902 05222410272D          

 26 29  0  0  0  0            999 V2000
    6.2712  -14.4514    0.0000 C   0  0  1  0  0  0  0  0  0  0  0  0
    5.5567  -14.8639    0.0000 C   0  0  0  0  0  0  0  0  0  0  0  0
    5.5567  -15.6889    0.0000 C   0  0  0  0  0  0  0  0  0  0  0  0
    6.2712  -16.1014    0.0000 C   0  0  0  0  0  0  0  0  0  0  0  0
    6.9857  -15.6889    0.0000 C   0  0  0  0  0  0  0  0  0  0  0  0
    6.4539  -15.1710    0.0000 C   0  0  0  0  0  0  0  0  0  0  0  0
    6.9857  -14.8639    0.0000 C   0  0  2  0  0  0  0  0  0  0  0  0
    4.8422  -14.4514    0.0000 O   0  0  0  0  0  0  0  0  0  0  0  0
    4.8422  -16.1014    0.0000 C   0  0  0  0  0  0  0  0  0  0  0  0
    4.1278  -15.6889    0.0000 C   0  0  0  0  0  0  0  0  0  0  0  0
    3.4133  -16.1014    0.0000 C   0  0  0  0  0  0  0  0  0  0  0  0
    6.9857  -14.0389    0.0000 C   0  0  0  0  0  0  0  0  0  0  0  0
    5.7395  -15.5835    0.0000 O   0  0  0  0  0  0  0  0  0  0  0  0
    4.9642  -15.3013    0.0000 C   0  0  0  0  0  0  0  0  0  0  0  0
    7.7001  -14.4514    0.0000 C   0  0  2  0  0  0  0  0  0  0  0  0
    7.7001  -13.6264    0.0000 O   0  0  0  0  0  0  0  0  0  0  0  0
   10.6282  -15.9438    0.0000 O   0  0  0  0  0  0  0  0  0  0  0  0
   11.1131  -15.2764    0.0000 C   0  0  0  0  0  0  0  0  0  0  0  0
   10.6282  -14.6089    0.0000 O   0  0  0  0  0  0  0  0  0  0  0  0
    9.8435  -14.8639    0.0000 C   0  0  0  0  0  0  0  0  0  0  0  0
    9.8435  -15.6889    0.0000 C   0  0  0  0  0  0  0  0  0  0  0  0
    9.1291  -14.4514    0.0000 C   0  0  0  0  0  0  0  0  0  0  0  0
    8.4146  -14.8639    0.0000 C   0  0  0  0  0  0  0  0  0  0  0  0
    8.4146  -15.6889    0.0000 C   0  0  0  0  0  0  0  0  0  0  0  0
    9.1291  -16.1014    0.0000 C   0  0  0  0  0  0  0  0  0  0  0  0
    6.2712  -13.6264    0.0000 H   0  0  0  0  0  0  0  0  0  0  0  0
  1  2  1  0  0  0  0
  2  3  1  0  0  0  0
  3  4  2  0  0  0  0
  4  5  1  0  0  0  0
  5  6  2  0  0  0  0
  1  6  1  1  0  0  0
  1  7  1  0  0  0  0
  7  5  1  0  0  0  0
  2  8  2  0  0  0  0
  9 10  1  0  0  0  0
 10 11  2  0  0  0  0
  3  9  1  0  0  0  0
  7 12  1  1  0  0  0
 13 14  1  0  0  0  0
  6 13  1  0  0  0  0
 15 16  1  6  0  0  0
 17 18  1  0  0  0  0
 18 19  1  0  0  0  0
 19 20  1  0  0  0  0
 20 21  1  0  0  0  0
 17 21  1  0  0  0  0
 22 23  1  0  0  0  0
 23 24  2  0  0  0  0
 24 25  1  0  0  0  0
 25 21  2  0  0  0  0
 22 20  2  0  0  0  0
 15 23  1  0  0  0  0
  7 15  1  0  0  0  0
  1 26  1  0  0  0  0
M  END
>  <cdx:groupId>
176810

>  <cdx:fragmentId>
176732

$$$$
