2285.cdx
  Mrv1902 05222410242D          

 33 35  0  0  0  0            999 V2000
    6.1152   -9.6628    0.0000 O   0  0  0  0  0  0  0  0  0  0  0  0
    6.8297   -9.2503    0.0000 C   0  0  0  0  0  0  0  0  0  0  0  0
    7.5441   -9.6628    0.0000 C   0  0  0  0  0  0  0  0  0  0  0  0
    8.2586   -9.2503    0.0000 C   0  0  0  0  0  0  0  0  0  0  0  0
    8.2586   -8.4253    0.0000 C   0  0  0  0  0  0  0  0  0  0  0  0
    7.5441   -8.0128    0.0000 C   0  0  0  0  0  0  0  0  0  0  0  0
    6.8297   -8.4253    0.0000 C   0  0  0  0  0  0  0  0  0  0  0  0
    8.9731   -8.0128    0.0000 C   0  0  0  0  0  0  0  0  0  0  0  0
    9.6875   -8.4253    0.0000 C   0  0  0  0  0  0  0  0  0  0  0  0
   10.4020   -8.0128    0.0000 C   0  0  0  0  0  0  0  0  0  0  0  0
    6.0250   -8.0002    0.0000 O   0  0  0  0  0  0  0  0  0  0  0  0
    5.4145  -11.7340    0.0000 C   0  0  2  0  0  0  0  0  0  0  0  0
    6.1302  -12.1444    0.0000 C   0  0  2  0  0  0  0  0  0  0  0  0
    6.8434  -11.7298    0.0000 C   0  0  1  0  0  0  0  0  0  0  0  0
    6.8410  -10.9048    0.0000 C   0  0  2  0  0  0  0  0  0  0  0  0
    6.1254  -10.4944    0.0000 C   0  0  1  0  0  0  0  0  0  0  0  0
    5.4121  -10.9090    0.0000 O   0  0  0  0  0  0  0  0  0  0  0  0
    4.7012  -12.1485    0.0000 C   0  0  0  0  0  0  0  0  0  0  0  0
    7.5591  -12.1402    0.0000 O   0  0  0  0  0  0  0  0  0  0  0  0
    6.1325  -12.9694    0.0000 O   0  0  0  0  0  0  0  0  0  0  0  0
    7.5543  -10.4902    0.0000 O   0  0  0  0  0  0  0  0  0  0  0  0
    4.7036  -12.9735    0.0000 O   0  0  0  0  0  0  0  0  0  0  0  0
    6.7460   -5.9429    0.0000 C   0  0  2  0  0  0  0  0  0  0  0  0
    6.0316   -5.5302    0.0000 C   0  0  2  0  0  0  0  0  0  0  0  0
    5.3170   -5.9425    0.0000 C   0  0  1  0  0  0  0  0  0  0  0  0
    5.3168   -6.7675    0.0000 C   0  0  2  0  0  0  0  0  0  0  0  0
    6.0311   -7.1802    0.0000 C   0  0  1  0  0  0  0  0  0  0  0  0
    6.7457   -6.7679    0.0000 O   0  0  0  0  0  0  0  0  0  0  0  0
    7.4606   -5.5306    0.0000 C   0  0  0  0  0  0  0  0  0  0  0  0
    4.6027   -5.5298    0.0000 O   0  0  0  0  0  0  0  0  0  0  0  0
    6.0319   -4.7052    0.0000 O   0  0  0  0  0  0  0  0  0  0  0  0
    4.6022   -7.1798    0.0000 O   0  0  0  0  0  0  0  0  0  0  0  0
    7.4608   -4.7056    0.0000 O   0  0  0  0  0  0  0  0  0  0  0  0
  1  2  1  0  0  0  0
  2  3  2  0  0  0  0
  3  4  1  0  0  0  0
  4  5  2  0  0  0  0
  5  6  1  0  0  0  0
  6  7  2  0  0  0  0
  7  2  1  0  0  0  0
  5  8  1  0  0  0  0
  8  9  1  0  0  0  0
  9 10  2  0  0  0  0
  7 11  1  0  0  0  0
 12 13  1  0  0  0  0
 13 14  1  0  0  0  0
 14 15  1  0  0  0  0
 15 16  1  0  0  0  0
 16 17  1  0  0  0  0
 17 12  1  0  0  0  0
 12 18  1  1  0  0  0
 14 19  1  1  0  0  0
 13 20  1  6  0  0  0
 15 21  1  6  0  0  0
 18 22  1  0  0  0  0
 23 24  1  0  0  0  0
 24 25  1  0  0  0  0
 25 26  1  0  0  0  0
 26 27  1  0  0  0  0
 27 28  1  0  0  0  0
 28 23  1  0  0  0  0
 23 29  1  1  0  0  0
 25 30  1  1  0  0  0
 24 31  1  6  0  0  0
 26 32  1  6  0  0  0
 29 33  1  0  0  0  0
 27 11  1  1  0  0  0
 16  1  1  1  0  0  0
M  END
>  <cdx:fragmentId>
514

$$$$
