228694.cdx
  Mrv1902 05222410242D          

 38 40  0  0  0  0            999 V2000
    8.2130  -11.0138    0.0000 C   0  0  1  0  0  0  0  0  0  0  0  0
    7.4949  -10.6078    0.0000 C   0  0  1  0  0  0  0  0  0  0  0  0
    7.4874   -9.7828    0.0000 C   0  0  1  0  0  0  0  0  0  0  0  0
    8.1981   -9.3639    0.0000 C   0  0  0  0  0  0  0  0  0  0  0  0
    8.9163   -9.7699    0.0000 C   0  0  0  0  0  0  0  0  0  0  0  0
    8.9237  -10.5949    0.0000 O   0  0  0  0  0  0  0  0  0  0  0  0
    8.2205  -11.8388    0.0000 O   0  0  0  0  0  0  0  0  0  0  0  0
    8.9461  -13.0698    0.0000 O   0  0  0  0  0  0  0  0  0  0  0  0
    8.9387  -12.2448    0.0000 C   0  0  2  0  0  0  0  0  0  0  0  0
    9.6494  -11.8259    0.0000 C   0  0  1  0  0  0  0  0  0  0  0  0
   10.3676  -12.2319    0.0000 C   0  0  2  0  0  0  0  0  0  0  0  0
   10.3750  -13.0568    0.0000 C   0  0  1  0  0  0  0  0  0  0  0  0
    9.6643  -13.4758    0.0000 C   0  0  1  0  0  0  0  0  0  0  0  0
    9.6718  -14.3008    0.0000 C   0  0  0  0  0  0  0  0  0  0  0  0
   10.3899  -14.7068    0.0000 O   0  0  0  0  0  0  0  0  0  0  0  0
   11.0932  -13.4629    0.0000 O   0  0  0  0  0  0  0  0  0  0  0  0
   11.0783  -11.8129    0.0000 O   0  0  0  0  0  0  0  0  0  0  0  0
    9.6419  -11.0009    0.0000 O   0  0  0  0  0  0  0  0  0  0  0  0
    6.7842  -11.0267    0.0000 C   0  0  0  0  0  0  0  0  0  0  0  0
    6.7916  -11.8517    0.0000 C   0  0  0  0  0  0  0  0  0  0  0  0
    9.6158   -8.5325    0.0000 C   0  0  0  0  0  0  0  0  0  0  0  0
    8.9014   -8.1200    0.0000 O   0  0  0  0  0  0  0  0  0  0  0  0
    7.4725   -8.1329    0.0000 O   0  0  0  0  0  0  0  0  0  0  0  0
    3.1784   -7.3467    0.0000 O   0  0  0  0  0  0  0  0  0  0  0  0
    1.7569   -8.1846    0.0000 O   0  0  0  0  0  0  0  0  0  0  0  0
    1.7719   -9.8345    0.0000 O   0  0  0  0  0  0  0  0  0  0  0  0
    4.6371  -10.6337    0.0000 O   0  0  0  0  0  0  0  0  0  0  0  0
    3.2007   -9.8216    0.0000 C   0  0  0  0  0  0  0  0  0  0  0  0
    2.4826   -9.4156    0.0000 C   0  0  0  0  0  0  0  0  0  0  0  0
    2.4751   -8.5906    0.0000 C   0  0  0  0  0  0  0  0  0  0  0  0
    3.1858   -8.1717    0.0000 C   0  0  0  0  0  0  0  0  0  0  0  0
    3.9040   -8.5777    0.0000 C   0  0  0  0  0  0  0  0  0  0  0  0
    3.9115   -9.4027    0.0000 C   0  0  0  0  0  0  0  0  0  0  0  0
    4.6296   -9.8087    0.0000 C   0  0  0  0  0  0  0  0  0  0  0  0
    5.3403   -9.3897    0.0000 O   0  0  0  0  0  0  0  0  0  0  0  0
    6.0585   -9.7958    0.0000 C   0  0  0  0  0  0  0  0  0  0  0  0
    6.7692   -9.3768    0.0000 C   0  0  0  0  0  0  0  0  0  0  0  0
    8.1906   -8.5389    0.0000 C   0  0  0  0  0  0  0  0  0  0  0  0
 22 21  1  0  0  0  0
 38 22  1  0  0  0  0
 38 23  2  0  0  0  0
 36 35  1  0  0  0  0
 35 34  1  0  0  0  0
 31 24  1  0  0  0  0
 30 25  1  0  0  0  0
 29 26  1  0  0  0  0
 34 27  2  0  0  0  0
 33 28  2  0  0  0  0
 29 28  1  0  0  0  0
 30 29  2  0  0  0  0
 31 30  1  0  0  0  0
 32 31  2  0  0  0  0
 33 32  1  0  0  0  0
 34 33  1  0  0  0  0
 37 36  1  0  0  0  0
  1  2  1  0  0  0  0
  2  3  1  0  0  0  0
  3  4  1  0  0  0  0
  4  5  2  0  0  0  0
  5  6  1  0  0  0  0
  1  6  1  0  0  0  0
  4 38  1  0  0  0  0
  8  9  1  0  0  0  0
  9 10  1  0  0  0  0
 10 11  1  0  0  0  0
 11 12  1  0  0  0  0
 12 13  1  0  0  0  0
  8 13  1  0  0  0  0
 14 15  1  0  0  0  0
 13 14  1  1  0  0  0
 12 16  1  6  0  0  0
 11 17  1  1  0  0  0
 10 18  1  6  0  0  0
  9  7  1  1  0  0  0
  1  7  1  1  0  0  0
  3 37  1  6  0  0  0
 19 20  2  0  0  0  0
  2 19  1  6  0  0  0
M  END
>  <cdx:fragmentId>
5350

$$$$
