228746.cdx
  Mrv1902 05222410282D          

 57 61  0  0  0  0            999 V2000
    5.5996  -10.4714    0.0000 C   0  0  0  0  0  0  0  0  0  0  0  0
    4.8851  -10.8839    0.0000 C   0  0  0  0  0  0  0  0  0  0  0  0
    4.1706  -10.4714    0.0000 C   0  0  0  0  0  0  0  0  0  0  0  0
    5.5996   -9.6464    0.0000 O   0  0  0  0  0  0  0  0  0  0  0  0
    6.3140  -10.8839    0.0000 O   0  0  0  0  0  0  0  0  0  0  0  0
    3.4561  -10.8839    0.0000 C   0  0  0  0  0  0  0  0  0  0  0  0
    3.4561  -11.7089    0.0000 C   0  0  0  0  0  0  0  0  0  0  0  0
    2.7417  -12.1214    0.0000 C   0  0  0  0  0  0  0  0  0  0  0  0
    2.0272  -11.7089    0.0000 C   0  0  0  0  0  0  0  0  0  0  0  0
    2.0272  -10.8839    0.0000 C   0  0  0  0  0  0  0  0  0  0  0  0
    2.7417  -10.4714    0.0000 C   0  0  0  0  0  0  0  0  0  0  0  0
    1.3127  -12.1214    0.0000 O   0  0  0  0  0  0  0  0  0  0  0  0
    7.7430   -9.2339    0.0000 O   0  0  0  0  0  0  0  0  0  0  0  0
    7.0285   -9.6464    0.0000 C   0  0  1  0  0  0  0  0  0  0  0  0
    7.0285  -10.4714    0.0000 C   0  0  2  0  0  0  0  0  0  0  0  0
    7.7430  -10.8839    0.0000 C   0  0  1  0  0  0  0  0  0  0  0  0
    8.4574  -10.4714    0.0000 C   0  0  2  0  0  0  0  0  0  0  0  0
    8.4574   -9.6464    0.0000 C   0  0  2  0  0  0  0  0  0  0  0  0
    7.7430  -11.7089    0.0000 O   0  0  0  0  0  0  0  0  0  0  0  0
    6.3140  -11.7089    0.0000 O   0  0  0  0  0  0  0  0  0  0  0  0
    7.0285  -12.1214    0.0000 C   0  0  2  0  0  0  0  0  0  0  0  0
    7.0285  -12.9464    0.0000 C   0  0  1  0  0  0  0  0  0  0  0  0
    6.3140  -13.3589    0.0000 C   0  0  1  0  0  0  0  0  0  0  0  0
    5.5996  -12.9464    0.0000 C   0  0  2  0  0  0  0  0  0  0  0  0
    5.5996  -12.1214    0.0000 C   0  0  2  0  0  0  0  0  0  0  0  0
    4.8851  -11.7089    0.0000 C   0  0  0  0  0  0  0  0  0  0  0  0
    4.8851  -13.3589    0.0000 O   0  0  0  0  0  0  0  0  0  0  0  0
    6.3140  -14.1839    0.0000 O   0  0  0  0  0  0  0  0  0  0  0  0
    7.7430  -13.3589    0.0000 O   0  0  0  0  0  0  0  0  0  0  0  0
    6.3140   -9.2339    0.0000 C   0  0  0  0  0  0  0  0  0  0  0  0
   11.3153   -9.6464    0.0000 C   0  0  0  0  0  0  0  0  0  0  0  0
   12.0298   -9.2339    0.0000 C   0  0  0  0  0  0  0  0  0  0  0  0
   12.7443   -9.6464    0.0000 C   0  0  0  0  0  0  0  0  0  0  0  0
   12.7443  -10.4714    0.0000 C   0  0  0  0  0  0  0  0  0  0  0  0
   12.0298  -10.8839    0.0000 C   0  0  0  0  0  0  0  0  0  0  0  0
   11.3153  -10.4714    0.0000 C   0  0  0  0  0  0  0  0  0  0  0  0
   13.4587  -10.8839    0.0000 O   0  0  0  0  0  0  0  0  0  0  0  0
   13.4587   -9.2339    0.0000 O   0  0  0  0  0  0  0  0  0  0  0  0
    9.1719  -11.7089    0.0000 C   0  0  0  0  0  0  0  0  0  0  0  0
    9.8864  -12.1214    0.0000 O   0  0  0  0  0  0  0  0  0  0  0  0
    8.4574  -12.1214    0.0000 C   0  0  0  0  0  0  0  0  0  0  0  0
    4.6648   -8.3572    0.0000 O   0  0  0  0  0  0  0  0  0  0  0  0
    3.8851   -6.9030    0.0000 O   0  0  0  0  0  0  0  0  0  0  0  0
    4.7545   -5.5007    0.0000 O   0  0  0  0  0  0  0  0  0  0  0  0
    6.0138   -4.8254    0.0000 O   0  0  0  0  0  0  0  0  0  0  0  0
    6.4037   -5.5524    0.0000 C   0  0  0  0  0  0  0  0  0  0  0  0
    5.9690   -6.2536    0.0000 C   0  0  2  0  0  0  0  0  0  0  0  0
    5.1444   -6.2277    0.0000 C   0  0  2  0  0  0  0  0  0  0  0  0
    4.7097   -6.9289    0.0000 C   0  0  1  0  0  0  0  0  0  0  0  0
    5.0996   -7.6560    0.0000 C   0  0  2  0  0  0  0  0  0  0  0  0
    5.9242   -7.6819    0.0000 C   0  0  1  0  0  0  0  0  0  0  0  0
    6.3589   -6.9807    0.0000 O   0  0  0  0  0  0  0  0  0  0  0  0
    6.3140   -8.4089    0.0000 O   0  0  0  0  0  0  0  0  0  0  0  0
   10.6009   -9.2339    0.0000 C   0  0  0  0  0  0  0  0  0  0  0  0
    9.8864   -9.6464    0.0000 C   0  0  0  0  0  0  0  0  0  0  0  0
    9.1719   -9.2339    0.0000 O   0  0  0  0  0  0  0  0  0  0  0  0
    9.1719  -10.8839    0.0000 O   0  0  0  0  0  0  0  0  0  0  0  0
 51 53  1  1  0  0  0
 50 42  1  6  0  0  0
 49 43  1  1  0  0  0
 48 44  1  6  0  0  0
 47 46  1  1  0  0  0
 46 45  1  0  0  0  0
 52 47  1  0  0  0  0
 48 47  1  0  0  0  0
 49 48  1  0  0  0  0
 50 49  1  0  0  0  0
 51 50  1  0  0  0  0
 52 51  1  0  0  0  0
 54 31  1  0  0  0  0
 56 55  1  0  0  0  0
 55 54  1  0  0  0  0
 57 39  1  0  0  0  0
  1  2  1  0  0  0  0
  2  3  2  0  0  0  0
  1  4  2  0  0  0  0
  1  5  1  0  0  0  0
  6  7  1  0  0  0  0
  7  8  2  0  0  0  0
  8  9  1  0  0  0  0
  9 10  2  0  0  0  0
 10 11  1  0  0  0  0
  6 11  2  0  0  0  0
  9 12  1  0  0  0  0
  3  6  1  0  0  0  0
 13 14  1  0  0  0  0
 14 15  1  0  0  0  0
 15 16  1  0  0  0  0
 16 17  1  0  0  0  0
 17 18  1  0  0  0  0
 13 18  1  0  0  0  0
 20 21  1  0  0  0  0
 21 22  1  0  0  0  0
 22 23  1  0  0  0  0
 23 24  1  0  0  0  0
 24 25  1  0  0  0  0
 20 25  1  0  0  0  0
 25 26  1  6  0  0  0
 24 27  1  1  0  0  0
 23 28  1  6  0  0  0
 22 29  1  6  0  0  0
 21 19  1  1  0  0  0
 16 19  1  1  0  0  0
 30 53  1  0  0  0  0
 14 30  1  1  0  0  0
 31 32  1  0  0  0  0
 32 33  2  0  0  0  0
 33 34  1  0  0  0  0
 34 35  2  0  0  0  0
 35 36  1  0  0  0  0
 31 36  2  0  0  0  0
 34 37  1  0  0  0  0
 33 38  1  0  0  0  0
 18 56  1  1  0  0  0
 39 40  2  0  0  0  0
 39 41  1  0  0  0  0
 17 57  1  6  0  0  0
 15  5  1  6  0  0  0
M  END
>  <cdx:groupId>
176990

>  <cdx:fragmentId>
176856

$$$$
