22873.cdx
  Mrv1902 05222410202D          

 14 13  0  0  0  0            999 V2000
    5.3287   -3.0808    0.0000 C   0  0  0  0  0  0  0  0  0  0  0  0
    4.6142   -3.4933    0.0000 C   0  0  0  0  0  0  0  0  0  0  0  0
    3.8997   -3.0808    0.0000 C   0  0  0  0  0  0  0  0  0  0  0  0
    3.1852   -3.4933    0.0000 C   0  0  0  0  0  0  0  0  0  0  0  0
    2.4708   -3.0808    0.0000 C   0  0  0  0  0  0  0  0  0  0  0  0
    1.7563   -3.4933    0.0000 C   0  0  0  0  0  0  0  0  0  0  0  0
    5.3287   -2.2558    0.0000 O   0  0  0  0  0  0  0  0  0  0  0  0
    6.0431   -3.4933    0.0000 O   0  0  0  0  0  0  0  0  0  0  0  0
    6.7576   -3.0808    0.0000 C   0  0  0  0  0  0  0  0  0  0  0  0
    7.4721   -3.4933    0.0000 C   0  0  0  0  0  0  0  0  0  0  0  0
    8.1865   -3.0808    0.0000 C   0  0  0  0  0  0  0  0  0  0  0  0
    8.9010   -3.4933    0.0000 C   0  0  0  0  0  0  0  0  0  0  0  0
    9.6155   -3.0808    0.0000 C   0  0  0  0  0  0  0  0  0  0  0  0
   10.3300   -3.4933    0.0000 C   0  0  0  0  0  0  0  0  0  0  0  0
  1  2  1  0  0  0  0
  2  3  1  0  0  0  0
  3  4  1  0  0  0  0
  4  5  1  0  0  0  0
  5  6  1  0  0  0  0
  1  7  2  0  0  0  0
  1  8  1  0  0  0  0
  9 10  1  0  0  0  0
 10 11  1  0  0  0  0
 11 12  1  0  0  0  0
 12 13  1  0  0  0  0
 13 14  1  0  0  0  0
  8  9  1  0  0  0  0
M  END
>  <cdx:groupId>
43

>  <cdx:fragmentId>
5

$$$$
