2287.cdx
  Mrv1902 05222410232D          

 45 48  0  0  0  0            999 V2000
    7.7769   -6.5673    0.0000 O   0  0  0  0  0  0  0  0  0  0  0  0
    7.0624   -6.9798    0.0000 C   0  0  1  0  0  0  0  0  0  0  0  0
    7.0624   -7.8048    0.0000 C   0  0  2  0  0  0  0  0  0  0  0  0
    7.7769   -8.2173    0.0000 C   0  0  1  0  0  0  0  0  0  0  0  0
    8.4914   -7.8048    0.0000 C   0  0  2  0  0  0  0  0  0  0  0  0
    8.4914   -6.9798    0.0000 C   0  0  2  0  0  0  0  0  0  0  0  0
    9.2059   -6.5673    0.0000 O   0  0  0  0  0  0  0  0  0  0  0  0
    9.2059   -5.7423    0.0000 C   0  0  0  0  0  0  0  0  0  0  0  0
    9.9203   -5.3298    0.0000 C   0  0  0  0  0  0  0  0  0  0  0  0
    9.9203   -4.5048    0.0000 C   0  0  0  0  0  0  0  0  0  0  0  0
   10.6348   -4.0923    0.0000 C   0  0  0  0  0  0  0  0  0  0  0  0
   11.3493   -4.5048    0.0000 C   0  0  0  0  0  0  0  0  0  0  0  0
   11.3493   -5.3298    0.0000 C   0  0  0  0  0  0  0  0  0  0  0  0
   10.6348   -5.7423    0.0000 C   0  0  0  0  0  0  0  0  0  0  0  0
    8.4914   -5.3298    0.0000 O   0  0  0  0  0  0  0  0  0  0  0  0
   12.0637   -5.7423    0.0000 O   0  0  0  0  0  0  0  0  0  0  0  0
   12.0637   -4.0923    0.0000 O   0  0  0  0  0  0  0  0  0  0  0  0
   10.6348   -3.2673    0.0000 O   0  0  0  0  0  0  0  0  0  0  0  0
    9.2059   -8.2173    0.0000 O   0  0  0  0  0  0  0  0  0  0  0  0
    7.7769   -9.0423    0.0000 O   0  0  0  0  0  0  0  0  0  0  0  0
    8.4914   -9.4548    0.0000 C   0  0  0  0  0  0  0  0  0  0  0  0
    8.4914  -10.2798    0.0000 C   0  0  0  0  0  0  0  0  0  0  0  0
    9.2059  -10.6923    0.0000 C   0  0  0  0  0  0  0  0  0  0  0  0
    9.2059  -11.5173    0.0000 C   0  0  0  0  0  0  0  0  0  0  0  0
    8.4914  -11.9298    0.0000 C   0  0  0  0  0  0  0  0  0  0  0  0
    7.7769  -11.5173    0.0000 C   0  0  0  0  0  0  0  0  0  0  0  0
    7.7769  -10.6923    0.0000 C   0  0  0  0  0  0  0  0  0  0  0  0
    9.2059   -9.0423    0.0000 O   0  0  0  0  0  0  0  0  0  0  0  0
    7.0624  -11.9298    0.0000 O   0  0  0  0  0  0  0  0  0  0  0  0
    8.4914  -12.7548    0.0000 O   0  0  0  0  0  0  0  0  0  0  0  0
    9.9203  -11.9298    0.0000 O   0  0  0  0  0  0  0  0  0  0  0  0
    6.3480   -8.2173    0.0000 O   0  0  0  0  0  0  0  0  0  0  0  0
    6.3480   -6.5673    0.0000 C   0  0  0  0  0  0  0  0  0  0  0  0
    2.0611   -6.5673    0.0000 O   0  0  0  0  0  0  0  0  0  0  0  0
    2.0611   -8.2173    0.0000 O   0  0  0  0  0  0  0  0  0  0  0  0
    3.4901   -9.0423    0.0000 O   0  0  0  0  0  0  0  0  0  0  0  0
    5.6335   -6.9798    0.0000 O   0  0  0  0  0  0  0  0  0  0  0  0
    4.9190   -5.7423    0.0000 O   0  0  0  0  0  0  0  0  0  0  0  0
    4.2046   -7.8048    0.0000 C   0  0  0  0  0  0  0  0  0  0  0  0
    3.4901   -8.2173    0.0000 C   0  0  0  0  0  0  0  0  0  0  0  0
    2.7756   -7.8048    0.0000 C   0  0  0  0  0  0  0  0  0  0  0  0
    2.7756   -6.9798    0.0000 C   0  0  0  0  0  0  0  0  0  0  0  0
    3.4901   -6.5673    0.0000 C   0  0  0  0  0  0  0  0  0  0  0  0
    4.2046   -6.9798    0.0000 C   0  0  0  0  0  0  0  0  0  0  0  0
    4.9190   -6.5673    0.0000 C   0  0  0  0  0  0  0  0  0  0  0  0
 37 33  1  0  0  0  0
 42 34  1  0  0  0  0
 41 35  1  0  0  0  0
 40 36  1  0  0  0  0
 45 37  1  0  0  0  0
 45 38  2  0  0  0  0
 44 39  2  0  0  0  0
 40 39  1  0  0  0  0
 41 40  2  0  0  0  0
 42 41  1  0  0  0  0
 43 42  2  0  0  0  0
 44 43  1  0  0  0  0
 45 44  1  0  0  0  0
  1  2  1  0  0  0  0
  2  3  1  0  0  0  0
  3  4  1  0  0  0  0
  4  5  1  0  0  0  0
  5  6  1  0  0  0  0
  1  6  1  0  0  0  0
  8  9  1  0  0  0  0
  9 10  1  0  0  0  0
 10 11  2  0  0  0  0
 11 12  1  0  0  0  0
 12 13  2  0  0  0  0
 13 14  1  0  0  0  0
  9 14  2  0  0  0  0
  8 15  2  0  0  0  0
 13 16  1  0  0  0  0
 12 17  1  0  0  0  0
 11 18  1  0  0  0  0
  7  8  1  0  0  0  0
  6  7  1  1  0  0  0
  5 19  1  6  0  0  0
 21 22  1  0  0  0  0
 22 23  1  0  0  0  0
 23 24  2  0  0  0  0
 24 25  1  0  0  0  0
 25 26  2  0  0  0  0
 26 27  1  0  0  0  0
 22 27  2  0  0  0  0
 21 28  2  0  0  0  0
 26 29  1  0  0  0  0
 25 30  1  0  0  0  0
 24 31  1  0  0  0  0
 20 21  1  0  0  0  0
  4 20  1  1  0  0  0
  3 32  1  6  0  0  0
  2 33  1  1  0  0  0
M  END
>  <cdx:fragmentId>
45

$$$$
