2288.cdx
  Mrv1902 05222410222D          

 26 29  0  0  0  0            999 V2000
    8.2451   -4.9112    0.0000 C   0  0  0  0  0  0  0  0  0  0  0  0
    7.5375   -5.3354    0.0000 C   0  0  0  0  0  0  0  0  0  0  0  0
    7.5510   -6.1603    0.0000 C   0  0  0  0  0  0  0  0  0  0  0  0
    8.2722   -6.5610    0.0000 C   0  0  0  0  0  0  0  0  0  0  0  0
    8.9798   -6.1368    0.0000 C   0  0  0  0  0  0  0  0  0  0  0  0
    8.9662   -5.3119    0.0000 C   0  0  0  0  0  0  0  0  0  0  0  0
    8.2857   -7.3859    0.0000 C   0  0  0  0  0  0  0  0  0  0  0  0
    9.0069   -7.7866    0.0000 N   0  3  0  0  0  0  0  0  0  0  0  0
    9.7145   -7.3624    0.0000 C   0  0  0  0  0  0  0  0  0  0  0  0
    9.7009   -6.5375    0.0000 C   0  0  0  0  0  0  0  0  0  0  0  0
    6.8434   -6.5845    0.0000 C   0  0  0  0  0  0  0  0  0  0  0  0
    6.8570   -7.4093    0.0000 C   0  0  0  0  0  0  0  0  0  0  0  0
    7.5781   -7.8101    0.0000 C   0  0  0  0  0  0  0  0  0  0  0  0
    6.1223   -6.1837    0.0000 C   0  0  0  0  0  0  0  0  0  0  0  0
    5.4147   -6.6079    0.0000 C   0  0  0  0  0  0  0  0  0  0  0  0
    5.4282   -7.4328    0.0000 C   0  0  0  0  0  0  0  0  0  0  0  0
    6.1494   -7.8335    0.0000 C   0  0  0  0  0  0  0  0  0  0  0  0
    9.6738   -4.8877    0.0000 O   0  0  0  0  0  0  0  0  0  0  0  0
    6.1087   -5.3589    0.0000 O   0  0  0  0  0  0  0  0  0  0  0  0
    4.7206   -7.8570    0.0000 O   0  0  0  0  0  0  0  0  0  0  0  0
    8.5944   -8.5011    0.0000 C   0  0  0  0  0  0  0  0  0  0  0  0
    8.2315   -4.0863    0.0000 O   0  0  0  0  0  0  0  0  0  0  0  0
    6.8163   -4.9347    0.0000 O   0  0  0  0  0  0  0  0  0  0  0  0
    7.5104   -3.6856    0.0000 C   0  0  0  0  0  0  0  0  0  0  0  0
    4.7342   -8.6819    0.0000 C   0  0  0  0  0  0  0  0  0  0  0  0
    9.4194   -8.5011    0.0000 C   0  0  0  0  0  0  0  0  0  0  0  0
  1  2  2  0  0  0  0
  2  3  1  0  0  0  0
  3  4  2  0  0  0  0
  4  5  1  0  0  0  0
  5  6  2  0  0  0  0
  6  1  1  0  0  0  0
  4  7  1  0  0  0  0
  7  8  1  0  0  0  0
  8  9  1  0  0  0  0
  9 10  1  0  0  0  0
 10  5  1  0  0  0  0
  3 11  1  0  0  0  0
 11 12  2  0  0  0  0
 12 13  1  0  0  0  0
 13  7  1  0  0  0  0
 11 14  1  0  0  0  0
 14 15  2  0  0  0  0
 15 16  1  0  0  0  0
 16 17  2  0  0  0  0
 17 12  1  0  0  0  0
  6 18  1  0  0  0  0
 14 19  1  0  0  0  0
 16 20  1  0  0  0  0
  8 21  1  0  0  0  0
  1 22  1  0  0  0  0
  2 23  1  0  0  0  0
 22 24  1  0  0  0  0
 20 25  1  0  0  0  0
  8 26  1  0  0  0  0
M  CHG  1   8   1
M  END
>  <cdx:fragmentId>
5

$$$$
