229015.cdx
  Mrv1902 05222410242D          

 23 24  0  0  0  0            999 V2000
    7.7822   -5.1969    0.0000 C   0  0  0  0  0  0  0  0  0  0  0  0
    8.4967   -5.6094    0.0000 C   0  0  0  0  0  0  0  0  0  0  0  0
    9.2112   -5.1969    0.0000 C   0  0  0  0  0  0  0  0  0  0  0  0
    7.7822   -4.3719    0.0000 O   0  0  0  0  0  0  0  0  0  0  0  0
    8.4967   -6.4344    0.0000 C   0  0  0  0  0  0  0  0  0  0  0  0
    9.2112   -6.8469    0.0000 C   0  0  0  0  0  0  0  0  0  0  0  0
    9.2112   -7.6719    0.0000 C   0  0  0  0  0  0  0  0  0  0  0  0
    8.4967   -8.0844    0.0000 C   0  0  0  0  0  0  0  0  0  0  0  0
    7.7822   -7.6719    0.0000 C   0  0  0  0  0  0  0  0  0  0  0  0
    7.7822   -6.8469    0.0000 C   0  0  0  0  0  0  0  0  0  0  0  0
    9.9256   -8.0844    0.0000 O   0  0  0  0  0  0  0  0  0  0  0  0
    9.9256   -8.9094    0.0000 C   0  0  0  0  0  0  0  0  0  0  0  0
    8.4967   -8.9094    0.0000 O   0  0  0  0  0  0  0  0  0  0  0  0
    7.0678   -5.6094    0.0000 C   0  0  0  0  0  0  0  0  0  0  0  0
    6.3533   -5.1969    0.0000 C   0  0  0  0  0  0  0  0  0  0  0  0
    5.6388   -5.6094    0.0000 C   0  0  0  0  0  0  0  0  0  0  0  0
    5.6388   -6.4344    0.0000 C   0  0  0  0  0  0  0  0  0  0  0  0
    6.3533   -6.8469    0.0000 C   0  0  0  0  0  0  0  0  0  0  0  0
    7.0678   -6.4344    0.0000 C   0  0  0  0  0  0  0  0  0  0  0  0
    4.9244   -5.1969    0.0000 O   0  0  0  0  0  0  0  0  0  0  0  0
    4.2099   -5.6094    0.0000 C   0  0  0  0  0  0  0  0  0  0  0  0
    4.9244   -6.8469    0.0000 O   0  0  0  0  0  0  0  0  0  0  0  0
    9.9256   -5.6094    0.0000 O   0  0  0  0  0  0  0  0  0  0  0  0
  1  2  1  0  0  0  0
  2  3  1  0  0  0  0
  1  4  2  0  0  0  0
  5  6  1  0  0  0  0
  6  7  2  0  0  0  0
  7  8  1  0  0  0  0
  8  9  2  0  0  0  0
  9 10  1  0  0  0  0
  5 10  2  0  0  0  0
 11 12  1  0  0  0  0
  7 11  1  0  0  0  0
  8 13  1  0  0  0  0
  2  5  1  0  0  0  0
 14 15  1  0  0  0  0
 15 16  2  0  0  0  0
 16 17  1  0  0  0  0
 17 18  2  0  0  0  0
 18 19  1  0  0  0  0
 14 19  2  0  0  0  0
 20 21  1  0  0  0  0
 16 20  1  0  0  0  0
 17 22  1  0  0  0  0
  1 14  1  0  0  0  0
  3 23  1  0  0  0  0
M  END
>  <cdx:fragmentId>
13

$$$$
