2293.cdx
  Mrv1902 05222410232D          

 56 60  0  0  0  0            999 V2000
    4.8635   -5.2473    0.0000 C   0  0  0  0  0  0  0  0  0  0  0  0
    4.8635   -4.4223    0.0000 C   0  0  0  0  0  0  0  0  0  0  0  0
    4.1490   -4.0098    0.0000 C   0  0  0  0  0  0  0  0  0  0  0  0
    4.1490   -3.1848    0.0000 C   0  0  0  0  0  0  0  0  0  0  0  0
    4.8635   -2.7723    0.0000 C   0  0  0  0  0  0  0  0  0  0  0  0
    5.5780   -3.1848    0.0000 C   0  0  0  0  0  0  0  0  0  0  0  0
    5.5780   -4.0098    0.0000 C   0  0  0  0  0  0  0  0  0  0  0  0
    4.1490   -5.6598    0.0000 O   0  0  0  0  0  0  0  0  0  0  0  0
    5.5780   -5.6598    0.0000 O   0  0  0  0  0  0  0  0  0  0  0  0
    6.2924   -2.7723    0.0000 O   0  0  0  0  0  0  0  0  0  0  0  0
    4.8635   -1.9473    0.0000 O   0  0  0  0  0  0  0  0  0  0  0  0
    3.4346   -2.7723    0.0000 O   0  0  0  0  0  0  0  0  0  0  0  0
    5.5780   -6.4848    0.0000 C   0  0  0  0  0  0  0  0  0  0  0  0
    7.0069   -6.4848    0.0000 O   0  0  0  0  0  0  0  0  0  0  0  0
    6.2924   -6.8973    0.0000 C   0  0  1  0  0  0  0  0  0  0  0  0
    6.2924   -7.7223    0.0000 C   0  0  2  0  0  0  0  0  0  0  0  0
    7.0069   -8.1348    0.0000 C   0  0  1  0  0  0  0  0  0  0  0  0
    7.7214   -7.7223    0.0000 C   0  0  2  0  0  0  0  0  0  0  0  0
    7.7214   -6.8973    0.0000 C   0  0  2  0  0  0  0  0  0  0  0  0
    8.4359   -6.4848    0.0000 O   0  0  0  0  0  0  0  0  0  0  0  0
    8.4359   -5.6598    0.0000 C   0  0  0  0  0  0  0  0  0  0  0  0
    9.1503   -5.2473    0.0000 C   0  0  0  0  0  0  0  0  0  0  0  0
    9.1503   -4.4223    0.0000 C   0  0  0  0  0  0  0  0  0  0  0  0
    9.8648   -4.0098    0.0000 C   0  0  0  0  0  0  0  0  0  0  0  0
   10.5793   -4.4223    0.0000 C   0  0  0  0  0  0  0  0  0  0  0  0
   10.5793   -5.2473    0.0000 C   0  0  0  0  0  0  0  0  0  0  0  0
    9.8648   -5.6598    0.0000 C   0  0  0  0  0  0  0  0  0  0  0  0
    7.7214   -5.2473    0.0000 O   0  0  0  0  0  0  0  0  0  0  0  0
   11.2937   -5.6598    0.0000 O   0  0  0  0  0  0  0  0  0  0  0  0
   11.2937   -4.0098    0.0000 O   0  0  0  0  0  0  0  0  0  0  0  0
    9.8648   -3.1848    0.0000 O   0  0  0  0  0  0  0  0  0  0  0  0
    8.4359   -8.1348    0.0000 O   0  0  0  0  0  0  0  0  0  0  0  0
    7.0069   -8.9598    0.0000 O   0  0  0  0  0  0  0  0  0  0  0  0
    7.7214   -9.3723    0.0000 C   0  0  0  0  0  0  0  0  0  0  0  0
    7.7214  -10.1973    0.0000 C   0  0  0  0  0  0  0  0  0  0  0  0
    8.4359  -10.6098    0.0000 C   0  0  0  0  0  0  0  0  0  0  0  0
    8.4359  -11.4348    0.0000 C   0  0  0  0  0  0  0  0  0  0  0  0
    7.7214  -11.8473    0.0000 C   0  0  0  0  0  0  0  0  0  0  0  0
    7.0069  -11.4348    0.0000 C   0  0  0  0  0  0  0  0  0  0  0  0
    7.0069  -10.6098    0.0000 C   0  0  0  0  0  0  0  0  0  0  0  0
    8.4359   -8.9598    0.0000 O   0  0  0  0  0  0  0  0  0  0  0  0
    6.2924  -11.8473    0.0000 O   0  0  0  0  0  0  0  0  0  0  0  0
    7.7214  -12.6723    0.0000 O   0  0  0  0  0  0  0  0  0  0  0  0
    9.1503  -11.8473    0.0000 O   0  0  0  0  0  0  0  0  0  0  0  0
    5.5780   -8.1348    0.0000 O   0  0  0  0  0  0  0  0  0  0  0  0
    4.8635   -7.7223    0.0000 C   0  0  0  0  0  0  0  0  0  0  0  0
    4.1490   -8.1348    0.0000 C   0  0  0  0  0  0  0  0  0  0  0  0
    4.1490   -8.9598    0.0000 C   0  0  0  0  0  0  0  0  0  0  0  0
    3.4346   -9.3723    0.0000 C   0  0  0  0  0  0  0  0  0  0  0  0
    2.7201   -8.9598    0.0000 C   0  0  0  0  0  0  0  0  0  0  0  0
    2.7201   -8.1348    0.0000 C   0  0  0  0  0  0  0  0  0  0  0  0
    3.4346   -7.7223    0.0000 C   0  0  0  0  0  0  0  0  0  0  0  0
    4.8635   -6.8973    0.0000 O   0  0  0  0  0  0  0  0  0  0  0  0
    2.0056   -7.7223    0.0000 O   0  0  0  0  0  0  0  0  0  0  0  0
    2.0056   -9.3723    0.0000 O   0  0  0  0  0  0  0  0  0  0  0  0
    3.4346  -10.1973    0.0000 O   0  0  0  0  0  0  0  0  0  0  0  0
  1  2  1  0  0  0  0
  2  3  1  0  0  0  0
  3  4  2  0  0  0  0
  4  5  1  0  0  0  0
  5  6  2  0  0  0  0
  6  7  1  0  0  0  0
  2  7  2  0  0  0  0
  1  8  2  0  0  0  0
  1  9  1  0  0  0  0
  6 10  1  0  0  0  0
  5 11  1  0  0  0  0
  4 12  1  0  0  0  0
 14 15  1  0  0  0  0
 15 16  1  0  0  0  0
 16 17  1  0  0  0  0
 17 18  1  0  0  0  0
 18 19  1  0  0  0  0
 14 19  1  0  0  0  0
 21 22  1  0  0  0  0
 22 23  1  0  0  0  0
 23 24  2  0  0  0  0
 24 25  1  0  0  0  0
 25 26  2  0  0  0  0
 26 27  1  0  0  0  0
 22 27  2  0  0  0  0
 21 28  2  0  0  0  0
 26 29  1  0  0  0  0
 25 30  1  0  0  0  0
 24 31  1  0  0  0  0
 20 21  1  0  0  0  0
 19 20  1  1  0  0  0
 18 32  1  6  0  0  0
 34 35  1  0  0  0  0
 35 36  1  0  0  0  0
 36 37  2  0  0  0  0
 37 38  1  0  0  0  0
 38 39  2  0  0  0  0
 39 40  1  0  0  0  0
 35 40  2  0  0  0  0
 34 41  2  0  0  0  0
 39 42  1  0  0  0  0
 38 43  1  0  0  0  0
 37 44  1  0  0  0  0
 33 34  1  0  0  0  0
 17 33  1  1  0  0  0
 46 47  1  0  0  0  0
 47 48  1  0  0  0  0
 48 49  2  0  0  0  0
 49 50  1  0  0  0  0
 50 51  2  0  0  0  0
 51 52  1  0  0  0  0
 47 52  2  0  0  0  0
 46 53  2  0  0  0  0
 51 54  1  0  0  0  0
 50 55  1  0  0  0  0
 49 56  1  0  0  0  0
 45 46  1  0  0  0  0
 16 45  1  6  0  0  0
 15 13  1  1  0  0  0
  9 13  1  0  0  0  0
M  END
>  <cdx:fragmentId>
45

$$$$
