101229397.cdx
  Mrv1902 05222410232D          

 36 38  0  0  0  0            999 V2000
    6.4752  -17.5774    0.0000 C   0  0  0  0  0  0  0  0  0  0  0  0
    7.1203  -17.0630    0.0000 O   0  0  0  0  0  0  0  0  0  0  0  0
    7.4782  -16.3197    0.0000 C   0  0  1  0  0  0  0  0  0  0  0  0
    8.2628  -16.5746    0.0000 C   0  0  0  0  0  0  0  0  0  0  0  0
    8.7478  -15.9072    0.0000 C   0  0  0  0  0  0  0  0  0  0  0  0
    8.2628  -15.2398    0.0000 N   0  0  0  0  0  0  0  0  0  0  0  0
    7.4782  -15.4947    0.0000 C   0  0  0  0  0  0  0  0  0  0  0  0
    7.1203  -14.7514    0.0000 C   0  0  0  0  0  0  0  0  0  0  0  0
    6.4752  -14.2370    0.0000 N   0  0  0  0  0  0  0  0  0  0  0  0
    5.6709  -14.0534    0.0000 C   0  0  2  0  0  0  0  0  0  0  0  0
    4.8666  -14.2370    0.0000 C   0  0  0  0  0  0  0  0  0  0  0  0
    4.2216  -14.7514    0.0000 N   0  0  0  0  0  0  0  0  0  0  0  0
    3.8636  -15.4947    0.0000 C   0  0  0  0  0  0  0  0  0  0  0  0
    3.8636  -16.3197    0.0000 C   0  0  0  0  0  0  0  0  0  0  0  0
    4.2216  -17.0630    0.0000 C   0  0  0  0  0  0  0  0  0  0  0  0
    5.0274  -16.8776    0.0000 C   0  0  0  0  0  0  0  0  0  0  0  0
    5.8317  -17.0611    0.0000 C   0  0  0  0  0  0  0  0  0  0  0  0
    5.6709  -17.7610    0.0000 C   0  0  0  0  0  0  0  0  0  0  0  0
    4.8666  -17.5774    0.0000 C   0  0  0  0  0  0  0  0  0  0  0  0
    7.7653  -14.2370    0.0000 O   0  0  0  0  0  0  0  0  0  0  0  0
    4.4541  -13.5225    0.0000 O   0  0  0  0  0  0  0  0  0  0  0  0
    8.5178  -14.4551    0.0000 C   0  0  0  0  0  0  0  0  0  0  0  0
    9.3247  -14.2836    0.0000 C   0  0  2  0  0  0  0  0  0  0  0  0
    9.5797  -13.4990    0.0000 C   0  0  0  0  0  0  0  0  0  0  0  0
   10.3867  -13.3275    0.0000 C   0  0  0  0  0  0  0  0  0  0  0  0
   10.6416  -12.5428    0.0000 C   0  0  0  0  0  0  0  0  0  0  0  0
    7.9657  -13.8420    0.0000 O   0  0  0  0  0  0  0  0  0  0  0  0
    9.0276  -12.8859    0.0000 C   0  0  0  0  0  0  0  0  0  0  0  0
    9.8768  -14.8967    0.0000 N   0  0  0  0  0  0  0  0  0  0  0  0
   10.6837  -14.7252    0.0000 C   0  0  0  0  0  0  0  0  0  0  0  0
    9.6218  -15.6813    0.0000 C   0  0  0  0  0  0  0  0  0  0  0  0
    6.3854  -12.8159    0.0000 C   0  0  0  0  0  0  0  0  0  0  0  0
    5.6709  -13.2284    0.0000 C   0  0  0  0  0  0  0  0  0  0  0  0
    4.9565  -12.8159    0.0000 C   0  0  0  0  0  0  0  0  0  0  0  0
    4.9565  -11.9909    0.0000 C   0  0  0  0  0  0  0  0  0  0  0  0
    7.8025  -17.0783    0.0000 H   0  0  0  0  0  0  0  0  0  0  0  0
  1  2  1  0  0  0  0
  2  3  1  0  0  0  0
  3  4  1  0  0  0  0
  4  5  1  0  0  0  0
  5  6  1  0  0  0  0
  6  7  1  0  0  0  0
  7  8  1  0  0  0  0
  8  9  1  0  0  0  0
 10  9  1  6  0  0  0
 10 11  1  0  0  0  0
 11 12  1  0  0  0  0
 12 13  1  0  0  0  0
 13 14  2  0  0  0  0
 14 15  1  0  0  0  0
 15 16  1  0  0  0  0
 16 17  2  0  0  0  0
 18 19  1  0  0  0  0
  1 17  1  0  0  0  0
  1 18  2  0  0  0  0
 19 15  2  0  0  0  0
  3  7  1  0  0  0  0
  8 20  2  0  0  0  0
 11 21  2  0  0  0  0
 22 23  1  0  0  0  0
 23 24  1  0  0  0  0
 24 25  1  0  0  0  0
 25 26  1  0  0  0  0
 22 27  2  0  0  0  0
 24 28  1  0  0  0  0
 29 30  1  0  0  0  0
 29 31  1  0  0  0  0
 23 29  1  6  0  0  0
  6 22  1  0  0  0  0
 32 33  1  0  0  0  0
 33 34  1  0  0  0  0
 34 35  1  0  0  0  0
 10 33  1  0  0  0  0
  3 36  1  1  0  0  0
M  END
>  <cdx:groupId>
234975

>  <cdx:fragmentId>
234868

$$$$
