229385.cdx
  Mrv1902 05222410212D          

 15 14  0  0  0  0            999 V2000
   12.2536  -13.4726    0.0000 C   0  0  0  0  0  0  0  0  0  0  0  0
   11.5392  -13.8851    0.0000 C   0  0  0  0  0  0  0  0  0  0  0  0
   10.8247  -13.4726    0.0000 C   0  0  0  0  0  0  0  0  0  0  0  0
   12.2536  -12.6476    0.0000 O   0  0  0  0  0  0  0  0  0  0  0  0
   12.9681  -13.8851    0.0000 O   0  0  0  0  0  0  0  0  0  0  0  0
   13.6826  -13.4726    0.0000 C   0  0  0  0  0  0  0  0  0  0  0  0
   14.3970  -13.8851    0.0000 C   0  0  0  0  0  0  0  0  0  0  0  0
   15.1115  -13.4726    0.0000 C   0  0  0  0  0  0  0  0  0  0  0  0
   15.8260  -13.8851    0.0000 C   0  0  0  0  0  0  0  0  0  0  0  0
   16.5405  -13.4726    0.0000 C   0  0  0  0  0  0  0  0  0  0  0  0
   17.2549  -13.8851    0.0000 C   0  0  0  0  0  0  0  0  0  0  0  0
   17.9694  -13.4726    0.0000 C   0  0  0  0  0  0  0  0  0  0  0  0
   18.6839  -13.8851    0.0000 C   0  0  0  0  0  0  0  0  0  0  0  0
   19.3983  -13.4726    0.0000 C   0  0  0  0  0  0  0  0  0  0  0  0
   20.1128  -13.8851    0.0000 C   0  0  0  0  0  0  0  0  0  0  0  0
  1  2  1  0  0  0  0
  2  3  1  0  0  0  0
  1  4  2  0  0  0  0
  1  5  1  0  0  0  0
  6  7  1  0  0  0  0
  7  8  1  0  0  0  0
  8  9  1  0  0  0  0
  9 10  1  0  0  0  0
 10 11  1  0  0  0  0
 11 12  1  0  0  0  0
 12 13  1  0  0  0  0
 13 14  1  0  0  0  0
 14 15  1  0  0  0  0
  5  6  1  0  0  0  0
M  END
>  <cdx:groupId>
3909

>  <cdx:fragmentId>
3878

$$$$
