2294.cdx
  Mrv1902 05222410252D          

 49 52  0  0  0  0            999 V2000
    8.9671   -7.0755    0.0000 C   0  0  2  0  0  0  0  0  0  0  0  0
    8.2520   -7.4869    0.0000 C   0  0  0  0  0  0  0  0  0  0  0  0
    8.2507   -8.3119    0.0000 C   0  0  2  0  0  0  0  0  0  0  0  0
    8.9645   -8.7255    0.0000 C   0  0  1  0  0  0  0  0  0  0  0  0
    9.6797   -8.3141    0.0000 C   0  0  1  0  0  0  0  0  0  0  0  0
    9.6809   -7.4891    0.0000 C   0  0  0  0  0  0  0  0  0  0  0  0
    7.5356   -8.7233    0.0000 O   0  0  0  0  0  0  0  0  0  0  0  0
    8.5546   -6.3610    0.0000 O   0  0  0  0  0  0  0  0  0  0  0  0
    9.3796   -6.3610    0.0000 C   0  0  0  0  0  0  0  0  0  0  0  0
    8.9671   -5.6466    0.0000 O   0  0  0  0  0  0  0  0  0  0  0  0
   10.2046   -6.3610    0.0000 O   0  0  0  0  0  0  0  0  0  0  0  0
    7.7230   -6.3367    0.0000 C   0  0  0  0  0  0  0  0  0  0  0  0
    7.3170   -5.6186    0.0000 C   0  0  0  0  0  0  0  0  0  0  0  0
    6.4920   -5.6112    0.0000 C   0  0  0  0  0  0  0  0  0  0  0  0
    7.3041   -7.0475    0.0000 O   0  0  0  0  0  0  0  0  0  0  0  0
    6.0859   -4.8930    0.0000 C   0  0  0  0  0  0  0  0  0  0  0  0
    6.5048   -4.1823    0.0000 C   0  0  0  0  0  0  0  0  0  0  0  0
    6.0988   -3.4642    0.0000 C   0  0  0  0  0  0  0  0  0  0  0  0
    5.2738   -3.4567    0.0000 C   0  0  0  0  0  0  0  0  0  0  0  0
    4.8549   -4.1675    0.0000 C   0  0  0  0  0  0  0  0  0  0  0  0
    5.2610   -4.8856    0.0000 C   0  0  0  0  0  0  0  0  0  0  0  0
    4.8677   -2.7386    0.0000 O   0  0  0  0  0  0  0  0  0  0  0  0
    6.5177   -2.7534    0.0000 O   0  0  0  0  0  0  0  0  0  0  0  0
   10.3935   -8.7277    0.0000 O   0  0  0  0  0  0  0  0  0  0  0  0
   11.8118  -13.6828    0.0000 O   0  0  0  0  0  0  0  0  0  0  0  0
   10.3807  -14.5027    0.0000 O   0  0  0  0  0  0  0  0  0  0  0  0
    9.6729  -12.4386    0.0000 C   0  0  0  0  0  0  0  0  0  0  0  0
    9.6704  -13.2636    0.0000 C   0  0  0  0  0  0  0  0  0  0  0  0
   10.3832  -13.6777    0.0000 C   0  0  0  0  0  0  0  0  0  0  0  0
   11.0987  -13.2680    0.0000 C   0  0  0  0  0  0  0  0  0  0  0  0
   11.1012  -12.4430    0.0000 C   0  0  0  0  0  0  0  0  0  0  0  0
   10.3884  -12.0277    0.0000 C   0  0  0  0  0  0  0  0  0  0  0  0
   10.3896  -11.2027    0.0000 C   0  0  0  0  0  0  0  0  0  0  0  0
    9.6758  -10.7891    0.0000 C   0  0  0  0  0  0  0  0  0  0  0  0
   10.3922   -9.5527    0.0000 O   0  0  0  0  0  0  0  0  0  0  0  0
    9.6771   -9.9641    0.0000 C   0  0  0  0  0  0  0  0  0  0  0  0
    8.9633   -9.5505    0.0000 O   0  0  0  0  0  0  0  0  0  0  0  0
    6.8218   -8.3097    0.0000 C   0  0  0  0  0  0  0  0  0  0  0  0
    6.1067   -8.7211    0.0000 C   0  0  0  0  0  0  0  0  0  0  0  0
    6.8231   -7.4847    0.0000 O   0  0  0  0  0  0  0  0  0  0  0  0
    5.3928   -8.3075    0.0000 C   0  0  0  0  0  0  0  0  0  0  0  0
    4.6777   -8.7189    0.0000 C   0  0  0  0  0  0  0  0  0  0  0  0
    3.9645   -8.3041    0.0000 C   0  0  0  0  0  0  0  0  0  0  0  0
    3.2488   -8.7189    0.0000 C   0  0  0  0  0  0  0  0  0  0  0  0
    3.2488   -9.5439    0.0000 C   0  0  0  0  0  0  0  0  0  0  0  0
    3.9645   -9.9586    0.0000 C   0  0  0  0  0  0  0  0  0  0  0  0
    4.6777   -9.5439    0.0000 C   0  0  0  0  0  0  0  0  0  0  0  0
    2.5340   -9.9558    0.0000 O   0  0  0  0  0  0  0  0  0  0  0  0
    2.5340   -8.3069    0.0000 O   0  0  0  0  0  0  0  0  0  0  0  0
 30 25  1  0  0  0  0
  1  2  1  0  0  0  0
  2  3  1  0  0  0  0
  3  4  1  0  0  0  0
  4  5  1  0  0  0  0
  5  6  1  0  0  0  0
  1  6  1  0  0  0  0
  5 24  1  1  0  0  0
  4 37  1  1  0  0  0
  3  7  1  6  0  0  0
  1  8  1  1  0  0  0
  1  9  1  0  0  0  0
  9 10  2  0  0  0  0
  9 11  1  0  0  0  0
 12 13  1  0  0  0  0
 13 14  2  0  0  0  0
 12 15  2  0  0  0  0
 16 17  1  0  0  0  0
 17 18  2  0  0  0  0
 18 19  1  0  0  0  0
 19 20  2  0  0  0  0
 20 21  1  0  0  0  0
 16 21  2  0  0  0  0
 19 22  1  0  0  0  0
 18 23  1  0  0  0  0
 14 16  1  0  0  0  0
 12  8  1  0  0  0  0
 29 26  1  0  0  0  0
 27 32  1  0  0  0  0
 28 27  2  0  0  0  0
 29 28  1  0  0  0  0
 30 29  2  0  0  0  0
 31 30  1  0  0  0  0
 32 31  2  0  0  0  0
 33 32  1  0  0  0  0
 34 33  2  0  0  0  0
 36 34  1  0  0  0  0
 36 35  2  0  0  0  0
 37 36  1  0  0  0  0
  7 38  1  0  0  0  0
 38 39  1  0  0  0  0
 38 40  2  0  0  0  0
 39 41  2  0  0  0  0
 41 42  1  0  0  0  0
 42 43  2  0  0  0  0
 43 44  1  0  0  0  0
 44 45  2  0  0  0  0
 45 46  1  0  0  0  0
 46 47  2  0  0  0  0
 47 42  1  0  0  0  0
 45 48  1  0  0  0  0
 44 49  1  0  0  0  0
M  END
>  <cdx:fragmentId>
37

$$$$
