22957.cdx
  Mrv1902 05222410242D          

 25 28  0  0  0  0            999 V2000
    7.1317   -8.7774    0.0000 C   0  0  0  0  0  0  0  0  0  0  0  0
    7.8461   -8.3649    0.0000 N   0  3  0  0  0  0  0  0  0  0  0  0
    7.8461   -7.5399    0.0000 C   0  0  0  0  0  0  0  0  0  0  0  0
    7.1317   -7.1274    0.0000 C   0  0  0  0  0  0  0  0  0  0  0  0
    6.4172   -7.5399    0.0000 C   0  0  0  0  0  0  0  0  0  0  0  0
    5.7027   -7.1274    0.0000 C   0  0  0  0  0  0  0  0  0  0  0  0
    4.9883   -7.5399    0.0000 C   0  0  0  0  0  0  0  0  0  0  0  0
    4.9883   -8.3649    0.0000 C   0  0  0  0  0  0  0  0  0  0  0  0
    5.7027   -8.7774    0.0000 C   0  0  0  0  0  0  0  0  0  0  0  0
    6.4172   -8.3649    0.0000 C   0  0  0  0  0  0  0  0  0  0  0  0
    8.5606   -8.7774    0.0000 C   0  0  0  0  0  0  0  0  0  0  0  0
    9.2751   -8.3649    0.0000 C   0  0  0  0  0  0  0  0  0  0  0  0
    9.2751   -7.5399    0.0000 C   0  0  0  0  0  0  0  0  0  0  0  0
    9.9896   -7.1274    0.0000 C   0  0  0  0  0  0  0  0  0  0  0  0
    9.9896   -6.3024    0.0000 C   0  0  0  0  0  0  0  0  0  0  0  0
    9.2751   -5.8899    0.0000 C   0  0  0  0  0  0  0  0  0  0  0  0
    8.5606   -6.3024    0.0000 C   0  0  0  0  0  0  0  0  0  0  0  0
    8.5606   -7.1274    0.0000 C   0  0  0  0  0  0  0  0  0  0  0  0
    9.2751   -5.0649    0.0000 O   0  0  0  0  0  0  0  0  0  0  0  0
    5.7027   -9.6024    0.0000 O   0  0  0  0  0  0  0  0  0  0  0  0
    4.2738   -8.7774    0.0000 O   0  0  0  0  0  0  0  0  0  0  0  0
    3.5593   -8.3649    0.0000 C   0  0  0  0  0  0  0  0  0  0  0  0
   10.7040   -5.8899    0.0000 O   0  0  0  0  0  0  0  0  0  0  0  0
    7.8461   -9.1899    0.0000 C   0  0  0  0  0  0  0  0  0  0  0  0
    8.5606   -4.6524    0.0000 C   0  0  0  0  0  0  0  0  0  0  0  0
  1  2  1  0  0  0  0
  2  3  1  0  0  0  0
  3  4  1  0  0  0  0
  4  5  1  0  0  0  0
  5  6  1  0  0  0  0
  6  7  2  0  0  0  0
  7  8  1  0  0  0  0
  8  9  2  0  0  0  0
  9 10  1  0  0  0  0
  1 10  1  0  0  0  0
  5 10  2  0  0  0  0
 11 12  1  0  0  0  0
 12 13  1  0  0  0  0
 13 14  1  0  0  0  0
 14 15  2  0  0  0  0
 15 16  1  0  0  0  0
 16 17  2  0  0  0  0
 17 18  1  0  0  0  0
 13 18  2  0  0  0  0
  2 11  1  0  0  0  0
  3 18  1  0  0  0  0
 16 19  1  0  0  0  0
  9 20  1  0  0  0  0
 21 22  1  0  0  0  0
  8 21  1  0  0  0  0
 15 23  1  0  0  0  0
  2 24  1  0  0  0  0
 19 25  1  0  0  0  0
M  CHG  1   2   1
M  END
>  <cdx:fragmentId>
63123

$$$$
