22956.cdx
  Mrv1902 05222410242D          

 15 15  0  0  0  0            999 V2000
    6.6831   -7.3320    0.0000 C   0  0  0  0  0  0  0  0  0  0  0  0
    6.6814   -6.5070    0.0000 C   0  0  0  0  0  0  0  0  0  0  0  0
    5.9661   -6.0959    0.0000 C   0  0  0  0  0  0  0  0  0  0  0  0
    5.2525   -6.5099    0.0000 C   0  0  0  0  0  0  0  0  0  0  0  0
    5.2541   -7.3349    0.0000 C   0  0  0  0  0  0  0  0  0  0  0  0
    5.9695   -7.7459    0.0000 C   0  0  0  0  0  0  0  0  0  0  0  0
    4.5405   -7.7488    0.0000 O   0  0  0  0  0  0  0  0  0  0  0  0
    4.5372   -6.0988    0.0000 O   0  0  0  0  0  0  0  0  0  0  0  0
    7.3984   -7.7430    0.0000 C   0  0  0  0  0  0  0  0  0  0  0  0
    8.1120   -7.3290    0.0000 C   0  0  0  0  0  0  0  0  0  0  0  0
    8.8273   -7.7401    0.0000 C   0  0  0  0  0  0  0  0  0  0  0  0
    9.5410   -7.3261    0.0000 O   0  0  0  0  0  0  0  0  0  0  0  0
    3.8252   -7.3378    0.0000 C   0  0  0  0  0  0  0  0  0  0  0  0
   10.2563   -7.7372    0.0000 C   0  0  0  0  0  0  0  0  0  0  0  0
   10.9699   -7.3232    0.0000 C   0  0  0  0  0  0  0  0  0  0  0  0
  1  2  1  0  0  0  0
  2  3  2  0  0  0  0
  3  4  1  0  0  0  0
  4  5  2  0  0  0  0
  5  6  1  0  0  0  0
  1  6  2  0  0  0  0
  5  7  1  0  0  0  0
  4  8  1  0  0  0  0
  1  9  1  0  0  0  0
  9 10  2  0  0  0  0
 10 11  1  0  0  0  0
 11 12  1  0  0  0  0
  7 13  1  0  0  0  0
 12 14  1  0  0  0  0
 14 15  1  0  0  0  0
M  END
>  <cdx:fragmentId>
63197

$$$$
