22989.cdx
  Mrv1902 05222410212D          

 59 63  0  0  0  0            999 V2000
    6.0466   -6.2694    0.0000 N   0  0  0  0  0  0  0  0  0  0  0  0
    5.3497   -6.7109    0.0000 C   0  0  0  0  0  0  0  0  0  0  0  0
    4.6188   -6.3282    0.0000 C   0  0  2  0  0  0  0  0  0  0  0  0
    4.4142   -5.5290    0.0000 C   0  0  0  0  0  0  0  0  0  0  0  0
    3.5909   -5.4766    0.0000 C   0  0  0  0  0  0  0  0  0  0  0  0
    3.2866   -6.2435    0.0000 C   0  0  0  0  0  0  0  0  0  0  0  0
    3.9219   -6.7698    0.0000 N   0  0  0  0  0  0  0  0  0  0  0  0
    3.9559   -7.5941    0.0000 C   0  0  0  0  0  0  0  0  0  0  0  0
    3.2590   -8.0356    0.0000 C   0  0  2  0  0  0  0  0  0  0  0  0
    2.4646   -7.8132    0.0000 C   0  0  0  0  0  0  0  0  0  0  0  0
    2.0076   -8.5001    0.0000 C   0  0  0  0  0  0  0  0  0  0  0  0
    2.5196   -9.1470    0.0000 C   0  0  0  0  0  0  0  0  0  0  0  0
    3.2930   -8.8599    0.0000 N   0  0  0  0  0  0  0  0  0  0  0  0
    4.0239   -9.2427    0.0000 C   0  0  0  0  0  0  0  0  0  0  0  0
    4.7207   -8.8011    0.0000 C   0  0  1  0  0  0  0  0  0  0  0  0
    5.4516   -9.1838    0.0000 N   0  0  0  0  0  0  0  0  0  0  0  0
    5.4856  -10.0081    0.0000 C   0  0  0  0  0  0  0  0  0  0  0  0
    6.2164  -10.3909    0.0000 C   0  0  0  0  0  0  0  0  0  0  0  0
    6.9133   -9.9493    0.0000 N   0  0  0  0  0  0  0  0  0  0  0  0
    7.6442  -10.3320    0.0000 C   0  0  0  0  0  0  0  0  0  0  0  0
    8.3410   -9.8904    0.0000 C   0  0  0  0  0  0  0  0  0  0  0  0
    9.0719  -10.2732    0.0000 N   0  0  0  0  0  0  0  0  0  0  0  0
    9.7688   -9.8316    0.0000 C   0  0  0  0  0  0  0  0  0  0  0  0
    9.7348   -9.0073    0.0000 C   0  0  1  0  0  0  0  0  0  0  0  0
    9.0039   -8.6246    0.0000 N   0  0  0  0  0  0  0  0  0  0  0  0
    8.9700   -7.8003    0.0000 C   0  0  0  0  0  0  0  0  0  0  0  0
    8.2391   -7.4175    0.0000 C   0  0  1  0  0  0  0  0  0  0  0  0
    7.5422   -7.8591    0.0000 N   0  0  0  0  0  0  0  0  0  0  0  0
    6.8114   -7.4764    0.0000 C   0  0  0  0  0  0  0  0  0  0  0  0
    6.7774   -6.6521    0.0000 C   0  0  2  0  0  0  0  0  0  0  0  0
    7.3672   -6.0753    0.0000 C   0  0  0  0  0  0  0  0  0  0  0  0
    7.0009   -5.3360    0.0000 C   0  0  0  0  0  0  0  0  0  0  0  0
    6.1847   -5.4560    0.0000 C   0  0  0  0  0  0  0  0  0  0  0  0
    5.3497   -7.2616    0.0000 O   0  0  0  0  0  0  0  0  0  0  0  0
    4.4922   -7.9037    0.0000 O   0  0  0  0  0  0  0  0  0  0  0  0
    4.0239  -10.0677    0.0000 O   0  0  0  0  0  0  0  0  0  0  0  0
    4.7711  -10.4206    0.0000 O   0  0  0  0  0  0  0  0  0  0  0  0
    7.6442  -11.1570    0.0000 O   0  0  0  0  0  0  0  0  0  0  0  0
   10.4832  -10.2441    0.0000 O   0  0  0  0  0  0  0  0  0  0  0  0
    9.6844   -7.3878    0.0000 O   0  0  0  0  0  0  0  0  0  0  0  0
    6.2868   -7.7793    0.0000 O   0  0  0  0  0  0  0  0  0  0  0  0
    7.9910   -6.0103    0.0000 C   0  0  0  0  0  0  0  0  0  0  0  0
    8.5213   -6.6423    0.0000 C   0  0  1  0  0  0  0  0  0  0  0  0
    9.3337   -6.4990    0.0000 C   0  0  0  0  0  0  0  0  0  0  0  0
    9.6159   -5.7238    0.0000 C   0  0  0  0  0  0  0  0  0  0  0  0
   10.4493   -8.5948    0.0000 C   0  0  0  0  0  0  0  0  0  0  0  0
   11.1637   -9.0073    0.0000 C   0  0  0  0  0  0  0  0  0  0  0  0
   11.8782   -8.5948    0.0000 C   0  0  0  0  0  0  0  0  0  0  0  0
   12.5927   -9.0073    0.0000 C   0  0  0  0  0  0  0  0  0  0  0  0
   12.5927   -9.8323    0.0000 C   0  0  0  0  0  0  0  0  0  0  0  0
   11.8782  -10.2448    0.0000 C   0  0  0  0  0  0  0  0  0  0  0  0
   11.1637   -9.8323    0.0000 C   0  0  0  0  0  0  0  0  0  0  0  0
    5.2657   -5.8162    0.0000 H   0  0  0  0  0  0  0  0  0  0  0  0
    3.2590   -7.2324    0.0000 H   0  0  0  0  0  0  0  0  0  0  0  0
    7.5443   -6.9563    0.0000 H   0  0  0  0  0  0  0  0  0  0  0  0
    4.6868   -7.9768    0.0000 C   0  0  0  0  0  0  0  0  0  0  0  0
    5.5275   -7.5625    0.0000 C   0  0  0  0  0  0  0  0  0  0  0  0
    5.5275   -6.9294    0.0000 C   0  0  0  0  0  0  0  0  0  0  0  0
    6.1065   -7.9329    0.0000 C   0  0  0  0  0  0  0  0  0  0  0  0
  1  2  1  0  0  0  0
  2  3  1  0  0  0  0
  3  4  1  0  0  0  0
  4  5  1  0  0  0  0
  5  6  1  0  0  0  0
  6  7  1  0  0  0  0
  7  8  1  0  0  0  0
  8  9  1  0  0  0  0
  9 10  1  0  0  0  0
 10 11  1  0  0  0  0
 11 12  1  0  0  0  0
 12 13  1  0  0  0  0
 13 14  1  0  0  0  0
 14 15  1  0  0  0  0
 15 16  1  0  0  0  0
 16 17  1  0  0  0  0
 17 18  1  0  0  0  0
 18 19  1  0  0  0  0
 19 20  1  0  0  0  0
 20 21  1  0  0  0  0
 21 22  1  0  0  0  0
 22 23  1  0  0  0  0
 23 24  1  0  0  0  0
 24 25  1  0  0  0  0
 25 26  1  0  0  0  0
 26 27  1  0  0  0  0
 27 28  1  1  0  0  0
 28 29  1  0  0  0  0
 29 30  1  0  0  0  0
 30 31  1  0  0  0  0
 31 32  1  0  0  0  0
 32 33  1  0  0  0  0
  1 33  1  0  0  0  0
  1 30  1  0  0  0  0
  9 13  1  0  0  0  0
  3  7  1  0  0  0  0
  2 34  2  0  0  0  0
  8 35  2  0  0  0  0
 14 36  2  0  0  0  0
 17 37  2  0  0  0  0
 20 38  2  0  0  0  0
 23 39  2  0  0  0  0
 26 40  2  0  0  0  0
 29 41  2  0  0  0  0
 43 42  1  1  0  0  0
 43 44  1  0  0  0  0
 44 45  1  0  0  0  0
 27 43  1  0  0  0  0
 46 47  1  0  0  0  0
 47 48  1  0  0  0  0
 48 49  2  0  0  0  0
 49 50  1  0  0  0  0
 50 51  2  0  0  0  0
 51 52  1  0  0  0  0
 47 52  2  0  0  0  0
 24 46  1  1  0  0  0
  3 53  1  6  0  0  0
  9 54  1  6  0  0  0
 30 55  1  6  0  0  0
 15 56  1  6  0  0  0
 56 57  1  0  0  0  0
 57 58  1  0  0  0  0
 57 59  1  0  0  0  0
M  END
>  <cdx:fragmentId>
14393

$$$$
