230158.cdx
  Mrv1902 05222410212D          

 18 19  0  0  0  0            999 V2000
    8.5590   -6.7642    0.0000 C   0  0  2  0  0  0  0  0  0  0  0  0
    9.2735   -6.3517    0.0000 C   0  0  0  0  0  0  0  0  0  0  0  0
    9.2735   -5.5267    0.0000 C   0  0  0  0  0  0  0  0  0  0  0  0
    8.5590   -5.1142    0.0000 C   0  0  2  0  0  0  0  0  0  0  0  0
    7.8445   -5.5267    0.0000 C   0  0  2  0  0  0  0  0  0  0  0  0
    7.1301   -5.1142    0.0000 C   0  0  0  0  0  0  0  0  0  0  0  0
    6.4156   -5.5267    0.0000 C   0  0  1  0  0  0  0  0  0  0  0  0
    6.4156   -6.3517    0.0000 C   0  0  0  0  0  0  0  0  0  0  0  0
    7.1301   -6.7642    0.0000 C   0  0  0  0  0  0  0  0  0  0  0  0
    7.8445   -6.3517    0.0000 C   0  0  1  0  0  0  0  0  0  0  0  0
    8.5590   -7.5892    0.0000 O   0  0  0  0  0  0  0  0  0  0  0  0
    8.1465   -4.3997    0.0000 O   0  0  0  0  0  0  0  0  0  0  0  0
    5.7011   -4.2892    0.0000 C   0  0  0  0  0  0  0  0  0  0  0  0
    5.7011   -5.1142    0.0000 C   0  0  0  0  0  0  0  0  0  0  0  0
    4.9866   -5.5267    0.0000 C   0  0  0  0  0  0  0  0  0  0  0  0
    7.8445   -7.1767    0.0000 C   0  0  0  0  0  0  0  0  0  0  0  0
    8.9715   -4.3997    0.0000 C   0  0  0  0  0  0  0  0  0  0  0  0
    7.8445   -4.7017    0.0000 H   0  0  0  0  0  0  0  0  0  0  0  0
  1  2  1  0  0  0  0
  2  3  1  0  0  0  0
  3  4  1  0  0  0  0
  4  5  1  0  0  0  0
  5  6  1  0  0  0  0
  6  7  1  0  0  0  0
  7  8  1  0  0  0  0
  8  9  1  0  0  0  0
  9 10  1  0  0  0  0
  1 10  1  0  0  0  0
  5 10  1  0  0  0  0
  1 11  1  1  0  0  0
  4 12  1  6  0  0  0
 13 14  2  0  0  0  0
 14 15  1  0  0  0  0
  7 14  1  1  0  0  0
 10 16  1  1  0  0  0
  4 17  1  1  0  0  0
  5 18  1  6  0  0  0
M  END
>  <cdx:fragmentId>
68204

$$$$
