230695.cdx
  Mrv1902 05222410262D          

 43 45  0  0  0  0            999 V2000
    4.0589   -6.7731    0.0000 C   0  0  0  0  0  0  0  0  0  0  0  0
    4.7778   -7.1778    0.0000 C   0  0  0  0  0  0  0  0  0  0  0  0
    5.4877   -6.7576    0.0000 C   0  0  0  0  0  0  0  0  0  0  0  0
    6.2067   -7.1623    0.0000 C   0  0  0  0  0  0  0  0  0  0  0  0
    6.9166   -6.7420    0.0000 C   0  0  0  0  0  0  0  0  0  0  0  0
    7.6355   -7.1467    0.0000 C   0  0  0  0  0  0  0  0  0  0  0  0
    8.3455   -6.7264    0.0000 C   0  0  0  0  0  0  0  0  0  0  0  0
    5.4788   -5.9326    0.0000 O   0  0  0  0  0  0  0  0  0  0  0  0
    3.3490   -7.1934    0.0000 C   0  0  0  0  0  0  0  0  0  0  0  0
    3.3579   -8.0183    0.0000 C   0  0  0  0  0  0  0  0  0  0  0  0
    2.6480   -8.4386    0.0000 C   0  0  0  0  0  0  0  0  0  0  0  0
    1.9291   -8.0339    0.0000 C   0  0  0  0  0  0  0  0  0  0  0  0
    1.9201   -7.2090    0.0000 C   0  0  0  0  0  0  0  0  0  0  0  0
    2.6300   -6.7887    0.0000 C   0  0  0  0  0  0  0  0  0  0  0  0
    1.2192   -8.4542    0.0000 O   0  0  0  0  0  0  0  0  0  0  0  0
    9.0644   -7.1311    0.0000 C   0  0  0  0  0  0  0  0  0  0  0  0
    9.7743   -6.7109    0.0000 C   0  0  0  0  0  0  0  0  0  0  0  0
   10.4932   -7.1156    0.0000 C   0  0  0  0  0  0  0  0  0  0  0  0
   10.5022   -7.9405    0.0000 C   0  0  0  0  0  0  0  0  0  0  0  0
    9.7923   -8.3608    0.0000 C   0  0  0  0  0  0  0  0  0  0  0  0
    9.0734   -7.9561    0.0000 C   0  0  0  0  0  0  0  0  0  0  0  0
   11.2212   -8.3452    0.0000 O   0  0  0  0  0  0  0  0  0  0  0  0
   11.6394   -9.0563    0.0000 C   0  0  1  0  0  0  0  0  0  0  0  0
   12.4642   -9.0730    0.0000 C   0  0  0  0  0  0  0  0  0  0  0  0
   12.8622   -9.7957    0.0000 C   0  0  0  0  0  0  0  0  0  0  0  0
   12.4353  -10.5017    0.0000 C   0  0  2  0  0  0  0  0  0  0  0  0
   11.6105  -10.4850    0.0000 C   0  0  0  0  0  0  0  0  0  0  0  0
   11.2125   -9.7623    0.0000 C   0  0  2  0  0  0  0  0  0  0  0  0
    7.4574  -11.8302    0.0000 C   0  0  0  0  0  0  0  0  0  0  0  0
   13.6870   -9.8124    0.0000 C   0  0  0  0  0  0  0  0  0  0  0  0
   12.8333  -11.2243    0.0000 O   0  0  0  0  0  0  0  0  0  0  0  0
    6.9076   -5.9170    0.0000 O   0  0  0  0  0  0  0  0  0  0  0  0
    7.4863  -10.4016    0.0000 C   0  0  0  0  0  0  0  0  0  0  0  0
    7.8843  -11.1242    0.0000 C   0  0  0  0  0  0  0  0  0  0  0  0
    8.7091  -11.1409    0.0000 C   0  0  0  0  0  0  0  0  0  0  0  0
    9.1360  -10.4349    0.0000 C   0  0  0  0  0  0  0  0  0  0  0  0
    9.9608  -10.4516    0.0000 C   0  0  0  0  0  0  0  0  0  0  0  0
   10.3877   -9.7456    0.0000 C   0  0  2  0  0  0  0  0  0  0  0  0
    9.9897   -9.0230    0.0000 C   0  0  0  0  0  0  0  0  0  0  0  0
   10.8000   -9.0479    0.0000 H   0  0  0  0  0  0  0  0  0  0  0  0
    8.7380   -9.7123    0.0000 O   0  0  0  0  0  0  0  0  0  0  0  0
    1.2012   -6.8043    0.0000 O   0  0  0  0  0  0  0  0  0  0  0  0
    0.4912   -7.2245    0.0000 C   0  0  0  0  0  0  0  0  0  0  0  0
 34 29  1  0  0  0  0
 34 33  1  0  0  0  0
 35 34  2  0  0  0  0
 36 35  1  0  0  0  0
 37 36  1  0  0  0  0
 38 37  1  0  0  0  0
 38 39  1  6  0  0  0
  1  2  2  0  0  0  0
  2  3  1  0  0  0  0
  3  4  1  0  0  0  0
  4  5  2  0  0  0  0
  5  6  1  0  0  0  0
  6  7  2  0  0  0  0
  3  8  2  0  0  0  0
  9 10  1  0  0  0  0
 10 11  2  0  0  0  0
 11 12  1  0  0  0  0
 12 13  2  0  0  0  0
 13 14  1  0  0  0  0
  9 14  2  0  0  0  0
 12 15  1  0  0  0  0
  1  9  1  0  0  0  0
 16 17  1  0  0  0  0
 17 18  2  0  0  0  0
 18 19  1  0  0  0  0
 19 20  2  0  0  0  0
 20 21  1  0  0  0  0
 16 21  2  0  0  0  0
 23 24  1  0  0  0  0
 24 25  2  0  0  0  0
 25 26  1  0  0  0  0
 26 27  1  0  0  0  0
 27 28  1  0  0  0  0
 23 28  1  0  0  0  0
 28 38  1  0  0  0  0
 25 30  1  0  0  0  0
 26 31  1  1  0  0  0
 23 22  1  1  0  0  0
 19 22  1  0  0  0  0
  7 16  1  0  0  0  0
  5 32  1  0  0  0  0
 28 40  1  1  0  0  0
 36 41  2  0  0  0  0
 13 42  1  0  0  0  0
 42 43  1  0  0  0  0
M  END
>  <cdx:fragmentId>
29954

$$$$
