230694.cdx
  Mrv1902 05222410262D          

 40 42  0  0  0  0            999 V2000
    3.4539   -6.8281    0.0000 C   0  0  0  0  0  0  0  0  0  0  0  0
    4.1728   -7.2328    0.0000 C   0  0  0  0  0  0  0  0  0  0  0  0
    4.8827   -6.8126    0.0000 C   0  0  0  0  0  0  0  0  0  0  0  0
    5.6017   -7.2173    0.0000 C   0  0  0  0  0  0  0  0  0  0  0  0
    6.3116   -6.7970    0.0000 C   0  0  0  0  0  0  0  0  0  0  0  0
    7.0305   -7.2017    0.0000 C   0  0  0  0  0  0  0  0  0  0  0  0
    7.7405   -6.7814    0.0000 C   0  0  0  0  0  0  0  0  0  0  0  0
    4.8738   -5.9876    0.0000 O   0  0  0  0  0  0  0  0  0  0  0  0
    2.7440   -7.2484    0.0000 C   0  0  0  0  0  0  0  0  0  0  0  0
    2.7529   -8.0733    0.0000 C   0  0  0  0  0  0  0  0  0  0  0  0
    2.0430   -8.4936    0.0000 C   0  0  0  0  0  0  0  0  0  0  0  0
    1.3241   -8.0889    0.0000 C   0  0  0  0  0  0  0  0  0  0  0  0
    1.3151   -7.2640    0.0000 C   0  0  0  0  0  0  0  0  0  0  0  0
    2.0250   -6.8437    0.0000 C   0  0  0  0  0  0  0  0  0  0  0  0
    0.6142   -8.5092    0.0000 O   0  0  0  0  0  0  0  0  0  0  0  0
    8.4594   -7.1861    0.0000 C   0  0  0  0  0  0  0  0  0  0  0  0
    9.1693   -6.7659    0.0000 C   0  0  0  0  0  0  0  0  0  0  0  0
    9.8882   -7.1706    0.0000 C   0  0  0  0  0  0  0  0  0  0  0  0
    9.8972   -7.9955    0.0000 C   0  0  0  0  0  0  0  0  0  0  0  0
    9.1873   -8.4158    0.0000 C   0  0  0  0  0  0  0  0  0  0  0  0
    8.4684   -8.0111    0.0000 C   0  0  0  0  0  0  0  0  0  0  0  0
   10.6162   -8.4002    0.0000 O   0  0  0  0  0  0  0  0  0  0  0  0
   11.0344   -9.1113    0.0000 C   0  0  1  0  0  0  0  0  0  0  0  0
   11.8592   -9.1280    0.0000 C   0  0  0  0  0  0  0  0  0  0  0  0
   12.2572   -9.8507    0.0000 C   0  0  0  0  0  0  0  0  0  0  0  0
   11.8303  -10.5567    0.0000 C   0  0  2  0  0  0  0  0  0  0  0  0
   11.0055  -10.5400    0.0000 C   0  0  0  0  0  0  0  0  0  0  0  0
   10.6075   -9.8173    0.0000 C   0  0  2  0  0  0  0  0  0  0  0  0
    6.8524  -11.8852    0.0000 C   0  0  0  0  0  0  0  0  0  0  0  0
   13.0820   -9.8674    0.0000 C   0  0  0  0  0  0  0  0  0  0  0  0
   12.2283  -11.2793    0.0000 O   0  0  0  0  0  0  0  0  0  0  0  0
    6.3026   -5.9720    0.0000 O   0  0  0  0  0  0  0  0  0  0  0  0
    6.8813  -10.4566    0.0000 C   0  0  0  0  0  0  0  0  0  0  0  0
    7.2793  -11.1792    0.0000 C   0  0  0  0  0  0  0  0  0  0  0  0
    8.1041  -11.1959    0.0000 C   0  0  0  0  0  0  0  0  0  0  0  0
    8.5310  -10.4899    0.0000 C   0  0  0  0  0  0  0  0  0  0  0  0
    9.3558  -10.5066    0.0000 C   0  0  0  0  0  0  0  0  0  0  0  0
    9.7827   -9.8006    0.0000 C   0  0  2  0  0  0  0  0  0  0  0  0
    9.3847   -9.0780    0.0000 C   0  0  0  0  0  0  0  0  0  0  0  0
   10.1950   -9.1029    0.0000 H   0  0  0  0  0  0  0  0  0  0  0  0
 34 29  1  0  0  0  0
 34 33  1  0  0  0  0
 35 34  2  0  0  0  0
 36 35  1  0  0  0  0
 37 36  1  0  0  0  0
 38 37  1  0  0  0  0
 38 39  1  6  0  0  0
  1  2  2  0  0  0  0
  2  3  1  0  0  0  0
  3  4  1  0  0  0  0
  4  5  2  0  0  0  0
  5  6  1  0  0  0  0
  6  7  2  0  0  0  0
  3  8  2  0  0  0  0
  9 10  1  0  0  0  0
 10 11  2  0  0  0  0
 11 12  1  0  0  0  0
 12 13  2  0  0  0  0
 13 14  1  0  0  0  0
  9 14  2  0  0  0  0
 12 15  1  0  0  0  0
  1  9  1  0  0  0  0
 16 17  1  0  0  0  0
 17 18  2  0  0  0  0
 18 19  1  0  0  0  0
 19 20  2  0  0  0  0
 20 21  1  0  0  0  0
 16 21  2  0  0  0  0
 23 24  1  0  0  0  0
 24 25  2  0  0  0  0
 25 26  1  0  0  0  0
 26 27  1  0  0  0  0
 27 28  1  0  0  0  0
 23 28  1  0  0  0  0
 28 38  1  0  0  0  0
 25 30  1  0  0  0  0
 26 31  1  1  0  0  0
 23 22  1  1  0  0  0
 19 22  1  0  0  0  0
  7 16  1  0  0  0  0
  5 32  1  0  0  0  0
 28 40  1  1  0  0  0
M  END
>  <cdx:fragmentId>
29954

$$$$
