230698.cdx
  Mrv1902 05222410202D          

 38 41  0  0  0  0            999 V2000
    4.7296   -4.5659    0.0000 C   0  0  0  0  0  0  0  0  0  0  0  0
    5.4475   -4.9725    0.0000 C   0  0  0  0  0  0  0  0  0  0  0  0
    6.1585   -4.5540    0.0000 C   0  0  0  0  0  0  0  0  0  0  0  0
    6.8764   -4.9606    0.0000 C   0  0  0  0  0  0  0  0  0  0  0  0
    7.5874   -4.5422    0.0000 C   0  0  0  0  0  0  0  0  0  0  0  0
    8.3053   -4.9487    0.0000 C   0  0  0  0  0  0  0  0  0  0  0  0
    9.0163   -4.5303    0.0000 C   0  0  0  0  0  0  0  0  0  0  0  0
    6.1517   -3.7291    0.0000 O   0  0  0  0  0  0  0  0  0  0  0  0
    9.7342   -4.9369    0.0000 C   0  0  0  0  0  0  0  0  0  0  0  0
   10.4452   -4.5185    0.0000 C   0  0  0  0  0  0  0  0  0  0  0  0
   11.1631   -4.9250    0.0000 C   0  0  0  0  0  0  0  0  0  0  0  0
   11.1699   -5.7500    0.0000 C   0  0  0  0  0  0  0  0  0  0  0  0
   10.4589   -6.1684    0.0000 C   0  0  0  0  0  0  0  0  0  0  0  0
    9.7410   -5.7619    0.0000 C   0  0  0  0  0  0  0  0  0  0  0  0
   11.8741   -4.5066    0.0000 O   0  0  0  0  0  0  0  0  0  0  0  0
   12.5886   -4.9191    0.0000 C   0  0  0  0  0  0  0  0  0  0  0  0
    4.0186   -4.9843    0.0000 C   0  0  0  0  0  0  0  0  0  0  0  0
    3.3007   -4.5777    0.0000 C   0  0  0  0  0  0  0  0  0  0  0  0
    2.5897   -4.9962    0.0000 C   0  0  0  0  0  0  0  0  0  0  0  0
    2.5965   -5.8211    0.0000 C   0  0  0  0  0  0  0  0  0  0  0  0
    3.3144   -6.2277    0.0000 C   0  0  0  0  0  0  0  0  0  0  0  0
    4.0254   -5.8093    0.0000 C   0  0  0  0  0  0  0  0  0  0  0  0
    1.8718   -4.5896    0.0000 O   0  0  0  0  0  0  0  0  0  0  0  0
    1.1608   -5.0080    0.0000 C   0  0  0  0  0  0  0  0  0  0  0  0
    1.8855   -6.2395    0.0000 O   0  0  0  0  0  0  0  0  0  0  0  0
    7.5806   -3.7172    0.0000 O   0  0  0  0  0  0  0  0  0  0  0  0
   13.8577   -8.0904    0.0000 C   0  0  0  0  0  0  0  0  0  0  0  0
   14.2636   -7.3721    0.0000 C   0  0  0  0  0  0  0  0  0  0  0  0
   10.4818   -8.6447    0.0000 C   0  0  0  0  0  0  0  0  0  0  0  0
   12.6213   -8.2124    0.0000 C   0  0  0  0  0  0  0  0  0  0  0  0
   11.9107   -8.6315    0.0000 C   0  0  0  0  0  0  0  0  0  0  0  0
   11.1924   -8.2256    0.0000 C   0  0  0  0  0  0  0  0  0  0  0  0
   11.1848   -7.4006    0.0000 C   0  0  0  0  0  0  0  0  0  0  0  0
   11.8954   -6.9815    0.0000 C   0  0  1  0  0  0  0  0  0  0  0  0
   12.6137   -7.3874    0.0000 C   0  0  1  0  0  0  0  0  0  0  0  0
   13.4386   -7.3798    0.0000 C   0  0  2  0  0  0  0  0  0  0  0  0
   13.0195   -6.6691    0.0000 O   0  0  0  0  0  0  0  0  0  0  0  0
   11.8878   -6.1566    0.0000 O   0  0  0  0  0  0  0  0  0  0  0  0
 34 38  1  6  0  0  0
 36 27  1  0  0  0  0
 36 28  1  0  0  0  0
 32 29  1  0  0  0  0
 30 35  1  0  0  0  0
 35 37  1  6  0  0  0
 31 30  1  0  0  0  0
 32 31  1  0  0  0  0
 33 32  2  0  0  0  0
 34 33  1  0  0  0  0
 35 34  1  0  0  0  0
 36 35  1  0  0  0  0
  1  2  2  0  0  0  0
  2  3  1  0  0  0  0
  3  4  1  0  0  0  0
  4  5  2  0  0  0  0
  5  6  1  0  0  0  0
  6  7  2  0  0  0  0
  3  8  2  0  0  0  0
  9 10  1  0  0  0  0
 10 11  2  0  0  0  0
 11 12  1  0  0  0  0
 12 13  2  0  0  0  0
 13 14  1  0  0  0  0
  9 14  2  0  0  0  0
 36 37  1  6  0  0  0
 12 38  1  0  0  0  0
 15 16  1  0  0  0  0
 11 15  1  0  0  0  0
  7  9  1  0  0  0  0
 17 18  1  0  0  0  0
 18 19  2  0  0  0  0
 19 20  1  0  0  0  0
 20 21  2  0  0  0  0
 21 22  1  0  0  0  0
 17 22  2  0  0  0  0
 23 24  1  0  0  0  0
 19 23  1  0  0  0  0
 20 25  1  0  0  0  0
  1 17  1  0  0  0  0
  5 26  1  0  0  0  0
M  END
>  <cdx:fragmentId>
30472

$$$$
