230696.cdx
  Mrv1902 05222410272D          

 43 45  0  0  0  0            999 V2000
    4.3856   -6.9735    0.0000 C   0  0  0  0  0  0  0  0  0  0  0  0
    5.1001   -7.3860    0.0000 C   0  0  0  0  0  0  0  0  0  0  0  0
    5.8146   -6.9735    0.0000 C   0  0  0  0  0  0  0  0  0  0  0  0
    6.5290   -7.3860    0.0000 C   0  0  0  0  0  0  0  0  0  0  0  0
    7.2435   -6.9735    0.0000 C   0  0  0  0  0  0  0  0  0  0  0  0
    7.9580   -7.3860    0.0000 C   0  0  0  0  0  0  0  0  0  0  0  0
    8.6724   -6.9735    0.0000 C   0  0  0  0  0  0  0  0  0  0  0  0
    5.8146   -6.1485    0.0000 O   0  0  0  0  0  0  0  0  0  0  0  0
    3.6711   -7.3860    0.0000 C   0  0  0  0  0  0  0  0  0  0  0  0
    2.9567   -6.9735    0.0000 C   0  0  0  0  0  0  0  0  0  0  0  0
    2.2422   -7.3860    0.0000 C   0  0  0  0  0  0  0  0  0  0  0  0
    2.2422   -8.2110    0.0000 C   0  0  0  0  0  0  0  0  0  0  0  0
    2.9567   -8.6235    0.0000 C   0  0  0  0  0  0  0  0  0  0  0  0
    3.6711   -8.2110    0.0000 C   0  0  0  0  0  0  0  0  0  0  0  0
    1.5277   -6.9735    0.0000 O   0  0  0  0  0  0  0  0  0  0  0  0
    0.8133   -7.3860    0.0000 C   0  0  0  0  0  0  0  0  0  0  0  0
    1.5277   -8.6235    0.0000 O   0  0  0  0  0  0  0  0  0  0  0  0
    7.2435   -6.1485    0.0000 O   0  0  0  0  0  0  0  0  0  0  0  0
   11.5303   -8.6235    0.0000 O   0  0  0  0  0  0  0  0  0  0  0  0
   12.2448   -7.3860    0.0000 C   0  0  0  0  0  0  0  0  0  0  0  0
   11.5303   -6.9735    0.0000 O   0  0  0  0  0  0  0  0  0  0  0  0
   11.5303  -11.0985    0.0000 C   0  0  0  0  0  0  0  0  0  0  0  0
    5.1001   -9.8610    0.0000 C   0  0  0  0  0  0  0  0  0  0  0  0
    5.8146   -8.6235    0.0000 C   0  0  0  0  0  0  0  0  0  0  0  0
    5.8146   -9.4485    0.0000 C   0  0  0  0  0  0  0  0  0  0  0  0
    6.5290   -9.8610    0.0000 C   0  0  0  0  0  0  0  0  0  0  0  0
    7.2435   -9.4485    0.0000 C   0  0  0  0  0  0  0  0  0  0  0  0
    7.9580   -9.8610    0.0000 C   0  0  0  0  0  0  0  0  0  0  0  0
    8.6724   -9.4485    0.0000 C   0  0  2  0  0  0  0  0  0  0  0  0
    8.6724   -8.6235    0.0000 C   0  0  0  0  0  0  0  0  0  0  0  0
    9.3869   -9.8610    0.0000 C   0  0  1  0  0  0  0  0  0  0  0  0
    9.3869  -10.6860    0.0000 C   0  0  0  0  0  0  0  0  0  0  0  0
   10.1014  -11.0985    0.0000 C   0  0  0  0  0  0  0  0  0  0  0  0
   10.8159  -10.6860    0.0000 C   0  0  0  0  0  0  0  0  0  0  0  0
   10.8159   -9.8610    0.0000 C   0  0  0  0  0  0  0  0  0  0  0  0
   10.1014   -9.4485    0.0000 C   0  0  2  0  0  0  0  0  0  0  0  0
    9.3869   -8.2110    0.0000 C   0  0  0  0  0  0  0  0  0  0  0  0
   10.1014   -8.6235    0.0000 C   0  0  0  0  0  0  0  0  0  0  0  0
   10.8159   -8.2110    0.0000 C   0  0  0  0  0  0  0  0  0  0  0  0
   10.8159   -7.3860    0.0000 C   0  0  0  0  0  0  0  0  0  0  0  0
   10.1014   -6.9735    0.0000 C   0  0  0  0  0  0  0  0  0  0  0  0
    9.3869   -7.3860    0.0000 C   0  0  0  0  0  0  0  0  0  0  0  0
    9.3869   -9.0360    0.0000 H   0  0  0  0  0  0  0  0  0  0  0  0
 39 19  1  0  0  0  0
 40 21  1  0  0  0  0
 21 20  1  0  0  0  0
 36 38  1  1  0  0  0
 34 22  1  0  0  0  0
 31 29  1  0  0  0  0
 25 23  1  0  0  0  0
 25 24  1  0  0  0  0
 26 25  2  0  0  0  0
 27 26  1  0  0  0  0
 28 27  1  0  0  0  0
 29 28  1  0  0  0  0
 29 30  1  6  0  0  0
 36 31  1  0  0  0  0
 32 31  1  0  0  0  0
 33 32  1  0  0  0  0
 34 33  1  0  0  0  0
 35 34  2  0  0  0  0
 36 35  1  0  0  0  0
 42 37  2  0  0  0  0
 38 37  1  0  0  0  0
 39 38  2  0  0  0  0
 40 39  1  0  0  0  0
 41 40  2  0  0  0  0
  1  2  2  0  0  0  0
  2  3  1  0  0  0  0
  3  4  1  0  0  0  0
  4  5  2  0  0  0  0
  5  6  1  0  0  0  0
  6  7  2  0  0  0  0
  3  8  2  0  0  0  0
  9 10  1  0  0  0  0
 10 11  2  0  0  0  0
 11 12  1  0  0  0  0
 12 13  2  0  0  0  0
 13 14  1  0  0  0  0
  9 14  2  0  0  0  0
 15 16  1  0  0  0  0
 11 15  1  0  0  0  0
 12 17  1  0  0  0  0
  1  9  1  0  0  0  0
 42 41  1  0  0  0  0
  7 42  1  0  0  0  0
  5 18  1  0  0  0  0
 31 43  1  1  0  0  0
M  END
>  <cdx:fragmentId>
30229

$$$$
