230691.cdx
  Mrv1902 05222410282D          

 45 48  0  0  0  0            999 V2000
   11.6514   -6.1236    0.0000 C   0  0  0  0  0  0  0  0  0  0  0  0
   10.9370   -5.7109    0.0000 C   0  0  1  0  0  0  0  0  0  0  0  0
   10.9123   -4.8863    0.0000 C   0  0  0  0  0  0  0  0  0  0  0  0
   11.6141   -4.4525    0.0000 C   0  0  0  0  0  0  0  0  0  0  0  0
   11.5893   -3.6279    0.0000 C   0  0  0  0  0  0  0  0  0  0  0  0
   12.2911   -3.1942    0.0000 C   0  0  0  0  0  0  0  0  0  0  0  0
   13.0176   -3.5850    0.0000 C   0  0  0  0  0  0  0  0  0  0  0  0
    7.9122   -9.4534    0.0000 O   0  0  0  0  0  0  0  0  0  0  0  0
   12.2200  -11.8918    0.0000 O   0  0  0  0  0  0  0  0  0  0  0  0
   11.5160  -13.1353    0.0000 C   0  0  0  0  0  0  0  0  0  0  0  0
   10.7981  -12.7289    0.0000 O   0  0  0  0  0  0  0  0  0  0  0  0
   10.7770  -10.2540    0.0000 C   0  0  0  0  0  0  0  0  0  0  0  0
   11.4950  -10.6604    0.0000 C   0  0  0  0  0  0  0  0  0  0  0  0
   11.5020  -11.4854    0.0000 C   0  0  0  0  0  0  0  0  0  0  0  0
   10.7911  -11.9039    0.0000 C   0  0  0  0  0  0  0  0  0  0  0  0
   10.0731  -11.4975    0.0000 C   0  0  0  0  0  0  0  0  0  0  0  0
   10.0661  -10.6726    0.0000 C   0  0  0  0  0  0  0  0  0  0  0  0
    5.1967   -4.3512    0.0000 O   0  0  0  0  0  0  0  0  0  0  0  0
    5.9022   -3.1086    0.0000 C   0  0  0  0  0  0  0  0  0  0  0  0
    6.6197   -3.5159    0.0000 O   0  0  0  0  0  0  0  0  0  0  0  0
    6.6375   -5.9908    0.0000 C   0  0  0  0  0  0  0  0  0  0  0  0
    5.9200   -5.5835    0.0000 C   0  0  0  0  0  0  0  0  0  0  0  0
    5.9141   -4.7585    0.0000 C   0  0  0  0  0  0  0  0  0  0  0  0
    6.6256   -4.3409    0.0000 C   0  0  0  0  0  0  0  0  0  0  0  0
    7.3430   -4.7482    0.0000 C   0  0  0  0  0  0  0  0  0  0  0  0
    7.3489   -5.5732    0.0000 C   0  0  0  0  0  0  0  0  0  0  0  0
    8.3055   -5.0875    0.0000 C   0  0  0  0  0  0  0  0  0  0  0  0
   12.2664   -2.3695    0.0000 C   0  0  0  0  0  0  0  0  0  0  0  0
   10.1200   -6.9850    0.0000 C   0  0  0  0  0  0  0  0  0  0  0  0
   10.2224   -6.1232    0.0000 C   0  0  1  0  0  0  0  0  0  0  0  0
    9.4875   -4.9775    0.0000 C   0  0  0  0  0  0  0  0  0  0  0  0
    9.0200   -5.5000    0.0000 C   0  0  0  0  0  0  0  0  0  0  0  0
    9.0750   -6.7375    0.0000 C   0  0  0  0  0  0  0  0  0  0  0  0
    7.8710   -6.9522    0.0000 C   0  0  1  0  0  0  0  0  0  0  0  0
    8.1125   -6.1050    0.0000 C   0  0  2  0  0  0  0  0  0  0  0  0
    9.5150   -5.8575    0.0000 C   0  0  0  0  0  0  0  0  0  0  0  0
    7.1872   -8.2220    0.0000 O   0  0  0  0  0  0  0  0  0  0  0  0
    9.3481  -10.2662    0.0000 C   0  0  0  0  0  0  0  0  0  0  0  0
    9.3411   -9.4412    0.0000 C   0  0  0  0  0  0  0  0  0  0  0  0
    8.6231   -9.0348    0.0000 C   0  0  0  0  0  0  0  0  0  0  0  0
    8.6161   -8.2098    0.0000 C   0  0  0  0  0  0  0  0  0  0  0  0
    7.8982   -7.8034    0.0000 C   0  0  0  0  0  0  0  0  0  0  0  0
    7.3156   -6.3185    0.0000 H   0  0  0  0  0  0  0  0  0  0  0  0
    7.0460   -6.9522    0.0000 H   0  0  0  0  0  0  0  0  0  0  0  0
   10.3248   -5.2613    0.0000 H   0  0  0  0  0  0  0  0  0  0  0  0
 40  8  1  0  0  0  0
 38 17  1  0  0  0  0
 14  9  1  0  0  0  0
 15 11  1  0  0  0  0
 11 10  1  0  0  0  0
 17 12  2  0  0  0  0
 13 12  1  0  0  0  0
 14 13  2  0  0  0  0
 15 14  1  0  0  0  0
 16 15  2  0  0  0  0
 17 16  1  0  0  0  0
 23 18  1  0  0  0  0
 24 20  1  0  0  0  0
 20 19  1  0  0  0  0
 26 21  2  0  0  0  0
 22 21  1  0  0  0  0
 23 22  2  0  0  0  0
 24 23  1  0  0  0  0
 25 24  2  0  0  0  0
 26 25  1  0  0  0  0
 32 27  1  0  0  0  0
 30  2  1  0  0  0  0
 29 33  1  0  0  0  0
 36 30  1  0  0  0  0
 36 31  1  0  0  0  0
 30 29  1  0  0  0  0
 32 31  2  0  0  0  0
 33 32  1  0  0  0  0
 34 33  1  0  0  0  0
 35 34  1  0  0  0  0
 36 35  1  0  0  0  0
 42 37  2  0  0  0  0
 39 38  2  0  0  0  0
 40 39  1  0  0  0  0
 41 40  2  0  0  0  0
 42 41  1  0  0  0  0
  2  1  1  6  0  0  0
  2  3  1  0  0  0  0
  3  4  1  0  0  0  0
  4  5  1  0  0  0  0
  5  6  2  0  0  0  0
  6  7  1  0  0  0  0
  6 28  1  0  0  0  0
 35 43  1  6  0  0  0
 34 44  1  1  0  0  0
 30 45  1  6  0  0  0
 42 34  1  0  0  0  0
 35 26  1  0  0  0  0
M  END
>  <cdx:fragmentId>
28915

$$$$
