230685.cdx
  Mrv1902 05222410282D          

 40 44  0  0  0  0            999 V2000
    6.1718   -9.0497    0.0000 C   0  0  0  0  0  0  0  0  0  0  0  0
    5.4573   -9.4622    0.0000 C   0  0  1  0  0  0  0  0  0  0  0  0
    4.7429   -9.0497    0.0000 C   0  0  1  0  0  0  0  0  0  0  0  0
    4.0284   -9.4622    0.0000 C   0  0  0  0  0  0  0  0  0  0  0  0
    3.3139   -9.0497    0.0000 C   0  0  1  0  0  0  0  0  0  0  0  0
    3.3139   -8.2247    0.0000 C   0  0  0  0  0  0  0  0  0  0  0  0
    4.0284   -7.8122    0.0000 C   0  0  0  0  0  0  0  0  0  0  0  0
    4.7429   -8.2247    0.0000 C   0  0  1  0  0  0  0  0  0  0  0  0
    5.4573   -7.8122    0.0000 O   0  0  0  0  0  0  0  0  0  0  0  0
    2.5994   -7.8122    0.0000 C   0  0  0  0  0  0  0  0  0  0  0  0
    2.5994   -9.4622    0.0000 O   0  0  0  0  0  0  0  0  0  0  0  0
    7.6007   -2.4497    0.0000 O   0  0  0  0  0  0  0  0  0  0  0  0
    6.8863   -4.5122    0.0000 C   0  0  0  0  0  0  0  0  0  0  0  0
    6.8863   -3.6872    0.0000 C   0  0  0  0  0  0  0  0  0  0  0  0
    7.6007   -3.2747    0.0000 C   0  0  0  0  0  0  0  0  0  0  0  0
    8.3152   -3.6872    0.0000 C   0  0  0  0  0  0  0  0  0  0  0  0
    8.3152   -4.5122    0.0000 C   0  0  0  0  0  0  0  0  0  0  0  0
    7.6007   -4.9247    0.0000 C   0  0  0  0  0  0  0  0  0  0  0  0
    7.6007   -5.7497    0.0000 C   0  0  0  0  0  0  0  0  0  0  0  0
    6.8863   -6.1622    0.0000 C   0  0  0  0  0  0  0  0  0  0  0  0
    8.4257   -8.2247    0.0000 C   0  0  0  0  0  0  0  0  0  0  0  0
    8.0132   -8.9391    0.0000 C   0  0  0  0  0  0  0  0  0  0  0  0
    6.1718   -7.3997    0.0000 O   0  0  0  0  0  0  0  0  0  0  0  0
    6.8863   -6.9872    0.0000 C   0  0  0  0  0  0  0  0  0  0  0  0
    7.6007   -7.3997    0.0000 C   0  0  0  0  0  0  0  0  0  0  0  0
    7.6007   -8.2247    0.0000 C   0  0  1  0  0  0  0  0  0  0  0  0
    6.8863   -8.6372    0.0000 C   0  0  0  0  0  0  0  0  0  0  0  0
    6.1718   -8.2247    0.0000 C   0  0  1  0  0  0  0  0  0  0  0  0
   12.6020   -8.6372    0.0000 O   0  0  0  0  0  0  0  0  0  0  0  0
   11.1731   -6.9872    0.0000 C   0  0  0  0  0  0  0  0  0  0  0  0
   11.8876   -7.3997    0.0000 C   0  0  0  0  0  0  0  0  0  0  0  0
   11.8876   -8.2247    0.0000 C   0  0  0  0  0  0  0  0  0  0  0  0
   11.1731   -8.6372    0.0000 C   0  0  0  0  0  0  0  0  0  0  0  0
   10.4586   -8.2247    0.0000 C   0  0  0  0  0  0  0  0  0  0  0  0
   10.4586   -7.3997    0.0000 C   0  0  0  0  0  0  0  0  0  0  0  0
    8.3152   -6.1622    0.0000 O   0  0  0  0  0  0  0  0  0  0  0  0
    9.7441   -6.9872    0.0000 C   0  0  0  0  0  0  0  0  0  0  0  0
    9.0297   -7.3997    0.0000 C   0  0  0  0  0  0  0  0  0  0  0  0
    8.3152   -6.9872    0.0000 C   0  0  0  0  0  0  0  0  0  0  0  0
    5.4573  -10.2872    0.0000 C   0  0  0  0  0  0  0  0  0  0  0  0
 39 25  1  0  0  0  0
 24 20  1  0  0  0  0
 19 18  1  0  0  0  0
 15 12  1  0  0  0  0
 18 13  2  0  0  0  0
 14 13  1  0  0  0  0
 15 14  2  0  0  0  0
 16 15  1  0  0  0  0
 17 16  2  0  0  0  0
 18 17  1  0  0  0  0
 20 19  2  0  0  0  0
 26 21  1  6  0  0  0
 26 22  1  1  0  0  0
 28 23  1  1  0  0  0
 28 27  1  6  0  0  0
 24 23  1  0  0  0  0
 25 24  2  0  0  0  0
 26 25  1  0  0  0  0
 27 26  1  0  0  0  0
 37 35  1  0  0  0  0
 32 29  1  0  0  0  0
 35 30  2  0  0  0  0
 31 30  1  0  0  0  0
 32 31  2  0  0  0  0
 33 32  1  0  0  0  0
 34 33  2  0  0  0  0
 35 34  1  0  0  0  0
 39 36  2  0  0  0  0
 38 37  1  0  0  0  0
 39 38  1  0  0  0  0
 28  1  1  0  0  0  0
  1  2  1  0  0  0  0
  2  3  1  0  0  0  0
  3  4  1  1  0  0  0
  4  5  1  0  0  0  0
  5  6  1  0  0  0  0
  6  7  2  0  0  0  0
  7  8  1  0  0  0  0
  3  8  1  0  0  0  0
  8  9  1  1  0  0  0
 28  9  1  0  0  0  0
  6 10  1  0  0  0  0
  5 11  1  6  0  0  0
  2 40  1  6  0  0  0
M  END
>  <cdx:fragmentId>
28642

$$$$
