230697.cdx
  Mrv1902 05222410262D          

 38 41  0  0  0  0            999 V2000
    4.3856   -5.8352    0.0000 C   0  0  0  0  0  0  0  0  0  0  0  0
    5.1001   -6.2477    0.0000 C   0  0  0  0  0  0  0  0  0  0  0  0
    5.8146   -5.8352    0.0000 C   0  0  0  0  0  0  0  0  0  0  0  0
    6.5290   -6.2477    0.0000 C   0  0  0  0  0  0  0  0  0  0  0  0
    7.2435   -5.8352    0.0000 C   0  0  0  0  0  0  0  0  0  0  0  0
    7.9580   -6.2477    0.0000 C   0  0  0  0  0  0  0  0  0  0  0  0
    8.6724   -5.8352    0.0000 C   0  0  0  0  0  0  0  0  0  0  0  0
    5.8146   -5.0102    0.0000 O   0  0  0  0  0  0  0  0  0  0  0  0
   11.2284   -8.0082    0.0000 O   0  0  0  0  0  0  0  0  0  0  0  0
   11.6409   -8.7227    0.0000 C   0  0  2  0  0  0  0  0  0  0  0  0
   10.8159   -8.7227    0.0000 C   0  0  1  0  0  0  0  0  0  0  0  0
   10.1014   -8.3102    0.0000 C   0  0  2  0  0  0  0  0  0  0  0  0
    9.3869   -8.7227    0.0000 C   0  0  0  0  0  0  0  0  0  0  0  0
    9.3869   -9.5477    0.0000 C   0  0  0  0  0  0  0  0  0  0  0  0
   10.1014   -9.9602    0.0000 C   0  0  0  0  0  0  0  0  0  0  0  0
   10.8159   -9.5477    0.0000 C   0  0  0  0  0  0  0  0  0  0  0  0
    8.6724   -9.9602    0.0000 C   0  0  0  0  0  0  0  0  0  0  0  0
   12.4659   -8.7227    0.0000 C   0  0  0  0  0  0  0  0  0  0  0  0
   12.0534   -9.4372    0.0000 C   0  0  0  0  0  0  0  0  0  0  0  0
    3.6711   -6.2477    0.0000 C   0  0  0  0  0  0  0  0  0  0  0  0
    2.9567   -5.8352    0.0000 C   0  0  0  0  0  0  0  0  0  0  0  0
    2.2422   -6.2477    0.0000 C   0  0  0  0  0  0  0  0  0  0  0  0
    2.2422   -7.0727    0.0000 C   0  0  0  0  0  0  0  0  0  0  0  0
    2.9567   -7.4852    0.0000 C   0  0  0  0  0  0  0  0  0  0  0  0
    3.6711   -7.0727    0.0000 C   0  0  0  0  0  0  0  0  0  0  0  0
    1.5277   -5.8352    0.0000 O   0  0  0  0  0  0  0  0  0  0  0  0
    0.8133   -6.2477    0.0000 C   0  0  0  0  0  0  0  0  0  0  0  0
    1.5277   -7.4852    0.0000 O   0  0  0  0  0  0  0  0  0  0  0  0
    7.2435   -5.0102    0.0000 O   0  0  0  0  0  0  0  0  0  0  0  0
   11.5303   -7.4852    0.0000 O   0  0  0  0  0  0  0  0  0  0  0  0
   12.2448   -6.2477    0.0000 C   0  0  0  0  0  0  0  0  0  0  0  0
   11.5303   -5.8352    0.0000 O   0  0  0  0  0  0  0  0  0  0  0  0
    9.3869   -7.0727    0.0000 C   0  0  0  0  0  0  0  0  0  0  0  0
   10.1014   -7.4852    0.0000 C   0  0  0  0  0  0  0  0  0  0  0  0
   10.8159   -7.0727    0.0000 C   0  0  0  0  0  0  0  0  0  0  0  0
   10.8159   -6.2477    0.0000 C   0  0  0  0  0  0  0  0  0  0  0  0
   10.1014   -5.8352    0.0000 C   0  0  0  0  0  0  0  0  0  0  0  0
    9.3869   -6.2477    0.0000 C   0  0  0  0  0  0  0  0  0  0  0  0
 35 30  1  0  0  0  0
 36 32  1  0  0  0  0
 32 31  1  0  0  0  0
 12 34  1  6  0  0  0
 10  9  1  6  0  0  0
 38 33  2  0  0  0  0
 34 33  1  0  0  0  0
 35 34  2  0  0  0  0
 36 35  1  0  0  0  0
  1  2  2  0  0  0  0
  2  3  1  0  0  0  0
  3  4  1  0  0  0  0
  4  5  2  0  0  0  0
  5  6  1  0  0  0  0
  6  7  2  0  0  0  0
  3  8  2  0  0  0  0
 37 36  2  0  0  0  0
 38 37  1  0  0  0  0
 10 11  1  0  0  0  0
 11 12  1  0  0  0  0
 12 13  1  0  0  0  0
 13 14  2  0  0  0  0
 14 15  1  0  0  0  0
 15 16  1  0  0  0  0
 11  9  1  6  0  0  0
 16 11  1  0  0  0  0
 14 17  1  0  0  0  0
 10 18  1  0  0  0  0
 10 19  1  0  0  0  0
  7 38  1  0  0  0  0
 20 21  1  0  0  0  0
 21 22  2  0  0  0  0
 22 23  1  0  0  0  0
 23 24  2  0  0  0  0
 24 25  1  0  0  0  0
 20 25  2  0  0  0  0
 26 27  1  0  0  0  0
 22 26  1  0  0  0  0
 23 28  1  0  0  0  0
  1 20  1  0  0  0  0
  5 29  1  0  0  0  0
M  END
>  <cdx:fragmentId>
30341

$$$$
