230689.cdx
  Mrv1902 05222410182D          

 45 48  0  0  0  0            999 V2000
   11.6514   -6.1236    0.0000 C   0  0  0  0  0  0  0  0  0  0  0  0
   10.9370   -5.7109    0.0000 C   0  0  1  0  0  0  0  0  0  0  0  0
   10.9123   -4.8863    0.0000 C   0  0  0  0  0  0  0  0  0  0  0  0
   11.6141   -4.4525    0.0000 C   0  0  0  0  0  0  0  0  0  0  0  0
   11.5893   -3.6279    0.0000 C   0  0  0  0  0  0  0  0  0  0  0  0
   12.2911   -3.1942    0.0000 C   0  0  0  0  0  0  0  0  0  0  0  0
   13.0176   -3.5850    0.0000 C   0  0  0  0  0  0  0  0  0  0  0  0
    8.2431   -8.8705    0.0000 O   0  0  0  0  0  0  0  0  0  0  0  0
   12.5363  -11.3345    0.0000 O   0  0  0  0  0  0  0  0  0  0  0  0
   11.8250  -12.5738    0.0000 C   0  0  0  0  0  0  0  0  0  0  0  0
   11.1095  -12.1631    0.0000 O   0  0  0  0  0  0  0  0  0  0  0  0
   11.1031   -9.6881    0.0000 C   0  0  0  0  0  0  0  0  0  0  0  0
   11.8186  -10.0988    0.0000 C   0  0  0  0  0  0  0  0  0  0  0  0
   11.8208  -10.9238    0.0000 C   0  0  0  0  0  0  0  0  0  0  0  0
   11.1073  -11.3381    0.0000 C   0  0  0  0  0  0  0  0  0  0  0  0
   10.3918  -10.9275    0.0000 C   0  0  0  0  0  0  0  0  0  0  0  0
   10.3897  -10.1025    0.0000 C   0  0  0  0  0  0  0  0  0  0  0  0
    4.8653   -5.2205    0.0000 O   0  0  0  0  0  0  0  0  0  0  0  0
    5.6066   -3.9988    0.0000 C   0  0  0  0  0  0  0  0  0  0  0  0
    6.3119   -4.4268    0.0000 O   0  0  0  0  0  0  0  0  0  0  0  0
    6.2579   -6.9012    0.0000 C   0  0  0  0  0  0  0  0  0  0  0  0
    5.5526   -6.4732    0.0000 C   0  0  0  0  0  0  0  0  0  0  0  0
    5.5706   -5.6484    0.0000 C   0  0  0  0  0  0  0  0  0  0  0  0
    6.2939   -5.2516    0.0000 C   0  0  0  0  0  0  0  0  0  0  0  0
    6.9992   -5.6796    0.0000 C   0  0  0  0  0  0  0  0  0  0  0  0
    6.9812   -6.5044    0.0000 C   0  0  0  0  0  0  0  0  0  0  0  0
    8.3055   -5.0875    0.0000 C   0  0  0  0  0  0  0  0  0  0  0  0
   12.2664   -2.3695    0.0000 C   0  0  0  0  0  0  0  0  0  0  0  0
   10.1200   -6.9850    0.0000 C   0  0  0  0  0  0  0  0  0  0  0  0
   10.2224   -6.1232    0.0000 C   0  0  1  0  0  0  0  0  0  0  0  0
    9.4875   -4.9775    0.0000 C   0  0  0  0  0  0  0  0  0  0  0  0
    9.0200   -5.5000    0.0000 C   0  0  0  0  0  0  0  0  0  0  0  0
    9.0750   -6.7375    0.0000 C   0  0  0  0  0  0  0  0  0  0  0  0
    7.9200   -6.9025    0.0000 C   0  0  2  0  0  0  0  0  0  0  0  0
    8.2500   -6.0500    0.0000 C   0  0  1  0  0  0  0  0  0  0  0  0
    9.4875   -5.8575    0.0000 C   0  0  0  0  0  0  0  0  0  0  0  0
    7.5255   -7.6348    0.0000 O   0  0  0  0  0  0  0  0  0  0  0  0
    9.6742   -9.6918    0.0000 C   0  0  0  0  0  0  0  0  0  0  0  0
    9.6721   -8.8668    0.0000 C   0  0  0  0  0  0  0  0  0  0  0  0
    8.9565   -8.4562    0.0000 C   0  0  0  0  0  0  0  0  0  0  0  0
    8.9544   -7.6312    0.0000 C   0  0  0  0  0  0  0  0  0  0  0  0
    8.2389   -7.2205    0.0000 C   0  0  0  0  0  0  0  0  0  0  0  0
    7.6666   -5.4666    0.0000 H   0  0  0  0  0  0  0  0  0  0  0  0
    7.5075   -6.1880    0.0000 H   0  0  0  0  0  0  0  0  0  0  0  0
   10.3248   -5.2613    0.0000 H   0  0  0  0  0  0  0  0  0  0  0  0
 40  8  1  0  0  0  0
 38 17  1  0  0  0  0
 14  9  1  0  0  0  0
 15 11  1  0  0  0  0
 11 10  1  0  0  0  0
 17 12  2  0  0  0  0
 13 12  1  0  0  0  0
 14 13  2  0  0  0  0
 15 14  1  0  0  0  0
 16 15  2  0  0  0  0
 17 16  1  0  0  0  0
 35 42  1  0  0  0  0
 34 26  1  0  0  0  0
 23 18  1  0  0  0  0
 24 20  1  0  0  0  0
 20 19  1  0  0  0  0
 26 21  2  0  0  0  0
 22 21  1  0  0  0  0
 23 22  2  0  0  0  0
 24 23  1  0  0  0  0
 25 24  2  0  0  0  0
 26 25  1  0  0  0  0
 32 27  1  0  0  0  0
 30  2  1  0  0  0  0
 29 33  1  0  0  0  0
 36 30  1  0  0  0  0
 36 31  1  0  0  0  0
 30 29  1  0  0  0  0
 32 31  2  0  0  0  0
 33 32  1  0  0  0  0
 34 33  1  0  0  0  0
 35 34  1  0  0  0  0
 36 35  1  0  0  0  0
 42 37  2  0  0  0  0
 39 38  2  0  0  0  0
 40 39  1  0  0  0  0
 41 40  2  0  0  0  0
 42 41  1  0  0  0  0
  2  1  1  6  0  0  0
  2  3  1  0  0  0  0
  3  4  1  0  0  0  0
  4  5  1  0  0  0  0
  5  6  2  0  0  0  0
  6  7  1  0  0  0  0
  6 28  1  0  0  0  0
 35 43  1  6  0  0  0
 34 44  1  6  0  0  0
 30 45  1  6  0  0  0
M  END
>  <cdx:fragmentId>
28915

$$$$
