230687.cdx
  Mrv1902 05222410272D          

 45 48  0  0  0  0            999 V2000
   11.6514   -6.1236    0.0000 C   0  0  0  0  0  0  0  0  0  0  0  0
   10.9370   -5.7109    0.0000 C   0  0  1  0  0  0  0  0  0  0  0  0
   10.9123   -4.8863    0.0000 C   0  0  0  0  0  0  0  0  0  0  0  0
   11.6141   -4.4525    0.0000 C   0  0  0  0  0  0  0  0  0  0  0  0
   11.5893   -3.6279    0.0000 C   0  0  0  0  0  0  0  0  0  0  0  0
   12.2911   -3.1942    0.0000 C   0  0  0  0  0  0  0  0  0  0  0  0
   13.0176   -3.5850    0.0000 C   0  0  0  0  0  0  0  0  0  0  0  0
    6.2152   -4.8982    0.0000 O   0  0  0  0  0  0  0  0  0  0  0  0
    1.9283   -7.3732    0.0000 O   0  0  0  0  0  0  0  0  0  0  0  0
    1.2139   -6.1357    0.0000 C   0  0  0  0  0  0  0  0  0  0  0  0
    1.9283   -5.7232    0.0000 O   0  0  0  0  0  0  0  0  0  0  0  0
    4.0718   -6.9607    0.0000 C   0  0  0  0  0  0  0  0  0  0  0  0
    3.3573   -7.3732    0.0000 C   0  0  0  0  0  0  0  0  0  0  0  0
    2.6428   -6.9607    0.0000 C   0  0  0  0  0  0  0  0  0  0  0  0
    2.6428   -6.1357    0.0000 C   0  0  0  0  0  0  0  0  0  0  0  0
    3.3573   -5.7232    0.0000 C   0  0  0  0  0  0  0  0  0  0  0  0
    4.0718   -6.1357    0.0000 C   0  0  0  0  0  0  0  0  0  0  0  0
    8.1924  -10.2563    0.0000 O   0  0  0  0  0  0  0  0  0  0  0  0
    6.7636  -10.2773    0.0000 C   0  0  0  0  0  0  0  0  0  0  0  0
    6.7515   -9.4524    0.0000 O   0  0  0  0  0  0  0  0  0  0  0  0
    8.8765   -8.1836    0.0000 C   0  0  0  0  0  0  0  0  0  0  0  0
    8.8886   -9.0085    0.0000 C   0  0  0  0  0  0  0  0  0  0  0  0
    8.1803   -9.4314    0.0000 C   0  0  0  0  0  0  0  0  0  0  0  0
    7.4598   -9.0295    0.0000 C   0  0  0  0  0  0  0  0  0  0  0  0
    7.4477   -8.2045    0.0000 C   0  0  0  0  0  0  0  0  0  0  0  0
    8.1560   -7.7816    0.0000 C   0  0  0  0  0  0  0  0  0  0  0  0
    8.3055   -5.0875    0.0000 C   0  0  0  0  0  0  0  0  0  0  0  0
   12.2664   -2.3695    0.0000 C   0  0  0  0  0  0  0  0  0  0  0  0
   10.1200   -6.9850    0.0000 C   0  0  0  0  0  0  0  0  0  0  0  0
   10.2224   -6.1232    0.0000 C   0  0  1  0  0  0  0  0  0  0  0  0
    9.4875   -4.9775    0.0000 C   0  0  0  0  0  0  0  0  0  0  0  0
    9.0200   -5.5000    0.0000 C   0  0  0  0  0  0  0  0  0  0  0  0
    9.0750   -6.7375    0.0000 C   0  0  0  0  0  0  0  0  0  0  0  0
    8.1439   -6.9567    0.0000 C   0  0  1  0  0  0  0  0  0  0  0  0
    8.3586   -6.1357    0.0000 C   0  0  2  0  0  0  0  0  0  0  0  0
    9.5150   -5.8575    0.0000 C   0  0  0  0  0  0  0  0  0  0  0  0
    7.6441   -4.8982    0.0000 O   0  0  0  0  0  0  0  0  0  0  0  0
    4.7862   -5.7232    0.0000 C   0  0  0  0  0  0  0  0  0  0  0  0
    5.5007   -6.1357    0.0000 C   0  0  0  0  0  0  0  0  0  0  0  0
    6.2152   -5.7232    0.0000 C   0  0  0  0  0  0  0  0  0  0  0  0
    6.9296   -6.1357    0.0000 C   0  0  0  0  0  0  0  0  0  0  0  0
    7.6441   -5.7232    0.0000 C   0  0  0  0  0  0  0  0  0  0  0  0
    7.6441   -6.5482    0.0000 H   0  0  0  0  0  0  0  0  0  0  0  0
    7.3249   -6.8575    0.0000 H   0  0  0  0  0  0  0  0  0  0  0  0
   10.3248   -5.2613    0.0000 H   0  0  0  0  0  0  0  0  0  0  0  0
 40  8  1  0  0  0  0
 38 17  1  0  0  0  0
 14  9  1  0  0  0  0
 15 11  1  0  0  0  0
 11 10  1  0  0  0  0
 17 12  2  0  0  0  0
 13 12  1  0  0  0  0
 14 13  2  0  0  0  0
 15 14  1  0  0  0  0
 16 15  2  0  0  0  0
 17 16  1  0  0  0  0
 35 42  1  0  0  0  0
 34 26  1  0  0  0  0
 23 18  1  0  0  0  0
 24 20  1  0  0  0  0
 20 19  1  0  0  0  0
 26 21  2  0  0  0  0
 22 21  1  0  0  0  0
 23 22  2  0  0  0  0
 24 23  1  0  0  0  0
 25 24  2  0  0  0  0
 26 25  1  0  0  0  0
 32 27  1  0  0  0  0
 30  2  1  0  0  0  0
 29 33  1  0  0  0  0
 36 30  1  0  0  0  0
 36 31  1  0  0  0  0
 30 29  1  0  0  0  0
 32 31  2  0  0  0  0
 33 32  1  0  0  0  0
 34 33  1  0  0  0  0
 35 34  1  0  0  0  0
 36 35  1  0  0  0  0
 42 37  2  0  0  0  0
 39 38  2  0  0  0  0
 40 39  1  0  0  0  0
 41 40  2  0  0  0  0
 42 41  1  0  0  0  0
  2  1  1  6  0  0  0
  2  3  1  0  0  0  0
  3  4  1  0  0  0  0
  4  5  1  0  0  0  0
  5  6  2  0  0  0  0
  6  7  1  0  0  0  0
  6 28  1  0  0  0  0
 35 43  1  6  0  0  0
 34 44  1  1  0  0  0
 30 45  1  6  0  0  0
M  END
>  <cdx:fragmentId>
28915

$$$$
