230693.cdx
  Mrv1902 05222410272D          

 43 45  0  0  0  0            999 V2000
    7.5043   -8.6626    0.0000 C   0  0  0  0  0  0  0  0  0  0  0  0
   10.3616   -8.7213    0.0000 C   0  0  0  0  0  0  0  0  0  0  0  0
   11.0844   -8.3235    0.0000 C   0  0  0  0  0  0  0  0  0  0  0  0
   11.7903   -8.7506    0.0000 C   0  0  0  0  0  0  0  0  0  0  0  0
   11.7733   -9.5754    0.0000 C   0  0  0  0  0  0  0  0  0  0  0  0
   11.0505   -9.9732    0.0000 C   0  0  0  0  0  0  0  0  0  0  0  0
   10.3447   -9.5461    0.0000 C   0  0  0  0  0  0  0  0  0  0  0  0
   12.5131   -8.3529    0.0000 O   0  0  0  0  0  0  0  0  0  0  0  0
   13.2189   -8.7800    0.0000 C   0  0  0  0  0  0  0  0  0  0  0  0
   12.4792  -10.0025    0.0000 O   0  0  0  0  0  0  0  0  0  0  0  0
    2.4787   -9.7971    0.0000 O   0  0  0  0  0  0  0  0  0  0  0  0
    1.7898   -8.5452    0.0000 C   0  0  0  0  0  0  0  0  0  0  0  0
    2.5126   -8.1474    0.0000 O   0  0  0  0  0  0  0  0  0  0  0  0
    7.4874  -10.3124    0.0000 C   0  0  0  0  0  0  0  0  0  0  0  0
    7.4874   -9.4874    0.0000 C   0  0  0  0  0  0  0  0  0  0  0  0
    6.7729   -9.8999    0.0000 C   0  0  0  0  0  0  0  0  0  0  0  0
    8.2441   -7.4400    0.0000 O   0  0  0  0  0  0  0  0  0  0  0  0
    9.6558   -8.2942    0.0000 C   0  0  0  0  0  0  0  0  0  0  0  0
    8.9330   -8.6919    0.0000 C   0  0  0  0  0  0  0  0  0  0  0  0
    8.2271   -8.2648    0.0000 C   0  0  0  0  0  0  0  0  0  0  0  0
    4.6301   -9.4287    0.0000 C   0  0  0  0  0  0  0  0  0  0  0  0
    3.9073   -9.8264    0.0000 C   0  0  0  0  0  0  0  0  0  0  0  0
    3.2015   -9.3994    0.0000 C   0  0  0  0  0  0  0  0  0  0  0  0
    3.2184   -8.5745    0.0000 C   0  0  0  0  0  0  0  0  0  0  0  0
    3.9412   -8.1768    0.0000 C   0  0  0  0  0  0  0  0  0  0  0  0
    4.6471   -8.6039    0.0000 C   0  0  0  0  0  0  0  0  0  0  0  0
    6.8154   -7.4107    0.0000 O   0  0  0  0  0  0  0  0  0  0  0  0
    6.7985   -8.2355    0.0000 C   0  0  0  0  0  0  0  0  0  0  0  0
    6.0757   -8.6332    0.0000 C   0  0  0  0  0  0  0  0  0  0  0  0
    5.3699   -8.2061    0.0000 C   0  0  0  0  0  0  0  0  0  0  0  0
    8.2019   -9.8999    0.0000 C   0  0  0  0  0  0  0  0  0  0  0  0
    8.9163   -9.4874    0.0000 C   0  0  0  0  0  0  0  0  0  0  0  0
    9.6308   -9.8999    0.0000 C   0  0  0  0  0  0  0  0  0  0  0  0
    9.6308  -10.7249    0.0000 C   0  0  2  0  0  0  0  0  0  0  0  0
   10.3453  -11.1374    0.0000 C   0  0  0  0  0  0  0  0  0  0  0  0
    8.9163  -11.1374    0.0000 C   0  0  2  0  0  0  0  0  0  0  0  0
    8.2019  -10.7249    0.0000 C   0  0  0  0  0  0  0  0  0  0  0  0
    7.4874  -11.1374    0.0000 C   0  0  0  0  0  0  0  0  0  0  0  0
    7.4874  -11.9624    0.0000 C   0  0  0  0  0  0  0  0  0  0  0  0
    8.2019  -12.3749    0.0000 C   0  0  0  0  0  0  0  0  0  0  0  0
    8.9163  -11.9624    0.0000 C   0  0  0  0  0  0  0  0  0  0  0  0
    6.7729  -12.3749    0.0000 C   0  0  0  0  0  0  0  0  0  0  0  0
    9.6308  -11.5499    0.0000 H   0  0  0  0  0  0  0  0  0  0  0  0
 30 26  1  0  0  0  0
 23 11  1  0  0  0  0
 24 13  1  0  0  0  0
 18  2  1  0  0  0  0
 13 12  1  0  0  0  0
 15 14  1  0  0  0  0
 16 15  1  0  0  0  0
 20 17  2  0  0  0  0
 19 18  2  0  0  0  0
 20 19  1  0  0  0  0
 26 21  2  0  0  0  0
 22 21  1  0  0  0  0
 23 22  2  0  0  0  0
 24 23  1  0  0  0  0
 25 24  2  0  0  0  0
 26 25  1  0  0  0  0
 28 27  2  0  0  0  0
 29 28  1  0  0  0  0
 30 29  2  0  0  0  0
 28  1  1  0  0  0  0
  1 20  1  0  0  0  0
  2  3  1  0  0  0  0
  3  4  2  0  0  0  0
  4  5  1  0  0  0  0
  1 15  1  0  0  0  0
  5  6  2  0  0  0  0
  6  7  1  0  0  0  0
  2  7  2  0  0  0  0
  8  9  1  0  0  0  0
  4  8  1  0  0  0  0
  5 10  1  0  0  0  0
 15 31  1  0  0  0  0
 31 32  2  0  0  0  0
 32 33  1  0  0  0  0
 33 34  1  0  0  0  0
 34 35  1  6  0  0  0
 34 36  1  0  0  0  0
 36 37  1  0  0  0  0
 37 38  2  0  0  0  0
 38 39  1  0  0  0  0
 39 40  1  0  0  0  0
 40 41  1  0  0  0  0
 41 36  1  0  0  0  0
 39 42  2  0  0  0  0
 36 43  1  6  0  0  0
M  END
>  <cdx:fragmentId>
29789

$$$$
