230692.cdx
  Mrv1902 05222410272D          

 42 45  0  0  0  0            999 V2000
    5.1714   -6.5147    0.0000 C   0  0  0  0  0  0  0  0  0  0  0  0
    5.8879   -6.9236    0.0000 C   0  0  0  0  0  0  0  0  0  0  0  0
    6.6003   -6.5075    0.0000 C   0  0  0  0  0  0  0  0  0  0  0  0
    7.3169   -6.9163    0.0000 C   0  0  0  0  0  0  0  0  0  0  0  0
    8.0292   -6.5002    0.0000 C   0  0  0  0  0  0  0  0  0  0  0  0
    8.7458   -6.9090    0.0000 C   0  0  0  0  0  0  0  0  0  0  0  0
    9.4581   -6.4929    0.0000 C   0  0  0  0  0  0  0  0  0  0  0  0
    6.5961   -5.6825    0.0000 O   0  0  0  0  0  0  0  0  0  0  0  0
    8.0250   -5.6752    0.0000 O   0  0  0  0  0  0  0  0  0  0  0  0
   10.1747   -6.9017    0.0000 C   0  0  0  0  0  0  0  0  0  0  0  0
   10.8871   -6.4856    0.0000 C   0  0  0  0  0  0  0  0  0  0  0  0
   11.6036   -6.8945    0.0000 C   0  0  0  0  0  0  0  0  0  0  0  0
   11.6078   -7.7194    0.0000 C   0  0  0  0  0  0  0  0  0  0  0  0
   10.8955   -8.1356    0.0000 C   0  0  0  0  0  0  0  0  0  0  0  0
   10.1789   -7.7267    0.0000 C   0  0  0  0  0  0  0  0  0  0  0  0
   12.3160   -6.4783    0.0000 O   0  0  0  0  0  0  0  0  0  0  0  0
   13.0326   -6.8872    0.0000 C   0  0  0  0  0  0  0  0  0  0  0  0
   12.3244   -8.1283    0.0000 O   0  0  0  0  0  0  0  0  0  0  0  0
    4.4590   -6.9309    0.0000 C   0  0  0  0  0  0  0  0  0  0  0  0
    3.7425   -6.5220    0.0000 C   0  0  0  0  0  0  0  0  0  0  0  0
    3.0301   -6.9382    0.0000 C   0  0  0  0  0  0  0  0  0  0  0  0
    3.0343   -7.7632    0.0000 C   0  0  0  0  0  0  0  0  0  0  0  0
    3.7509   -8.1720    0.0000 C   0  0  0  0  0  0  0  0  0  0  0  0
    4.4632   -7.7559    0.0000 C   0  0  0  0  0  0  0  0  0  0  0  0
    2.3135   -6.5293    0.0000 O   0  0  0  0  0  0  0  0  0  0  0  0
    1.6012   -6.9454    0.0000 C   0  0  0  0  0  0  0  0  0  0  0  0
    2.3219   -8.1793    0.0000 O   0  0  0  0  0  0  0  0  0  0  0  0
    6.6087   -8.1574    0.0000 C   0  0  1  0  0  0  0  0  0  0  0  0
    7.3211   -7.7413    0.0000 C   0  0  2  0  0  0  0  0  0  0  0  0
    8.0376   -8.1502    0.0000 C   0  0  0  0  0  0  0  0  0  0  0  0
    8.0418   -8.9751    0.0000 C   0  0  0  0  0  0  0  0  0  0  0  0
    7.3295   -9.3913    0.0000 C   0  0  2  0  0  0  0  0  0  0  0  0
    6.6271   -9.7833    0.0000 C   0  0  1  0  0  0  0  0  0  0  0  0
    5.9309   -9.3804    0.0000 C   0  0  0  0  0  0  0  0  0  0  0  0
    5.9218   -8.5761    0.0000 C   0  0  2  0  0  0  0  0  0  0  0  0
    6.6129   -8.9824    0.0000 C   0  0  0  0  0  0  0  0  0  0  0  0
    6.6313  -10.6083    0.0000 C   0  0  0  0  0  0  0  0  0  0  0  0
    5.9190  -11.0245    0.0000 C   0  0  0  0  0  0  0  0  0  0  0  0
    5.2024  -10.6156    0.0000 C   0  0  0  0  0  0  0  0  0  0  0  0
    5.9232  -11.8495    0.0000 C   0  0  0  0  0  0  0  0  0  0  0  0
    5.2053   -8.1672    0.0000 C   0  0  0  0  0  0  0  0  0  0  0  0
    8.7584   -9.3840    0.0000 C   0  0  0  0  0  0  0  0  0  0  0  0
  1  2  2  0  0  0  0
  2  3  1  0  0  0  0
  3  4  1  0  0  0  0
  4  5  1  0  0  0  0
  5  6  1  0  0  0  0
  6  7  2  0  0  0  0
  3  8  2  0  0  0  0
  5  9  2  0  0  0  0
 10 11  1  0  0  0  0
 11 12  2  0  0  0  0
 12 13  1  0  0  0  0
 13 14  2  0  0  0  0
 14 15  1  0  0  0  0
 10 15  2  0  0  0  0
 16 17  1  0  0  0  0
 12 16  1  0  0  0  0
 13 18  1  0  0  0  0
  7 10  1  0  0  0  0
 19 20  1  0  0  0  0
 20 21  2  0  0  0  0
 21 22  1  0  0  0  0
 22 23  2  0  0  0  0
 23 24  1  0  0  0  0
 19 24  2  0  0  0  0
 25 26  1  0  0  0  0
 21 25  1  0  0  0  0
 22 27  1  0  0  0  0
  1 19  1  0  0  0  0
 28 29  1  0  0  0  0
 29 30  1  0  0  0  0
 30 31  2  0  0  0  0
 31 32  1  0  0  0  0
 32 33  1  0  0  0  0
 33 34  1  0  0  0  0
 34 35  1  0  0  0  0
 28 35  1  0  0  0  0
 28 36  1  1  0  0  0
 32 36  1  1  0  0  0
 37 38  2  0  0  0  0
 38 39  1  0  0  0  0
 38 40  1  0  0  0  0
 33 37  1  6  0  0  0
 35 41  1  6  0  0  0
 31 42  1  0  0  0  0
 29  4  1  1  0  0  0
M  END
>  <cdx:fragmentId>
29634

$$$$
