2308.cdx
  Mrv1902 05222410252D          

 25 28  0  0  0  0            999 V2000
   10.7284  -10.6480    0.0000 O   0  0  0  0  0  0  0  0  0  0  0  0
    8.5850  -11.0605    0.0000 C   0  0  0  0  0  0  0  0  0  0  0  0
    9.2994  -10.6480    0.0000 C   0  0  0  0  0  0  0  0  0  0  0  0
   10.0139  -11.0605    0.0000 C   0  0  0  0  0  0  0  0  0  0  0  0
   10.0139  -11.8855    0.0000 C   0  0  0  0  0  0  0  0  0  0  0  0
    9.2994  -12.2980    0.0000 C   0  0  0  0  0  0  0  0  0  0  0  0
    8.5850  -11.8855    0.0000 C   0  0  0  0  0  0  0  0  0  0  0  0
    3.9101   -9.5634    0.0000 O   0  0  0  0  0  0  0  0  0  0  0  0
    3.6081  -10.6903    0.0000 C   0  0  0  0  0  0  0  0  0  0  0  0
    4.3226  -10.2778    0.0000 C   0  0  0  0  0  0  0  0  0  0  0  0
    5.0370   -9.8653    0.0000 C   0  0  0  0  0  0  0  0  0  0  0  0
    7.1560  -14.3605    0.0000 O   0  0  0  0  0  0  0  0  0  0  0  0
    4.7351  -10.9923    0.0000 C   0  0  0  0  0  0  0  0  0  0  0  0
    5.5555  -11.0785    0.0000 C   0  0  0  0  0  0  0  0  0  0  0  0
    4.3995  -11.7460    0.0000 O   0  0  0  0  0  0  0  0  0  0  0  0
    7.1560  -11.8855    0.0000 O   0  0  0  0  0  0  0  0  0  0  0  0
    6.4415  -12.2980    0.0000 C   0  0  0  0  0  0  0  0  0  0  0  0
    5.7271  -11.8855    0.0000 C   0  0  0  0  0  0  0  0  0  0  0  0
    5.0126  -12.2980    0.0000 C   0  0  0  0  0  0  0  0  0  0  0  0
    5.0126  -13.1230    0.0000 C   0  0  0  0  0  0  0  0  0  0  0  0
    5.7271  -13.5355    0.0000 C   0  0  0  0  0  0  0  0  0  0  0  0
    6.4415  -13.1230    0.0000 C   0  0  0  0  0  0  0  0  0  0  0  0
    7.1560  -13.5355    0.0000 C   0  0  0  0  0  0  0  0  0  0  0  0
    7.8705  -13.1230    0.0000 C   0  0  0  0  0  0  0  0  0  0  0  0
    7.8705  -12.2980    0.0000 C   0  0  1  0  0  0  0  0  0  0  0  0
 25  7  1  6  0  0  0
  4  1  1  0  0  0  0
  7  2  2  0  0  0  0
  3  2  1  0  0  0  0
  4  3  2  0  0  0  0
  5  4  1  0  0  0  0
  6  5  2  0  0  0  0
  7  6  1  0  0  0  0
 13 10  1  0  0  0  0
 10  8  1  0  0  0  0
 10  9  1  0  0  0  0
 11 10  1  0  0  0  0
 23 12  2  0  0  0  0
 14 18  1  0  0  0  0
 15 19  1  0  0  0  0
 15 13  1  0  0  0  0
 14 13  1  0  0  0  0
 25 16  1  0  0  0  0
 17 16  1  0  0  0  0
 22 17  2  0  0  0  0
 18 17  1  0  0  0  0
 19 18  2  0  0  0  0
 20 19  1  0  0  0  0
 21 20  2  0  0  0  0
 22 21  1  0  0  0  0
 23 22  1  0  0  0  0
 24 23  1  0  0  0  0
 25 24  1  0  0  0  0
M  END
>  <cdx:groupId>
64679

>  <cdx:fragmentId>
64604

$$$$
