2310.cdx
  Mrv1902 05222410202D          

 25 25  0  0  0  0            999 V2000
    9.3279   -6.5170    0.0000 C   0  0  0  0  0  0  0  0  0  0  0  0
    8.8938   -5.8155    0.0000 C   0  0  0  0  0  0  0  0  0  0  0  0
    8.0692   -5.8406    0.0000 C   0  0  0  0  0  0  0  0  0  0  0  0
    8.1127   -7.2689    0.0000 C   0  0  0  0  0  0  0  0  0  0  0  0
    8.9374   -7.2437    0.0000 C   0  0  0  0  0  0  0  0  0  0  0  0
    6.4635   -7.3192    0.0000 C   0  0  0  0  0  0  0  0  0  0  0  0
    6.8976   -8.0207    0.0000 C   0  0  0  0  0  0  0  0  0  0  0  0
    7.7222   -7.9956    0.0000 C   0  0  0  0  0  0  0  0  0  0  0  0
    6.4200   -5.8909    0.0000 C   0  0  0  0  0  0  0  0  0  0  0  0
    5.5953   -5.9160    0.0000 C   0  0  0  0  0  0  0  0  0  0  0  0
    5.2048   -6.6427    0.0000 C   0  0  0  0  0  0  0  0  0  0  0  0
    5.6389   -7.3443    0.0000 C   0  0  0  0  0  0  0  0  0  0  0  0
    7.6351   -5.1390    0.0000 C   0  0  0  0  0  0  0  0  0  0  0  0
    6.8105   -5.1642    0.0000 C   0  0  0  0  0  0  0  0  0  0  0  0
    8.8503   -4.3872    0.0000 C   0  0  0  0  0  0  0  0  0  0  0  0
    8.0256   -4.4123    0.0000 C   0  0  0  0  0  0  0  0  0  0  0  0
   10.1525   -6.4919    0.0000 C   0  0  0  0  0  0  0  0  0  0  0  0
    7.5916   -3.7108    0.0000 C   0  0  0  0  0  0  0  0  0  0  0  0
    5.1613   -5.2145    0.0000 C   0  0  0  0  0  0  0  0  0  0  0  0
    6.5071   -8.7474    0.0000 C   0  0  0  0  0  0  0  0  0  0  0  0
    9.1602   -7.5976    0.0000 H   0  0  0  0  0  0  0  0  0  0  0  0
    6.6415   -6.2909    0.0000 H   0  0  0  0  0  0  0  0  0  0  0  0
    6.5708   -4.7544    0.0000 H   0  0  0  0  0  0  0  0  0  0  0  0
    6.6588   -6.9558    0.0000 H   0  0  0  0  0  0  0  0  0  0  0  0
    4.6484   -6.6481    0.0000 H   0  0  0  0  0  0  0  0  0  0  0  0
  1  2  1  0  0  0  0
  2  3  1  0  0  0  0
  4  5  1  0  0  0  0
  5  1  2  0  0  0  0
  6  7  2  0  0  0  0
  7  8  1  0  0  0  0
  8  4  1  0  0  0  0
  9 10  1  0  0  0  0
 10 11  2  0  0  0  0
 11 12  1  0  0  0  0
 12  6  1  0  0  0  0
  3 13  1  0  0  0  0
 13 14  1  0  0  0  0
 14  9  2  0  0  0  0
 15 16  1  0  0  0  0
 16 13  1  0  0  0  0
  1 17  1  0  0  0  0
 16 18  1  0  0  0  0
 10 19  1  0  0  0  0
  7 20  1  0  0  0  0
  5 21  1  0  0  0  0
  9 22  1  0  0  0  0
 14 23  1  0  0  0  0
  6 24  1  0  0  0  0
 11 25  1  0  0  0  0
M  END
>  <cdx:fragmentId>
5

$$$$
