23135.cdx
  Mrv1902 05222410232D          

 13 13  0  0  0  0            999 V2000
    5.2927   -5.6906    0.0000 N   0  3  0  0  0  0  0  0  0  0  0  0
    4.5782   -6.1031    0.0000 C   0  0  0  0  0  0  0  0  0  0  0  0
    5.7052   -6.4050    0.0000 C   0  0  0  0  0  0  0  0  0  0  0  0
    4.8802   -4.9761    0.0000 C   0  0  0  0  0  0  0  0  0  0  0  0
    6.0072   -5.2781    0.0000 C   0  0  0  0  0  0  0  0  0  0  0  0
    6.7217   -5.6906    0.0000 C   0  0  0  0  0  0  0  0  0  0  0  0
    7.4361   -5.2781    0.0000 C   0  0  0  0  0  0  0  0  0  0  0  0
    7.4361   -4.4531    0.0000 C   0  0  0  0  0  0  0  0  0  0  0  0
    8.1506   -4.0406    0.0000 C   0  0  0  0  0  0  0  0  0  0  0  0
    8.8651   -4.4531    0.0000 C   0  0  0  0  0  0  0  0  0  0  0  0
    8.8651   -5.2781    0.0000 C   0  0  0  0  0  0  0  0  0  0  0  0
    8.1506   -5.6906    0.0000 C   0  0  0  0  0  0  0  0  0  0  0  0
    9.5795   -4.0406    0.0000 O   0  0  0  0  0  0  0  0  0  0  0  0
  1  2  1  0  0  0  0
  1  3  1  0  0  0  0
  1  4  1  0  0  0  0
  5  6  1  0  0  0  0
  7  8  1  0  0  0  0
  8  9  2  0  0  0  0
  9 10  1  0  0  0  0
 10 11  2  0  0  0  0
 11 12  1  0  0  0  0
  7 12  2  0  0  0  0
 10 13  1  0  0  0  0
  6  7  1  0  0  0  0
  1  5  1  0  0  0  0
M  CHG  1   1   1
M  END
>  <cdx:fragmentId>
17

$$$$
