231527.cdx
  Mrv1902 05222410232D          

 31 33  0  0  0  0            999 V2000
    7.5434   -6.5047    0.0000 C   0  0  0  0  0  0  0  0  0  0  0  0
    7.5543   -5.6798    0.0000 C   0  0  0  0  0  0  0  0  0  0  0  0
    8.2742   -5.2768    0.0000 C   0  0  0  0  0  0  0  0  0  0  0  0
    8.9831   -5.6987    0.0000 C   0  0  0  0  0  0  0  0  0  0  0  0
    8.9722   -6.5237    0.0000 C   0  0  0  0  0  0  0  0  0  0  0  0
    8.2523   -6.9267    0.0000 C   0  0  0  0  0  0  0  0  0  0  0  0
    8.2851   -4.4519    0.0000 C   0  0  0  0  0  0  0  0  0  0  0  0
    9.0050   -4.0489    0.0000 C   0  0  0  0  0  0  0  0  0  0  0  0
    9.0160   -3.2240    0.0000 C   0  0  0  0  0  0  0  0  0  0  0  0
    8.3070   -2.8020    0.0000 C   0  0  0  0  0  0  0  0  0  0  0  0
    9.7358   -2.8210    0.0000 C   0  0  0  0  0  0  0  0  0  0  0  0
    9.7030   -5.2958    0.0000 O   0  0  0  0  0  0  0  0  0  0  0  0
    6.8454   -5.2578    0.0000 O   0  0  0  0  0  0  0  0  0  0  0  0
    4.6529   -8.9416    0.0000 O   0  0  0  0  0  0  0  0  0  0  0  0
    3.2569   -6.4479    0.0000 O   0  0  0  0  0  0  0  0  0  0  0  0
    8.2086  -10.2264    0.0000 C   0  0  0  0  0  0  0  0  0  0  0  0
    8.9394   -8.9984    0.0000 C   0  0  0  0  0  0  0  0  0  0  0  0
    8.2195   -9.4014    0.0000 C   0  0  0  0  0  0  0  0  0  0  0  0
    7.5106   -8.9795    0.0000 C   0  0  0  0  0  0  0  0  0  0  0  0
    7.5215   -8.1546    0.0000 C   0  0  0  0  0  0  0  0  0  0  0  0
    6.0817   -8.9605    0.0000 O   0  0  0  0  0  0  0  0  0  0  0  0
    6.1146   -6.4858    0.0000 O   0  0  0  0  0  0  0  0  0  0  0  0
    5.3947   -6.8888    0.0000 C   0  0  0  0  0  0  0  0  0  0  0  0
    4.6857   -6.4668    0.0000 C   0  0  0  0  0  0  0  0  0  0  0  0
    3.9659   -6.8698    0.0000 C   0  0  0  0  0  0  0  0  0  0  0  0
    3.9549   -7.6947    0.0000 C   0  0  0  0  0  0  0  0  0  0  0  0
    4.6639   -8.1167    0.0000 C   0  0  0  0  0  0  0  0  0  0  0  0
    5.3837   -7.7137    0.0000 C   0  0  0  0  0  0  0  0  0  0  0  0
    6.0927   -8.1356    0.0000 C   0  0  0  0  0  0  0  0  0  0  0  0
    6.8126   -7.7326    0.0000 C   0  0  0  0  0  0  0  0  0  0  0  0
    6.8235   -6.9077    0.0000 C   0  0  0  0  0  0  0  0  0  0  0  0
 31  1  1  0  0  0  0
 27 14  1  0  0  0  0
 25 15  1  0  0  0  0
 30 20  1  0  0  0  0
 18 16  1  0  0  0  0
 18 17  1  0  0  0  0
 19 18  2  0  0  0  0
 20 19  1  0  0  0  0
 29 21  2  0  0  0  0
 31 22  1  0  0  0  0
 23 22  1  0  0  0  0
 28 23  2  0  0  0  0
 24 23  1  0  0  0  0
 25 24  2  0  0  0  0
 26 25  1  0  0  0  0
 27 26  2  0  0  0  0
 28 27  1  0  0  0  0
 29 28  1  0  0  0  0
 30 29  1  0  0  0  0
 31 30  2  0  0  0  0
  1  2  1  0  0  0  0
  2  3  2  0  0  0  0
  3  4  1  0  0  0  0
  4  5  2  0  0  0  0
  5  6  1  0  0  0  0
  1  6  2  0  0  0  0
  7  8  1  0  0  0  0
  8  9  2  0  0  0  0
  9 10  1  0  0  0  0
  9 11  1  0  0  0  0
  3  7  1  0  0  0  0
  4 12  1  0  0  0  0
  2 13  1  0  0  0  0
M  END
>  <cdx:fragmentId>
111770

$$$$
