231533.cdx
  Mrv1902 05222410232D          

 54 58  0  0  0  0            999 V2000
   13.2861   -7.6635    0.0000 O   0  0  0  0  0  0  0  0  0  0  0  0
   13.2861   -9.3135    0.0000 O   0  0  0  0  0  0  0  0  0  0  0  0
   11.1427   -8.9010    0.0000 C   0  0  0  0  0  0  0  0  0  0  0  0
   11.8572   -9.3135    0.0000 C   0  0  0  0  0  0  0  0  0  0  0  0
   12.5716   -8.9010    0.0000 C   0  0  0  0  0  0  0  0  0  0  0  0
   12.5716   -8.0760    0.0000 C   0  0  0  0  0  0  0  0  0  0  0  0
   11.8572   -7.6635    0.0000 C   0  0  0  0  0  0  0  0  0  0  0  0
   11.1427   -8.0760    0.0000 C   0  0  0  0  0  0  0  0  0  0  0  0
   10.4282   -7.6635    0.0000 C   0  0  0  0  0  0  0  0  0  0  0  0
    9.7138   -8.0760    0.0000 C   0  0  0  0  0  0  0  0  0  0  0  0
    8.9993   -7.6635    0.0000 O   0  0  0  0  0  0  0  0  0  0  0  0
    8.9993   -9.3135    0.0000 O   0  0  0  0  0  0  0  0  0  0  0  0
    3.4538   -6.6334    0.0000 O   0  0  0  0  0  0  0  0  0  0  0  0
    2.7001   -6.2978    0.0000 O   0  0  0  0  0  0  0  0  0  0  0  0
    3.3676   -5.8129    0.0000 C   0  0  0  0  0  0  0  0  0  0  0  0
    3.7171   -7.8234    0.0000 C   0  0  0  0  0  0  0  0  0  0  0  0
    4.5017   -7.5685    0.0000 O   0  0  0  0  0  0  0  0  0  0  0  0
    4.5337   -5.4340    0.0000 C   0  0  0  0  0  0  0  0  0  0  0  0
    4.1212   -6.1484    0.0000 C   0  0  2  0  0  0  0  0  0  0  0  0
    4.6733   -6.7615    0.0000 C   0  0  2  0  0  0  0  0  0  0  0  0
    5.4269   -6.4260    0.0000 C   0  0  1  0  0  0  0  0  0  0  0  0
    5.3407   -5.6055    0.0000 O   0  0  0  0  0  0  0  0  0  0  0  0
    6.1414   -6.8385    0.0000 O   0  0  0  0  0  0  0  0  0  0  0  0
    6.1414   -7.6635    0.0000 C   0  0  0  0  0  0  0  0  0  0  0  0
    7.5704  -11.7885    0.0000 O   0  0  0  0  0  0  0  0  0  0  0  0
    6.1414  -12.6135    0.0000 O   0  0  0  0  0  0  0  0  0  0  0  0
    4.7125  -11.7885    0.0000 O   0  0  0  0  0  0  0  0  0  0  0  0
    4.7125  -10.1385    0.0000 C   0  0  0  0  0  0  0  0  0  0  0  0
    5.4269  -10.5510    0.0000 C   0  0  1  0  0  0  0  0  0  0  0  0
    5.4269  -11.3760    0.0000 C   0  0  1  0  0  0  0  0  0  0  0  0
    6.1414  -11.7885    0.0000 C   0  0  2  0  0  0  0  0  0  0  0  0
    6.8559  -11.3760    0.0000 C   0  0  2  0  0  0  0  0  0  0  0  0
    6.8559  -10.5510    0.0000 C   0  0  1  0  0  0  0  0  0  0  0  0
    6.1414  -10.1385    0.0000 O   0  0  0  0  0  0  0  0  0  0  0  0
    7.5704  -10.1385    0.0000 O   0  0  0  0  0  0  0  0  0  0  0  0
    8.2848   -8.0760    0.0000 C   0  0  1  0  0  0  0  0  0  0  0  0
    8.2848   -8.9010    0.0000 C   0  0  1  0  0  0  0  0  0  0  0  0
    7.5704   -9.3135    0.0000 C   0  0  2  0  0  0  0  0  0  0  0  0
    6.8559   -8.9010    0.0000 C   0  0  1  0  0  0  0  0  0  0  0  0
    6.8559   -8.0760    0.0000 C   0  0  2  0  0  0  0  0  0  0  0  0
    7.5704   -7.6635    0.0000 O   0  0  0  0  0  0  0  0  0  0  0  0
    1.1401   -8.9010    0.0000 O   0  0  0  0  0  0  0  0  0  0  0  0
    1.1401  -10.5510    0.0000 O   0  0  0  0  0  0  0  0  0  0  0  0
    3.2835  -10.1385    0.0000 C   0  0  0  0  0  0  0  0  0  0  0  0
    2.5691  -10.5510    0.0000 C   0  0  0  0  0  0  0  0  0  0  0  0
    1.8546  -10.1385    0.0000 C   0  0  0  0  0  0  0  0  0  0  0  0
    1.8546   -9.3135    0.0000 C   0  0  0  0  0  0  0  0  0  0  0  0
    2.5691   -8.9010    0.0000 C   0  0  0  0  0  0  0  0  0  0  0  0
    3.2835   -9.3135    0.0000 C   0  0  0  0  0  0  0  0  0  0  0  0
    6.1414   -9.3135    0.0000 O   0  0  0  0  0  0  0  0  0  0  0  0
    5.4269   -8.0760    0.0000 O   0  0  0  0  0  0  0  0  0  0  0  0
    3.9980   -8.9010    0.0000 C   0  0  0  0  0  0  0  0  0  0  0  0
    4.7125   -9.3135    0.0000 C   0  0  0  0  0  0  0  0  0  0  0  0
    5.4269   -8.9010    0.0000 C   0  0  0  0  0  0  0  0  0  0  0  0
 39 50  1  6  0  0  0
 36 11  1  1  0  0  0
  9  8  1  0  0  0  0
  6  1  1  0  0  0  0
  5  2  1  0  0  0  0
  8  3  2  0  0  0  0
  4  3  1  0  0  0  0
  5  4  2  0  0  0  0
  6  5  1  0  0  0  0
  7  6  2  0  0  0  0
  8  7  1  0  0  0  0
 11 10  1  0  0  0  0
 10  9  1  0  0  0  0
 37 12  1  6  0  0  0
 40 24  1  1  0  0  0
 24 23  1  0  0  0  0
 21 23  1  1  0  0  0
 19 13  1  6  0  0  0
 19 15  1  1  0  0  0
 15 14  1  0  0  0  0
 20 17  1  6  0  0  0
 17 16  1  0  0  0  0
 22 18  1  0  0  0  0
 19 18  1  0  0  0  0
 20 19  1  0  0  0  0
 21 20  1  0  0  0  0
 22 21  1  0  0  0  0
 38 35  1  1  0  0  0
 33 35  1  1  0  0  0
 32 25  1  6  0  0  0
 31 26  1  6  0  0  0
 30 27  1  1  0  0  0
 29 28  1  6  0  0  0
 34 29  1  0  0  0  0
 30 29  1  0  0  0  0
 31 30  1  0  0  0  0
 32 31  1  0  0  0  0
 33 32  1  0  0  0  0
 34 33  1  0  0  0  0
 41 36  1  0  0  0  0
 37 36  1  0  0  0  0
 38 37  1  0  0  0  0
 39 38  1  0  0  0  0
 40 39  1  0  0  0  0
 41 40  1  0  0  0  0
 52 49  1  0  0  0  0
 47 42  1  0  0  0  0
 46 43  1  0  0  0  0
 49 44  2  0  0  0  0
 45 44  1  0  0  0  0
 46 45  2  0  0  0  0
 47 46  1  0  0  0  0
 48 47  2  0  0  0  0
 49 48  1  0  0  0  0
 54 50  1  0  0  0  0
 54 51  2  0  0  0  0
 53 52  2  0  0  0  0
 54 53  1  0  0  0  0
M  END
>  <cdx:groupId>
235154

>  <cdx:fragmentId>
235031

$$$$
