2316.cdx
  Mrv1902 05222410222D          

 23 25  0  0  0  0            999 V2000
    4.4170   -6.6619    0.0000 C   0  0  0  0  0  0  0  0  0  0  0  0
    4.4170   -7.4869    0.0000 C   0  0  0  0  0  0  0  0  0  0  0  0
    5.1315   -7.8994    0.0000 C   0  0  0  0  0  0  0  0  0  0  0  0
    5.8460   -7.4869    0.0000 C   0  0  0  0  0  0  0  0  0  0  0  0
    5.8460   -6.6619    0.0000 C   0  0  0  0  0  0  0  0  0  0  0  0
    5.1315   -6.2494    0.0000 C   0  0  0  0  0  0  0  0  0  0  0  0
    6.5604   -7.8994    0.0000 C   0  0  0  0  0  0  0  0  0  0  0  0
    7.2749   -7.4869    0.0000 C   0  0  0  0  0  0  0  0  0  0  0  0
    7.2749   -6.6619    0.0000 C   0  0  0  0  0  0  0  0  0  0  0  0
    6.5604   -6.2494    0.0000 O   0  0  0  0  0  0  0  0  0  0  0  0
    7.9894   -7.8994    0.0000 C   0  0  0  0  0  0  0  0  0  0  0  0
    8.7039   -7.4869    0.0000 C   0  0  0  0  0  0  0  0  0  0  0  0
    8.7039   -6.6619    0.0000 C   0  0  0  0  0  0  0  0  0  0  0  0
    7.9894   -6.2494    0.0000 C   0  0  0  0  0  0  0  0  0  0  0  0
    6.5604   -8.7244    0.0000 O   0  0  0  0  0  0  0  0  0  0  0  0
    3.7026   -6.2494    0.0000 O   0  0  0  0  0  0  0  0  0  0  0  0
    3.7026   -7.8994    0.0000 O   0  0  0  0  0  0  0  0  0  0  0  0
    2.9881   -8.3119    0.0000 C   0  0  0  0  0  0  0  0  0  0  0  0
    5.1315   -8.7244    0.0000 O   0  0  0  0  0  0  0  0  0  0  0  0
    9.4183   -6.2494    0.0000 O   0  0  0  0  0  0  0  0  0  0  0  0
    9.4183   -7.8994    0.0000 O   0  0  0  0  0  0  0  0  0  0  0  0
    7.9894   -8.7244    0.0000 O   0  0  0  0  0  0  0  0  0  0  0  0
   10.1328   -8.3119    0.0000 C   0  0  0  0  0  0  0  0  0  0  0  0
  1  2  2  0  0  0  0
  2  3  1  0  0  0  0
  3  4  2  0  0  0  0
  4  5  1  0  0  0  0
  5  6  2  0  0  0  0
  6  1  1  0  0  0  0
  4  7  1  0  0  0  0
  7  8  1  0  0  0  0
  8  9  2  0  0  0  0
  9 10  1  0  0  0  0
 10  5  1  0  0  0  0
  8 11  1  0  0  0  0
 11 12  2  0  0  0  0
 12 13  1  0  0  0  0
 13 14  2  0  0  0  0
 14  9  1  0  0  0  0
  7 15  2  0  0  0  0
  1 16  1  0  0  0  0
  2 17  1  0  0  0  0
  3 19  1  0  0  0  0
 13 20  1  0  0  0  0
 12 21  1  0  0  0  0
 11 22  1  0  0  0  0
 17 18  1  0  0  0  0
 21 23  1  0  0  0  0
M  STY  2   1 SUP   2 SUP
M  SAL   1  2  17  18
M  SBL   1  1  19
M  SMT   1 OCH3
M  SAP   1  1  17   2  1
M  SAL   2  2  21  23
M  SBL   2  1  22
M  SMT   2 OCH3
M  SAP   2  1  21  12  1
M  END
>  <cdx:fragmentId>
5

$$$$
