23203.cdx
  Mrv1902 05222410192D          

 10  9  0  0  0  0            999 V2000
    4.5112   -2.2480    0.0000 C   0  0  0  0  0  0  0  0  0  0  0  0
    5.2256   -2.6605    0.0000 C   0  0  0  0  0  0  0  0  0  0  0  0
    5.9401   -2.2480    0.0000 C   0  0  0  0  0  0  0  0  0  0  0  0
    6.6546   -2.6605    0.0000 C   0  0  0  0  0  0  0  0  0  0  0  0
    7.3690   -2.2480    0.0000 C   0  0  0  0  0  0  0  0  0  0  0  0
    8.0835   -2.6605    0.0000 C   0  0  0  0  0  0  0  0  0  0  0  0
    8.7980   -2.2480    0.0000 C   0  0  0  0  0  0  0  0  0  0  0  0
    9.5125   -2.6605    0.0000 C   0  0  0  0  0  0  0  0  0  0  0  0
   10.2269   -2.2480    0.0000 C   0  0  0  0  0  0  0  0  0  0  0  0
    3.7967   -2.6605    0.0000 O   0  0  0  0  0  0  0  0  0  0  0  0
  1  2  1  0  0  0  0
  2  3  2  0  0  0  0
  3  4  1  0  0  0  0
  4  5  2  0  0  0  0
  5  6  1  0  0  0  0
  6  7  1  0  0  0  0
  7  8  1  0  0  0  0
  8  9  1  0  0  0  0
  1 10  2  0  0  0  0
M  END
>  <cdx:fragmentId>
5

$$$$
