232216.cdx
  Mrv1902 05222410212D          

 29 30  0  0  0  0            999 V2000
   12.4997  -14.8907    0.0000 O   0  0  0  0  0  0  0  0  0  0  0  0
   12.4997  -16.5407    0.0000 O   0  0  0  0  0  0  0  0  0  0  0  0
   10.3563  -16.1282    0.0000 C   0  0  0  0  0  0  0  0  0  0  0  0
   11.0707  -16.5407    0.0000 C   0  0  0  0  0  0  0  0  0  0  0  0
   11.7852  -16.1282    0.0000 C   0  0  0  0  0  0  0  0  0  0  0  0
   11.7852  -15.3032    0.0000 C   0  0  0  0  0  0  0  0  0  0  0  0
   11.0707  -14.8907    0.0000 C   0  0  0  0  0  0  0  0  0  0  0  0
   10.3563  -15.3032    0.0000 C   0  0  0  0  0  0  0  0  0  0  0  0
    2.4971  -16.5407    0.0000 O   0  0  0  0  0  0  0  0  0  0  0  0
    1.7826  -15.3032    0.0000 C   0  0  0  0  0  0  0  0  0  0  0  0
    2.4971  -14.8907    0.0000 O   0  0  0  0  0  0  0  0  0  0  0  0
    4.6405  -16.1282    0.0000 C   0  0  0  0  0  0  0  0  0  0  0  0
    3.9260  -16.5407    0.0000 C   0  0  0  0  0  0  0  0  0  0  0  0
    3.2116  -16.1282    0.0000 C   0  0  0  0  0  0  0  0  0  0  0  0
    3.2116  -15.3032    0.0000 C   0  0  0  0  0  0  0  0  0  0  0  0
    3.9260  -14.8907    0.0000 C   0  0  0  0  0  0  0  0  0  0  0  0
    4.6405  -15.3032    0.0000 C   0  0  0  0  0  0  0  0  0  0  0  0
    6.7839  -14.0657    0.0000 O   0  0  0  0  0  0  0  0  0  0  0  0
    8.2129  -13.2407    0.0000 O   0  0  0  0  0  0  0  0  0  0  0  0
    9.0379  -14.0657    0.0000 O   0  0  0  0  0  0  0  0  0  0  0  0
    7.3879  -14.0657    0.0000 O   0  0  0  0  0  0  0  0  0  0  0  0
    8.2129  -14.0657    0.0000 S   0  0  0  0  0  0  0  0  0  0  0  0
    5.3550  -14.8907    0.0000 C   0  0  0  0  0  0  0  0  0  0  0  0
    6.0694  -15.3032    0.0000 C   0  0  0  0  0  0  0  0  0  0  0  0
    6.7839  -14.8907    0.0000 C   0  0  0  0  0  0  0  0  0  0  0  0
    7.4984  -15.3032    0.0000 C   0  0  0  0  0  0  0  0  0  0  0  0
    8.2129  -14.8907    0.0000 C   0  0  0  0  0  0  0  0  0  0  0  0
    8.9273  -15.3032    0.0000 C   0  0  0  0  0  0  0  0  0  0  0  0
    9.6418  -14.8907    0.0000 C   0  0  0  0  0  0  0  0  0  0  0  0
 29  8  1  0  0  0  0
  6  1  1  0  0  0  0
  5  2  1  0  0  0  0
  8  3  2  0  0  0  0
  4  3  1  0  0  0  0
  5  4  2  0  0  0  0
  6  5  1  0  0  0  0
  7  6  2  0  0  0  0
  8  7  1  0  0  0  0
 23 17  1  0  0  0  0
 14  9  1  0  0  0  0
 15 11  1  0  0  0  0
 11 10  1  0  0  0  0
 17 12  2  0  0  0  0
 13 12  1  0  0  0  0
 14 13  2  0  0  0  0
 15 14  1  0  0  0  0
 16 15  2  0  0  0  0
 17 16  1  0  0  0  0
 25 18  2  0  0  0  0
 27 22  1  0  0  0  0
 22 19  1  0  0  0  0
 22 20  2  0  0  0  0
 22 21  2  0  0  0  0
 24 23  1  0  0  0  0
 25 24  1  0  0  0  0
 26 25  1  0  0  0  0
 27 26  1  0  0  0  0
 28 27  1  0  0  0  0
 29 28  1  0  0  0  0
M  END
>  <cdx:groupId>
235261

>  <cdx:fragmentId>
235176

$$$$
