23229.cdx
  Mrv1902 05222410182D          

 12 12  0  0  0  0            999 V2000
    6.7614   -4.9772    0.0000 C   0  0  0  0  0  0  0  0  0  0  0  0
    7.4759   -4.5647    0.0000 C   0  0  0  0  0  0  0  0  0  0  0  0
    8.1903   -4.9772    0.0000 C   0  0  0  0  0  0  0  0  0  0  0  0
    8.1903   -5.8022    0.0000 C   0  0  0  0  0  0  0  0  0  0  0  0
    7.4759   -6.2147    0.0000 C   0  0  0  0  0  0  0  0  0  0  0  0
    6.7614   -5.8022    0.0000 C   0  0  0  0  0  0  0  0  0  0  0  0
    6.0469   -4.5647    0.0000 C   0  0  0  0  0  0  0  0  0  0  0  0
    5.3325   -4.9772    0.0000 C   0  0  0  0  0  0  0  0  0  0  0  0
    6.0469   -3.7397    0.0000 O   0  0  0  0  0  0  0  0  0  0  0  0
    8.9048   -4.5647    0.0000 C   0  0  0  0  0  0  0  0  0  0  0  0
    9.6193   -4.9772    0.0000 C   0  0  0  0  0  0  0  0  0  0  0  0
    8.9048   -3.7397    0.0000 O   0  0  0  0  0  0  0  0  0  0  0  0
  1  2  1  0  0  0  0
  2  3  2  0  0  0  0
  3  4  1  0  0  0  0
  4  5  2  0  0  0  0
  5  6  1  0  0  0  0
  1  6  2  0  0  0  0
  7  8  1  0  0  0  0
  7  9  2  0  0  0  0
  1  7  1  0  0  0  0
 10 11  1  0  0  0  0
 10 12  2  0  0  0  0
  3 10  1  0  0  0  0
M  END
>  <cdx:fragmentId>
5

$$$$
