232215.cdx
  Mrv1902 05222410212D          

 30 31  0  0  0  0            999 V2000
   12.2777  -16.0986    0.0000 O   0  0  0  0  0  0  0  0  0  0  0  0
   12.9840  -14.8565    0.0000 C   0  0  0  0  0  0  0  0  0  0  0  0
   12.2669  -14.4487    0.0000 O   0  0  0  0  0  0  0  0  0  0  0  0
   10.8380  -14.4581    0.0000 C   0  0  0  0  0  0  0  0  0  0  0  0
   11.5551  -14.8659    0.0000 C   0  0  0  0  0  0  0  0  0  0  0  0
   11.5606  -15.6908    0.0000 C   0  0  0  0  0  0  0  0  0  0  0  0
   10.8488  -16.1080    0.0000 C   0  0  0  0  0  0  0  0  0  0  0  0
   10.1316  -15.7002    0.0000 C   0  0  0  0  0  0  0  0  0  0  0  0
   10.1262  -14.8752    0.0000 C   0  0  0  0  0  0  0  0  0  0  0  0
    2.2753  -16.1644    0.0000 O   0  0  0  0  0  0  0  0  0  0  0  0
    1.5528  -14.9316    0.0000 C   0  0  0  0  0  0  0  0  0  0  0  0
    2.2645  -14.5144    0.0000 O   0  0  0  0  0  0  0  0  0  0  0  0
    3.6934  -14.5050    0.0000 C   0  0  0  0  0  0  0  0  0  0  0  0
    2.9817  -14.9222    0.0000 C   0  0  0  0  0  0  0  0  0  0  0  0
    2.9871  -15.7472    0.0000 C   0  0  0  0  0  0  0  0  0  0  0  0
    3.7043  -16.1550    0.0000 C   0  0  0  0  0  0  0  0  0  0  0  0
    4.4160  -15.7378    0.0000 C   0  0  0  0  0  0  0  0  0  0  0  0
    4.4106  -14.9128    0.0000 C   0  0  0  0  0  0  0  0  0  0  0  0
    6.5458  -13.6613    0.0000 O   0  0  0  0  0  0  0  0  0  0  0  0
    7.9693  -12.8269    0.0000 O   0  0  0  0  0  0  0  0  0  0  0  0
    8.7997  -13.6464    0.0000 O   0  0  0  0  0  0  0  0  0  0  0  0
    7.1497  -13.6573    0.0000 O   0  0  0  0  0  0  0  0  0  0  0  0
    7.9747  -13.6519    0.0000 S   0  0  0  0  0  0  0  0  0  0  0  0
    5.1223  -14.4956    0.0000 C   0  0  0  0  0  0  0  0  0  0  0  0
    5.8395  -14.9034    0.0000 C   0  0  0  0  0  0  0  0  0  0  0  0
    6.5512  -14.4862    0.0000 C   0  0  0  0  0  0  0  0  0  0  0  0
    7.2684  -14.8940    0.0000 C   0  0  0  0  0  0  0  0  0  0  0  0
    7.9801  -14.4768    0.0000 C   0  0  0  0  0  0  0  0  0  0  0  0
    8.6973  -14.8846    0.0000 C   0  0  0  0  0  0  0  0  0  0  0  0
    9.4091  -14.4675    0.0000 C   0  0  0  0  0  0  0  0  0  0  0  0
 30  9  1  0  0  0  0
  6  1  1  0  0  0  0
  5  3  1  0  0  0  0
  3  2  1  0  0  0  0
  9  4  2  0  0  0  0
  5  4  1  0  0  0  0
  6  5  2  0  0  0  0
  7  6  1  0  0  0  0
  8  7  2  0  0  0  0
  9  8  1  0  0  0  0
 24 18  1  0  0  0  0
 15 10  1  0  0  0  0
 14 12  1  0  0  0  0
 12 11  1  0  0  0  0
 18 13  2  0  0  0  0
 14 13  1  0  0  0  0
 15 14  2  0  0  0  0
 16 15  1  0  0  0  0
 17 16  2  0  0  0  0
 18 17  1  0  0  0  0
 26 19  2  0  0  0  0
 28 23  1  0  0  0  0
 23 20  1  0  0  0  0
 23 21  2  0  0  0  0
 23 22  2  0  0  0  0
 25 24  1  0  0  0  0
 26 25  1  0  0  0  0
 27 26  1  0  0  0  0
 28 27  1  0  0  0  0
 29 28  1  0  0  0  0
 30 29  1  0  0  0  0
M  END
>  <cdx:groupId>
235462

>  <cdx:fragmentId>
235368

$$$$
