232217.cdx
  Mrv1902 05222410212D          

 28 29  0  0  0  0            999 V2000
   12.2695  -14.8907    0.0000 O   0  0  0  0  0  0  0  0  0  0  0  0
   12.2695  -16.5407    0.0000 O   0  0  0  0  0  0  0  0  0  0  0  0
   10.1261  -16.1282    0.0000 C   0  0  0  0  0  0  0  0  0  0  0  0
   10.8406  -16.5407    0.0000 C   0  0  0  0  0  0  0  0  0  0  0  0
   11.5551  -16.1282    0.0000 C   0  0  0  0  0  0  0  0  0  0  0  0
   11.5551  -15.3032    0.0000 C   0  0  0  0  0  0  0  0  0  0  0  0
   10.8406  -14.8907    0.0000 C   0  0  0  0  0  0  0  0  0  0  0  0
   10.1261  -15.3032    0.0000 C   0  0  0  0  0  0  0  0  0  0  0  0
    2.2670  -14.8907    0.0000 O   0  0  0  0  0  0  0  0  0  0  0  0
    2.2670  -16.5407    0.0000 O   0  0  0  0  0  0  0  0  0  0  0  0
    4.4104  -16.1282    0.0000 C   0  0  0  0  0  0  0  0  0  0  0  0
    3.6959  -16.5407    0.0000 C   0  0  0  0  0  0  0  0  0  0  0  0
    2.9814  -16.1282    0.0000 C   0  0  0  0  0  0  0  0  0  0  0  0
    2.9814  -15.3032    0.0000 C   0  0  0  0  0  0  0  0  0  0  0  0
    3.6959  -14.8907    0.0000 C   0  0  0  0  0  0  0  0  0  0  0  0
    4.4104  -15.3032    0.0000 C   0  0  0  0  0  0  0  0  0  0  0  0
    6.5538  -14.0657    0.0000 O   0  0  0  0  0  0  0  0  0  0  0  0
    7.9827  -13.2407    0.0000 O   0  0  0  0  0  0  0  0  0  0  0  0
    8.8077  -14.0657    0.0000 O   0  0  0  0  0  0  0  0  0  0  0  0
    7.1577  -14.0657    0.0000 O   0  0  0  0  0  0  0  0  0  0  0  0
    7.9827  -14.0657    0.0000 S   0  0  0  0  0  0  0  0  0  0  0  0
    5.1248  -14.8907    0.0000 C   0  0  0  0  0  0  0  0  0  0  0  0
    5.8393  -15.3032    0.0000 C   0  0  0  0  0  0  0  0  0  0  0  0
    6.5538  -14.8907    0.0000 C   0  0  0  0  0  0  0  0  0  0  0  0
    7.2683  -15.3032    0.0000 C   0  0  0  0  0  0  0  0  0  0  0  0
    7.9827  -14.8907    0.0000 C   0  0  0  0  0  0  0  0  0  0  0  0
    8.6972  -15.3032    0.0000 C   0  0  0  0  0  0  0  0  0  0  0  0
    9.4117  -14.8907    0.0000 C   0  0  0  0  0  0  0  0  0  0  0  0
 28  8  1  0  0  0  0
  6  1  1  0  0  0  0
  5  2  1  0  0  0  0
  8  3  2  0  0  0  0
  4  3  1  0  0  0  0
  5  4  2  0  0  0  0
  6  5  1  0  0  0  0
  7  6  2  0  0  0  0
  8  7  1  0  0  0  0
 22 16  1  0  0  0  0
 14  9  1  0  0  0  0
 13 10  1  0  0  0  0
 16 11  2  0  0  0  0
 12 11  1  0  0  0  0
 13 12  2  0  0  0  0
 14 13  1  0  0  0  0
 15 14  2  0  0  0  0
 16 15  1  0  0  0  0
 24 17  2  0  0  0  0
 26 21  1  0  0  0  0
 21 18  1  0  0  0  0
 21 19  2  0  0  0  0
 21 20  2  0  0  0  0
 23 22  1  0  0  0  0
 24 23  1  0  0  0  0
 25 24  1  0  0  0  0
 26 25  1  0  0  0  0
 27 26  1  0  0  0  0
 28 27  1  0  0  0  0
M  END
>  <cdx:groupId>
235356

>  <cdx:fragmentId>
235274

$$$$
