232519.cdx
  Mrv1902 05222410262D          

 50 51  0  0  0  0            999 V2000
    8.4703   -5.3075    0.0000 N   0  0  0  0  0  0  0  0  0  0  0  0
    9.2953   -5.3075    0.0000 C   0  0  0  0  0  0  0  0  0  0  0  0
    9.7078   -6.0220    0.0000 C   0  0  0  0  0  0  0  0  0  0  0  0
   10.4780   -6.3176    0.0000 N   0  0  0  0  0  0  0  0  0  0  0  0
   10.4780   -7.1426    0.0000 C   0  0  0  0  0  0  0  0  0  0  0  0
    9.7078   -7.4383    0.0000 C   0  0  0  0  0  0  0  0  0  0  0  0
    9.2953   -8.1527    0.0000 N   0  0  0  0  0  0  0  0  0  0  0  0
    9.7078   -8.8672    0.0000 C   0  0  0  0  0  0  0  0  0  0  0  0
    9.2953   -9.5817    0.0000 C   0  0  0  0  0  0  0  0  0  0  0  0
    8.4703   -9.5817    0.0000 N   0  0  0  0  0  0  0  0  0  0  0  0
    8.0578  -10.2962    0.0000 C   0  0  0  0  0  0  0  0  0  0  0  0
    7.2328  -10.2962    0.0000 C   0  0  0  0  0  0  0  0  0  0  0  0
    6.8203   -9.5817    0.0000 N   0  0  0  0  0  0  0  0  0  0  0  0
    5.9953   -9.5817    0.0000 C   0  0  0  0  0  0  0  0  0  0  0  0
    5.5828   -8.8672    0.0000 C   0  0  0  0  0  0  0  0  0  0  0  0
    5.9953   -8.1527    0.0000 N   0  0  0  0  0  0  0  0  0  0  0  0
    5.5828   -7.4383    0.0000 C   0  0  0  0  0  0  0  0  0  0  0  0
    5.9953   -6.7238    0.0000 C   0  0  0  0  0  0  0  0  0  0  0  0
    6.8203   -6.7238    0.0000 N   0  0  0  0  0  0  0  0  0  0  0  0
    7.2328   -6.0093    0.0000 C   0  0  0  0  0  0  0  0  0  0  0  0
    8.0578   -6.0093    0.0000 C   0  0  0  0  0  0  0  0  0  0  0  0
    9.7078   -4.5930    0.0000 O   0  0  0  0  0  0  0  0  0  0  0  0
   11.1924   -7.5551    0.0000 O   0  0  0  0  0  0  0  0  0  0  0  0
   10.5328   -8.8672    0.0000 O   0  0  0  0  0  0  0  0  0  0  0  0
    8.4703  -11.0106    0.0000 O   0  0  0  0  0  0  0  0  0  0  0  0
    5.5828  -10.2962    0.0000 O   0  0  0  0  0  0  0  0  0  0  0  0
    4.7578   -7.4383    0.0000 O   0  0  0  0  0  0  0  0  0  0  0  0
    6.8203   -5.2949    0.0000 O   0  0  0  0  0  0  0  0  0  0  0  0
    6.8203  -11.0106    0.0000 C   0  0  0  0  0  0  0  0  0  0  0  0
    7.2328  -11.7251    0.0000 C   0  0  0  0  0  0  0  0  0  0  0  0
    8.0578  -11.7251    0.0000 C   0  0  0  0  0  0  0  0  0  0  0  0
    6.8203  -12.4396    0.0000 C   0  0  0  0  0  0  0  0  0  0  0  0
    9.1720   -6.8109    0.0000 C   0  0  0  0  0  0  0  0  0  0  0  0
    5.5828   -6.0093    0.0000 C   0  0  0  0  0  0  0  0  0  0  0  0
    4.7578   -6.0093    0.0000 C   0  0  0  0  0  0  0  0  0  0  0  0
    5.9953   -5.2949    0.0000 O   0  0  0  0  0  0  0  0  0  0  0  0
    8.3435   -6.7938    0.0000 C   0  0  0  0  0  0  0  0  0  0  0  0
    7.5989   -6.4387    0.0000 C   0  0  0  0  0  0  0  0  0  0  0  0
    8.2644   -7.6150    0.0000 O   0  0  0  0  0  0  0  0  0  0  0  0
    9.2953  -11.0106    0.0000 C   0  0  0  0  0  0  0  0  0  0  0  0
    9.7078  -10.2962    0.0000 C   0  0  0  0  0  0  0  0  0  0  0  0
   10.5328  -10.2962    0.0000 C   0  0  0  0  0  0  0  0  0  0  0  0
   10.9453  -11.0106    0.0000 C   0  0  0  0  0  0  0  0  0  0  0  0
    4.7578   -8.8672    0.0000 C   0  0  0  0  0  0  0  0  0  0  0  0
    4.3453   -9.5817    0.0000 C   0  0  0  0  0  0  0  0  0  0  0  0
    3.5203   -9.5817    0.0000 C   0  0  0  0  0  0  0  0  0  0  0  0
    3.1078  -10.2962    0.0000 C   0  0  0  0  0  0  0  0  0  0  0  0
    3.5203  -11.0106    0.0000 C   0  0  0  0  0  0  0  0  0  0  0  0
    4.3453  -11.0106    0.0000 C   0  0  0  0  0  0  0  0  0  0  0  0
    4.7578  -10.2962    0.0000 C   0  0  0  0  0  0  0  0  0  0  0  0
  1  2  1  0  0  0  0
  2  3  1  0  0  0  0
  3  4  1  0  0  0  0
  4  5  1  0  0  0  0
  5  6  1  0  0  0  0
  6  7  1  0  0  0  0
  7  8  1  0  0  0  0
  8  9  1  0  0  0  0
  9 10  1  0  0  0  0
 10 11  1  0  0  0  0
 11 12  1  0  0  0  0
 12 13  1  0  0  0  0
 13 14  1  0  0  0  0
 14 15  1  0  0  0  0
 15 16  1  0  0  0  0
 16 17  1  0  0  0  0
 17 18  1  0  0  0  0
 18 19  1  0  0  0  0
 19 20  1  0  0  0  0
 20 21  1  0  0  0  0
  1 21  1  0  0  0  0
  2 22  2  0  0  0  0
  5 23  2  0  0  0  0
  8 24  2  0  0  0  0
 11 25  2  0  0  0  0
 14 26  2  0  0  0  0
 17 27  2  0  0  0  0
 20 28  2  0  0  0  0
 29 30  1  0  0  0  0
 30 31  1  0  0  0  0
 30 32  1  0  0  0  0
 12 29  1  0  0  0  0
  6 33  1  0  0  0  0
 34 35  1  0  0  0  0
 34 36  1  0  0  0  0
 18 34  1  0  0  0  0
 37 38  1  0  0  0  0
 37 39  1  0  0  0  0
  3 37  1  0  0  0  0
 40 41  1  0  0  0  0
 41 42  1  0  0  0  0
 42 43  1  0  0  0  0
  9 41  1  0  0  0  0
 44 45  1  0  0  0  0
 45 46  1  0  0  0  0
 46 47  2  0  0  0  0
 47 48  1  0  0  0  0
 48 49  2  0  0  0  0
 49 50  1  0  0  0  0
 45 50  2  0  0  0  0
 15 44  1  0  0  0  0
M  END
>  <cdx:fragmentId>
5

$$$$
