232703.cdx
  Mrv1902 05222410202D          

 12 14  0  0  0  0            999 V2000
   16.0619  -12.5085    0.0000 C   0  0  0  0  0  0  0  0  0  0  0  0
   16.0619  -11.6836    0.0000 C   0  0  0  0  0  0  0  0  0  0  0  0
   16.4744  -13.2234    0.0000 C   0  0  0  0  0  0  0  0  0  0  0  0
   16.8869  -12.5085    0.0000 O   0  0  0  0  0  0  0  0  0  0  0  0
   15.2370  -12.5085    0.0000 C   0  0  0  0  0  0  0  0  0  0  0  0
   16.0619  -13.9383    0.0000 C   0  0  0  0  0  0  0  0  0  0  0  0
   14.8246  -13.2234    0.0000 C   0  0  0  0  0  0  0  0  0  0  0  0
   15.2370  -13.9383    0.0000 C   0  0  0  0  0  0  0  0  0  0  0  0
   14.8246  -14.6518    0.0000 C   0  0  0  0  0  0  0  0  0  0  0  0
   15.4570  -15.1825    0.0000 C   0  0  0  0  0  0  0  0  0  0  0  0
   14.1936  -15.1825    0.0000 C   0  0  0  0  0  0  0  0  0  0  0  0
   14.0506  -14.3700    0.0000 O   0  0  0  0  0  0  0  0  0  0  0  0
  1  2  1  0  0  0  0
  3  1  1  0  0  0  0
  4  1  1  0  0  0  0
  5  1  1  0  0  0  0
  6  3  1  0  0  0  0
  7  5  1  0  0  0  0
  8  6  1  0  0  0  0
  9  8  1  0  0  0  0
 10  9  1  0  0  0  0
 11  9  1  0  0  0  0
 12  9  1  0  0  0  0
  3  4  1  0  0  0  0
  7  8  1  0  0  0  0
 11 12  1  0  0  0  0
M  END
>  <cdx:fragmentId>
3915

$$$$
