23290.cdx
  Mrv1902 05222410262D          

 27 28  0  0  0  0            999 V2000
    6.4190   -8.0420    0.0000 O   0  0  0  0  0  0  0  0  0  0  0  0
    7.1337   -8.4541    0.0000 C   0  0  2  0  0  0  0  0  0  0  0  0
    7.1341   -9.2791    0.0000 C   0  0  1  0  0  0  0  0  0  0  0  0
    6.4199   -9.6920    0.0000 C   0  0  2  0  0  0  0  0  0  0  0  0
    5.7052   -9.2799    0.0000 C   0  0  1  0  0  0  0  0  0  0  0  0
    5.7047   -8.4549    0.0000 C   0  0  1  0  0  0  0  0  0  0  0  0
    7.8488   -9.6912    0.0000 O   0  0  0  0  0  0  0  0  0  0  0  0
    6.4203  -10.5170    0.0000 O   0  0  0  0  0  0  0  0  0  0  0  0
    4.9909   -9.6928    0.0000 O   0  0  0  0  0  0  0  0  0  0  0  0
    4.9900   -8.0428    0.0000 C   0  0  0  0  0  0  0  0  0  0  0  0
    4.2756   -8.4553    0.0000 O   0  0  0  0  0  0  0  0  0  0  0  0
    7.8479   -8.0412    0.0000 O   0  0  0  0  0  0  0  0  0  0  0  0
    8.5529   -8.4698    0.0000 C   0  0  1  0  0  0  0  0  0  0  0  0
    9.2765   -8.0736    0.0000 C   0  0  2  0  0  0  0  0  0  0  0  0
    9.9814   -8.5021    0.0000 C   0  0  0  0  0  0  0  0  0  0  0  0
    9.9628   -9.3269    0.0000 C   0  0  0  0  0  0  0  0  0  0  0  0
    9.2391   -9.7232    0.0000 C   0  0  0  0  0  0  0  0  0  0  0  0
    8.5342   -9.2946    0.0000 C   0  0  0  0  0  0  0  0  0  0  0  0
   10.4100   -7.7972    0.0000 C   0  0  0  0  0  0  0  0  0  0  0  0
   10.8062   -8.5208    0.0000 C   0  0  0  0  0  0  0  0  0  0  0  0
    7.8292   -8.8660    0.0000 C   0  0  0  0  0  0  0  0  0  0  0  0
    9.2952   -7.2488    0.0000 C   0  0  0  0  0  0  0  0  0  0  0  0
    8.5902   -6.8202    0.0000 C   0  0  0  0  0  0  0  0  0  0  0  0
    8.6089   -5.9954    0.0000 C   0  0  2  0  0  0  0  0  0  0  0  0
    7.9040   -5.5669    0.0000 C   0  0  0  0  0  0  0  0  0  0  0  0
    9.3325   -5.5992    0.0000 O   0  0  0  0  0  0  0  0  0  0  0  0
   10.0001   -7.6774    0.0000 O   0  0  0  0  0  0  0  0  0  0  0  0
  1  2  1  0  0  0  0
  2  3  1  0  0  0  0
  3  4  1  0  0  0  0
  4  5  1  0  0  0  0
  5  6  1  0  0  0  0
  1  6  1  0  0  0  0
  3  7  1  6  0  0  0
  4  8  1  1  0  0  0
  5  9  1  6  0  0  0
 10 11  1  0  0  0  0
  6 10  1  1  0  0  0
 13 14  1  0  0  0  0
 14 15  1  0  0  0  0
 15 16  1  0  0  0  0
 16 17  1  0  0  0  0
 17 18  1  0  0  0  0
 13 18  1  0  0  0  0
 15 19  1  0  0  0  0
 15 20  1  0  0  0  0
 13 21  1  6  0  0  0
 22 23  2  0  0  0  0
 23 24  1  0  0  0  0
 24 25  1  0  0  0  0
 24 26  1  6  0  0  0
 14 22  1  0  0  0  0
 14 27  1  6  0  0  0
 12 13  1  0  0  0  0
  2 12  1  1  0  0  0
M  END
>  <cdx:fragmentId>
35937

$$$$
