233.cdx
  Mrv1902 05222410232D          

 14 14  0  0  0  0            999 V2000
    6.5018   -5.2239    0.0000 C   0  0  2  0  0  0  0  0  0  0  0  0
    6.5018   -6.0489    0.0000 C   0  0  2  0  0  0  0  0  0  0  0  0
    7.2163   -6.4614    0.0000 C   0  0  1  0  0  0  0  0  0  0  0  0
    7.9307   -6.0489    0.0000 C   0  0  2  0  0  0  0  0  0  0  0  0
    7.9307   -5.2239    0.0000 C   0  0  2  0  0  0  0  0  0  0  0  0
    7.2163   -4.8114    0.0000 O   0  0  0  0  0  0  0  0  0  0  0  0
    8.6452   -4.8114    0.0000 O   0  0  0  0  0  0  0  0  0  0  0  0
    8.6452   -6.4614    0.0000 O   0  0  0  0  0  0  0  0  0  0  0  0
    7.2163   -7.2864    0.0000 O   0  0  0  0  0  0  0  0  0  0  0  0
    5.7873   -6.4614    0.0000 O   0  0  0  0  0  0  0  0  0  0  0  0
    5.7873   -4.8114    0.0000 C   0  0  0  0  0  0  0  0  0  0  0  0
    5.0729   -5.2239    0.0000 O   0  0  0  0  0  0  0  0  0  0  0  0
    9.3597   -5.2239    0.0000 C   0  0  0  0  0  0  0  0  0  0  0  0
   10.0742   -4.8114    0.0000 C   0  0  0  0  0  0  0  0  0  0  0  0
  1  2  1  0  0  0  0
  2  3  1  0  0  0  0
  3  4  1  0  0  0  0
  4  5  1  0  0  0  0
  5  6  1  0  0  0  0
  6  1  1  0  0  0  0
  5  7  1  6  0  0  0
  4  8  1  6  0  0  0
  3  9  1  1  0  0  0
  2 10  1  6  0  0  0
  1 11  1  1  0  0  0
 11 12  1  0  0  0  0
  7 13  1  0  0  0  0
 13 14  1  0  0  0  0
M  END
>  <cdx:fragmentId>
5

$$$$
