23335.cdx
  Mrv1902 05222410242D          

 21 24  0  0  0  0            999 V2000
    8.4645   -8.7739    0.0000 N   0  0  0  0  0  0  0  0  0  0  0  0
    9.1788   -8.3612    0.0000 C   0  0  0  0  0  0  0  0  0  0  0  0
    9.1791   -7.5362    0.0000 C   0  0  0  0  0  0  0  0  0  0  0  0
    8.4650   -7.1230    0.0000 C   0  0  0  0  0  0  0  0  0  0  0  0
    7.7505   -7.5355    0.0000 C   0  0  0  0  0  0  0  0  0  0  0  0
    7.0361   -7.1230    0.0000 C   0  0  0  0  0  0  0  0  0  0  0  0
    6.3216   -7.5355    0.0000 C   0  0  0  0  0  0  0  0  0  0  0  0
    6.3216   -8.3605    0.0000 C   0  0  0  0  0  0  0  0  0  0  0  0
    7.0361   -8.7730    0.0000 C   0  0  0  0  0  0  0  0  0  0  0  0
    7.7505   -8.3605    0.0000 C   0  0  1  0  0  0  0  0  0  0  0  0
    7.0361   -6.2980    0.0000 C   0  0  0  0  0  0  0  0  0  0  0  0
    7.7505   -5.8855    0.0000 C   0  0  0  0  0  0  0  0  0  0  0  0
    8.4650   -6.2980    0.0000 C   0  0  0  0  0  0  0  0  0  0  0  0
    5.6071   -8.7730    0.0000 C   0  0  0  0  0  0  0  0  0  0  0  0
    4.8927   -8.3605    0.0000 C   0  0  0  0  0  0  0  0  0  0  0  0
    4.8927   -7.5355    0.0000 C   0  0  0  0  0  0  0  0  0  0  0  0
    5.6071   -7.1230    0.0000 C   0  0  0  0  0  0  0  0  0  0  0  0
    6.3216   -5.8855    0.0000 O   0  0  0  0  0  0  0  0  0  0  0  0
    7.7505   -5.0605    0.0000 O   0  0  0  0  0  0  0  0  0  0  0  0
    8.4650   -4.6480    0.0000 C   0  0  0  0  0  0  0  0  0  0  0  0
    7.7505   -9.1855    0.0000 H   0  0  0  0  0  0  0  0  0  0  0  0
  1  2  1  0  0  0  0
  2  3  1  0  0  0  0
  3  4  1  0  0  0  0
  4  5  1  0  0  0  0
  5  6  2  0  0  0  0
  6  7  1  0  0  0  0
  7  8  1  0  0  0  0
  8  9  1  0  0  0  0
  9 10  1  0  0  0  0
  1 10  1  0  0  0  0
  5 10  1  0  0  0  0
 11 12  2  0  0  0  0
 12 13  1  0  0  0  0
 13  4  2  0  0  0  0
 11  6  1  0  0  0  0
 14 15  1  0  0  0  0
 15 16  2  0  0  0  0
 16 17  1  0  0  0  0
 17  7  2  0  0  0  0
 14  8  2  0  0  0  0
 11 18  1  0  0  0  0
 19 20  1  0  0  0  0
 12 19  1  0  0  0  0
 10 21  1  1  0  0  0
M  END
>  <cdx:fragmentId>
5

$$$$
