233656.cdx
  Mrv1902 05222410222D          

 40 42  0  0  0  0            999 V2000
    8.7216   -9.1242    0.0000 N   0  0  0  0  0  0  0  0  0  0  0  0
    8.0071   -8.7117    0.0000 C   0  0  0  0  0  0  0  0  0  0  0  0
    8.0071   -7.8867    0.0000 C   0  0  1  0  0  0  0  0  0  0  0  0
    7.2927   -7.4742    0.0000 N   0  0  0  0  0  0  0  0  0  0  0  0
    7.2927   -6.6492    0.0000 C   0  0  0  0  0  0  0  0  0  0  0  0
    6.5782   -6.2367    0.0000 C   0  0  0  0  0  0  0  0  0  0  0  0
    5.8637   -6.6492    0.0000 C   0  0  1  0  0  0  0  0  0  0  0  0
    5.8637   -7.4742    0.0000 N   0  0  0  0  0  0  0  0  0  0  0  0
    5.1492   -7.8867    0.0000 C   0  0  0  0  0  0  0  0  0  0  0  0
    5.1492   -8.7117    0.0000 C   0  0  1  0  0  0  0  0  0  0  0  0
    5.8637   -9.1242    0.0000 N   0  0  0  0  0  0  0  0  0  0  0  0
    5.8637   -9.9492    0.0000 C   0  0  0  0  0  0  0  0  0  0  0  0
    6.5782  -10.3617    0.0000 C   0  0  1  0  0  0  0  0  0  0  0  0
    7.2927   -9.9492    0.0000 N   0  0  0  0  0  0  0  0  0  0  0  0
    8.0071  -10.3617    0.0000 C   0  0  0  0  0  0  0  0  0  0  0  0
    8.7216   -9.9492    0.0000 C   0  0  2  0  0  0  0  0  0  0  0  0
    9.5062  -10.2041    0.0000 C   0  0  1  0  0  0  0  0  0  0  0  0
    9.9911   -9.5367    0.0000 C   0  0  1  0  0  0  0  0  0  0  0  0
    9.5062   -8.8692    0.0000 C   0  0  0  0  0  0  0  0  0  0  0  0
    7.2927   -9.1242    0.0000 O   0  0  0  0  0  0  0  0  0  0  0  0
    8.0071   -6.2367    0.0000 O   0  0  0  0  0  0  0  0  0  0  0  0
    4.4348   -7.4742    0.0000 O   0  0  0  0  0  0  0  0  0  0  0  0
    5.1492  -10.3617    0.0000 O   0  0  0  0  0  0  0  0  0  0  0  0
    8.0071  -11.1867    0.0000 O   0  0  0  0  0  0  0  0  0  0  0  0
    5.1492   -6.2367    0.0000 C   0  0  0  0  0  0  0  0  0  0  0  0
    4.4348   -6.6492    0.0000 C   0  0  0  0  0  0  0  0  0  0  0  0
    3.7203   -6.2367    0.0000 C   0  0  0  0  0  0  0  0  0  0  0  0
    3.7203   -5.4117    0.0000 C   0  0  0  0  0  0  0  0  0  0  0  0
    4.4348   -4.9992    0.0000 C   0  0  0  0  0  0  0  0  0  0  0  0
    5.1492   -5.4117    0.0000 C   0  0  0  0  0  0  0  0  0  0  0  0
    4.4348   -9.1242    0.0000 C   0  0  0  0  0  0  0  0  0  0  0  0
    3.7203   -8.7117    0.0000 O   0  0  0  0  0  0  0  0  0  0  0  0
    6.5782  -11.1867    0.0000 C   0  0  2  0  0  0  0  0  0  0  0  0
    5.8637  -11.5992    0.0000 C   0  0  0  0  0  0  0  0  0  0  0  0
    7.2927  -11.5992    0.0000 O   0  0  0  0  0  0  0  0  0  0  0  0
    8.7216   -7.4742    0.0000 C   0  0  0  0  0  0  0  0  0  0  0  0
    9.4361   -7.8867    0.0000 C   0  0  0  0  0  0  0  0  0  0  0  0
   10.8161   -9.5367    0.0000 Cl  0  0  0  0  0  0  0  0  0  0  0  0
    9.7612  -10.9887    0.0000 Cl  0  0  0  0  0  0  0  0  0  0  0  0
    8.8078  -10.7697    0.0000 H   0  0  0  0  0  0  0  0  0  0  0  0
  1  2  1  0  0  0  0
  2  3  1  0  0  0  0
  3  4  1  0  0  0  0
  4  5  1  0  0  0  0
  5  6  1  0  0  0  0
  6  7  1  0  0  0  0
  7  8  1  0  0  0  0
  8  9  1  0  0  0  0
  9 10  1  0  0  0  0
 10 11  1  0  0  0  0
 11 12  1  0  0  0  0
 12 13  1  0  0  0  0
 13 14  1  1  0  0  0
 14 15  1  0  0  0  0
 15 16  1  0  0  0  0
 16 17  1  0  0  0  0
 17 18  1  0  0  0  0
 18 19  1  0  0  0  0
  1 19  1  0  0  0  0
  1 16  1  0  0  0  0
  2 20  2  0  0  0  0
  5 21  2  0  0  0  0
  9 22  2  0  0  0  0
 12 23  2  0  0  0  0
 15 24  2  0  0  0  0
 25 26  1  0  0  0  0
 26 27  2  0  0  0  0
 27 28  1  0  0  0  0
 28 29  2  0  0  0  0
 29 30  1  0  0  0  0
 25 30  2  0  0  0  0
  7 25  1  1  0  0  0
 31 32  1  0  0  0  0
 10 31  1  1  0  0  0
 33 34  1  0  0  0  0
 33 35  1  1  0  0  0
 13 33  1  0  0  0  0
 36 37  1  0  0  0  0
  3 36  1  1  0  0  0
 18 38  1  1  0  0  0
 17 39  1  1  0  0  0
 16 40  1  6  0  0  0
M  END
>  <cdx:fragmentId>
112044

$$$$
