233693.cdx
  Mrv1902 05222410202D          

 31 33  0  0  0  0            999 V2000
    7.6339   -9.1574    0.0000 C   0  0  0  0  0  0  0  0  0  0  0  0
    7.6271   -8.3324    0.0000 C   0  0  0  0  0  0  0  0  0  0  0  0
    8.3381   -7.9140    0.0000 C   0  0  0  0  0  0  0  0  0  0  0  0
    9.0560   -8.3206    0.0000 C   0  0  0  0  0  0  0  0  0  0  0  0
    9.0628   -9.1456    0.0000 C   0  0  0  0  0  0  0  0  0  0  0  0
    8.3517   -9.5640    0.0000 C   0  0  0  0  0  0  0  0  0  0  0  0
    9.7670   -7.9022    0.0000 O   0  0  0  0  0  0  0  0  0  0  0  0
    6.9092   -7.9258    0.0000 O   0  0  0  0  0  0  0  0  0  0  0  0
    8.3313   -7.0890    0.0000 C   0  0  0  0  0  0  0  0  0  0  0  0
    9.0424   -6.6707    0.0000 C   0  0  0  0  0  0  0  0  0  0  0  0
    9.0356   -5.8457    0.0000 C   0  0  0  0  0  0  0  0  0  0  0  0
    9.7466   -5.4273    0.0000 C   0  0  0  0  0  0  0  0  0  0  0  0
    9.7399   -4.6024    0.0000 C   0  0  0  0  0  0  0  0  0  0  0  0
   10.4509   -4.1840    0.0000 C   0  0  0  0  0  0  0  0  0  0  0  0
   10.4441   -3.3590    0.0000 C   0  0  0  0  0  0  0  0  0  0  0  0
    9.7263   -2.9524    0.0000 C   0  0  0  0  0  0  0  0  0  0  0  0
   11.1552   -2.9406    0.0000 C   0  0  0  0  0  0  0  0  0  0  0  0
    8.3178   -5.4391    0.0000 C   0  0  0  0  0  0  0  0  0  0  0  0
    4.7965  -11.6558    0.0000 O   0  0  0  0  0  0  0  0  0  0  0  0
    3.3472   -9.1927    0.0000 O   0  0  0  0  0  0  0  0  0  0  0  0
    6.2254  -11.6440    0.0000 O   0  0  0  0  0  0  0  0  0  0  0  0
    6.2050   -9.1691    0.0000 O   0  0  0  0  0  0  0  0  0  0  0  0
    5.4939   -9.5875    0.0000 C   0  0  0  0  0  0  0  0  0  0  0  0
    4.7761   -9.1809    0.0000 C   0  0  0  0  0  0  0  0  0  0  0  0
    4.0650   -9.5993    0.0000 C   0  0  0  0  0  0  0  0  0  0  0  0
    4.0718  -10.4242    0.0000 C   0  0  0  0  0  0  0  0  0  0  0  0
    4.7897  -10.8308    0.0000 C   0  0  0  0  0  0  0  0  0  0  0  0
    5.5007  -10.4125    0.0000 C   0  0  0  0  0  0  0  0  0  0  0  0
    6.2186  -10.8191    0.0000 C   0  0  0  0  0  0  0  0  0  0  0  0
    6.9296  -10.4007    0.0000 C   0  0  0  0  0  0  0  0  0  0  0  0
    6.9228   -9.5757    0.0000 C   0  0  1  0  0  0  0  0  0  0  0  0
 31  1  1  6  0  0  0
 27 19  1  0  0  0  0
 25 20  1  0  0  0  0
 29 21  2  0  0  0  0
 31 22  1  0  0  0  0
 23 22  1  0  0  0  0
 28 23  2  0  0  0  0
 24 23  1  0  0  0  0
 25 24  2  0  0  0  0
 26 25  1  0  0  0  0
 27 26  2  0  0  0  0
 28 27  1  0  0  0  0
 29 28  1  0  0  0  0
 30 29  1  0  0  0  0
 31 30  1  0  0  0  0
  1  2  1  0  0  0  0
  2  3  2  0  0  0  0
  3  4  1  0  0  0  0
  4  5  2  0  0  0  0
  5  6  1  0  0  0  0
  1  6  2  0  0  0  0
  4  7  1  0  0  0  0
  2  8  1  0  0  0  0
  9 10  1  0  0  0  0
 10 11  2  0  0  0  0
 11 12  1  0  0  0  0
 12 13  1  0  0  0  0
 13 14  1  0  0  0  0
 14 15  2  0  0  0  0
 15 16  1  0  0  0  0
 15 17  1  0  0  0  0
 11 18  1  0  0  0  0
  3  9  1  0  0  0  0
M  END
>  <cdx:fragmentId>
112219

$$$$
