233655.cdx
  Mrv1902 05222410232D          

 21 23  0  0  0  0            999 V2000
    8.8653   -8.2825    0.0000 O   0  0  0  0  0  0  0  0  0  0  0  0
    4.5785   -6.6325    0.0000 O   0  0  0  0  0  0  0  0  0  0  0  0
    6.0074   -5.8075    0.0000 O   0  0  0  0  0  0  0  0  0  0  0  0
    8.8653   -5.8075    0.0000 C   0  0  0  0  0  0  0  0  0  0  0  0
    9.5798   -5.3950    0.0000 C   0  0  0  0  0  0  0  0  0  0  0  0
   10.2942   -5.8075    0.0000 C   0  0  0  0  0  0  0  0  0  0  0  0
   10.2942   -6.6325    0.0000 C   0  0  0  0  0  0  0  0  0  0  0  0
    9.5798   -7.0450    0.0000 C   0  0  0  0  0  0  0  0  0  0  0  0
    8.8653   -6.6325    0.0000 C   0  0  0  0  0  0  0  0  0  0  0  0
    7.4364   -9.1075    0.0000 O   0  0  0  0  0  0  0  0  0  0  0  0
    7.4364   -6.6325    0.0000 O   0  0  0  0  0  0  0  0  0  0  0  0
    6.7219   -7.0450    0.0000 C   0  0  0  0  0  0  0  0  0  0  0  0
    6.0074   -6.6325    0.0000 C   0  0  0  0  0  0  0  0  0  0  0  0
    5.2929   -7.0450    0.0000 C   0  0  0  0  0  0  0  0  0  0  0  0
    5.2929   -7.8700    0.0000 C   0  0  0  0  0  0  0  0  0  0  0  0
    6.0074   -8.2825    0.0000 C   0  0  0  0  0  0  0  0  0  0  0  0
    6.7219   -7.8700    0.0000 C   0  0  0  0  0  0  0  0  0  0  0  0
    7.4364   -8.2825    0.0000 C   0  0  0  0  0  0  0  0  0  0  0  0
    8.1508   -7.8700    0.0000 C   0  0  0  0  0  0  0  0  0  0  0  0
    8.1508   -7.0450    0.0000 C   0  0  0  0  0  0  0  0  0  0  0  0
   11.0087   -5.3950    0.0000 O   0  0  0  0  0  0  0  0  0  0  0  0
 19  1  1  0  0  0  0
 14  2  1  0  0  0  0
 13  3  1  0  0  0  0
 20  9  1  0  0  0  0
  9  4  2  0  0  0  0
  5  4  1  0  0  0  0
  6  5  2  0  0  0  0
  7  6  1  0  0  0  0
  8  7  2  0  0  0  0
  9  8  1  0  0  0  0
 18 10  2  0  0  0  0
 20 11  1  0  0  0  0
 12 11  1  0  0  0  0
 17 12  2  0  0  0  0
 13 12  1  0  0  0  0
 14 13  2  0  0  0  0
 15 14  1  0  0  0  0
 16 15  2  0  0  0  0
 17 16  1  0  0  0  0
 18 17  1  0  0  0  0
 19 18  1  0  0  0  0
 20 19  2  0  0  0  0
  6 21  1  0  0  0  0
M  END
>  <cdx:fragmentId>
13862

$$$$
