2339.cdx
  Mrv1902 05222410212D          

 19 21  0  0  0  0            999 V2000
    4.5339   -6.2906    0.0000 C   0  0  0  0  0  0  0  0  0  0  0  0
    4.5339   -7.1156    0.0000 C   0  0  0  0  0  0  0  0  0  0  0  0
    5.2484   -7.5281    0.0000 C   0  0  0  0  0  0  0  0  0  0  0  0
    5.9628   -7.1156    0.0000 C   0  0  0  0  0  0  0  0  0  0  0  0
    5.9628   -6.2906    0.0000 C   0  0  0  0  0  0  0  0  0  0  0  0
    5.2484   -5.8781    0.0000 C   0  0  0  0  0  0  0  0  0  0  0  0
    6.6773   -7.5281    0.0000 C   0  0  0  0  0  0  0  0  0  0  0  0
    7.3918   -7.1156    0.0000 C   0  0  0  0  0  0  0  0  0  0  0  0
    7.3918   -6.2906    0.0000 C   0  0  0  0  0  0  0  0  0  0  0  0
    6.6773   -5.8781    0.0000 C   0  0  0  0  0  0  0  0  0  0  0  0
    8.1063   -7.5281    0.0000 C   0  0  0  0  0  0  0  0  0  0  0  0
    8.8207   -7.1156    0.0000 C   0  0  0  0  0  0  0  0  0  0  0  0
    8.8207   -6.2906    0.0000 C   0  0  0  0  0  0  0  0  0  0  0  0
    8.1063   -5.8781    0.0000 C   0  0  0  0  0  0  0  0  0  0  0  0
    6.6773   -5.0531    0.0000 O   0  0  0  0  0  0  0  0  0  0  0  0
    6.6773   -8.3531    0.0000 O   0  0  0  0  0  0  0  0  0  0  0  0
    8.1063   -5.0531    0.0000 O   0  0  0  0  0  0  0  0  0  0  0  0
    9.5352   -5.8781    0.0000 C   0  0  0  0  0  0  0  0  0  0  0  0
    9.5352   -7.5281    0.0000 O   0  0  0  0  0  0  0  0  0  0  0  0
  1  2  1  0  0  0  0
  2  3  2  0  0  0  0
  3  4  1  0  0  0  0
  4  5  2  0  0  0  0
  5  6  1  0  0  0  0
  6  1  2  0  0  0  0
  4  7  1  0  0  0  0
  7  8  1  0  0  0  0
  8  9  2  0  0  0  0
  9 10  1  0  0  0  0
 10  5  1  0  0  0  0
  8 11  1  0  0  0  0
 11 12  2  0  0  0  0
 12 13  1  0  0  0  0
 13 14  2  0  0  0  0
 14  9  1  0  0  0  0
 10 15  2  0  0  0  0
  7 16  2  0  0  0  0
 14 17  1  0  0  0  0
 13 18  1  0  0  0  0
 12 19  1  0  0  0  0
M  END
>  <cdx:fragmentId>
5

$$$$
