233950.cdx
  Mrv1902 05222410282D          

 21 23  0  0  0  0            999 V2000
    8.8707   -7.8943    0.0000 O   0  0  0  0  0  0  0  0  0  0  0  0
    6.0129   -8.7193    0.0000 O   0  0  0  0  0  0  0  0  0  0  0  0
    4.5839   -7.8943    0.0000 O   0  0  0  0  0  0  0  0  0  0  0  0
    4.5839   -6.2443    0.0000 O   0  0  0  0  0  0  0  0  0  0  0  0
    8.8707   -5.4193    0.0000 C   0  0  0  0  0  0  0  0  0  0  0  0
    9.5852   -5.0068    0.0000 C   0  0  0  0  0  0  0  0  0  0  0  0
   10.2997   -5.4193    0.0000 C   0  0  0  0  0  0  0  0  0  0  0  0
   10.2997   -6.2443    0.0000 C   0  0  0  0  0  0  0  0  0  0  0  0
    9.5852   -6.6568    0.0000 C   0  0  0  0  0  0  0  0  0  0  0  0
    8.8707   -6.2443    0.0000 C   0  0  0  0  0  0  0  0  0  0  0  0
    7.4418   -8.7193    0.0000 O   0  0  0  0  0  0  0  0  0  0  0  0
    7.4418   -6.2443    0.0000 O   0  0  0  0  0  0  0  0  0  0  0  0
    6.7273   -6.6568    0.0000 C   0  0  0  0  0  0  0  0  0  0  0  0
    6.0129   -6.2443    0.0000 C   0  0  0  0  0  0  0  0  0  0  0  0
    5.2984   -6.6568    0.0000 C   0  0  0  0  0  0  0  0  0  0  0  0
    5.2984   -7.4818    0.0000 C   0  0  0  0  0  0  0  0  0  0  0  0
    6.0129   -7.8943    0.0000 C   0  0  0  0  0  0  0  0  0  0  0  0
    6.7273   -7.4818    0.0000 C   0  0  0  0  0  0  0  0  0  0  0  0
    7.4418   -7.8943    0.0000 C   0  0  0  0  0  0  0  0  0  0  0  0
    8.1563   -7.4818    0.0000 C   0  0  0  0  0  0  0  0  0  0  0  0
    8.1563   -6.6568    0.0000 C   0  0  0  0  0  0  0  0  0  0  0  0
 20  1  1  0  0  0  0
 17  2  1  0  0  0  0
 16  3  1  0  0  0  0
 15  4  1  0  0  0  0
 21 10  1  0  0  0  0
 10  5  2  0  0  0  0
  6  5  1  0  0  0  0
  7  6  2  0  0  0  0
  8  7  1  0  0  0  0
  9  8  2  0  0  0  0
 10  9  1  0  0  0  0
 19 11  2  0  0  0  0
 21 12  1  0  0  0  0
 13 12  1  0  0  0  0
 18 13  2  0  0  0  0
 14 13  1  0  0  0  0
 15 14  2  0  0  0  0
 16 15  1  0  0  0  0
 17 16  2  0  0  0  0
 18 17  1  0  0  0  0
 19 18  1  0  0  0  0
 20 19  1  0  0  0  0
 21 20  2  0  0  0  0
M  END
>  <cdx:fragmentId>
112282

$$$$
