234.cdx
  Mrv1902 05222410252D          

 34 37  0  0  0  0            999 V2000
    3.7571   -7.3993    0.0000 C   0  0  0  0  0  0  0  0  0  0  0  0
    3.7571   -8.2243    0.0000 C   0  0  2  0  0  0  0  0  0  0  0  0
    4.4716   -8.6368    0.0000 C   0  0  0  0  0  0  0  0  0  0  0  0
    5.1861   -8.2243    0.0000 C   0  0  2  0  0  0  0  0  0  0  0  0
    5.1861   -7.3993    0.0000 C   0  0  2  0  0  0  0  0  0  0  0  0
    4.4716   -6.9868    0.0000 C   0  0  0  0  0  0  0  0  0  0  0  0
    5.9005   -8.6368    0.0000 C   0  0  0  0  0  0  0  0  0  0  0  0
    6.6150   -8.2243    0.0000 C   0  0  2  0  0  0  0  0  0  0  0  0
    6.6150   -7.3993    0.0000 C   0  0  2  0  0  0  0  0  0  0  0  0
    5.9005   -6.9868    0.0000 C   0  0  2  0  0  0  0  0  0  0  0  0
    7.3295   -6.9868    0.0000 C   0  0  1  0  0  0  0  0  0  0  0  0
    7.3295   -6.1618    0.0000 C   0  0  2  0  0  0  0  0  0  0  0  0
    6.6150   -5.7493    0.0000 C   0  0  2  0  0  0  0  0  0  0  0  0
    5.9005   -6.1618    0.0000 C   0  0  0  0  0  0  0  0  0  0  0  0
    8.1141   -7.2418    0.0000 C   0  0  0  0  0  0  0  0  0  0  0  0
    8.5990   -6.5743    0.0000 C   0  0  0  0  0  0  0  0  0  0  0  0
    8.1141   -5.9069    0.0000 C   0  0  2  0  0  0  0  0  0  0  0  0
    5.1861   -6.5743    0.0000 C   0  0  0  0  0  0  0  0  0  0  0  0
    7.3295   -5.3368    0.0000 C   0  0  0  0  0  0  0  0  0  0  0  0
    8.5266   -5.1924    0.0000 C   0  0  2  0  0  0  0  0  0  0  0  0
    8.1141   -4.4779    0.0000 C   0  0  0  0  0  0  0  0  0  0  0  0
   11.0016   -5.1924    0.0000 O   0  0  0  0  0  0  0  0  0  0  0  0
   11.0016   -3.7635    0.0000 O   0  0  0  0  0  0  0  0  0  0  0  0
   10.5891   -4.4779    0.0000 C   0  0  0  0  0  0  0  0  0  0  0  0
    5.1861   -9.0493    0.0000 H   0  0  0  0  0  0  0  0  0  0  0  0
    6.6150   -6.5743    0.0000 H   0  0  0  0  0  0  0  0  0  0  0  0
    5.9005   -7.8118    0.0000 H   0  0  0  0  0  0  0  0  0  0  0  0
    7.3295   -7.8118    0.0000 H   0  0  0  0  0  0  0  0  0  0  0  0
    7.3295   -8.6368    0.0000 O   0  0  0  0  0  0  0  0  0  0  0  0
    9.7641   -4.4779    0.0000 C   0  0  0  0  0  0  0  0  0  0  0  0
    9.3516   -5.1924    0.0000 C   0  0  0  0  0  0  0  0  0  0  0  0
    8.9391   -5.9069    0.0000 H   0  0  0  0  0  0  0  0  0  0  0  0
    6.6150   -4.9243    0.0000 O   0  0  0  0  0  0  0  0  0  0  0  0
    3.0427   -8.6368    0.0000 O   0  0  0  0  0  0  0  0  0  0  0  0
  1  2  1  0  0  0  0
  2  3  1  0  0  0  0
  3  4  1  0  0  0  0
  4  5  1  0  0  0  0
  5  6  1  0  0  0  0
  6  1  1  0  0  0  0
  4  7  1  0  0  0  0
  7  8  1  0  0  0  0
  8  9  1  0  0  0  0
  9 10  1  0  0  0  0
 10  5  1  0  0  0  0
  9 11  1  0  0  0  0
 11 12  1  0  0  0  0
 12 13  1  0  0  0  0
 13 14  1  0  0  0  0
 14 10  1  0  0  0  0
 11 15  1  0  0  0  0
 15 16  1  0  0  0  0
 16 17  1  0  0  0  0
 17 12  1  0  0  0  0
  5 18  1  1  0  0  0
 12 19  1  1  0  0  0
 20 21  1  6  0  0  0
 24 22  2  0  0  0  0
 20 31  1  0  0  0  0
 24 23  1  0  0  0  0
 30 24  1  0  0  0  0
 31 30  1  0  0  0  0
  4 25  1  1  0  0  0
  9 26  1  1  0  0  0
 10 27  1  6  0  0  0
 11 28  1  6  0  0  0
  8 29  1  6  0  0  0
 17 32  1  6  0  0  0
 17 20  1  0  0  0  0
 13 33  1  6  0  0  0
  2 34  1  6  0  0  0
M  END
>  <cdx:fragmentId>
5

$$$$
