234088.cdx
  Mrv1902 05222410202D          

 66 74  0  0  0  0            999 V2000
    3.8155  -11.4432    0.0000 O   0  0  0  0  0  0  0  0  0  0  0  0
    4.5300  -11.0307    0.0000 C   0  0  2  0  0  0  0  0  0  0  0  0
    5.2445  -11.4432    0.0000 C   0  0  1  0  0  0  0  0  0  0  0  0
    5.2445  -12.2682    0.0000 C   0  0  2  0  0  0  0  0  0  0  0  0
    4.5300  -12.6807    0.0000 C   0  0  1  0  0  0  0  0  0  0  0  0
    3.8155  -12.2682    0.0000 C   0  0  0  0  0  0  0  0  0  0  0  0
    5.9589  -11.0307    0.0000 O   0  0  0  0  0  0  0  0  0  0  0  0
    5.9589  -12.6807    0.0000 O   0  0  0  0  0  0  0  0  0  0  0  0
    4.5300  -13.5057    0.0000 O   0  0  0  0  0  0  0  0  0  0  0  0
    4.5300  -10.2057    0.0000 O   0  0  0  0  0  0  0  0  0  0  0  0
    3.1011   -8.5557    0.0000 O   0  0  0  0  0  0  0  0  0  0  0  0
    3.8155   -8.9682    0.0000 C   0  0  2  0  0  0  0  0  0  0  0  0
    3.8155   -9.7932    0.0000 C   0  0  1  0  0  0  0  0  0  0  0  0
    3.1011  -10.2057    0.0000 C   0  0  2  0  0  0  0  0  0  0  0  0
    2.3866   -9.7932    0.0000 C   0  0  1  0  0  0  0  0  0  0  0  0
    2.3866   -8.9682    0.0000 C   0  0  1  0  0  0  0  0  0  0  0  0
    1.6721   -8.5557    0.0000 C   0  0  0  0  0  0  0  0  0  0  0  0
    1.6721   -7.7307    0.0000 O   0  0  0  0  0  0  0  0  0  0  0  0
    1.6721  -10.2057    0.0000 O   0  0  0  0  0  0  0  0  0  0  0  0
    3.1011  -11.0307    0.0000 O   0  0  0  0  0  0  0  0  0  0  0  0
    4.5300   -8.5557    0.0000 O   0  0  0  0  0  0  0  0  0  0  0  0
    5.2445   -6.4932    0.0000 O   0  0  0  0  0  0  0  0  0  0  0  0
    5.2445   -7.3182    0.0000 C   0  0  2  0  0  0  0  0  0  0  0  0
    4.5300   -7.7307    0.0000 C   0  0  1  0  0  0  0  0  0  0  0  0
    3.8155   -7.3182    0.0000 C   0  0  2  0  0  0  0  0  0  0  0  0
    3.8155   -6.4932    0.0000 C   0  0  2  0  0  0  0  0  0  0  0  0
    4.5300   -6.0807    0.0000 C   0  0  1  0  0  0  0  0  0  0  0  0
    4.5300   -5.2557    0.0000 C   0  0  0  0  0  0  0  0  0  0  0  0
    5.9589   -7.7307    0.0000 O   0  0  0  0  0  0  0  0  0  0  0  0
   11.6747   -5.2557    0.0000 C   0  0  0  0  0  0  0  0  0  0  0  0
   11.6747   -6.0807    0.0000 C   0  0  1  0  0  0  0  0  0  0  0  0
   10.9602   -6.4932    0.0000 C   0  0  0  0  0  0  0  0  0  0  0  0
   10.2458   -6.0807    0.0000 C   0  0  1  0  0  0  0  0  0  0  0  0
    9.5313   -6.4932    0.0000 C   0  0  2  0  0  0  0  0  0  0  0  0
    9.5313   -7.3182    0.0000 C   0  0  0  0  0  0  0  0  0  0  0  0
    8.8168   -7.7307    0.0000 C   0  0  0  0  0  0  0  0  0  0  0  0
    8.1024   -7.3182    0.0000 C   0  0  1  0  0  0  0  0  0  0  0  0
    7.3879   -7.7307    0.0000 C   0  0  1  0  0  0  0  0  0  0  0  0
    6.6734   -7.3182    0.0000 C   0  0  2  0  0  0  0  0  0  0  0  0
    6.6734   -6.4932    0.0000 C   0  0  0  0  0  0  0  0  0  0  0  0
    7.3879   -6.0807    0.0000 C   0  0  0  0  0  0  0  0  0  0  0  0
    8.1024   -6.4932    0.0000 C   0  0  2  0  0  0  0  0  0  0  0  0
    8.8168   -6.0807    0.0000 C   0  0  1  0  0  0  0  0  0  0  0  0
    8.8168   -5.2557    0.0000 C   0  0  0  0  0  0  0  0  0  0  0  0
    9.5313   -4.8432    0.0000 C   0  0  0  0  0  0  0  0  0  0  0  0
   10.2458   -5.2557    0.0000 C   0  0  0  0  0  0  0  0  0  0  0  0
   10.9602   -4.8432    0.0000 C   0  0  2  0  0  0  0  0  0  0  0  0
   10.9602   -4.0182    0.0000 C   0  0  0  0  0  0  0  0  0  0  0  0
   11.6747   -3.6057    0.0000 C   0  0  2  0  0  0  0  0  0  0  0  0
   12.3892   -4.0182    0.0000 C   0  0  0  0  0  0  0  0  0  0  0  0
   12.3892   -4.8432    0.0000 C   0  0  0  0  0  0  0  0  0  0  0  0
   11.2622   -2.8912    0.0000 C   0  0  0  0  0  0  0  0  0  0  0  0
   12.0872   -2.8912    0.0000 C   0  0  0  0  0  0  0  0  0  0  0  0
    8.1024   -5.6682    0.0000 C   0  0  0  0  0  0  0  0  0  0  0  0
    7.8004   -8.4451    0.0000 C   0  0  0  0  0  0  0  0  0  0  0  0
    6.9754   -8.4451    0.0000 C   0  0  0  0  0  0  0  0  0  0  0  0
    9.5313   -5.6682    0.0000 C   0  0  0  0  0  0  0  0  0  0  0  0
   10.2458   -6.9057    0.0000 C   0  0  0  0  0  0  0  0  0  0  0  0
   12.3892   -6.4932    0.0000 O   0  0  0  0  0  0  0  0  0  0  0  0
    3.1011   -6.0807    0.0000 O   0  0  0  0  0  0  0  0  0  0  0  0
    3.1011   -7.7307    0.0000 O   0  0  0  0  0  0  0  0  0  0  0  0
   10.2458   -4.4307    0.0000 O   0  0  0  0  0  0  0  0  0  0  0  0
   11.6747   -4.4307    0.0000 C   0  0  0  0  0  0  0  0  0  0  0  0
   10.9602   -5.6682    0.0000 H   0  0  0  0  0  0  0  0  0  0  0  0
    8.8168   -6.9057    0.0000 H   0  0  0  0  0  0  0  0  0  0  0  0
    8.1024   -8.1432    0.0000 H   0  0  0  0  0  0  0  0  0  0  0  0
  1  2  1  0  0  0  0
  2  3  1  0  0  0  0
  3  4  1  0  0  0  0
  4  5  1  0  0  0  0
  5  6  1  0  0  0  0
  1  6  1  0  0  0  0
  3  7  1  6  0  0  0
  4  8  1  1  0  0  0
  5  9  1  6  0  0  0
 11 12  1  0  0  0  0
 12 13  1  0  0  0  0
 13 14  1  0  0  0  0
 14 15  1  0  0  0  0
 15 16  1  0  0  0  0
 11 16  1  0  0  0  0
 17 18  1  0  0  0  0
 16 17  1  1  0  0  0
 15 19  1  6  0  0  0
 14 20  1  1  0  0  0
 22 23  1  0  0  0  0
 23 24  1  0  0  0  0
 24 25  1  0  0  0  0
 25 26  1  0  0  0  0
 26 27  1  0  0  0  0
 22 27  1  0  0  0  0
 27 28  1  1  0  0  0
 30 31  1  0  0  0  0
 31 32  1  0  0  0  0
 32 33  1  0  0  0  0
 33 34  1  0  0  0  0
 34 35  1  0  0  0  0
 35 36  1  0  0  0  0
 36 37  1  0  0  0  0
 37 38  1  0  0  0  0
 38 39  1  0  0  0  0
 39 40  1  0  0  0  0
 40 41  1  0  0  0  0
 41 42  1  0  0  0  0
 42 43  1  0  0  0  0
 43 44  1  0  0  0  0
 44 45  2  0  0  0  0
 45 46  1  0  0  0  0
 46 47  1  0  0  0  0
 47 48  1  0  0  0  0
 48 49  1  0  0  0  0
 49 50  1  0  0  0  0
 50 51  1  0  0  0  0
 30 51  1  0  0  0  0
 30 47  1  0  0  0  0
 33 46  1  0  0  0  0
 34 43  1  0  0  0  0
 37 42  1  0  0  0  0
 49 52  1  1  0  0  0
 49 53  1  6  0  0  0
 42 54  1  1  0  0  0
 38 55  1  6  0  0  0
 38 56  1  1  0  0  0
 34 57  1  1  0  0  0
 33 58  1  6  0  0  0
 31 59  1  6  0  0  0
 39 29  1  1  0  0  0
 23 29  1  1  0  0  0
 26 60  1  1  0  0  0
 25 61  1  1  0  0  0
 24 21  1  6  0  0  0
 12 21  1  1  0  0  0
 13 10  1  6  0  0  0
  2 10  1  1  0  0  0
 46 62  1  0  0  0  0
 30 63  1  0  0  0  0
 63 62  1  0  0  0  0
 47 64  1  1  0  0  0
 43 65  1  6  0  0  0
 37 66  1  6  0  0  0
M  END
>  <cdx:fragmentId>
235531

$$$$
