2340.cdx
  Mrv1902 05222410272D          

 30 33  0  0  0  0            999 V2000
    6.6134   -7.9389    0.0000 O   0  0  0  0  0  0  0  0  0  0  0  0
    5.9104   -8.3707    0.0000 C   0  0  2  0  0  0  0  0  0  0  0  0
    5.1850   -7.9777    0.0000 O   0  0  0  0  0  0  0  0  0  0  0  0
    4.4820   -8.4094    0.0000 C   0  0  1  0  0  0  0  0  0  0  0  0
    4.5044   -9.2341    0.0000 C   0  0  2  0  0  0  0  0  0  0  0  0
    5.2298   -9.6271    0.0000 C   0  0  1  0  0  0  0  0  0  0  0  0
    5.9328   -9.1954    0.0000 C   0  0  1  0  0  0  0  0  0  0  0  0
    3.7566   -8.0165    0.0000 C   0  0  0  0  0  0  0  0  0  0  0  0
    5.2522  -10.4518    0.0000 O   0  0  0  0  0  0  0  0  0  0  0  0
    3.8014   -9.6659    0.0000 O   0  0  0  0  0  0  0  0  0  0  0  0
    6.6582   -9.5883    0.0000 O   0  0  0  0  0  0  0  0  0  0  0  0
    3.0536   -8.4482    0.0000 O   0  0  0  0  0  0  0  0  0  0  0  0
   10.8873   -7.0495    0.0000 C   0  0  0  0  0  0  0  0  0  0  0  0
   10.8625   -5.3997    0.0000 C   0  0  0  0  0  0  0  0  0  0  0  0
    5.1474   -5.4857    0.0000 O   0  0  0  0  0  0  0  0  0  0  0  0
    8.0422   -7.9174    0.0000 O   0  0  0  0  0  0  0  0  0  0  0  0
    9.4586   -7.0710    0.0000 C   0  0  0  0  0  0  0  0  0  0  0  0
   10.1667   -6.6478    0.0000 C   0  0  0  0  0  0  0  0  0  0  0  0
   10.1543   -5.8229    0.0000 C   0  0  0  0  0  0  0  0  0  0  0  0
    9.4337   -5.4212    0.0000 C   0  0  0  0  0  0  0  0  0  0  0  0
    8.0298   -7.0925    0.0000 C   0  0  0  0  0  0  0  0  0  0  0  0
    8.7380   -6.6693    0.0000 C   0  0  0  0  0  0  0  0  0  0  0  0
    8.7255   -5.8444    0.0000 C   0  0  0  0  0  0  0  0  0  0  0  0
    8.0049   -5.4427    0.0000 O   0  0  0  0  0  0  0  0  0  0  0  0
    6.6010   -7.1140    0.0000 C   0  0  0  0  0  0  0  0  0  0  0  0
    7.3092   -6.6908    0.0000 C   0  0  0  0  0  0  0  0  0  0  0  0
    7.2968   -5.8659    0.0000 C   0  0  0  0  0  0  0  0  0  0  0  0
    6.5762   -5.4642    0.0000 C   0  0  0  0  0  0  0  0  0  0  0  0
    5.8680   -5.8874    0.0000 C   0  0  0  0  0  0  0  0  0  0  0  0
    5.8804   -6.7123    0.0000 C   0  0  0  0  0  0  0  0  0  0  0  0
  2  1  1  1  0  0  0
  2  3  1  0  0  0  0
  3  4  1  0  0  0  0
  4  5  1  0  0  0  0
  5  6  1  0  0  0  0
  6  7  1  0  0  0  0
  7  2  1  0  0  0  0
  4  8  1  1  0  0  0
  6  9  1  1  0  0  0
  5 10  1  6  0  0  0
  7 11  1  6  0  0  0
 18 13  1  0  0  0  0
 19 14  1  0  0  0  0
 25  1  1  0  0  0  0
  8 12  1  0  0  0  0
 29 15  1  0  0  0  0
 21 16  2  0  0  0  0
 17 22  2  0  0  0  0
 18 17  1  0  0  0  0
 19 18  2  0  0  0  0
 20 19  1  0  0  0  0
 23 20  2  0  0  0  0
 21 26  1  0  0  0  0
 22 21  1  0  0  0  0
 23 22  1  0  0  0  0
 24 23  1  0  0  0  0
 27 24  1  0  0  0  0
 25 30  1  0  0  0  0
 26 25  2  0  0  0  0
 27 26  1  0  0  0  0
 28 27  2  0  0  0  0
 29 28  1  0  0  0  0
 30 29  2  0  0  0  0
M  END
>  <cdx:fragmentId>
5

$$$$
