2341.cdx
  Mrv1902 05222410272D          

 13 13  0  0  0  0            999 V2000
    6.5002   -7.2600    0.0000 C   0  0  0  0  0  0  0  0  0  0  0  0
    6.5002   -8.0850    0.0000 C   0  0  0  0  0  0  0  0  0  0  0  0
    7.2146   -8.4975    0.0000 C   0  0  0  0  0  0  0  0  0  0  0  0
    7.9291   -8.0850    0.0000 C   0  0  0  0  0  0  0  0  0  0  0  0
    7.9291   -7.2600    0.0000 C   0  0  0  0  0  0  0  0  0  0  0  0
    7.2146   -6.8475    0.0000 C   0  0  0  0  0  0  0  0  0  0  0  0
    7.2146   -6.0225    0.0000 C   0  0  0  0  0  0  0  0  0  0  0  0
    6.5002   -5.6100    0.0000 C   0  0  0  0  0  0  0  0  0  0  0  0
    7.9291   -5.6100    0.0000 C   0  0  0  0  0  0  0  0  0  0  0  0
    5.7857   -6.8475    0.0000 C   0  0  0  0  0  0  0  0  0  0  0  0
    8.6436   -8.4975    0.0000 C   0  0  0  0  0  0  0  0  0  0  0  0
    9.3580   -8.0850    0.0000 C   0  0  0  0  0  0  0  0  0  0  0  0
    8.6436   -9.3225    0.0000 C   0  0  0  0  0  0  0  0  0  0  0  0
  1  2  1  0  0  0  0
  2  3  1  0  0  0  0
  3  4  1  0  0  0  0
  4  5  1  0  0  0  0
  5  6  2  0  0  0  0
  6  1  1  0  0  0  0
  6  7  1  0  0  0  0
  7  8  2  0  0  0  0
  7  9  1  0  0  0  0
  1 10  1  0  0  0  0
  4 11  1  0  0  0  0
 11 12  2  0  0  0  0
 11 13  1  0  0  0  0
M  END
>  <cdx:fragmentId>
5

$$$$
