23415.cdx
  Mrv1902 05222410192D          

 11 10  0  0  0  0            999 V2000
    7.7765   -2.4671    0.0000 C   0  0  0  0  0  0  0  0  0  0  0  0
    7.7765   -3.2921    0.0000 C   0  0  0  0  0  0  0  0  0  0  0  0
    7.0621   -3.7046    0.0000 C   0  0  0  0  0  0  0  0  0  0  0  0
    6.3476   -3.2921    0.0000 C   0  0  0  0  0  0  0  0  0  0  0  0
    5.6331   -3.7046    0.0000 C   0  0  0  0  0  0  0  0  0  0  0  0
    4.9186   -3.2921    0.0000 C   0  0  0  0  0  0  0  0  0  0  0  0
    4.2042   -3.7046    0.0000 C   0  0  0  0  0  0  0  0  0  0  0  0
    3.4897   -3.2921    0.0000 C   0  0  0  0  0  0  0  0  0  0  0  0
    2.7752   -3.7046    0.0000 C   0  0  0  0  0  0  0  0  0  0  0  0
    2.0608   -3.2921    0.0000 C   0  0  0  0  0  0  0  0  0  0  0  0
    8.4910   -3.7046    0.0000 C   0  0  0  0  0  0  0  0  0  0  0  0
  1  2  1  0  0  0  0
  2  3  1  0  0  0  0
  3  4  1  0  0  0  0
  4  5  1  0  0  0  0
  5  6  1  0  0  0  0
  6  7  1  0  0  0  0
  7  8  1  0  0  0  0
  8  9  1  0  0  0  0
  9 10  1  0  0  0  0
  2 11  1  0  0  0  0
M  END
>  <cdx:groupId>
34

>  <cdx:fragmentId>
5

$$$$
