2343.cdx
  Mrv1902 05222410282D          

 24 25  0  0  0  0            999 V2000
    8.0434   -8.0764    0.0000 O   0  0  0  0  0  0  0  0  0  0  0  0
    7.3404   -8.5082    0.0000 C   0  0  2  0  0  0  0  0  0  0  0  0
    6.6150   -8.1152    0.0000 O   0  0  0  0  0  0  0  0  0  0  0  0
    5.9120   -8.5469    0.0000 C   0  0  1  0  0  0  0  0  0  0  0  0
    5.9344   -9.3716    0.0000 C   0  0  2  0  0  0  0  0  0  0  0  0
    6.6598   -9.7646    0.0000 C   0  0  1  0  0  0  0  0  0  0  0  0
    7.3628   -9.3329    0.0000 C   0  0  1  0  0  0  0  0  0  0  0  0
    5.1866   -8.1540    0.0000 C   0  0  0  0  0  0  0  0  0  0  0  0
    6.6822  -10.5893    0.0000 O   0  0  0  0  0  0  0  0  0  0  0  0
    5.2314   -9.8034    0.0000 O   0  0  0  0  0  0  0  0  0  0  0  0
    8.0882   -9.7258    0.0000 O   0  0  0  0  0  0  0  0  0  0  0  0
    4.4836   -8.5857    0.0000 O   0  0  0  0  0  0  0  0  0  0  0  0
    8.0310   -7.2515    0.0000 C   0  0  0  0  0  0  0  0  0  0  0  0
    8.7484   -6.8442    0.0000 C   0  0  0  0  0  0  0  0  0  0  0  0
    8.7484   -6.0192    0.0000 C   0  0  0  0  0  0  0  0  0  0  0  0
    8.0310   -5.6016    0.0000 C   0  0  0  0  0  0  0  0  0  0  0  0
    7.3136   -6.0192    0.0000 C   0  0  0  0  0  0  0  0  0  0  0  0
    7.3136   -6.8442    0.0000 C   0  0  0  0  0  0  0  0  0  0  0  0
    6.6006   -7.2593    0.0000 O   0  0  0  0  0  0  0  0  0  0  0  0
    6.5984   -5.6080    0.0000 O   0  0  0  0  0  0  0  0  0  0  0  0
    9.4637   -5.6080    0.0000 C   0  0  0  0  0  0  0  0  0  0  0  0
   10.1774   -6.0218    0.0000 O   0  0  0  0  0  0  0  0  0  0  0  0
    9.4651   -4.7830    0.0000 O   0  0  0  0  0  0  0  0  0  0  0  0
    5.1642   -7.3293    0.0000 O   0  0  0  0  0  0  0  0  0  0  0  0
  2  1  1  1  0  0  0
  2  3  1  0  0  0  0
  3  4  1  0  0  0  0
  4  5  1  0  0  0  0
  5  6  1  0  0  0  0
  6  7  1  0  0  0  0
  7  2  1  0  0  0  0
  4  8  1  1  0  0  0
  6  9  1  1  0  0  0
  5 10  1  6  0  0  0
  7 11  1  6  0  0  0
 13  1  1  0  0  0  0
  8 12  1  0  0  0  0
 13 14  2  0  0  0  0
 14 15  1  0  0  0  0
 15 16  2  0  0  0  0
 16 17  1  0  0  0  0
 17 18  2  0  0  0  0
 18 13  1  0  0  0  0
 18 19  1  0  0  0  0
 17 20  1  0  0  0  0
 15 21  1  0  0  0  0
 21 22  1  0  0  0  0
 21 23  2  0  0  0  0
  8 24  2  0  0  0  0
M  END
>  <cdx:fragmentId>
265

$$$$
