2344.cdx
  Mrv1902 05222410272D          

 49 51  0  0  0  0            999 V2000
   10.5764   -8.1042    0.0000 O   0  0  0  0  0  0  0  0  0  0  0  0
    9.1509  -11.4034    0.0000 O   0  0  0  0  0  0  0  0  0  0  0  0
    5.5801  -10.1701    0.0000 C   0  0  0  0  0  0  0  0  0  0  0  0
    4.8667  -10.5844    0.0000 C   0  0  0  0  0  0  0  0  0  0  0  0
    4.8687  -11.4094    0.0000 C   0  0  0  0  0  0  0  0  0  0  0  0
    6.2956  -10.5809    0.0000 O   0  0  0  0  0  0  0  0  0  0  0  0
    4.1552  -11.8236    0.0000 C   0  0  0  0  0  0  0  0  0  0  0  0
    3.4398  -11.4129    0.0000 C   0  0  0  0  0  0  0  0  0  0  0  0
    2.7263  -11.8271    0.0000 C   0  0  0  0  0  0  0  0  0  0  0  0
    2.7283  -12.6521    0.0000 C   0  0  0  0  0  0  0  0  0  0  0  0
    3.4438  -13.0628    0.0000 C   0  0  0  0  0  0  0  0  0  0  0  0
    4.1572  -12.6486    0.0000 C   0  0  0  0  0  0  0  0  0  0  0  0
    2.0148  -13.0663    0.0000 O   0  0  0  0  0  0  0  0  0  0  0  0
    2.0108  -11.4163    0.0000 O   0  0  0  0  0  0  0  0  0  0  0  0
    7.0017   -7.6943    0.0000 C   0  0  2  0  0  0  0  0  0  0  0  0
    6.5870   -6.9811    0.0000 O   0  0  0  0  0  0  0  0  0  0  0  0
    7.4120   -6.9785    0.0000 C   0  0  0  0  0  0  0  0  0  0  0  0
    6.9973   -6.2653    0.0000 O   0  0  0  0  0  0  0  0  0  0  0  0
    8.2370   -6.9760    0.0000 O   0  0  0  0  0  0  0  0  0  0  0  0
    5.7554   -6.9594    0.0000 C   0  0  0  0  0  0  0  0  0  0  0  0
    5.3471   -6.2425    0.0000 C   0  0  0  0  0  0  0  0  0  0  0  0
    4.5221   -6.2376    0.0000 C   0  0  0  0  0  0  0  0  0  0  0  0
    5.3387   -7.6714    0.0000 O   0  0  0  0  0  0  0  0  0  0  0  0
    4.1138   -5.5207    0.0000 C   0  0  0  0  0  0  0  0  0  0  0  0
    4.5305   -4.8087    0.0000 C   0  0  0  0  0  0  0  0  0  0  0  0
    4.1222   -4.0918    0.0000 C   0  0  0  0  0  0  0  0  0  0  0  0
    3.2972   -4.0870    0.0000 C   0  0  0  0  0  0  0  0  0  0  0  0
    2.8805   -4.7990    0.0000 C   0  0  0  0  0  0  0  0  0  0  0  0
    3.2888   -5.5159    0.0000 C   0  0  0  0  0  0  0  0  0  0  0  0
    2.8889   -3.3701    0.0000 O   0  0  0  0  0  0  0  0  0  0  0  0
    4.5389   -3.3798    0.0000 O   0  0  0  0  0  0  0  0  0  0  0  0
    8.4332   -9.3420    0.0000 O   0  0  0  0  0  0  0  0  0  0  0  0
    9.1476   -8.9294    0.0000 C   0  0  0  0  0  0  0  0  0  0  0  0
    9.8622   -9.3418    0.0000 C   0  0  0  0  0  0  0  0  0  0  0  0
   10.5766   -8.9292    0.0000 C   0  0  0  0  0  0  0  0  0  0  0  0
    9.1475   -8.1044    0.0000 O   0  0  0  0  0  0  0  0  0  0  0  0
   11.2911   -9.3416    0.0000 O   0  0  0  0  0  0  0  0  0  0  0  0
    8.4383  -12.6420    0.0000 O   0  0  0  0  0  0  0  0  0  0  0  0
    8.4345  -10.1670    0.0000 O   0  0  0  0  0  0  0  0  0  0  0  0
    8.4371  -11.8170    0.0000 C   0  0  0  0  0  0  0  0  0  0  0  0
    7.7220  -11.4057    0.0000 C   0  0  0  0  0  0  0  0  0  0  0  0
    7.7207  -10.5807    0.0000 C   0  0  0  0  0  0  0  0  0  0  0  0
    7.0056  -10.1693    0.0000 O   0  0  0  0  0  0  0  0  0  0  0  0
    5.5754   -9.3465    0.0000 O   0  0  0  0  0  0  0  0  0  0  0  0
    6.2879   -8.1079    0.0000 C   0  0  0  0  0  0  0  0  0  0  0  0
    6.2892   -8.9329    0.0000 C   0  0  2  0  0  0  0  0  0  0  0  0
    7.0043   -9.3443    0.0000 C   0  0  1  0  0  0  0  0  0  0  0  0
    7.7181   -8.9307    0.0000 C   0  0  1  0  0  0  0  0  0  0  0  0
    7.7168   -8.1057    0.0000 C   0  0  0  0  0  0  0  0  0  0  0  0
 35  1  2  0  0  0  0
 40  2  2  0  0  0  0
  3 44  1  0  0  0  0
  3  4  1  0  0  0  0
  4  5  2  0  0  0  0
  3  6  2  0  0  0  0
  7  8  1  0  0  0  0
  8  9  2  0  0  0  0
  9 10  1  0  0  0  0
 10 11  2  0  0  0  0
 11 12  1  0  0  0  0
  7 12  2  0  0  0  0
 10 13  1  0  0  0  0
  9 14  1  0  0  0  0
  5  7  1  0  0  0  0
 15 16  1  1  0  0  0
 15 17  1  0  0  0  0
 17 18  2  0  0  0  0
 17 19  1  0  0  0  0
 20 21  1  0  0  0  0
 21 22  2  0  0  0  0
 20 23  2  0  0  0  0
 24 25  1  0  0  0  0
 25 26  2  0  0  0  0
 26 27  1  0  0  0  0
 27 28  2  0  0  0  0
 28 29  1  0  0  0  0
 24 29  2  0  0  0  0
 27 30  1  0  0  0  0
 26 31  1  0  0  0  0
 22 24  1  0  0  0  0
 48 32  1  1  0  0  0
 47 43  1  1  0  0  0
 43 42  1  0  0  0  0
 40 38  1  0  0  0  0
 42 39  2  0  0  0  0
 41 40  1  0  0  0  0
 42 41  1  0  0  0  0
 46 44  1  6  0  0  0
 15 45  1  0  0  0  0
 46 45  1  0  0  0  0
 47 46  1  0  0  0  0
 48 47  1  0  0  0  0
 49 48  1  0  0  0  0
 15 49  1  0  0  0  0
 33 34  1  0  0  0  0
 34 35  1  0  0  0  0
 33 36  2  0  0  0  0
 35 37  1  0  0  0  0
 32 33  1  0  0  0  0
 20 16  1  0  0  0  0
M  END
>  <cdx:fragmentId>
37

$$$$
