2345.cdx
  Mrv1902 05222410262D          

 16 17  0  0  0  0            999 V2000
    5.5313   -5.0254    0.0000 C   0  0  0  0  0  0  0  0  0  0  0  0
    4.8168   -5.4379    0.0000 C   0  0  0  0  0  0  0  0  0  0  0  0
    4.1024   -5.0254    0.0000 C   0  0  0  0  0  0  0  0  0  0  0  0
    4.1024   -4.2004    0.0000 C   0  0  0  0  0  0  0  0  0  0  0  0
    4.8168   -3.7879    0.0000 C   0  0  0  0  0  0  0  0  0  0  0  0
    5.5313   -4.2004    0.0000 C   0  0  0  0  0  0  0  0  0  0  0  0
    6.2458   -3.7879    0.0000 C   0  0  0  0  0  0  0  0  0  0  0  0
    6.9602   -4.2004    0.0000 O   0  0  0  0  0  0  0  0  0  0  0  0
    7.6747   -2.9629    0.0000 O   0  0  0  0  0  0  0  0  0  0  0  0
    9.1037   -3.7879    0.0000 C   0  0  0  0  0  0  0  0  0  0  0  0
    9.8181   -4.2004    0.0000 C   0  0  0  0  0  0  0  0  0  0  0  0
    9.8181   -5.0254    0.0000 C   0  0  0  0  0  0  0  0  0  0  0  0
    9.1037   -5.4379    0.0000 C   0  0  0  0  0  0  0  0  0  0  0  0
    8.3892   -5.0254    0.0000 C   0  0  0  0  0  0  0  0  0  0  0  0
    8.3892   -4.2004    0.0000 C   0  0  0  0  0  0  0  0  0  0  0  0
    7.6747   -3.7879    0.0000 C   0  0  0  0  0  0  0  0  0  0  0  0
  8  7  1  0  0  0  0
  6  1  2  0  0  0  0
  2  1  1  0  0  0  0
  3  2  2  0  0  0  0
  4  3  1  0  0  0  0
  5  4  2  0  0  0  0
  6  5  1  0  0  0  0
  7  6  1  0  0  0  0
 16  8  1  0  0  0  0
 16  9  2  0  0  0  0
 15 10  2  0  0  0  0
 11 10  1  0  0  0  0
 12 11  2  0  0  0  0
 13 12  1  0  0  0  0
 14 13  2  0  0  0  0
 15 14  1  0  0  0  0
 16 15  1  0  0  0  0
M  END
>  <cdx:fragmentId>
5

$$$$
