23459.cdx
  Mrv1902 05222410212D          

 12 11  0  0  0  0            999 V2000
    8.1956   -2.0752    0.0000 C   0  0  0  0  0  0  0  0  0  0  0  0
    8.1956   -2.9002    0.0000 C   0  0  0  0  0  0  0  0  0  0  0  0
    7.4812   -3.3127    0.0000 C   0  0  0  0  0  0  0  0  0  0  0  0
    6.7667   -2.9002    0.0000 C   0  0  0  0  0  0  0  0  0  0  0  0
    6.0522   -3.3127    0.0000 C   0  0  0  0  0  0  0  0  0  0  0  0
    5.3377   -2.9002    0.0000 C   0  0  0  0  0  0  0  0  0  0  0  0
    4.6233   -3.3127    0.0000 C   0  0  0  0  0  0  0  0  0  0  0  0
    3.9088   -2.9002    0.0000 C   0  0  0  0  0  0  0  0  0  0  0  0
    3.1943   -3.3127    0.0000 C   0  0  0  0  0  0  0  0  0  0  0  0
    2.4799   -2.9002    0.0000 C   0  0  0  0  0  0  0  0  0  0  0  0
    1.7654   -3.3127    0.0000 C   0  0  0  0  0  0  0  0  0  0  0  0
    8.9101   -3.3127    0.0000 C   0  0  0  0  0  0  0  0  0  0  0  0
  1  2  1  0  0  0  0
  2  3  1  0  0  0  0
  3  4  1  0  0  0  0
  4  5  1  0  0  0  0
  5  6  1  0  0  0  0
  6  7  1  0  0  0  0
  7  8  1  0  0  0  0
  8  9  1  0  0  0  0
  9 10  1  0  0  0  0
 10 11  1  0  0  0  0
  2 12  1  0  0  0  0
M  END
>  <cdx:groupId>
37

>  <cdx:fragmentId>
5

$$$$
