2346.cdx
  Mrv1902 05222410262D          

 10 10  0  0  0  0            999 V2000
    9.0782   -4.1883    0.0000 S   0  0  0  0  0  0  0  0  0  0  0  0
    8.3637   -4.6008    0.0000 C   0  0  0  0  0  0  0  0  0  0  0  0
    7.6492   -5.0133    0.0000 N   0  0  0  0  0  0  0  0  0  0  0  0
    6.9348   -4.6008    0.0000 C   0  0  0  0  0  0  0  0  0  0  0  0
    5.5058   -4.6008    0.0000 C   0  0  0  0  0  0  0  0  0  0  0  0
    4.7913   -5.0133    0.0000 C   0  0  0  0  0  0  0  0  0  0  0  0
    4.7913   -5.8383    0.0000 C   0  0  0  0  0  0  0  0  0  0  0  0
    5.5058   -6.2508    0.0000 C   0  0  0  0  0  0  0  0  0  0  0  0
    6.2203   -5.8383    0.0000 C   0  0  0  0  0  0  0  0  0  0  0  0
    6.2203   -5.0133    0.0000 C   0  0  0  0  0  0  0  0  0  0  0  0
 10  4  1  0  0  0  0
  4  3  1  0  0  0  0
  2  1  2  0  0  0  0
  3  2  2  0  0  0  0
 10  5  2  0  0  0  0
  6  5  1  0  0  0  0
  7  6  2  0  0  0  0
  8  7  1  0  0  0  0
  9  8  2  0  0  0  0
 10  9  1  0  0  0  0
M  END
>  <cdx:groupId>
32

>  <cdx:fragmentId>
5

$$$$
