2347.cdx
  Mrv1902 05222410262D          

 19 21  0  0  0  0            999 V2000
    3.5910   -7.2394    0.0000 C   0  0  0  0  0  0  0  0  0  0  0  0
    4.3054   -7.6519    0.0000 O   0  0  0  0  0  0  0  0  0  0  0  0
    8.5923   -8.4769    0.0000 O   0  0  0  0  0  0  0  0  0  0  0  0
   10.0212   -6.0019    0.0000 O   0  0  0  0  0  0  0  0  0  0  0  0
    7.1633   -8.4769    0.0000 O   0  0  0  0  0  0  0  0  0  0  0  0
    5.7344   -7.6519    0.0000 C   0  0  0  0  0  0  0  0  0  0  0  0
    5.0199   -7.2394    0.0000 C   0  0  0  0  0  0  0  0  0  0  0  0
    5.0199   -6.4144    0.0000 C   0  0  0  0  0  0  0  0  0  0  0  0
    5.7344   -6.0019    0.0000 C   0  0  0  0  0  0  0  0  0  0  0  0
    7.1633   -7.6519    0.0000 C   0  0  0  0  0  0  0  0  0  0  0  0
    6.4489   -7.2394    0.0000 C   0  0  0  0  0  0  0  0  0  0  0  0
    6.4489   -6.4144    0.0000 C   0  0  0  0  0  0  0  0  0  0  0  0
    7.1633   -6.0019    0.0000 O   0  0  0  0  0  0  0  0  0  0  0  0
    8.5923   -7.6519    0.0000 C   0  0  0  0  0  0  0  0  0  0  0  0
    7.8778   -7.2394    0.0000 C   0  0  0  0  0  0  0  0  0  0  0  0
    7.8778   -6.4144    0.0000 C   0  0  0  0  0  0  0  0  0  0  0  0
    8.5923   -6.0019    0.0000 C   0  0  0  0  0  0  0  0  0  0  0  0
    9.3067   -6.4144    0.0000 C   0  0  0  0  0  0  0  0  0  0  0  0
    9.3067   -7.2394    0.0000 C   0  0  0  0  0  0  0  0  0  0  0  0
  2  1  1  0  0  0  0
  7  2  1  0  0  0  0
 14  3  1  0  0  0  0
 18  4  1  0  0  0  0
 10  5  2  0  0  0  0
  6 11  2  0  0  0  0
  7  6  1  0  0  0  0
  8  7  2  0  0  0  0
  9  8  1  0  0  0  0
 12  9  2  0  0  0  0
 10 15  1  0  0  0  0
 11 10  1  0  0  0  0
 12 11  1  0  0  0  0
 13 12  1  0  0  0  0
 16 13  1  0  0  0  0
 14 19  1  0  0  0  0
 15 14  2  0  0  0  0
 16 15  1  0  0  0  0
 17 16  2  0  0  0  0
 18 17  1  0  0  0  0
 19 18  2  0  0  0  0
M  END
>  <cdx:fragmentId>
5

$$$$
