23518.cdx
  Mrv1902 05222410242D          

 18 17  0  0  0  0            999 V2000
   10.8662   -3.1633    0.0000 C   0  0  0  0  0  0  0  0  0  0  0  0
   10.1517   -3.5758    0.0000 C   0  0  0  0  0  0  0  0  0  0  0  0
    9.4373   -3.1633    0.0000 C   0  0  0  0  0  0  0  0  0  0  0  0
    8.7228   -3.5758    0.0000 C   0  0  0  0  0  0  0  0  0  0  0  0
    8.0083   -3.1633    0.0000 C   0  0  0  0  0  0  0  0  0  0  0  0
    7.2938   -3.5758    0.0000 C   0  0  0  0  0  0  0  0  0  0  0  0
    6.5794   -3.1633    0.0000 C   0  0  0  0  0  0  0  0  0  0  0  0
    5.8649   -3.5758    0.0000 C   0  0  0  0  0  0  0  0  0  0  0  0
    5.1504   -3.1633    0.0000 C   0  0  0  0  0  0  0  0  0  0  0  0
    4.4360   -3.5758    0.0000 C   0  0  0  0  0  0  0  0  0  0  0  0
    3.7215   -3.1633    0.0000 C   0  0  0  0  0  0  0  0  0  0  0  0
    3.0070   -3.5758    0.0000 C   0  0  0  0  0  0  0  0  0  0  0  0
    2.2925   -3.1633    0.0000 C   0  0  0  0  0  0  0  0  0  0  0  0
    1.5781   -3.5758    0.0000 C   0  0  0  0  0  0  0  0  0  0  0  0
    0.8636   -3.1633    0.0000 C   0  0  0  0  0  0  0  0  0  0  0  0
   10.8662   -2.3383    0.0000 O   0  0  0  0  0  0  0  0  0  0  0  0
   11.5807   -3.5758    0.0000 O   0  0  0  0  0  0  0  0  0  0  0  0
   12.2951   -3.1633    0.0000 C   0  0  0  0  0  0  0  0  0  0  0  0
  1  2  1  0  0  0  0
  2  3  1  0  0  0  0
  3  4  1  0  0  0  0
  4  5  1  0  0  0  0
  5  6  1  0  0  0  0
  6  7  1  0  0  0  0
  7  8  1  0  0  0  0
  8  9  1  0  0  0  0
  9 10  1  0  0  0  0
 10 11  1  0  0  0  0
 11 12  1  0  0  0  0
 12 13  1  0  0  0  0
 13 14  1  0  0  0  0
 14 15  1  0  0  0  0
  1 16  2  0  0  0  0
  1 17  1  0  0  0  0
 17 18  1  0  0  0  0
M  END
>  <cdx:groupId>
55

>  <cdx:fragmentId>
5

$$$$
