235387.cdx
  Mrv1902 05222410222D          

 19 20  0  0  0  0            999 V2000
    7.4663   -7.4914    0.0000 C   0  0  0  0  0  0  0  0  0  0  0  0
    9.6097   -6.2539    0.0000 C   0  0  0  0  0  0  0  0  0  0  0  0
    9.6097   -7.0789    0.0000 C   0  0  0  0  0  0  0  0  0  0  0  0
    8.8952   -7.4914    0.0000 C   0  0  0  0  0  0  0  0  0  0  0  0
    8.1807   -7.0789    0.0000 C   0  0  0  0  0  0  0  0  0  0  0  0
    8.1807   -6.2539    0.0000 C   0  0  0  0  0  0  0  0  0  0  0  0
    8.8952   -5.8414    0.0000 C   0  0  0  0  0  0  0  0  0  0  0  0
   10.3241   -5.8414    0.0000 O   0  0  0  0  0  0  0  0  0  0  0  0
   10.3241   -7.4914    0.0000 O   0  0  0  0  0  0  0  0  0  0  0  0
   11.0386   -7.0789    0.0000 C   0  0  0  0  0  0  0  0  0  0  0  0
    5.3228   -6.2539    0.0000 C   0  0  0  0  0  0  0  0  0  0  0  0
    5.3228   -7.0789    0.0000 C   0  0  0  0  0  0  0  0  0  0  0  0
    6.0373   -7.4914    0.0000 C   0  0  0  0  0  0  0  0  0  0  0  0
    6.7518   -7.0789    0.0000 C   0  0  0  0  0  0  0  0  0  0  0  0
    6.7518   -6.2539    0.0000 C   0  0  0  0  0  0  0  0  0  0  0  0
    6.0373   -5.8414    0.0000 C   0  0  0  0  0  0  0  0  0  0  0  0
    4.6084   -5.8414    0.0000 O   0  0  0  0  0  0  0  0  0  0  0  0
    4.6084   -7.4914    0.0000 O   0  0  0  0  0  0  0  0  0  0  0  0
    3.8939   -7.0789    0.0000 C   0  0  0  0  0  0  0  0  0  0  0  0
  2  3  1  0  0  0  0
  3  4  2  0  0  0  0
  4  5  1  0  0  0  0
  5  6  2  0  0  0  0
  6  7  1  0  0  0  0
  2  7  2  0  0  0  0
  2  8  1  0  0  0  0
  9 10  1  0  0  0  0
  3  9  1  0  0  0  0
  1  5  1  0  0  0  0
 11 12  1  0  0  0  0
 12 13  2  0  0  0  0
 13 14  1  0  0  0  0
 14 15  2  0  0  0  0
 15 16  1  0  0  0  0
 11 16  2  0  0  0  0
 11 17  1  0  0  0  0
 18 19  1  0  0  0  0
 12 18  1  0  0  0  0
  1 14  1  0  0  0  0
M  END
>  <cdx:fragmentId>
3951

$$$$
