2353.cdx
  Mrv1902 05222410262D          

 25 29  0  0  0  0            999 V2000
    9.1794   -4.5386    0.0000 O   0  0  0  0  0  0  0  0  0  0  0  0
    9.9999   -4.4524    0.0000 C   0  0  0  0  0  0  0  0  0  0  0  0
   10.3355   -5.2061    0.0000 O   0  0  0  0  0  0  0  0  0  0  0  0
    9.7224   -5.7581    0.0000 C   0  0  0  0  0  0  0  0  0  0  0  0
    9.7224   -6.5831    0.0000 C   0  0  0  0  0  0  0  0  0  0  0  0
    9.0079   -6.9956    0.0000 C   0  0  0  0  0  0  0  0  0  0  0  0
    9.0079   -7.8206    0.0000 C   0  0  0  0  0  0  0  0  0  0  0  0
    8.2934   -8.2331    0.0000 C   0  0  0  0  0  0  0  0  0  0  0  0
    7.5790   -7.8206    0.0000 N   0  3  0  0  0  0  0  0  0  0  0  0
    6.8645   -8.2331    0.0000 C   0  0  0  0  0  0  0  0  0  0  0  0
    6.1500   -7.8206    0.0000 C   0  0  0  0  0  0  0  0  0  0  0  0
    5.4356   -8.2331    0.0000 C   0  0  0  0  0  0  0  0  0  0  0  0
    5.4356   -9.0581    0.0000 O   0  0  0  0  0  0  0  0  0  0  0  0
    4.7211   -9.4706    0.0000 C   0  0  0  0  0  0  0  0  0  0  0  0
    4.7211   -7.8206    0.0000 C   0  0  0  0  0  0  0  0  0  0  0  0
    4.0066   -8.2331    0.0000 O   0  0  0  0  0  0  0  0  0  0  0  0
    3.2921   -7.8206    0.0000 C   0  0  0  0  0  0  0  0  0  0  0  0
    4.7211   -6.9956    0.0000 C   0  0  0  0  0  0  0  0  0  0  0  0
    5.4356   -6.5831    0.0000 C   0  0  0  0  0  0  0  0  0  0  0  0
    6.1500   -6.9956    0.0000 C   0  0  0  0  0  0  0  0  0  0  0  0
    6.8645   -6.5831    0.0000 C   0  0  0  0  0  0  0  0  0  0  0  0
    7.5790   -6.9956    0.0000 C   0  0  0  0  0  0  0  0  0  0  0  0
    8.2934   -6.5831    0.0000 C   0  0  0  0  0  0  0  0  0  0  0  0
    8.2934   -5.7581    0.0000 C   0  0  0  0  0  0  0  0  0  0  0  0
    9.0079   -5.3456    0.0000 C   0  0  0  0  0  0  0  0  0  0  0  0
  1  2  1  0  0  0  0
  2  3  1  0  0  0  0
  3  4  1  0  0  0  0
  4  5  1  0  0  0  0
  5  6  2  0  0  0  0
  6  7  1  0  0  0  0
  7  8  1  0  0  0  0
  8  9  1  0  0  0  0
  9 10  1  0  0  0  0
 10 11  2  0  0  0  0
 11 12  1  0  0  0  0
 12 13  1  0  0  0  0
 13 14  1  0  0  0  0
 12 15  2  0  0  0  0
 15 16  1  0  0  0  0
 16 17  1  0  0  0  0
 15 18  1  0  0  0  0
 18 19  2  0  0  0  0
 19 20  1  0  0  0  0
 11 20  1  0  0  0  0
 20 21  2  0  0  0  0
 21 22  1  0  0  0  0
  9 22  2  0  0  0  0
 22 23  1  0  0  0  0
  6 23  1  0  0  0  0
 23 24  2  0  0  0  0
 24 25  1  0  0  0  0
  4 25  2  0  0  0  0
  1 25  1  0  0  0  0
M  CHG  1   9   1
M  END
>  <cdx:fragmentId>
5

$$$$
