23535.cdx
  Mrv1902 05222410262D          

 20 20  0  0  0  0            999 V2000
    6.8996   -4.2671    0.0000 C   0  0  0  0  0  0  0  0  0  0  0  0
    7.6141   -4.6796    0.0000 C   0  0  0  0  0  0  0  0  0  0  0  0
    7.6141   -5.5046    0.0000 C   0  0  0  0  0  0  0  0  0  0  0  0
    8.3285   -5.9171    0.0000 C   0  0  0  0  0  0  0  0  0  0  0  0
    9.0430   -5.5046    0.0000 C   0  0  0  0  0  0  0  0  0  0  0  0
    9.7575   -5.9171    0.0000 C   0  0  0  0  0  0  0  0  0  0  0  0
   10.4719   -5.5046    0.0000 C   0  0  0  0  0  0  0  0  0  0  0  0
   10.4719   -4.6796    0.0000 C   0  0  0  0  0  0  0  0  0  0  0  0
   11.1864   -5.9171    0.0000 C   0  0  0  0  0  0  0  0  0  0  0  0
    7.6141   -6.3296    0.0000 C   0  0  0  0  0  0  0  0  0  0  0  0
    6.1851   -5.5046    0.0000 C   0  0  0  0  0  0  0  0  0  0  0  0
    5.4706   -5.9171    0.0000 C   0  0  0  0  0  0  0  0  0  0  0  0
    5.4706   -6.7421    0.0000 C   0  0  0  0  0  0  0  0  0  0  0  0
    4.7562   -7.1546    0.0000 C   0  0  0  0  0  0  0  0  0  0  0  0
    4.0417   -6.7421    0.0000 C   0  0  0  0  0  0  0  0  0  0  0  0
    4.0417   -5.9171    0.0000 C   0  0  0  0  0  0  0  0  0  0  0  0
    4.7562   -5.5046    0.0000 C   0  0  0  0  0  0  0  0  0  0  0  0
    6.1851   -4.6796    0.0000 O   0  0  0  0  0  0  0  0  0  0  0  0
    6.8996   -5.9171    0.0000 O   0  0  0  0  0  0  0  0  0  0  0  0
    6.1851   -7.1546    0.0000 N   0  0  0  0  0  0  0  0  0  0  0  0
  1  2  2  0  0  0  0
  2  3  1  0  0  0  0
  3  4  1  0  0  0  0
  4  5  1  0  0  0  0
  5  6  1  0  0  0  0
  6  7  2  0  0  0  0
  7  8  1  0  0  0  0
  7  9  1  0  0  0  0
  3 10  1  0  0  0  0
 11 12  1  0  0  0  0
 12 13  1  0  0  0  0
 13 14  2  0  0  0  0
 14 15  1  0  0  0  0
 15 16  2  0  0  0  0
 16 17  1  0  0  0  0
 12 17  2  0  0  0  0
 11 18  2  0  0  0  0
 11 19  1  0  0  0  0
 13 20  1  0  0  0  0
  3 19  1  0  0  0  0
M  END
>  <cdx:groupId>
62

>  <cdx:fragmentId>
25

$$$$
