235414.cdx
  Mrv1902 05222410242D          

 17 17  0  0  0  0            999 V2000
   16.4373  -13.0425    0.0000 O   0  0  0  0  0  0  0  0  0  0  0  0
   17.1518  -13.4550    0.0000 C   0  0  0  0  0  0  0  0  0  0  0  0
   17.1518  -14.2800    0.0000 C   0  0  0  0  0  0  0  0  0  0  0  0
   16.4373  -14.6925    0.0000 C   0  0  0  0  0  0  0  0  0  0  0  0
   15.7229  -14.2800    0.0000 C   0  0  0  0  0  0  0  0  0  0  0  0
   15.0084  -14.6925    0.0000 C   0  0  0  0  0  0  0  0  0  0  0  0
   14.2939  -14.2800    0.0000 C   0  0  0  0  0  0  0  0  0  0  0  0
   13.5795  -14.6925    0.0000 C   0  0  0  0  0  0  0  0  0  0  0  0
   12.8650  -14.2800    0.0000 C   0  0  0  0  0  0  0  0  0  0  0  0
   12.8650  -13.4550    0.0000 C   0  0  0  0  0  0  0  0  0  0  0  0
   13.5795  -13.0425    0.0000 C   0  0  0  0  0  0  0  0  0  0  0  0
   13.5795  -12.2175    0.0000 C   0  0  0  0  0  0  0  0  0  0  0  0
   14.2939  -11.8050    0.0000 C   0  0  0  0  0  0  0  0  0  0  0  0
   15.0084  -12.2175    0.0000 C   0  0  0  0  0  0  0  0  0  0  0  0
   15.7229  -11.8050    0.0000 C   0  0  0  0  0  0  0  0  0  0  0  0
   16.4373  -12.2175    0.0000 C   0  0  0  0  0  0  0  0  0  0  0  0
   17.8663  -13.0425    0.0000 O   0  0  0  0  0  0  0  0  0  0  0  0
  1  2  1  0  0  0  0
  2  3  1  0  0  0  0
  3  4  1  0  0  0  0
  4  5  1  0  0  0  0
  5  6  1  0  0  0  0
  6  7  1  0  0  0  0
  7  8  1  0  0  0  0
  8  9  1  0  0  0  0
  9 10  1  0  0  0  0
 10 11  1  0  0  0  0
 11 12  1  0  0  0  0
 12 13  1  0  0  0  0
 13 14  1  0  0  0  0
 14 15  1  0  0  0  0
 15 16  1  0  0  0  0
  1 16  1  0  0  0  0
  2 17  2  0  0  0  0
M  END
>  <cdx:groupId>
4062

>  <cdx:fragmentId>
4014

$$$$
