2355.cdx
  Mrv1902 05222410272D          

 16 18  0  0  0  0            999 V2000
    4.9758   -3.5011    0.0000 C   0  0  0  0  0  0  0  0  0  0  0  0
    4.9758   -4.3261    0.0000 C   0  0  0  0  0  0  0  0  0  0  0  0
    5.6902   -4.7386    0.0000 C   0  0  0  0  0  0  0  0  0  0  0  0
    6.4047   -4.3261    0.0000 C   0  0  0  0  0  0  0  0  0  0  0  0
    7.1192   -4.7386    0.0000 C   0  0  0  0  0  0  0  0  0  0  0  0
    7.8337   -4.3261    0.0000 C   0  0  0  0  0  0  0  0  0  0  0  0
    7.8337   -3.5011    0.0000 C   0  0  0  0  0  0  0  0  0  0  0  0
    7.1192   -3.0886    0.0000 C   0  0  0  0  0  0  0  0  0  0  0  0
    6.4047   -3.5011    0.0000 C   0  0  0  0  0  0  0  0  0  0  0  0
    5.6902   -3.0886    0.0000 O   0  0  0  0  0  0  0  0  0  0  0  0
    8.6183   -3.2462    0.0000 O   0  0  0  0  0  0  0  0  0  0  0  0
    8.6183   -4.5810    0.0000 C   0  0  0  0  0  0  0  0  0  0  0  0
    9.1032   -3.9136    0.0000 C   0  0  0  0  0  0  0  0  0  0  0  0
    4.2613   -3.0886    0.0000 O   0  0  0  0  0  0  0  0  0  0  0  0
    7.1192   -5.5636    0.0000 O   0  0  0  0  0  0  0  0  0  0  0  0
    7.8337   -5.9761    0.0000 C   0  0  0  0  0  0  0  0  0  0  0  0
  1  2  1  0  0  0  0
  2  3  2  0  0  0  0
  3  4  1  0  0  0  0
  4  5  2  0  0  0  0
  5  6  1  0  0  0  0
  6  7  2  0  0  0  0
  7  8  1  0  0  0  0
  8  9  2  0  0  0  0
  4  9  1  0  0  0  0
  9 10  1  0  0  0  0
  1 10  1  0  0  0  0
 12 13  2  0  0  0  0
 11 13  1  0  0  0  0
 12  6  1  0  0  0  0
 11  7  1  0  0  0  0
  1 14  2  0  0  0  0
 15 16  1  0  0  0  0
  5 15  1  0  0  0  0
M  END
>  <cdx:groupId>
52

>  <cdx:fragmentId>
5

$$$$
