2357.cdx
  Mrv1902 05222410282D          

 28 30  0  0  0  0            999 V2000
    6.8714   -8.0025    0.0000 C   0  0  0  0  0  0  0  0  0  0  0  0
    6.8714   -8.8275    0.0000 C   0  0  0  0  0  0  0  0  0  0  0  0
    7.5859   -9.2400    0.0000 C   0  0  1  0  0  0  0  0  0  0  0  0
    8.3003   -8.8275    0.0000 O   0  0  0  0  0  0  0  0  0  0  0  0
    8.3003   -8.0025    0.0000 C   0  0  0  0  0  0  0  0  0  0  0  0
    6.0868   -7.7476    0.0000 C   0  0  0  0  0  0  0  0  0  0  0  0
    5.6019   -8.4150    0.0000 C   0  0  0  0  0  0  0  0  0  0  0  0
    6.0868   -9.0824    0.0000 C   0  0  0  0  0  0  0  0  0  0  0  0
    9.0148   -7.5900    0.0000 C   0  0  0  0  0  0  0  0  0  0  0  0
    5.8733   -9.8793    0.0000 C   0  0  0  0  0  0  0  0  0  0  0  0
    7.5859  -10.0650    0.0000 O   0  0  0  0  0  0  0  0  0  0  0  0
    8.0762  -12.3233    0.0000 C   0  0  2  0  0  0  0  0  0  0  0  0
    8.9011  -12.3138    0.0000 C   0  0  2  0  0  0  0  0  0  0  0  0
    9.3054  -11.5946    0.0000 C   0  0  1  0  0  0  0  0  0  0  0  0
    8.8847  -10.8849    0.0000 C   0  0  2  0  0  0  0  0  0  0  0  0
    8.0597  -10.8944    0.0000 C   0  0  1  0  0  0  0  0  0  0  0  0
    7.6555  -11.6136    0.0000 O   0  0  0  0  0  0  0  0  0  0  0  0
    7.6720  -13.0425    0.0000 C   0  0  0  0  0  0  0  0  0  0  0  0
   10.1303  -11.5851    0.0000 O   0  0  0  0  0  0  0  0  0  0  0  0
    9.2889  -10.1658    0.0000 O   0  0  0  0  0  0  0  0  0  0  0  0
    9.3218  -13.0234    0.0000 O   0  0  0  0  0  0  0  0  0  0  0  0
    6.8470  -13.0520    0.0000 O   0  0  0  0  0  0  0  0  0  0  0  0
    7.5859   -7.5900    0.0000 C   0  0  0  0  0  0  0  0  0  0  0  0
    7.5859   -6.7650    0.0000 C   0  0  0  0  0  0  0  0  0  0  0  0
    8.2988   -6.3534    0.0000 O   0  0  0  0  0  0  0  0  0  0  0  0
    8.2976   -5.5277    0.0000 C   0  0  0  0  0  0  0  0  0  0  0  0
    6.8715   -6.3541    0.0000 O   0  0  0  0  0  0  0  0  0  0  0  0
    5.1588  -10.2918    0.0000 O   0  0  0  0  0  0  0  0  0  0  0  0
  1  2  1  0  0  0  0
  2  3  1  0  0  0  0
  3  4  1  0  0  0  0
  4  5  1  0  0  0  0
  5 23  2  0  0  0  0
 23  1  1  0  0  0  0
  1  6  1  0  0  0  0
  6  7  1  0  0  0  0
  7  8  2  0  0  0  0
  8  2  1  0  0  0  0
  5  9  1  0  0  0  0
  8 10  1  0  0  0  0
  3 11  1  1  0  0  0
 12 13  1  0  0  0  0
 13 14  1  0  0  0  0
 14 15  1  0  0  0  0
 15 16  1  0  0  0  0
 16 17  1  0  0  0  0
 17 12  1  0  0  0  0
 12 18  1  1  0  0  0
 14 19  1  1  0  0  0
 15 20  1  6  0  0  0
 13 21  1  6  0  0  0
 18 22  1  0  0  0  0
 16 11  1  1  0  0  0
 23 24  1  0  0  0  0
 24 25  1  0  0  0  0
 25 26  1  0  0  0  0
 24 27  2  0  0  0  0
 10 28  1  0  0  0  0
M  END
>  <cdx:fragmentId>
5

$$$$
