235719.cdx
  Mrv1902 05222410192D          

 16 16  0  0  0  0            999 V2000
    9.0455   -7.0312    0.0000 C   0  0  0  0  0  0  0  0  0  0  0  0
    8.3311   -7.4437    0.0000 C   0  0  0  0  0  0  0  0  0  0  0  0
    7.6166   -7.0312    0.0000 C   0  0  0  0  0  0  0  0  0  0  0  0
    9.0455   -6.2062    0.0000 O   0  0  0  0  0  0  0  0  0  0  0  0
    9.7600   -7.4437    0.0000 O   0  0  0  0  0  0  0  0  0  0  0  0
    6.9021   -7.4437    0.0000 C   0  0  0  0  0  0  0  0  0  0  0  0
    6.1876   -7.0312    0.0000 C   0  0  0  0  0  0  0  0  0  0  0  0
    5.4732   -7.4437    0.0000 C   0  0  0  0  0  0  0  0  0  0  0  0
    5.4732   -8.2687    0.0000 C   0  0  0  0  0  0  0  0  0  0  0  0
    6.1876   -8.6812    0.0000 C   0  0  0  0  0  0  0  0  0  0  0  0
    6.9021   -8.2687    0.0000 C   0  0  0  0  0  0  0  0  0  0  0  0
    4.7587   -7.0312    0.0000 N   0  3  0  0  0  0  0  0  0  0  0  0
    4.7587   -6.2062    0.0000 O   0  0  0  0  0  0  0  0  0  0  0  0
    4.0442   -7.4437    0.0000 O   0  5  0  0  0  0  0  0  0  0  0  0
    4.7587   -8.6812    0.0000 O   0  0  0  0  0  0  0  0  0  0  0  0
    8.3311   -8.2687    0.0000 N   0  0  0  0  0  0  0  0  0  0  0  0
  1  2  1  0  0  0  0
  2  3  1  0  0  0  0
  1  4  2  0  0  0  0
  1  5  1  0  0  0  0
  6  7  1  0  0  0  0
  7  8  2  0  0  0  0
  8  9  1  0  0  0  0
  9 10  2  0  0  0  0
 10 11  1  0  0  0  0
  6 11  2  0  0  0  0
 12 13  2  0  0  0  0
 12 14  1  0  0  0  0
  8 12  1  0  0  0  0
  9 15  1  0  0  0  0
  3  6  1  0  0  0  0
  2 16  1  0  0  0  0
M  CHG  2  12   1  14  -1
M  END
>  <cdx:fragmentId>
63642

$$$$
