236.cdx
  Mrv1902 05222410252D          

 33 36  0  0  0  0            999 V2000
    4.0365  -10.5608    0.0000 C   0  0  2  0  0  0  0  0  0  0  0  0
    4.0365   -9.7358    0.0000 C   0  0  0  0  0  0  0  0  0  0  0  0
    4.7509   -9.3233    0.0000 C   0  0  0  0  0  0  0  0  0  0  0  0
    4.7509  -10.9733    0.0000 C   0  0  0  0  0  0  0  0  0  0  0  0
    5.4654  -10.5608    0.0000 C   0  0  1  0  0  0  0  0  0  0  0  0
    6.1799  -10.9733    0.0000 C   0  0  0  0  0  0  0  0  0  0  0  0
    6.8944  -10.5608    0.0000 C   0  0  2  0  0  0  0  0  0  0  0  0
    6.8944   -9.7358    0.0000 C   0  0  1  0  0  0  0  0  0  0  0  0
    7.6088   -9.3233    0.0000 C   0  0  2  0  0  0  0  0  0  0  0  0
    8.3934   -9.5782    0.0000 C   0  0  0  0  0  0  0  0  0  0  0  0
    8.8784   -8.9108    0.0000 C   0  0  0  0  0  0  0  0  0  0  0  0
    8.3934   -8.2433    0.0000 C   0  0  2  0  0  0  0  0  0  0  0  0
    8.6484   -7.4587    0.0000 C   0  0  1  0  0  0  0  0  0  0  0  0
    9.4554   -7.2872    0.0000 C   0  0  0  0  0  0  0  0  0  0  0  0
    9.7103   -6.5026    0.0000 C   0  0  0  0  0  0  0  0  0  0  0  0
    8.0964   -6.8456    0.0000 C   0  0  0  0  0  0  0  0  0  0  0  0
    7.6088   -8.4983    0.0000 C   0  0  2  0  0  0  0  0  0  0  0  0
    7.6088   -7.6733    0.0000 C   0  0  0  0  0  0  0  0  0  0  0  0
    6.8944   -8.0858    0.0000 C   0  0  0  0  0  0  0  0  0  0  0  0
    6.1799   -8.4983    0.0000 C   0  0  0  0  0  0  0  0  0  0  0  0
    6.1799   -9.3233    0.0000 C   0  0  2  0  0  0  0  0  0  0  0  0
    5.4654   -9.7358    0.0000 C   0  0  1  0  0  0  0  0  0  0  0  0
    5.4654   -8.9108    0.0000 C   0  0  0  0  0  0  0  0  0  0  0  0
   10.7722   -5.5464    0.0000 O   0  0  0  0  0  0  0  0  0  0  0  0
    7.6088  -10.9733    0.0000 O   0  0  0  0  0  0  0  0  0  0  0  0
    3.3220  -10.9733    0.0000 O   0  0  0  0  0  0  0  0  0  0  0  0
    5.4654  -11.3858    0.0000 H   0  0  0  0  0  0  0  0  0  0  0  0
    6.1799  -10.1483    0.0000 H   0  0  0  0  0  0  0  0  0  0  0  0
    6.8944   -8.9108    0.0000 H   0  0  0  0  0  0  0  0  0  0  0  0
    7.6088  -10.1483    0.0000 H   0  0  0  0  0  0  0  0  0  0  0  0
   11.0693   -6.9441    0.0000 O   0  0  0  0  0  0  0  0  0  0  0  0
   10.5173   -6.3310    0.0000 C   0  0  0  0  0  0  0  0  0  0  0  0
    9.1903   -8.0298    0.0000 H   0  0  0  0  0  0  0  0  0  0  0  0
 32 24  1  0  0  0  0
 32 31  2  0  0  0  0
  1  2  1  0  0  0  0
  2  3  1  0  0  0  0
  1  4  1  0  0  0  0
  4  5  1  0  0  0  0
  5  6  1  0  0  0  0
  6  7  1  0  0  0  0
  7  8  1  0  0  0  0
  8  9  1  0  0  0  0
  9 10  1  0  0  0  0
 10 11  1  0  0  0  0
 12 11  1  0  0  0  0
 12 13  1  0  0  0  0
 13 14  1  0  0  0  0
 14 15  1  0  0  0  0
 15 32  1  0  0  0  0
 13 16  1  6  0  0  0
 12 17  1  0  0  0  0
  9 17  1  0  0  0  0
 17 18  1  1  0  0  0
 17 19  1  0  0  0  0
 19 20  1  0  0  0  0
 20 21  1  0  0  0  0
  8 21  1  0  0  0  0
 21 22  1  0  0  0  0
  3 22  1  0  0  0  0
  5 22  1  0  0  0  0
 22 23  1  1  0  0  0
  7 25  1  6  0  0  0
  1 26  1  6  0  0  0
  5 27  1  1  0  0  0
 21 28  1  6  0  0  0
  8 29  1  1  0  0  0
  9 30  1  6  0  0  0
 12 33  1  6  0  0  0
M  END
>  <cdx:fragmentId>
195

$$$$
