236051.cdx
  Mrv1902 05222410242D          

 16 15  0  0  0  0            999 V2000
    3.0364   -7.5815    0.0000 C   0  0  0  0  0  0  0  0  0  0  0  0
   10.8956   -6.3440    0.0000 C   0  0  0  0  0  0  0  0  0  0  0  0
    5.1798   -6.3440    0.0000 O   0  0  0  0  0  0  0  0  0  0  0  0
   11.6101   -7.5815    0.0000 C   0  0  0  0  0  0  0  0  0  0  0  0
   10.8956   -7.1690    0.0000 C   0  0  0  0  0  0  0  0  0  0  0  0
   10.1811   -7.5815    0.0000 C   0  0  0  0  0  0  0  0  0  0  0  0
    9.4667   -7.1690    0.0000 C   0  0  0  0  0  0  0  0  0  0  0  0
    8.7522   -7.5815    0.0000 C   0  0  0  0  0  0  0  0  0  0  0  0
    8.0377   -7.1690    0.0000 C   0  0  0  0  0  0  0  0  0  0  0  0
    7.3232   -7.5815    0.0000 C   0  0  0  0  0  0  0  0  0  0  0  0
    6.6088   -7.1690    0.0000 C   0  0  0  0  0  0  0  0  0  0  0  0
    5.8943   -7.5815    0.0000 C   0  0  0  0  0  0  0  0  0  0  0  0
    5.1798   -7.1690    0.0000 C   0  0  0  0  0  0  0  0  0  0  0  0
    4.4654   -7.5815    0.0000 C   0  0  0  0  0  0  0  0  0  0  0  0
    3.7509   -7.1690    0.0000 C   0  0  0  0  0  0  0  0  0  0  0  0
    3.7509   -6.3440    0.0000 C   0  0  0  0  0  0  0  0  0  0  0  0
 15  1  1  0  0  0  0
  5  2  1  0  0  0  0
 13  3  2  0  0  0  0
  5  4  1  0  0  0  0
  6  5  1  0  0  0  0
  7  6  1  0  0  0  0
  8  7  1  0  0  0  0
  9  8  1  0  0  0  0
 10  9  1  0  0  0  0
 11 10  1  0  0  0  0
 12 11  1  0  0  0  0
 13 12  1  0  0  0  0
 14 13  1  0  0  0  0
 15 14  1  0  0  0  0
 16 15  1  0  0  0  0
M  END
>  <cdx:fragmentId>
209601

$$$$
