10236014.cdx
  Mrv1902 05222410202D          

 11 11  0  0  0  0            999 V2000
    8.2774  -15.1302    0.0000 C   0  0  0  0  0  0  0  0  0  0  0  0
    7.5629  -14.7177    0.0000 C   0  0  0  0  0  0  0  0  0  0  0  0
    6.8485  -15.1302    0.0000 C   0  0  0  0  0  0  0  0  0  0  0  0
    6.1340  -14.7177    0.0000 C   0  0  0  0  0  0  0  0  0  0  0  0
    6.1340  -13.8927    0.0000 C   0  0  0  0  0  0  0  0  0  0  0  0
    6.8485  -13.4802    0.0000 C   0  0  0  0  0  0  0  0  0  0  0  0
    7.5629  -13.8927    0.0000 C   0  0  0  0  0  0  0  0  0  0  0  0
    8.9919  -14.7177    0.0000 O   0  0  0  0  0  0  0  0  0  0  0  0
    8.2774  -13.4802    0.0000 C   0  0  0  0  0  0  0  0  0  0  0  0
    5.4195  -15.1302    0.0000 C   0  0  0  0  0  0  0  0  0  0  0  0
    6.8485  -15.9552    0.0000 C   0  0  0  0  0  0  0  0  0  0  0  0
  1  2  1  0  0  0  0
  2  3  1  0  0  0  0
  3  4  2  0  0  0  0
  4  5  1  0  0  0  0
  5  6  2  0  0  0  0
  6  7  1  0  0  0  0
  2  7  2  0  0  0  0
  1  8  2  0  0  0  0
  7  9  1  0  0  0  0
  4 10  1  0  0  0  0
  3 11  1  0  0  0  0
M  END
>  <cdx:groupId>
42908

>  <cdx:fragmentId>
42878

$$$$
