102236130.cdx
  Mrv1902 05222410242D          

 90 98  0  0  0  0            999 V2000
   16.9415   -6.6501    0.0000 O   0  0  0  0  0  0  0  0  0  0  0  0
   16.1345   -6.8216    0.0000 C   0  0  2  0  0  0  0  0  0  0  0  0
   15.8796   -7.6063    0.0000 C   0  0  1  0  0  0  0  0  0  0  0  0
   16.4316   -8.2194    0.0000 C   0  0  2  0  0  0  0  0  0  0  0  0
   17.2386   -8.0478    0.0000 C   0  0  1  0  0  0  0  0  0  0  0  0
   17.4935   -7.2632    0.0000 C   0  0  1  0  0  0  0  0  0  0  0  0
   15.0726   -7.7778    0.0000 O   0  0  0  0  0  0  0  0  0  0  0  0
   16.1767   -9.0040    0.0000 O   0  0  0  0  0  0  0  0  0  0  0  0
   17.7906   -8.6609    0.0000 O   0  0  0  0  0  0  0  0  0  0  0  0
   18.3005   -7.0917    0.0000 C   0  0  0  0  0  0  0  0  0  0  0  0
   18.8525   -7.7048    0.0000 O   0  0  0  0  0  0  0  0  0  0  0  0
   15.5825   -6.2085    0.0000 O   0  0  0  0  0  0  0  0  0  0  0  0
   14.7755   -6.3801    0.0000 C   0  0  0  0  0  0  0  0  0  0  0  0
   13.4165   -5.9385    0.0000 O   0  0  0  0  0  0  0  0  0  0  0  0
   14.2235   -5.7670    0.0000 C   0  0  1  0  0  0  0  0  0  0  0  0
   14.4784   -4.9824    0.0000 C   0  0  2  0  0  0  0  0  0  0  0  0
   13.9264   -4.3693    0.0000 C   0  0  1  0  0  0  0  0  0  0  0  0
   13.1194   -4.5408    0.0000 C   0  0  2  0  0  0  0  0  0  0  0  0
   12.8645   -5.3254    0.0000 C   0  0  2  0  0  0  0  0  0  0  0  0
   12.5674   -3.9277    0.0000 O   0  0  0  0  0  0  0  0  0  0  0  0
   13.6293   -2.9715    0.0000 O   0  0  0  0  0  0  0  0  0  0  0  0
   12.8223   -3.1431    0.0000 C   0  0  2  0  0  0  0  0  0  0  0  0
   12.2703   -2.5300    0.0000 C   0  0  1  0  0  0  0  0  0  0  0  0
   12.5252   -1.7454    0.0000 C   0  0  2  0  0  0  0  0  0  0  0  0
   13.3322   -1.5738    0.0000 C   0  0  1  0  0  0  0  0  0  0  0  0
   13.8842   -2.1869    0.0000 C   0  0  1  0  0  0  0  0  0  0  0  0
   14.6912   -2.0154    0.0000 C   0  0  0  0  0  0  0  0  0  0  0  0
   15.2432   -2.6285    0.0000 O   0  0  0  0  0  0  0  0  0  0  0  0
   13.5871   -0.7892    0.0000 O   0  0  0  0  0  0  0  0  0  0  0  0
   11.9732   -1.1323    0.0000 O   0  0  0  0  0  0  0  0  0  0  0  0
   11.4633   -2.7015    0.0000 O   0  0  0  0  0  0  0  0  0  0  0  0
   14.1813   -3.5846    0.0000 O   0  0  0  0  0  0  0  0  0  0  0  0
   15.2854   -4.8108    0.0000 O   0  0  0  0  0  0  0  0  0  0  0  0
   12.0575   -5.4969    0.0000 O   0  0  0  0  0  0  0  0  0  0  0  0
   13.1616   -6.7231    0.0000 C   0  0  0  0  0  0  0  0  0  0  0  0
   12.3546   -6.8947    0.0000 C   0  0  0  0  0  0  0  0  0  0  0  0
   11.8026   -6.2816    0.0000 C   0  0  1  0  0  0  0  0  0  0  0  0
   10.9956   -6.4531    0.0000 C   0  0  0  0  0  0  0  0  0  0  0  0
   10.7407   -7.2377    0.0000 C   0  0  0  0  0  0  0  0  0  0  0  0
    9.9337   -7.4092    0.0000 C   0  0  1  0  0  0  0  0  0  0  0  0
    9.3817   -6.7961    0.0000 C   0  0  0  0  0  0  0  0  0  0  0  0
   12.0997   -7.6793    0.0000 C   0  0  0  0  0  0  0  0  0  0  0  0
   12.9066   -7.5078    0.0000 O   0  0  0  0  0  0  0  0  0  0  0  0
    6.0362   -9.2738    0.0000 C   0  0  0  0  0  0  0  0  0  0  0  0
    5.3218   -9.6863    0.0000 C   0  0  0  0  0  0  0  0  0  0  0  0
    5.3218  -10.5113    0.0000 C   0  0  1  0  0  0  0  0  0  0  0  0
    6.0362  -10.9238    0.0000 C   0  0  0  0  0  0  0  0  0  0  0  0
    6.7507  -10.5113    0.0000 C   0  0  0  0  0  0  0  0  0  0  0  0
    7.4652  -10.9238    0.0000 C   0  0  0  0  0  0  0  0  0  0  0  0
    8.1797  -10.5113    0.0000 C   0  0  0  0  0  0  0  0  0  0  0  0
    8.1797   -9.6863    0.0000 C   0  0  1  0  0  0  0  0  0  0  0  0
    8.8941   -9.2738    0.0000 C   0  0  2  0  0  0  0  0  0  0  0  0
    9.6787   -9.5287    0.0000 C   0  0  0  0  0  0  0  0  0  0  0  0
   10.1637   -8.8613    0.0000 C   0  0  0  0  0  0  0  0  0  0  0  0
    9.6787   -8.1939    0.0000 C   0  0  1  0  0  0  0  0  0  0  0  0
    8.8941   -8.4488    0.0000 C   0  0  1  0  0  0  0  0  0  0  0  0
    8.1797   -8.0363    0.0000 C   0  0  0  0  0  0  0  0  0  0  0  0
    7.4652   -8.4488    0.0000 C   0  0  0  0  0  0  0  0  0  0  0  0
    7.4652   -9.2738    0.0000 C   0  0  1  0  0  0  0  0  0  0  0  0
    6.7507   -9.6863    0.0000 C   0  0  2  0  0  0  0  0  0  0  0  0
    8.8941  -10.0988    0.0000 C   0  0  0  0  0  0  0  0  0  0  0  0
    8.9804   -7.6283    0.0000 C   0  0  0  0  0  0  0  0  0  0  0  0
    7.4652  -10.0988    0.0000 C   0  0  0  0  0  0  0  0  0  0  0  0
    6.4487  -11.6383    0.0000 C   0  0  0  0  0  0  0  0  0  0  0  0
    5.6237  -11.6383    0.0000 C   0  0  0  0  0  0  0  0  0  0  0  0
    4.6073  -10.9238    0.0000 O   0  0  0  0  0  0  0  0  0  0  0  0
    3.1784  -10.9238    0.0000 O   0  0  0  0  0  0  0  0  0  0  0  0
    3.8928  -10.5113    0.0000 C   0  0  2  0  0  0  0  0  0  0  0  0
    3.8928   -9.6863    0.0000 C   0  0  1  0  0  0  0  0  0  0  0  0
    3.1784   -9.2738    0.0000 C   0  0  2  0  0  0  0  0  0  0  0  0
    2.4639   -9.6863    0.0000 C   0  0  1  0  0  0  0  0  0  0  0  0
    2.4639  -10.5113    0.0000 C   0  0  1  0  0  0  0  0  0  0  0  0
    1.7494   -9.2738    0.0000 O   0  0  0  0  0  0  0  0  0  0  0  0
    2.4639   -8.0363    0.0000 O   0  0  0  0  0  0  0  0  0  0  0  0
    1.7494   -8.4488    0.0000 C   0  0  2  0  0  0  0  0  0  0  0  0
    1.0349   -8.0363    0.0000 C   0  0  1  0  0  0  0  0  0  0  0  0
    1.0349   -7.2113    0.0000 C   0  0  2  0  0  0  0  0  0  0  0  0
    1.7494   -6.7988    0.0000 C   0  0  1  0  0  0  0  0  0  0  0  0
    2.4639   -7.2113    0.0000 C   0  0  1  0  0  0  0  0  0  0  0  0
    3.1784   -6.7988    0.0000 C   0  0  0  0  0  0  0  0  0  0  0  0
    3.8928   -7.2113    0.0000 O   0  0  0  0  0  0  0  0  0  0  0  0
    1.7494   -5.9738    0.0000 O   0  0  0  0  0  0  0  0  0  0  0  0
    0.3205   -6.7988    0.0000 O   0  0  0  0  0  0  0  0  0  0  0  0
    0.3205   -8.4488    0.0000 O   0  0  0  0  0  0  0  0  0  0  0  0
    1.7494  -10.9238    0.0000 C   0  0  0  0  0  0  0  0  0  0  0  0
    1.0349  -10.5113    0.0000 O   0  0  0  0  0  0  0  0  0  0  0  0
    3.1784   -8.4488    0.0000 O   0  0  0  0  0  0  0  0  0  0  0  0
    4.6073   -9.2738    0.0000 O   0  0  0  0  0  0  0  0  0  0  0  0
    8.1797   -8.8613    0.0000 H   0  0  0  0  0  0  0  0  0  0  0  0
    6.7507   -8.8613    0.0000 H   0  0  0  0  0  0  0  0  0  0  0  0
  1  2  1  0  0  0  0
  2  3  1  0  0  0  0
  3  4  1  0  0  0  0
  4  5  1  0  0  0  0
  5  6  1  0  0  0  0
  1  6  1  0  0  0  0
  3  7  1  1  0  0  0
  4  8  1  6  0  0  0
  5  9  1  1  0  0  0
 10 11  1  0  0  0  0
  6 10  1  6  0  0  0
 12 13  1  0  0  0  0
 14 15  1  0  0  0  0
 15 16  1  0  0  0  0
 16 17  1  0  0  0  0
 17 18  1  0  0  0  0
 18 19  1  0  0  0  0
 14 19  1  0  0  0  0
 21 22  1  0  0  0  0
 22 23  1  0  0  0  0
 23 24  1  0  0  0  0
 24 25  1  0  0  0  0
 25 26  1  0  0  0  0
 21 26  1  0  0  0  0
 27 28  1  0  0  0  0
 26 27  1  1  0  0  0
 25 29  1  6  0  0  0
 24 30  1  1  0  0  0
 23 31  1  6  0  0  0
 22 20  1  1  0  0  0
 18 20  1  6  0  0  0
 17 32  1  1  0  0  0
 16 33  1  6  0  0  0
 35 36  1  0  0  0  0
 36 37  1  0  0  0  0
 37 38  1  0  0  0  0
 38 39  1  0  0  0  0
 39 40  1  0  0  0  0
 40 41  1  6  0  0  0
 36 42  1  0  0  0  0
 36 43  1  0  0  0  0
 44 45  1  0  0  0  0
 45 46  1  0  0  0  0
 46 47  1  0  0  0  0
 47 48  1  0  0  0  0
 48 49  2  0  0  0  0
 49 50  1  0  0  0  0
 50 51  1  0  0  0  0
 51 52  1  0  0  0  0
 52 53  1  0  0  0  0
 53 54  1  0  0  0  0
 55 54  1  1  0  0  0
 55 56  1  0  0  0  0
 52 56  1  0  0  0  0
 56 57  1  0  0  0  0
 57 58  1  0  0  0  0
 58 59  1  0  0  0  0
 51 59  1  0  0  0  0
 59 60  1  0  0  0  0
 48 60  1  0  0  0  0
 44 60  1  0  0  0  0
 52 61  1  6  0  0  0
 56 62  1  1  0  0  0
 59 63  1  1  0  0  0
 47 64  1  0  0  0  0
 47 65  1  0  0  0  0
 67 68  1  0  0  0  0
 68 69  1  0  0  0  0
 69 70  1  0  0  0  0
 70 71  1  0  0  0  0
 71 72  1  0  0  0  0
 67 72  1  0  0  0  0
 74 75  1  0  0  0  0
 75 76  1  0  0  0  0
 76 77  1  0  0  0  0
 77 78  1  0  0  0  0
 78 79  1  0  0  0  0
 74 79  1  0  0  0  0
 80 81  1  0  0  0  0
 79 80  1  1  0  0  0
 78 82  1  6  0  0  0
 77 83  1  1  0  0  0
 76 84  1  6  0  0  0
 75 73  1  1  0  0  0
 71 73  1  1  0  0  0
 85 86  1  0  0  0  0
 72 85  1  6  0  0  0
 70 87  1  6  0  0  0
 69 88  1  1  0  0  0
 68 66  1  6  0  0  0
 46 66  1  1  0  0  0
 40 55  1  0  0  0  0
 37 34  1  1  0  0  0
 19 34  1  1  0  0  0
 15 13  1  1  0  0  0
  2 12  1  6  0  0  0
 51 89  1  1  0  0  0
 60 90  1  6  0  0  0
M  END
>  <cdx:groupId>
31304

>  <cdx:fragmentId>
31175

$$$$
