102236129.cdx
  Mrv1902 05222410222D          

 90 98  0  0  0  0            999 V2000
    2.4539   -9.8517    0.0000 O   0  0  0  0  0  0  0  0  0  0  0  0
    3.1684  -10.2642    0.0000 C   0  0  2  0  0  0  0  0  0  0  0  0
    3.1684  -11.0892    0.0000 C   0  0  1  0  0  0  0  0  0  0  0  0
    2.4539  -11.5017    0.0000 C   0  0  2  0  0  0  0  0  0  0  0  0
    1.7395  -11.0892    0.0000 C   0  0  1  0  0  0  0  0  0  0  0  0
    1.7395  -10.2642    0.0000 C   0  0  1  0  0  0  0  0  0  0  0  0
    3.8829  -11.5017    0.0000 O   0  0  0  0  0  0  0  0  0  0  0  0
    2.4539  -12.3267    0.0000 O   0  0  0  0  0  0  0  0  0  0  0  0
    1.0250  -11.5017    0.0000 O   0  0  0  0  0  0  0  0  0  0  0  0
    1.0250   -9.8517    0.0000 C   0  0  0  0  0  0  0  0  0  0  0  0
    0.3105  -10.2642    0.0000 O   0  0  0  0  0  0  0  0  0  0  0  0
    3.8829   -9.8517    0.0000 O   0  0  0  0  0  0  0  0  0  0  0  0
    4.5974  -10.2642    0.0000 C   0  0  0  0  0  0  0  0  0  0  0  0
    6.0263  -10.2642    0.0000 O   0  0  0  0  0  0  0  0  0  0  0  0
    5.3118   -9.8517    0.0000 C   0  0  1  0  0  0  0  0  0  0  0  0
    5.3118   -9.0267    0.0000 C   0  0  2  0  0  0  0  0  0  0  0  0
    6.0263   -8.6142    0.0000 C   0  0  1  0  0  0  0  0  0  0  0  0
    6.7408   -9.0267    0.0000 C   0  0  2  0  0  0  0  0  0  0  0  0
    6.7408   -9.8517    0.0000 C   0  0  2  0  0  0  0  0  0  0  0  0
    7.4552   -8.6142    0.0000 O   0  0  0  0  0  0  0  0  0  0  0  0
    6.0263   -7.7892    0.0000 O   0  0  0  0  0  0  0  0  0  0  0  0
    4.5974   -8.6142    0.0000 O   0  0  0  0  0  0  0  0  0  0  0  0
    7.4552  -10.2642    0.0000 O   0  0  0  0  0  0  0  0  0  0  0  0
    8.8842   -8.6142    0.0000 C   0  0  0  0  0  0  0  0  0  0  0  0
    8.1697   -9.0267    0.0000 C   0  0  0  0  0  0  0  0  0  0  0  0
    8.1697   -9.8517    0.0000 C   0  0  1  0  0  0  0  0  0  0  0  0
    8.8842  -10.2642    0.0000 C   0  0  0  0  0  0  0  0  0  0  0  0
    9.5987   -9.8517    0.0000 C   0  0  0  0  0  0  0  0  0  0  0  0
   10.3131  -10.2642    0.0000 C   0  0  0  0  0  0  0  0  0  0  0  0
   11.0276   -9.8517    0.0000 C   0  0  0  0  0  0  0  0  0  0  0  0
   11.0276   -9.0267    0.0000 C   0  0  1  0  0  0  0  0  0  0  0  0
   11.7421   -8.6142    0.0000 C   0  0  2  0  0  0  0  0  0  0  0  0
   12.5267   -8.8692    0.0000 C   0  0  0  0  0  0  0  0  0  0  0  0
   13.0116   -8.2017    0.0000 C   0  0  0  0  0  0  0  0  0  0  0  0
   12.5267   -7.5343    0.0000 C   0  0  1  0  0  0  0  0  0  0  0  0
   11.7421   -7.7892    0.0000 C   0  0  1  0  0  0  0  0  0  0  0  0
   11.0276   -7.3767    0.0000 C   0  0  0  0  0  0  0  0  0  0  0  0
   10.3131   -7.7892    0.0000 C   0  0  0  0  0  0  0  0  0  0  0  0
   10.3131   -8.6142    0.0000 C   0  0  1  0  0  0  0  0  0  0  0  0
    9.5987   -9.0267    0.0000 C   0  0  2  0  0  0  0  0  0  0  0  0
   11.7421   -9.4392    0.0000 C   0  0  0  0  0  0  0  0  0  0  0  0
   11.8283   -6.9687    0.0000 C   0  0  0  0  0  0  0  0  0  0  0  0
   10.3131   -9.4392    0.0000 C   0  0  0  0  0  0  0  0  0  0  0  0
    9.2967  -10.9787    0.0000 C   0  0  0  0  0  0  0  0  0  0  0  0
    8.4717  -10.9787    0.0000 C   0  0  0  0  0  0  0  0  0  0  0  0
   12.2296   -6.1366    0.0000 C   0  0  0  0  0  0  0  0  0  0  0  0
   12.7816   -6.7497    0.0000 C   0  0  2  0  0  0  0  0  0  0  0  0
   13.5886   -6.5781    0.0000 C   0  0  0  0  0  0  0  0  0  0  0  0
   13.8435   -5.7935    0.0000 C   0  0  0  0  0  0  0  0  0  0  0  0
   14.6505   -5.6220    0.0000 C   0  0  2  0  0  0  0  0  0  0  0  0
   15.2025   -6.2351    0.0000 C   0  0  0  0  0  0  0  0  0  0  0  0
   16.0095   -6.0636    0.0000 C   0  0  0  0  0  0  0  0  0  0  0  0
   14.9476   -7.0197    0.0000 C   0  0  0  0  0  0  0  0  0  0  0  0
   15.7546   -6.8482    0.0000 O   0  0  0  0  0  0  0  0  0  0  0  0
   14.9054   -4.8374    0.0000 O   0  0  0  0  0  0  0  0  0  0  0  0
   16.2645   -5.2789    0.0000 O   0  0  0  0  0  0  0  0  0  0  0  0
   15.7124   -4.6658    0.0000 C   0  0  2  0  0  0  0  0  0  0  0  0
   15.9674   -3.8812    0.0000 C   0  0  1  0  0  0  0  0  0  0  0  0
   16.7743   -3.7097    0.0000 C   0  0  2  0  0  0  0  0  0  0  0  0
   17.3264   -4.3228    0.0000 C   0  0  1  0  0  0  0  0  0  0  0  0
   17.0714   -5.1074    0.0000 C   0  0  1  0  0  0  0  0  0  0  0  0
   17.6235   -5.7205    0.0000 C   0  0  0  0  0  0  0  0  0  0  0  0
   18.4304   -5.5490    0.0000 O   0  0  0  0  0  0  0  0  0  0  0  0
   19.7894   -5.9905    0.0000 O   0  0  0  0  0  0  0  0  0  0  0  0
   18.9825   -6.1621    0.0000 C   0  0  2  0  0  0  0  0  0  0  0  0
   18.7275   -6.9467    0.0000 C   0  0  1  0  0  0  0  0  0  0  0  0
   19.2796   -7.5598    0.0000 C   0  0  2  0  0  0  0  0  0  0  0  0
   20.0865   -7.3883    0.0000 C   0  0  1  0  0  0  0  0  0  0  0  0
   20.3415   -6.6036    0.0000 C   0  0  1  0  0  0  0  0  0  0  0  0
   21.1484   -6.4321    0.0000 C   0  0  0  0  0  0  0  0  0  0  0  0
   21.7005   -7.0452    0.0000 O   0  0  0  0  0  0  0  0  0  0  0  0
   20.6386   -8.0013    0.0000 O   0  0  0  0  0  0  0  0  0  0  0  0
   19.0246   -8.3444    0.0000 O   0  0  0  0  0  0  0  0  0  0  0  0
   17.9206   -7.1182    0.0000 O   0  0  0  0  0  0  0  0  0  0  0  0
   15.4153   -3.2681    0.0000 O   0  0  0  0  0  0  0  0  0  0  0  0
   16.4772   -2.3120    0.0000 O   0  0  0  0  0  0  0  0  0  0  0  0
   15.6703   -2.4835    0.0000 C   0  0  1  0  0  0  0  0  0  0  0  0
   15.1182   -1.8704    0.0000 C   0  0  1  0  0  0  0  0  0  0  0  0
   15.3732   -1.0858    0.0000 C   0  0  2  0  0  0  0  0  0  0  0  0
   16.1801   -0.9143    0.0000 C   0  0  1  0  0  0  0  0  0  0  0  0
   16.7322   -1.5273    0.0000 C   0  0  1  0  0  0  0  0  0  0  0  0
   17.5391   -1.3558    0.0000 C   0  0  0  0  0  0  0  0  0  0  0  0
   18.0912   -1.9689    0.0000 O   0  0  0  0  0  0  0  0  0  0  0  0
   16.4351   -0.1296    0.0000 O   0  0  0  0  0  0  0  0  0  0  0  0
   14.8211   -0.4727    0.0000 O   0  0  0  0  0  0  0  0  0  0  0  0
   14.3113   -2.0419    0.0000 O   0  0  0  0  0  0  0  0  0  0  0  0
   18.1333   -4.1513    0.0000 O   0  0  0  0  0  0  0  0  0  0  0  0
   17.0293   -2.9251    0.0000 O   0  0  0  0  0  0  0  0  0  0  0  0
   11.0276   -8.2017    0.0000 H   0  0  0  0  0  0  0  0  0  0  0  0
    9.5987   -8.2017    0.0000 H   0  0  0  0  0  0  0  0  0  0  0  0
  1  2  1  0  0  0  0
  2  3  1  0  0  0  0
  3  4  1  0  0  0  0
  4  5  1  0  0  0  0
  5  6  1  0  0  0  0
  1  6  1  0  0  0  0
  3  7  1  6  0  0  0
  4  8  1  1  0  0  0
  5  9  1  6  0  0  0
 10 11  1  0  0  0  0
  6 10  1  1  0  0  0
 12 13  1  0  0  0  0
 14 15  1  0  0  0  0
 15 16  1  0  0  0  0
 16 17  1  0  0  0  0
 17 18  1  0  0  0  0
 18 19  1  0  0  0  0
 14 19  1  0  0  0  0
 18 20  1  1  0  0  0
 17 21  1  6  0  0  0
 16 22  1  1  0  0  0
 24 25  1  0  0  0  0
 25 26  1  0  0  0  0
 26 27  1  0  0  0  0
 27 28  1  0  0  0  0
 28 29  2  0  0  0  0
 29 30  1  0  0  0  0
 30 31  1  0  0  0  0
 31 32  1  0  0  0  0
 32 33  1  0  0  0  0
 33 34  1  0  0  0  0
 35 34  1  1  0  0  0
 35 36  1  0  0  0  0
 32 36  1  0  0  0  0
 36 37  1  0  0  0  0
 37 38  1  0  0  0  0
 38 39  1  0  0  0  0
 31 39  1  0  0  0  0
 39 40  1  0  0  0  0
 28 40  1  0  0  0  0
 24 40  1  0  0  0  0
 32 41  1  6  0  0  0
 36 42  1  1  0  0  0
 39 43  1  1  0  0  0
 27 44  1  0  0  0  0
 27 45  1  0  0  0  0
 47 46  1  6  0  0  0
 47 48  1  0  0  0  0
 48 49  1  0  0  0  0
 49 50  1  0  0  0  0
 50 51  1  0  0  0  0
 51 52  1  0  0  0  0
 51 53  1  0  0  0  0
 51 54  1  0  0  0  0
 56 57  1  0  0  0  0
 57 58  1  0  0  0  0
 58 59  1  0  0  0  0
 59 60  1  0  0  0  0
 60 61  1  0  0  0  0
 56 61  1  0  0  0  0
 64 65  1  0  0  0  0
 65 66  1  0  0  0  0
 66 67  1  0  0  0  0
 67 68  1  0  0  0  0
 68 69  1  0  0  0  0
 64 69  1  0  0  0  0
 70 71  1  0  0  0  0
 69 70  1  6  0  0  0
 68 72  1  1  0  0  0
 67 73  1  6  0  0  0
 66 74  1  1  0  0  0
 65 63  1  6  0  0  0
 62 63  1  0  0  0  0
 61 62  1  1  0  0  0
 76 77  1  0  0  0  0
 77 78  1  0  0  0  0
 78 79  1  0  0  0  0
 79 80  1  0  0  0  0
 80 81  1  0  0  0  0
 76 81  1  0  0  0  0
 82 83  1  0  0  0  0
 81 82  1  1  0  0  0
 80 84  1  6  0  0  0
 79 85  1  1  0  0  0
 78 86  1  6  0  0  0
 77 75  1  6  0  0  0
 58 75  1  6  0  0  0
 60 87  1  6  0  0  0
 59 88  1  1  0  0  0
 57 55  1  1  0  0  0
 50 55  1  1  0  0  0
 35 47  1  0  0  0  0
 26 23  1  1  0  0  0
 19 23  1  6  0  0  0
 15 13  1  6  0  0  0
  2 12  1  1  0  0  0
 31 89  1  1  0  0  0
 40 90  1  6  0  0  0
M  END
>  <cdx:groupId>
31001

>  <cdx:fragmentId>
30852

$$$$
