2362.cdx
  Mrv1902 05222410202D          

 43 45  0  0  0  0            999 V2000
    5.8901   -7.7421    0.0000 C   0  0  0  0  0  0  0  0  0  0  0  0
    5.1735   -8.1508    0.0000 C   0  0  0  0  0  0  0  0  0  0  0  0
    4.4612   -7.7345    0.0000 C   0  0  0  0  0  0  0  0  0  0  0  0
    5.8945   -6.9171    0.0000 O   0  0  0  0  0  0  0  0  0  0  0  0
    3.7446   -8.1432    0.0000 O   0  0  0  0  0  0  0  0  0  0  0  0
    4.4656   -6.9095    0.0000 O   0  0  0  0  0  0  0  0  0  0  0  0
    8.0337   -6.5279    0.0000 C   0  0  1  0  0  0  0  0  0  0  0  0
    6.5864   -9.0054    0.0000 O   0  0  0  0  0  0  0  0  0  0  0  0
    7.2999   -9.4196    0.0000 C   0  0  0  0  0  0  0  0  0  0  0  0
    7.2979  -10.2446    0.0000 C   0  0  0  0  0  0  0  0  0  0  0  0
    6.5825  -10.6554    0.0000 C   0  0  0  0  0  0  0  0  0  0  0  0
    6.5747  -13.9554    0.0000 O   0  0  0  0  0  0  0  0  0  0  0  0
    5.1477  -13.1270    0.0000 O   0  0  0  0  0  0  0  0  0  0  0  0
    6.5805  -11.4804    0.0000 C   0  0  0  0  0  0  0  0  0  0  0  0
    7.2940  -11.8946    0.0000 C   0  0  0  0  0  0  0  0  0  0  0  0
    7.2921  -12.7196    0.0000 C   0  0  0  0  0  0  0  0  0  0  0  0
    6.5766  -13.1304    0.0000 C   0  0  0  0  0  0  0  0  0  0  0  0
    5.8631  -12.7162    0.0000 C   0  0  0  0  0  0  0  0  0  0  0  0
    5.8651  -11.8912    0.0000 C   0  0  0  0  0  0  0  0  0  0  0  0
    8.4484   -5.8147    0.0000 C   0  0  0  0  0  0  0  0  0  0  0  0
    8.0381   -5.0989    0.0000 O   0  0  0  0  0  0  0  0  0  0  0  0
    9.2734   -5.8172    0.0000 O   0  0  0  0  0  0  0  0  0  0  0  0
    6.2010   -6.6655    0.0000 O   0  0  0  0  0  0  0  0  0  0  0  0
    6.6101   -5.9491    0.0000 C   0  0  0  0  0  0  0  0  0  0  0  0
    6.1942   -5.2366    0.0000 C   0  0  0  0  0  0  0  0  0  0  0  0
    5.3692   -5.2405    0.0000 C   0  0  0  0  0  0  0  0  0  0  0  0
    3.7057   -2.3905    0.0000 O   0  0  0  0  0  0  0  0  0  0  0  0
    2.8875   -3.8233    0.0000 O   0  0  0  0  0  0  0  0  0  0  0  0
    4.9534   -4.5280    0.0000 C   0  0  0  0  0  0  0  0  0  0  0  0
    5.3625   -3.8116    0.0000 C   0  0  0  0  0  0  0  0  0  0  0  0
    4.9466   -3.0990    0.0000 C   0  0  0  0  0  0  0  0  0  0  0  0
    4.1216   -3.1030    0.0000 C   0  0  0  0  0  0  0  0  0  0  0  0
    9.4575   -8.1823    0.0000 O   0  0  0  0  0  0  0  0  0  0  0  0
    8.0261   -9.0029    0.0000 O   0  0  0  0  0  0  0  0  0  0  0  0
    3.7125   -3.8194    0.0000 C   0  0  0  0  0  0  0  0  0  0  0  0
    4.1284   -4.5319    0.0000 C   0  0  0  0  0  0  0  0  0  0  0  0
    6.5997   -8.1734    0.0000 O   0  0  0  0  0  0  0  0  0  0  0  0
    7.3180   -6.9382    0.0000 C   0  0  0  0  0  0  0  0  0  0  0  0
    7.3154   -7.7632    0.0000 C   0  0  2  0  0  0  0  0  0  0  0  0
    8.0286   -8.1779    0.0000 C   0  0  1  0  0  0  0  0  0  0  0  0
    8.7443   -7.7676    0.0000 C   0  0  1  0  0  0  0  0  0  0  0  0
    8.7469   -6.9426    0.0000 C   0  0  0  0  0  0  0  0  0  0  0  0
    7.4521   -5.9427    0.0000 O   0  0  0  0  0  0  0  0  0  0  0  0
  1 37  1  0  0  0  0
  1  2  1  0  0  0  0
  2  3  1  0  0  0  0
  1  4  2  0  0  0  0
  3  5  1  0  0  0  0
  3  6  2  0  0  0  0
  9 34  1  0  0  0  0
  9  8  2  0  0  0  0
 10  9  1  0  0  0  0
 11 10  2  0  0  0  0
 14 11  1  0  0  0  0
 17 12  1  0  0  0  0
 18 13  1  0  0  0  0
 14 19  1  0  0  0  0
 15 14  2  0  0  0  0
 16 15  1  0  0  0  0
 17 16  2  0  0  0  0
 18 17  1  0  0  0  0
 19 18  2  0  0  0  0
  7 20  1  0  0  0  0
 24 43  1  0  0  0  0
  7 43  1  1  0  0  0
 20 21  2  0  0  0  0
 20 22  1  0  0  0  0
 24 23  2  0  0  0  0
 25 24  1  0  0  0  0
 26 25  2  0  0  0  0
 29 26  1  0  0  0  0
 32 27  1  0  0  0  0
 35 28  1  0  0  0  0
 29 36  1  0  0  0  0
 30 29  2  0  0  0  0
 31 30  1  0  0  0  0
 32 31  2  0  0  0  0
 35 32  1  0  0  0  0
 36 35  2  0  0  0  0
 41 33  1  1  0  0  0
 40 34  1  1  0  0  0
 39 37  1  6  0  0  0
 38  7  1  0  0  0  0
 39 38  1  0  0  0  0
 40 39  1  0  0  0  0
 41 40  1  0  0  0  0
 42 41  1  0  0  0  0
  7 42  1  0  0  0  0
M  END
>  <cdx:fragmentId>
5

$$$$
