2365.cdx
  Mrv1902 05222410192D          

 20 21  0  0  0  0            999 V2000
    6.0938   -9.3165    0.0000 C   0  0  1  0  0  0  0  0  0  0  0  0
    6.8101   -8.9070    0.0000 C   0  0  1  0  0  0  0  0  0  0  0  0
   10.3398   -9.6710    0.0000 O   0  0  0  0  0  0  0  0  0  0  0  0
    9.2045  -10.0424    0.0000 O   0  0  0  0  0  0  0  0  0  0  0  0
   10.3398   -8.8460    0.0000 C   0  0  0  0  0  0  0  0  0  0  0  0
    8.9909   -9.2456    0.0000 C   0  0  2  0  0  0  0  0  0  0  0  0
    9.5430   -8.6325    0.0000 C   0  0  2  0  0  0  0  0  0  0  0  0
    9.1305   -7.9180    0.0000 N   0  0  0  0  0  0  0  0  0  0  0  0
    8.3235   -8.0895    0.0000 C   0  0  0  0  0  0  0  0  0  0  0  0
    8.2373   -8.9100    0.0000 C   0  0  1  0  0  0  0  0  0  0  0  0
    6.8135   -8.0820    0.0000 O   0  0  0  0  0  0  0  0  0  0  0  0
    6.1008   -7.6665    0.0000 C   0  0  1  0  0  0  0  0  0  0  0  0
    5.3846   -8.0760    0.0000 C   0  0  2  0  0  0  0  0  0  0  0  0
    5.3811   -8.9009    0.0000 C   0  0  2  0  0  0  0  0  0  0  0  0
    4.6649   -9.3104    0.0000 O   0  0  0  0  0  0  0  0  0  0  0  0
    6.1043   -6.8415    0.0000 C   0  0  0  0  0  0  0  0  0  0  0  0
    6.0904  -10.1415    0.0000 O   0  0  0  0  0  0  0  0  0  0  0  0
    4.6719   -7.6604    0.0000 O   0  0  0  0  0  0  0  0  0  0  0  0
    7.5228   -9.3225    0.0000 O   0  0  0  0  0  0  0  0  0  0  0  0
    5.3916   -6.4260    0.0000 O   0  0  0  0  0  0  0  0  0  0  0  0
  5  3  1  0  0  0  0
  6  4  1  1  0  0  0
  7  5  1  6  0  0  0
  6 10  1  0  0  0  0
  7  6  1  0  0  0  0
  8  7  1  0  0  0  0
  9  8  1  0  0  0  0
 10  9  1  0  0  0  0
 10 19  1  6  0  0  0
  1  2  1  0  0  0  0
  2 11  1  0  0  0  0
 11 12  1  0  0  0  0
 12 13  1  0  0  0  0
 13 14  1  0  0  0  0
 14  1  1  0  0  0  0
 14 15  1  1  0  0  0
 12 16  1  1  0  0  0
  1 17  1  6  0  0  0
 13 18  1  6  0  0  0
  2 19  1  1  0  0  0
 16 20  1  0  0  0  0
M  END
>  <cdx:fragmentId>
5

$$$$
