2373.cdx
  Mrv1902 05222410182D          

 49 51  0  0  0  0            999 V2000
    7.2621   -7.1030    0.0000 C   0  0  0  0  0  0  0  0  0  0  0  0
    6.5470   -7.5144    0.0000 C   0  0  0  0  0  0  0  0  0  0  0  0
    6.5457   -8.3394    0.0000 C   0  0  2  0  0  0  0  0  0  0  0  0
    7.2595   -8.7530    0.0000 C   0  0  0  0  0  0  0  0  0  0  0  0
    7.9747   -8.3416    0.0000 C   0  0  1  0  0  0  0  0  0  0  0  0
    7.9759   -7.5166    0.0000 C   0  0  0  0  0  0  0  0  0  0  0  0
    7.2583   -9.5780    0.0000 O   0  0  0  0  0  0  0  0  0  0  0  0
    6.5432   -9.9894    0.0000 C   0  0  0  0  0  0  0  0  0  0  0  0
    6.5419  -10.8144    0.0000 C   0  0  0  0  0  0  0  0  0  0  0  0
    5.8268  -11.2258    0.0000 C   0  0  0  0  0  0  0  0  0  0  0  0
    5.8293   -9.5758    0.0000 O   0  0  0  0  0  0  0  0  0  0  0  0
    5.8255  -12.0508    0.0000 O   0  0  0  0  0  0  0  0  0  0  0  0
    2.9727   -8.7503    0.0000 C   0  0  0  0  0  0  0  0  0  0  0  0
    2.2583   -8.3377    0.0000 C   0  0  0  0  0  0  0  0  0  0  0  0
    1.5438   -8.7501    0.0000 C   0  0  0  0  0  0  0  0  0  0  0  0
    1.5436   -9.5751    0.0000 C   0  0  0  0  0  0  0  0  0  0  0  0
    2.2580   -9.9877    0.0000 C   0  0  0  0  0  0  0  0  0  0  0  0
    2.9726   -9.5753    0.0000 C   0  0  0  0  0  0  0  0  0  0  0  0
    0.8291   -9.9875    0.0000 O   0  0  0  0  0  0  0  0  0  0  0  0
    0.8294   -8.3375    0.0000 O   0  0  0  0  0  0  0  0  0  0  0  0
    5.1163   -7.5132    0.0000 O   0  0  0  0  0  0  0  0  0  0  0  0
    3.6873   -8.3379    0.0000 C   0  0  0  0  0  0  0  0  0  0  0  0
    4.4017   -8.7506    0.0000 C   0  0  0  0  0  0  0  0  0  0  0  0
    5.1162   -8.3382    0.0000 C   0  0  0  0  0  0  0  0  0  0  0  0
    5.8306   -8.7508    0.0000 O   0  0  0  0  0  0  0  0  0  0  0  0
    6.8496   -6.3885    0.0000 O   0  0  0  0  0  0  0  0  0  0  0  0
    7.6746   -6.3885    0.0000 C   0  0  0  0  0  0  0  0  0  0  0  0
    7.2621   -5.6741    0.0000 O   0  0  0  0  0  0  0  0  0  0  0  0
    8.4996   -6.3885    0.0000 O   0  0  0  0  0  0  0  0  0  0  0  0
    9.4007   -8.3415    0.0000 C   0  0  0  0  0  0  0  0  0  0  0  0
   10.1149   -8.7544    0.0000 C   0  0  0  0  0  0  0  0  0  0  0  0
   10.8296   -8.3424    0.0000 C   0  0  0  0  0  0  0  0  0  0  0  0
    9.4012   -7.5165    0.0000 O   0  0  0  0  0  0  0  0  0  0  0  0
   13.6875   -8.3443    0.0000 O   0  0  0  0  0  0  0  0  0  0  0  0
   13.6864   -9.9943    0.0000 O   0  0  0  0  0  0  0  0  0  0  0  0
   11.5433   -9.5804    0.0000 C   0  0  0  0  0  0  0  0  0  0  0  0
   12.2575   -9.9934    0.0000 C   0  0  0  0  0  0  0  0  0  0  0  0
   12.9722   -9.5813    0.0000 C   0  0  0  0  0  0  0  0  0  0  0  0
   12.9728   -8.7563    0.0000 C   0  0  0  0  0  0  0  0  0  0  0  0
   12.2586   -8.3434    0.0000 C   0  0  0  0  0  0  0  0  0  0  0  0
   11.5438   -8.7554    0.0000 C   0  0  0  0  0  0  0  0  0  0  0  0
    8.6885   -8.7552    0.0000 O   0  0  0  0  0  0  0  0  0  0  0  0
    5.1129  -10.8122    0.0000 O   0  0  0  0  0  0  0  0  0  0  0  0
    4.3682   -6.4150    0.0000 O   0  0  0  0  0  0  0  0  0  0  0  0
    4.3546   -4.9861    0.0000 O   0  0  0  0  0  0  0  0  0  0  0  0
    5.6124   -7.1176    0.0000 O   0  0  0  0  0  0  0  0  0  0  0  0
    4.7739   -5.6966    0.0000 C   0  0  0  0  0  0  0  0  0  0  0  0
    5.5988   -5.6888    0.0000 C   0  0  0  0  0  0  0  0  0  0  0  0
    6.0181   -6.3993    0.0000 C   0  0  0  0  0  0  0  0  0  0  0  0
 30 42  1  0  0  0  0
 25 24  1  0  0  0  0
 22 13  1  0  0  0  0
 24 21  2  0  0  0  0
 23 22  2  0  0  0  0
 24 23  1  0  0  0  0
  1  2  1  0  0  0  0
  2  3  1  0  0  0  0
  3  4  1  0  0  0  0
  4  5  1  0  0  0  0
  5  6  1  0  0  0  0
  1  6  1  0  0  0  0
  5 42  1  1  0  0  0
  8  9  1  0  0  0  0
  9 10  1  0  0  0  0
  8 11  2  0  0  0  0
 10 12  1  0  0  0  0
  7  8  1  0  0  0  0
  4  7  1  0  0  0  0
 13 14  1  0  0  0  0
 14 15  2  0  0  0  0
 15 16  1  0  0  0  0
 16 17  2  0  0  0  0
 17 18  1  0  0  0  0
 13 18  2  0  0  0  0
 16 19  1  0  0  0  0
 15 20  1  0  0  0  0
  3 25  1  6  0  0  0
  1 26  1  0  0  0  0
  1 27  1  0  0  0  0
 27 28  2  0  0  0  0
 27 29  1  0  0  0  0
 39 34  1  0  0  0  0
 38 35  1  0  0  0  0
 41 36  2  0  0  0  0
 37 36  1  0  0  0  0
 38 37  2  0  0  0  0
 39 38  1  0  0  0  0
 40 39  2  0  0  0  0
 41 40  1  0  0  0  0
 30 31  1  0  0  0  0
 31 32  2  0  0  0  0
 30 33  2  0  0  0  0
 32 41  1  0  0  0  0
 10 43  2  0  0  0  0
 47 44  2  0  0  0  0
 47 45  1  0  0  0  0
 49 46  2  0  0  0  0
 48 47  1  0  0  0  0
 49 48  1  0  0  0  0
 49 26  1  0  0  0  0
M  END
>  <cdx:fragmentId>
37

$$$$
