23741.cdx
  Mrv1902 05222410282D          

 17 17  0  0  0  0            999 V2000
   12.4174   -3.2299    0.0000 O   0  0  0  0  0  0  0  0  0  0  0  0
   11.5924   -3.2299    0.0000 C   0  0  0  0  0  0  0  0  0  0  0  0
   12.0049   -2.5155    0.0000 C   0  0  0  0  0  0  0  0  0  0  0  0
   10.8779   -3.6424    0.0000 C   0  0  0  0  0  0  0  0  0  0  0  0
   10.1634   -3.2299    0.0000 C   0  0  0  0  0  0  0  0  0  0  0  0
    9.4489   -3.6424    0.0000 C   0  0  0  0  0  0  0  0  0  0  0  0
    8.7345   -3.2299    0.0000 C   0  0  0  0  0  0  0  0  0  0  0  0
    8.0200   -3.6424    0.0000 C   0  0  0  0  0  0  0  0  0  0  0  0
    7.3055   -3.2299    0.0000 C   0  0  0  0  0  0  0  0  0  0  0  0
    6.5911   -3.6424    0.0000 C   0  0  0  0  0  0  0  0  0  0  0  0
    5.8766   -3.2299    0.0000 C   0  0  0  0  0  0  0  0  0  0  0  0
    5.1621   -3.6424    0.0000 C   0  0  0  0  0  0  0  0  0  0  0  0
    4.4476   -3.2299    0.0000 C   0  0  0  0  0  0  0  0  0  0  0  0
    3.7332   -3.6424    0.0000 C   0  0  0  0  0  0  0  0  0  0  0  0
    3.0187   -3.2299    0.0000 C   0  0  0  0  0  0  0  0  0  0  0  0
    2.3042   -3.6424    0.0000 C   0  0  0  0  0  0  0  0  0  0  0  0
    1.5898   -3.2299    0.0000 C   0  0  0  0  0  0  0  0  0  0  0  0
  1  2  1  0  0  0  0
  2  3  1  0  0  0  0
  1  3  1  0  0  0  0
  4  5  1  0  0  0  0
  5  6  1  0  0  0  0
  6  7  1  0  0  0  0
  7  8  1  0  0  0  0
  8  9  1  0  0  0  0
  9 10  1  0  0  0  0
 10 11  1  0  0  0  0
 11 12  1  0  0  0  0
 12 13  1  0  0  0  0
 13 14  1  0  0  0  0
 14 15  1  0  0  0  0
 15 16  1  0  0  0  0
 16 17  1  0  0  0  0
  2  4  1  0  0  0  0
M  END
>  <cdx:groupId>
53

>  <cdx:fragmentId>
11

$$$$
