14237659.cdx
  Mrv1902 05222410272D          

 31 33  0  0  0  0            999 V2000
    7.1708   -6.9015    0.0000 C   0  0  0  0  0  0  0  0  0  0  0  0
    7.1708   -6.0765    0.0000 C   0  0  0  0  0  0  0  0  0  0  0  0
    6.4563   -5.6640    0.0000 C   0  0  0  0  0  0  0  0  0  0  0  0
    5.7418   -6.0765    0.0000 C   0  0  0  0  0  0  0  0  0  0  0  0
    5.0274   -5.6640    0.0000 C   0  0  0  0  0  0  0  0  0  0  0  0
    4.3129   -6.0765    0.0000 C   0  0  0  0  0  0  0  0  0  0  0  0
    4.3129   -6.9015    0.0000 C   0  0  0  0  0  0  0  0  0  0  0  0
    5.0274   -7.3140    0.0000 C   0  0  0  0  0  0  0  0  0  0  0  0
    5.7418   -6.9015    0.0000 C   0  0  0  0  0  0  0  0  0  0  0  0
    6.4563   -7.3140    0.0000 O   0  0  0  0  0  0  0  0  0  0  0  0
    6.4563   -4.8390    0.0000 O   0  0  0  0  0  0  0  0  0  0  0  0
    5.0274   -8.1390    0.0000 C   0  0  0  0  0  0  0  0  0  0  0  0
    4.3129   -8.5515    0.0000 C   0  0  0  0  0  0  0  0  0  0  0  0
    4.3129   -9.3765    0.0000 C   0  0  0  0  0  0  0  0  0  0  0  0
    5.0274   -9.7890    0.0000 C   0  0  0  0  0  0  0  0  0  0  0  0
    3.5984   -9.7890    0.0000 C   0  0  0  0  0  0  0  0  0  0  0  0
    3.5984   -7.3140    0.0000 O   0  0  0  0  0  0  0  0  0  0  0  0
    5.0274   -4.8390    0.0000 O   0  0  0  0  0  0  0  0  0  0  0  0
    7.8852   -5.6640    0.0000 C   0  0  0  0  0  0  0  0  0  0  0  0
    8.5997   -6.0765    0.0000 C   0  0  0  0  0  0  0  0  0  0  0  0
    9.3142   -5.6640    0.0000 C   0  0  0  0  0  0  0  0  0  0  0  0
    9.3142   -4.8390    0.0000 C   0  0  0  0  0  0  0  0  0  0  0  0
    8.5997   -4.4265    0.0000 C   0  0  0  0  0  0  0  0  0  0  0  0
    7.8852   -4.8390    0.0000 C   0  0  0  0  0  0  0  0  0  0  0  0
   10.0286   -6.0765    0.0000 C   0  0  0  0  0  0  0  0  0  0  0  0
   10.7431   -5.6640    0.0000 C   0  0  0  0  0  0  0  0  0  0  0  0
   11.4576   -6.0765    0.0000 C   0  0  0  0  0  0  0  0  0  0  0  0
   11.4576   -6.9015    0.0000 C   0  0  0  0  0  0  0  0  0  0  0  0
   12.1721   -5.6640    0.0000 C   0  0  0  0  0  0  0  0  0  0  0  0
   10.0286   -4.4265    0.0000 O   0  0  0  0  0  0  0  0  0  0  0  0
    8.5997   -6.9015    0.0000 O   0  0  0  0  0  0  0  0  0  0  0  0
  1  2  2  0  0  0  0
  2  3  1  0  0  0  0
  3  4  1  0  0  0  0
  4  5  1  0  0  0  0
  5  6  2  0  0  0  0
  6  7  1  0  0  0  0
  7  8  2  0  0  0  0
  8  9  1  0  0  0  0
  4  9  2  0  0  0  0
  9 10  1  0  0  0  0
  1 10  1  0  0  0  0
  3 11  2  0  0  0  0
 12 13  1  0  0  0  0
 13 14  2  0  0  0  0
 14 15  1  0  0  0  0
 14 16  1  0  0  0  0
  8 12  1  0  0  0  0
  7 17  1  0  0  0  0
  5 18  1  0  0  0  0
 19 20  1  0  0  0  0
 20 21  2  0  0  0  0
 21 22  1  0  0  0  0
 22 23  2  0  0  0  0
 23 24  1  0  0  0  0
 19 24  2  0  0  0  0
 25 26  1  0  0  0  0
 26 27  2  0  0  0  0
 27 28  1  0  0  0  0
 27 29  1  0  0  0  0
 21 25  1  0  0  0  0
 22 30  1  0  0  0  0
 20 31  1  0  0  0  0
  2 19  1  0  0  0  0
M  END
>  <cdx:fragmentId>
104400

$$$$
