238.cdx
  Mrv1902 05222410212D          

 33 36  0  0  0  0            999 V2000
    2.9184   -7.6674    0.0000 C   0  0  0  0  0  0  0  0  0  0  0  0
    2.9184   -8.4924    0.0000 C   0  0  2  0  0  0  0  0  0  0  0  0
    3.6328   -8.9049    0.0000 C   0  0  0  0  0  0  0  0  0  0  0  0
    4.3473   -8.4924    0.0000 C   0  0  2  0  0  0  0  0  0  0  0  0
    4.3473   -7.6674    0.0000 C   0  0  2  0  0  0  0  0  0  0  0  0
    3.6328   -7.2549    0.0000 C   0  0  0  0  0  0  0  0  0  0  0  0
    5.0618   -8.9049    0.0000 C   0  0  0  0  0  0  0  0  0  0  0  0
    5.7763   -8.4924    0.0000 C   0  0  1  0  0  0  0  0  0  0  0  0
    5.7763   -7.6674    0.0000 C   0  0  2  0  0  0  0  0  0  0  0  0
    5.0618   -7.2549    0.0000 C   0  0  2  0  0  0  0  0  0  0  0  0
    6.4907   -7.2549    0.0000 C   0  0  1  0  0  0  0  0  0  0  0  0
    6.4907   -6.4299    0.0000 C   0  0  2  0  0  0  0  0  0  0  0  0
    5.7763   -6.0174    0.0000 C   0  0  0  0  0  0  0  0  0  0  0  0
    5.0618   -6.4299    0.0000 C   0  0  0  0  0  0  0  0  0  0  0  0
    7.2753   -7.5099    0.0000 C   0  0  0  0  0  0  0  0  0  0  0  0
    7.7603   -6.8424    0.0000 C   0  0  0  0  0  0  0  0  0  0  0  0
    7.2753   -6.1750    0.0000 C   0  0  2  0  0  0  0  0  0  0  0  0
    4.3473   -6.8424    0.0000 C   0  0  0  0  0  0  0  0  0  0  0  0
    6.4907   -5.6049    0.0000 C   0  0  0  0  0  0  0  0  0  0  0  0
    7.6878   -5.4605    0.0000 C   0  0  2  0  0  0  0  0  0  0  0  0
    7.2753   -4.7461    0.0000 C   0  0  0  0  0  0  0  0  0  0  0  0
   10.1628   -5.4605    0.0000 O   0  0  0  0  0  0  0  0  0  0  0  0
   10.1628   -4.0316    0.0000 O   0  0  0  0  0  0  0  0  0  0  0  0
    9.7503   -4.7461    0.0000 C   0  0  0  0  0  0  0  0  0  0  0  0
    4.3473   -9.3174    0.0000 H   0  0  0  0  0  0  0  0  0  0  0  0
    5.7763   -6.8424    0.0000 H   0  0  0  0  0  0  0  0  0  0  0  0
    5.0618   -8.0799    0.0000 H   0  0  0  0  0  0  0  0  0  0  0  0
    6.4907   -8.0799    0.0000 H   0  0  0  0  0  0  0  0  0  0  0  0
    6.4907   -8.9049    0.0000 O   0  0  0  0  0  0  0  0  0  0  0  0
    8.9253   -4.7461    0.0000 C   0  0  0  0  0  0  0  0  0  0  0  0
    8.5128   -5.4605    0.0000 C   0  0  0  0  0  0  0  0  0  0  0  0
    8.1003   -6.1750    0.0000 H   0  0  0  0  0  0  0  0  0  0  0  0
    2.2039   -8.9049    0.0000 O   0  0  0  0  0  0  0  0  0  0  0  0
  1  2  1  0  0  0  0
  2  3  1  0  0  0  0
  3  4  1  0  0  0  0
  4  5  1  0  0  0  0
  5  6  1  0  0  0  0
  6  1  1  0  0  0  0
  4  7  1  0  0  0  0
  7  8  1  0  0  0  0
  8  9  1  0  0  0  0
  9 10  1  0  0  0  0
 10  5  1  0  0  0  0
  9 11  1  0  0  0  0
 11 12  1  0  0  0  0
 12 13  1  0  0  0  0
 13 14  1  0  0  0  0
 14 10  1  0  0  0  0
 11 15  1  0  0  0  0
 15 16  1  0  0  0  0
 16 17  1  0  0  0  0
 17 12  1  0  0  0  0
  5 18  1  1  0  0  0
 12 19  1  1  0  0  0
 20 21  1  6  0  0  0
 24 22  2  0  0  0  0
 20 31  1  0  0  0  0
 24 23  1  0  0  0  0
 30 24  1  0  0  0  0
 31 30  1  0  0  0  0
  4 25  1  1  0  0  0
  9 26  1  1  0  0  0
 10 27  1  6  0  0  0
 11 28  1  6  0  0  0
  8 29  1  1  0  0  0
 17 32  1  6  0  0  0
 17 20  1  0  0  0  0
  2 33  1  6  0  0  0
M  END
>  <cdx:fragmentId>
5

$$$$
