102238230.cdx
  Mrv1902 05222410272D          

102112  0  0  0  0            999 V2000
    2.8748  -13.4626    0.0000 O   0  0  0  0  0  0  0  0  0  0  0  0
    2.1603  -13.0501    0.0000 C   0  0  2  0  0  0  0  0  0  0  0  0
    2.1603  -12.2251    0.0000 C   0  0  1  0  0  0  0  0  0  0  0  0
    2.8748  -11.8126    0.0000 C   0  0  1  0  0  0  0  0  0  0  0  0
    3.5892  -12.2251    0.0000 C   0  0  2  0  0  0  0  0  0  0  0  0
    3.5892  -13.0501    0.0000 C   0  0  1  0  0  0  0  0  0  0  0  0
    1.4458  -13.4626    0.0000 C   0  0  0  0  0  0  0  0  0  0  0  0
    1.4458  -14.2876    0.0000 O   0  0  0  0  0  0  0  0  0  0  0  0
    0.7314  -13.0501    0.0000 O   0  0  0  0  0  0  0  0  0  0  0  0
    4.3037  -11.8126    0.0000 O   0  0  0  0  0  0  0  0  0  0  0  0
    3.5892  -10.5751    0.0000 O   0  0  0  0  0  0  0  0  0  0  0  0
    4.3037  -10.9876    0.0000 C   0  0  1  0  0  0  0  0  0  0  0  0
    5.0182  -10.5751    0.0000 C   0  0  1  0  0  0  0  0  0  0  0  0
    5.0182   -9.7501    0.0000 C   0  0  2  0  0  0  0  0  0  0  0  0
    4.3037   -9.3376    0.0000 C   0  0  1  0  0  0  0  0  0  0  0  0
    3.5892   -9.7501    0.0000 C   0  0  2  0  0  0  0  0  0  0  0  0
    2.8748   -9.3376    0.0000 C   0  0  0  0  0  0  0  0  0  0  0  0
    2.1603   -9.7501    0.0000 O   0  0  0  0  0  0  0  0  0  0  0  0
    4.3037   -8.5126    0.0000 O   0  0  0  0  0  0  0  0  0  0  0  0
    5.7327   -9.3376    0.0000 O   0  0  0  0  0  0  0  0  0  0  0  0
    5.7327  -10.9876    0.0000 O   0  0  0  0  0  0  0  0  0  0  0  0
    2.8748  -10.9876    0.0000 O   0  0  0  0  0  0  0  0  0  0  0  0
    1.4458  -11.8126    0.0000 O   0  0  0  0  0  0  0  0  0  0  0  0
    4.3037  -13.4626    0.0000 O   0  0  0  0  0  0  0  0  0  0  0  0
    5.7327  -11.8126    0.0000 C   0  0  0  0  0  0  0  0  0  0  0  0
    5.0182  -12.2251    0.0000 C   0  0  0  0  0  0  0  0  0  0  0  0
    5.0182  -13.0501    0.0000 C   0  0  2  0  0  0  0  0  0  0  0  0
    5.7327  -13.4626    0.0000 C   0  0  1  0  0  0  0  0  0  0  0  0
    6.4471  -13.0501    0.0000 C   0  0  2  0  0  0  0  0  0  0  0  0
    7.1616  -13.4626    0.0000 C   0  0  0  0  0  0  0  0  0  0  0  0
    7.8761  -13.0501    0.0000 C   0  0  0  0  0  0  0  0  0  0  0  0
    7.8761  -12.2251    0.0000 C   0  0  2  0  0  0  0  0  0  0  0  0
    8.5905  -11.8126    0.0000 C   0  0  1  0  0  0  0  0  0  0  0  0
    9.3050  -12.2251    0.0000 C   0  0  0  0  0  0  0  0  0  0  0  0
   10.0195  -11.8126    0.0000 C   0  0  0  0  0  0  0  0  0  0  0  0
   10.0195  -10.9876    0.0000 C   0  0  2  0  0  0  0  0  0  0  0  0
   10.7340  -10.5751    0.0000 C   0  0  0  0  0  0  0  0  0  0  0  0
   10.7340   -9.7501    0.0000 C   0  0  0  0  0  0  0  0  0  0  0  0
   10.0195   -9.3376    0.0000 C   0  0  0  0  0  0  0  0  0  0  0  0
    9.3050   -9.7501    0.0000 C   0  0  0  0  0  0  0  0  0  0  0  0
    9.3050  -10.5751    0.0000 C   0  0  2  0  0  0  0  0  0  0  0  0
    8.5905  -10.9876    0.0000 C   0  0  0  0  0  0  0  0  0  0  0  0
    7.8761  -10.5751    0.0000 C   0  0  0  0  0  0  0  0  0  0  0  0
    7.1616  -10.9876    0.0000 C   0  0  0  0  0  0  0  0  0  0  0  0
    7.1616  -11.8126    0.0000 C   0  0  2  0  0  0  0  0  0  0  0  0
    6.4471  -12.2251    0.0000 C   0  0  2  0  0  0  0  0  0  0  0  0
    6.4471  -11.4001    0.0000 C   0  0  0  0  0  0  0  0  0  0  0  0
    9.6070   -8.6231    0.0000 C   0  0  0  0  0  0  0  0  0  0  0  0
   10.4320   -8.6231    0.0000 C   0  0  0  0  0  0  0  0  0  0  0  0
    8.5905  -12.6376    0.0000 C   0  0  0  0  0  0  0  0  0  0  0  0
    7.8761  -11.4001    0.0000 C   0  0  0  0  0  0  0  0  0  0  0  0
    5.3202  -14.1771    0.0000 C   0  0  0  0  0  0  0  0  0  0  0  0
    6.1452  -14.1771    0.0000 C   0  0  0  0  0  0  0  0  0  0  0  0
    5.7327  -14.8915    0.0000 O   0  0  0  0  0  0  0  0  0  0  0  0
   10.7340  -11.4001    0.0000 C   0  0  0  0  0  0  0  0  0  0  0  0
   10.7340  -12.2251    0.0000 O   0  0  0  0  0  0  0  0  0  0  0  0
   11.4484  -10.9876    0.0000 O   0  0  0  0  0  0  0  0  0  0  0  0
   12.1629  -12.2251    0.0000 O   0  0  0  0  0  0  0  0  0  0  0  0
   12.1629  -11.4001    0.0000 C   0  0  1  0  0  0  0  0  0  0  0  0
   12.8774  -10.9876    0.0000 C   0  0  1  0  0  0  0  0  0  0  0  0
   13.5918  -11.4001    0.0000 C   0  0  2  0  0  0  0  0  0  0  0  0
   13.5918  -12.2251    0.0000 C   0  0  1  0  0  0  0  0  0  0  0  0
   12.8774  -12.6376    0.0000 C   0  0  2  0  0  0  0  0  0  0  0  0
   14.3063  -10.9876    0.0000 O   0  0  0  0  0  0  0  0  0  0  0  0
   15.0208  -12.2251    0.0000 O   0  0  0  0  0  0  0  0  0  0  0  0
   15.0208  -11.4001    0.0000 C   0  0  2  0  0  0  0  0  0  0  0  0
   15.7353  -10.9876    0.0000 C   0  0  2  0  0  0  0  0  0  0  0  0
   16.4497  -11.4001    0.0000 C   0  0  1  0  0  0  0  0  0  0  0  0
   16.4497  -12.2251    0.0000 C   0  0  2  0  0  0  0  0  0  0  0  0
   15.7353  -12.6376    0.0000 C   0  0  0  0  0  0  0  0  0  0  0  0
   17.1642  -12.6376    0.0000 O   0  0  0  0  0  0  0  0  0  0  0  0
   17.1642  -10.9876    0.0000 O   0  0  0  0  0  0  0  0  0  0  0  0
   15.7353  -10.1626    0.0000 O   0  0  0  0  0  0  0  0  0  0  0  0
   12.8774  -13.4626    0.0000 C   0  0  0  0  0  0  0  0  0  0  0  0
   12.8774   -9.6676    0.0000 O   0  0  0  0  0  0  0  0  0  0  0  0
   14.3063   -9.6676    0.0000 O   0  0  0  0  0  0  0  0  0  0  0  0
   13.5918   -9.2551    0.0000 C   0  0  1  0  0  0  0  0  0  0  0  0
   13.5918   -8.4301    0.0000 C   0  0  1  0  0  0  0  0  0  0  0  0
   14.3063   -8.0176    0.0000 C   0  0  1  0  0  0  0  0  0  0  0  0
   15.0208   -8.4301    0.0000 C   0  0  1  0  0  0  0  0  0  0  0  0
   15.0208   -9.2551    0.0000 C   0  0  1  0  0  0  0  0  0  0  0  0
   15.7353   -8.0176    0.0000 O   0  0  0  0  0  0  0  0  0  0  0  0
   16.4497   -9.2551    0.0000 O   0  0  0  0  0  0  0  0  0  0  0  0
   16.4497   -8.4301    0.0000 C   0  0  1  0  0  0  0  0  0  0  0  0
   17.1642   -8.0176    0.0000 C   0  0  1  0  0  0  0  0  0  0  0  0
   17.8787   -8.4301    0.0000 C   0  0  2  0  0  0  0  0  0  0  0  0
   17.8787   -9.2551    0.0000 C   0  0  2  0  0  0  0  0  0  0  0  0
   17.1642   -9.6676    0.0000 C   0  0  0  0  0  0  0  0  0  0  0  0
   18.5931   -9.6676    0.0000 O   0  0  0  0  0  0  0  0  0  0  0  0
   18.5931   -8.0176    0.0000 O   0  0  0  0  0  0  0  0  0  0  0  0
   17.1642   -7.1926    0.0000 O   0  0  0  0  0  0  0  0  0  0  0  0
   15.7353   -9.6676    0.0000 C   0  0  0  0  0  0  0  0  0  0  0  0
   14.3063   -7.1926    0.0000 O   0  0  0  0  0  0  0  0  0  0  0  0
   12.8774   -8.0176    0.0000 O   0  0  0  0  0  0  0  0  0  0  0  0
   14.3063  -12.6376    0.0000 O   0  0  0  0  0  0  0  0  0  0  0  0
   14.3063  -13.4626    0.0000 C   0  0  0  0  0  0  0  0  0  0  0  0
   13.5918  -13.8751    0.0000 O   0  0  0  0  0  0  0  0  0  0  0  0
   15.0208  -13.8751    0.0000 C   0  0  0  0  0  0  0  0  0  0  0  0
    0.0169  -13.4626    0.0000 C   0  0  0  0  0  0  0  0  0  0  0  0
    6.4471  -13.8751    0.0000 H   0  0  0  0  0  0  0  0  0  0  0  0
    9.3050  -11.4001    0.0000 H   0  0  0  0  0  0  0  0  0  0  0  0
    7.1616  -12.6376    0.0000 H   0  0  0  0  0  0  0  0  0  0  0  0
  1  2  1  0  0  0  0
  2  3  1  0  0  0  0
  3  4  1  0  0  0  0
  4  5  1  0  0  0  0
  5  6  1  0  0  0  0
  1  6  1  0  0  0  0
  7  8  2  0  0  0  0
  7  9  1  0  0  0  0
  2  7  1  1  0  0  0
 11 12  1  0  0  0  0
 12 13  1  0  0  0  0
 13 14  1  0  0  0  0
 14 15  1  0  0  0  0
 15 16  1  0  0  0  0
 11 16  1  0  0  0  0
 17 18  1  0  0  0  0
 16 17  1  1  0  0  0
 15 19  1  1  0  0  0
 14 20  1  6  0  0  0
 13 21  1  1  0  0  0
 12 10  1  1  0  0  0
  5 10  1  1  0  0  0
  4 22  1  6  0  0  0
  3 23  1  6  0  0  0
 25 26  1  0  0  0  0
 26 27  1  0  0  0  0
 27 28  1  0  0  0  0
 28 29  1  0  0  0  0
 29 30  1  0  0  0  0
 30 31  1  0  0  0  0
 31 32  1  0  0  0  0
 32 33  1  0  0  0  0
 33 34  1  0  0  0  0
 34 35  1  0  0  0  0
 35 36  1  0  0  0  0
 36 37  1  0  0  0  0
 37 38  1  0  0  0  0
 38 39  1  0  0  0  0
 39 40  1  0  0  0  0
 40 41  1  0  0  0  0
 36 41  1  0  0  0  0
 41 42  1  0  0  0  0
 33 42  1  0  0  0  0
 42 43  2  0  0  0  0
 43 44  1  0  0  0  0
 44 45  1  0  0  0  0
 32 45  1  0  0  0  0
 45 46  1  0  0  0  0
 29 46  1  0  0  0  0
 25 46  1  0  0  0  0
 46 47  1  6  0  0  0
 39 48  1  0  0  0  0
 39 49  1  0  0  0  0
 33 50  1  1  0  0  0
 32 51  1  6  0  0  0
 28 52  1  1  0  0  0
 53 54  2  0  0  0  0
 28 53  1  6  0  0  0
 55 56  2  0  0  0  0
 58 59  1  0  0  0  0
 59 60  1  0  0  0  0
 60 61  1  0  0  0  0
 61 62  1  0  0  0  0
 62 63  1  0  0  0  0
 58 63  1  0  0  0  0
 65 66  1  0  0  0  0
 66 67  1  0  0  0  0
 67 68  1  0  0  0  0
 68 69  1  0  0  0  0
 69 70  1  0  0  0  0
 65 70  1  0  0  0  0
 69 71  1  1  0  0  0
 68 72  1  6  0  0  0
 67 73  1  1  0  0  0
 66 64  1  1  0  0  0
 61 64  1  1  0  0  0
 63 74  1  6  0  0  0
 76 77  1  0  0  0  0
 77 78  1  0  0  0  0
 78 79  1  0  0  0  0
 79 80  1  0  0  0  0
 80 81  1  0  0  0  0
 76 81  1  0  0  0  0
 83 84  1  0  0  0  0
 84 85  1  0  0  0  0
 85 86  1  0  0  0  0
 86 87  1  0  0  0  0
 87 88  1  0  0  0  0
 83 88  1  0  0  0  0
 87 89  1  1  0  0  0
 86 90  1  1  0  0  0
 85 91  1  6  0  0  0
 84 82  1  6  0  0  0
 80 82  1  6  0  0  0
 81 92  1  1  0  0  0
 79 93  1  6  0  0  0
 78 94  1  6  0  0  0
 77 75  1  6  0  0  0
 60 75  1  6  0  0  0
 96 97  2  0  0  0  0
 96 98  1  0  0  0  0
 95 96  1  0  0  0  0
 62 95  1  6  0  0  0
 59 57  1  6  0  0  0
 55 57  1  0  0  0  0
 36 55  1  6  0  0  0
 27 24  1  6  0  0  0
  6 24  1  1  0  0  0
  9 99  1  0  0  0  0
 29100  1  6  0  0  0
 41101  1  6  0  0  0
 45102  1  6  0  0  0
M  END
>  <cdx:groupId>
31994

>  <cdx:fragmentId>
31845

$$$$
