14238616.cdx
  Mrv1902 05222410202D          

 36 36  0  0  0  0            999 V2000
    9.0187   -9.4952    0.0000 C   0  0  0  0  0  0  0  0  0  0  0  0
    8.3043   -9.9077    0.0000 C   0  0  0  0  0  0  0  0  0  0  0  0
    7.5898   -9.4952    0.0000 C   0  0  0  0  0  0  0  0  0  0  0  0
    9.0187   -8.6702    0.0000 O   0  0  0  0  0  0  0  0  0  0  0  0
    9.7332   -9.9077    0.0000 O   0  0  0  0  0  0  0  0  0  0  0  0
    6.8753   -9.9077    0.0000 C   0  0  0  0  0  0  0  0  0  0  0  0
    6.1608   -9.4952    0.0000 C   0  0  0  0  0  0  0  0  0  0  0  0
    5.4464   -9.9077    0.0000 C   0  0  0  0  0  0  0  0  0  0  0  0
    5.4464  -10.7327    0.0000 C   0  0  0  0  0  0  0  0  0  0  0  0
    6.1608  -11.1452    0.0000 C   0  0  0  0  0  0  0  0  0  0  0  0
    6.8753  -10.7327    0.0000 C   0  0  0  0  0  0  0  0  0  0  0  0
    4.7319   -9.4952    0.0000 O   0  0  0  0  0  0  0  0  0  0  0  0
    4.0174   -9.9077    0.0000 C   0  0  0  0  0  0  0  0  0  0  0  0
    4.7319  -11.1452    0.0000 O   0  0  0  0  0  0  0  0  0  0  0  0
   10.4477   -9.4952    0.0000 C   0  0  0  0  0  0  0  0  0  0  0  0
   11.1621   -9.9077    0.0000 C   0  0  0  0  0  0  0  0  0  0  0  0
   11.8766   -9.4952    0.0000 C   0  0  0  0  0  0  0  0  0  0  0  0
   12.5911   -9.9077    0.0000 C   0  0  0  0  0  0  0  0  0  0  0  0
   13.3056   -9.4952    0.0000 C   0  0  0  0  0  0  0  0  0  0  0  0
   14.0200   -9.9077    0.0000 C   0  0  0  0  0  0  0  0  0  0  0  0
   14.7345   -9.4952    0.0000 C   0  0  0  0  0  0  0  0  0  0  0  0
   15.4490   -9.9077    0.0000 C   0  0  0  0  0  0  0  0  0  0  0  0
   16.1634   -9.4952    0.0000 C   0  0  0  0  0  0  0  0  0  0  0  0
   16.8779   -9.9077    0.0000 C   0  0  0  0  0  0  0  0  0  0  0  0
   17.5924   -9.4952    0.0000 C   0  0  0  0  0  0  0  0  0  0  0  0
   18.3069   -9.9077    0.0000 C   0  0  0  0  0  0  0  0  0  0  0  0
   19.0213   -9.4952    0.0000 C   0  0  0  0  0  0  0  0  0  0  0  0
   19.7358   -9.9077    0.0000 C   0  0  0  0  0  0  0  0  0  0  0  0
   20.4503   -9.4952    0.0000 C   0  0  0  0  0  0  0  0  0  0  0  0
   21.1647   -9.9077    0.0000 C   0  0  0  0  0  0  0  0  0  0  0  0
   21.8792   -9.4952    0.0000 C   0  0  0  0  0  0  0  0  0  0  0  0
   22.5937   -9.9077    0.0000 C   0  0  0  0  0  0  0  0  0  0  0  0
   23.3082   -9.4952    0.0000 C   0  0  0  0  0  0  0  0  0  0  0  0
   24.0226   -9.9077    0.0000 C   0  0  0  0  0  0  0  0  0  0  0  0
   24.7371   -9.4952    0.0000 C   0  0  0  0  0  0  0  0  0  0  0  0
   25.4516   -9.9077    0.0000 C   0  0  0  0  0  0  0  0  0  0  0  0
  1  2  1  0  0  0  0
  2  3  2  0  0  0  0
  1  4  2  0  0  0  0
  1  5  1  0  0  0  0
  6  7  1  0  0  0  0
  7  8  2  0  0  0  0
  8  9  1  0  0  0  0
  9 10  2  0  0  0  0
 10 11  1  0  0  0  0
  6 11  2  0  0  0  0
 12 13  1  0  0  0  0
  8 12  1  0  0  0  0
  9 14  1  0  0  0  0
  3  6  1  0  0  0  0
 15 16  1  0  0  0  0
 16 17  1  0  0  0  0
 17 18  1  0  0  0  0
 18 19  1  0  0  0  0
 19 20  1  0  0  0  0
 20 21  1  0  0  0  0
 21 22  1  0  0  0  0
 22 23  1  0  0  0  0
 23 24  1  0  0  0  0
 24 25  1  0  0  0  0
 25 26  1  0  0  0  0
 26 27  1  0  0  0  0
 27 28  1  0  0  0  0
 28 29  1  0  0  0  0
 29 30  1  0  0  0  0
 30 31  1  0  0  0  0
 31 32  1  0  0  0  0
 32 33  1  0  0  0  0
 33 34  1  0  0  0  0
 34 35  1  0  0  0  0
 35 36  1  0  0  0  0
  5 15  1  0  0  0  0
M  END
>  <cdx:groupId>
113411

>  <cdx:fragmentId>
113334

$$$$
