238782.cdx
  Mrv1902 05222410272D          

 19 21  0  0  0  0            999 V2000
   16.4932   -9.8727    0.0000 C   0  0  0  0  0  0  0  0  0  0  0  0
   16.4932  -10.6977    0.0000 C   0  0  0  0  0  0  0  0  0  0  0  0
   15.7788  -11.1102    0.0000 C   0  0  0  0  0  0  0  0  0  0  0  0
   15.7788  -11.9352    0.0000 O   0  0  0  0  0  0  0  0  0  0  0  0
   15.0643  -10.6977    0.0000 C   0  0  0  0  0  0  0  0  0  0  0  0
   14.3498  -11.1102    0.0000 C   0  0  0  0  0  0  0  0  0  0  0  0
   13.6353  -10.6977    0.0000 C   0  0  0  0  0  0  0  0  0  0  0  0
   13.6353   -9.8727    0.0000 C   0  0  0  0  0  0  0  0  0  0  0  0
   14.3498   -9.4602    0.0000 C   0  0  0  0  0  0  0  0  0  0  0  0
   15.0643   -9.8727    0.0000 C   0  0  0  0  0  0  0  0  0  0  0  0
   15.7788   -9.4602    0.0000 O   0  0  0  0  0  0  0  0  0  0  0  0
   17.2077   -9.4602    0.0000 C   0  0  0  0  0  0  0  0  0  0  0  0
   17.2077   -8.6352    0.0000 C   0  0  0  0  0  0  0  0  0  0  0  0
   17.9222   -8.2227    0.0000 C   0  0  0  0  0  0  0  0  0  0  0  0
   18.6366   -8.6352    0.0000 C   0  0  0  0  0  0  0  0  0  0  0  0
   18.6366   -9.4602    0.0000 C   0  0  0  0  0  0  0  0  0  0  0  0
   17.9222   -9.8727    0.0000 C   0  0  0  0  0  0  0  0  0  0  0  0
   12.9209   -9.4602    0.0000 O   0  0  0  0  0  0  0  0  0  0  0  0
   14.3498  -11.9352    0.0000 O   0  0  0  0  0  0  0  0  0  0  0  0
  1  2  1  0  0  0  0
  2  3  1  0  0  0  0
  3  4  2  0  0  0  0
  3  5  1  0  0  0  0
  5  6  1  0  0  0  0
  6  7  2  0  0  0  0
  7  8  1  0  0  0  0
  8  9  2  0  0  0  0
  9 10  1  0  0  0  0
  5 10  2  0  0  0  0
 10 11  1  0  0  0  0
  1 11  1  0  0  0  0
  1 12  1  0  0  0  0
 12 13  1  0  0  0  0
 13 14  2  0  0  0  0
 14 15  1  0  0  0  0
 15 16  2  0  0  0  0
 16 17  1  0  0  0  0
 12 17  2  0  0  0  0
  8 18  1  0  0  0  0
  6 19  1  0  0  0  0
M  END
>  <cdx:groupId>
4156

>  <cdx:fragmentId>
4100

$$$$
