23872.cdx
  Mrv1902 05222410252D          

 19 19  0  0  0  0            999 V2000
   13.5031   -2.7555    0.0000 O   0  0  0  0  0  0  0  0  0  0  0  0
   12.6781   -2.7555    0.0000 C   0  0  0  0  0  0  0  0  0  0  0  0
   13.0906   -2.0411    0.0000 C   0  0  0  0  0  0  0  0  0  0  0  0
   11.9636   -3.1680    0.0000 C   0  0  0  0  0  0  0  0  0  0  0  0
   11.2491   -2.7555    0.0000 C   0  0  0  0  0  0  0  0  0  0  0  0
   10.5347   -3.1680    0.0000 C   0  0  0  0  0  0  0  0  0  0  0  0
    9.8202   -2.7555    0.0000 C   0  0  0  0  0  0  0  0  0  0  0  0
    9.1057   -3.1680    0.0000 C   0  0  0  0  0  0  0  0  0  0  0  0
    8.3913   -2.7555    0.0000 C   0  0  0  0  0  0  0  0  0  0  0  0
    7.6768   -3.1680    0.0000 C   0  0  0  0  0  0  0  0  0  0  0  0
    6.9623   -2.7555    0.0000 C   0  0  0  0  0  0  0  0  0  0  0  0
    6.2478   -3.1680    0.0000 C   0  0  0  0  0  0  0  0  0  0  0  0
    5.5334   -2.7555    0.0000 C   0  0  0  0  0  0  0  0  0  0  0  0
    4.8189   -3.1680    0.0000 C   0  0  0  0  0  0  0  0  0  0  0  0
    4.1044   -2.7555    0.0000 C   0  0  0  0  0  0  0  0  0  0  0  0
    3.3900   -3.1680    0.0000 C   0  0  0  0  0  0  0  0  0  0  0  0
    2.6755   -2.7555    0.0000 C   0  0  0  0  0  0  0  0  0  0  0  0
    1.9610   -3.1680    0.0000 C   0  0  0  0  0  0  0  0  0  0  0  0
    1.2465   -2.7555    0.0000 C   0  0  0  0  0  0  0  0  0  0  0  0
  1  2  1  0  0  0  0
  2  3  1  0  0  0  0
  1  3  1  0  0  0  0
  4  5  1  0  0  0  0
  5  6  1  0  0  0  0
  6  7  1  0  0  0  0
  7  8  1  0  0  0  0
  8  9  1  0  0  0  0
  9 10  1  0  0  0  0
 10 11  1  0  0  0  0
 11 12  1  0  0  0  0
 12 13  1  0  0  0  0
 13 14  1  0  0  0  0
 14 15  1  0  0  0  0
 15 16  1  0  0  0  0
 16 17  1  0  0  0  0
 17 18  1  0  0  0  0
 18 19  1  0  0  0  0
  2  4  1  0  0  0  0
M  END
>  <cdx:groupId>
59

>  <cdx:fragmentId>
11

$$$$
