23916.cdx
  Mrv1902 05222410242D          

 31 33  0  0  0  0            999 V2000
    9.5956   -7.0904    0.0000 O   0  0  0  0  0  0  0  0  0  0  0  0
    6.7522   -3.5111    0.0000 C   0  0  0  0  0  0  0  0  0  0  0  0
    6.1655   -4.0910    0.0000 O   0  0  0  0  0  0  0  0  0  0  0  0
    4.7854   -4.4614    0.0000 C   0  0  0  0  0  0  0  0  0  0  0  0
    4.9993   -5.2582    0.0000 O   0  0  0  0  0  0  0  0  0  0  0  0
    4.5812   -6.2600    0.0000 C   0  0  0  0  0  0  0  0  0  0  0  0
    5.2933   -6.6766    0.0000 O   0  0  0  0  0  0  0  0  0  0  0  0
    4.5817   -7.5121    0.0000 C   0  0  0  0  0  0  0  0  0  0  0  0
    5.2986   -7.1037    0.0000 O   0  0  0  0  0  0  0  0  0  0  0  0
    4.7874   -9.3281    0.0000 C   0  0  0  0  0  0  0  0  0  0  0  0
    5.0006   -8.5311    0.0000 O   0  0  0  0  0  0  0  0  0  0  0  0
    6.7478  -10.2841    0.0000 C   0  0  0  0  0  0  0  0  0  0  0  0
    6.1678   -9.6974    0.0000 O   0  0  0  0  0  0  0  0  0  0  0  0
    7.1764   -5.1010    0.0000 C   0  0  0  0  0  0  0  0  0  0  0  0
    6.3794   -4.8878    0.0000 C   0  0  0  0  0  0  0  0  0  0  0  0
    5.7963   -5.4714    0.0000 C   0  0  0  0  0  0  0  0  0  0  0  0
    6.0101   -6.2682    0.0000 C   0  0  0  0  0  0  0  0  0  0  0  0
    6.0106   -7.5203    0.0000 C   0  0  0  0  0  0  0  0  0  0  0  0
    5.7974   -8.3173    0.0000 C   0  0  0  0  0  0  0  0  0  0  0  0
    6.3810   -8.9004    0.0000 C   0  0  0  0  0  0  0  0  0  0  0  0
    7.1778   -8.6865    0.0000 C   0  0  0  0  0  0  0  0  0  0  0  0
    9.5609   -6.1646    0.0000 C   0  0  0  0  0  0  0  0  0  0  0  0
    9.5615   -7.6210    0.0000 C   0  0  0  0  0  0  0  0  0  0  0  0
    8.7992   -7.3056    0.0000 C   0  0  1  0  0  0  0  0  0  0  0  0
    8.7988   -6.4806    0.0000 C   0  0  1  0  0  0  0  0  0  0  0  0
    8.2152   -5.8975    0.0000 C   0  0  0  0  0  0  0  0  0  0  0  0
    7.3902   -5.8978    0.0000 C   0  0  0  0  0  0  0  0  0  0  0  0
    6.8071   -6.4814    0.0000 C   0  0  0  0  0  0  0  0  0  0  0  0
    6.8074   -7.3064    0.0000 C   0  0  0  0  0  0  0  0  0  0  0  0
    7.3910   -7.8896    0.0000 C   0  0  0  0  0  0  0  0  0  0  0  0
    8.2160   -7.8892    0.0000 C   0  0  0  0  0  0  0  0  0  0  0  0
 24  1  1  6  0  0  0
  3  2  1  0  0  0  0
 15  3  1  0  0  0  0
  5  4  1  0  0  0  0
 16  5  1  0  0  0  0
  7  6  1  0  0  0  0
 17  7  1  0  0  0  0
  9  8  1  0  0  0  0
 18  9  1  0  0  0  0
 11 10  1  0  0  0  0
 19 11  1  0  0  0  0
 13 12  1  0  0  0  0
 20 13  1  0  0  0  0
 14 27  1  0  0  0  0
 15 14  2  0  0  0  0
 16 15  1  0  0  0  0
 17 16  2  0  0  0  0
 28 17  1  0  0  0  0
 18 29  1  0  0  0  0
 19 18  2  0  0  0  0
 20 19  1  0  0  0  0
 21 20  2  0  0  0  0
 30 21  1  0  0  0  0
 25 22  1  1  0  0  0
 24 23  1  1  0  0  0
 24 31  1  0  0  0  0
 25 24  1  0  0  0  0
 26 25  1  0  0  0  0
 27 26  1  0  0  0  0
 28 27  2  0  0  0  0
 29 28  1  0  0  0  0
 30 29  2  0  0  0  0
 31 30  1  0  0  0  0
M  END
>  <cdx:fragmentId>
760

$$$$
