2393.cdx
  Mrv1902 05222410272D          

 20 22  0  0  0  0            999 V2000
    7.9136  -10.6067    0.0000 O   0  0  0  0  0  0  0  0  0  0  0  0
    5.0557   -7.3067    0.0000 O   0  0  0  0  0  0  0  0  0  0  0  0
    5.0557  -10.6067    0.0000 O   0  0  0  0  0  0  0  0  0  0  0  0
   10.0570   -8.5442    0.0000 C   0  0  0  0  0  0  0  0  0  0  0  0
    9.3425   -8.1317    0.0000 O   0  0  0  0  0  0  0  0  0  0  0  0
    6.4846  -10.6067    0.0000 O   0  0  0  0  0  0  0  0  0  0  0  0
    5.7701   -9.3692    0.0000 C   0  0  0  0  0  0  0  0  0  0  0  0
    5.0557   -9.7817    0.0000 C   0  0  0  0  0  0  0  0  0  0  0  0
    4.3412   -9.3692    0.0000 C   0  0  0  0  0  0  0  0  0  0  0  0
    4.3412   -8.5442    0.0000 C   0  0  0  0  0  0  0  0  0  0  0  0
    5.0557   -8.1317    0.0000 C   0  0  0  0  0  0  0  0  0  0  0  0
    5.7701   -8.5442    0.0000 C   0  0  0  0  0  0  0  0  0  0  0  0
    6.4846   -8.1317    0.0000 O   0  0  0  0  0  0  0  0  0  0  0  0
    7.1991   -8.5442    0.0000 C   0  0  0  0  0  0  0  0  0  0  0  0
    7.9136   -8.1317    0.0000 C   0  0  0  0  0  0  0  0  0  0  0  0
    8.6280   -8.5442    0.0000 C   0  0  0  0  0  0  0  0  0  0  0  0
    8.6280   -9.3692    0.0000 C   0  0  0  0  0  0  0  0  0  0  0  0
    7.9136   -9.7817    0.0000 C   0  0  0  0  0  0  0  0  0  0  0  0
    7.1991   -9.3692    0.0000 C   0  0  0  0  0  0  0  0  0  0  0  0
    6.4846   -9.7817    0.0000 C   0  0  0  0  0  0  0  0  0  0  0  0
 18  1  1  0  0  0  0
 11  2  1  0  0  0  0
  8  3  1  0  0  0  0
 16  5  1  0  0  0  0
  5  4  1  0  0  0  0
 20  6  2  0  0  0  0
 20  7  1  0  0  0  0
 12  7  2  0  0  0  0
  8  7  1  0  0  0  0
  9  8  2  0  0  0  0
 10  9  1  0  0  0  0
 11 10  2  0  0  0  0
 12 11  1  0  0  0  0
 13 12  1  0  0  0  0
 14 13  1  0  0  0  0
 19 14  2  0  0  0  0
 15 14  1  0  0  0  0
 16 15  2  0  0  0  0
 17 16  1  0  0  0  0
 18 17  2  0  0  0  0
 19 18  1  0  0  0  0
 20 19  1  0  0  0  0
M  END
>  <cdx:fragmentId>
5

$$$$
