2395.cdx
  Mrv1902 05222410282D          

 24 25  0  0  0  0            999 V2000
    5.8814  -11.1788    0.0000 C   0  0  0  0  0  0  0  0  0  0  0  0
    5.8814  -12.0038    0.0000 C   0  0  0  0  0  0  0  0  0  0  0  0
    6.5959  -12.4162    0.0000 C   0  0  0  0  0  0  0  0  0  0  0  0
    7.3103  -12.0038    0.0000 C   0  0  0  0  0  0  0  0  0  0  0  0
    7.3103  -11.1788    0.0000 C   0  0  0  0  0  0  0  0  0  0  0  0
    6.5959  -10.7663    0.0000 C   0  0  0  0  0  0  0  0  0  0  0  0
    6.5959  -13.2413    0.0000 O   0  0  0  0  0  0  0  0  0  0  0  0
    5.1669  -12.4162    0.0000 O   0  0  0  0  0  0  0  0  0  0  0  0
    4.4525  -12.0038    0.0000 C   0  0  0  0  0  0  0  0  0  0  0  0
    6.5959   -9.9413    0.0000 C   0  0  0  0  0  0  0  0  0  0  0  0
    7.3103   -9.5287    0.0000 C   0  0  0  0  0  0  0  0  0  0  0  0
    7.3103   -8.7037    0.0000 C   0  0  0  0  0  0  0  0  0  0  0  0
    8.0248   -8.2912    0.0000 C   0  0  0  0  0  0  0  0  0  0  0  0
    6.5959   -8.2912    0.0000 O   0  0  0  0  0  0  0  0  0  0  0  0
    8.0248   -7.4663    0.0000 C   0  0  0  0  0  0  0  0  0  0  0  0
    8.7393   -7.0537    0.0000 C   0  0  0  0  0  0  0  0  0  0  0  0
    9.4538   -7.4663    0.0000 C   0  0  0  0  0  0  0  0  0  0  0  0
   10.1682   -7.0537    0.0000 C   0  0  0  0  0  0  0  0  0  0  0  0
   10.1682   -6.2287    0.0000 C   0  0  0  0  0  0  0  0  0  0  0  0
    9.4538   -5.8163    0.0000 C   0  0  0  0  0  0  0  0  0  0  0  0
    8.7393   -6.2287    0.0000 C   0  0  0  0  0  0  0  0  0  0  0  0
   10.8827   -5.8163    0.0000 O   0  0  0  0  0  0  0  0  0  0  0  0
    9.4538   -4.9913    0.0000 O   0  0  0  0  0  0  0  0  0  0  0  0
    8.7393   -4.5788    0.0000 C   0  0  0  0  0  0  0  0  0  0  0  0
  1  2  2  0  0  0  0
  2  3  1  0  0  0  0
  3  4  2  0  0  0  0
  4  5  1  0  0  0  0
  5  6  2  0  0  0  0
  6  1  1  0  0  0  0
  3  7  1  0  0  0  0
  2  8  1  0  0  0  0
  8  9  1  0  0  0  0
  6 10  1  0  0  0  0
 10 11  2  0  0  0  0
 11 12  1  0  0  0  0
 12 13  1  0  0  0  0
 12 14  2  0  0  0  0
 13 15  2  0  0  0  0
 15 16  1  0  0  0  0
 16 17  2  0  0  0  0
 17 18  1  0  0  0  0
 18 19  2  0  0  0  0
 19 20  1  0  0  0  0
 20 21  2  0  0  0  0
 21 16  1  0  0  0  0
 19 22  1  0  0  0  0
 20 23  1  0  0  0  0
 23 24  1  0  0  0  0
M  END
>  <cdx:fragmentId>
5

$$$$
