239706.cdx
  Mrv1902 05222410262D          

 15 16  0  0  0  0            999 V2000
    8.3677   -8.4323    0.0000 C   0  0  0  0  0  0  0  0  0  0  0  0
    9.0822   -8.8448    0.0000 C   0  0  0  0  0  0  0  0  0  0  0  0
    9.0822   -9.6698    0.0000 C   0  0  0  0  0  0  0  0  0  0  0  0
    8.3677  -10.0823    0.0000 C   0  0  0  0  0  0  0  0  0  0  0  0
    7.6532   -9.6698    0.0000 C   0  0  0  0  0  0  0  0  0  0  0  0
    6.9388  -10.0823    0.0000 C   0  0  0  0  0  0  0  0  0  0  0  0
    6.2243   -9.6698    0.0000 C   0  0  0  0  0  0  0  0  0  0  0  0
    6.2243   -8.8448    0.0000 C   0  0  0  0  0  0  0  0  0  0  0  0
    6.9388   -8.4323    0.0000 C   0  0  0  0  0  0  0  0  0  0  0  0
    7.6532   -8.8448    0.0000 C   0  0  0  0  0  0  0  0  0  0  0  0
    7.6532   -7.1948    0.0000 C   0  0  0  0  0  0  0  0  0  0  0  0
    8.3677   -7.6073    0.0000 C   0  0  0  0  0  0  0  0  0  0  0  0
    9.0822   -7.1948    0.0000 C   0  0  0  0  0  0  0  0  0  0  0  0
    5.5098   -8.4323    0.0000 C   0  0  0  0  0  0  0  0  0  0  0  0
    9.7967   -8.4323    0.0000 C   0  0  0  0  0  0  0  0  0  0  0  0
  1  2  1  0  0  0  0
  2  3  2  0  0  0  0
  3  4  1  0  0  0  0
  4  5  2  0  0  0  0
  5  6  1  0  0  0  0
  6  7  2  0  0  0  0
  7  8  1  0  0  0  0
  8  9  2  0  0  0  0
  9 10  1  0  0  0  0
  1 10  2  0  0  0  0
  5 10  1  0  0  0  0
 11 12  1  0  0  0  0
 12 13  1  0  0  0  0
  1 12  1  0  0  0  0
  8 14  1  0  0  0  0
  2 15  1  0  0  0  0
M  END
>  <cdx:fragmentId>
209655

$$$$
