2398.cdx
  Mrv1902 05222410182D          

 51 53  0  0  0  0            999 V2000
    5.6639  -10.5479    0.0000 C   0  0  0  0  0  0  0  0  0  0  0  0
    5.6711  -11.3728    0.0000 C   0  0  0  0  0  0  0  0  0  0  0  0
    4.9602  -11.7915    0.0000 C   0  0  0  0  0  0  0  0  0  0  0  0
    4.9674  -12.6165    0.0000 C   0  0  0  0  0  0  0  0  0  0  0  0
    4.2565  -13.0352    0.0000 O   0  0  0  0  0  0  0  0  0  0  0  0
    5.6854  -13.0228    0.0000 O   0  0  0  0  0  0  0  0  0  0  0  0
    4.9459  -10.1416    0.0000 O   0  0  0  0  0  0  0  0  0  0  0  0
    7.0545   -8.0833    0.0000 C   0  0  0  0  0  0  0  0  0  0  0  0
    6.3391   -7.6724    0.0000 C   0  0  2  0  0  0  0  0  0  0  0  0
    5.6256   -8.0866    0.0000 C   0  0  0  0  0  0  0  0  0  0  0  0
    5.6275   -8.9116    0.0000 C   0  0  2  0  0  0  0  0  0  0  0  0
    6.3429   -9.3224    0.0000 C   0  0  1  0  0  0  0  0  0  0  0  0
    7.0564   -8.9083    0.0000 C   0  0  2  0  0  0  0  0  0  0  0  0
    7.7719   -9.3192    0.0000 O   0  0  0  0  0  0  0  0  0  0  0  0
    6.3448  -10.1474    0.0000 O   0  0  0  0  0  0  0  0  0  0  0  0
    4.9140   -9.3257    0.0000 O   0  0  0  0  0  0  0  0  0  0  0  0
    6.7500   -6.9570    0.0000 C   0  0  0  0  0  0  0  0  0  0  0  0
    5.9250   -6.9589    0.0000 O   0  0  0  0  0  0  0  0  0  0  0  0
    6.3359   -6.2435    0.0000 O   0  0  0  0  0  0  0  0  0  0  0  0
    7.5750   -6.9551    0.0000 O   0  0  0  0  0  0  0  0  0  0  0  0
    2.7023   -4.0166    0.0000 C   0  0  0  0  0  0  0  0  0  0  0  0
    2.2766   -4.7232    0.0000 C   0  0  0  0  0  0  0  0  0  0  0  0
    2.6757   -5.4453    0.0000 C   0  0  0  0  0  0  0  0  0  0  0  0
    3.5005   -5.4607    0.0000 C   0  0  0  0  0  0  0  0  0  0  0  0
    3.9263   -4.7540    0.0000 C   0  0  0  0  0  0  0  0  0  0  0  0
    3.5272   -4.0320    0.0000 C   0  0  0  0  0  0  0  0  0  0  0  0
    2.3033   -3.2945    0.0000 O   0  0  0  0  0  0  0  0  0  0  0  0
    3.9530   -3.3254    0.0000 O   0  0  0  0  0  0  0  0  0  0  0  0
    3.8996   -6.1827    0.0000 C   0  0  0  0  0  0  0  0  0  0  0  0
    4.7245   -6.1981    0.0000 C   0  0  0  0  0  0  0  0  0  0  0  0
    5.1235   -6.9202    0.0000 C   0  0  0  0  0  0  0  0  0  0  0  0
    4.6978   -7.6268    0.0000 O   0  0  0  0  0  0  0  0  0  0  0  0
    4.2202   -8.9178    0.0000 C   0  0  0  0  0  0  0  0  0  0  0  0
    3.5057   -9.3303    0.0000 C   0  0  0  0  0  0  0  0  0  0  0  0
    2.7912   -8.9178    0.0000 C   0  0  0  0  0  0  0  0  0  0  0  0
    2.0768   -9.3304    0.0000 C   0  0  0  0  0  0  0  0  0  0  0  0
    1.3623   -8.9179    0.0000 O   0  0  0  0  0  0  0  0  0  0  0  0
    2.0768  -10.1554    0.0000 O   0  0  0  0  0  0  0  0  0  0  0  0
    4.2201   -8.0928    0.0000 O   0  0  0  0  0  0  0  0  0  0  0  0
   12.7682   -8.9641    0.0000 O   0  0  0  0  0  0  0  0  0  0  0  0
   12.7645  -10.6141    0.0000 O   0  0  0  0  0  0  0  0  0  0  0  0
   12.0528   -9.3750    0.0000 C   0  0  0  0  0  0  0  0  0  0  0  0
   11.3393   -8.9609    0.0000 C   0  0  0  0  0  0  0  0  0  0  0  0
   10.6239   -9.3718    0.0000 C   0  0  0  0  0  0  0  0  0  0  0  0
   10.6220  -10.1968    0.0000 C   0  0  0  0  0  0  0  0  0  0  0  0
   11.3355  -10.6109    0.0000 C   0  0  0  0  0  0  0  0  0  0  0  0
   12.0509  -10.2000    0.0000 C   0  0  0  0  0  0  0  0  0  0  0  0
    9.9103   -8.9577    0.0000 C   0  0  0  0  0  0  0  0  0  0  0  0
    9.1949   -9.3685    0.0000 C   0  0  0  0  0  0  0  0  0  0  0  0
    8.4814   -8.9544    0.0000 C   0  0  0  0  0  0  0  0  0  0  0  0
    8.4833   -8.1294    0.0000 O   0  0  0  0  0  0  0  0  0  0  0  0
  1 15  1  0  0  0  0
  2  1  1  0  0  0  0
  3  2  1  0  0  0  0
  4  3  1  0  0  0  0
  5  4  1  0  0  0  0
  4  6  2  0  0  0  0
  1  7  2  0  0  0  0
  8  9  1  0  0  0  0
  9 10  1  0  0  0  0
 10 11  1  0  0  0  0
 11 12  1  0  0  0  0
 12 13  1  0  0  0  0
 13  8  1  0  0  0  0
 13 14  1  1  0  0  0
 12 15  1  1  0  0  0
 11 16  1  6  0  0  0
  9 17  1  0  0  0  0
  9 18  1  1  0  0  0
 17 19  1  0  0  0  0
 17 20  2  0  0  0  0
 21 22  2  0  0  0  0
 22 23  1  0  0  0  0
 23 24  2  0  0  0  0
 24 25  1  0  0  0  0
 25 26  2  0  0  0  0
 26 21  1  0  0  0  0
 21 27  1  0  0  0  0
 26 28  1  0  0  0  0
 24 29  1  0  0  0  0
 29 30  2  0  0  0  0
 30 31  1  0  0  0  0
 31 32  2  0  0  0  0
 31 18  1  0  0  0  0
 34 33  1  0  0  0  0
 35 34  2  0  0  0  0
 36 35  1  0  0  0  0
 37 36  1  0  0  0  0
 36 38  2  0  0  0  0
 33 39  2  0  0  0  0
 33 16  1  0  0  0  0
 42 40  1  0  0  0  0
 47 41  1  0  0  0  0
 42 47  1  0  0  0  0
 43 42  2  0  0  0  0
 44 43  1  0  0  0  0
 45 44  2  0  0  0  0
 46 45  1  0  0  0  0
 47 46  2  0  0  0  0
 44 48  1  0  0  0  0
 48 49  2  0  0  0  0
 49 50  1  0  0  0  0
 50 51  2  0  0  0  0
 50 14  1  0  0  0  0
M  END
>  <cdx:fragmentId>
5

$$$$
