239850.cdx
  Mrv1902 05222410282D          

 19 21  0  0  0  0            999 V2000
    9.0380   -9.4192    0.0000 C   0  0  0  0  0  0  0  0  0  0  0  0
    9.5229   -8.7517    0.0000 C   0  0  0  0  0  0  0  0  0  0  0  0
    9.0380   -8.0843    0.0000 C   0  0  1  0  0  0  0  0  0  0  0  0
    8.2534   -8.3392    0.0000 C   0  0  1  0  0  0  0  0  0  0  0  0
    7.6084   -7.8249    0.0000 C   0  0  1  0  0  0  0  0  0  0  0  0
    6.8041   -8.0084    0.0000 C   0  0  1  0  0  0  0  0  0  0  0  0
    6.4461   -8.7517    0.0000 C   0  0  0  0  0  0  0  0  0  0  0  0
    6.8041   -9.4950    0.0000 C   0  0  0  0  0  0  0  0  0  0  0  0
    7.6084   -9.6786    0.0000 C   0  0  1  0  0  0  0  0  0  0  0  0
    8.2534   -9.1642    0.0000 C   0  0  1  0  0  0  0  0  0  0  0  0
    7.0472   -7.2201    0.0000 C   0  0  0  0  0  0  0  0  0  0  0  0
    9.2929   -7.2997    0.0000 C   0  0  0  0  0  0  0  0  0  0  0  0
    7.7919  -10.4829    0.0000 C   0  0  0  0  0  0  0  0  0  0  0  0
    6.4861   -6.6153    0.0000 C   0  0  0  0  0  0  0  0  0  0  0  0
    7.2904   -6.4318    0.0000 C   0  0  0  0  0  0  0  0  0  0  0  0
    6.0361   -7.7070    0.0000 H   0  0  0  0  0  0  0  0  0  0  0  0
    8.4007   -9.9760    0.0000 H   0  0  0  0  0  0  0  0  0  0  0  0
    8.3966   -7.5268    0.0000 H   0  0  0  0  0  0  0  0  0  0  0  0
    8.0560   -7.1318    0.0000 H   0  0  0  0  0  0  0  0  0  0  0  0
  1  2  1  0  0  0  0
  2  3  1  0  0  0  0
  3  4  1  0  0  0  0
  4  5  1  0  0  0  0
  5  6  1  0  0  0  0
  6  7  1  0  0  0  0
  7  8  1  0  0  0  0
  8  9  1  0  0  0  0
  9 10  1  0  0  0  0
  1 10  1  0  0  0  0
  4 10  1  0  0  0  0
 11  5  1  0  0  0  0
 11  6  1  0  0  0  0
  3 12  1  1  0  0  0
  9 13  1  1  0  0  0
 11 14  1  0  0  0  0
 11 15  1  0  0  0  0
  6 16  1  6  0  0  0
 10 17  1  1  0  0  0
  4 18  1  1  0  0  0
  5 19  1  6  0  0  0
M  END
>  <cdx:fragmentId>
32028

$$$$
