92023997.cdx
  Mrv1902 05222410192D          

 49 55  0  0  0  0            999 V2000
   12.9678   -4.3457    0.0000 C   0  0  0  0  0  0  0  0  0  0  0  0
   13.7748   -4.1742    0.0000 C   0  0  0  0  0  0  0  0  0  0  0  0
   11.2138   -6.6228    0.0000 C   0  0  2  0  0  0  0  0  0  0  0  0
   11.9283   -7.0353    0.0000 O   0  0  0  0  0  0  0  0  0  0  0  0
   11.9283   -6.2103    0.0000 C   0  0  1  0  0  0  0  0  0  0  0  0
   12.7129   -6.4652    0.0000 C   0  0  0  0  0  0  0  0  0  0  0  0
   13.1978   -5.7978    0.0000 C   0  0  0  0  0  0  0  0  0  0  0  0
   12.7129   -5.1303    0.0000 C   0  0  1  0  0  0  0  0  0  0  0  0
   11.9283   -5.3853    0.0000 C   0  0  1  0  0  0  0  0  0  0  0  0
   11.2138   -4.9728    0.0000 C   0  0  1  0  0  0  0  0  0  0  0  0
   10.4993   -5.3853    0.0000 C   0  0  2  0  0  0  0  0  0  0  0  0
   10.4993   -6.2103    0.0000 C   0  0  2  0  0  0  0  0  0  0  0  0
    9.7849   -6.6228    0.0000 C   0  0  1  0  0  0  0  0  0  0  0  0
    9.0704   -6.2103    0.0000 C   0  0  0  0  0  0  0  0  0  0  0  0
    8.3559   -6.6228    0.0000 C   0  0  0  0  0  0  0  0  0  0  0  0
    8.3559   -7.4478    0.0000 C   0  0  1  0  0  0  0  0  0  0  0  0
    9.0704   -7.8603    0.0000 C   0  0  0  0  0  0  0  0  0  0  0  0
    9.7849   -7.4478    0.0000 C   0  0  2  0  0  0  0  0  0  0  0  0
   10.4993   -7.8603    0.0000 C   0  0  0  0  0  0  0  0  0  0  0  0
   11.2138   -7.4478    0.0000 C   0  0  0  0  0  0  0  0  0  0  0  0
    9.7849   -5.7978    0.0000 C   0  0  0  0  0  0  0  0  0  0  0  0
   12.0145   -4.5648    0.0000 C   0  0  0  0  0  0  0  0  0  0  0  0
    9.7849   -4.9728    0.0000 O   0  0  0  0  0  0  0  0  0  0  0  0
   11.2138   -4.1478    0.0000 O   0  0  0  0  0  0  0  0  0  0  0  0
    7.6414   -7.8603    0.0000 O   0  0  0  0  0  0  0  0  0  0  0  0
    6.9270   -6.6228    0.0000 O   0  0  0  0  0  0  0  0  0  0  0  0
    6.9270   -7.4478    0.0000 C   0  0  2  0  0  0  0  0  0  0  0  0
    6.2125   -7.8603    0.0000 C   0  0  0  0  0  0  0  0  0  0  0  0
    5.4980   -7.4478    0.0000 C   0  0  2  0  0  0  0  0  0  0  0  0
    5.4980   -6.6228    0.0000 C   0  0  1  0  0  0  0  0  0  0  0  0
    6.2125   -6.2103    0.0000 C   0  0  1  0  0  0  0  0  0  0  0  0
    6.2125   -5.3853    0.0000 C   0  0  0  0  0  0  0  0  0  0  0  0
    4.7836   -7.8603    0.0000 O   0  0  0  0  0  0  0  0  0  0  0  0
    4.7836   -8.6853    0.0000 C   0  0  0  0  0  0  0  0  0  0  0  0
    4.7836   -6.2103    0.0000 O   0  0  0  0  0  0  0  0  0  0  0  0
    4.0691   -7.4478    0.0000 O   0  0  0  0  0  0  0  0  0  0  0  0
    4.0691   -6.6228    0.0000 C   0  0  2  0  0  0  0  0  0  0  0  0
    3.3546   -6.2103    0.0000 C   0  0  1  0  0  0  0  0  0  0  0  0
    2.6402   -6.6228    0.0000 C   0  0  1  0  0  0  0  0  0  0  0  0
    2.6402   -7.4478    0.0000 C   0  0  1  0  0  0  0  0  0  0  0  0
    3.3546   -7.8603    0.0000 C   0  0  1  0  0  0  0  0  0  0  0  0
    3.3546   -8.6853    0.0000 C   0  0  0  0  0  0  0  0  0  0  0  0
    1.9257   -6.2103    0.0000 O   0  0  0  0  0  0  0  0  0  0  0  0
    1.2112   -6.6228    0.0000 C   0  0  0  0  0  0  0  0  0  0  0  0
    1.9257   -7.8603    0.0000 O   0  0  0  0  0  0  0  0  0  0  0  0
    3.3546   -5.3853    0.0000 O   0  0  0  0  0  0  0  0  0  0  0  0
   12.4158   -3.7326    0.0000 O   0  0  0  0  0  0  0  0  0  0  0  0
   10.4993   -7.0353    0.0000 H   0  0  0  0  0  0  0  0  0  0  0  0
    9.7849   -8.2728    0.0000 H   0  0  0  0  0  0  0  0  0  0  0  0
  1  2  1  0  0  0  0
  3  4  1  1  0  0  0
  5  4  1  1  0  0  0
  5  6  1  0  0  0  0
  6  7  1  0  0  0  0
  7  8  1  0  0  0  0
  8  9  1  0  0  0  0
  9 10  1  0  0  0  0
 10 11  1  0  0  0  0
 11 12  1  0  0  0  0
 12 13  1  0  0  0  0
 13 14  1  0  0  0  0
 14 15  1  0  0  0  0
 15 16  1  0  0  0  0
 16 17  1  0  0  0  0
 17 18  1  0  0  0  0
 18 19  1  0  0  0  0
 19 20  1  0  0  0  0
  3 20  1  0  0  0  0
  3 12  1  0  0  0  0
 13 18  1  0  0  0  0
  5  9  1  0  0  0  0
  3  5  1  0  0  0  0
 13 21  1  1  0  0  0
  9 22  1  1  0  0  0
 11 23  1  6  0  0  0
 10 24  1  1  0  0  0
 26 27  1  0  0  0  0
 27 28  1  0  0  0  0
 28 29  1  0  0  0  0
 29 30  1  0  0  0  0
 30 31  1  0  0  0  0
 26 31  1  0  0  0  0
 31 32  1  1  0  0  0
 33 34  1  0  0  0  0
 29 33  1  1  0  0  0
 36 37  1  0  0  0  0
 37 38  1  0  0  0  0
 38 39  1  0  0  0  0
 39 40  1  0  0  0  0
 40 41  1  0  0  0  0
 36 41  1  0  0  0  0
 41 42  1  6  0  0  0
 43 44  1  0  0  0  0
 39 43  1  1  0  0  0
 40 45  1  1  0  0  0
 38 46  1  1  0  0  0
 37 35  1  6  0  0  0
 30 35  1  6  0  0  0
 27 25  1  1  0  0  0
 16 25  1  1  0  0  0
  8  1  1  1  0  0  0
  1 47  2  0  0  0  0
 12 48  1  6  0  0  0
 18 49  1  6  0  0  0
M  END
>  <cdx:groupId>
155

>  <cdx:fragmentId>
9

$$$$
