24.cdx
  Mrv1902 05222410262D          

 52 57  0  0  0  0            999 V2000
   14.3748  -10.3586    0.0000 C   0  0  0  0  0  0  0  0  0  0  0  0
   14.3748  -11.1836    0.0000 C   0  0  1  0  0  0  0  0  0  0  0  0
   15.0892  -11.5961    0.0000 C   0  0  0  0  0  0  0  0  0  0  0  0
   15.8037  -11.1836    0.0000 C   0  0  2  0  0  0  0  0  0  0  0  0
   15.8037  -10.3586    0.0000 C   0  0  2  0  0  0  0  0  0  0  0  0
   15.0892   -9.9461    0.0000 C   0  0  0  0  0  0  0  0  0  0  0  0
   16.5182  -11.5961    0.0000 C   0  0  0  0  0  0  0  0  0  0  0  0
   17.2326  -11.1836    0.0000 C   0  0  0  0  0  0  0  0  0  0  0  0
   17.2326  -10.3586    0.0000 C   0  0  2  0  0  0  0  0  0  0  0  0
   16.5182   -9.9461    0.0000 C   0  0  2  0  0  0  0  0  0  0  0  0
   17.9471   -9.9461    0.0000 C   0  0  2  0  0  0  0  0  0  0  0  0
   17.9471   -9.1211    0.0000 C   0  0  2  0  0  0  0  0  0  0  0  0
   17.2326   -8.7086    0.0000 C   0  0  2  0  0  0  0  0  0  0  0  0
   16.5182   -9.1211    0.0000 C   0  0  0  0  0  0  0  0  0  0  0  0
   18.7317  -10.2011    0.0000 C   0  0  1  0  0  0  0  0  0  0  0  0
   19.2167   -9.5336    0.0000 C   0  0  2  0  0  0  0  0  0  0  0  0
   18.7317   -8.8662    0.0000 C   0  0  2  0  0  0  0  0  0  0  0  0
   18.9867   -8.0816    0.0000 C   0  0  0  0  0  0  0  0  0  0  0  0
   19.7936   -7.9101    0.0000 C   0  0  0  0  0  0  0  0  0  0  0  0
   18.4346   -7.4685    0.0000 C   0  0  0  0  0  0  0  0  0  0  0  0
   20.0486   -7.1254    0.0000 C   0  0  0  0  0  0  0  0  0  0  0  0
   18.6896   -6.6839    0.0000 O   0  0  0  0  0  0  0  0  0  0  0  0
   19.4965   -6.5123    0.0000 C   0  0  0  0  0  0  0  0  0  0  0  0
   19.7515   -5.7277    0.0000 O   0  0  0  0  0  0  0  0  0  0  0  0
   13.6603  -11.5961    0.0000 O   0  0  0  0  0  0  0  0  0  0  0  0
   15.8037   -9.5336    0.0000 C   0  0  0  0  0  0  0  0  0  0  0  0
   15.8037  -12.0086    0.0000 H   0  0  0  0  0  0  0  0  0  0  0  0
   17.2326   -7.8836    0.0000 H   0  0  0  0  0  0  0  0  0  0  0  0
   18.0333   -8.3007    0.0000 C   0  0  0  0  0  0  0  0  0  0  0  0
   20.0417   -9.5336    0.0000 H   0  0  0  0  0  0  0  0  0  0  0  0
   18.0333  -10.7666    0.0000 O   0  0  0  0  0  0  0  0  0  0  0  0
   15.0892   -9.1211    0.0000 O   0  0  0  0  0  0  0  0  0  0  0  0
   12.9458  -11.1836    0.0000 C   0  0  0  0  0  0  0  0  0  0  0  0
   12.2313  -11.5961    0.0000 C   0  0  0  0  0  0  0  0  0  0  0  0
   12.9458  -10.3586    0.0000 O   0  0  0  0  0  0  0  0  0  0  0  0
   11.5169  -11.1836    0.0000 C   0  0  0  0  0  0  0  0  0  0  0  0
   10.8024  -11.5961    0.0000 C   0  0  0  0  0  0  0  0  0  0  0  0
   10.0879  -11.1836    0.0000 N   0  0  0  0  0  0  0  0  0  0  0  0
   10.8024  -12.4211    0.0000 O   0  0  0  0  0  0  0  0  0  0  0  0
    9.3735  -11.5961    0.0000 C   0  0  2  0  0  0  0  0  0  0  0  0
    8.6590  -11.1836    0.0000 C   0  0  0  0  0  0  0  0  0  0  0  0
    7.9445  -11.5961    0.0000 O   0  0  0  0  0  0  0  0  0  0  0  0
    8.6590  -10.3586    0.0000 O   0  0  0  0  0  0  0  0  0  0  0  0
    9.3735  -12.4211    0.0000 C   0  0  0  0  0  0  0  0  0  0  0  0
    8.6590  -12.8336    0.0000 C   0  0  0  0  0  0  0  0  0  0  0  0
    8.6590  -13.6586    0.0000 C   0  0  0  0  0  0  0  0  0  0  0  0
    7.9445  -14.0711    0.0000 N   0  0  0  0  0  0  0  0  0  0  0  0
    7.9445  -14.8961    0.0000 C   0  0  0  0  0  0  0  0  0  0  0  0
    8.6590  -15.3086    0.0000 N   0  0  0  0  0  0  0  0  0  0  0  0
    7.2300  -15.3086    0.0000 N   0  0  0  0  0  0  0  0  0  0  0  0
   16.5182  -10.7711    0.0000 H   0  0  0  0  0  0  0  0  0  0  0  0
   17.2326   -9.5336    0.0000 H   0  0  0  0  0  0  0  0  0  0  0  0
  1  2  1  0  0  0  0
  2  3  1  0  0  0  0
  3  4  1  0  0  0  0
  4  5  1  0  0  0  0
  5  6  1  0  0  0  0
  6  1  1  0  0  0  0
  4  7  1  0  0  0  0
  7  8  1  0  0  0  0
  8  9  1  0  0  0  0
  9 10  1  0  0  0  0
 10  5  1  0  0  0  0
  9 11  1  0  0  0  0
 11 12  1  0  0  0  0
 12 13  1  0  0  0  0
 13 14  1  0  0  0  0
 14 10  1  0  0  0  0
 11 15  1  0  0  0  0
 15 16  1  0  0  0  0
 16 17  1  0  0  0  0
 17 12  1  0  0  0  0
 17 18  1  1  0  0  0
 18 19  1  0  0  0  0
 18 20  2  0  0  0  0
 19 21  2  0  0  0  0
 20 22  1  0  0  0  0
 21 23  1  0  0  0  0
 22 23  1  0  0  0  0
 23 24  2  0  0  0  0
  2 25  1  1  0  0  0
  5 26  1  1  0  0  0
  4 27  1  1  0  0  0
 13 28  1  1  0  0  0
 12 29  1  1  0  0  0
 16 30  1  1  0  0  0
 11 31  1  1  0  0  0
 15 31  1  1  0  0  0
 26 32  1  0  0  0  0
 25 33  1  0  0  0  0
 33 34  1  0  0  0  0
 33 35  2  0  0  0  0
 34 36  1  0  0  0  0
 36 37  1  0  0  0  0
 37 38  1  0  0  0  0
 37 39  2  0  0  0  0
 40 38  1  1  0  0  0
 40 41  1  0  0  0  0
 41 42  1  0  0  0  0
 41 43  2  0  0  0  0
 40 44  1  0  0  0  0
 44 45  1  0  0  0  0
 45 46  1  0  0  0  0
 46 47  1  0  0  0  0
 47 48  2  0  0  0  0
 48 49  1  0  0  0  0
 48 50  1  0  0  0  0
 10 51  1  6  0  0  0
  9 52  1  1  0  0  0
M  END
>  <cdx:fragmentId>
206

$$$$
