2400.cdx
  Mrv1902 05222410182D          

 50 52  0  0  0  0            999 V2000
    5.6608  -10.5211    0.0000 C   0  0  0  0  0  0  0  0  0  0  0  0
    5.6584  -11.3461    0.0000 C   0  0  0  0  0  0  0  0  0  0  0  0
    4.9428  -11.7565    0.0000 C   0  0  0  0  0  0  0  0  0  0  0  0
    4.9475  -10.1065    0.0000 O   0  0  0  0  0  0  0  0  0  0  0  0
    4.9404  -12.5815    0.0000 O   0  0  0  0  0  0  0  0  0  0  0  0
    4.2295  -11.3420    0.0000 O   0  0  0  0  0  0  0  0  0  0  0  0
    7.1095   -8.0558    0.0000 C   0  0  0  0  0  0  0  0  0  0  0  0
    6.3941   -7.6449    0.0000 C   0  0  2  0  0  0  0  0  0  0  0  0
    5.6806   -8.0591    0.0000 C   0  0  0  0  0  0  0  0  0  0  0  0
    5.6825   -8.8841    0.0000 C   0  0  2  0  0  0  0  0  0  0  0  0
    6.3979   -9.2949    0.0000 C   0  0  1  0  0  0  0  0  0  0  0  0
    7.1114   -8.8808    0.0000 C   0  0  2  0  0  0  0  0  0  0  0  0
    7.8269   -9.2917    0.0000 O   0  0  0  0  0  0  0  0  0  0  0  0
    6.3998  -10.1199    0.0000 O   0  0  0  0  0  0  0  0  0  0  0  0
    4.9690   -9.2982    0.0000 O   0  0  0  0  0  0  0  0  0  0  0  0
    6.8050   -6.9295    0.0000 C   0  0  0  0  0  0  0  0  0  0  0  0
    5.9800   -6.9314    0.0000 O   0  0  0  0  0  0  0  0  0  0  0  0
    6.3909   -6.2160    0.0000 O   0  0  0  0  0  0  0  0  0  0  0  0
    7.6300   -6.9276    0.0000 O   0  0  0  0  0  0  0  0  0  0  0  0
    2.7573   -3.9891    0.0000 C   0  0  0  0  0  0  0  0  0  0  0  0
    2.3316   -4.6957    0.0000 C   0  0  0  0  0  0  0  0  0  0  0  0
    2.7307   -5.4178    0.0000 C   0  0  0  0  0  0  0  0  0  0  0  0
    3.5555   -5.4332    0.0000 C   0  0  0  0  0  0  0  0  0  0  0  0
    3.9813   -4.7265    0.0000 C   0  0  0  0  0  0  0  0  0  0  0  0
    3.5822   -4.0045    0.0000 C   0  0  0  0  0  0  0  0  0  0  0  0
    2.3583   -3.2670    0.0000 O   0  0  0  0  0  0  0  0  0  0  0  0
    4.0080   -3.2979    0.0000 O   0  0  0  0  0  0  0  0  0  0  0  0
    3.9546   -6.1552    0.0000 C   0  0  0  0  0  0  0  0  0  0  0  0
    4.7795   -6.1706    0.0000 C   0  0  0  0  0  0  0  0  0  0  0  0
    5.1785   -6.8927    0.0000 C   0  0  0  0  0  0  0  0  0  0  0  0
    4.7528   -7.5993    0.0000 O   0  0  0  0  0  0  0  0  0  0  0  0
    4.2752   -8.8903    0.0000 C   0  0  0  0  0  0  0  0  0  0  0  0
    3.5607   -9.3028    0.0000 C   0  0  0  0  0  0  0  0  0  0  0  0
    2.8462   -8.8903    0.0000 C   0  0  0  0  0  0  0  0  0  0  0  0
    2.1318   -9.3029    0.0000 C   0  0  0  0  0  0  0  0  0  0  0  0
    1.4173   -8.8904    0.0000 O   0  0  0  0  0  0  0  0  0  0  0  0
    2.1318  -10.1279    0.0000 O   0  0  0  0  0  0  0  0  0  0  0  0
    4.2751   -8.0653    0.0000 O   0  0  0  0  0  0  0  0  0  0  0  0
   12.8232   -8.9366    0.0000 O   0  0  0  0  0  0  0  0  0  0  0  0
   12.8195  -10.5866    0.0000 O   0  0  0  0  0  0  0  0  0  0  0  0
   12.1078   -9.3475    0.0000 C   0  0  0  0  0  0  0  0  0  0  0  0
   11.3943   -8.9334    0.0000 C   0  0  0  0  0  0  0  0  0  0  0  0
   10.6789   -9.3443    0.0000 C   0  0  0  0  0  0  0  0  0  0  0  0
   10.6770  -10.1693    0.0000 C   0  0  0  0  0  0  0  0  0  0  0  0
   11.3905  -10.5834    0.0000 C   0  0  0  0  0  0  0  0  0  0  0  0
   12.1059  -10.1725    0.0000 C   0  0  0  0  0  0  0  0  0  0  0  0
    9.9653   -8.9302    0.0000 C   0  0  0  0  0  0  0  0  0  0  0  0
    9.2499   -9.3410    0.0000 C   0  0  0  0  0  0  0  0  0  0  0  0
    8.5364   -8.9269    0.0000 C   0  0  0  0  0  0  0  0  0  0  0  0
    8.5383   -8.1019    0.0000 O   0  0  0  0  0  0  0  0  0  0  0  0
  1 14  1  0  0  0  0
  1  2  1  0  0  0  0
  2  3  1  0  0  0  0
  1  4  2  0  0  0  0
  3  5  1  0  0  0  0
  3  6  2  0  0  0  0
  7  8  1  0  0  0  0
  8  9  1  0  0  0  0
  9 10  1  0  0  0  0
 10 11  1  0  0  0  0
 11 12  1  0  0  0  0
 12  7  1  0  0  0  0
 12 13  1  1  0  0  0
 11 14  1  1  0  0  0
 10 15  1  6  0  0  0
  8 16  1  0  0  0  0
  8 17  1  1  0  0  0
 16 18  1  0  0  0  0
 16 19  2  0  0  0  0
 20 21  2  0  0  0  0
 21 22  1  0  0  0  0
 22 23  2  0  0  0  0
 23 24  1  0  0  0  0
 24 25  2  0  0  0  0
 25 20  1  0  0  0  0
 20 26  1  0  0  0  0
 25 27  1  0  0  0  0
 23 28  1  0  0  0  0
 28 29  2  0  0  0  0
 29 30  1  0  0  0  0
 30 31  2  0  0  0  0
 30 17  1  0  0  0  0
 33 32  1  0  0  0  0
 34 33  1  0  0  0  0
 35 34  1  0  0  0  0
 36 35  1  0  0  0  0
 35 37  2  0  0  0  0
 32 38  2  0  0  0  0
 32 15  1  0  0  0  0
 41 39  1  0  0  0  0
 46 40  1  0  0  0  0
 41 46  1  0  0  0  0
 42 41  2  0  0  0  0
 43 42  1  0  0  0  0
 44 43  2  0  0  0  0
 45 44  1  0  0  0  0
 46 45  2  0  0  0  0
 43 47  1  0  0  0  0
 47 48  2  0  0  0  0
 48 49  1  0  0  0  0
 49 50  2  0  0  0  0
 49 13  1  0  0  0  0
M  END
>  <cdx:fragmentId>
5

$$$$
