240156.cdx
  Mrv1902 05222410192D          

 22 24  0  0  0  0            999 V2000
    4.7926   -9.3296    0.0000 H   0  0  0  0  0  0  0  0  0  0  0  0
    7.1891   -6.9652    0.0000 O   0  0  0  0  0  0  0  0  0  0  0  0
   10.7614   -9.0277    0.0000 O   0  0  0  0  0  0  0  0  0  0  0  0
   10.0470   -9.4402    0.0000 C   0  0  0  0  0  0  0  0  0  0  0  0
    3.5551   -8.6152    0.0000 O   0  0  0  0  0  0  0  0  0  0  0  0
    4.3801   -9.4402    0.0000 C   0  0  0  0  0  0  0  0  0  0  0  0
    4.3801   -8.6152    0.0000 C   0  0  0  0  0  0  0  0  0  0  0  0
    4.3801   -7.7902    0.0000 C   0  0  0  0  0  0  0  0  0  0  0  0
    8.6180   -6.9652    0.0000 O   0  0  0  0  0  0  0  0  0  0  0  0
    5.2051   -8.6152    0.0000 C   0  0  2  0  0  0  0  0  0  0  0  0
    5.6900   -7.9477    0.0000 C   0  0  0  0  0  0  0  0  0  0  0  0
    5.6900   -9.2826    0.0000 O   0  0  0  0  0  0  0  0  0  0  0  0
    8.6180   -9.4402    0.0000 O   0  0  0  0  0  0  0  0  0  0  0  0
    7.9036   -9.0277    0.0000 C   0  0  0  0  0  0  0  0  0  0  0  0
    7.1891   -9.4402    0.0000 C   0  0  0  0  0  0  0  0  0  0  0  0
    6.4746   -9.0277    0.0000 C   0  0  0  0  0  0  0  0  0  0  0  0
    6.4746   -8.2027    0.0000 C   0  0  0  0  0  0  0  0  0  0  0  0
    7.1891   -7.7902    0.0000 C   0  0  0  0  0  0  0  0  0  0  0  0
    7.9036   -8.2027    0.0000 C   0  0  0  0  0  0  0  0  0  0  0  0
    8.6180   -7.7902    0.0000 C   0  0  0  0  0  0  0  0  0  0  0  0
    9.3325   -8.2027    0.0000 C   0  0  0  0  0  0  0  0  0  0  0  0
    9.3325   -9.0277    0.0000 C   0  0  0  0  0  0  0  0  0  0  0  0
 10  1  1  1  0  0  0
 18  2  1  0  0  0  0
 22  4  1  0  0  0  0
  4  3  1  0  0  0  0
 10  7  1  0  0  0  0
  7  5  1  0  0  0  0
  7  6  1  0  0  0  0
  8  7  1  0  0  0  0
 20  9  2  0  0  0  0
 12 16  1  0  0  0  0
 11 17  1  0  0  0  0
 12 10  1  0  0  0  0
 11 10  1  0  0  0  0
 22 13  1  0  0  0  0
 14 13  1  0  0  0  0
 19 14  1  0  0  0  0
 15 14  2  0  0  0  0
 16 15  1  0  0  0  0
 17 16  2  0  0  0  0
 18 17  1  0  0  0  0
 19 18  2  0  0  0  0
 20 19  1  0  0  0  0
 21 20  1  0  0  0  0
 22 21  2  0  0  0  0
M  END
>  <cdx:fragmentId>
177006

$$$$
