240119.cdx
  Mrv1902 05222410212D          

 17 16  0  0  0  0            999 V2000
    5.7623   -7.7699    0.0000 C   0  0  0  0  0  0  0  0  0  0  0  0
    5.0478   -8.1824    0.0000 C   0  0  0  0  0  0  0  0  0  0  0  0
    4.3334   -7.7699    0.0000 C   0  0  0  0  0  0  0  0  0  0  0  0
    4.3334   -6.9449    0.0000 C   0  0  0  0  0  0  0  0  0  0  0  0
    5.7623   -6.9449    0.0000 O   0  0  0  0  0  0  0  0  0  0  0  0
    6.4768   -8.1824    0.0000 O   0  0  0  0  0  0  0  0  0  0  0  0
    3.6189   -8.1824    0.0000 C   0  0  0  0  0  0  0  0  0  0  0  0
    7.1913   -7.7699    0.0000 C   0  0  0  0  0  0  0  0  0  0  0  0
    7.9057   -8.1824    0.0000 C   0  0  0  0  0  0  0  0  0  0  0  0
    8.6202   -7.7699    0.0000 C   0  0  0  0  0  0  0  0  0  0  0  0
    9.3347   -8.1824    0.0000 C   0  0  0  0  0  0  0  0  0  0  0  0
   10.0491   -7.7699    0.0000 C   0  0  0  0  0  0  0  0  0  0  0  0
   10.7636   -8.1824    0.0000 C   0  0  0  0  0  0  0  0  0  0  0  0
   10.0491   -6.9449    0.0000 C   0  0  0  0  0  0  0  0  0  0  0  0
    7.1913   -8.5949    0.0000 C   0  0  0  0  0  0  0  0  0  0  0  0
    7.1913   -6.9449    0.0000 C   0  0  0  0  0  0  0  0  0  0  0  0
    6.4768   -6.5324    0.0000 C   0  0  0  0  0  0  0  0  0  0  0  0
  1  2  1  0  0  0  0
  2  3  1  0  0  0  0
  3  4  1  0  0  0  0
  1  5  2  0  0  0  0
  1  6  1  0  0  0  0
  3  7  1  0  0  0  0
  8  9  1  0  0  0  0
  9 10  1  0  0  0  0
 10 11  1  0  0  0  0
 11 12  2  0  0  0  0
 12 13  1  0  0  0  0
 12 14  1  0  0  0  0
  8 15  1  0  0  0  0
 16 17  2  0  0  0  0
  8 16  1  0  0  0  0
  6  8  1  0  0  0  0
M  END
>  <cdx:groupId>
4213

>  <cdx:fragmentId>
4180

$$$$
