24020.cdx
  Mrv1902 05222410192D          

  9  8  0  0  0  0            999 V2000
    4.5127   -2.8264    0.0000 C   0  0  0  0  0  0  0  0  0  0  0  0
    3.7983   -3.2389    0.0000 C   0  0  0  0  0  0  0  0  0  0  0  0
    3.0838   -2.8264    0.0000 C   0  0  0  0  0  0  0  0  0  0  0  0
    2.3693   -3.2389    0.0000 C   0  0  0  0  0  0  0  0  0  0  0  0
    4.5127   -2.0014    0.0000 O   0  0  0  0  0  0  0  0  0  0  0  0
    5.2272   -3.2389    0.0000 O   0  0  0  0  0  0  0  0  0  0  0  0
    3.7983   -4.0639    0.0000 C   0  0  0  0  0  0  0  0  0  0  0  0
    5.9417   -2.8264    0.0000 C   0  0  0  0  0  0  0  0  0  0  0  0
    6.6562   -3.2389    0.0000 C   0  0  0  0  0  0  0  0  0  0  0  0
  1  2  1  0  0  0  0
  2  3  1  0  0  0  0
  3  4  1  0  0  0  0
  1  5  2  0  0  0  0
  1  6  1  0  0  0  0
  2  7  1  0  0  0  0
  8  9  1  0  0  0  0
  6  8  1  0  0  0  0
M  END
>  <cdx:groupId>
28

>  <cdx:fragmentId>
5

$$$$
