2403.cdx
  Mrv1902 05222410192D          

 44 46  0  0  0  0            999 V2000
    5.1622  -10.8504    0.0000 C   0  0  0  0  0  0  0  0  0  0  0  0
    5.1693  -11.6753    0.0000 C   0  0  0  0  0  0  0  0  0  0  0  0
    4.4585  -12.0940    0.0000 C   0  0  0  0  0  0  0  0  0  0  0  0
    4.4656  -12.9190    0.0000 C   0  0  0  0  0  0  0  0  0  0  0  0
    3.7548  -13.3377    0.0000 O   0  0  0  0  0  0  0  0  0  0  0  0
    5.1837  -13.3253    0.0000 O   0  0  0  0  0  0  0  0  0  0  0  0
    4.4441  -10.4441    0.0000 O   0  0  0  0  0  0  0  0  0  0  0  0
    6.5528   -8.3858    0.0000 C   0  0  0  0  0  0  0  0  0  0  0  0
    5.8374   -7.9749    0.0000 C   0  0  2  0  0  0  0  0  0  0  0  0
    5.1238   -8.3891    0.0000 C   0  0  0  0  0  0  0  0  0  0  0  0
    5.1257   -9.2141    0.0000 C   0  0  2  0  0  0  0  0  0  0  0  0
    5.8411   -9.6249    0.0000 C   0  0  1  0  0  0  0  0  0  0  0  0
    6.5547   -9.2108    0.0000 C   0  0  2  0  0  0  0  0  0  0  0  0
    7.2701   -9.6217    0.0000 O   0  0  0  0  0  0  0  0  0  0  0  0
    5.8430  -10.4499    0.0000 O   0  0  0  0  0  0  0  0  0  0  0  0
    4.4122   -9.6282    0.0000 O   0  0  0  0  0  0  0  0  0  0  0  0
    6.2482   -7.2595    0.0000 C   0  0  0  0  0  0  0  0  0  0  0  0
    5.4232   -7.2614    0.0000 O   0  0  0  0  0  0  0  0  0  0  0  0
    5.8341   -6.5460    0.0000 O   0  0  0  0  0  0  0  0  0  0  0  0
    7.0732   -7.2576    0.0000 O   0  0  0  0  0  0  0  0  0  0  0  0
    2.2006   -4.3191    0.0000 C   0  0  0  0  0  0  0  0  0  0  0  0
    1.7748   -5.0257    0.0000 C   0  0  0  0  0  0  0  0  0  0  0  0
    2.1739   -5.7478    0.0000 C   0  0  0  0  0  0  0  0  0  0  0  0
    2.9987   -5.7632    0.0000 C   0  0  0  0  0  0  0  0  0  0  0  0
    3.4245   -5.0565    0.0000 C   0  0  0  0  0  0  0  0  0  0  0  0
    3.0254   -4.3345    0.0000 C   0  0  0  0  0  0  0  0  0  0  0  0
    1.8015   -3.5970    0.0000 O   0  0  0  0  0  0  0  0  0  0  0  0
    3.4512   -3.6279    0.0000 O   0  0  0  0  0  0  0  0  0  0  0  0
    3.3978   -6.4852    0.0000 C   0  0  0  0  0  0  0  0  0  0  0  0
    4.2227   -6.5006    0.0000 C   0  0  0  0  0  0  0  0  0  0  0  0
    4.6218   -7.2227    0.0000 C   0  0  0  0  0  0  0  0  0  0  0  0
    4.1960   -7.9293    0.0000 O   0  0  0  0  0  0  0  0  0  0  0  0
   12.2664   -9.2666    0.0000 O   0  0  0  0  0  0  0  0  0  0  0  0
   12.2627  -10.9166    0.0000 O   0  0  0  0  0  0  0  0  0  0  0  0
   11.5510   -9.6775    0.0000 C   0  0  0  0  0  0  0  0  0  0  0  0
   10.8375   -9.2634    0.0000 C   0  0  0  0  0  0  0  0  0  0  0  0
   10.1221   -9.6743    0.0000 C   0  0  0  0  0  0  0  0  0  0  0  0
   10.1202  -10.4993    0.0000 C   0  0  0  0  0  0  0  0  0  0  0  0
   10.8338  -10.9134    0.0000 C   0  0  0  0  0  0  0  0  0  0  0  0
   11.5492  -10.5025    0.0000 C   0  0  0  0  0  0  0  0  0  0  0  0
    9.4085   -9.2602    0.0000 C   0  0  0  0  0  0  0  0  0  0  0  0
    8.6931   -9.6710    0.0000 C   0  0  0  0  0  0  0  0  0  0  0  0
    7.9796   -9.2569    0.0000 C   0  0  0  0  0  0  0  0  0  0  0  0
    7.9815   -8.4319    0.0000 O   0  0  0  0  0  0  0  0  0  0  0  0
  1 15  1  0  0  0  0
  2  1  1  0  0  0  0
  3  2  2  0  0  0  0
  4  3  1  0  0  0  0
  5  4  1  0  0  0  0
  4  6  2  0  0  0  0
  1  7  2  0  0  0  0
  8  9  1  0  0  0  0
  9 10  1  0  0  0  0
 10 11  1  0  0  0  0
 11 12  1  0  0  0  0
 12 13  1  0  0  0  0
 13  8  1  0  0  0  0
 13 14  1  1  0  0  0
 12 15  1  1  0  0  0
 11 16  1  6  0  0  0
  9 17  1  0  0  0  0
  9 18  1  1  0  0  0
 17 19  1  0  0  0  0
 17 20  2  0  0  0  0
 21 22  2  0  0  0  0
 22 23  1  0  0  0  0
 23 24  2  0  0  0  0
 24 25  1  0  0  0  0
 25 26  2  0  0  0  0
 26 21  1  0  0  0  0
 21 27  1  0  0  0  0
 26 28  1  0  0  0  0
 24 29  1  0  0  0  0
 29 30  2  0  0  0  0
 30 31  1  0  0  0  0
 31 32  2  0  0  0  0
 31 18  1  0  0  0  0
 35 33  1  0  0  0  0
 40 34  1  0  0  0  0
 35 40  1  0  0  0  0
 36 35  2  0  0  0  0
 37 36  1  0  0  0  0
 38 37  2  0  0  0  0
 39 38  1  0  0  0  0
 40 39  2  0  0  0  0
 37 41  1  0  0  0  0
 41 42  2  0  0  0  0
 42 43  1  0  0  0  0
 43 44  2  0  0  0  0
 43 14  1  0  0  0  0
M  END
>  <cdx:fragmentId>
5

$$$$
