240392.cdx
  Mrv1902 05222410192D          

 18 20  0  0  0  0            999 V2000
    7.5089   -9.9760    0.0000 C   0  0  2  0  0  0  0  0  0  0  0  0
    7.7482  -10.7656    0.0000 C   0  0  2  0  0  0  0  0  0  0  0  0
    7.0712  -11.2371    0.0000 C   0  0  0  0  0  0  0  0  0  0  0  0
    6.4136  -10.7390    0.0000 C   0  0  0  0  0  0  0  0  0  0  0  0
    6.6841   -9.9596    0.0000 C   0  0  1  0  0  0  0  0  0  0  0  0
    6.1826   -9.3045    0.0000 C   0  0  0  0  0  0  0  0  0  0  0  0
    6.3822   -8.5040    0.0000 C   0  0  0  0  0  0  0  0  0  0  0  0
    7.1324   -8.1609    0.0000 C   0  0  2  0  0  0  0  0  0  0  0  0
    7.8685   -8.5336    0.0000 C   0  0  1  0  0  0  0  0  0  0  0  0
    8.0360   -9.3414    0.0000 C   0  0  0  0  0  0  0  0  0  0  0  0
    6.7970   -9.1761    0.0000 O   0  0  0  0  0  0  0  0  0  0  0  0
    7.1488   -7.3361    0.0000 O   0  0  0  0  0  0  0  0  0  0  0  0
    9.2854   -8.3488    0.0000 C   0  0  0  0  0  0  0  0  0  0  0  0
    8.5236   -8.0321    0.0000 C   0  0  0  0  0  0  0  0  0  0  0  0
    8.4169   -7.2141    0.0000 C   0  0  0  0  0  0  0  0  0  0  0  0
    5.3748   -9.4721    0.0000 C   0  0  0  0  0  0  0  0  0  0  0  0
    8.5276  -11.0361    0.0000 C   0  0  0  0  0  0  0  0  0  0  0  0
    5.8695  -10.0908    0.0000 H   0  0  0  0  0  0  0  0  0  0  0  0
  1  2  1  0  0  0  0
  2  3  1  0  0  0  0
  3  4  1  0  0  0  0
  4  5  1  0  0  0  0
  5  6  1  0  0  0  0
  6  7  1  0  0  0  0
  7  8  1  0  0  0  0
  8  9  1  0  0  0  0
  9 10  1  0  0  0  0
  1 10  1  0  0  0  0
  1 11  1  1  0  0  0
  8 11  1  0  0  0  0
  1  5  1  0  0  0  0
  8 12  1  1  0  0  0
 13 14  1  0  0  0  0
 14 15  1  0  0  0  0
  9 14  1  6  0  0  0
  6 16  2  0  0  0  0
  2 17  1  1  0  0  0
  5 18  1  6  0  0  0
M  END
>  <cdx:fragmentId>
113541

$$$$
