240413.cdx
  Mrv1902 05222410272D          

 77 83  0  0  0  0            999 V2000
    8.9604   -5.6950    0.0000 C   0  0  0  0  0  0  0  0  0  0  0  0
    9.5124   -6.3081    0.0000 C   0  0  0  0  0  0  0  0  0  0  0  0
    9.2575   -7.0928    0.0000 C   0  0  0  0  0  0  0  0  0  0  0  0
    8.4505   -7.2643    0.0000 C   0  0  0  0  0  0  0  0  0  0  0  0
    7.8985   -6.6512    0.0000 C   0  0  0  0  0  0  0  0  0  0  0  0
    8.1534   -5.8666    0.0000 C   0  0  0  0  0  0  0  0  0  0  0  0
    9.2153   -4.9104    0.0000 O   0  0  0  0  0  0  0  0  0  0  0  0
    9.8095   -7.7058    0.0000 O   0  0  0  0  0  0  0  0  0  0  0  0
   10.8714   -6.7497    0.0000 O   0  0  0  0  0  0  0  0  0  0  0  0
   10.3194   -6.1366    0.0000 C   0  0  2  0  0  0  0  0  0  0  0  0
   10.5743   -5.3520    0.0000 C   0  0  1  0  0  0  0  0  0  0  0  0
   11.3813   -5.1805    0.0000 C   0  0  2  0  0  0  0  0  0  0  0  0
   11.9333   -5.7935    0.0000 C   0  0  1  0  0  0  0  0  0  0  0  0
   11.6784   -6.5782    0.0000 C   0  0  1  0  0  0  0  0  0  0  0  0
   12.2304   -7.1913    0.0000 C   0  0  0  0  0  0  0  0  0  0  0  0
   13.0374   -7.0197    0.0000 O   0  0  0  0  0  0  0  0  0  0  0  0
   12.7403   -5.6220    0.0000 O   0  0  0  0  0  0  0  0  0  0  0  0
   11.6362   -4.3958    0.0000 O   0  0  0  0  0  0  0  0  0  0  0  0
   10.0223   -4.7389    0.0000 O   0  0  0  0  0  0  0  0  0  0  0  0
    7.6014   -5.2535    0.0000 C   0  0  0  0  0  0  0  0  0  0  0  0
    6.7944   -5.4250    0.0000 C   0  0  0  0  0  0  0  0  0  0  0  0
    6.2424   -4.8119    0.0000 C   0  0  0  0  0  0  0  0  0  0  0  0
    5.4354   -4.9834    0.0000 C   0  0  0  0  0  0  0  0  0  0  0  0
    5.1805   -5.7680    0.0000 C   0  0  0  0  0  0  0  0  0  0  0  0
    4.3735   -5.9396    0.0000 C   0  0  0  0  0  0  0  0  0  0  0  0
    3.8215   -5.3265    0.0000 C   0  0  0  0  0  0  0  0  0  0  0  0
    4.0764   -4.5419    0.0000 C   0  0  0  0  0  0  0  0  0  0  0  0
    4.8834   -4.3703    0.0000 C   0  0  0  0  0  0  0  0  0  0  0  0
    3.0145   -5.4980    0.0000 O   0  0  0  0  0  0  0  0  0  0  0  0
    7.8563   -4.4688    0.0000 O   0  0  0  0  0  0  0  0  0  0  0  0
    7.0915   -6.8227    0.0000 O   0  0  0  0  0  0  0  0  0  0  0  0
    9.7674   -5.5235    0.0000 O   0  0  0  0  0  0  0  0  0  0  0  0
    8.1191   -9.6192    0.0000 O   0  0  0  0  0  0  0  0  0  0  0  0
    8.6040   -8.9517    0.0000 C   0  0  1  0  0  0  0  0  0  0  0  0
    8.1191   -8.2843    0.0000 C   0  0  0  0  0  0  0  0  0  0  0  0
    7.3345   -8.5392    0.0000 C   0  0  0  0  0  0  0  0  0  0  0  0
    6.6200   -8.1267    0.0000 C   0  0  0  0  0  0  0  0  0  0  0  0
    5.9055   -8.5392    0.0000 C   0  0  0  0  0  0  0  0  0  0  0  0
    5.9055   -9.3642    0.0000 C   0  0  0  0  0  0  0  0  0  0  0  0
    6.6200   -9.7767    0.0000 C   0  0  0  0  0  0  0  0  0  0  0  0
    7.3345   -9.3642    0.0000 C   0  0  0  0  0  0  0  0  0  0  0  0
    5.9055  -11.0142    0.0000 O   0  0  0  0  0  0  0  0  0  0  0  0
    6.6200  -10.6017    0.0000 C   0  0  2  0  0  0  0  0  0  0  0  0
    7.3345  -11.0142    0.0000 C   0  0  1  0  0  0  0  0  0  0  0  0
    7.3345  -11.8392    0.0000 C   0  0  2  0  0  0  0  0  0  0  0  0
    6.6200  -12.2517    0.0000 C   0  0  1  0  0  0  0  0  0  0  0  0
    5.9055  -11.8392    0.0000 C   0  0  1  0  0  0  0  0  0  0  0  0
    5.1911  -12.2517    0.0000 C   0  0  0  0  0  0  0  0  0  0  0  0
    5.1911  -13.0767    0.0000 O   0  0  0  0  0  0  0  0  0  0  0  0
    6.6200  -13.0767    0.0000 O   0  0  0  0  0  0  0  0  0  0  0  0
    8.0489  -12.2517    0.0000 O   0  0  0  0  0  0  0  0  0  0  0  0
    8.0489  -10.6017    0.0000 O   0  0  0  0  0  0  0  0  0  0  0  0
    9.4290   -8.9517    0.0000 C   0  0  2  0  0  0  0  0  0  0  0  0
    9.8415   -9.6662    0.0000 C   0  0  1  0  0  0  0  0  0  0  0  0
   10.6665   -9.6662    0.0000 C   0  0  1  0  0  0  0  0  0  0  0  0
   11.0790  -10.3807    0.0000 C   0  0  0  0  0  0  0  0  0  0  0  0
   11.9040  -10.3807    0.0000 O   0  0  0  0  0  0  0  0  0  0  0  0
   11.0790   -8.9517    0.0000 O   0  0  0  0  0  0  0  0  0  0  0  0
    9.4290  -10.3807    0.0000 O   0  0  0  0  0  0  0  0  0  0  0  0
    9.8415   -8.2373    0.0000 O   0  0  0  0  0  0  0  0  0  0  0  0
    5.1911   -9.7767    0.0000 O   0  0  0  0  0  0  0  0  0  0  0  0
    5.1911   -8.1267    0.0000 C   0  0  0  0  0  0  0  0  0  0  0  0
    4.4766   -8.5392    0.0000 C   0  0  0  0  0  0  0  0  0  0  0  0
    3.7621   -8.1267    0.0000 C   0  0  0  0  0  0  0  0  0  0  0  0
    5.1911   -7.3017    0.0000 O   0  0  0  0  0  0  0  0  0  0  0  0
    3.0476   -8.5392    0.0000 C   0  0  0  0  0  0  0  0  0  0  0  0
    3.0476   -9.3642    0.0000 C   0  0  0  0  0  0  0  0  0  0  0  0
    2.3332   -9.7767    0.0000 C   0  0  0  0  0  0  0  0  0  0  0  0
    1.6187   -9.3642    0.0000 C   0  0  0  0  0  0  0  0  0  0  0  0
    1.6187   -8.5392    0.0000 C   0  0  0  0  0  0  0  0  0  0  0  0
    2.3332   -8.1267    0.0000 C   0  0  0  0  0  0  0  0  0  0  0  0
    0.9042   -9.7767    0.0000 O   0  0  0  0  0  0  0  0  0  0  0  0
    7.3345  -10.1892    0.0000 O   0  0  0  0  0  0  0  0  0  0  0  0
    6.6200   -7.3017    0.0000 O   0  0  0  0  0  0  0  0  0  0  0  0
    5.8231  -10.3882    0.0000 H   0  0  0  0  0  0  0  0  0  0  0  0
   10.1059   -6.9335    0.0000 H   0  0  0  0  0  0  0  0  0  0  0  0
    9.0165   -9.6662    0.0000 H   0  0  0  0  0  0  0  0  0  0  0  0
  1  2  1  0  0  0  0
  2  3  1  0  0  0  0
  3  4  1  0  0  0  0
  4  5  2  0  0  0  0
  5  6  1  0  0  0  0
  1  6  1  0  0  0  0
  1  7  2  0  0  0  0
  3  8  2  0  0  0  0
 10  9  1  0  0  0  0
 10 11  1  0  0  0  0
 11 12  1  0  0  0  0
 12 13  1  0  0  0  0
 13 14  1  0  0  0  0
  9 14  1  0  0  0  0
 15 16  1  0  0  0  0
 14 15  1  1  0  0  0
 13 17  1  6  0  0  0
 12 18  1  1  0  0  0
 11 19  1  6  0  0  0
  2 10  1  0  0  0  0
 20 21  1  0  0  0  0
 21 22  2  0  0  0  0
 23 24  1  0  0  0  0
 24 25  2  0  0  0  0
 25 26  1  0  0  0  0
 26 27  2  0  0  0  0
 27 28  1  0  0  0  0
 23 28  2  0  0  0  0
 26 29  1  0  0  0  0
 22 23  1  0  0  0  0
 20 30  1  0  0  0  0
  6 20  2  0  0  0  0
  5 31  1  0  0  0  0
  2 32  1  0  0  0  0
 34 33  1  0  0  0  0
 34 35  1  0  0  0  0
 35 36  1  0  0  0  0
 36 37  1  0  0  0  0
 37 38  2  0  0  0  0
 38 39  1  0  0  0  0
 39 40  1  0  0  0  0
 40 41  1  0  0  0  0
 36 41  2  0  0  0  0
 33 41  1  0  0  0  0
 43 42  1  0  0  0  0
 43 44  1  0  0  0  0
 44 45  1  0  0  0  0
 45 46  1  0  0  0  0
 46 47  1  0  0  0  0
 42 47  1  0  0  0  0
 48 49  1  0  0  0  0
 47 48  1  1  0  0  0
 46 50  1  6  0  0  0
 45 51  1  1  0  0  0
 44 52  1  6  0  0  0
 40 43  1  0  0  0  0
 53 54  1  0  0  0  0
 54 55  1  0  0  0  0
 55 56  1  0  0  0  0
 56 57  1  0  0  0  0
 55 58  1  6  0  0  0
 54 59  1  1  0  0  0
 53 60  1  1  0  0  0
 34 53  1  0  0  0  0
 39 61  2  0  0  0  0
 62 63  1  0  0  0  0
 63 64  2  0  0  0  0
 62 65  2  0  0  0  0
 66 67  1  0  0  0  0
 67 68  2  0  0  0  0
 68 69  1  0  0  0  0
 69 70  2  0  0  0  0
 70 71  1  0  0  0  0
 66 71  2  0  0  0  0
 69 72  1  0  0  0  0
 64 66  1  0  0  0  0
 38 62  1  0  0  0  0
 40 73  1  0  0  0  0
 37 74  1  0  0  0  0
  4 35  1  0  0  0  0
 43 75  1  6  0  0  0
 10 76  1  6  0  0  0
 34 77  1  6  0  0  0
M  END
>  <cdx:groupId>
32316

>  <cdx:fragmentId>
32171

$$$$
