2404.cdx
  Mrv1902 05222410202D          

 43 45  0  0  0  0            999 V2000
    5.1632  -10.4661    0.0000 C   0  0  0  0  0  0  0  0  0  0  0  0
    5.1609  -11.2911    0.0000 C   0  0  0  0  0  0  0  0  0  0  0  0
    4.4452  -11.7015    0.0000 C   0  0  0  0  0  0  0  0  0  0  0  0
    4.4499  -10.0515    0.0000 O   0  0  0  0  0  0  0  0  0  0  0  0
    4.4429  -12.5265    0.0000 O   0  0  0  0  0  0  0  0  0  0  0  0
    3.7319  -11.2870    0.0000 O   0  0  0  0  0  0  0  0  0  0  0  0
    6.6120   -8.0008    0.0000 C   0  0  0  0  0  0  0  0  0  0  0  0
    5.8966   -7.5899    0.0000 C   0  0  1  0  0  0  0  0  0  0  0  0
    5.1831   -8.0041    0.0000 C   0  0  0  0  0  0  0  0  0  0  0  0
    5.1850   -8.8291    0.0000 C   0  0  2  0  0  0  0  0  0  0  0  0
    5.9004   -9.2399    0.0000 C   0  0  1  0  0  0  0  0  0  0  0  0
    6.6139   -8.8258    0.0000 C   0  0  2  0  0  0  0  0  0  0  0  0
    7.3293   -9.2367    0.0000 O   0  0  0  0  0  0  0  0  0  0  0  0
    5.9023  -10.0649    0.0000 O   0  0  0  0  0  0  0  0  0  0  0  0
    4.4714   -9.2432    0.0000 O   0  0  0  0  0  0  0  0  0  0  0  0
    5.4825   -6.8764    0.0000 O   0  0  0  0  0  0  0  0  0  0  0  0
    5.8933   -6.1610    0.0000 O   0  0  0  0  0  0  0  0  0  0  0  0
    7.1325   -6.8726    0.0000 O   0  0  0  0  0  0  0  0  0  0  0  0
    6.3075   -6.8745    0.0000 C   0  0  0  0  0  0  0  0  0  0  0  0
    2.2598   -3.9341    0.0000 C   0  0  0  0  0  0  0  0  0  0  0  0
    1.8340   -4.6407    0.0000 C   0  0  0  0  0  0  0  0  0  0  0  0
    2.2331   -5.3628    0.0000 C   0  0  0  0  0  0  0  0  0  0  0  0
    3.0580   -5.3782    0.0000 C   0  0  0  0  0  0  0  0  0  0  0  0
    3.4838   -4.6715    0.0000 C   0  0  0  0  0  0  0  0  0  0  0  0
    3.0847   -3.9495    0.0000 C   0  0  0  0  0  0  0  0  0  0  0  0
    1.8607   -3.2120    0.0000 O   0  0  0  0  0  0  0  0  0  0  0  0
    3.5104   -3.2429    0.0000 O   0  0  0  0  0  0  0  0  0  0  0  0
    3.4571   -6.1002    0.0000 C   0  0  0  0  0  0  0  0  0  0  0  0
    4.2819   -6.1156    0.0000 C   0  0  0  0  0  0  0  0  0  0  0  0
    4.6810   -6.8377    0.0000 C   0  0  0  0  0  0  0  0  0  0  0  0
    4.2552   -7.5443    0.0000 O   0  0  0  0  0  0  0  0  0  0  0  0
   12.3257   -8.8816    0.0000 O   0  0  0  0  0  0  0  0  0  0  0  0
   12.3219  -10.5316    0.0000 O   0  0  0  0  0  0  0  0  0  0  0  0
   11.6103   -9.2925    0.0000 C   0  0  0  0  0  0  0  0  0  0  0  0
   10.8967   -8.8784    0.0000 C   0  0  0  0  0  0  0  0  0  0  0  0
   10.1813   -9.2893    0.0000 C   0  0  0  0  0  0  0  0  0  0  0  0
   10.1795  -10.1143    0.0000 C   0  0  0  0  0  0  0  0  0  0  0  0
   10.8930  -10.5284    0.0000 C   0  0  0  0  0  0  0  0  0  0  0  0
   11.6084  -10.1175    0.0000 C   0  0  0  0  0  0  0  0  0  0  0  0
    9.4678   -8.8752    0.0000 C   0  0  0  0  0  0  0  0  0  0  0  0
    8.7524   -9.2860    0.0000 C   0  0  0  0  0  0  0  0  0  0  0  0
    8.0388   -8.8719    0.0000 C   0  0  0  0  0  0  0  0  0  0  0  0
    8.0407   -8.0469    0.0000 O   0  0  0  0  0  0  0  0  0  0  0  0
  1 14  1  0  0  0  0
  1  2  1  0  0  0  0
  2  3  1  0  0  0  0
  1  4  2  0  0  0  0
  3  5  1  0  0  0  0
  3  6  2  0  0  0  0
  7  8  1  0  0  0  0
  8  9  1  0  0  0  0
  9 10  1  0  0  0  0
 10 11  1  0  0  0  0
 11 12  1  0  0  0  0
 12  7  1  0  0  0  0
 12 13  1  1  0  0  0
 11 14  1  1  0  0  0
 10 15  1  6  0  0  0
 19 17  2  0  0  0  0
  8 19  1  0  0  0  0
  8 16  1  1  0  0  0
 19 18  1  0  0  0  0
 20 21  2  0  0  0  0
 21 22  1  0  0  0  0
 22 23  2  0  0  0  0
 23 24  1  0  0  0  0
 24 25  2  0  0  0  0
 25 20  1  0  0  0  0
 20 26  1  0  0  0  0
 25 27  1  0  0  0  0
 23 28  1  0  0  0  0
 28 29  2  0  0  0  0
 29 30  1  0  0  0  0
 30 31  2  0  0  0  0
 30 16  1  0  0  0  0
 34 32  1  0  0  0  0
 39 33  1  0  0  0  0
 34 39  1  0  0  0  0
 35 34  2  0  0  0  0
 36 35  1  0  0  0  0
 37 36  2  0  0  0  0
 38 37  1  0  0  0  0
 39 38  2  0  0  0  0
 36 40  1  0  0  0  0
 40 41  2  0  0  0  0
 41 42  1  0  0  0  0
 42 43  2  0  0  0  0
 42 13  1  0  0  0  0
M  END
>  <cdx:fragmentId>
5

$$$$
