240548.cdx
  Mrv1902 05222410262D          

 15 16  0  0  0  0            999 V2000
   15.1115  -11.9223    0.0000 N   0  0  0  0  0  0  0  0  0  0  0  0
   14.3970  -12.3348    0.0000 C   0  0  0  0  0  0  0  0  0  0  0  0
   14.3970  -13.1598    0.0000 C   0  0  0  0  0  0  0  0  0  0  0  0
   13.6826  -13.5723    0.0000 C   0  0  0  0  0  0  0  0  0  0  0  0
   12.9681  -13.1598    0.0000 C   0  0  0  0  0  0  0  0  0  0  0  0
   12.9681  -12.3348    0.0000 C   0  0  0  0  0  0  0  0  0  0  0  0
   13.6826  -11.9223    0.0000 C   0  0  0  0  0  0  0  0  0  0  0  0
   15.1115  -13.5723    0.0000 O   0  0  0  0  0  0  0  0  0  0  0  0
   15.8260  -13.1598    0.0000 C   0  0  0  0  0  0  0  0  0  0  0  0
   16.5405  -13.5723    0.0000 C   0  0  0  0  0  0  0  0  0  0  0  0
   17.2549  -13.1598    0.0000 C   0  0  0  0  0  0  0  0  0  0  0  0
   17.9694  -13.5723    0.0000 C   0  0  0  0  0  0  0  0  0  0  0  0
   17.9694  -14.3973    0.0000 C   0  0  0  0  0  0  0  0  0  0  0  0
   17.2549  -14.8098    0.0000 C   0  0  0  0  0  0  0  0  0  0  0  0
   16.5405  -14.3973    0.0000 C   0  0  0  0  0  0  0  0  0  0  0  0
  1  2  1  0  0  0  0
  2  3  1  0  0  0  0
  3  4  2  0  0  0  0
  4  5  1  0  0  0  0
  5  6  2  0  0  0  0
  6  7  1  0  0  0  0
  2  7  2  0  0  0  0
  9 10  1  0  0  0  0
 10 11  1  0  0  0  0
 11 12  2  0  0  0  0
 12 13  1  0  0  0  0
 13 14  2  0  0  0  0
 14 15  1  0  0  0  0
 10 15  2  0  0  0  0
  8  9  1  0  0  0  0
  3  8  1  0  0  0  0
M  END
>  <cdx:groupId>
4264

>  <cdx:fragmentId>
4237

$$$$
