2405.cdx
  Mrv1902 05222410202D          

 44 46  0  0  0  0            999 V2000
    4.9157  -10.5486    0.0000 C   0  0  0  0  0  0  0  0  0  0  0  0
    4.9134  -11.3736    0.0000 C   0  0  0  0  0  0  0  0  0  0  0  0
    4.1977  -11.7840    0.0000 C   0  0  0  0  0  0  0  0  0  0  0  0
    4.2024  -10.1340    0.0000 O   0  0  0  0  0  0  0  0  0  0  0  0
    4.1954  -12.6090    0.0000 C   0  0  0  0  0  0  0  0  0  0  0  0
    3.4798  -13.0195    0.0000 O   0  0  0  0  0  0  0  0  0  0  0  0
    4.9087  -13.0236    0.0000 O   0  0  0  0  0  0  0  0  0  0  0  0
    6.3645   -8.0833    0.0000 C   0  0  0  0  0  0  0  0  0  0  0  0
    5.6491   -7.6724    0.0000 C   0  0  1  0  0  0  0  0  0  0  0  0
    4.9356   -8.0866    0.0000 C   0  0  0  0  0  0  0  0  0  0  0  0
    4.9375   -8.9116    0.0000 C   0  0  2  0  0  0  0  0  0  0  0  0
    5.6529   -9.3224    0.0000 C   0  0  1  0  0  0  0  0  0  0  0  0
    6.3664   -8.9083    0.0000 C   0  0  2  0  0  0  0  0  0  0  0  0
    7.0818   -9.3192    0.0000 O   0  0  0  0  0  0  0  0  0  0  0  0
    5.6548  -10.1474    0.0000 O   0  0  0  0  0  0  0  0  0  0  0  0
    4.2239   -9.3257    0.0000 O   0  0  0  0  0  0  0  0  0  0  0  0
    5.2350   -6.9589    0.0000 O   0  0  0  0  0  0  0  0  0  0  0  0
    5.6458   -6.2435    0.0000 O   0  0  0  0  0  0  0  0  0  0  0  0
    6.8850   -6.9551    0.0000 O   0  0  0  0  0  0  0  0  0  0  0  0
    6.0600   -6.9570    0.0000 C   0  0  0  0  0  0  0  0  0  0  0  0
    2.0123   -4.0166    0.0000 C   0  0  0  0  0  0  0  0  0  0  0  0
    1.5865   -4.7232    0.0000 C   0  0  0  0  0  0  0  0  0  0  0  0
    1.9856   -5.4453    0.0000 C   0  0  0  0  0  0  0  0  0  0  0  0
    2.8105   -5.4607    0.0000 C   0  0  0  0  0  0  0  0  0  0  0  0
    3.2363   -4.7540    0.0000 C   0  0  0  0  0  0  0  0  0  0  0  0
    2.8372   -4.0320    0.0000 C   0  0  0  0  0  0  0  0  0  0  0  0
    1.6132   -3.2945    0.0000 O   0  0  0  0  0  0  0  0  0  0  0  0
    3.2629   -3.3254    0.0000 O   0  0  0  0  0  0  0  0  0  0  0  0
    3.2096   -6.1827    0.0000 C   0  0  0  0  0  0  0  0  0  0  0  0
    4.0344   -6.1981    0.0000 C   0  0  0  0  0  0  0  0  0  0  0  0
    4.4335   -6.9202    0.0000 C   0  0  0  0  0  0  0  0  0  0  0  0
    4.0077   -7.6268    0.0000 O   0  0  0  0  0  0  0  0  0  0  0  0
   12.0782   -8.9641    0.0000 O   0  0  0  0  0  0  0  0  0  0  0  0
   12.0744  -10.6141    0.0000 O   0  0  0  0  0  0  0  0  0  0  0  0
   11.3628   -9.3750    0.0000 C   0  0  0  0  0  0  0  0  0  0  0  0
   10.6492   -8.9609    0.0000 C   0  0  0  0  0  0  0  0  0  0  0  0
    9.9338   -9.3718    0.0000 C   0  0  0  0  0  0  0  0  0  0  0  0
    9.9320  -10.1968    0.0000 C   0  0  0  0  0  0  0  0  0  0  0  0
   10.6455  -10.6109    0.0000 C   0  0  0  0  0  0  0  0  0  0  0  0
   11.3609  -10.2000    0.0000 C   0  0  0  0  0  0  0  0  0  0  0  0
    9.2203   -8.9577    0.0000 C   0  0  0  0  0  0  0  0  0  0  0  0
    8.5049   -9.3685    0.0000 C   0  0  0  0  0  0  0  0  0  0  0  0
    7.7913   -8.9544    0.0000 C   0  0  0  0  0  0  0  0  0  0  0  0
    7.7932   -8.1294    0.0000 O   0  0  0  0  0  0  0  0  0  0  0  0
  1 15  1  0  0  0  0
  1  2  1  0  0  0  0
  2  3  1  0  0  0  0
  1  4  2  0  0  0  0
  5  6  1  0  0  0  0
  5  7  2  0  0  0  0
  3  5  1  0  0  0  0
  8  9  1  0  0  0  0
  9 10  1  0  0  0  0
 10 11  1  0  0  0  0
 11 12  1  0  0  0  0
 12 13  1  0  0  0  0
 13  8  1  0  0  0  0
 13 14  1  1  0  0  0
 12 15  1  1  0  0  0
 11 16  1  6  0  0  0
 20 18  2  0  0  0  0
  9 20  1  0  0  0  0
  9 17  1  1  0  0  0
 20 19  1  0  0  0  0
 21 22  2  0  0  0  0
 22 23  1  0  0  0  0
 23 24  2  0  0  0  0
 24 25  1  0  0  0  0
 25 26  2  0  0  0  0
 26 21  1  0  0  0  0
 21 27  1  0  0  0  0
 26 28  1  0  0  0  0
 24 29  1  0  0  0  0
 29 30  2  0  0  0  0
 30 31  1  0  0  0  0
 31 32  2  0  0  0  0
 31 17  1  0  0  0  0
 35 33  1  0  0  0  0
 40 34  1  0  0  0  0
 35 40  1  0  0  0  0
 36 35  2  0  0  0  0
 37 36  1  0  0  0  0
 38 37  2  0  0  0  0
 39 38  1  0  0  0  0
 40 39  2  0  0  0  0
 37 41  1  0  0  0  0
 41 42  2  0  0  0  0
 42 43  1  0  0  0  0
 43 44  2  0  0  0  0
 43 14  1  0  0  0  0
M  END
>  <cdx:fragmentId>
5

$$$$
