11240776.cdx
  Mrv1902 05222410262D          

 13 14  0  0  0  0            999 V2000
    8.9795  -14.4369    0.0000 C   0  0  0  0  0  0  0  0  0  0  0  0
    8.9795  -15.2619    0.0000 C   0  0  0  0  0  0  0  0  0  0  0  0
    8.2650  -15.6744    0.0000 C   0  0  0  0  0  0  0  0  0  0  0  0
    7.5505  -15.2619    0.0000 C   0  0  0  0  0  0  0  0  0  0  0  0
    6.8361  -15.6744    0.0000 C   0  0  0  0  0  0  0  0  0  0  0  0
    6.1216  -15.2619    0.0000 C   0  0  0  0  0  0  0  0  0  0  0  0
    6.1216  -14.4369    0.0000 C   0  0  0  0  0  0  0  0  0  0  0  0
    6.8361  -14.0244    0.0000 C   0  0  0  0  0  0  0  0  0  0  0  0
    7.5505  -14.4369    0.0000 C   0  0  0  0  0  0  0  0  0  0  0  0
    8.2650  -14.0244    0.0000 O   0  0  0  0  0  0  0  0  0  0  0  0
    9.6940  -14.0244    0.0000 O   0  0  0  0  0  0  0  0  0  0  0  0
    5.4071  -15.6744    0.0000 O   0  0  0  0  0  0  0  0  0  0  0  0
    4.6927  -15.2619    0.0000 C   0  0  0  0  0  0  0  0  0  0  0  0
  1  2  1  0  0  0  0
  2  3  2  0  0  0  0
  3  4  1  0  0  0  0
  4  5  1  0  0  0  0
  5  6  2  0  0  0  0
  6  7  1  0  0  0  0
  7  8  2  0  0  0  0
  8  9  1  0  0  0  0
  4  9  2  0  0  0  0
  9 10  1  0  0  0  0
  1 10  1  0  0  0  0
  1 11  2  0  0  0  0
 12 13  1  0  0  0  0
  6 12  1  0  0  0  0
M  END
>  <cdx:groupId>
68301

>  <cdx:fragmentId>
68264

$$$$
