24117.cdx
  Mrv1902 05222410242D          

 14 14  0  0  0  0            999 V2000
    7.6922   -5.3691    0.0000 C   0  0  0  0  0  0  0  0  0  0  0  0
    6.9777   -5.7816    0.0000 C   0  0  0  0  0  0  0  0  0  0  0  0
    7.6922   -4.5441    0.0000 O   0  0  0  0  0  0  0  0  0  0  0  0
    8.4066   -5.7816    0.0000 O   0  0  0  0  0  0  0  0  0  0  0  0
    6.2632   -5.3691    0.0000 O   0  0  0  0  0  0  0  0  0  0  0  0
    5.5488   -5.7816    0.0000 C   0  0  0  0  0  0  0  0  0  0  0  0
    5.5488   -6.6066    0.0000 C   0  0  0  0  0  0  0  0  0  0  0  0
    4.8343   -7.0191    0.0000 C   0  0  0  0  0  0  0  0  0  0  0  0
    4.1198   -6.6066    0.0000 C   0  0  0  0  0  0  0  0  0  0  0  0
    4.1198   -5.7816    0.0000 C   0  0  0  0  0  0  0  0  0  0  0  0
    4.8343   -5.3691    0.0000 C   0  0  0  0  0  0  0  0  0  0  0  0
    9.1211   -5.3691    0.0000 C   0  0  0  0  0  0  0  0  0  0  0  0
    9.8356   -5.7816    0.0000 C   0  0  0  0  0  0  0  0  0  0  0  0
   10.5501   -5.3691    0.0000 C   0  0  0  0  0  0  0  0  0  0  0  0
  1  2  1  0  0  0  0
  1  3  2  0  0  0  0
  1  4  1  0  0  0  0
  6  7  1  0  0  0  0
  7  8  2  0  0  0  0
  8  9  1  0  0  0  0
  9 10  2  0  0  0  0
 10 11  1  0  0  0  0
  6 11  2  0  0  0  0
  5  6  1  0  0  0  0
  2  5  1  0  0  0  0
 12 13  1  0  0  0  0
 13 14  2  0  0  0  0
  4 12  1  0  0  0  0
M  END
>  <cdx:fragmentId>
15

$$$$
