241196.cdx
  Mrv1902 05222410252D          

 15 16  0  0  0  0            999 V2000
    8.2455   -6.7943    0.0000 O   0  0  0  0  0  0  0  0  0  0  0  0
    7.7625   -7.4631    0.0000 C   0  0  0  0  0  0  0  0  0  0  0  0
    6.9772   -7.2105    0.0000 C   0  0  0  0  0  0  0  0  0  0  0  0
    6.9748   -6.3855    0.0000 C   0  0  0  0  0  0  0  0  0  0  0  0
    7.7586   -6.1283    0.0000 C   0  0  0  0  0  0  0  0  0  0  0  0
    6.2591   -5.9751    0.0000 C   0  0  0  0  0  0  0  0  0  0  0  0
    5.5458   -6.3896    0.0000 C   0  0  0  0  0  0  0  0  0  0  0  0
    5.5482   -7.2146    0.0000 C   0  0  0  0  0  0  0  0  0  0  0  0
    6.2639   -7.6250    0.0000 C   0  0  0  0  0  0  0  0  0  0  0  0
    8.0197   -8.2470    0.0000 O   0  0  0  0  0  0  0  0  0  0  0  0
    8.0113   -5.3429    0.0000 C   0  0  0  0  0  0  0  0  0  0  0  0
    8.8178   -5.1690    0.0000 C   0  0  0  0  0  0  0  0  0  0  0  0
    9.3716   -5.7805    0.0000 C   0  0  0  0  0  0  0  0  0  0  0  0
   10.1781   -5.6067    0.0000 C   0  0  0  0  0  0  0  0  0  0  0  0
    9.0704   -4.3837    0.0000 O   0  0  0  0  0  0  0  0  0  0  0  0
  1  2  1  0  0  0  0
  2  3  1  0  0  0  0
  3  4  2  0  0  0  0
  4  5  1  0  0  0  0
  1  5  1  0  0  0  0
  6  7  1  0  0  0  0
  7  8  1  0  0  0  0
  8  9  2  0  0  0  0
  9  3  1  0  0  0  0
  6  4  1  0  0  0  0
  2 10  2  0  0  0  0
 11 12  1  0  0  0  0
 12 13  1  0  0  0  0
 13 14  1  0  0  0  0
 12 15  1  0  0  0  0
  5 11  2  0  0  0  0
M  END
>  <cdx:fragmentId>
68309

$$$$
