241573.cdx
  Mrv1902 05222410232D          

 34 37  0  0  0  0            999 V2000
    4.4656   -8.8285    0.0000 C   0  0  0  0  0  0  0  0  0  0  0  0
    3.7511   -9.2410    0.0000 C   0  0  0  0  0  0  0  0  0  0  0  0
    3.7511  -10.0660    0.0000 C   0  0  0  0  0  0  0  0  0  0  0  0
    4.4656  -10.4785    0.0000 C   0  0  0  0  0  0  0  0  0  0  0  0
    5.1801  -10.0660    0.0000 C   0  0  0  0  0  0  0  0  0  0  0  0
    5.8946  -10.4785    0.0000 C   0  0  0  0  0  0  0  0  0  0  0  0
    6.6090  -10.0660    0.0000 C   0  0  0  0  0  0  0  0  0  0  0  0
    6.6090   -9.2410    0.0000 C   0  0  1  0  0  0  0  0  0  0  0  0
    7.3235   -8.8285    0.0000 C   0  0  2  0  0  0  0  0  0  0  0  0
    8.1081   -9.0835    0.0000 C   0  0  0  0  0  0  0  0  0  0  0  0
    8.5930   -8.4160    0.0000 C   0  0  0  0  0  0  0  0  0  0  0  0
    8.1081   -7.7486    0.0000 C   0  0  1  0  0  0  0  0  0  0  0  0
    7.3235   -8.0035    0.0000 C   0  0  1  0  0  0  0  0  0  0  0  0
    6.6090   -7.5910    0.0000 C   0  0  0  0  0  0  0  0  0  0  0  0
    5.8946   -8.0035    0.0000 C   0  0  0  0  0  0  0  0  0  0  0  0
    5.8946   -8.8285    0.0000 C   0  0  2  0  0  0  0  0  0  0  0  0
    5.1801   -9.2410    0.0000 C   0  0  1  0  0  0  0  0  0  0  0  0
    3.0367  -10.4785    0.0000 O   0  0  0  0  0  0  0  0  0  0  0  0
    7.3235   -7.1785    0.0000 C   0  0  0  0  0  0  0  0  0  0  0  0
    5.1801   -8.4160    0.0000 C   0  0  0  0  0  0  0  0  0  0  0  0
    7.7797   -6.3806    0.0000 C   0  0  0  0  0  0  0  0  0  0  0  0
    8.3631   -6.9639    0.0000 C   0  0  2  0  0  0  0  0  0  0  0  0
    9.1700   -6.7924    0.0000 C   0  0  0  0  0  0  0  0  0  0  0  0
    9.4250   -6.0078    0.0000 C   0  0  0  0  0  0  0  0  0  0  0  0
   10.2319   -5.8363    0.0000 C   0  0  2  0  0  0  0  0  0  0  0  0
   10.4455   -5.0394    0.0000 C   0  0  0  0  0  0  0  0  0  0  0  0
    9.8621   -4.4560    0.0000 C   0  0  0  0  0  0  0  0  0  0  0  0
   11.2424   -4.8259    0.0000 C   0  0  0  0  0  0  0  0  0  0  0  0
   10.8153   -6.4196    0.0000 C   0  0  0  0  0  0  0  0  0  0  0  0
   11.6122   -6.2061    0.0000 C   0  0  0  0  0  0  0  0  0  0  0  0
    6.6090   -8.4160    0.0000 H   0  0  0  0  0  0  0  0  0  0  0  0
    5.8946   -9.6535    0.0000 H   0  0  0  0  0  0  0  0  0  0  0  0
    7.3235   -9.6535    0.0000 H   0  0  0  0  0  0  0  0  0  0  0  0
    8.8927   -7.4936    0.0000 H   0  0  0  0  0  0  0  0  0  0  0  0
  1  2  1  0  0  0  0
  2  3  1  0  0  0  0
  3  4  1  0  0  0  0
  4  5  2  0  0  0  0
  5  6  1  0  0  0  0
  6  7  1  0  0  0  0
  7  8  1  0  0  0  0
  8  9  1  0  0  0  0
  9 10  1  0  0  0  0
 10 11  1  0  0  0  0
 11 12  1  0  0  0  0
 12 13  1  0  0  0  0
  9 13  1  0  0  0  0
 13 14  1  0  0  0  0
 14 15  1  0  0  0  0
 15 16  1  0  0  0  0
  8 16  1  0  0  0  0
 16 17  1  0  0  0  0
  5 17  1  0  0  0  0
  1 17  1  0  0  0  0
  3 18  2  0  0  0  0
 13 19  1  1  0  0  0
 17 20  1  1  0  0  0
 22 21  1  6  0  0  0
 22 23  1  0  0  0  0
 23 24  1  0  0  0  0
 25 24  1  6  0  0  0
 25 26  1  0  0  0  0
 26 27  1  0  0  0  0
 26 28  1  0  0  0  0
 29 30  1  0  0  0  0
 25 29  1  0  0  0  0
 12 22  1  0  0  0  0
  8 31  1  1  0  0  0
 16 32  1  6  0  0  0
  9 33  1  6  0  0  0
 12 34  1  6  0  0  0
M  END
>  <cdx:fragmentId>
1978

$$$$
