241647.cdx
  Mrv1902 05222410282D          

 77 82  0  0  0  0            999 V2000
    7.8009   -5.6399    0.0000 C   0  0  0  0  0  0  0  0  0  0  0  0
    7.0864   -5.2274    0.0000 C   0  0  0  0  0  0  0  0  0  0  0  0
    6.3719   -5.6399    0.0000 C   0  0  0  0  0  0  0  0  0  0  0  0
    6.3719   -6.4649    0.0000 C   0  0  0  0  0  0  0  0  0  0  0  0
    7.0864   -6.8774    0.0000 C   0  0  0  0  0  0  0  0  0  0  0  0
    7.8009   -6.4649    0.0000 C   0  0  0  0  0  0  0  0  0  0  0  0
    8.5153   -5.2274    0.0000 O   0  0  0  0  0  0  0  0  0  0  0  0
    5.6574   -5.2274    0.0000 O   0  0  0  0  0  0  0  0  0  0  0  0
    6.3719   -4.8149    0.0000 H   0  0  0  0  0  0  0  0  0  0  0  0
    6.3719   -3.9899    0.0000 O   0  0  0  0  0  0  0  0  0  0  0  0
    7.0864   -4.4024    0.0000 C   0  0  2  0  0  0  0  0  0  0  0  0
    7.8009   -3.9899    0.0000 C   0  0  1  0  0  0  0  0  0  0  0  0
    7.8009   -3.1649    0.0000 C   0  0  2  0  0  0  0  0  0  0  0  0
    7.0864   -2.7524    0.0000 C   0  0  1  0  0  0  0  0  0  0  0  0
    6.3719   -3.1649    0.0000 C   0  0  1  0  0  0  0  0  0  0  0  0
    5.6574   -2.7524    0.0000 C   0  0  0  0  0  0  0  0  0  0  0  0
    5.6574   -1.9274    0.0000 O   0  0  0  0  0  0  0  0  0  0  0  0
    7.0864   -1.9274    0.0000 O   0  0  0  0  0  0  0  0  0  0  0  0
    8.5153   -6.8774    0.0000 C   0  0  0  0  0  0  0  0  0  0  0  0
    9.2298   -6.4649    0.0000 C   0  0  0  0  0  0  0  0  0  0  0  0
    9.9443   -6.8774    0.0000 C   0  0  0  0  0  0  0  0  0  0  0  0
   10.6587   -6.4649    0.0000 C   0  0  0  0  0  0  0  0  0  0  0  0
   10.6587   -5.6399    0.0000 C   0  0  0  0  0  0  0  0  0  0  0  0
   11.3732   -5.2274    0.0000 C   0  0  0  0  0  0  0  0  0  0  0  0
   12.0877   -5.6399    0.0000 C   0  0  0  0  0  0  0  0  0  0  0  0
   12.0877   -6.4649    0.0000 C   0  0  0  0  0  0  0  0  0  0  0  0
   11.3732   -6.8774    0.0000 C   0  0  0  0  0  0  0  0  0  0  0  0
   12.8022   -5.2274    0.0000 O   0  0  0  0  0  0  0  0  0  0  0  0
    8.5153   -7.7024    0.0000 O   0  0  0  0  0  0  0  0  0  0  0  0
    7.0864   -7.7024    0.0000 O   0  0  0  0  0  0  0  0  0  0  0  0
    7.8009   -4.8149    0.0000 O   0  0  0  0  0  0  0  0  0  0  0  0
    4.8282   -5.6196    0.0000 O   0  0  0  0  0  0  0  0  0  0  0  0
    5.5208   -8.0048    0.0000 C   0  0  0  0  0  0  0  0  0  0  0  0
    4.8026   -8.4107    0.0000 C   0  0  0  0  0  0  0  0  0  0  0  0
    4.7950   -9.2357    0.0000 C   0  0  0  0  0  0  0  0  0  0  0  0
    5.5056   -9.6547    0.0000 C   0  0  0  0  0  0  0  0  0  0  0  0
    6.2239   -9.2488    0.0000 C   0  0  0  0  0  0  0  0  0  0  0  0
    6.2314   -8.4239    0.0000 C   0  0  0  0  0  0  0  0  0  0  0  0
    6.9270  -10.4928    0.0000 O   0  0  0  0  0  0  0  0  0  0  0  0
    6.9345   -9.6679    0.0000 C   0  0  2  0  0  0  0  0  0  0  0  0
    7.6528   -9.2619    0.0000 C   0  0  1  0  0  0  0  0  0  0  0  0
    8.3634   -9.6810    0.0000 C   0  0  2  0  0  0  0  0  0  0  0  0
    8.3558  -10.5059    0.0000 C   0  0  1  0  0  0  0  0  0  0  0  0
    7.6376  -10.9119    0.0000 C   0  0  1  0  0  0  0  0  0  0  0  0
    7.6300  -11.7368    0.0000 C   0  0  0  0  0  0  0  0  0  0  0  0
    8.3407  -12.1559    0.0000 O   0  0  0  0  0  0  0  0  0  0  0  0
    9.0665  -10.9250    0.0000 O   0  0  0  0  0  0  0  0  0  0  0  0
    9.0816   -9.2751    0.0000 O   0  0  0  0  0  0  0  0  0  0  0  0
    7.6603   -8.4370    0.0000 O   0  0  0  0  0  0  0  0  0  0  0  0
    6.9497   -8.0179    0.0000 O   0  0  0  0  0  0  0  0  0  0  0  0
    5.4981  -10.4797    0.0000 O   0  0  0  0  0  0  0  0  0  0  0  0
    4.0768   -9.6416    0.0000 C   0  0  0  0  0  0  0  0  0  0  0  0
    4.0692  -10.4666    0.0000 C   0  0  0  0  0  0  0  0  0  0  0  0
    3.3510  -10.8725    0.0000 C   0  0  0  0  0  0  0  0  0  0  0  0
    3.3434  -11.6975    0.0000 C   0  0  0  0  0  0  0  0  0  0  0  0
    4.0540  -12.1165    0.0000 C   0  0  0  0  0  0  0  0  0  0  0  0
    4.0465  -12.9415    0.0000 C   0  0  0  0  0  0  0  0  0  0  0  0
    3.3282  -13.3474    0.0000 C   0  0  0  0  0  0  0  0  0  0  0  0
    2.6176  -12.9284    0.0000 C   0  0  0  0  0  0  0  0  0  0  0  0
    2.6252  -12.1034    0.0000 C   0  0  0  0  0  0  0  0  0  0  0  0
    3.3207  -14.1724    0.0000 O   0  0  0  0  0  0  0  0  0  0  0  0
    3.3661   -9.2226    0.0000 O   0  0  0  0  0  0  0  0  0  0  0  0
    6.9421   -8.8429    0.0000 O   0  0  0  0  0  0  0  0  0  0  0  0
    4.0919   -7.9917    0.0000 O   0  0  0  0  0  0  0  0  0  0  0  0
    8.5153   -2.7524    0.0000 O   0  0  0  0  0  0  0  0  0  0  0  0
    8.5153   -4.4024    0.0000 O   0  0  0  0  0  0  0  0  0  0  0  0
    4.0948   -7.6755    0.0000 O   0  0  0  0  0  0  0  0  0  0  0  0
    3.3993   -5.6065    0.0000 O   0  0  0  0  0  0  0  0  0  0  0  0
    2.6659   -7.6623    0.0000 O   0  0  0  0  0  0  0  0  0  0  0  0
    1.2446   -6.8243    0.0000 O   0  0  0  0  0  0  0  0  0  0  0  0
    1.9628   -6.4183    0.0000 C   0  0  0  0  0  0  0  0  0  0  0  0
    2.6735   -6.8374    0.0000 C   0  0  2  0  0  0  0  0  0  0  0  0
    3.3917   -6.4315    0.0000 C   0  0  2  0  0  0  0  0  0  0  0  0
    4.1024   -6.8505    0.0000 C   0  0  1  0  0  0  0  0  0  0  0  0
    4.8206   -6.4446    0.0000 C   0  0  2  0  0  0  0  0  0  0  0  0
    5.5313   -6.8636    0.0000 C   0  0  0  0  0  0  0  0  0  0  0  0
    6.2201  -10.0804    0.0000 H   0  0  0  0  0  0  0  0  0  0  0  0
 11  9  1  1  0  0  0
 75 32  1  1  0  0  0
 74 67  1  1  0  0  0
 73 68  1  1  0  0  0
 72 69  1  6  0  0  0
 71 70  1  0  0  0  0
 72 71  1  0  0  0  0
 73 72  1  0  0  0  0
 74 73  1  0  0  0  0
 75 74  1  0  0  0  0
 76 75  1  0  0  0  0
  1  2  1  0  0  0  0
  2  3  1  0  0  0  0
  3  4  1  0  0  0  0
  4  5  2  0  0  0  0
  5  6  1  0  0  0  0
  1  6  1  0  0  0  0
  1  7  2  0  0  0  0
  3  8  2  0  0  0  0
 11 10  1  0  0  0  0
 11 12  1  0  0  0  0
 12 13  1  0  0  0  0
 13 14  1  0  0  0  0
 14 15  1  0  0  0  0
 10 15  1  0  0  0  0
 16 17  1  0  0  0  0
 15 16  1  6  0  0  0
 14 18  1  1  0  0  0
  2 11  1  0  0  0  0
 19 20  1  0  0  0  0
 20 21  2  0  0  0  0
 22 23  1  0  0  0  0
 23 24  2  0  0  0  0
 24 25  1  0  0  0  0
 25 26  2  0  0  0  0
 26 27  1  0  0  0  0
 22 27  2  0  0  0  0
 25 28  1  0  0  0  0
 21 22  1  0  0  0  0
 19 29  1  0  0  0  0
  6 19  2  0  0  0  0
  5 30  1  0  0  0  0
  2 31  1  0  0  0  0
 33 34  2  0  0  0  0
 34 35  1  0  0  0  0
 35 36  1  0  0  0  0
 36 37  1  0  0  0  0
 37 38  1  0  0  0  0
 33 38  1  0  0  0  0
 40 39  1  0  0  0  0
 40 41  1  0  0  0  0
 41 42  1  0  0  0  0
 42 43  1  0  0  0  0
 43 44  1  0  0  0  0
 39 44  1  0  0  0  0
 45 46  1  0  0  0  0
 44 45  1  1  0  0  0
 43 47  1  6  0  0  0
 42 48  1  1  0  0  0
 41 49  1  6  0  0  0
 37 40  1  0  0  0  0
 38 50  2  0  0  0  0
 36 51  2  0  0  0  0
 52 53  1  0  0  0  0
 53 54  2  0  0  0  0
 55 56  1  0  0  0  0
 56 57  2  0  0  0  0
 57 58  1  0  0  0  0
 58 59  2  0  0  0  0
 59 60  1  0  0  0  0
 55 60  2  0  0  0  0
 58 61  1  0  0  0  0
 54 55  1  0  0  0  0
 52 62  1  0  0  0  0
 35 52  2  0  0  0  0
 37 63  1  0  0  0  0
 34 64  1  0  0  0  0
 76 33  1  0  0  0  0
  4 76  1  0  0  0  0
 13 65  1  6  0  0  0
 12 66  1  1  0  0  0
 40 77  1  6  0  0  0
M  END
>  <cdx:groupId>
236215

>  <cdx:fragmentId>
236084

$$$$
