241635.cdx
  Mrv1902 05222410242D          

 13 13  0  0  0  0            999 V2000
   15.1158  -12.8539    0.0000 C   0  0  0  0  0  0  0  0  0  0  0  0
   15.8303  -13.2664    0.0000 C   0  0  0  0  0  0  0  0  0  0  0  0
   16.5448  -12.8539    0.0000 C   0  0  0  0  0  0  0  0  0  0  0  0
   17.2592  -13.2664    0.0000 C   0  0  0  0  0  0  0  0  0  0  0  0
   17.9737  -12.8539    0.0000 C   0  0  0  0  0  0  0  0  0  0  0  0
   15.1158  -12.0289    0.0000 O   0  0  0  0  0  0  0  0  0  0  0  0
   14.4013  -13.2664    0.0000 C   0  0  0  0  0  0  0  0  0  0  0  0
   14.4013  -14.0914    0.0000 C   0  0  0  0  0  0  0  0  0  0  0  0
   13.6869  -14.5039    0.0000 C   0  0  0  0  0  0  0  0  0  0  0  0
   12.9724  -14.0914    0.0000 C   0  0  0  0  0  0  0  0  0  0  0  0
   12.9724  -13.2664    0.0000 C   0  0  0  0  0  0  0  0  0  0  0  0
   13.6869  -12.8539    0.0000 C   0  0  0  0  0  0  0  0  0  0  0  0
   15.1158  -14.5039    0.0000 O   0  0  0  0  0  0  0  0  0  0  0  0
  1  2  1  0  0  0  0
  2  3  1  0  0  0  0
  3  4  1  0  0  0  0
  4  5  1  0  0  0  0
  7  8  1  0  0  0  0
  8  9  2  0  0  0  0
  9 10  1  0  0  0  0
 10 11  2  0  0  0  0
 11 12  1  0  0  0  0
  7 12  2  0  0  0  0
  1  6  2  0  0  0  0
  1  7  1  0  0  0  0
  8 13  1  0  0  0  0
M  END
>  <cdx:groupId>
4309

>  <cdx:fragmentId>
4285

$$$$
