241629.cdx
  Mrv1902 05222410202D          

 13 13  0  0  0  0            999 V2000
    8.2787   -8.5139    0.0000 C   0  0  0  0  0  0  0  0  0  0  0  0
    7.5642   -8.1014    0.0000 C   0  0  0  0  0  0  0  0  0  0  0  0
    6.8497   -8.5139    0.0000 C   0  0  0  0  0  0  0  0  0  0  0  0
    6.1353   -8.1014    0.0000 C   0  0  0  0  0  0  0  0  0  0  0  0
    6.1353   -7.2764    0.0000 C   0  0  0  0  0  0  0  0  0  0  0  0
    6.8497   -6.8639    0.0000 C   0  0  0  0  0  0  0  0  0  0  0  0
    7.5642   -7.2764    0.0000 C   0  0  0  0  0  0  0  0  0  0  0  0
    8.2787   -6.8639    0.0000 C   0  0  0  0  0  0  0  0  0  0  0  0
    6.8497   -6.0389    0.0000 C   0  0  0  0  0  0  0  0  0  0  0  0
    5.4208   -6.8639    0.0000 C   0  0  0  0  0  0  0  0  0  0  0  0
    5.4208   -8.5139    0.0000 C   0  0  0  0  0  0  0  0  0  0  0  0
    6.8497   -9.3389    0.0000 C   0  0  0  0  0  0  0  0  0  0  0  0
    8.9931   -8.1014    0.0000 O   0  0  0  0  0  0  0  0  0  0  0  0
  1  2  1  0  0  0  0
  2  3  1  0  0  0  0
  3  4  2  0  0  0  0
  4  5  1  0  0  0  0
  5  6  2  0  0  0  0
  6  7  1  0  0  0  0
  2  7  2  0  0  0  0
  7  8  1  0  0  0  0
  6  9  1  0  0  0  0
  5 10  1  0  0  0  0
  4 11  1  0  0  0  0
  3 12  1  0  0  0  0
  1 13  1  0  0  0  0
M  END
>  <cdx:fragmentId>
15735

$$$$
