241825.cdx
  Mrv1902 05222410212D          

 18 20  0  0  0  0            999 V2000
    6.9065   -5.1844    0.0000 C   0  0  0  0  0  0  0  0  0  0  0  0
    6.2586   -5.6952    0.0000 C   0  0  0  0  0  0  0  0  0  0  0  0
    6.2540   -6.5202    0.0000 C   0  0  0  0  0  0  0  0  0  0  0  0
    6.8961   -7.0382    0.0000 C   0  0  0  0  0  0  0  0  0  0  0  0
    7.7014   -6.8591    0.0000 C   0  0  0  0  0  0  0  0  0  0  0  0
    8.0635   -6.1178    0.0000 C   0  0  0  0  0  0  0  0  0  0  0  0
    7.7097   -5.3725    0.0000 C   0  0  0  0  0  0  0  0  0  0  0  0
    5.4754   -5.4359    0.0000 C   0  0  0  0  0  0  0  0  0  0  0  0
    4.9867   -6.1006    0.0000 C   0  0  0  0  0  0  0  0  0  0  0  0
    5.4679   -6.7707    0.0000 C   0  0  0  0  0  0  0  0  0  0  0  0
    8.2945   -7.4326    0.0000 C   0  0  0  0  0  0  0  0  0  0  0  0
    9.0232   -7.0457    0.0000 C   0  0  0  0  0  0  0  0  0  0  0  0
    8.8804   -6.2331    0.0000 O   0  0  0  0  0  0  0  0  0  0  0  0
    5.2249   -4.6498    0.0000 O   0  0  0  0  0  0  0  0  0  0  0  0
    5.2086   -7.5539    0.0000 C   0  0  0  0  0  0  0  0  0  0  0  0
    6.7274   -4.3791    0.0000 C   0  0  0  0  0  0  0  0  0  0  0  0
    9.7645   -7.4078    0.0000 O   0  0  0  0  0  0  0  0  0  0  0  0
    8.1792   -8.2495    0.0000 C   0  0  0  0  0  0  0  0  0  0  0  0
  1  2  2  0  0  0  0
  2  3  1  0  0  0  0
  3  4  2  0  0  0  0
  4  5  1  0  0  0  0
  5  6  1  0  0  0  0
  6  7  1  0  0  0  0
  7  1  1  0  0  0  0
  2  8  1  0  0  0  0
  8  9  1  0  0  0  0
  9 10  2  0  0  0  0
 10  3  1  0  0  0  0
  5 11  2  0  0  0  0
 11 12  1  0  0  0  0
 12 13  1  0  0  0  0
 13  6  1  0  0  0  0
  8 14  2  0  0  0  0
 10 15  1  0  0  0  0
  1 16  1  0  0  0  0
 12 17  2  0  0  0  0
 11 18  1  0  0  0  0
M  END
>  <cdx:fragmentId>
6297

$$$$
