24197.cdx
  Mrv1902 05222410192D          

 13 12  0  0  0  0            999 V2000
    3.8208   -5.1337    0.0000 C   0  0  0  0  0  0  0  0  0  0  0  0
    4.5352   -5.5462    0.0000 C   0  0  0  0  0  0  0  0  0  0  0  0
   10.2510   -5.5462    0.0000 C   0  0  0  0  0  0  0  0  0  0  0  0
    9.5365   -5.1337    0.0000 C   0  0  0  0  0  0  0  0  0  0  0  0
    5.2497   -5.1337    0.0000 O   0  0  0  0  0  0  0  0  0  0  0  0
    5.9642   -6.3712    0.0000 O   0  0  0  0  0  0  0  0  0  0  0  0
    8.8221   -5.5462    0.0000 O   0  0  0  0  0  0  0  0  0  0  0  0
    8.1076   -4.3087    0.0000 O   0  0  0  0  0  0  0  0  0  0  0  0
    5.9642   -5.5462    0.0000 C   0  0  0  0  0  0  0  0  0  0  0  0
    6.6786   -5.1337    0.0000 C   0  0  0  0  0  0  0  0  0  0  0  0
    7.3931   -6.3712    0.0000 O   0  0  0  0  0  0  0  0  0  0  0  0
    7.3931   -5.5462    0.0000 C   0  0  0  0  0  0  0  0  0  0  0  0
    8.1076   -5.1337    0.0000 C   0  0  0  0  0  0  0  0  0  0  0  0
  5  2  1  0  0  0  0
  2  1  1  0  0  0  0
  7  4  1  0  0  0  0
  4  3  1  0  0  0  0
  9  5  1  0  0  0  0
  9  6  2  0  0  0  0
 13  7  1  0  0  0  0
 13  8  2  0  0  0  0
 10  9  1  0  0  0  0
 12 10  1  0  0  0  0
 12 11  1  0  0  0  0
 13 12  1  0  0  0  0
M  END
>  <cdx:groupId>
40

>  <cdx:fragmentId>
5

$$$$
