242253.cdx
  Mrv1902 05222410222D          

 19 20  0  0  0  0            999 V2000
    5.0174   -8.6510    0.0000 O   0  0  0  0  0  0  0  0  0  0  0  0
    5.3289   -7.5266    0.0000 C   0  0  0  0  0  0  0  0  0  0  0  0
    5.7354   -8.2446    0.0000 C   0  0  0  0  0  0  0  0  0  0  0  0
    6.1418   -8.9625    0.0000 C   0  0  0  0  0  0  0  0  0  0  0  0
    7.8961   -6.2002    0.0000 C   0  0  0  0  0  0  0  0  0  0  0  0
    8.5862   -9.0936    0.0000 C   0  0  0  0  0  0  0  0  0  0  0  0
    7.8752   -8.6751    0.0000 O   0  0  0  0  0  0  0  0  0  0  0  0
    5.7493   -6.5946    0.0000 O   0  0  0  0  0  0  0  0  0  0  0  0
    7.8891   -7.0252    0.0000 C   0  0  1  0  0  0  0  0  0  0  0  0
    8.6071   -6.6187    0.0000 C   0  0  0  0  0  0  0  0  0  0  0  0
    9.3180   -7.0372    0.0000 C   0  0  0  0  0  0  0  0  0  0  0  0
    9.3111   -7.8622    0.0000 C   0  0  0  0  0  0  0  0  0  0  0  0
    8.5931   -8.2687    0.0000 C   0  0  0  0  0  0  0  0  0  0  0  0
    7.8822   -7.8502    0.0000 C   0  0  1  0  0  0  0  0  0  0  0  0
    7.1643   -8.2566    0.0000 C   0  0  0  0  0  0  0  0  0  0  0  0
    6.4533   -7.8381    0.0000 C   0  0  2  0  0  0  0  0  0  0  0  0
    6.4602   -7.0131    0.0000 C   0  0  2  0  0  0  0  0  0  0  0  0
    7.1782   -6.6067    0.0000 C   0  0  0  0  0  0  0  0  0  0  0  0
    6.4463   -8.6631    0.0000 H   0  0  0  0  0  0  0  0  0  0  0  0
 16  3  1  0  0  0  0
  3  1  1  0  0  0  0
  3  2  1  0  0  0  0
  4  3  1  0  0  0  0
  9  5  1  1  0  0  0
 13  6  2  0  0  0  0
 14  7  1  1  0  0  0
 17  8  1  1  0  0  0
 14  9  1  0  0  0  0
 18  9  1  0  0  0  0
 10  9  1  0  0  0  0
 11 10  1  0  0  0  0
 12 11  1  0  0  0  0
 13 12  1  0  0  0  0
 14 13  1  0  0  0  0
 15 14  1  0  0  0  0
 16 15  1  0  0  0  0
 17 16  1  0  0  0  0
 18 17  1  0  0  0  0
 16 19  1  6  0  0  0
M  END
>  <cdx:fragmentId>
68362

$$$$
