5242842.cdx
  Mrv1902 05222410232D          

 18 19  0  0  0  0            999 V2000
   16.4975   -7.4178    0.0000 C   0  0  0  0  0  0  0  0  0  0  0  0
   17.2120   -7.8303    0.0000 C   0  0  0  0  0  0  0  0  0  0  0  0
   17.2120   -8.6553    0.0000 C   0  0  0  0  0  0  0  0  0  0  0  0
   16.4975   -9.0678    0.0000 C   0  0  0  0  0  0  0  0  0  0  0  0
   15.7830   -8.6553    0.0000 C   0  0  0  0  0  0  0  0  0  0  0  0
   15.7830   -7.8303    0.0000 O   0  0  0  0  0  0  0  0  0  0  0  0
   16.4975   -6.5928    0.0000 O   0  0  0  0  0  0  0  0  0  0  0  0
   17.9265   -9.0678    0.0000 O   0  0  0  0  0  0  0  0  0  0  0  0
   18.6409   -8.6553    0.0000 C   0  0  0  0  0  0  0  0  0  0  0  0
   15.0686   -9.0678    0.0000 C   0  0  0  0  0  0  0  0  0  0  0  0
   15.0686   -9.8928    0.0000 C   0  0  0  0  0  0  0  0  0  0  0  0
   14.3541  -10.3053    0.0000 C   0  0  0  0  0  0  0  0  0  0  0  0
   13.6396   -9.8928    0.0000 C   0  0  0  0  0  0  0  0  0  0  0  0
   13.6396   -9.0678    0.0000 C   0  0  0  0  0  0  0  0  0  0  0  0
   14.3541   -8.6553    0.0000 C   0  0  0  0  0  0  0  0  0  0  0  0
   14.3541   -7.8303    0.0000 C   0  0  0  0  0  0  0  0  0  0  0  0
   12.9252  -10.3053    0.0000 O   0  0  0  0  0  0  0  0  0  0  0  0
   15.7830  -10.3053    0.0000 O   0  0  0  0  0  0  0  0  0  0  0  0
  1  2  1  0  0  0  0
  2  3  2  0  0  0  0
  3  4  1  0  0  0  0
  4  5  2  0  0  0  0
  5  6  1  0  0  0  0
  1  6  1  0  0  0  0
  1  7  2  0  0  0  0
  8  9  1  0  0  0  0
  3  8  1  0  0  0  0
 10 11  1  0  0  0  0
 11 12  2  0  0  0  0
 12 13  1  0  0  0  0
 13 14  2  0  0  0  0
 14 15  1  0  0  0  0
 10 15  2  0  0  0  0
 15 16  1  0  0  0  0
 13 17  1  0  0  0  0
 11 18  1  0  0  0  0
  5 10  1  0  0  0  0
M  END
>  <cdx:groupId>
6406

>  <cdx:fragmentId>
6372

$$$$
