24318.cdx
  Mrv1902 05222410222D          

 60 59  0  0  0  0            999 V2000
    0.3484   -3.9806    0.0000 C   0  0  0  0  0  0  0  0  0  0  0  0
    1.0628   -3.5681    0.0000 C   0  0  0  0  0  0  0  0  0  0  0  0
    1.7773   -3.9806    0.0000 C   0  0  0  0  0  0  0  0  0  0  0  0
    2.4918   -3.5681    0.0000 C   0  0  0  0  0  0  0  0  0  0  0  0
    3.2062   -3.9806    0.0000 C   0  0  0  0  0  0  0  0  0  0  0  0
    3.9207   -3.5681    0.0000 C   0  0  0  0  0  0  0  0  0  0  0  0
    4.6352   -3.9806    0.0000 C   0  0  0  0  0  0  0  0  0  0  0  0
    5.3497   -3.5681    0.0000 C   0  0  0  0  0  0  0  0  0  0  0  0
    6.0641   -3.9806    0.0000 C   0  0  0  0  0  0  0  0  0  0  0  0
    6.7786   -3.5681    0.0000 C   0  0  0  0  0  0  0  0  0  0  0  0
    7.4931   -3.9806    0.0000 C   0  0  0  0  0  0  0  0  0  0  0  0
    8.2075   -3.5681    0.0000 C   0  0  0  0  0  0  0  0  0  0  0  0
    8.9220   -3.9806    0.0000 C   0  0  0  0  0  0  0  0  0  0  0  0
    9.6365   -3.5681    0.0000 C   0  0  0  0  0  0  0  0  0  0  0  0
   10.3509   -3.9806    0.0000 C   0  0  0  0  0  0  0  0  0  0  0  0
   11.0654   -3.5681    0.0000 C   0  0  0  0  0  0  0  0  0  0  0  0
   11.7799   -3.9806    0.0000 C   0  0  0  0  0  0  0  0  0  0  0  0
   12.4944   -3.5681    0.0000 C   0  0  0  0  0  0  0  0  0  0  0  0
   13.2088   -3.9806    0.0000 C   0  0  0  0  0  0  0  0  0  0  0  0
   13.9233   -3.5681    0.0000 C   0  0  0  0  0  0  0  0  0  0  0  0
   14.6378   -3.9806    0.0000 C   0  0  0  0  0  0  0  0  0  0  0  0
   15.3522   -3.5681    0.0000 C   0  0  0  0  0  0  0  0  0  0  0  0
   16.0667   -3.9806    0.0000 C   0  0  0  0  0  0  0  0  0  0  0  0
   16.7812   -3.5681    0.0000 C   0  0  0  0  0  0  0  0  0  0  0  0
   17.4957   -3.9806    0.0000 C   0  0  0  0  0  0  0  0  0  0  0  0
   18.2101   -3.5681    0.0000 C   0  0  0  0  0  0  0  0  0  0  0  0
   18.9246   -3.9806    0.0000 C   0  0  0  0  0  0  0  0  0  0  0  0
   19.6391   -3.5681    0.0000 C   0  0  0  0  0  0  0  0  0  0  0  0
   20.3535   -3.9806    0.0000 C   0  0  0  0  0  0  0  0  0  0  0  0
   21.0680   -3.5681    0.0000 C   0  0  0  0  0  0  0  0  0  0  0  0
   21.7825   -3.9806    0.0000 C   0  0  0  0  0  0  0  0  0  0  0  0
   22.4970   -3.5681    0.0000 C   0  0  0  0  0  0  0  0  0  0  0  0
   23.2114   -3.9806    0.0000 C   0  0  0  0  0  0  0  0  0  0  0  0
   23.9259   -3.5681    0.0000 C   0  0  0  0  0  0  0  0  0  0  0  0
   24.6404   -3.9806    0.0000 C   0  0  0  0  0  0  0  0  0  0  0  0
   25.3548   -3.5681    0.0000 C   0  0  0  0  0  0  0  0  0  0  0  0
   26.0693   -3.9806    0.0000 C   0  0  0  0  0  0  0  0  0  0  0  0
   26.7838   -3.5681    0.0000 C   0  0  0  0  0  0  0  0  0  0  0  0
   27.4983   -3.9806    0.0000 C   0  0  0  0  0  0  0  0  0  0  0  0
   28.2127   -3.5681    0.0000 C   0  0  0  0  0  0  0  0  0  0  0  0
   28.9272   -3.9806    0.0000 C   0  0  0  0  0  0  0  0  0  0  0  0
   29.6417   -3.5681    0.0000 C   0  0  0  0  0  0  0  0  0  0  0  0
   30.3561   -3.9806    0.0000 C   0  0  0  0  0  0  0  0  0  0  0  0
   31.0706   -3.5681    0.0000 C   0  0  0  0  0  0  0  0  0  0  0  0
   31.7851   -3.9806    0.0000 C   0  0  0  0  0  0  0  0  0  0  0  0
   32.4995   -3.5681    0.0000 C   0  0  0  0  0  0  0  0  0  0  0  0
   33.2140   -3.9806    0.0000 C   0  0  0  0  0  0  0  0  0  0  0  0
   33.9285   -3.5681    0.0000 C   0  0  0  0  0  0  0  0  0  0  0  0
   34.6430   -3.9806    0.0000 C   0  0  0  0  0  0  0  0  0  0  0  0
   35.3574   -3.5681    0.0000 C   0  0  0  0  0  0  0  0  0  0  0  0
   36.0719   -3.9806    0.0000 C   0  0  0  0  0  0  0  0  0  0  0  0
   36.7864   -3.5681    0.0000 C   0  0  0  0  0  0  0  0  0  0  0  0
   37.5008   -3.9806    0.0000 C   0  0  0  0  0  0  0  0  0  0  0  0
   38.2153   -3.5681    0.0000 C   0  0  0  0  0  0  0  0  0  0  0  0
   38.9298   -3.9806    0.0000 C   0  0  0  0  0  0  0  0  0  0  0  0
   39.6443   -3.5681    0.0000 C   0  0  0  0  0  0  0  0  0  0  0  0
   40.3587   -3.9806    0.0000 C   0  0  0  0  0  0  0  0  0  0  0  0
   41.0732   -3.5681    0.0000 C   0  0  0  0  0  0  0  0  0  0  0  0
   41.7877   -3.9806    0.0000 C   0  0  0  0  0  0  0  0  0  0  0  0
   42.5021   -3.5681    0.0000 C   0  0  0  0  0  0  0  0  0  0  0  0
  1  2  1  0  0  0  0
  2  3  1  0  0  0  0
  3  4  1  0  0  0  0
  4  5  1  0  0  0  0
  5  6  1  0  0  0  0
  6  7  1  0  0  0  0
  7  8  1  0  0  0  0
  8  9  1  0  0  0  0
  9 10  1  0  0  0  0
 10 11  1  0  0  0  0
 11 12  1  0  0  0  0
 12 13  1  0  0  0  0
 13 14  1  0  0  0  0
 14 15  1  0  0  0  0
 15 16  1  0  0  0  0
 16 17  1  0  0  0  0
 17 18  1  0  0  0  0
 18 19  1  0  0  0  0
 19 20  1  0  0  0  0
 20 21  1  0  0  0  0
 21 22  1  0  0  0  0
 22 23  1  0  0  0  0
 23 24  1  0  0  0  0
 24 25  1  0  0  0  0
 25 26  1  0  0  0  0
 26 27  1  0  0  0  0
 27 28  1  0  0  0  0
 28 29  1  0  0  0  0
 29 30  1  0  0  0  0
 30 31  1  0  0  0  0
 31 32  1  0  0  0  0
 32 33  1  0  0  0  0
 33 34  1  0  0  0  0
 34 35  1  0  0  0  0
 35 36  1  0  0  0  0
 36 37  1  0  0  0  0
 37 38  1  0  0  0  0
 38 39  1  0  0  0  0
 39 40  1  0  0  0  0
 40 41  1  0  0  0  0
 41 42  1  0  0  0  0
 42 43  1  0  0  0  0
 43 44  1  0  0  0  0
 44 45  1  0  0  0  0
 45 46  1  0  0  0  0
 46 47  1  0  0  0  0
 47 48  1  0  0  0  0
 48 49  1  0  0  0  0
 49 50  1  0  0  0  0
 50 51  1  0  0  0  0
 51 52  1  0  0  0  0
 52 53  1  0  0  0  0
 53 54  1  0  0  0  0
 54 55  1  0  0  0  0
 55 56  1  0  0  0  0
 56 57  1  0  0  0  0
 57 58  1  0  0  0  0
 58 59  1  0  0  0  0
 59 60  1  0  0  0  0
M  END
>  <cdx:groupId>
181

>  <cdx:fragmentId>
5

$$$$
