2435.cdx
  Mrv1902 05222410262D          

 44 47  0  0  0  0            999 V2000
    6.3558   -9.1575    0.0000 C   0  0  2  0  0  0  0  0  0  0  0  0
    6.3558   -9.9825    0.0000 C   0  0  2  0  0  0  0  0  0  0  0  0
    7.0702  -10.3950    0.0000 C   0  0  1  0  0  0  0  0  0  0  0  0
    7.7847   -9.9825    0.0000 C   0  0  2  0  0  0  0  0  0  0  0  0
    7.7847   -9.1575    0.0000 C   0  0  1  0  0  0  0  0  0  0  0  0
    7.0702   -8.7450    0.0000 O   0  0  0  0  0  0  0  0  0  0  0  0
    8.4992   -8.7450    0.0000 O   0  0  0  0  0  0  0  0  0  0  0  0
    7.0702  -11.2200    0.0000 O   0  0  0  0  0  0  0  0  0  0  0  0
    5.6413   -8.7450    0.0000 C   0  0  0  0  0  0  0  0  0  0  0  0
    8.4992  -10.3950    0.0000 O   0  0  0  0  0  0  0  0  0  0  0  0
    5.6413  -10.3950    0.0000 O   0  0  0  0  0  0  0  0  0  0  0  0
    4.9268   -9.1575    0.0000 O   0  0  0  0  0  0  0  0  0  0  0  0
    9.3242   -8.7450    0.0000 C   0  0  0  0  0  0  0  0  0  0  0  0
    9.7367   -8.0305    0.0000 C   0  0  0  0  0  0  0  0  0  0  0  0
    9.7367   -9.4595    0.0000 O   0  0  0  0  0  0  0  0  0  0  0  0
   10.5617   -8.0305    0.0000 C   0  0  0  0  0  0  0  0  0  0  0  0
   10.9742   -7.3161    0.0000 C   0  0  0  0  0  0  0  0  0  0  0  0
   10.5617   -6.6016    0.0000 C   0  0  0  0  0  0  0  0  0  0  0  0
    9.7367   -6.6016    0.0000 C   0  0  0  0  0  0  0  0  0  0  0  0
    9.3242   -7.3161    0.0000 C   0  0  0  0  0  0  0  0  0  0  0  0
    9.3242   -5.8871    0.0000 O   0  0  0  0  0  0  0  0  0  0  0  0
   10.9742   -5.8871    0.0000 O   0  0  0  0  0  0  0  0  0  0  0  0
   11.7992   -7.3161    0.0000 O   0  0  0  0  0  0  0  0  0  0  0  0
    8.4869  -11.3390    0.0000 C   0  0  0  0  0  0  0  0  0  0  0  0
    9.2033  -11.7480    0.0000 C   0  0  0  0  0  0  0  0  0  0  0  0
    7.7744  -11.7550    0.0000 O   0  0  0  0  0  0  0  0  0  0  0  0
    9.2073  -12.5730    0.0000 C   0  0  0  0  0  0  0  0  0  0  0  0
    9.9238  -12.9821    0.0000 C   0  0  0  0  0  0  0  0  0  0  0  0
    9.9278  -13.8071    0.0000 C   0  0  0  0  0  0  0  0  0  0  0  0
   10.6442  -14.2161    0.0000 C   0  0  0  0  0  0  0  0  0  0  0  0
   11.3567  -13.8001    0.0000 C   0  0  0  0  0  0  0  0  0  0  0  0
   11.3527  -12.9751    0.0000 C   0  0  0  0  0  0  0  0  0  0  0  0
   10.6362  -12.5661    0.0000 C   0  0  0  0  0  0  0  0  0  0  0  0
    4.1105   -9.1674    0.0000 C   0  0  0  0  0  0  0  0  0  0  0  0
    3.7018   -8.4508    0.0000 C   0  0  0  0  0  0  0  0  0  0  0  0
    3.6943   -9.8797    0.0000 O   0  0  0  0  0  0  0  0  0  0  0  0
    4.1180   -7.7385    0.0000 C   0  0  0  0  0  0  0  0  0  0  0  0
    3.7092   -7.0219    0.0000 C   0  0  0  0  0  0  0  0  0  0  0  0
    2.8842   -7.0176    0.0000 C   0  0  0  0  0  0  0  0  0  0  0  0
    2.4680   -7.7299    0.0000 C   0  0  0  0  0  0  0  0  0  0  0  0
    2.8768   -8.4465    0.0000 C   0  0  0  0  0  0  0  0  0  0  0  0
    2.4755   -6.3010    0.0000 O   0  0  0  0  0  0  0  0  0  0  0  0
    4.1254   -6.3096    0.0000 O   0  0  0  0  0  0  0  0  0  0  0  0
    1.6430   -7.7256    0.0000 O   0  0  0  0  0  0  0  0  0  0  0  0
  1  2  1  0  0  0  0
  2  3  1  0  0  0  0
  3  4  1  0  0  0  0
  4  5  1  0  0  0  0
  5  6  1  0  0  0  0
  6  1  1  0  0  0  0
  5  7  1  1  0  0  0
  3  8  1  1  0  0  0
  1  9  1  1  0  0  0
  4 10  1  6  0  0  0
  2 11  1  6  0  0  0
  9 12  1  0  0  0  0
  7 13  1  0  0  0  0
 13 14  1  0  0  0  0
 13 15  2  0  0  0  0
 14 16  2  0  0  0  0
 16 17  1  0  0  0  0
 17 18  2  0  0  0  0
 18 19  1  0  0  0  0
 19 20  2  0  0  0  0
 20 14  1  0  0  0  0
 19 21  1  0  0  0  0
 18 22  1  0  0  0  0
 17 23  1  0  0  0  0
 24 25  1  0  0  0  0
 24 26  2  0  0  0  0
 25 27  2  0  0  0  0
 27 28  1  0  0  0  0
 28 29  2  0  0  0  0
 29 30  1  0  0  0  0
 30 31  2  0  0  0  0
 31 32  1  0  0  0  0
 32 33  2  0  0  0  0
 33 28  1  0  0  0  0
 34 35  1  0  0  0  0
 34 36  2  0  0  0  0
 35 37  2  0  0  0  0
 37 38  1  0  0  0  0
 38 39  2  0  0  0  0
 39 40  1  0  0  0  0
 40 41  2  0  0  0  0
 41 35  1  0  0  0  0
 39 42  1  0  0  0  0
 38 43  1  0  0  0  0
 40 44  1  0  0  0  0
 34 12  1  0  0  0  0
 24 10  1  0  0  0  0
M  END
>  <cdx:fragmentId>
5

$$$$
