243696.cdx
  Mrv1902 05222410272D          

 30 29  0  0  0  0            999 V2000
    3.4592   -9.2374    0.0000 C   0  0  0  0  0  0  0  0  0  0  0  0
    4.1737   -9.6499    0.0000 C   0  0  0  0  0  0  0  0  0  0  0  0
    4.8882   -9.2374    0.0000 C   0  0  0  0  0  0  0  0  0  0  0  0
    5.6026   -9.6499    0.0000 C   0  0  0  0  0  0  0  0  0  0  0  0
    6.3171   -9.2374    0.0000 C   0  0  0  0  0  0  0  0  0  0  0  0
    7.0316   -9.6499    0.0000 C   0  0  0  0  0  0  0  0  0  0  0  0
    7.7460   -9.2374    0.0000 C   0  0  0  0  0  0  0  0  0  0  0  0
    8.4605   -9.6499    0.0000 C   0  0  0  0  0  0  0  0  0  0  0  0
    9.1750   -9.2374    0.0000 C   0  0  0  0  0  0  0  0  0  0  0  0
    9.8895   -9.6499    0.0000 C   0  0  0  0  0  0  0  0  0  0  0  0
   10.6039   -9.2374    0.0000 C   0  0  0  0  0  0  0  0  0  0  0  0
   11.3184   -9.6499    0.0000 C   0  0  0  0  0  0  0  0  0  0  0  0
   12.0329   -9.2374    0.0000 C   0  0  0  0  0  0  0  0  0  0  0  0
   12.7473   -9.6499    0.0000 C   0  0  0  0  0  0  0  0  0  0  0  0
   13.4618   -9.2374    0.0000 C   0  0  0  0  0  0  0  0  0  0  0  0
   14.1763   -9.6499    0.0000 C   0  0  0  0  0  0  0  0  0  0  0  0
   14.8908   -9.2374    0.0000 C   0  0  0  0  0  0  0  0  0  0  0  0
   15.6052   -9.6499    0.0000 C   0  0  0  0  0  0  0  0  0  0  0  0
   16.3197   -9.2374    0.0000 C   0  0  0  0  0  0  0  0  0  0  0  0
   17.0342   -9.6499    0.0000 C   0  0  0  0  0  0  0  0  0  0  0  0
   17.7486   -9.2374    0.0000 C   0  0  0  0  0  0  0  0  0  0  0  0
   18.4631   -9.6499    0.0000 C   0  0  0  0  0  0  0  0  0  0  0  0
   19.1776   -9.2374    0.0000 C   0  0  0  0  0  0  0  0  0  0  0  0
   19.8920   -9.6499    0.0000 C   0  0  0  0  0  0  0  0  0  0  0  0
   20.6065   -9.2374    0.0000 C   0  0  0  0  0  0  0  0  0  0  0  0
   21.3210   -9.6499    0.0000 C   0  0  0  0  0  0  0  0  0  0  0  0
   22.0355   -9.2374    0.0000 C   0  0  0  0  0  0  0  0  0  0  0  0
   22.7499   -9.6499    0.0000 C   0  0  0  0  0  0  0  0  0  0  0  0
   23.4644   -9.2374    0.0000 C   0  0  0  0  0  0  0  0  0  0  0  0
    2.7447   -9.6499    0.0000 O   0  0  0  0  0  0  0  0  0  0  0  0
  1  2  1  0  0  0  0
  2  3  1  0  0  0  0
  3  4  1  0  0  0  0
  4  5  1  0  0  0  0
  5  6  1  0  0  0  0
  6  7  1  0  0  0  0
  7  8  1  0  0  0  0
  8  9  1  0  0  0  0
  9 10  1  0  0  0  0
 10 11  1  0  0  0  0
 11 12  1  0  0  0  0
 12 13  1  0  0  0  0
 13 14  1  0  0  0  0
 14 15  1  0  0  0  0
 15 16  1  0  0  0  0
 16 17  1  0  0  0  0
 17 18  1  0  0  0  0
 18 19  1  0  0  0  0
 19 20  1  0  0  0  0
 20 21  1  0  0  0  0
 21 22  1  0  0  0  0
 22 23  1  0  0  0  0
 23 24  1  0  0  0  0
 24 25  1  0  0  0  0
 25 26  1  0  0  0  0
 26 27  1  0  0  0  0
 27 28  1  0  0  0  0
 28 29  1  0  0  0  0
  1 30  1  0  0  0  0
M  END
>  <cdx:fragmentId>
11491

$$$$
