243986.cdx
  Mrv1902 05222410222D          

 59 65  0  0  0  0            999 V2000
   10.8156   -9.5333    0.0000 C   0  0  0  0  0  0  0  0  0  0  0  0
   10.8194  -10.3583    0.0000 C   0  0  1  0  0  0  0  0  0  0  0  0
   11.5358  -10.7675    0.0000 C   0  0  0  0  0  0  0  0  0  0  0  0
   12.2483  -10.3517    0.0000 C   0  0  1  0  0  0  0  0  0  0  0  0
   12.2445   -9.5267    0.0000 C   0  0  2  0  0  0  0  0  0  0  0  0
   11.5282   -9.1175    0.0000 C   0  0  0  0  0  0  0  0  0  0  0  0
   12.9647  -10.7609    0.0000 C   0  0  0  0  0  0  0  0  0  0  0  0
   13.6773  -10.3451    0.0000 C   0  0  0  0  0  0  0  0  0  0  0  0
   13.6735   -9.5201    0.0000 C   0  0  2  0  0  0  0  0  0  0  0  0
   12.9571   -9.1109    0.0000 C   0  0  2  0  0  0  0  0  0  0  0  0
   14.3860   -9.1043    0.0000 C   0  0  1  0  0  0  0  0  0  0  0  0
   14.3822   -8.2794    0.0000 C   0  0  0  0  0  0  0  0  0  0  0  0
   13.6659   -7.8701    0.0000 C   0  0  0  0  0  0  0  0  0  0  0  0
   12.9533   -8.2859    0.0000 C   0  0  0  0  0  0  0  0  0  0  0  0
   15.1024   -9.5135    0.0000 C   0  0  0  0  0  0  0  0  0  0  0  0
   15.8150   -9.0978    0.0000 C   0  0  1  0  0  0  0  0  0  0  0  0
   15.8112   -8.2728    0.0000 C   0  0  2  0  0  0  0  0  0  0  0  0
   15.0948   -7.8636    0.0000 C   0  0  1  0  0  0  0  0  0  0  0  0
   16.5237   -7.8570    0.0000 C   0  0  0  0  0  0  0  0  0  0  0  0
   16.5199   -7.0320    0.0000 C   0  0  0  0  0  0  0  0  0  0  0  0
   15.8036   -6.6228    0.0000 C   0  0  0  0  0  0  0  0  0  0  0  0
   15.0910   -7.0386    0.0000 C   0  0  0  0  0  0  0  0  0  0  0  0
   11.1266  -11.4839    0.0000 C   0  0  0  0  0  0  0  0  0  0  0  0
   11.9516  -11.4801    0.0000 C   0  0  0  0  0  0  0  0  0  0  0  0
   15.3878   -5.9102    0.0000 C   0  0  0  0  0  0  0  0  0  0  0  0
   16.2128   -5.9064    0.0000 C   0  0  0  0  0  0  0  0  0  0  0  0
   16.5275   -8.6820    0.0000 C   0  0  0  0  0  0  0  0  0  0  0  0
   17.2401   -8.2662    0.0000 O   0  0  0  0  0  0  0  0  0  0  0  0
   16.5313   -9.5070    0.0000 O   0  0  0  0  0  0  0  0  0  0  0  0
   15.8188   -9.9228    0.0000 O   0  0  0  0  0  0  0  0  0  0  0  0
   14.3897   -9.9018    0.0000 C   0  0  0  0  0  0  0  0  0  0  0  0
   13.6695   -8.6660    0.0000 C   0  0  0  0  0  0  0  0  0  0  0  0
   10.1069  -10.7741    0.0000 O   0  0  0  0  0  0  0  0  0  0  0  0
   12.2407   -8.7017    0.0000 C   0  0  0  0  0  0  0  0  0  0  0  0
    8.6593   -9.1410    0.0000 C   0  0  2  0  0  0  0  0  0  0  0  0
    7.9475   -9.5579    0.0000 C   0  0  2  0  0  0  0  0  0  0  0  0
    7.9526  -10.3829    0.0000 C   0  0  1  0  0  0  0  0  0  0  0  0
    8.6697  -10.7909    0.0000 C   0  0  2  0  0  0  0  0  0  0  0  0
    9.3815  -10.3740    0.0000 C   0  0  1  0  0  0  0  0  0  0  0  0
    9.3764   -9.5490    0.0000 O   0  0  0  0  0  0  0  0  0  0  0  0
    8.6542   -8.3160    0.0000 C   0  0  0  0  0  0  0  0  0  0  0  0
    7.2407  -10.7999    0.0000 O   0  0  0  0  0  0  0  0  0  0  0  0
    7.2304   -9.1499    0.0000 O   0  0  0  0  0  0  0  0  0  0  0  0
    8.6748  -11.6159    0.0000 O   0  0  0  0  0  0  0  0  0  0  0  0
    7.9371   -7.9080    0.0000 O   0  0  0  0  0  0  0  0  0  0  0  0
   12.2521  -11.1767    0.0000 H   0  0  0  0  0  0  0  0  0  0  0  0
   12.9609   -9.9359    0.0000 H   0  0  0  0  0  0  0  0  0  0  0  0
   14.3784   -7.4544    0.0000 H   0  0  0  0  0  0  0  0  0  0  0  0
   17.9565   -8.6754    0.0000 C   0  0  2  0  0  0  0  0  0  0  0  0
   17.9622   -9.5004    0.0000 O   0  0  0  0  0  0  0  0  0  0  0  0
   18.6795   -9.9079    0.0000 C   0  0  1  0  0  0  0  0  0  0  0  0
   19.3911   -9.5004    0.0000 C   0  0  2  0  0  0  0  0  0  0  0  0
   19.3911   -8.6754    0.0000 C   0  0  1  0  0  0  0  0  0  0  0  0
   18.6795   -8.2678    0.0000 C   0  0  1  0  0  0  0  0  0  0  0  0
   18.6809  -10.7329    0.0000 C   0  0  0  0  0  0  0  0  0  0  0  0
   20.1048   -8.2616    0.0000 O   0  0  0  0  0  0  0  0  0  0  0  0
   18.6823   -7.4428    0.0000 O   0  0  0  0  0  0  0  0  0  0  0  0
   20.1048   -9.9141    0.0000 O   0  0  0  0  0  0  0  0  0  0  0  0
   19.3961  -11.1442    0.0000 O   0  0  0  0  0  0  0  0  0  0  0  0
  1  2  1  0  0  0  0
  2  3  1  0  0  0  0
  3  4  1  0  0  0  0
  4  5  1  0  0  0  0
  5  6  1  0  0  0  0
  6  1  1  0  0  0  0
  4  7  1  0  0  0  0
  7  8  1  0  0  0  0
  8  9  1  0  0  0  0
  9 10  1  0  0  0  0
 10  5  1  0  0  0  0
  9 11  1  0  0  0  0
 11 12  1  0  0  0  0
 12 13  2  0  0  0  0
 13 14  1  0  0  0  0
 14 10  1  0  0  0  0
 11 15  1  0  0  0  0
 15 16  1  0  0  0  0
 16 17  1  0  0  0  0
 17 18  1  0  0  0  0
 18 12  1  0  0  0  0
 17 19  1  0  0  0  0
 19 20  1  0  0  0  0
 20 21  1  0  0  0  0
 21 22  1  0  0  0  0
 22 18  1  0  0  0  0
  3 23  1  0  0  0  0
  3 24  1  0  0  0  0
 21 25  1  0  0  0  0
 21 26  1  0  0  0  0
 17 27  1  1  0  0  0
 27 28  1  0  0  0  0
 27 29  2  0  0  0  0
 16 30  1  1  0  0  0
 11 31  1  6  0  0  0
  9 32  1  1  0  0  0
  2 33  1  1  0  0  0
  5 34  1  1  0  0  0
 35 36  1  0  0  0  0
 36 37  1  0  0  0  0
 37 38  1  0  0  0  0
 38 39  1  0  0  0  0
 39 40  1  0  0  0  0
 40 35  1  0  0  0  0
 35 41  1  1  0  0  0
 37 42  1  1  0  0  0
 36 43  1  6  0  0  0
 38 44  1  6  0  0  0
 41 45  1  0  0  0  0
 39 33  1  1  0  0  0
  4 46  1  6  0  0  0
 10 47  1  6  0  0  0
 18 48  1  1  0  0  0
 49 28  1  1  0  0  0
 49 50  1  0  0  0  0
 50 51  1  0  0  0  0
 51 52  1  0  0  0  0
 52 53  1  0  0  0  0
 53 54  1  0  0  0  0
 54 49  1  0  0  0  0
 51 55  1  1  0  0  0
 53 56  1  1  0  0  0
 54 57  1  6  0  0  0
 52 58  1  6  0  0  0
 55 59  1  0  0  0  0
M  END
>  <cdx:fragmentId>
5

$$$$
