24417.cdx
  Mrv1902 05222410282D          

  8  7  0  0  0  0            999 V2000
    6.0447  -10.0562    0.0000 C   0  0  0  0  0  0  0  0  0  0  0  0
    7.4092   -6.7290    0.0000 O   0  0  0  0  0  0  0  0  0  0  0  0
    7.4252   -7.5539    0.0000 C   0  0  0  0  0  0  0  0  0  0  0  0
    6.7189   -7.9802    0.0000 C   0  0  2  0  0  0  0  0  0  0  0  0
    6.7349   -8.8050    0.0000 C   0  0  0  0  0  0  0  0  0  0  0  0
    6.0286   -9.2313    0.0000 S   0  0  0  0  0  0  0  0  0  0  0  0
    8.1476   -7.9524    0.0000 O   0  0  0  0  0  0  0  0  0  0  0  0
    5.9966   -7.5816    0.0000 N   0  0  0  0  0  0  0  0  0  0  0  0
  6  1  1  0  0  0  0
  3  2  2  0  0  0  0
  4  3  1  0  0  0  0
  5  4  1  0  0  0  0
  6  5  1  0  0  0  0
  3  7  1  0  0  0  0
  4  8  1  6  0  0  0
M  END
>  <cdx:fragmentId>
3

$$$$
