24434.cdx
  Mrv1902 05222410192D          

  5  3  0  0  0  0            999 V2000
    4.3494   -4.2564    0.0000 K   0  3  0  0  0  0  0  0  0  0  0  0
    2.9205   -4.2564    0.0000 N   0  3  0  0  0  0  0  0  0  0  0  0
    2.2060   -4.6689    0.0000 O   0  5  0  0  0  0  0  0  0  0  0  0
    2.9205   -3.4314    0.0000 O   0  0  0  0  0  0  0  0  0  0  0  0
    3.6350   -4.6689    0.0000 O   0  5  0  0  0  0  0  0  0  0  0  0
  2  3  1  0  0  0  0
  2  4  2  0  0  0  0
  2  5  1  0  0  0  0
M  CHG  4   1   1   2   1   3  -1   5  -1
M  END
>  <cdx:groupId>
15

>  <cdx:fragmentId>
7

$$$$
