2443.cdx
  Mrv1902 05222410232D          

  9  8  0  0  0  0            999 V2000
    8.9818   -9.0258    0.0000 C   0  0  0  0  0  0  0  0  0  0  0  0
    8.2674   -8.6133    0.0000 C   0  0  0  0  0  0  0  0  0  0  0  0
    7.5529   -9.0258    0.0000 C   0  0  0  0  0  0  0  0  0  0  0  0
    6.8384   -8.6133    0.0000 C   0  0  0  0  0  0  0  0  0  0  0  0
    6.1239   -9.0258    0.0000 C   0  0  0  0  0  0  0  0  0  0  0  0
    5.4095   -8.6133    0.0000 C   0  0  0  0  0  0  0  0  0  0  0  0
    4.6950   -9.0258    0.0000 C   0  0  0  0  0  0  0  0  0  0  0  0
    5.4095   -7.7883    0.0000 C   0  0  0  0  0  0  0  0  0  0  0  0
    9.6963   -8.6133    0.0000 C   0  0  0  0  0  0  0  0  0  0  0  0
  1  2  2  0  0  0  0
  2  3  1  0  0  0  0
  3  4  2  0  0  0  0
  4  5  1  0  0  0  0
  5  6  2  0  0  0  0
  6  7  1  0  0  0  0
  6  8  1  0  0  0  0
  1  9  1  0  0  0  0
M  END
>  <cdx:fragmentId>
5

$$$$
