24455.cdx
  Mrv1902 05222410232D          

 30 30  0  0  0  0            999 V2000
   14.4377   -9.7817    0.0000 C   0  0  0  0  0  0  0  0  0  0  0  0
   15.1521  -10.1942    0.0000 C   0  0  0  0  0  0  0  0  0  0  0  0
   16.5811  -10.1942    0.0000 O   0  0  0  0  0  0  0  0  0  0  0  0
   15.8666   -9.7817    0.0000 C   0  0  0  0  0  0  0  0  0  0  0  0
   17.2956   -8.9567    0.0000 C   0  0  0  0  0  0  0  0  0  0  0  0
   16.5811   -8.5442    0.0000 O   0  0  0  0  0  0  0  0  0  0  0  0
   15.8666   -8.9567    0.0000 C   0  0  0  0  0  0  0  0  0  0  0  0
   15.1521   -8.5442    0.0000 C   0  0  0  0  0  0  0  0  0  0  0  0
   14.4377   -8.9567    0.0000 C   0  0  0  0  0  0  0  0  0  0  0  0
   13.7232   -8.5442    0.0000 C   0  0  0  0  0  0  0  0  0  0  0  0
   13.0087   -8.9567    0.0000 N   0  0  0  0  0  0  0  0  0  0  0  0
   12.2943   -7.7192    0.0000 O   0  0  0  0  0  0  0  0  0  0  0  0
    0.1482   -8.9567    0.0000 C   0  0  0  0  0  0  0  0  0  0  0  0
    0.8627   -8.5442    0.0000 C   0  0  0  0  0  0  0  0  0  0  0  0
    1.5772   -8.9567    0.0000 C   0  0  0  0  0  0  0  0  0  0  0  0
    2.2917   -8.5442    0.0000 C   0  0  0  0  0  0  0  0  0  0  0  0
    3.0061   -8.9567    0.0000 C   0  0  0  0  0  0  0  0  0  0  0  0
    3.7206   -8.5442    0.0000 C   0  0  0  0  0  0  0  0  0  0  0  0
    4.4351   -8.9567    0.0000 C   0  0  0  0  0  0  0  0  0  0  0  0
    5.1495   -8.5442    0.0000 C   0  0  0  0  0  0  0  0  0  0  0  0
    5.8640   -8.9567    0.0000 C   0  0  0  0  0  0  0  0  0  0  0  0
    6.5785   -8.5442    0.0000 C   0  0  0  0  0  0  0  0  0  0  0  0
    7.2930   -8.9567    0.0000 C   0  0  0  0  0  0  0  0  0  0  0  0
    8.0074   -8.5442    0.0000 C   0  0  0  0  0  0  0  0  0  0  0  0
    8.7219   -8.9567    0.0000 C   0  0  0  0  0  0  0  0  0  0  0  0
    9.4364   -8.5442    0.0000 C   0  0  0  0  0  0  0  0  0  0  0  0
   10.1508   -8.9567    0.0000 C   0  0  0  0  0  0  0  0  0  0  0  0
   10.8653   -8.5442    0.0000 C   0  0  0  0  0  0  0  0  0  0  0  0
   11.5798   -8.9567    0.0000 C   0  0  0  0  0  0  0  0  0  0  0  0
   12.2943   -8.5442    0.0000 C   0  0  0  0  0  0  0  0  0  0  0  0
 11 10  1  0  0  0  0
  9  1  2  0  0  0  0
  2  1  1  0  0  0  0
  4  2  2  0  0  0  0
  4  3  1  0  0  0  0
  7  4  1  0  0  0  0
  6  5  1  0  0  0  0
  7  6  1  0  0  0  0
  8  7  2  0  0  0  0
  9  8  1  0  0  0  0
 10  9  1  0  0  0  0
 30 11  1  0  0  0  0
 30 12  2  0  0  0  0
 14 13  1  0  0  0  0
 15 14  1  0  0  0  0
 16 15  1  0  0  0  0
 17 16  1  0  0  0  0
 18 17  1  0  0  0  0
 19 18  1  0  0  0  0
 20 19  1  0  0  0  0
 21 20  1  0  0  0  0
 22 21  1  0  0  0  0
 23 22  1  0  0  0  0
 24 23  1  0  0  0  0
 25 24  1  0  0  0  0
 26 25  1  0  0  0  0
 27 26  1  0  0  0  0
 28 27  1  0  0  0  0
 29 28  1  0  0  0  0
 30 29  1  0  0  0  0
M  END
>  <cdx:fragmentId>
5

$$$$
