24473.cdx
  Mrv1902 05222410242D          

 11 11  0  0  0  0            999 V2000
    5.8996   -5.5716    0.0000 O   0  0  0  0  0  0  0  0  0  0  0  0
    7.3216   -6.4085    0.0000 C   0  0  0  0  0  0  0  0  0  0  0  0
    7.3285   -5.5835    0.0000 C   0  0  2  0  0  0  0  0  0  0  0  0
    8.0464   -5.1770    0.0000 C   0  0  0  0  0  0  0  0  0  0  0  0
    8.0533   -4.3520    0.0000 C   0  0  0  0  0  0  0  0  0  0  0  0
    8.0671   -2.7021    0.0000 C   0  0  0  0  0  0  0  0  0  0  0  0
    6.6382   -2.6902    0.0000 C   0  0  0  0  0  0  0  0  0  0  0  0
    7.3492   -3.1086    0.0000 C   0  0  0  0  0  0  0  0  0  0  0  0
    7.3423   -3.9336    0.0000 C   0  0  1  0  0  0  0  0  0  0  0  0
    6.6244   -4.3401    0.0000 C   0  0  0  0  0  0  0  0  0  0  0  0
    6.6175   -5.1651    0.0000 C   0  0  0  0  0  0  0  0  0  0  0  0
 11  1  2  0  0  0  0
 11  3  1  0  0  0  0
  3  2  1  1  0  0  0
  4  3  1  0  0  0  0
  5  4  1  0  0  0  0
  9  5  1  0  0  0  0
  8  6  1  0  0  0  0
  8  7  2  0  0  0  0
  9  8  1  6  0  0  0
 10  9  1  0  0  0  0
 11 10  1  0  0  0  0
M  END
>  <cdx:groupId>
35

>  <cdx:fragmentId>
5

$$$$
