245246.cdx
  Mrv1902 05222410242D          

 26 29  0  0  0  0            999 V2000
    5.2359   -8.0556    0.0000 O   0  0  0  0  0  0  0  0  0  0  0  0
    4.7510   -8.7230    0.0000 C   0  0  0  0  0  0  0  0  0  0  0  0
    5.2359   -9.3905    0.0000 C   0  0  0  0  0  0  0  0  0  0  0  0
    6.0206   -9.1355    0.0000 C   0  0  0  0  0  0  0  0  0  0  0  0
    6.7350   -9.5480    0.0000 C   0  0  0  0  0  0  0  0  0  0  0  0
    7.4495   -9.1355    0.0000 C   0  0  0  0  0  0  0  0  0  0  0  0
    7.4495   -8.3105    0.0000 C   0  0  1  0  0  0  0  0  0  0  0  0
    6.7350   -7.8980    0.0000 C   0  0  0  0  0  0  0  0  0  0  0  0
    6.0206   -8.3105    0.0000 C   0  0  1  0  0  0  0  0  0  0  0  0
    8.1640   -9.5480    0.0000 C   0  0  0  0  0  0  0  0  0  0  0  0
    8.8784   -9.1355    0.0000 C   0  0  0  0  0  0  0  0  0  0  0  0
    8.8784   -8.3105    0.0000 C   0  0  2  0  0  0  0  0  0  0  0  0
    9.5929   -7.8980    0.0000 C   0  0  0  0  0  0  0  0  0  0  0  0
    9.5929   -7.0730    0.0000 C   0  0  1  0  0  0  0  0  0  0  0  0
    8.8784   -6.6605    0.0000 C   0  0  0  0  0  0  0  0  0  0  0  0
    8.1640   -7.0730    0.0000 C   0  0  0  0  0  0  0  0  0  0  0  0
    8.1640   -7.8980    0.0000 C   0  0  1  0  0  0  0  0  0  0  0  0
    3.9260   -8.7230    0.0000 O   0  0  0  0  0  0  0  0  0  0  0  0
    8.1640   -8.7230    0.0000 C   0  0  0  0  0  0  0  0  0  0  0  0
    4.9810  -10.1751    0.0000 C   0  0  0  0  0  0  0  0  0  0  0  0
   10.4179   -7.8980    0.0000 C   0  0  0  0  0  0  0  0  0  0  0  0
   10.0054   -8.6125    0.0000 C   0  0  0  0  0  0  0  0  0  0  0  0
   10.3074   -6.6605    0.0000 O   0  0  0  0  0  0  0  0  0  0  0  0
    9.5929   -8.7230    0.0000 H   0  0  0  0  0  0  0  0  0  0  0  0
    5.9343   -7.4900    0.0000 H   0  0  0  0  0  0  0  0  0  0  0  0
    7.4495   -7.4855    0.0000 H   0  0  0  0  0  0  0  0  0  0  0  0
  1  2  1  0  0  0  0
  2  3  1  0  0  0  0
  3  4  2  0  0  0  0
  4  5  1  0  0  0  0
  5  6  2  0  0  0  0
  6  7  1  0  0  0  0
  7  8  1  0  0  0  0
  8  9  1  0  0  0  0
  4  9  1  0  0  0  0
  1  9  1  0  0  0  0
 10 11  1  0  0  0  0
 11 12  1  0  0  0  0
 12 13  1  0  0  0  0
 13 14  1  0  0  0  0
 14 15  1  0  0  0  0
 15 16  1  0  0  0  0
 16 17  1  0  0  0  0
 12 17  1  0  0  0  0
 10  6  1  0  0  0  0
 17  7  1  0  0  0  0
  2 18  2  0  0  0  0
 17 19  1  1  0  0  0
  3 20  1  0  0  0  0
 13 21  1  0  0  0  0
 13 22  1  0  0  0  0
 14 23  1  1  0  0  0
 12 24  1  6  0  0  0
  9 25  1  1  0  0  0
  7 26  1  6  0  0  0
M  END
>  <cdx:groupId>
43068

>  <cdx:fragmentId>
42990

$$$$
