245467.cdx
  Mrv1902 05222410202D          

 35 37  0  0  0  0            999 V2000
    9.8298  -12.8546    0.0000 C   0  0  0  0  0  0  0  0  0  0  0  0
    9.8298  -13.6796    0.0000 C   0  0  0  0  0  0  0  0  0  0  0  0
   10.5443  -14.0921    0.0000 C   0  0  0  0  0  0  0  0  0  0  0  0
   10.5443  -14.9171    0.0000 C   0  0  0  0  0  0  0  0  0  0  0  0
   10.5443  -12.4421    0.0000 O   0  0  0  0  0  0  0  0  0  0  0  0
    7.6163  -11.4595    0.0000 C   0  0  2  0  0  0  0  0  0  0  0  0
    7.7878  -12.2665    0.0000 O   0  0  0  0  0  0  0  0  0  0  0  0
    7.0032  -12.0115    0.0000 C   0  0  0  0  0  0  0  0  0  0  0  0
    8.4009  -12.0296    0.0000 H   0  0  0  0  0  0  0  0  0  0  0  0
   10.5443   -7.4921    0.0000 C   0  0  0  0  0  0  0  0  0  0  0  0
    9.1154   -7.4921    0.0000 O   0  0  0  0  0  0  0  0  0  0  0  0
    9.8298   -7.9046    0.0000 C   0  0  0  0  0  0  0  0  0  0  0  0
    9.8298   -8.7296    0.0000 O   0  0  0  0  0  0  0  0  0  0  0  0
    9.1154   -9.1421    0.0000 C   0  0  0  0  0  0  0  0  0  0  0  0
   11.2588  -13.6796    0.0000 C   0  0  0  0  0  0  0  0  0  0  0  0
    9.1154  -12.4421    0.0000 O   0  0  0  0  0  0  0  0  0  0  0  0
    7.1313  -10.7921    0.0000 C   0  0  2  0  0  0  0  0  0  0  0  0
    7.6163  -10.1246    0.0000 C   0  0  0  0  0  0  0  0  0  0  0  0
    9.8298  -11.2046    0.0000 O   0  0  0  0  0  0  0  0  0  0  0  0
    9.8298  -10.3796    0.0000 C   0  0  0  0  0  0  0  0  0  0  0  0
    9.1154   -9.9671    0.0000 C   0  0  0  0  0  0  0  0  0  0  0  0
    8.4009  -10.3796    0.0000 C   0  0  0  0  0  0  0  0  0  0  0  0
    8.4009  -11.2046    0.0000 C   0  0  2  0  0  0  0  0  0  0  0  0
    9.1154  -11.6171    0.0000 C   0  0  2  0  0  0  0  0  0  0  0  0
    3.7530  -11.1151    0.0000 C   0  0  0  0  0  0  0  0  0  0  0  0
    6.3063  -10.7921    0.0000 O   0  0  0  0  0  0  0  0  0  0  0  0
    5.5817   -9.5605    0.0000 O   0  0  0  0  0  0  0  0  0  0  0  0
    4.5662   -9.6794    0.0000 C   0  0  0  0  0  0  0  0  0  0  0  0
    4.1596  -10.3973    0.0000 C   0  0  0  0  0  0  0  0  0  0  0  0
    4.8774  -10.8039    0.0000 C   0  0  0  0  0  0  0  0  0  0  0  0
    5.5885  -10.3855    0.0000 C   0  0  0  0  0  0  0  0  0  0  0  0
    3.4417   -9.9907    0.0000 O   0  0  0  0  0  0  0  0  0  0  0  0
    2.0128  -10.0025    0.0000 C   0  0  0  0  0  0  0  0  0  0  0  0
    2.7375  -11.2340    0.0000 O   0  0  0  0  0  0  0  0  0  0  0  0
    2.7307  -10.4091    0.0000 C   0  0  0  0  0  0  0  0  0  0  0  0
 23  9  1  1  0  0  0
 17 26  1  1  0  0  0
 21 14  1  0  0  0  0
 14 13  1  0  0  0  0
 13 12  1  0  0  0  0
 12 10  1  0  0  0  0
 12 11  2  0  0  0  0
 24 16  1  1  0  0  0
 16  1  1  0  0  0  0
 22 18  2  0  0  0  0
 23  6  1  0  0  0  0
 17  6  1  0  0  0  0
 18 17  1  0  0  0  0
 24 19  1  0  0  0  0
 20 19  1  0  0  0  0
 21 20  2  0  0  0  0
 22 21  1  0  0  0  0
 23 22  1  0  0  0  0
 24 23  1  0  0  0  0
 29 25  1  0  0  0  0
 31 26  1  0  0  0  0
 31 27  2  0  0  0  0
 29 28  1  0  0  0  0
 30 29  1  0  0  0  0
 31 30  1  0  0  0  0
  1  2  1  0  0  0  0
  2  3  1  0  0  0  0
  3  4  1  0  0  0  0
  1  5  2  0  0  0  0
  3 15  1  0  0  0  0
  7  8  1  0  0  0  0
  6  7  1  6  0  0  0
  6  8  1  0  0  0  0
 29 32  1  0  0  0  0
 35 33  1  0  0  0  0
 32 35  1  0  0  0  0
 35 34  2  0  0  0  0
M  END
>  <cdx:fragmentId>
11516

$$$$
