101245403.cdx
  Mrv1902 05222410192D          

 20 23  0  0  0  0            999 V2000
    6.9110  -13.8594    0.0000 C   0  0  0  0  0  0  0  0  0  0  0  0
    6.9110  -14.6844    0.0000 C   0  0  0  0  0  0  0  0  0  0  0  0
    6.1965  -15.0969    0.0000 C   0  0  0  0  0  0  0  0  0  0  0  0
    5.4821  -14.6844    0.0000 C   0  0  0  0  0  0  0  0  0  0  0  0
    4.7676  -15.0969    0.0000 C   0  0  0  0  0  0  0  0  0  0  0  0
    4.0531  -14.6844    0.0000 C   0  0  0  0  0  0  0  0  0  0  0  0
    4.0531  -13.8594    0.0000 C   0  0  0  0  0  0  0  0  0  0  0  0
    4.7676  -13.4469    0.0000 C   0  0  0  0  0  0  0  0  0  0  0  0
    5.4821  -13.8594    0.0000 C   0  0  0  0  0  0  0  0  0  0  0  0
    6.1965  -13.4469    0.0000 O   0  0  0  0  0  0  0  0  0  0  0  0
    7.6255  -15.9219    0.0000 C   0  0  0  0  0  0  0  0  0  0  0  0
    7.6255  -15.0969    0.0000 C   0  0  0  0  0  0  0  0  0  0  0  0
    8.3400  -14.6844    0.0000 C   0  0  0  0  0  0  0  0  0  0  0  0
    9.0544  -15.0969    0.0000 C   0  0  0  0  0  0  0  0  0  0  0  0
    9.7689  -14.6844    0.0000 C   0  0  0  0  0  0  0  0  0  0  0  0
   10.4834  -15.0969    0.0000 C   0  0  0  0  0  0  0  0  0  0  0  0
   10.4834  -15.9219    0.0000 C   0  0  0  0  0  0  0  0  0  0  0  0
    9.7689  -16.3344    0.0000 C   0  0  0  0  0  0  0  0  0  0  0  0
    9.0544  -15.9219    0.0000 C   0  0  0  0  0  0  0  0  0  0  0  0
    8.3400  -16.3344    0.0000 O   0  0  0  0  0  0  0  0  0  0  0  0
  1  2  1  0  0  0  0
  2  3  1  0  0  0  0
  3  4  1  0  0  0  0
  4  5  1  0  0  0  0
  5  6  2  0  0  0  0
  6  7  1  0  0  0  0
  7  8  2  0  0  0  0
  8  9  1  0  0  0  0
  4  9  2  0  0  0  0
  9 10  1  0  0  0  0
  1 10  1  0  0  0  0
 11 12  1  0  0  0  0
 12 13  1  0  0  0  0
 13 14  1  0  0  0  0
 14 15  1  0  0  0  0
 15 16  2  0  0  0  0
 16 17  1  0  0  0  0
 17 18  2  0  0  0  0
 18 19  1  0  0  0  0
 14 19  2  0  0  0  0
 19 20  1  0  0  0  0
 11 20  1  0  0  0  0
  2 12  1  0  0  0  0
M  END
>  <cdx:groupId>
237323

>  <cdx:fragmentId>
237283

$$$$
