2454.cdx
  Mrv1902 05222410242D          

 26 27  0  0  0  0            999 V2000
    4.8634   -5.7462    0.0000 C   0  0  0  0  0  0  0  0  0  0  0  0
    5.5778   -6.1587    0.0000 C   0  0  0  0  0  0  0  0  0  0  0  0
    6.2923   -5.7462    0.0000 C   0  0  0  0  0  0  0  0  0  0  0  0
    7.0068   -6.1587    0.0000 C   0  0  0  0  0  0  0  0  0  0  0  0
    7.7213   -5.7462    0.0000 C   0  0  0  0  0  0  0  0  0  0  0  0
    8.4357   -6.1587    0.0000 C   0  0  0  0  0  0  0  0  0  0  0  0
    9.1502   -5.7462    0.0000 C   0  0  0  0  0  0  0  0  0  0  0  0
    4.1489   -6.1587    0.0000 C   0  0  0  0  0  0  0  0  0  0  0  0
    9.8647   -6.1587    0.0000 C   0  0  0  0  0  0  0  0  0  0  0  0
    4.1489   -6.9837    0.0000 C   0  0  0  0  0  0  0  0  0  0  0  0
    3.4344   -7.3962    0.0000 C   0  0  0  0  0  0  0  0  0  0  0  0
    2.7200   -6.9837    0.0000 C   0  0  0  0  0  0  0  0  0  0  0  0
    2.7200   -6.1587    0.0000 C   0  0  0  0  0  0  0  0  0  0  0  0
    3.4344   -5.7462    0.0000 C   0  0  0  0  0  0  0  0  0  0  0  0
   10.5791   -5.7462    0.0000 C   0  0  0  0  0  0  0  0  0  0  0  0
   11.2936   -6.1587    0.0000 C   0  0  0  0  0  0  0  0  0  0  0  0
   11.2936   -6.9837    0.0000 C   0  0  0  0  0  0  0  0  0  0  0  0
   10.5791   -7.3962    0.0000 C   0  0  0  0  0  0  0  0  0  0  0  0
    9.8647   -6.9837    0.0000 C   0  0  0  0  0  0  0  0  0  0  0  0
    3.4344   -8.2212    0.0000 O   0  0  0  0  0  0  0  0  0  0  0  0
    2.0055   -7.3962    0.0000 O   0  0  0  0  0  0  0  0  0  0  0  0
   10.5791   -8.2212    0.0000 O   0  0  0  0  0  0  0  0  0  0  0  0
   12.0081   -7.3962    0.0000 O   0  0  0  0  0  0  0  0  0  0  0  0
    6.2923   -4.9212    0.0000 O   0  0  0  0  0  0  0  0  0  0  0  0
    2.7200   -8.6337    0.0000 C   0  0  0  0  0  0  0  0  0  0  0  0
   11.2936   -8.6337    0.0000 C   0  0  0  0  0  0  0  0  0  0  0  0
  1  2  2  0  0  0  0
  2  3  1  0  0  0  0
  3  4  1  0  0  0  0
  4  5  2  0  0  0  0
  5  6  1  0  0  0  0
  6  7  2  0  0  0  0
  1  8  1  0  0  0  0
  7  9  1  0  0  0  0
  8 10  2  0  0  0  0
 10 11  1  0  0  0  0
 11 12  2  0  0  0  0
 12 13  1  0  0  0  0
 13 14  2  0  0  0  0
 14  8  1  0  0  0  0
  9 15  2  0  0  0  0
 15 16  1  0  0  0  0
 16 17  2  0  0  0  0
 17 18  1  0  0  0  0
 18 19  2  0  0  0  0
 19  9  1  0  0  0  0
 11 20  1  0  0  0  0
 12 21  1  0  0  0  0
 18 22  1  0  0  0  0
 17 23  1  0  0  0  0
  3 24  2  0  0  0  0
 20 25  1  0  0  0  0
 22 26  1  0  0  0  0
M  END
>  <cdx:fragmentId>
3

$$$$
