245691.cdx
  Mrv1902 05222410242D          

 37 41  0  0  0  0            999 V2000
    9.1051   -7.8602    0.0000 C   0  0  1  0  0  0  0  0  0  0  0  0
    9.8195   -8.2727    0.0000 C   0  0  1  0  0  0  0  0  0  0  0  0
    9.8195   -9.0977    0.0000 C   0  0  0  0  0  0  0  0  0  0  0  0
    9.1051   -9.5102    0.0000 C   0  0  0  0  0  0  0  0  0  0  0  0
    8.3906   -9.0977    0.0000 C   0  0  1  0  0  0  0  0  0  0  0  0
    7.6761   -9.5102    0.0000 C   0  0  2  0  0  0  0  0  0  0  0  0
    7.6761  -10.3352    0.0000 C   0  0  0  0  0  0  0  0  0  0  0  0
    6.9616  -10.7477    0.0000 C   0  0  0  0  0  0  0  0  0  0  0  0
    6.2472  -10.3352    0.0000 C   0  0  1  0  0  0  0  0  0  0  0  0
    5.5327  -10.7477    0.0000 C   0  0  0  0  0  0  0  0  0  0  0  0
    4.8182  -10.3352    0.0000 C   0  0  0  0  0  0  0  0  0  0  0  0
    4.8182   -9.5102    0.0000 C   0  0  0  0  0  0  0  0  0  0  0  0
    5.5327   -9.0977    0.0000 C   0  0  0  0  0  0  0  0  0  0  0  0
    6.2472   -9.5102    0.0000 C   0  0  2  0  0  0  0  0  0  0  0  0
    6.9616   -9.0977    0.0000 C   0  0  1  0  0  0  0  0  0  0  0  0
    6.9616   -8.2727    0.0000 C   0  0  0  0  0  0  0  0  0  0  0  0
    7.6761   -7.8602    0.0000 C   0  0  0  0  0  0  0  0  0  0  0  0
    8.3906   -8.2727    0.0000 C   0  0  2  0  0  0  0  0  0  0  0  0
   10.4326   -7.7207    0.0000 C   0  0  0  0  0  0  0  0  0  0  0  0
   10.0971   -6.9670    0.0000 C   0  0  0  0  0  0  0  0  0  0  0  0
    9.2766   -7.0532    0.0000 C   0  0  1  0  0  0  0  0  0  0  0  0
   10.5732   -8.6083    0.0000 C   0  0  0  0  0  0  0  0  0  0  0  0
   10.5732   -9.4333    0.0000 O   0  0  0  0  0  0  0  0  0  0  0  0
   11.2406   -8.1233    0.0000 O   0  0  0  0  0  0  0  0  0  0  0  0
    8.9795   -5.6555    0.0000 C   0  0  0  0  0  0  0  0  0  0  0  0
    8.7246   -6.4401    0.0000 C   0  0  0  0  0  0  0  0  0  0  0  0
    7.9176   -6.6117    0.0000 C   0  0  0  0  0  0  0  0  0  0  0  0
    4.1038  -10.7477    0.0000 O   0  0  0  0  0  0  0  0  0  0  0  0
    6.2472   -8.6852    0.0000 C   0  0  0  0  0  0  0  0  0  0  0  0
    5.9452  -11.4622    0.0000 C   0  0  0  0  0  0  0  0  0  0  0  0
    5.1202  -11.4622    0.0000 C   0  0  0  0  0  0  0  0  0  0  0  0
    7.6761   -8.6852    0.0000 C   0  0  0  0  0  0  0  0  0  0  0  0
    8.3906   -9.9227    0.0000 C   0  0  0  0  0  0  0  0  0  0  0  0
    6.2472  -11.1602    0.0000 H   0  0  0  0  0  0  0  0  0  0  0  0
    6.9616   -9.9227    0.0000 H   0  0  0  0  0  0  0  0  0  0  0  0
    8.3906   -7.4477    0.0000 H   0  0  0  0  0  0  0  0  0  0  0  0
    9.1051   -8.6852    0.0000 H   0  0  0  0  0  0  0  0  0  0  0  0
  1  2  1  0  0  0  0
  2  3  1  0  0  0  0
  3  4  1  0  0  0  0
  4  5  1  0  0  0  0
  5  6  1  0  0  0  0
  6  7  1  0  0  0  0
  7  8  1  0  0  0  0
  8  9  1  0  0  0  0
  9 10  1  0  0  0  0
 10 11  1  0  0  0  0
 11 12  1  0  0  0  0
 12 13  1  0  0  0  0
 13 14  1  0  0  0  0
  9 14  1  0  0  0  0
 14 15  1  0  0  0  0
  6 15  1  0  0  0  0
 15 16  1  0  0  0  0
 16 17  1  0  0  0  0
 17 18  1  0  0  0  0
  5 18  1  0  0  0  0
  1 18  1  0  0  0  0
 19 20  1  0  0  0  0
 20 21  1  0  0  0  0
 21  1  1  0  0  0  0
 19  2  1  0  0  0  0
 22 23  2  0  0  0  0
 22 24  1  0  0  0  0
  2 22  1  1  0  0  0
 25 26  2  0  0  0  0
 26 27  1  0  0  0  0
 21 26  1  6  0  0  0
 11 28  2  0  0  0  0
 14 29  1  1  0  0  0
 10 30  1  0  0  0  0
 10 31  1  0  0  0  0
  6 32  1  1  0  0  0
  5 33  1  6  0  0  0
  9 34  1  6  0  0  0
 15 35  1  6  0  0  0
 18 36  1  1  0  0  0
  1 37  1  6  0  0  0
M  END
>  <cdx:fragmentId>
56486

$$$$
