2457.cdx
  Mrv1902 05222410232D          

 27 28  0  0  0  0            999 V2000
    4.7728   -3.6849    0.0000 C   0  0  0  0  0  0  0  0  0  0  0  0
    5.4873   -4.0974    0.0000 C   0  0  0  0  0  0  0  0  0  0  0  0
    6.2018   -3.6849    0.0000 C   0  0  0  0  0  0  0  0  0  0  0  0
    6.9163   -4.0974    0.0000 C   0  0  0  0  0  0  0  0  0  0  0  0
    7.6307   -3.6849    0.0000 C   0  0  0  0  0  0  0  0  0  0  0  0
    8.3452   -4.0974    0.0000 C   0  0  0  0  0  0  0  0  0  0  0  0
    9.0597   -3.6849    0.0000 C   0  0  0  0  0  0  0  0  0  0  0  0
    6.2018   -2.8599    0.0000 O   0  0  0  0  0  0  0  0  0  0  0  0
    7.6307   -2.8599    0.0000 O   0  0  0  0  0  0  0  0  0  0  0  0
    9.7741   -4.0974    0.0000 C   0  0  0  0  0  0  0  0  0  0  0  0
   10.4886   -3.6849    0.0000 C   0  0  0  0  0  0  0  0  0  0  0  0
   11.2031   -4.0974    0.0000 C   0  0  0  0  0  0  0  0  0  0  0  0
   11.2031   -4.9224    0.0000 C   0  0  0  0  0  0  0  0  0  0  0  0
   10.4886   -5.3349    0.0000 C   0  0  0  0  0  0  0  0  0  0  0  0
    9.7741   -4.9224    0.0000 C   0  0  0  0  0  0  0  0  0  0  0  0
   11.9176   -3.6849    0.0000 O   0  0  0  0  0  0  0  0  0  0  0  0
   12.6320   -4.0974    0.0000 C   0  0  0  0  0  0  0  0  0  0  0  0
   11.9176   -5.3349    0.0000 O   0  0  0  0  0  0  0  0  0  0  0  0
    4.0584   -4.0974    0.0000 C   0  0  0  0  0  0  0  0  0  0  0  0
    3.3439   -3.6849    0.0000 C   0  0  0  0  0  0  0  0  0  0  0  0
    2.6294   -4.0974    0.0000 C   0  0  0  0  0  0  0  0  0  0  0  0
    2.6294   -4.9224    0.0000 C   0  0  0  0  0  0  0  0  0  0  0  0
    3.3439   -5.3349    0.0000 C   0  0  0  0  0  0  0  0  0  0  0  0
    4.0584   -4.9224    0.0000 C   0  0  0  0  0  0  0  0  0  0  0  0
    1.9150   -3.6849    0.0000 O   0  0  0  0  0  0  0  0  0  0  0  0
    1.2005   -4.0974    0.0000 C   0  0  0  0  0  0  0  0  0  0  0  0
    1.9150   -5.3349    0.0000 O   0  0  0  0  0  0  0  0  0  0  0  0
  1  2  1  0  0  0  0
  2  3  1  0  0  0  0
  3  4  1  0  0  0  0
  4  5  1  0  0  0  0
  5  6  1  0  0  0  0
  6  7  1  0  0  0  0
  3  8  2  0  0  0  0
  5  9  2  0  0  0  0
 10 11  1  0  0  0  0
 11 12  2  0  0  0  0
 12 13  1  0  0  0  0
 13 14  2  0  0  0  0
 14 15  1  0  0  0  0
 10 15  2  0  0  0  0
 16 17  1  0  0  0  0
 12 16  1  0  0  0  0
 13 18  1  0  0  0  0
  7 10  1  0  0  0  0
 19 20  1  0  0  0  0
 20 21  2  0  0  0  0
 21 22  1  0  0  0  0
 22 23  2  0  0  0  0
 23 24  1  0  0  0  0
 19 24  2  0  0  0  0
 25 26  1  0  0  0  0
 21 25  1  0  0  0  0
 22 27  1  0  0  0  0
  1 19  1  0  0  0  0
M  END
>  <cdx:fragmentId>
4344

$$$$
