24585.cdx
  Mrv1902 05222410182D          

 11 11  0  0  0  0            999 V2000
    3.4955   -3.9256    0.0000 C   0  0  0  0  0  0  0  0  0  0  0  0
    3.4955   -3.1006    0.0000 C   0  0  0  0  0  0  0  0  0  0  0  0
    4.2100   -2.6881    0.0000 C   0  0  0  0  0  0  0  0  0  0  0  0
    4.9245   -3.1006    0.0000 C   0  0  0  0  0  0  0  0  0  0  0  0
    4.9245   -3.9256    0.0000 C   0  0  0  0  0  0  0  0  0  0  0  0
    4.2100   -4.3381    0.0000 C   0  0  0  0  0  0  0  0  0  0  0  0
    2.7810   -4.3381    0.0000 O   0  0  0  0  0  0  0  0  0  0  0  0
    2.7810   -2.6881    0.0000 C   0  0  0  0  0  0  0  0  0  0  0  0
    2.7810   -1.8631    0.0000 C   0  0  0  0  0  0  0  0  0  0  0  0
    2.0666   -3.1006    0.0000 C   0  0  0  0  0  0  0  0  0  0  0  0
    5.6389   -4.3381    0.0000 C   0  0  0  0  0  0  0  0  0  0  0  0
  1  2  1  0  0  0  0
  2  3  1  0  0  0  0
  3  4  1  0  0  0  0
  4  5  1  0  0  0  0
  5  6  1  0  0  0  0
  1  6  1  0  0  0  0
  1  7  1  0  0  0  0
  8  9  2  0  0  0  0
  8 10  1  0  0  0  0
  2  8  1  0  0  0  0
  5 11  1  0  0  0  0
M  END
>  <cdx:groupId>
35

>  <cdx:fragmentId>
5

$$$$
