246.cdx
  Mrv1902 05222410272D          

 36 39  0  0  0  0            999 V2000
    3.0142   -6.9456    0.0000 C   0  0  0  0  0  0  0  0  0  0  0  0
    3.0142   -7.7706    0.0000 C   0  0  2  0  0  0  0  0  0  0  0  0
    3.7287   -8.1831    0.0000 C   0  0  0  0  0  0  0  0  0  0  0  0
    4.4432   -7.7706    0.0000 C   0  0  2  0  0  0  0  0  0  0  0  0
    4.4432   -6.9456    0.0000 C   0  0  2  0  0  0  0  0  0  0  0  0
    3.7287   -6.5331    0.0000 C   0  0  0  0  0  0  0  0  0  0  0  0
    5.1576   -8.1831    0.0000 C   0  0  0  0  0  0  0  0  0  0  0  0
    5.8721   -7.7706    0.0000 C   0  0  0  0  0  0  0  0  0  0  0  0
    5.8721   -6.9456    0.0000 C   0  0  2  0  0  0  0  0  0  0  0  0
    5.1576   -6.5331    0.0000 C   0  0  2  0  0  0  0  0  0  0  0  0
    6.5866   -6.5331    0.0000 C   0  0  1  0  0  0  0  0  0  0  0  0
    6.5866   -5.7081    0.0000 C   0  0  2  0  0  0  0  0  0  0  0  0
    5.8721   -5.2956    0.0000 C   0  0  0  0  0  0  0  0  0  0  0  0
    5.1576   -5.7081    0.0000 C   0  0  0  0  0  0  0  0  0  0  0  0
    7.3712   -6.7880    0.0000 C   0  0  0  0  0  0  0  0  0  0  0  0
    7.8561   -6.1206    0.0000 C   0  0  0  0  0  0  0  0  0  0  0  0
    7.3712   -5.4531    0.0000 C   0  0  2  0  0  0  0  0  0  0  0  0
    2.2998   -8.1831    0.0000 O   0  0  0  0  0  0  0  0  0  0  0  0
    4.4432   -6.1206    0.0000 C   0  0  0  0  0  0  0  0  0  0  0  0
    6.5866   -4.8831    0.0000 C   0  0  0  0  0  0  0  0  0  0  0  0
    4.4432   -8.5956    0.0000 H   0  0  0  0  0  0  0  0  0  0  0  0
    5.1576   -7.3581    0.0000 H   0  0  0  0  0  0  0  0  0  0  0  0
    6.5866   -7.3581    0.0000 H   0  0  0  0  0  0  0  0  0  0  0  0
    8.1962   -5.4531    0.0000 H   0  0  0  0  0  0  0  0  0  0  0  0
    5.8721   -6.1206    0.0000 H   0  0  0  0  0  0  0  0  0  0  0  0
    7.6261   -4.6685    0.0000 C   0  0  2  0  0  0  0  0  0  0  0  0
    7.0741   -4.0554    0.0000 C   0  0  0  0  0  0  0  0  0  0  0  0
    8.4331   -4.4970    0.0000 C   0  0  0  0  0  0  0  0  0  0  0  0
    8.6880   -3.7124    0.0000 C   0  0  0  0  0  0  0  0  0  0  0  0
    9.4950   -3.5408    0.0000 C   0  0  0  0  0  0  0  0  0  0  0  0
   10.0471   -4.1539    0.0000 O   0  0  0  0  0  0  0  0  0  0  0  0
    9.7500   -2.7562    0.0000 N   0  0  0  0  0  0  0  0  0  0  0  0
   10.5569   -2.5847    0.0000 C   0  0  0  0  0  0  0  0  0  0  0  0
   10.8119   -1.8001    0.0000 C   0  0  0  0  0  0  0  0  0  0  0  0
   10.2598   -1.1870    0.0000 O   0  0  0  0  0  0  0  0  0  0  0  0
   11.6188   -1.6285    0.0000 O   0  0  0  0  0  0  0  0  0  0  0  0
  1  2  1  0  0  0  0
  2  3  1  0  0  0  0
  3  4  1  0  0  0  0
  4  5  1  0  0  0  0
  5  6  1  0  0  0  0
  6  1  1  0  0  0  0
  4  7  1  0  0  0  0
  7  8  1  0  0  0  0
  8  9  1  0  0  0  0
  9 10  1  0  0  0  0
 10  5  1  0  0  0  0
  9 11  1  0  0  0  0
 11 12  1  0  0  0  0
 12 13  1  0  0  0  0
 13 14  1  0  0  0  0
 14 10  1  0  0  0  0
 11 15  1  0  0  0  0
 15 16  1  0  0  0  0
 16 17  1  0  0  0  0
 17 12  1  0  0  0  0
  5 19  1  1  0  0  0
 12 20  1  1  0  0  0
  2 18  1  6  0  0  0
  4 21  1  1  0  0  0
 10 22  1  6  0  0  0
 11 23  1  6  0  0  0
 17 24  1  6  0  0  0
  9 25  1  1  0  0  0
 26 27  1  6  0  0  0
 26 28  1  0  0  0  0
 28 29  1  0  0  0  0
 29 30  1  0  0  0  0
 30 31  2  0  0  0  0
 30 32  1  0  0  0  0
 32 33  1  0  0  0  0
 33 34  1  0  0  0  0
 34 35  2  0  0  0  0
 34 36  1  0  0  0  0
 17 26  1  0  0  0  0
M  END
>  <cdx:fragmentId>
5

$$$$
