2465.cdx
  Mrv1902 05222410222D          

 28 29  0  0  0  0            999 V2000
    3.1658   -4.0081    0.0000 C   0  0  0  0  0  0  0  0  0  0  0  0
    3.1658   -4.8331    0.0000 C   0  0  0  0  0  0  0  0  0  0  0  0
    3.8802   -5.2456    0.0000 C   0  0  0  0  0  0  0  0  0  0  0  0
    4.5947   -4.8331    0.0000 C   0  0  0  0  0  0  0  0  0  0  0  0
    4.5947   -4.0081    0.0000 C   0  0  0  0  0  0  0  0  0  0  0  0
    3.8802   -3.5956    0.0000 C   0  0  0  0  0  0  0  0  0  0  0  0
    5.2960   -3.5750    0.0000 C   0  0  0  0  0  0  0  0  0  0  0  0
    6.0104   -3.9875    0.0000 C   0  0  0  0  0  0  0  0  0  0  0  0
    6.7249   -3.5750    0.0000 C   0  0  0  0  0  0  0  0  0  0  0  0
    7.4394   -3.9875    0.0000 C   0  0  0  0  0  0  0  0  0  0  0  0
    8.1539   -3.5750    0.0000 C   0  0  0  0  0  0  0  0  0  0  0  0
    8.8683   -3.9875    0.0000 C   0  0  0  0  0  0  0  0  0  0  0  0
    9.5828   -3.5750    0.0000 C   0  0  0  0  0  0  0  0  0  0  0  0
   10.2973   -3.9875    0.0000 C   0  0  0  0  0  0  0  0  0  0  0  0
    2.4513   -5.2456    0.0000 O   0  0  0  0  0  0  0  0  0  0  0  0
    2.4513   -3.5956    0.0000 O   0  0  0  0  0  0  0  0  0  0  0  0
    1.7368   -4.0081    0.0000 C   0  0  0  0  0  0  0  0  0  0  0  0
    6.7249   -2.7500    0.0000 O   0  0  0  0  0  0  0  0  0  0  0  0
   10.2973   -4.8125    0.0000 C   0  0  0  0  0  0  0  0  0  0  0  0
   11.0117   -5.2250    0.0000 C   0  0  0  0  0  0  0  0  0  0  0  0
   11.7262   -4.8125    0.0000 C   0  0  0  0  0  0  0  0  0  0  0  0
   11.7262   -3.9875    0.0000 C   0  0  0  0  0  0  0  0  0  0  0  0
   11.0117   -3.5750    0.0000 C   0  0  0  0  0  0  0  0  0  0  0  0
   12.4407   -3.5750    0.0000 O   0  0  0  0  0  0  0  0  0  0  0  0
   13.1552   -3.9875    0.0000 C   0  0  0  0  0  0  0  0  0  0  0  0
   12.4407   -5.2250    0.0000 O   0  0  0  0  0  0  0  0  0  0  0  0
    8.1539   -2.7500    0.0000 O   0  0  0  0  0  0  0  0  0  0  0  0
    8.8683   -2.3375    0.0000 C   0  0  0  0  0  0  0  0  0  0  0  0
  1  2  2  0  0  0  0
  2  3  1  0  0  0  0
  3  4  2  0  0  0  0
  4  5  1  0  0  0  0
  5  6  2  0  0  0  0
  6  1  1  0  0  0  0
  7  8  1  0  0  0  0
  8  9  1  0  0  0  0
  9 10  1  0  0  0  0
 10 11  1  0  0  0  0
 11 12  1  0  0  0  0
 12 13  1  0  0  0  0
 13 14  1  0  0  0  0
  7  5  1  0  0  0  0
  2 15  1  0  0  0  0
  1 16  1  0  0  0  0
 16 17  1  0  0  0  0
  9 18  2  0  0  0  0
 14 19  2  0  0  0  0
 19 20  1  0  0  0  0
 20 21  2  0  0  0  0
 21 22  1  0  0  0  0
 22 23  2  0  0  0  0
 23 14  1  0  0  0  0
 22 24  1  0  0  0  0
 24 25  1  0  0  0  0
 21 26  1  0  0  0  0
 11 27  1  0  0  0  0
 27 28  1  0  0  0  0
M  END
>  <cdx:fragmentId>
21

$$$$
