246564.cdx
  Mrv1902 05222410252D          

 26 30  0  0  0  0            999 V2000
    7.4758   -6.1013    0.0000 C   0  0  0  0  0  0  0  0  0  0  0  0
    7.4758   -5.2763    0.0000 C   0  0  0  0  0  0  0  0  0  0  0  0
    6.8627   -4.7242    0.0000 O   0  0  0  0  0  0  0  0  0  0  0  0
    7.1982   -3.9706    0.0000 C   0  0  0  0  0  0  0  0  0  0  0  0
    8.0187   -4.0568    0.0000 O   0  0  0  0  0  0  0  0  0  0  0  0
    8.1902   -4.8638    0.0000 C   0  0  0  0  0  0  0  0  0  0  0  0
    8.9047   -5.2763    0.0000 C   0  0  0  0  0  0  0  0  0  0  0  0
    8.9047   -6.1013    0.0000 C   0  0  0  0  0  0  0  0  0  0  0  0
    9.6197   -6.5128    0.0000 C   0  0  0  0  0  0  0  0  0  0  0  0
    9.6194   -7.3378    0.0000 C   0  0  0  0  0  0  0  0  0  0  0  0
    8.9051   -7.7506    0.0000 N   0  0  0  0  0  0  0  0  0  0  0  0
    8.1902   -7.3388    0.0000 C   0  0  1  0  0  0  0  0  0  0  0  0
    7.4758   -7.7513    0.0000 C   0  0  0  0  0  0  0  0  0  0  0  0
    6.7613   -7.3388    0.0000 C   0  0  0  0  0  0  0  0  0  0  0  0
    6.0468   -7.7513    0.0000 C   0  0  0  0  0  0  0  0  0  0  0  0
    5.3323   -7.3388    0.0000 C   0  0  0  0  0  0  0  0  0  0  0  0
    5.3323   -6.5138    0.0000 C   0  0  0  0  0  0  0  0  0  0  0  0
    6.0468   -6.1013    0.0000 C   0  0  0  0  0  0  0  0  0  0  0  0
    6.7613   -6.5138    0.0000 C   0  0  0  0  0  0  0  0  0  0  0  0
    8.1902   -6.5138    0.0000 C   0  0  0  0  0  0  0  0  0  0  0  0
    8.9051   -8.5756    0.0000 C   0  0  0  0  0  0  0  0  0  0  0  0
    6.0468   -5.2763    0.0000 O   0  0  0  0  0  0  0  0  0  0  0  0
    5.3323   -4.8638    0.0000 C   0  0  0  0  0  0  0  0  0  0  0  0
    4.6179   -6.1013    0.0000 O   0  0  0  0  0  0  0  0  0  0  0  0
    3.9034   -6.5138    0.0000 C   0  0  0  0  0  0  0  0  0  0  0  0
    8.1902   -8.1638    0.0000 H   0  0  0  0  0  0  0  0  0  0  0  0
  1  2  1  0  0  0  0
  2  3  1  0  0  0  0
  3  4  1  0  0  0  0
  4  5  1  0  0  0  0
  5  6  1  0  0  0  0
  6  7  1  0  0  0  0
  7  8  2  0  0  0  0
  8  9  1  0  0  0  0
  9 10  1  0  0  0  0
 10 11  1  0  0  0  0
 11 12  1  0  0  0  0
 12 13  1  0  0  0  0
 13 14  1  0  0  0  0
 14 15  1  0  0  0  0
 15 16  2  0  0  0  0
 16 17  1  0  0  0  0
 17 18  2  0  0  0  0
 18 19  1  0  0  0  0
  1 19  1  0  0  0  0
  1 20  2  0  0  0  0
 20 12  1  0  0  0  0
 14 19  2  0  0  0  0
  2  6  2  0  0  0  0
  8 20  1  0  0  0  0
 11 21  1  0  0  0  0
 22 23  1  0  0  0  0
 18 22  1  0  0  0  0
 24 25  1  0  0  0  0
 17 24  1  0  0  0  0
 12 26  1  6  0  0  0
M  END
>  <cdx:fragmentId>
840

$$$$
