10246505.cdx
  Mrv1902 05222410282D          

 25 27  0  0  0  0            999 V2000
    7.4357   -8.8265    0.0000 C   0  0  0  0  0  0  0  0  0  0  0  0
    7.4357   -8.0015    0.0000 C   0  0  0  0  0  0  0  0  0  0  0  0
    6.7213   -7.5890    0.0000 C   0  0  0  0  0  0  0  0  0  0  0  0
    6.0068   -8.0015    0.0000 C   0  0  0  0  0  0  0  0  0  0  0  0
    5.2923   -7.5890    0.0000 C   0  0  0  0  0  0  0  0  0  0  0  0
    4.5779   -8.0015    0.0000 C   0  0  0  0  0  0  0  0  0  0  0  0
    4.5779   -8.8265    0.0000 C   0  0  0  0  0  0  0  0  0  0  0  0
    5.2923   -9.2390    0.0000 C   0  0  0  0  0  0  0  0  0  0  0  0
    6.0068   -8.8265    0.0000 C   0  0  0  0  0  0  0  0  0  0  0  0
    6.7213   -9.2390    0.0000 O   0  0  0  0  0  0  0  0  0  0  0  0
    6.7213   -6.7640    0.0000 O   0  0  0  0  0  0  0  0  0  0  0  0
    5.2923  -10.0640    0.0000 C   0  0  0  0  0  0  0  0  0  0  0  0
    4.5779  -10.4765    0.0000 C   0  0  0  0  0  0  0  0  0  0  0  0
    4.5779  -11.3015    0.0000 C   0  0  0  0  0  0  0  0  0  0  0  0
    5.2923  -11.7140    0.0000 C   0  0  0  0  0  0  0  0  0  0  0  0
    3.8634  -11.7140    0.0000 C   0  0  0  0  0  0  0  0  0  0  0  0
    8.1502   -9.2390    0.0000 C   0  0  0  0  0  0  0  0  0  0  0  0
    8.8647   -8.8265    0.0000 C   0  0  0  0  0  0  0  0  0  0  0  0
    9.5791   -9.2390    0.0000 C   0  0  0  0  0  0  0  0  0  0  0  0
    9.5791  -10.0640    0.0000 C   0  0  0  0  0  0  0  0  0  0  0  0
    8.8647  -10.4765    0.0000 C   0  0  0  0  0  0  0  0  0  0  0  0
    8.1502  -10.0640    0.0000 C   0  0  0  0  0  0  0  0  0  0  0  0
   10.2936  -10.4765    0.0000 O   0  0  0  0  0  0  0  0  0  0  0  0
    3.8634   -9.2390    0.0000 O   0  0  0  0  0  0  0  0  0  0  0  0
    5.2923   -6.7640    0.0000 O   0  0  0  0  0  0  0  0  0  0  0  0
  1  2  2  0  0  0  0
  2  3  1  0  0  0  0
  3  4  1  0  0  0  0
  4  5  1  0  0  0  0
  5  6  2  0  0  0  0
  6  7  1  0  0  0  0
  7  8  2  0  0  0  0
  8  9  1  0  0  0  0
  4  9  2  0  0  0  0
  9 10  1  0  0  0  0
  1 10  1  0  0  0  0
  3 11  2  0  0  0  0
 12 13  1  0  0  0  0
 13 14  2  0  0  0  0
 14 15  1  0  0  0  0
 14 16  1  0  0  0  0
  8 12  1  0  0  0  0
 17 18  1  0  0  0  0
 18 19  2  0  0  0  0
 19 20  1  0  0  0  0
 20 21  2  0  0  0  0
 21 22  1  0  0  0  0
 17 22  2  0  0  0  0
 20 23  1  0  0  0  0
  1 17  1  0  0  0  0
  7 24  1  0  0  0  0
  5 25  1  0  0  0  0
M  END
>  <cdx:fragmentId>
43079

$$$$
