246728.cdx
  Mrv1902 05222410272D          

  9  8  0  0  0  0            999 V2000
   17.9694  -13.5773    0.0000 C   0  0  0  0  0  0  0  0  0  0  0  0
   17.2549  -13.9898    0.0000 C   0  0  0  0  0  0  0  0  0  0  0  0
   16.5405  -13.5773    0.0000 C   0  0  0  0  0  0  0  0  0  0  0  0
   15.8260  -13.9898    0.0000 C   0  0  0  0  0  0  0  0  0  0  0  0
   15.1115  -13.5773    0.0000 C   0  0  0  0  0  0  0  0  0  0  0  0
   14.3970  -13.9898    0.0000 C   0  0  0  0  0  0  0  0  0  0  0  0
   13.6826  -13.5773    0.0000 C   0  0  0  0  0  0  0  0  0  0  0  0
   12.9681  -13.9898    0.0000 C   0  0  0  0  0  0  0  0  0  0  0  0
   16.5405  -12.7523    0.0000 O   0  0  0  0  0  0  0  0  0  0  0  0
  1  2  1  0  0  0  0
  2  3  1  0  0  0  0
  3  4  1  0  0  0  0
  4  5  1  0  0  0  0
  5  6  1  0  0  0  0
  6  7  1  0  0  0  0
  7  8  1  0  0  0  0
  3  9  2  0  0  0  0
M  END
>  <cdx:groupId>
4592

>  <cdx:fragmentId>
4569

$$$$
