246983.cdx
  Mrv1902 05222410242D          

 32 35  0  0  0  0            999 V2000
    4.1489  -10.7532    0.0000 C   0  0  1  0  0  0  0  0  0  0  0  0
    4.1489   -9.9282    0.0000 C   0  0  0  0  0  0  0  0  0  0  0  0
    4.8634   -9.5157    0.0000 C   0  0  0  0  0  0  0  0  0  0  0  0
    4.8634  -11.1657    0.0000 C   0  0  0  0  0  0  0  0  0  0  0  0
    5.2759  -11.8802    0.0000 C   0  0  0  0  0  0  0  0  0  0  0  0
    4.4509  -11.8802    0.0000 C   0  0  0  0  0  0  0  0  0  0  0  0
    5.5779  -10.7532    0.0000 C   0  0  0  0  0  0  0  0  0  0  0  0
    6.2924  -11.1657    0.0000 C   0  0  0  0  0  0  0  0  0  0  0  0
    7.0068  -10.7532    0.0000 C   0  0  0  0  0  0  0  0  0  0  0  0
    7.0068   -9.9282    0.0000 C   0  0  0  0  0  0  0  0  0  0  0  0
    7.7213   -9.5157    0.0000 C   0  0  2  0  0  0  0  0  0  0  0  0
    7.7213  -10.3407    0.0000 C   0  0  0  0  0  0  0  0  0  0  0  0
    8.5059   -9.7706    0.0000 C   0  0  0  0  0  0  0  0  0  0  0  0
    8.9908   -9.1032    0.0000 C   0  0  0  0  0  0  0  0  0  0  0  0
    8.5059   -8.4358    0.0000 C   0  0  2  0  0  0  0  0  0  0  0  0
    8.7609   -7.6511    0.0000 C   0  0  1  0  0  0  0  0  0  0  0  0
    9.5678   -7.4796    0.0000 C   0  0  0  0  0  0  0  0  0  0  0  0
    9.8228   -6.6950    0.0000 C   0  0  0  0  0  0  0  0  0  0  0  0
   10.6297   -6.5235    0.0000 C   0  0  0  0  0  0  0  0  0  0  0  0
   10.8847   -5.7389    0.0000 C   0  0  0  0  0  0  0  0  0  0  0  0
   10.3326   -5.1258    0.0000 C   0  0  0  0  0  0  0  0  0  0  0  0
   11.6916   -5.5673    0.0000 C   0  0  0  0  0  0  0  0  0  0  0  0
    8.2088   -7.0381    0.0000 C   0  0  0  0  0  0  0  0  0  0  0  0
    7.7213   -8.6907    0.0000 C   0  0  2  0  0  0  0  0  0  0  0  0
    7.7213   -7.8657    0.0000 C   0  0  0  0  0  0  0  0  0  0  0  0
    7.0068   -8.2782    0.0000 C   0  0  0  0  0  0  0  0  0  0  0  0
    6.2924   -8.6907    0.0000 C   0  0  0  0  0  0  0  0  0  0  0  0
    6.2924   -9.5157    0.0000 C   0  0  0  0  0  0  0  0  0  0  0  0
    5.5779   -9.9282    0.0000 C   0  0  1  0  0  0  0  0  0  0  0  0
    5.5779   -9.1032    0.0000 C   0  0  0  0  0  0  0  0  0  0  0  0
    3.4345  -11.1657    0.0000 O   0  0  0  0  0  0  0  0  0  0  0  0
    9.2905   -8.1808    0.0000 H   0  0  0  0  0  0  0  0  0  0  0  0
  1  2  1  0  0  0  0
  2  3  1  0  0  0  0
  1  4  1  0  0  0  0
  4  5  1  0  0  0  0
  4  6  1  0  0  0  0
  4  7  1  0  0  0  0
  7  8  1  0  0  0  0
  8  9  1  0  0  0  0
  9 10  1  0  0  0  0
 10 11  1  0  0  0  0
 11 12  1  6  0  0  0
 11 13  1  0  0  0  0
 13 14  1  0  0  0  0
 15 14  1  0  0  0  0
 15 16  1  0  0  0  0
 16 17  1  0  0  0  0
 17 18  1  0  0  0  0
 18 19  1  0  0  0  0
 19 20  2  0  0  0  0
 20 21  1  0  0  0  0
 20 22  1  0  0  0  0
 16 23  1  6  0  0  0
 15 24  1  0  0  0  0
 11 24  1  0  0  0  0
 24 25  1  1  0  0  0
 24 26  1  0  0  0  0
 26 27  1  0  0  0  0
 27 28  1  0  0  0  0
 10 28  2  0  0  0  0
 28 29  1  0  0  0  0
  3 29  1  0  0  0  0
  7 29  1  0  0  0  0
 29 30  1  1  0  0  0
  1 31  1  1  0  0  0
 15 32  1  6  0  0  0
M  END
>  <cdx:groupId>
4722

>  <cdx:fragmentId>
4629

$$$$
