247.cdx
  Mrv1902 05222410272D          

 40 43  0  0  0  0            999 V2000
    2.7667   -7.6640    0.0000 C   0  0  0  0  0  0  0  0  0  0  0  0
    2.7667   -8.4890    0.0000 C   0  0  2  0  0  0  0  0  0  0  0  0
    3.4812   -8.9015    0.0000 C   0  0  0  0  0  0  0  0  0  0  0  0
    4.1957   -8.4890    0.0000 C   0  0  2  0  0  0  0  0  0  0  0  0
    4.1957   -7.6640    0.0000 C   0  0  2  0  0  0  0  0  0  0  0  0
    3.4812   -7.2515    0.0000 C   0  0  0  0  0  0  0  0  0  0  0  0
    4.9101   -8.9015    0.0000 C   0  0  0  0  0  0  0  0  0  0  0  0
    5.6246   -8.4890    0.0000 C   0  0  2  0  0  0  0  0  0  0  0  0
    5.6246   -7.6640    0.0000 C   0  0  2  0  0  0  0  0  0  0  0  0
    4.9101   -7.2515    0.0000 C   0  0  2  0  0  0  0  0  0  0  0  0
    6.3391   -7.2515    0.0000 C   0  0  1  0  0  0  0  0  0  0  0  0
    6.3391   -6.4265    0.0000 C   0  0  2  0  0  0  0  0  0  0  0  0
    5.6246   -6.0140    0.0000 C   0  0  2  0  0  0  0  0  0  0  0  0
    4.9101   -6.4265    0.0000 C   0  0  0  0  0  0  0  0  0  0  0  0
    7.1237   -7.5064    0.0000 C   0  0  0  0  0  0  0  0  0  0  0  0
    7.6086   -6.8390    0.0000 C   0  0  0  0  0  0  0  0  0  0  0  0
    7.1237   -6.1716    0.0000 C   0  0  2  0  0  0  0  0  0  0  0  0
    2.0523   -8.9015    0.0000 O   0  0  0  0  0  0  0  0  0  0  0  0
    4.1957   -6.8390    0.0000 C   0  0  0  0  0  0  0  0  0  0  0  0
    6.3391   -5.6015    0.0000 C   0  0  0  0  0  0  0  0  0  0  0  0
    4.1957   -9.3140    0.0000 H   0  0  0  0  0  0  0  0  0  0  0  0
    5.6246   -6.8390    0.0000 H   0  0  0  0  0  0  0  0  0  0  0  0
    4.9101   -8.0765    0.0000 H   0  0  0  0  0  0  0  0  0  0  0  0
    6.3391   -8.0765    0.0000 H   0  0  0  0  0  0  0  0  0  0  0  0
    5.6246   -5.1890    0.0000 O   0  0  0  0  0  0  0  0  0  0  0  0
    6.3391   -8.9015    0.0000 O   0  0  0  0  0  0  0  0  0  0  0  0
    7.3786   -5.3869    0.0000 C   0  0  2  0  0  0  0  0  0  0  0  0
    6.8266   -4.7738    0.0000 C   0  0  0  0  0  0  0  0  0  0  0  0
    8.1856   -5.2154    0.0000 C   0  0  0  0  0  0  0  0  0  0  0  0
    8.4405   -4.4308    0.0000 C   0  0  0  0  0  0  0  0  0  0  0  0
    9.2475   -4.2593    0.0000 C   0  0  0  0  0  0  0  0  0  0  0  0
    9.7996   -4.8724    0.0000 O   0  0  0  0  0  0  0  0  0  0  0  0
    9.5025   -3.4746    0.0000 N   0  0  0  0  0  0  0  0  0  0  0  0
   10.3094   -3.3031    0.0000 C   0  0  0  0  0  0  0  0  0  0  0  0
   10.5644   -2.5185    0.0000 C   0  0  0  0  0  0  0  0  0  0  0  0
   11.3713   -2.3470    0.0000 S   0  0  0  0  0  0  0  0  0  0  0  0
   11.5849   -3.1439    0.0000 O   0  0  0  0  0  0  0  0  0  0  0  0
   11.1578   -1.5501    0.0000 O   0  0  0  0  0  0  0  0  0  0  0  0
   12.1783   -2.1754    0.0000 O   0  0  0  0  0  0  0  0  0  0  0  0
    7.9487   -6.1716    0.0000 H   0  0  0  0  0  0  0  0  0  0  0  0
  1  2  1  0  0  0  0
  2  3  1  0  0  0  0
  3  4  1  0  0  0  0
  4  5  1  0  0  0  0
  5  6  1  0  0  0  0
  6  1  1  0  0  0  0
  4  7  1  0  0  0  0
  7  8  1  0  0  0  0
  8  9  1  0  0  0  0
  9 10  1  0  0  0  0
 10  5  1  0  0  0  0
  9 11  1  0  0  0  0
 11 12  1  0  0  0  0
 12 13  1  0  0  0  0
 13 14  1  0  0  0  0
 14 10  1  0  0  0  0
 11 15  1  0  0  0  0
 15 16  1  0  0  0  0
 16 17  1  0  0  0  0
 17 12  1  0  0  0  0
  5 19  1  1  0  0  0
 12 20  1  1  0  0  0
  2 18  1  6  0  0  0
  4 21  1  1  0  0  0
  9 22  1  1  0  0  0
 10 23  1  6  0  0  0
 11 24  1  6  0  0  0
 13 25  1  6  0  0  0
  8 26  1  6  0  0  0
 17 27  1  0  0  0  0
 27 28  1  6  0  0  0
 27 29  1  0  0  0  0
 29 30  1  0  0  0  0
 30 31  1  0  0  0  0
 31 32  2  0  0  0  0
 31 33  1  0  0  0  0
 33 34  1  0  0  0  0
 34 35  1  0  0  0  0
 35 36  1  0  0  0  0
 36 37  2  0  0  0  0
 36 38  2  0  0  0  0
 36 39  1  0  0  0  0
 17 40  1  6  0  0  0
M  END
>  <cdx:fragmentId>
5

$$$$
