23247204.cdx
  Mrv1902 05222410182D          

 31 34  0  0  0  0            999 V2000
    5.5065  -14.5385    0.0000 C   0  0  0  0  0  0  0  0  0  0  0  0
    4.7920  -14.9510    0.0000 C   0  0  1  0  0  0  0  0  0  0  0  0
    4.7920  -15.7760    0.0000 C   0  0  2  0  0  0  0  0  0  0  0  0
    5.5065  -16.1885    0.0000 C   0  0  0  0  0  0  0  0  0  0  0  0
    6.2210  -15.7760    0.0000 C   0  0  0  0  0  0  0  0  0  0  0  0
    6.9354  -16.1885    0.0000 C   0  0  0  0  0  0  0  0  0  0  0  0
    7.6499  -15.7760    0.0000 C   0  0  0  0  0  0  0  0  0  0  0  0
    7.6499  -14.9510    0.0000 C   0  0  1  0  0  0  0  0  0  0  0  0
    8.3644  -14.5385    0.0000 C   0  0  2  0  0  0  0  0  0  0  0  0
    9.1490  -14.7934    0.0000 C   0  0  0  0  0  0  0  0  0  0  0  0
    9.6339  -14.1260    0.0000 C   0  0  2  0  0  0  0  0  0  0  0  0
    9.1490  -13.4585    0.0000 C   0  0  1  0  0  0  0  0  0  0  0  0
    8.3644  -13.7135    0.0000 C   0  0  1  0  0  0  0  0  0  0  0  0
    7.6499  -13.3010    0.0000 C   0  0  0  0  0  0  0  0  0  0  0  0
    6.9354  -13.7135    0.0000 C   0  0  0  0  0  0  0  0  0  0  0  0
    6.9354  -14.5385    0.0000 C   0  0  1  0  0  0  0  0  0  0  0  0
    6.2210  -14.9510    0.0000 C   0  0  2  0  0  0  0  0  0  0  0  0
    6.2210  -13.3010    0.0000 O   0  0  0  0  0  0  0  0  0  0  0  0
    8.3644  -15.3635    0.0000 C   0  0  0  0  0  0  0  0  0  0  0  0
    8.4506  -12.8930    0.0000 C   0  0  0  0  0  0  0  0  0  0  0  0
    6.9354  -15.3635    0.0000 C   0  0  0  0  0  0  0  0  0  0  0  0
    5.9190  -16.9029    0.0000 C   0  0  0  0  0  0  0  0  0  0  0  0
    5.0940  -16.9029    0.0000 C   0  0  0  0  0  0  0  0  0  0  0  0
   10.4589  -14.1260    0.0000 O   0  0  0  0  0  0  0  0  0  0  0  0
    4.0776  -16.1885    0.0000 O   0  0  0  0  0  0  0  0  0  0  0  0
    4.0776  -14.5385    0.0000 O   0  0  0  0  0  0  0  0  0  0  0  0
    9.4040  -12.6739    0.0000 C   0  0  0  0  0  0  0  0  0  0  0  0
    8.8206  -12.0905    0.0000 O   0  0  0  0  0  0  0  0  0  0  0  0
   10.2109  -12.5024    0.0000 C   0  0  0  0  0  0  0  0  0  0  0  0
    7.6499  -14.1260    0.0000 H   0  0  0  0  0  0  0  0  0  0  0  0
    6.2210  -14.1260    0.0000 H   0  0  0  0  0  0  0  0  0  0  0  0
  1  2  1  0  0  0  0
  2  3  1  0  0  0  0
  3  4  1  0  0  0  0
  4  5  1  0  0  0  0
  5  6  2  0  0  0  0
  6  7  1  0  0  0  0
  7  8  1  0  0  0  0
  8  9  1  0  0  0  0
  9 10  1  0  0  0  0
 10 11  1  0  0  0  0
 11 12  1  0  0  0  0
 12 13  1  0  0  0  0
  9 13  1  0  0  0  0
 13 14  1  0  0  0  0
 14 15  1  0  0  0  0
 15 16  1  0  0  0  0
  8 16  1  0  0  0  0
 16 17  1  0  0  0  0
  5 17  1  0  0  0  0
  1 17  1  0  0  0  0
 15 18  2  0  0  0  0
  9 19  1  6  0  0  0
 13 20  1  1  0  0  0
 16 21  1  1  0  0  0
  4 22  1  0  0  0  0
  4 23  1  0  0  0  0
 11 24  1  6  0  0  0
  3 25  1  6  0  0  0
  2 26  1  1  0  0  0
 27 28  2  0  0  0  0
 27 29  1  0  0  0  0
 12 27  1  1  0  0  0
  8 30  1  1  0  0  0
 17 31  1  6  0  0  0
M  END
>  <cdx:groupId>
143502

>  <cdx:fragmentId>
143409

$$$$
