2473.cdx
  Mrv1902 05222410222D          

 22 23  0  0  0  0            999 V2000
    4.5408   -4.8263    0.0000 C   0  0  0  0  0  0  0  0  0  0  0  0
    4.5408   -5.6512    0.0000 C   0  0  0  0  0  0  0  0  0  0  0  0
    5.2552   -6.0638    0.0000 C   0  0  0  0  0  0  0  0  0  0  0  0
    5.9697   -5.6512    0.0000 C   0  0  0  0  0  0  0  0  0  0  0  0
    5.9697   -4.8263    0.0000 C   0  0  0  0  0  0  0  0  0  0  0  0
    5.2552   -4.4138    0.0000 C   0  0  0  0  0  0  0  0  0  0  0  0
    3.8263   -4.4138    0.0000 O   0  0  0  0  0  0  0  0  0  0  0  0
    6.7004   -6.0862    0.0000 C   0  0  0  0  0  0  0  0  0  0  0  0
    6.7021   -6.9112    0.0000 C   0  0  0  0  0  0  0  0  0  0  0  0
    7.4174   -7.3222    0.0000 C   0  0  0  0  0  0  0  0  0  0  0  0
    7.4191   -8.1472    0.0000 C   0  0  0  0  0  0  0  0  0  0  0  0
    8.1344   -8.5583    0.0000 C   0  0  0  0  0  0  0  0  0  0  0  0
    8.1361   -9.3833    0.0000 C   0  0  0  0  0  0  0  0  0  0  0  0
    8.8514   -9.7943    0.0000 C   0  0  0  0  0  0  0  0  0  0  0  0
    8.8531  -10.6193    0.0000 C   0  0  0  0  0  0  0  0  0  0  0  0
    8.1382  -11.0311    0.0000 C   0  0  0  0  0  0  0  0  0  0  0  0
    8.1382  -11.8561    0.0000 C   0  0  0  0  0  0  0  0  0  0  0  0
    8.8531  -12.2693    0.0000 C   0  0  0  0  0  0  0  0  0  0  0  0
    9.5680  -11.8561    0.0000 C   0  0  0  0  0  0  0  0  0  0  0  0
    9.5680  -11.0311    0.0000 C   0  0  0  0  0  0  0  0  0  0  0  0
    8.8531  -13.0943    0.0000 O   0  0  0  0  0  0  0  0  0  0  0  0
    8.1319   -6.9097    0.0000 O   0  0  0  0  0  0  0  0  0  0  0  0
  1  2  2  0  0  0  0
  2  3  1  0  0  0  0
  3  4  2  0  0  0  0
  4  5  1  0  0  0  0
  5  6  2  0  0  0  0
  6  1  1  0  0  0  0
  1  7  1  0  0  0  0
  8  9  1  0  0  0  0
  9 10  1  0  0  0  0
 10 11  1  0  0  0  0
 11 12  2  0  0  0  0
 12 13  1  0  0  0  0
 13 14  2  0  0  0  0
 14 15  1  0  0  0  0
  8  4  1  0  0  0  0
 15 16  2  0  0  0  0
 16 17  1  0  0  0  0
 17 18  2  0  0  0  0
 18 19  1  0  0  0  0
 19 20  2  0  0  0  0
 20 15  1  0  0  0  0
 18 21  1  0  0  0  0
 10 22  2  0  0  0  0
M  END
>  <cdx:fragmentId>
23

$$$$
