247461.cdx
  Mrv1902 05222410212D          

 10 10  0  0  0  0            999 V2000
    6.6430   -6.6187    0.0000 C   0  0  0  0  0  0  0  0  0  0  0  0
    6.6224   -5.7939    0.0000 C   0  0  0  0  0  0  0  0  0  0  0  0
    7.3263   -5.3637    0.0000 C   0  0  0  0  0  0  0  0  0  0  0  0
    8.0509   -5.7582    0.0000 C   0  0  0  0  0  0  0  0  0  0  0  0
    8.0715   -6.5829    0.0000 C   0  0  0  0  0  0  0  0  0  0  0  0
    7.3676   -7.0132    0.0000 O   0  0  0  0  0  0  0  0  0  0  0  0
    5.9391   -7.0489    0.0000 O   0  0  0  0  0  0  0  0  0  0  0  0
    8.8963   -6.5623    0.0000 C   0  0  0  0  0  0  0  0  0  0  0  0
    8.5018   -7.2869    0.0000 C   0  0  0  0  0  0  0  0  0  0  0  0
    7.3057   -4.5390    0.0000 C   0  0  0  0  0  0  0  0  0  0  0  0
  1  2  1  0  0  0  0
  2  3  2  0  0  0  0
  3  4  1  0  0  0  0
  4  5  1  0  0  0  0
  5  6  1  0  0  0  0
  1  6  1  0  0  0  0
  1  7  2  0  0  0  0
  5  8  1  0  0  0  0
  5  9  1  0  0  0  0
  3 10  1  0  0  0  0
M  END
>  <cdx:fragmentId>
4732

$$$$
