247477.cdx
  Mrv1902 05222410212D          

 11 11  0  0  0  0            999 V2000
    7.5673   -4.9156    0.0000 C   0  0  0  0  0  0  0  0  0  0  0  0
    8.2854   -5.3218    0.0000 C   0  0  0  0  0  0  0  0  0  0  0  0
    8.2927   -6.1467    0.0000 C   0  0  0  0  0  0  0  0  0  0  0  0
    7.5819   -6.5655    0.0000 C   0  0  0  0  0  0  0  0  0  0  0  0
    6.8638   -6.1594    0.0000 C   0  0  0  0  0  0  0  0  0  0  0  0
    6.8565   -5.3344    0.0000 C   0  0  0  0  0  0  0  0  0  0  0  0
    7.5599   -4.0906    0.0000 O   0  0  0  0  0  0  0  0  0  0  0  0
    6.1530   -6.5782    0.0000 C   0  0  0  0  0  0  0  0  0  0  0  0
    7.5892   -7.3905    0.0000 C   0  0  0  0  0  0  0  0  0  0  0  0
    8.9961   -4.9029    0.0000 C   0  0  0  0  0  0  0  0  0  0  0  0
    9.7106   -5.3154    0.0000 C   0  0  0  0  0  0  0  0  0  0  0  0
  1  2  1  0  0  0  0
  2  3  2  0  0  0  0
  3  4  1  0  0  0  0
  4  5  2  0  0  0  0
  5  6  1  0  0  0  0
  1  6  2  0  0  0  0
  1  7  1  0  0  0  0
  5  8  1  0  0  0  0
  4  9  1  0  0  0  0
 10 11  1  0  0  0  0
  2 10  1  0  0  0  0
M  END
>  <cdx:fragmentId>
4764

$$$$
