2477.cdx
  Mrv1902 05222410212D          

 34 37  0  0  0  0            999 V2000
    6.9832   -7.7455    0.0000 C   0  0  0  0  0  0  0  0  0  0  0  0
    7.6970   -8.1591    0.0000 C   0  0  0  0  0  0  0  0  0  0  0  0
    7.6957   -8.9841    0.0000 C   0  0  0  0  0  0  0  0  0  0  0  0
    6.9806   -9.3955    0.0000 C   0  0  0  0  0  0  0  0  0  0  0  0
    6.2668   -8.9819    0.0000 C   0  0  0  0  0  0  0  0  0  0  0  0
    5.5517   -9.3932    0.0000 C   0  0  0  0  0  0  0  0  0  0  0  0
    5.5504  -10.2182    0.0000 O   0  0  0  0  0  0  0  0  0  0  0  0
    4.8378   -8.9796    0.0000 C   0  0  0  0  0  0  0  0  0  0  0  0
    4.1227   -9.3910    0.0000 C   0  0  0  0  0  0  0  0  0  0  0  0
    3.4089   -8.9774    0.0000 C   0  0  0  0  0  0  0  0  0  0  0  0
    3.4102   -8.1524    0.0000 C   0  0  0  0  0  0  0  0  0  0  0  0
    4.1253   -7.7410    0.0000 C   0  0  0  0  0  0  0  0  0  0  0  0
    4.8391   -8.1546    0.0000 C   0  0  0  0  0  0  0  0  0  0  0  0
    5.5542   -7.7432    0.0000 C   0  0  0  0  0  0  0  0  0  0  0  0
    5.5555   -6.9182    0.0000 O   0  0  0  0  0  0  0  0  0  0  0  0
    6.2681   -8.1569    0.0000 C   0  0  0  0  0  0  0  0  0  0  0  0
    8.4096   -9.3977    0.0000 C   0  0  0  0  0  0  0  0  0  0  0  0
    4.1266   -6.9160    0.0000 O   0  0  0  0  0  0  0  0  0  0  0  0
    8.4121   -7.7477    0.0000 O   0  0  0  0  0  0  0  0  0  0  0  0
    2.6964   -7.7388    0.0000 O   0  0  0  0  0  0  0  0  0  0  0  0
    1.9813   -8.1502    0.0000 C   0  0  0  0  0  0  0  0  0  0  0  0
    6.9845   -6.9205    0.0000 O   0  0  0  0  0  0  0  0  0  0  0  0
    7.6996   -6.5091    0.0000 C   0  0  0  0  0  0  0  0  0  0  0  0
    9.8533   -9.4019    0.0000 C   0  0  2  0  0  0  0  0  0  0  0  0
   10.5667   -8.9875    0.0000 C   0  0  2  0  0  0  0  0  0  0  0  0
   10.5644   -8.1625    0.0000 C   0  0  1  0  0  0  0  0  0  0  0  0
    9.8488   -7.7519    0.0000 C   0  0  2  0  0  0  0  0  0  0  0  0
    9.1355   -8.1664    0.0000 C   0  0  1  0  0  0  0  0  0  0  0  0
    9.1377   -8.9914    0.0000 O   0  0  0  0  0  0  0  0  0  0  0  0
    9.8556  -10.2269    0.0000 C   0  0  0  0  0  0  0  0  0  0  0  0
   11.2777   -7.7480    0.0000 O   0  0  0  0  0  0  0  0  0  0  0  0
   11.2823   -9.3980    0.0000 O   0  0  0  0  0  0  0  0  0  0  0  0
    9.8465   -6.9269    0.0000 O   0  0  0  0  0  0  0  0  0  0  0  0
   10.5712  -10.6374    0.0000 O   0  0  0  0  0  0  0  0  0  0  0  0
  1  2  1  0  0  0  0
  2  3  2  0  0  0  0
  3  4  1  0  0  0  0
  4  5  2  0  0  0  0
  5  6  1  0  0  0  0
  6  7  2  0  0  0  0
  6  8  1  0  0  0  0
  8  9  1  0  0  0  0
  9 10  2  0  0  0  0
 10 11  1  0  0  0  0
 11 12  2  0  0  0  0
 12 13  1  0  0  0  0
  8 13  2  0  0  0  0
 13 14  1  0  0  0  0
 14 15  2  0  0  0  0
 14 16  1  0  0  0  0
  5 16  1  0  0  0  0
  1 16  2  0  0  0  0
  3 17  1  0  0  0  0
 12 18  1  0  0  0  0
  2 19  1  0  0  0  0
 20 21  1  0  0  0  0
 11 20  1  0  0  0  0
 22 23  1  0  0  0  0
  1 22  1  0  0  0  0
 24 25  1  0  0  0  0
 25 26  1  0  0  0  0
 26 27  1  0  0  0  0
 27 28  1  0  0  0  0
 28 29  1  0  0  0  0
 29 24  1  0  0  0  0
 24 30  1  1  0  0  0
 26 31  1  1  0  0  0
 25 32  1  6  0  0  0
 27 33  1  6  0  0  0
 30 34  1  0  0  0  0
 28 19  1  1  0  0  0
M  END
>  <cdx:fragmentId>
77

$$$$
