247893.cdx
  Mrv1902 05222410212D          

 35 38  0  0  0  0            999 V2000
    9.6286   -7.0472    0.0000 C   0  0  0  0  0  0  0  0  0  0  0  0
    9.3737   -7.8318    0.0000 C   0  0  0  0  0  0  0  0  0  0  0  0
    8.5667   -8.0034    0.0000 C   0  0  1  0  0  0  0  0  0  0  0  0
    8.0147   -7.3903    0.0000 C   0  0  0  0  0  0  0  0  0  0  0  0
   10.6905   -6.0911    0.0000 O   0  0  0  0  0  0  0  0  0  0  0  0
    4.6692   -9.8679    0.0000 C   0  0  0  0  0  0  0  0  0  0  0  0
    3.9548  -10.2804    0.0000 C   0  0  0  0  0  0  0  0  0  0  0  0
    3.9548  -11.1054    0.0000 C   0  0  0  0  0  0  0  0  0  0  0  0
    4.6692  -11.5179    0.0000 C   0  0  0  0  0  0  0  0  0  0  0  0
    5.3837  -11.1054    0.0000 C   0  0  2  0  0  0  0  0  0  0  0  0
    6.0982  -11.5179    0.0000 C   0  0  0  0  0  0  0  0  0  0  0  0
    6.8127  -11.1054    0.0000 C   0  0  0  0  0  0  0  0  0  0  0  0
    6.8127  -10.2804    0.0000 C   0  0  0  0  0  0  0  0  0  0  0  0
    7.5271   -9.8679    0.0000 C   0  0  2  0  0  0  0  0  0  0  0  0
    8.3117  -10.1229    0.0000 C   0  0  0  0  0  0  0  0  0  0  0  0
    8.7967   -9.4554    0.0000 C   0  0  0  0  0  0  0  0  0  0  0  0
    8.3117   -8.7880    0.0000 C   0  0  1  0  0  0  0  0  0  0  0  0
    7.5271   -9.0429    0.0000 C   0  0  1  0  0  0  0  0  0  0  0  0
    6.8127   -8.6304    0.0000 C   0  0  0  0  0  0  0  0  0  0  0  0
    6.0982   -9.0429    0.0000 C   0  0  0  0  0  0  0  0  0  0  0  0
    6.0982   -9.8679    0.0000 C   0  0  0  0  0  0  0  0  0  0  0  0
    5.3837  -10.2804    0.0000 C   0  0  1  0  0  0  0  0  0  0  0  0
    8.5667  -10.9075    0.0000 O   0  0  0  0  0  0  0  0  0  0  0  0
    5.3837   -8.6304    0.0000 O   0  0  0  0  0  0  0  0  0  0  0  0
    7.5271  -11.5179    0.0000 O   0  0  0  0  0  0  0  0  0  0  0  0
    3.2403  -11.5179    0.0000 O   0  0  0  0  0  0  0  0  0  0  0  0
    7.5271  -10.6700    0.0000 C   0  0  0  0  0  0  0  0  0  0  0  0
    7.5271   -8.1948    0.0000 C   0  0  0  0  0  0  0  0  0  0  0  0
    5.3837   -9.4554    0.0000 C   0  0  0  0  0  0  0  0  0  0  0  0
    5.0817  -12.2324    0.0000 C   0  0  0  0  0  0  0  0  0  0  0  0
    4.2567  -12.2324    0.0000 C   0  0  0  0  0  0  0  0  0  0  0  0
    5.3837  -11.9304    0.0000 H   0  0  0  0  0  0  0  0  0  0  0  0
   10.9876   -7.4888    0.0000 O   0  0  0  0  0  0  0  0  0  0  0  0
   10.4356   -6.8757    0.0000 C   0  0  0  0  0  0  0  0  0  0  0  0
    9.0964   -8.5331    0.0000 H   0  0  0  0  0  0  0  0  0  0  0  0
 34  5  1  0  0  0  0
 34 33  2  0  0  0  0
 34  1  1  0  0  0  0
  1  2  1  0  0  0  0
  2  3  1  0  0  0  0
  3  4  1  6  0  0  0
  6  7  1  0  0  0  0
  7  8  1  0  0  0  0
  8  9  1  0  0  0  0
  9 10  1  0  0  0  0
 10 11  1  0  0  0  0
 11 12  1  0  0  0  0
 12 13  1  0  0  0  0
 13 14  1  0  0  0  0
 14 15  1  0  0  0  0
 15 16  1  0  0  0  0
 17 16  1  0  0  0  0
 17 18  1  0  0  0  0
 14 18  1  0  0  0  0
 18 19  1  0  0  0  0
 19 20  1  0  0  0  0
 20 21  1  0  0  0  0
 13 21  2  0  0  0  0
 21 22  1  0  0  0  0
 10 22  1  0  0  0  0
  6 22  1  0  0  0  0
 15 23  2  0  0  0  0
 20 24  2  0  0  0  0
 12 25  2  0  0  0  0
  8 26  2  0  0  0  0
 14 27  1  6  0  0  0
 18 28  1  1  0  0  0
 22 29  1  1  0  0  0
  9 30  1  0  0  0  0
  9 31  1  0  0  0  0
  3 17  1  0  0  0  0
 10 32  1  6  0  0  0
 17 35  1  6  0  0  0
M  END
>  <cdx:groupId>
143749

>  <cdx:fragmentId>
143661

$$$$
