248.cdx
  Mrv1902 05222410202D          

 39 42  0  0  0  0            999 V2000
    2.7942   -8.2965    0.0000 C   0  0  0  0  0  0  0  0  0  0  0  0
    2.7942   -9.1215    0.0000 C   0  0  2  0  0  0  0  0  0  0  0  0
    3.5087   -9.5340    0.0000 C   0  0  0  0  0  0  0  0  0  0  0  0
    4.2232   -9.1215    0.0000 C   0  0  2  0  0  0  0  0  0  0  0  0
    4.2232   -8.2965    0.0000 C   0  0  2  0  0  0  0  0  0  0  0  0
    3.5087   -7.8840    0.0000 C   0  0  0  0  0  0  0  0  0  0  0  0
    4.9376   -9.5340    0.0000 C   0  0  0  0  0  0  0  0  0  0  0  0
    5.6521   -9.1215    0.0000 C   0  0  0  0  0  0  0  0  0  0  0  0
    5.6521   -8.2965    0.0000 C   0  0  2  0  0  0  0  0  0  0  0  0
    4.9376   -7.8840    0.0000 C   0  0  2  0  0  0  0  0  0  0  0  0
    6.3666   -7.8840    0.0000 C   0  0  1  0  0  0  0  0  0  0  0  0
    6.3666   -7.0590    0.0000 C   0  0  2  0  0  0  0  0  0  0  0  0
    5.6521   -6.6465    0.0000 C   0  0  2  0  0  0  0  0  0  0  0  0
    4.9376   -7.0590    0.0000 C   0  0  0  0  0  0  0  0  0  0  0  0
    7.1512   -8.1389    0.0000 C   0  0  0  0  0  0  0  0  0  0  0  0
    7.6361   -7.4715    0.0000 C   0  0  0  0  0  0  0  0  0  0  0  0
    7.1512   -6.8041    0.0000 C   0  0  2  0  0  0  0  0  0  0  0  0
    2.0798   -9.5340    0.0000 O   0  0  0  0  0  0  0  0  0  0  0  0
    4.2232   -7.4715    0.0000 C   0  0  0  0  0  0  0  0  0  0  0  0
    6.3666   -6.2340    0.0000 C   0  0  0  0  0  0  0  0  0  0  0  0
    4.2232   -9.9465    0.0000 H   0  0  0  0  0  0  0  0  0  0  0  0
    5.6521   -7.4715    0.0000 H   0  0  0  0  0  0  0  0  0  0  0  0
    4.9376   -8.7090    0.0000 H   0  0  0  0  0  0  0  0  0  0  0  0
    6.3666   -8.7090    0.0000 H   0  0  0  0  0  0  0  0  0  0  0  0
    7.9762   -6.8041    0.0000 H   0  0  0  0  0  0  0  0  0  0  0  0
    5.6521   -5.8215    0.0000 O   0  0  0  0  0  0  0  0  0  0  0  0
    7.4336   -6.0194    0.0000 C   0  0  2  0  0  0  0  0  0  0  0  0
    6.8816   -5.4063    0.0000 C   0  0  0  0  0  0  0  0  0  0  0  0
    8.2406   -5.8479    0.0000 C   0  0  0  0  0  0  0  0  0  0  0  0
    8.4955   -5.0633    0.0000 C   0  0  0  0  0  0  0  0  0  0  0  0
    9.3025   -4.8918    0.0000 C   0  0  0  0  0  0  0  0  0  0  0  0
    9.8546   -5.5049    0.0000 O   0  0  0  0  0  0  0  0  0  0  0  0
    9.5575   -4.1071    0.0000 N   0  0  0  0  0  0  0  0  0  0  0  0
   10.3644   -3.9356    0.0000 C   0  0  0  0  0  0  0  0  0  0  0  0
   10.6194   -3.1510    0.0000 C   0  0  0  0  0  0  0  0  0  0  0  0
   11.4263   -2.9795    0.0000 S   0  0  0  0  0  0  0  0  0  0  0  0
   11.6399   -3.7764    0.0000 O   0  0  0  0  0  0  0  0  0  0  0  0
   11.2128   -2.1826    0.0000 O   0  0  0  0  0  0  0  0  0  0  0  0
   12.2333   -2.8079    0.0000 O   0  0  0  0  0  0  0  0  0  0  0  0
  1  2  1  0  0  0  0
  2  3  1  0  0  0  0
  3  4  1  0  0  0  0
  4  5  1  0  0  0  0
  5  6  1  0  0  0  0
  6  1  1  0  0  0  0
  4  7  1  0  0  0  0
  7  8  1  0  0  0  0
  8  9  1  0  0  0  0
  9 10  1  0  0  0  0
 10  5  1  0  0  0  0
  9 11  1  0  0  0  0
 11 12  1  0  0  0  0
 12 13  1  0  0  0  0
 13 14  1  0  0  0  0
 14 10  1  0  0  0  0
 11 15  1  0  0  0  0
 15 16  1  0  0  0  0
 16 17  1  0  0  0  0
 17 12  1  0  0  0  0
  5 19  1  1  0  0  0
 12 20  1  1  0  0  0
  2 18  1  6  0  0  0
  4 21  1  1  0  0  0
  9 22  1  1  0  0  0
 10 23  1  6  0  0  0
 11 24  1  6  0  0  0
 17 25  1  6  0  0  0
 13 26  1  6  0  0  0
 27 28  1  6  0  0  0
 27 29  1  0  0  0  0
 29 30  1  0  0  0  0
 30 31  1  0  0  0  0
 31 32  2  0  0  0  0
 31 33  1  0  0  0  0
 33 34  1  0  0  0  0
 34 35  1  0  0  0  0
 35 36  1  0  0  0  0
 36 37  2  0  0  0  0
 36 38  2  0  0  0  0
 36 39  1  0  0  0  0
 17 27  1  0  0  0  0
M  END
>  <cdx:fragmentId>
5

$$$$
