2481.cdx
  Mrv1902 05222410242D          

 19 21  0  0  0  0            999 V2000
    9.2636   -8.4769    0.0000 O   0  0  0  0  0  0  0  0  0  0  0  0
    3.5479   -6.8269    0.0000 O   0  0  0  0  0  0  0  0  0  0  0  0
    7.8347   -6.0019    0.0000 O   0  0  0  0  0  0  0  0  0  0  0  0
    6.4057   -6.0019    0.0000 O   0  0  0  0  0  0  0  0  0  0  0  0
    4.9768   -6.8269    0.0000 C   0  0  0  0  0  0  0  0  0  0  0  0
    4.2623   -7.2394    0.0000 C   0  0  0  0  0  0  0  0  0  0  0  0
    4.2623   -8.0644    0.0000 C   0  0  0  0  0  0  0  0  0  0  0  0
    4.9768   -8.4769    0.0000 C   0  0  0  0  0  0  0  0  0  0  0  0
    6.4057   -6.8269    0.0000 C   0  0  0  0  0  0  0  0  0  0  0  0
    5.6913   -7.2394    0.0000 C   0  0  0  0  0  0  0  0  0  0  0  0
    5.6913   -8.0644    0.0000 C   0  0  0  0  0  0  0  0  0  0  0  0
    6.4057   -8.4769    0.0000 O   0  0  0  0  0  0  0  0  0  0  0  0
    7.8347   -6.8269    0.0000 C   0  0  0  0  0  0  0  0  0  0  0  0
    7.1202   -7.2394    0.0000 C   0  0  0  0  0  0  0  0  0  0  0  0
    7.1202   -8.0644    0.0000 C   0  0  0  0  0  0  0  0  0  0  0  0
    7.8347   -8.4769    0.0000 C   0  0  0  0  0  0  0  0  0  0  0  0
    8.5492   -8.0644    0.0000 C   0  0  0  0  0  0  0  0  0  0  0  0
    8.5492   -7.2394    0.0000 C   0  0  0  0  0  0  0  0  0  0  0  0
    9.9781   -8.0644    0.0000 C   0  0  0  0  0  0  0  0  0  0  0  0
 17  1  1  0  0  0  0
  6  2  1  0  0  0  0
 13  3  1  0  0  0  0
  9  4  2  0  0  0  0
  5 10  2  0  0  0  0
  6  5  1  0  0  0  0
  7  6  2  0  0  0  0
  8  7  1  0  0  0  0
 11  8  2  0  0  0  0
  9 14  1  0  0  0  0
 10  9  1  0  0  0  0
 11 10  1  0  0  0  0
 12 11  1  0  0  0  0
 15 12  1  0  0  0  0
 13 18  1  0  0  0  0
 14 13  2  0  0  0  0
 15 14  1  0  0  0  0
 16 15  2  0  0  0  0
 17 16  1  0  0  0  0
 18 17  2  0  0  0  0
  1 19  1  0  0  0  0
M  END
>  <cdx:fragmentId>
5

$$$$
