248282.cdx
  Mrv1902 05222410192D          

 20 22  0  0  0  0            999 V2000
    8.4253   -5.9407    0.0000 O   0  0  0  0  0  0  0  0  0  0  0  0
    7.6407   -6.1956    0.0000 C   0  0  2  0  0  0  0  0  0  0  0  0
    7.1558   -5.5282    0.0000 C   0  0  1  0  0  0  0  0  0  0  0  0
    7.6407   -4.8608    0.0000 C   0  0  1  0  0  0  0  0  0  0  0  0
    8.4253   -5.1157    0.0000 C   0  0  1  0  0  0  0  0  0  0  0  0
    6.3308   -5.5282    0.0000 O   0  0  0  0  0  0  0  0  0  0  0  0
    7.3857   -4.0761    0.0000 O   0  0  0  0  0  0  0  0  0  0  0  0
    9.0927   -4.6308    0.0000 C   0  0  0  0  0  0  0  0  0  0  0  0
    9.8464   -4.9663    0.0000 S   0  0  0  0  0  0  0  0  0  0  0  0
   10.5139   -4.4814    0.0000 C   0  0  0  0  0  0  0  0  0  0  0  0
    7.3857   -8.3151    0.0000 N   0  0  0  0  0  0  0  0  0  0  0  0
    7.8707   -7.6477    0.0000 C   0  0  0  0  0  0  0  0  0  0  0  0
    7.3857   -6.9803    0.0000 N   0  0  0  0  0  0  0  0  0  0  0  0
    6.6011   -7.2352    0.0000 C   0  0  0  0  0  0  0  0  0  0  0  0
    5.8866   -6.8227    0.0000 N   0  0  0  0  0  0  0  0  0  0  0  0
    5.1722   -7.2352    0.0000 C   0  0  0  0  0  0  0  0  0  0  0  0
    5.1722   -8.0602    0.0000 N   0  0  0  0  0  0  0  0  0  0  0  0
    5.8866   -8.4727    0.0000 C   0  0  0  0  0  0  0  0  0  0  0  0
    6.6011   -8.0602    0.0000 C   0  0  0  0  0  0  0  0  0  0  0  0
    5.8866   -9.2977    0.0000 N   0  0  0  0  0  0  0  0  0  0  0  0
  1  2  1  0  0  0  0
  2  3  1  0  0  0  0
  3  4  1  0  0  0  0
  4  5  1  0  0  0  0
  1  5  1  0  0  0  0
  3  6  1  6  0  0  0
  4  7  1  6  0  0  0
  9 10  1  0  0  0  0
  8  9  1  0  0  0  0
  5  8  1  1  0  0  0
 11 12  2  0  0  0  0
 12 13  1  0  0  0  0
 13 14  1  0  0  0  0
 14 15  2  0  0  0  0
 15 16  1  0  0  0  0
 16 17  2  0  0  0  0
 17 18  1  0  0  0  0
 18 19  2  0  0  0  0
 11 19  1  0  0  0  0
 14 19  1  0  0  0  0
 18 20  1  0  0  0  0
  2 13  1  1  0  0  0
M  END
>  <cdx:fragmentId>
3215

$$$$
