2485.cdx
  Mrv1902 05222410252D          

 21 22  0  0  0  0            999 V2000
    2.3059   -8.2780    0.0000 C   0  0  0  0  0  0  0  0  0  0  0  0
    1.8934   -8.9925    0.0000 C   0  0  0  0  0  0  0  0  0  0  0  0
    2.3059   -9.7070    0.0000 C   0  0  0  0  0  0  0  0  0  0  0  0
    3.1309   -9.7070    0.0000 C   0  0  0  0  0  0  0  0  0  0  0  0
    3.5434   -8.9925    0.0000 C   0  0  0  0  0  0  0  0  0  0  0  0
    3.1309   -8.2780    0.0000 C   0  0  0  0  0  0  0  0  0  0  0  0
    4.3684   -8.9925    0.0000 C   0  0  0  0  0  0  0  0  0  0  0  0
    4.7809   -8.2780    0.0000 C   0  0  0  0  0  0  0  0  0  0  0  0
    5.6059   -8.2780    0.0000 C   0  0  0  0  0  0  0  0  0  0  0  0
    6.0184   -7.5636    0.0000 O   0  0  0  0  0  0  0  0  0  0  0  0
    6.0184   -8.9925    0.0000 C   0  0  0  0  0  0  0  0  0  0  0  0
    6.8434   -8.9925    0.0000 C   0  0  0  0  0  0  0  0  0  0  0  0
    7.2559   -8.2780    0.0000 C   0  0  0  0  0  0  0  0  0  0  0  0
    8.0809   -8.2780    0.0000 C   0  0  0  0  0  0  0  0  0  0  0  0
    8.4934   -7.5636    0.0000 C   0  0  0  0  0  0  0  0  0  0  0  0
    9.3184   -7.5636    0.0000 C   0  0  0  0  0  0  0  0  0  0  0  0
    9.7309   -6.8491    0.0000 C   0  0  0  0  0  0  0  0  0  0  0  0
    9.3184   -6.1346    0.0000 C   0  0  0  0  0  0  0  0  0  0  0  0
    8.4934   -6.1346    0.0000 C   0  0  0  0  0  0  0  0  0  0  0  0
    8.0809   -6.8491    0.0000 C   0  0  0  0  0  0  0  0  0  0  0  0
    7.2559   -9.7070    0.0000 O   0  0  0  0  0  0  0  0  0  0  0  0
  1  2  2  0  0  0  0
  2  3  1  0  0  0  0
  3  4  2  0  0  0  0
  4  5  1  0  0  0  0
  5  6  2  0  0  0  0
  6  1  1  0  0  0  0
  5  7  1  0  0  0  0
  7  8  1  0  0  0  0
  8  9  1  0  0  0  0
  9 10  2  0  0  0  0
  9 11  1  0  0  0  0
 11 12  2  0  0  0  0
 12 13  1  0  0  0  0
 13 14  2  0  0  0  0
 14 15  1  0  0  0  0
 15 16  2  0  0  0  0
 16 17  1  0  0  0  0
 17 18  2  0  0  0  0
 18 19  1  0  0  0  0
 19 20  2  0  0  0  0
 20 15  1  0  0  0  0
 12 21  1  0  0  0  0
M  END
>  <cdx:fragmentId>
5

$$$$
