101248954.cdx
  Mrv1902 05222410242D          

 67 75  0  0  0  0            999 V2000
   12.7728  -14.2719    0.0000 C   0  0  2  0  0  0  0  0  0  0  0  0
   12.7728  -15.0969    0.0000 C   0  0  0  0  0  0  0  0  0  0  0  0
   12.0584  -15.5094    0.0000 C   0  0  0  0  0  0  0  0  0  0  0  0
   11.3439  -15.0969    0.0000 C   0  0  1  0  0  0  0  0  0  0  0  0
   10.6294  -15.5094    0.0000 C   0  0  2  0  0  0  0  0  0  0  0  0
   10.6294  -16.3344    0.0000 C   0  0  0  0  0  0  0  0  0  0  0  0
    9.9149  -16.7469    0.0000 C   0  0  0  0  0  0  0  0  0  0  0  0
    9.2005  -16.3344    0.0000 C   0  0  1  0  0  0  0  0  0  0  0  0
    8.4860  -16.7469    0.0000 C   0  0  0  0  0  0  0  0  0  0  0  0
    7.7715  -16.3344    0.0000 C   0  0  2  0  0  0  0  0  0  0  0  0
    7.7715  -15.5094    0.0000 C   0  0  0  0  0  0  0  0  0  0  0  0
    8.4860  -15.0969    0.0000 C   0  0  0  0  0  0  0  0  0  0  0  0
    9.2005  -15.5094    0.0000 C   0  0  2  0  0  0  0  0  0  0  0  0
    9.9149  -15.0969    0.0000 C   0  0  1  0  0  0  0  0  0  0  0  0
    9.9149  -14.2719    0.0000 C   0  0  0  0  0  0  0  0  0  0  0  0
   10.6294  -13.8594    0.0000 C   0  0  0  0  0  0  0  0  0  0  0  0
   11.3439  -14.2719    0.0000 C   0  0  2  0  0  0  0  0  0  0  0  0
   12.0584  -13.8594    0.0000 C   0  0  2  0  0  0  0  0  0  0  0  0
   12.0584  -13.0344    0.0000 C   0  0  0  0  0  0  0  0  0  0  0  0
   12.7728  -12.6219    0.0000 C   0  0  2  0  0  0  0  0  0  0  0  0
   13.4873  -13.0344    0.0000 C   0  0  0  0  0  0  0  0  0  0  0  0
   13.4873  -13.8594    0.0000 C   0  0  0  0  0  0  0  0  0  0  0  0
   12.3975  -13.7042    0.0000 C   0  0  0  0  0  0  0  0  0  0  0  0
   11.7169  -13.7042    0.0000 O   0  0  0  0  0  0  0  0  0  0  0  0
   12.3603  -11.9075    0.0000 C   0  0  0  0  0  0  0  0  0  0  0  0
   11.5353  -11.9075    0.0000 O   0  0  0  0  0  0  0  0  0  0  0  0
    9.9149  -17.5719    0.0000 O   0  0  0  0  0  0  0  0  0  0  0  0
   13.1853  -11.9075    0.0000 C   0  0  0  0  0  0  0  0  0  0  0  0
    9.2005  -14.6844    0.0000 C   0  0  0  0  0  0  0  0  0  0  0  0
    8.8985  -17.4614    0.0000 C   0  0  0  0  0  0  0  0  0  0  0  0
    8.0735  -17.4614    0.0000 C   0  0  0  0  0  0  0  0  0  0  0  0
   10.6294  -14.6844    0.0000 C   0  0  0  0  0  0  0  0  0  0  0  0
   11.3439  -15.9219    0.0000 C   0  0  0  0  0  0  0  0  0  0  0  0
    7.0571  -16.7469    0.0000 O   0  0  0  0  0  0  0  0  0  0  0  0
    6.3426  -15.5094    0.0000 O   0  0  0  0  0  0  0  0  0  0  0  0
    6.3426  -16.3344    0.0000 C   0  0  1  0  0  0  0  0  0  0  0  0
    5.6281  -16.7469    0.0000 C   0  0  2  0  0  0  0  0  0  0  0  0
    4.9136  -16.3344    0.0000 C   0  0  1  0  0  0  0  0  0  0  0  0
    4.9136  -15.5094    0.0000 C   0  0  1  0  0  0  0  0  0  0  0  0
    5.6281  -15.0969    0.0000 C   0  0  0  0  0  0  0  0  0  0  0  0
    4.1992  -16.7469    0.0000 O   0  0  0  0  0  0  0  0  0  0  0  0
    5.6281  -17.5719    0.0000 O   0  0  0  0  0  0  0  0  0  0  0  0
    4.1992  -15.0969    0.0000 O   0  0  0  0  0  0  0  0  0  0  0  0
    3.4847  -16.3344    0.0000 O   0  0  0  0  0  0  0  0  0  0  0  0
    3.4847  -15.5094    0.0000 C   0  0  2  0  0  0  0  0  0  0  0  0
    2.7702  -15.0969    0.0000 C   0  0  1  0  0  0  0  0  0  0  0  0
    2.0558  -15.5094    0.0000 C   0  0  2  0  0  0  0  0  0  0  0  0
    2.0558  -16.3344    0.0000 C   0  0  1  0  0  0  0  0  0  0  0  0
    2.7702  -16.7469    0.0000 C   0  0  1  0  0  0  0  0  0  0  0  0
    2.7702  -14.2719    0.0000 O   0  0  0  0  0  0  0  0  0  0  0  0
    4.1992  -14.2719    0.0000 O   0  0  0  0  0  0  0  0  0  0  0  0
    3.4847  -13.8594    0.0000 C   0  0  2  0  0  0  0  0  0  0  0  0
    3.4847  -13.0344    0.0000 C   0  0  1  0  0  0  0  0  0  0  0  0
    4.1992  -12.6219    0.0000 C   0  0  1  0  0  0  0  0  0  0  0  0
    4.9136  -13.0344    0.0000 C   0  0  2  0  0  0  0  0  0  0  0  0
    4.9136  -13.8594    0.0000 C   0  0  2  0  0  0  0  0  0  0  0  0
    5.6281  -14.2719    0.0000 C   0  0  0  0  0  0  0  0  0  0  0  0
    5.6281  -12.6219    0.0000 O   0  0  0  0  0  0  0  0  0  0  0  0
    4.1992  -11.7969    0.0000 O   0  0  0  0  0  0  0  0  0  0  0  0
    2.7702  -12.6219    0.0000 O   0  0  0  0  0  0  0  0  0  0  0  0
    2.7702  -17.5719    0.0000 C   0  0  0  0  0  0  0  0  0  0  0  0
    2.0558  -17.9844    0.0000 O   0  0  0  0  0  0  0  0  0  0  0  0
    1.3413  -16.7469    0.0000 O   0  0  0  0  0  0  0  0  0  0  0  0
    1.3413  -15.0969    0.0000 O   0  0  0  0  0  0  0  0  0  0  0  0
    9.2005  -17.1594    0.0000 H   0  0  0  0  0  0  0  0  0  0  0  0
    9.9149  -15.9219    0.0000 H   0  0  0  0  0  0  0  0  0  0  0  0
   12.0584  -14.6844    0.0000 H   0  0  0  0  0  0  0  0  0  0  0  0
  1  2  1  0  0  0  0
  2  3  1  0  0  0  0
  3  4  1  0  0  0  0
  4  5  1  0  0  0  0
  5  6  1  0  0  0  0
  6  7  1  0  0  0  0
  7  8  1  0  0  0  0
  8  9  1  0  0  0  0
  9 10  1  0  0  0  0
 10 11  1  0  0  0  0
 11 12  1  0  0  0  0
 12 13  1  0  0  0  0
 13 14  1  0  0  0  0
 14 15  1  0  0  0  0
 15 16  1  0  0  0  0
 16 17  1  0  0  0  0
 17 18  1  0  0  0  0
 18 19  1  0  0  0  0
 19 20  1  0  0  0  0
 20 21  1  0  0  0  0
 21 22  1  0  0  0  0
 23 24  1  0  0  0  0
  1 22  1  0  0  0  0
  1 23  1  1  0  0  0
 17 24  1  1  0  0  0
  1 18  1  0  0  0  0
  4 17  1  0  0  0  0
  5 14  1  0  0  0  0
  8 13  1  0  0  0  0
 25 26  2  0  0  0  0
 20 25  1  1  0  0  0
  7 27  2  0  0  0  0
 20 28  1  6  0  0  0
 13 29  1  1  0  0  0
  9 30  1  0  0  0  0
  9 31  1  0  0  0  0
  5 32  1  1  0  0  0
  4 33  1  6  0  0  0
 35 36  1  0  0  0  0
 36 37  1  0  0  0  0
 37 38  1  0  0  0  0
 38 39  1  0  0  0  0
 39 40  1  0  0  0  0
 35 40  1  0  0  0  0
 38 41  1  6  0  0  0
 37 42  1  1  0  0  0
 44 45  1  0  0  0  0
 45 46  1  0  0  0  0
 46 47  1  0  0  0  0
 47 48  1  0  0  0  0
 48 49  1  0  0  0  0
 44 49  1  0  0  0  0
 51 52  1  0  0  0  0
 52 53  1  0  0  0  0
 53 54  1  0  0  0  0
 54 55  1  0  0  0  0
 55 56  1  0  0  0  0
 51 56  1  0  0  0  0
 56 57  1  6  0  0  0
 55 58  1  1  0  0  0
 54 59  1  6  0  0  0
 53 60  1  6  0  0  0
 52 50  1  1  0  0  0
 46 50  1  1  0  0  0
 61 62  1  0  0  0  0
 49 61  1  6  0  0  0
 48 63  1  1  0  0  0
 47 64  1  6  0  0  0
 45 43  1  6  0  0  0
 39 43  1  6  0  0  0
 36 34  1  6  0  0  0
 10 34  1  1  0  0  0
  8 65  1  6  0  0  0
 14 66  1  6  0  0  0
 18 67  1  1  0  0  0
M  END
>  <cdx:groupId>
237538

>  <cdx:fragmentId>
237332

$$$$
