2492.cdx
  Mrv1902 05222410242D          

 24 27  0  0  0  0            999 V2000
    8.3019   -4.0917    0.0000 C   0  0  0  0  0  0  0  0  0  0  0  0
    7.5938   -4.5151    0.0000 C   0  0  0  0  0  0  0  0  0  0  0  0
    7.6065   -5.3400    0.0000 C   0  0  0  0  0  0  0  0  0  0  0  0
    8.3272   -5.7415    0.0000 C   0  0  0  0  0  0  0  0  0  0  0  0
    9.0352   -5.3181    0.0000 C   0  0  0  0  0  0  0  0  0  0  0  0
    9.0226   -4.4932    0.0000 C   0  0  0  0  0  0  0  0  0  0  0  0
    8.3399   -6.5664    0.0000 C   0  0  0  0  0  0  0  0  0  0  0  0
    9.0606   -6.9679    0.0000 N   0  3  0  0  0  0  0  0  0  0  0  0
    9.7686   -6.5444    0.0000 C   0  0  0  0  0  0  0  0  0  0  0  0
    9.7560   -5.7195    0.0000 C   0  0  0  0  0  0  0  0  0  0  0  0
    6.8984   -5.7634    0.0000 C   0  0  0  0  0  0  0  0  0  0  0  0
    6.9111   -6.5883    0.0000 C   0  0  0  0  0  0  0  0  0  0  0  0
    7.6318   -6.9898    0.0000 C   0  0  0  0  0  0  0  0  0  0  0  0
    6.1777   -5.3620    0.0000 C   0  0  0  0  0  0  0  0  0  0  0  0
    5.4697   -5.7854    0.0000 C   0  0  0  0  0  0  0  0  0  0  0  0
    5.4823   -6.6103    0.0000 C   0  0  0  0  0  0  0  0  0  0  0  0
    6.2030   -7.0118    0.0000 C   0  0  0  0  0  0  0  0  0  0  0  0
    6.1650   -4.5371    0.0000 O   0  0  0  0  0  0  0  0  0  0  0  0
    8.6481   -7.6823    0.0000 C   0  0  0  0  0  0  0  0  0  0  0  0
    8.2892   -3.2668    0.0000 O   0  0  0  0  0  0  0  0  0  0  0  0
    6.8731   -4.1136    0.0000 O   0  0  0  0  0  0  0  0  0  0  0  0
    4.7489   -5.3839    0.0000 O   0  0  0  0  0  0  0  0  0  0  0  0
    7.5685   -2.8653    0.0000 C   0  0  0  0  0  0  0  0  0  0  0  0
    9.4731   -7.6823    0.0000 C   0  0  0  0  0  0  0  0  0  0  0  0
  1  2  2  0  0  0  0
  2  3  1  0  0  0  0
  3  4  2  0  0  0  0
  4  5  1  0  0  0  0
  5  6  2  0  0  0  0
  6  1  1  0  0  0  0
  4  7  1  0  0  0  0
  7  8  1  0  0  0  0
  8  9  1  0  0  0  0
  9 10  1  0  0  0  0
 10  5  1  0  0  0  0
  3 11  1  0  0  0  0
 11 12  2  0  0  0  0
 12 13  1  0  0  0  0
 13  7  1  0  0  0  0
 11 14  1  0  0  0  0
 14 15  2  0  0  0  0
 15 16  1  0  0  0  0
 16 17  2  0  0  0  0
 17 12  1  0  0  0  0
 14 18  1  0  0  0  0
  8 19  1  0  0  0  0
  1 20  1  0  0  0  0
  2 21  1  0  0  0  0
 15 22  1  0  0  0  0
 20 23  1  0  0  0  0
  8 24  1  0  0  0  0
M  CHG  1   8   1
M  END
>  <cdx:fragmentId>
5

$$$$
