24975.cdx
  Mrv1902 05222410192D          

 35 39  0  0  0  0            999 V2000
    7.0075   -5.9266    0.0000 O   0  0  0  0  0  0  0  0  0  0  0  0
    6.5236   -6.5948    0.0000 C   0  0  1  0  0  0  0  0  0  0  0  0
    5.7386   -6.3411    0.0000 C   0  0  0  0  0  0  0  0  0  0  0  0
    5.7373   -5.5161    0.0000 C   0  0  1  0  0  0  0  0  0  0  0  0
    6.5215   -5.2599    0.0000 C   0  0  0  0  0  0  0  0  0  0  0  0
    6.7752   -4.4749    0.0000 O   0  0  0  0  0  0  0  0  0  0  0  0
    5.0691   -5.0322    0.0000 C   0  0  0  0  0  0  0  0  0  0  0  0
    9.8410   -8.7849    0.0000 H   0  0  0  0  0  0  0  0  0  0  0  0
    7.4975   -9.3836    0.0000 H   0  0  0  0  0  0  0  0  0  0  0  0
    7.1536   -9.1722    0.0000 H   0  0  0  0  0  0  0  0  0  0  0  0
   11.2713  -11.2408    0.0000 C   0  0  0  0  0  0  0  0  0  0  0  0
   10.5562  -10.8294    0.0000 O   0  0  0  0  0  0  0  0  0  0  0  0
   10.3919  -12.6066    0.0000 C   0  0  0  0  0  0  0  0  0  0  0  0
    7.4255  -10.2065    0.0000 C   0  0  0  0  0  0  0  0  0  0  0  0
    6.7819   -8.7139    0.0000 C   0  0  0  0  0  0  0  0  0  0  0  0
    6.2959   -8.0472    0.0000 C   0  0  0  0  0  0  0  0  0  0  0  0
    6.7798   -7.3790    0.0000 C   0  0  2  0  0  0  0  0  0  0  0  0
    7.5648   -7.6327    0.0000 N   0  0  0  0  0  0  0  0  0  0  0  0
    8.2090   -7.1173    0.0000 C   0  0  0  0  0  0  0  0  0  0  0  0
    9.0136   -7.2997    0.0000 C   0  0  0  0  0  0  0  0  0  0  0  0
    9.3727   -8.0424    0.0000 C   0  0  0  0  0  0  0  0  0  0  0  0
    9.0160   -8.7862    0.0000 C   0  0  1  0  0  0  0  0  0  0  0  0
    9.4402   -9.4938    0.0000 O   0  0  0  0  0  0  0  0  0  0  0  0
    8.8984  -10.1159    0.0000 C   0  0  0  0  0  0  0  0  0  0  0  0
    8.1393   -9.7929    0.0000 C   0  0  2  0  0  0  0  0  0  0  0  0
    8.2119   -8.9711    0.0000 C   0  0  2  0  0  0  0  0  0  0  0  0
    7.5661   -8.4577    0.0000 C   0  0  2  0  0  0  0  0  0  0  0  0
    8.6426  -13.0088    0.0000 O   0  0  0  0  0  0  0  0  0  0  0  0
    9.0833  -10.9200    0.0000 C   0  0  0  0  0  0  0  0  0  0  0  0
    9.8424  -11.2430    0.0000 C   0  0  0  0  0  0  0  0  0  0  0  0
    9.7697  -12.0648    0.0000 C   0  0  0  0  0  0  0  0  0  0  0  0
    8.9657  -12.2497    0.0000 C   0  0  0  0  0  0  0  0  0  0  0  0
    8.5414  -11.5421    0.0000 O   0  0  0  0  0  0  0  0  0  0  0  0
    5.8091   -7.0073    0.0000 H   0  0  0  0  0  0  0  0  0  0  0  0
    5.9548   -7.3790    0.0000 H   0  0  0  0  0  0  0  0  0  0  0  0
 22  8  1  6  0  0  0
 26  9  1  1  0  0  0
 27 10  1  1  0  0  0
 30 12  1  0  0  0  0
 12 11  1  0  0  0  0
 31 13  1  0  0  0  0
 29 24  2  0  0  0  0
 25 14  1  1  0  0  0
 17  2  1  0  0  0  0
 26 22  1  0  0  0  0
 27 18  1  0  0  0  0
 27 15  1  0  0  0  0
 16 15  1  0  0  0  0
 17 16  1  0  0  0  0
 18 17  1  0  0  0  0
 19 18  1  0  0  0  0
 20 19  1  0  0  0  0
 21 20  1  0  0  0  0
 22 21  1  0  0  0  0
 23 22  1  0  0  0  0
 24 23  1  0  0  0  0
 25 24  1  0  0  0  0
 26 25  1  0  0  0  0
 27 26  1  0  0  0  0
 32 28  2  0  0  0  0
 33 29  1  0  0  0  0
 30 29  1  0  0  0  0
 31 30  2  0  0  0  0
 32 31  1  0  0  0  0
 33 32  1  0  0  0  0
  2  1  1  0  0  0  0
  2  3  1  0  0  0  0
  3  4  1  0  0  0  0
  4  5  1  0  0  0  0
  1  5  1  0  0  0  0
  5  6  2  0  0  0  0
  4  7  1  6  0  0  0
  2 34  1  1  0  0  0
 17 35  1  6  0  0  0
M  END
>  <cdx:fragmentId>
36014

$$$$
