250096.cdx
  Mrv1902 05222410212D          

 14 14  0  0  0  0            999 V2000
    5.9995   -7.5127    0.0000 C   0  0  0  0  0  0  0  0  0  0  0  0
    5.2850   -7.9252    0.0000 C   0  0  0  0  0  0  0  0  0  0  0  0
    4.5706   -7.5127    0.0000 C   0  0  0  0  0  0  0  0  0  0  0  0
    4.5706   -6.6877    0.0000 C   0  0  0  0  0  0  0  0  0  0  0  0
    5.2850   -6.2752    0.0000 C   0  0  0  0  0  0  0  0  0  0  0  0
    5.9995   -6.6877    0.0000 C   0  0  0  0  0  0  0  0  0  0  0  0
    6.7140   -6.2752    0.0000 C   0  0  0  0  0  0  0  0  0  0  0  0
    8.8574   -7.5127    0.0000 C   0  0  0  0  0  0  0  0  0  0  0  0
    7.4284   -6.6877    0.0000 O   0  0  0  0  0  0  0  0  0  0  0  0
    8.1429   -5.4502    0.0000 O   0  0  0  0  0  0  0  0  0  0  0  0
   10.2863   -6.6877    0.0000 C   0  0  0  0  0  0  0  0  0  0  0  0
    9.5718   -6.2752    0.0000 C   0  0  0  0  0  0  0  0  0  0  0  0
    8.8574   -6.6877    0.0000 C   0  0  0  0  0  0  0  0  0  0  0  0
    8.1429   -6.2752    0.0000 C   0  0  0  0  0  0  0  0  0  0  0  0
  9  7  1  0  0  0  0
  6  1  2  0  0  0  0
  2  1  1  0  0  0  0
  3  2  2  0  0  0  0
  4  3  1  0  0  0  0
  5  4  2  0  0  0  0
  6  5  1  0  0  0  0
  7  6  1  0  0  0  0
 13  8  1  0  0  0  0
 14  9  1  0  0  0  0
 14 10  2  0  0  0  0
 12 11  1  0  0  0  0
 13 12  2  0  0  0  0
 14 13  1  0  0  0  0
M  END
>  <cdx:fragmentId>
23

$$$$
