2500.cdx
  Mrv1902 05222410212D          

 30 31  0  0  0  0            999 V2000
    2.8537   -6.6825    0.0000 C   0  0  0  0  0  0  0  0  0  0  0  0
    2.8537   -7.5075    0.0000 C   0  0  0  0  0  0  0  0  0  0  0  0
    3.5681   -7.9200    0.0000 C   0  0  0  0  0  0  0  0  0  0  0  0
    4.2826   -7.5075    0.0000 C   0  0  0  0  0  0  0  0  0  0  0  0
    4.2826   -6.6825    0.0000 C   0  0  0  0  0  0  0  0  0  0  0  0
    3.5681   -6.2700    0.0000 C   0  0  0  0  0  0  0  0  0  0  0  0
    4.9971   -7.9200    0.0000 C   0  0  0  0  0  0  0  0  0  0  0  0
    5.7115   -7.5075    0.0000 C   0  0  0  0  0  0  0  0  0  0  0  0
    5.7115   -6.6825    0.0000 C   0  0  0  0  0  0  0  0  0  0  0  0
    4.9971   -6.2700    0.0000 C   0  0  0  0  0  0  0  0  0  0  0  0
    7.1405   -6.6825    0.0000 C   0  0  0  0  0  0  0  0  0  0  0  0
    6.4260   -6.2700    0.0000 C   0  0  0  0  0  0  0  0  0  0  0  0
    8.5694   -7.5075    0.0000 C   0  0  0  0  0  0  0  0  0  0  0  0
    8.5694   -6.6825    0.0000 C   0  0  0  0  0  0  0  0  0  0  0  0
    7.8550   -6.2700    0.0000 C   0  0  0  0  0  0  0  0  0  0  0  0
    3.5681   -5.4450    0.0000 O   0  0  0  0  0  0  0  0  0  0  0  0
    3.5681   -8.7450    0.0000 O   0  0  0  0  0  0  0  0  0  0  0  0
    4.9971   -5.4450    0.0000 O   0  0  0  0  0  0  0  0  0  0  0  0
    5.7115   -5.0325    0.0000 C   0  0  0  0  0  0  0  0  0  0  0  0
    4.9971   -8.7450    0.0000 O   0  0  0  0  0  0  0  0  0  0  0  0
    6.4260   -5.4450    0.0000 O   0  0  0  0  0  0  0  0  0  0  0  0
    9.2839   -6.2700    0.0000 C   0  0  0  0  0  0  0  0  0  0  0  0
    9.2839   -7.0950    0.0000 O   0  0  0  0  0  0  0  0  0  0  0  0
    7.1405   -5.0325    0.0000 C   0  0  0  0  0  0  0  0  0  0  0  0
    7.1405   -4.2075    0.0000 O   0  0  0  0  0  0  0  0  0  0  0  0
    7.8550   -5.4450    0.0000 C   0  0  0  0  0  0  0  0  0  0  0  0
    8.5694   -5.0325    0.0000 C   0  0  0  0  0  0  0  0  0  0  0  0
    9.2839   -5.4450    0.0000 C   0  0  0  0  0  0  0  0  0  0  0  0
    8.1569   -4.3180    0.0000 C   0  0  0  0  0  0  0  0  0  0  0  0
    8.9819   -4.3180    0.0000 O   0  0  0  0  0  0  0  0  0  0  0  0
  1  2  2  0  0  0  0
  2  3  1  0  0  0  0
  3  4  1  0  0  0  0
  4  5  2  0  0  0  0
  5  6  1  0  0  0  0
  6  1  1  0  0  0  0
  4  7  1  0  0  0  0
  7  8  2  0  0  0  0
  8  9  1  0  0  0  0
  9 10  2  0  0  0  0
 10  5  1  0  0  0  0
 11 12  1  0  0  0  0
 12  9  1  0  0  0  0
 13 14  1  0  0  0  0
 14 15  1  0  0  0  0
 15 11  2  0  0  0  0
  6 16  2  0  0  0  0
  3 17  2  0  0  0  0
 10 18  1  0  0  0  0
 18 19  1  0  0  0  0
  7 20  1  0  0  0  0
 12 21  1  0  0  0  0
 14 22  1  0  0  0  0
 14 23  1  0  0  0  0
 21 24  1  0  0  0  0
 24 25  2  0  0  0  0
 24 26  1  0  0  0  0
 26 27  1  0  0  0  0
 27 28  1  0  0  0  0
 27 29  1  0  0  0  0
 27 30  1  0  0  0  0
M  END
>  <cdx:fragmentId>
5

$$$$
