25068.cdx
  Mrv1902 05222410272D          

 17 16  0  0  0  0            999 V2000
    2.0346   -5.6521    0.0000 C   0  0  0  0  0  0  0  0  0  0  0  0
    2.7490   -6.8896    0.0000 C   0  0  0  0  0  0  0  0  0  0  0  0
    2.7490   -6.0646    0.0000 C   0  0  0  0  0  0  0  0  0  0  0  0
    3.4635   -5.6521    0.0000 O   0  0  0  0  0  0  0  0  0  0  0  0
    4.1780   -6.8896    0.0000 O   0  0  0  0  0  0  0  0  0  0  0  0
   12.0372   -5.6521    0.0000 C   0  0  0  0  0  0  0  0  0  0  0  0
   11.3227   -6.0646    0.0000 C   0  0  0  0  0  0  0  0  0  0  0  0
   10.6082   -5.6521    0.0000 C   0  0  0  0  0  0  0  0  0  0  0  0
    9.8938   -6.0646    0.0000 C   0  0  0  0  0  0  0  0  0  0  0  0
    9.1793   -5.6521    0.0000 C   0  0  0  0  0  0  0  0  0  0  0  0
    8.4648   -6.0646    0.0000 C   0  0  0  0  0  0  0  0  0  0  0  0
    7.7503   -5.6521    0.0000 C   0  0  0  0  0  0  0  0  0  0  0  0
    7.0359   -6.0646    0.0000 C   0  0  0  0  0  0  0  0  0  0  0  0
    6.3214   -5.6521    0.0000 C   0  0  0  0  0  0  0  0  0  0  0  0
    5.6069   -6.0646    0.0000 C   0  0  0  0  0  0  0  0  0  0  0  0
    4.8925   -5.6521    0.0000 C   0  0  0  0  0  0  0  0  0  0  0  0
    4.1780   -6.0646    0.0000 C   0  0  0  0  0  0  0  0  0  0  0  0
  4  3  1  0  0  0  0
  3  1  1  0  0  0  0
  3  2  1  0  0  0  0
 17  4  1  0  0  0  0
 17  5  2  0  0  0  0
  7  6  1  0  0  0  0
  8  7  1  0  0  0  0
  9  8  1  0  0  0  0
 10  9  1  0  0  0  0
 11 10  1  0  0  0  0
 12 11  1  0  0  0  0
 13 12  1  0  0  0  0
 14 13  1  0  0  0  0
 15 14  1  0  0  0  0
 16 15  1  0  0  0  0
 17 16  1  0  0  0  0
M  END
>  <cdx:fragmentId>
5

$$$$
