25121.cdx
  Mrv1902 05222410272D          

 11 12  0  0  0  0            999 V2000
    7.9588   -1.9295    0.0000 O   0  0  0  0  0  0  0  0  0  0  0  0
    7.9588   -2.7545    0.0000 C   0  0  0  0  0  0  0  0  0  0  0  0
    8.6732   -3.1670    0.0000 C   0  0  0  0  0  0  0  0  0  0  0  0
    8.6732   -3.9920    0.0000 C   0  0  0  0  0  0  0  0  0  0  0  0
    9.0857   -4.7065    0.0000 C   0  0  0  0  0  0  0  0  0  0  0  0
    7.9588   -4.4045    0.0000 C   0  0  0  0  0  0  0  0  0  0  0  0
    7.2443   -3.9920    0.0000 C   0  0  0  0  0  0  0  0  0  0  0  0
    6.8318   -4.7065    0.0000 C   0  0  0  0  0  0  0  0  0  0  0  0
    6.4193   -3.9920    0.0000 C   0  0  0  0  0  0  0  0  0  0  0  0
    7.2443   -3.1670    0.0000 C   0  0  0  0  0  0  0  0  0  0  0  0
    9.3877   -3.5795    0.0000 O   0  0  0  0  0  0  0  0  0  0  0  0
  1  2  2  0  0  0  0
  2  3  1  0  0  0  0
  3  4  1  0  0  0  0
  4  5  1  0  0  0  0
  4  6  1  0  0  0  0
  6  7  1  0  0  0  0
  7  8  1  0  0  0  0
  7  9  1  0  0  0  0
  7 10  1  0  0  0  0
  2 10  1  0  0  0  0
  3 11  1  0  0  0  0
  4 11  1  0  0  0  0
M  END
>  <cdx:groupId>
36

>  <cdx:fragmentId>
5

$$$$
