1-[5-(2-formlfuryl) methyl] dihydrogen 2-hydroxypropane-1,2,3-tricarboxylate 2,3-diethyl ester.cdx
  Mrv1902 05222410212D          

 26 26  0  0  0  0            999 V2000
    1.6871   -8.4769    0.0000 H   0  0  0  0  0  0  0  0  0  0  0  0
    2.4016   -8.0644    0.0000 C   0  0  0  0  0  0  0  0  0  0  0  0
    3.1161   -8.4769    0.0000 C   0  0  0  0  0  0  0  0  0  0  0  0
    3.3709   -9.2615    0.0000 C   0  0  0  0  0  0  0  0  0  0  0  0
    4.1959   -9.2617    0.0000 C   0  0  0  0  0  0  0  0  0  0  0  0
    4.4509   -8.4771    0.0000 C   0  0  0  0  0  0  0  0  0  0  0  0
    3.7836   -7.9921    0.0000 O   0  0  0  0  0  0  0  0  0  0  0  0
    5.1654   -8.0646    0.0000 C   0  0  0  0  0  0  0  0  0  0  0  0
    5.8799   -8.4771    0.0000 O   0  0  0  0  0  0  0  0  0  0  0  0
    6.5944   -8.0646    0.0000 C   0  0  0  0  0  0  0  0  0  0  0  0
    7.3088   -8.4771    0.0000 C   0  0  0  0  0  0  0  0  0  0  0  0
    8.0233   -8.0646    0.0000 C   0  0  0  0  0  0  0  0  0  0  0  0
    2.4016   -7.2394    0.0000 O   0  0  0  0  0  0  0  0  0  0  0  0
    6.5944   -7.2396    0.0000 O   0  0  0  0  0  0  0  0  0  0  0  0
    7.6108   -7.3501    0.0000 O   0  0  0  0  0  0  0  0  0  0  0  0
    8.4358   -8.7791    0.0000 C   0  0  0  0  0  0  0  0  0  0  0  0
    8.0233   -9.4936    0.0000 C   0  0  0  0  0  0  0  0  0  0  0  0
    8.6067  -10.0769    0.0000 O   0  0  0  0  0  0  0  0  0  0  0  0
    8.1942  -10.7914    0.0000 C   0  0  0  0  0  0  0  0  0  0  0  0
    8.7775  -11.3748    0.0000 C   0  0  0  0  0  0  0  0  0  0  0  0
    8.6067   -7.4813    0.0000 C   0  0  0  0  0  0  0  0  0  0  0  0
    9.4036   -7.6948    0.0000 O   0  0  0  0  0  0  0  0  0  0  0  0
    9.8161   -6.9803    0.0000 C   0  0  0  0  0  0  0  0  0  0  0  0
   10.6411   -6.9803    0.0000 C   0  0  0  0  0  0  0  0  0  0  0  0
    8.3931   -6.6844    0.0000 O   0  0  0  0  0  0  0  0  0  0  0  0
    7.1983   -9.4936    0.0000 O   0  0  0  0  0  0  0  0  0  0  0  0
  1  2  1  0  0  0  0
  2  3  1  0  0  0  0
  3  4  2  0  0  0  0
  4  5  1  0  0  0  0
  5  6  2  0  0  0  0
  6  7  1  0  0  0  0
  7  3  1  0  0  0  0
  6  8  1  0  0  0  0
  8  9  1  0  0  0  0
  9 10  1  0  0  0  0
 10 11  1  0  0  0  0
 11 12  1  0  0  0  0
  2 13  2  0  0  0  0
 10 14  2  0  0  0  0
 12 15  1  0  0  0  0
 12 16  1  0  0  0  0
 16 17  1  0  0  0  0
 17 18  1  0  0  0  0
 18 19  1  0  0  0  0
 19 20  1  0  0  0  0
 12 21  1  0  0  0  0
 21 22  1  0  0  0  0
 22 23  1  0  0  0  0
 23 24  1  0  0  0  0
 21 25  2  0  0  0  0
 17 26  2  0  0  0  0
M  END
>  <cdx:fragmentId>
3

$$$$
