2519.cdx
  Mrv1902 05222410252D          

 14 15  0  0  0  0            999 V2000
    3.5114   -5.3221    0.0000 O   0  0  0  0  0  0  0  0  0  0  0  0
    4.2259   -4.9096    0.0000 C   0  0  0  0  0  0  0  0  0  0  0  0
    4.9403   -5.3221    0.0000 N   0  0  0  0  0  0  0  0  0  0  0  0
    4.9403   -6.1471    0.0000 C   0  0  0  0  0  0  0  0  0  0  0  0
    5.6548   -4.9096    0.0000 C   0  0  0  0  0  0  0  0  0  0  0  0
    5.6548   -4.0846    0.0000 C   0  0  0  0  0  0  0  0  0  0  0  0
    6.4394   -3.8296    0.0000 N   0  0  0  0  0  0  0  0  0  0  0  0
    6.6944   -3.0450    0.0000 C   0  0  0  0  0  0  0  0  0  0  0  0
    6.9244   -4.4971    0.0000 C   0  0  0  0  0  0  0  0  0  0  0  0
    6.4394   -5.1645    0.0000 N   0  0  0  0  0  0  0  0  0  0  0  0
    4.2259   -4.0846    0.0000 N   0  0  0  0  0  0  0  0  0  0  0  0
    3.5114   -3.6721    0.0000 C   0  0  0  0  0  0  0  0  0  0  0  0
    4.9403   -3.6721    0.0000 C   0  0  0  0  0  0  0  0  0  0  0  0
    4.9403   -2.8471    0.0000 O   0  0  0  0  0  0  0  0  0  0  0  0
  1  2  2  0  0  0  0
  2  3  1  0  0  0  0
  3  4  1  0  0  0  0
  3  5  1  0  0  0  0
  5  6  2  0  0  0  0
  6  7  1  0  0  0  0
  7  8  1  0  0  0  0
  7  9  1  0  0  0  0
  9 10  2  0  0  0  0
  5 10  1  0  0  0  0
  2 11  1  0  0  0  0
 11 12  1  0  0  0  0
 11 13  1  0  0  0  0
  6 13  1  0  0  0  0
 13 14  2  0  0  0  0
M  END
>  <cdx:groupId>
45

>  <cdx:fragmentId>
5

$$$$
