251975.cdx
  Mrv1902 05222410242D          

  8  8  0  0  0  0            999 V2000
    7.9340   -7.4652    0.0000 C   0  0  0  0  0  0  0  0  0  0  0  0
    7.9328   -8.2902    0.0000 C   0  0  0  0  0  0  0  0  0  0  0  0
    7.2177   -8.7016    0.0000 C   0  0  0  0  0  0  0  0  0  0  0  0
    6.5039   -8.2880    0.0000 C   0  0  0  0  0  0  0  0  0  0  0  0
    6.5051   -7.4631    0.0000 C   0  0  0  0  0  0  0  0  0  0  0  0
    7.2202   -7.0516    0.0000 C   0  0  0  0  0  0  0  0  0  0  0  0
    7.9365   -5.8152    0.0000 O   0  0  0  0  0  0  0  0  0  0  0  0
    7.2214   -6.2266    0.0000 C   0  0  0  0  0  0  0  0  0  0  0  0
  8  6  1  0  0  0  0
  6  1  1  0  0  0  0
  2  1  1  0  0  0  0
  3  2  1  0  0  0  0
  4  3  2  0  0  0  0
  5  4  1  0  0  0  0
  6  5  2  0  0  0  0
  8  7  1  0  0  0  0
M  END
>  <cdx:groupId>
68588

>  <cdx:fragmentId>
68571

$$$$
