252.cdx
  Mrv1902 05222410272D          

 38 41  0  0  0  0            999 V2000
    1.9417   -6.8940    0.0000 C   0  0  0  0  0  0  0  0  0  0  0  0
    1.9417   -7.7190    0.0000 C   0  0  2  0  0  0  0  0  0  0  0  0
    2.6562   -8.1315    0.0000 C   0  0  0  0  0  0  0  0  0  0  0  0
    3.3707   -7.7190    0.0000 C   0  0  2  0  0  0  0  0  0  0  0  0
    3.3707   -6.8940    0.0000 C   0  0  2  0  0  0  0  0  0  0  0  0
    2.6562   -6.4815    0.0000 C   0  0  0  0  0  0  0  0  0  0  0  0
    4.0851   -8.1315    0.0000 C   0  0  0  0  0  0  0  0  0  0  0  0
    4.7996   -7.7190    0.0000 C   0  0  0  0  0  0  0  0  0  0  0  0
    4.7996   -6.8940    0.0000 C   0  0  2  0  0  0  0  0  0  0  0  0
    4.0851   -6.4815    0.0000 C   0  0  2  0  0  0  0  0  0  0  0  0
    5.5141   -6.4815    0.0000 C   0  0  1  0  0  0  0  0  0  0  0  0
    5.5141   -5.6565    0.0000 C   0  0  2  0  0  0  0  0  0  0  0  0
    4.7996   -5.2440    0.0000 C   0  0  0  0  0  0  0  0  0  0  0  0
    4.0851   -5.6565    0.0000 C   0  0  0  0  0  0  0  0  0  0  0  0
    6.2987   -6.7364    0.0000 C   0  0  0  0  0  0  0  0  0  0  0  0
    6.7836   -6.0690    0.0000 C   0  0  0  0  0  0  0  0  0  0  0  0
    6.2987   -5.4016    0.0000 C   0  0  2  0  0  0  0  0  0  0  0  0
    1.2273   -8.1315    0.0000 O   0  0  0  0  0  0  0  0  0  0  0  0
    3.3707   -6.0690    0.0000 C   0  0  0  0  0  0  0  0  0  0  0  0
    5.5141   -4.8315    0.0000 C   0  0  0  0  0  0  0  0  0  0  0  0
    3.3707   -8.5440    0.0000 H   0  0  0  0  0  0  0  0  0  0  0  0
    4.7996   -6.0690    0.0000 H   0  0  0  0  0  0  0  0  0  0  0  0
    4.0851   -7.3065    0.0000 H   0  0  0  0  0  0  0  0  0  0  0  0
    5.5141   -7.3065    0.0000 H   0  0  0  0  0  0  0  0  0  0  0  0
    7.1237   -5.4016    0.0000 H   0  0  0  0  0  0  0  0  0  0  0  0
    6.5536   -4.5894    0.0000 C   0  0  2  0  0  0  0  0  0  0  0  0
    6.0016   -3.9763    0.0000 C   0  0  0  0  0  0  0  0  0  0  0  0
    7.3606   -4.4179    0.0000 C   0  0  0  0  0  0  0  0  0  0  0  0
    7.6155   -3.6333    0.0000 C   0  0  0  0  0  0  0  0  0  0  0  0
    8.4225   -3.4618    0.0000 C   0  0  0  0  0  0  0  0  0  0  0  0
    8.9746   -4.0749    0.0000 O   0  0  0  0  0  0  0  0  0  0  0  0
    8.6775   -2.6771    0.0000 N   0  0  0  0  0  0  0  0  0  0  0  0
    9.4844   -2.5056    0.0000 C   0  0  0  0  0  0  0  0  0  0  0  0
    9.7394   -1.7210    0.0000 C   0  0  0  0  0  0  0  0  0  0  0  0
   10.5463   -1.5495    0.0000 S   0  0  0  0  0  0  0  0  0  0  0  0
   10.7599   -2.3464    0.0000 O   0  0  0  0  0  0  0  0  0  0  0  0
   10.3328   -0.7526    0.0000 O   0  0  0  0  0  0  0  0  0  0  0  0
   11.3533   -1.3779    0.0000 O   0  0  0  0  0  0  0  0  0  0  0  0
  1  2  1  0  0  0  0
  2  3  1  0  0  0  0
  3  4  1  0  0  0  0
  4  5  1  0  0  0  0
  5  6  1  0  0  0  0
  6  1  1  0  0  0  0
  4  7  1  0  0  0  0
  7  8  1  0  0  0  0
  8  9  1  0  0  0  0
  9 10  1  0  0  0  0
 10  5  1  0  0  0  0
  9 11  1  0  0  0  0
 11 12  1  0  0  0  0
 12 13  1  0  0  0  0
 13 14  1  0  0  0  0
 14 10  1  0  0  0  0
 11 15  1  0  0  0  0
 15 16  1  0  0  0  0
 16 17  1  0  0  0  0
 17 12  1  0  0  0  0
  5 19  1  1  0  0  0
 12 20  1  1  0  0  0
  2 18  1  6  0  0  0
  4 21  1  1  0  0  0
  9 22  1  1  0  0  0
 10 23  1  6  0  0  0
 11 24  1  6  0  0  0
 17 25  1  6  0  0  0
 26 27  1  6  0  0  0
 26 28  1  0  0  0  0
 28 29  1  0  0  0  0
 29 30  1  0  0  0  0
 30 31  2  0  0  0  0
 30 32  1  0  0  0  0
 32 33  1  0  0  0  0
 33 34  1  0  0  0  0
 34 35  1  0  0  0  0
 35 36  2  0  0  0  0
 35 37  2  0  0  0  0
 35 38  1  0  0  0  0
 17 26  1  0  0  0  0
M  END
>  <cdx:fragmentId>
5

$$$$
