25208.cdx
  Mrv1902 05222410242D          

 12 13  0  0  0  0            999 V2000
    4.8094   -1.6747    0.0000 C   0  0  0  0  0  0  0  0  0  0  0  0
    4.8094   -2.4997    0.0000 C   0  0  0  0  0  0  0  0  0  0  0  0
    5.5238   -2.9122    0.0000 C   0  0  0  0  0  0  0  0  0  0  0  0
    6.2383   -2.4997    0.0000 O   0  0  0  0  0  0  0  0  0  0  0  0
    5.5238   -3.7372    0.0000 C   0  0  0  0  0  0  0  0  0  0  0  0
    6.2383   -4.1497    0.0000 O   0  0  0  0  0  0  0  0  0  0  0  0
    4.8094   -4.1497    0.0000 C   0  0  0  0  0  0  0  0  0  0  0  0
    4.0949   -3.7372    0.0000 C   0  0  0  0  0  0  0  0  0  0  0  0
    4.0949   -2.9122    0.0000 C   0  0  0  0  0  0  0  0  0  0  0  0
    4.4738   -3.3251    0.0000 C   0  0  0  0  0  0  0  0  0  0  0  0
    3.7593   -3.7376    0.0000 C   0  0  0  0  0  0  0  0  0  0  0  0
    3.7593   -2.9126    0.0000 C   0  0  0  0  0  0  0  0  0  0  0  0
  1  2  1  0  0  0  0
  2  3  1  0  0  0  0
  3  4  2  0  0  0  0
  3  5  1  0  0  0  0
  5  6  2  0  0  0  0
  5  7  1  0  0  0  0
  7  8  1  0  0  0  0
  8  9  1  0  0  0  0
  2  9  1  0  0  0  0
  7 10  1  0  0  0  0
 10 11  1  0  0  0  0
 10 12  1  0  0  0  0
  2 10  1  0  0  0  0
M  END
>  <cdx:groupId>
39

>  <cdx:fragmentId>
5

$$$$
