2520.cdx
  Mrv1902 05222410242D          

 27 27  0  0  0  0            999 V2000
    1.4677   -7.1706    0.0000 C   0  0  0  0  0  0  0  0  0  0  0  0
    1.4677   -7.9956    0.0000 C   0  0  0  0  0  0  0  0  0  0  0  0
    2.1821   -8.4081    0.0000 C   0  0  0  0  0  0  0  0  0  0  0  0
    2.8966   -7.9956    0.0000 C   0  0  0  0  0  0  0  0  0  0  0  0
    2.8966   -7.1706    0.0000 C   0  0  0  0  0  0  0  0  0  0  0  0
    2.1821   -6.7581    0.0000 C   0  0  0  0  0  0  0  0  0  0  0  0
    0.7532   -6.7581    0.0000 O   0  0  0  0  0  0  0  0  0  0  0  0
    0.7532   -8.4081    0.0000 O   0  0  0  0  0  0  0  0  0  0  0  0
    3.6111   -6.7581    0.0000 C   0  0  0  0  0  0  0  0  0  0  0  0
    4.3255   -7.1706    0.0000 C   0  0  0  0  0  0  0  0  0  0  0  0
    5.0400   -6.7581    0.0000 C   0  0  0  0  0  0  0  0  0  0  0  0
    5.7545   -7.1706    0.0000 C   0  0  0  0  0  0  0  0  0  0  0  0
    6.4690   -6.7581    0.0000 C   0  0  0  0  0  0  0  0  0  0  0  0
    7.1834   -7.1706    0.0000 C   0  0  0  0  0  0  0  0  0  0  0  0
    7.8979   -6.7581    0.0000 C   0  0  0  0  0  0  0  0  0  0  0  0
    5.0400   -5.9331    0.0000 O   0  0  0  0  0  0  0  0  0  0  0  0
    6.4690   -5.9331    0.0000 O   0  0  0  0  0  0  0  0  0  0  0  0
    0.0387   -7.1706    0.0000 C   0  0  0  0  0  0  0  0  0  0  0  0
    8.6124   -7.1706    0.0000 C   0  0  0  0  0  0  0  0  0  0  0  0
    9.3268   -6.7581    0.0000 C   0  0  0  0  0  0  0  0  0  0  0  0
   10.0413   -7.1706    0.0000 C   0  0  0  0  0  0  0  0  0  0  0  0
   10.7558   -6.7581    0.0000 C   0  0  0  0  0  0  0  0  0  0  0  0
   11.4702   -7.1706    0.0000 C   0  0  0  0  0  0  0  0  0  0  0  0
   12.1847   -6.7581    0.0000 C   0  0  0  0  0  0  0  0  0  0  0  0
   12.8992   -7.1706    0.0000 C   0  0  0  0  0  0  0  0  0  0  0  0
   13.6137   -6.7581    0.0000 C   0  0  0  0  0  0  0  0  0  0  0  0
   14.3281   -7.1706    0.0000 C   0  0  0  0  0  0  0  0  0  0  0  0
  1  2  2  0  0  0  0
  2  3  1  0  0  0  0
  3  4  2  0  0  0  0
  4  5  1  0  0  0  0
  5  6  2  0  0  0  0
  6  1  1  0  0  0  0
  1  7  1  0  0  0  0
  2  8  1  0  0  0  0
  5  9  1  0  0  0  0
  9 10  1  0  0  0  0
 10 11  1  0  0  0  0
 11 12  1  0  0  0  0
 12 13  1  0  0  0  0
 13 14  1  0  0  0  0
 14 15  1  0  0  0  0
 11 16  2  0  0  0  0
 13 17  2  0  0  0  0
  7 18  1  0  0  0  0
 15 19  1  0  0  0  0
 19 20  1  0  0  0  0
 20 21  1  0  0  0  0
 21 22  1  0  0  0  0
 22 23  1  0  0  0  0
 23 24  1  0  0  0  0
 24 25  1  0  0  0  0
 25 26  1  0  0  0  0
 26 27  1  0  0  0  0
M  END
>  <cdx:fragmentId>
5

$$$$
