2521.cdx
  Mrv1902 05222410242D          

 18 19  0  0  0  0            999 V2000
    4.5408   -6.4763    0.0000 C   0  0  0  0  0  0  0  0  0  0  0  0
    4.5408   -7.3012    0.0000 C   0  0  1  0  0  0  0  0  0  0  0  0
    5.2552   -7.7138    0.0000 C   0  0  1  0  0  0  0  0  0  0  0  0
    5.9697   -7.3012    0.0000 C   0  0  1  0  0  0  0  0  0  0  0  0
    5.9697   -6.4763    0.0000 C   0  0  2  0  0  0  0  0  0  0  0  0
    5.2552   -6.0638    0.0000 C   0  0  0  0  0  0  0  0  0  0  0  0
    6.6842   -7.7138    0.0000 C   0  0  0  0  0  0  0  0  0  0  0  0
    7.3987   -7.3012    0.0000 C   0  0  1  0  0  0  0  0  0  0  0  0
    7.3987   -6.4763    0.0000 C   0  0  0  0  0  0  0  0  0  0  0  0
    6.6842   -6.0638    0.0000 C   0  0  0  0  0  0  0  0  0  0  0  0
    3.8263   -7.7138    0.0000 O   0  0  0  0  0  0  0  0  0  0  0  0
    5.6677   -8.4282    0.0000 C   0  0  0  0  0  0  0  0  0  0  0  0
    5.9697   -5.6512    0.0000 C   0  0  0  0  0  0  0  0  0  0  0  0
    8.1131   -7.7138    0.0000 C   0  0  0  0  0  0  0  0  0  0  0  0
    4.8427   -8.4282    0.0000 H   0  0  0  0  0  0  0  0  0  0  0  0
    5.9697   -8.1263    0.0000 O   0  0  0  0  0  0  0  0  0  0  0  0
    8.8276   -7.3012    0.0000 C   0  0  0  0  0  0  0  0  0  0  0  0
    8.1131   -8.5388    0.0000 C   0  0  0  0  0  0  0  0  0  0  0  0
  1  2  1  0  0  0  0
  2  3  1  0  0  0  0
  3  4  1  0  0  0  0
  4  5  1  0  0  0  0
  5  6  1  0  0  0  0
  6  1  1  0  0  0  0
  4  7  1  0  0  0  0
  7  8  1  0  0  0  0
  8  9  1  0  0  0  0
  9 10  1  0  0  0  0
 10  5  1  0  0  0  0
  2 11  1  1  0  0  0
  3 12  1  1  0  0  0
  5 13  1  1  0  0  0
  8 14  1  1  0  0  0
  3 15  1  6  0  0  0
  4 16  1  6  0  0  0
 14 17  2  0  0  0  0
 14 18  1  0  0  0  0
M  END
>  <cdx:fragmentId>
5

$$$$
