2522.cdx
  Mrv1902 05222410232D          

 29 30  0  0  0  0            999 V2000
    2.3545   -7.2738    0.0000 C   0  0  0  0  0  0  0  0  0  0  0  0
    2.3545   -8.0987    0.0000 C   0  0  0  0  0  0  0  0  0  0  0  0
    3.0690   -8.5113    0.0000 C   0  0  0  0  0  0  0  0  0  0  0  0
    3.7835   -8.0987    0.0000 C   0  0  0  0  0  0  0  0  0  0  0  0
    3.7835   -7.2738    0.0000 C   0  0  0  0  0  0  0  0  0  0  0  0
    3.0690   -6.8613    0.0000 C   0  0  0  0  0  0  0  0  0  0  0  0
    1.6401   -8.5113    0.0000 O   0  0  0  0  0  0  0  0  0  0  0  0
    4.5260   -6.8406    0.0000 C   0  0  0  0  0  0  0  0  0  0  0  0
    5.2404   -7.2531    0.0000 C   0  0  0  0  0  0  0  0  0  0  0  0
    5.9549   -6.8406    0.0000 C   0  0  0  0  0  0  0  0  0  0  0  0
    6.6694   -7.2531    0.0000 C   0  0  0  0  0  0  0  0  0  0  0  0
    7.3839   -6.8406    0.0000 C   0  0  0  0  0  0  0  0  0  0  0  0
    8.0983   -7.2531    0.0000 C   0  0  0  0  0  0  0  0  0  0  0  0
    8.8128   -6.8406    0.0000 C   0  0  0  0  0  0  0  0  0  0  0  0
    9.5273   -7.2531    0.0000 C   0  0  0  0  0  0  0  0  0  0  0  0
    1.6401   -6.8613    0.0000 O   0  0  0  0  0  0  0  0  0  0  0  0
    0.9256   -7.2738    0.0000 C   0  0  0  0  0  0  0  0  0  0  0  0
    7.3839   -6.0156    0.0000 O   0  0  0  0  0  0  0  0  0  0  0  0
    5.9549   -6.0156    0.0000 O   0  0  0  0  0  0  0  0  0  0  0  0
   10.2417   -6.8406    0.0000 C   0  0  0  0  0  0  0  0  0  0  0  0
   10.9562   -7.2531    0.0000 C   0  0  0  0  0  0  0  0  0  0  0  0
   11.6707   -6.8406    0.0000 C   0  0  0  0  0  0  0  0  0  0  0  0
   12.3852   -7.2531    0.0000 C   0  0  0  0  0  0  0  0  0  0  0  0
    6.6694   -5.6031    0.0000 C   0  0  0  0  0  0  0  0  0  0  0  0
    6.2569   -4.8887    0.0000 C   0  0  0  0  0  0  0  0  0  0  0  0
    7.0819   -4.8887    0.0000 O   0  0  0  0  0  0  0  0  0  0  0  0
    6.6694   -4.1742    0.0000 C   0  0  0  0  0  0  0  0  0  0  0  0
   13.0996   -6.8406    0.0000 C   0  0  0  0  0  0  0  0  0  0  0  0
   13.8141   -7.2531    0.0000 C   0  0  0  0  0  0  0  0  0  0  0  0
  1  2  2  0  0  0  0
  2  3  1  0  0  0  0
  3  4  2  0  0  0  0
  4  5  1  0  0  0  0
  5  6  2  0  0  0  0
  6  1  1  0  0  0  0
  2  7  1  0  0  0  0
  8  9  1  0  0  0  0
  9 10  1  0  0  0  0
 10 11  1  0  0  0  0
 11 12  1  0  0  0  0
 12 13  1  0  0  0  0
 13 14  1  0  0  0  0
  8  5  1  0  0  0  0
 10 19  1  0  0  0  0
 12 18  1  0  0  0  0
 14 15  1  0  0  0  0
  1 16  1  0  0  0  0
 16 17  1  0  0  0  0
 15 20  1  0  0  0  0
 20 21  1  0  0  0  0
 21 22  1  0  0  0  0
 22 23  1  0  0  0  0
 19 24  1  0  0  0  0
 18 24  1  0  0  0  0
 24 25  1  0  0  0  0
 24 26  1  0  0  0  0
 26 27  1  0  0  0  0
 23 28  1  0  0  0  0
 28 29  1  0  0  0  0
M  END
>  <cdx:fragmentId>
5

$$$$
