[10]-Dehydrogingerdione.cdx
  Mrv1902 05222410232D          

 25 25  0  0  0  0            999 V2000
    2.3422   -7.1706    0.0000 C   0  0  0  0  0  0  0  0  0  0  0  0
    2.3422   -7.9956    0.0000 C   0  0  0  0  0  0  0  0  0  0  0  0
    3.0566   -8.4081    0.0000 C   0  0  0  0  0  0  0  0  0  0  0  0
    3.7711   -7.9956    0.0000 C   0  0  0  0  0  0  0  0  0  0  0  0
    3.7711   -7.1706    0.0000 C   0  0  0  0  0  0  0  0  0  0  0  0
    3.0566   -6.7581    0.0000 C   0  0  0  0  0  0  0  0  0  0  0  0
    1.6277   -6.7581    0.0000 O   0  0  0  0  0  0  0  0  0  0  0  0
    1.6277   -8.4081    0.0000 O   0  0  0  0  0  0  0  0  0  0  0  0
    4.4856   -6.7581    0.0000 C   0  0  0  0  0  0  0  0  0  0  0  0
    5.2000   -7.1706    0.0000 C   0  0  0  0  0  0  0  0  0  0  0  0
    5.9145   -6.7581    0.0000 C   0  0  0  0  0  0  0  0  0  0  0  0
    6.6290   -7.1706    0.0000 C   0  0  0  0  0  0  0  0  0  0  0  0
    7.3435   -6.7581    0.0000 C   0  0  0  0  0  0  0  0  0  0  0  0
    8.0579   -7.1706    0.0000 C   0  0  0  0  0  0  0  0  0  0  0  0
    8.7724   -6.7581    0.0000 C   0  0  0  0  0  0  0  0  0  0  0  0
    5.9145   -5.9331    0.0000 O   0  0  0  0  0  0  0  0  0  0  0  0
    7.3435   -5.9331    0.0000 O   0  0  0  0  0  0  0  0  0  0  0  0
    0.9132   -7.1706    0.0000 C   0  0  0  0  0  0  0  0  0  0  0  0
    9.4869   -7.1706    0.0000 C   0  0  0  0  0  0  0  0  0  0  0  0
   10.2013   -6.7581    0.0000 C   0  0  0  0  0  0  0  0  0  0  0  0
   10.9158   -7.1706    0.0000 C   0  0  0  0  0  0  0  0  0  0  0  0
   11.6303   -6.7581    0.0000 C   0  0  0  0  0  0  0  0  0  0  0  0
   12.3447   -7.1706    0.0000 C   0  0  0  0  0  0  0  0  0  0  0  0
   13.0592   -6.7581    0.0000 C   0  0  0  0  0  0  0  0  0  0  0  0
   13.7737   -7.1706    0.0000 C   0  0  0  0  0  0  0  0  0  0  0  0
  1  2  2  0  0  0  0
  2  3  1  0  0  0  0
  3  4  2  0  0  0  0
  4  5  1  0  0  0  0
  5  6  2  0  0  0  0
  6  1  1  0  0  0  0
  1  7  1  0  0  0  0
  2  8  1  0  0  0  0
  5  9  1  0  0  0  0
  9 10  2  0  0  0  0
 10 11  1  0  0  0  0
 11 12  1  0  0  0  0
 12 13  1  0  0  0  0
 13 14  1  0  0  0  0
 14 15  1  0  0  0  0
 11 16  2  0  0  0  0
 13 17  2  0  0  0  0
  7 18  1  0  0  0  0
 15 19  1  0  0  0  0
 19 20  1  0  0  0  0
 20 21  1  0  0  0  0
 21 22  1  0  0  0  0
 22 23  1  0  0  0  0
 23 24  1  0  0  0  0
 24 25  1  0  0  0  0
M  END
>  <cdx:fragmentId>
5

$$$$
