2524.cdx
  Mrv1902 05222410252D          

 25 25  0  0  0  0            999 V2000
    1.8802   -7.8031    0.0000 C   0  0  0  0  0  0  0  0  0  0  0  0
    1.8802   -8.6281    0.0000 C   0  0  0  0  0  0  0  0  0  0  0  0
    2.5946   -9.0406    0.0000 C   0  0  0  0  0  0  0  0  0  0  0  0
    3.3091   -8.6281    0.0000 C   0  0  0  0  0  0  0  0  0  0  0  0
    3.3091   -7.8031    0.0000 C   0  0  0  0  0  0  0  0  0  0  0  0
    2.5946   -7.3906    0.0000 C   0  0  0  0  0  0  0  0  0  0  0  0
    1.1657   -7.3906    0.0000 O   0  0  0  0  0  0  0  0  0  0  0  0
    1.1657   -9.0406    0.0000 O   0  0  0  0  0  0  0  0  0  0  0  0
    4.0236   -7.3906    0.0000 C   0  0  0  0  0  0  0  0  0  0  0  0
    4.7380   -7.8031    0.0000 C   0  0  0  0  0  0  0  0  0  0  0  0
    5.4525   -7.3906    0.0000 C   0  0  0  0  0  0  0  0  0  0  0  0
    6.1670   -7.8031    0.0000 C   0  0  0  0  0  0  0  0  0  0  0  0
    6.8815   -7.3906    0.0000 C   0  0  0  0  0  0  0  0  0  0  0  0
    7.5959   -7.8031    0.0000 C   0  0  0  0  0  0  0  0  0  0  0  0
    8.3104   -7.3906    0.0000 C   0  0  0  0  0  0  0  0  0  0  0  0
    5.4525   -6.5656    0.0000 O   0  0  0  0  0  0  0  0  0  0  0  0
    6.8815   -6.5656    0.0000 O   0  0  0  0  0  0  0  0  0  0  0  0
    9.0249   -7.8031    0.0000 C   0  0  0  0  0  0  0  0  0  0  0  0
    9.7393   -7.3906    0.0000 C   0  0  0  0  0  0  0  0  0  0  0  0
   10.4538   -7.8031    0.0000 C   0  0  0  0  0  0  0  0  0  0  0  0
   11.1683   -7.3906    0.0000 C   0  0  0  0  0  0  0  0  0  0  0  0
   11.8827   -7.8031    0.0000 C   0  0  0  0  0  0  0  0  0  0  0  0
    0.4512   -7.8031    0.0000 C   0  0  0  0  0  0  0  0  0  0  0  0
   12.5972   -7.3906    0.0000 C   0  0  0  0  0  0  0  0  0  0  0  0
   13.3117   -7.8031    0.0000 C   0  0  0  0  0  0  0  0  0  0  0  0
  1  2  2  0  0  0  0
  2  3  1  0  0  0  0
  3  4  2  0  0  0  0
  4  5  1  0  0  0  0
  5  6  2  0  0  0  0
  6  1  1  0  0  0  0
  1  7  1  0  0  0  0
  2  8  1  0  0  0  0
  5  9  1  0  0  0  0
  9 10  1  0  0  0  0
 10 11  1  0  0  0  0
 11 12  1  0  0  0  0
 12 13  1  0  0  0  0
 13 14  1  0  0  0  0
 14 15  1  0  0  0  0
 11 16  2  0  0  0  0
 13 17  2  0  0  0  0
 15 18  1  0  0  0  0
 18 19  1  0  0  0  0
 19 20  1  0  0  0  0
 20 21  1  0  0  0  0
 21 22  1  0  0  0  0
  7 23  1  0  0  0  0
 22 24  1  0  0  0  0
 24 25  1  0  0  0  0
M  END
>  <cdx:fragmentId>
84

$$$$
