252570.cdx
  Mrv1902 05222410282D          

 23 26  0  0  0  0            999 V2000
    8.6322   -8.3582    0.0000 O   0  0  0  0  0  0  0  0  0  0  0  0
    9.1172   -7.6908    0.0000 C   0  0  0  0  0  0  0  0  0  0  0  0
    8.6322   -7.0233    0.0000 C   0  0  1  0  0  0  0  0  0  0  0  0
    7.8476   -7.2783    0.0000 C   0  0  0  0  0  0  0  0  0  0  0  0
    7.1331   -6.8658    0.0000 C   0  0  0  0  0  0  0  0  0  0  0  0
    6.4187   -7.2783    0.0000 C   0  0  0  0  0  0  0  0  0  0  0  0
    6.4187   -8.1033    0.0000 C   0  0  0  0  0  0  0  0  0  0  0  0
    7.1331   -8.5158    0.0000 C   0  0  0  0  0  0  0  0  0  0  0  0
    7.8476   -8.1033    0.0000 C   0  0  0  0  0  0  0  0  0  0  0  0
    7.1331   -9.3408    0.0000 C   0  0  0  0  0  0  0  0  0  0  0  0
    6.4187   -9.7533    0.0000 C   0  0  0  0  0  0  0  0  0  0  0  0
    5.7042   -9.3408    0.0000 C   0  0  0  0  0  0  0  0  0  0  0  0
    4.9897   -9.7533    0.0000 C   0  0  0  0  0  0  0  0  0  0  0  0
    4.2753   -9.3408    0.0000 C   0  0  0  0  0  0  0  0  0  0  0  0
    4.2753   -8.5158    0.0000 C   0  0  0  0  0  0  0  0  0  0  0  0
    4.9897   -8.1033    0.0000 C   0  0  0  0  0  0  0  0  0  0  0  0
    5.7042   -8.5158    0.0000 C   0  0  0  0  0  0  0  0  0  0  0  0
    5.7042   -6.8658    0.0000 O   0  0  0  0  0  0  0  0  0  0  0  0
    7.1331   -6.0408    0.0000 O   0  0  0  0  0  0  0  0  0  0  0  0
    5.4022  -10.4677    0.0000 C   0  0  0  0  0  0  0  0  0  0  0  0
    4.5772  -10.4677    0.0000 C   0  0  0  0  0  0  0  0  0  0  0  0
    8.8872   -6.2387    0.0000 C   0  0  0  0  0  0  0  0  0  0  0  0
    9.6941   -6.0672    0.0000 O   0  0  0  0  0  0  0  0  0  0  0  0
  1  2  1  0  0  0  0
  2  3  1  0  0  0  0
  3  4  1  0  0  0  0
  4  5  1  0  0  0  0
  5  6  1  0  0  0  0
  6  7  1  0  0  0  0
  7  8  1  0  0  0  0
  8  9  1  0  0  0  0
  4  9  2  0  0  0  0
  1  9  1  0  0  0  0
 10 11  1  0  0  0  0
 11 12  2  0  0  0  0
 12 13  1  0  0  0  0
 13 14  1  0  0  0  0
 14 15  1  0  0  0  0
 15 16  1  0  0  0  0
 16 17  1  0  0  0  0
 12 17  1  0  0  0  0
 17  7  2  0  0  0  0
 10  8  2  0  0  0  0
  6 18  2  0  0  0  0
  5 19  2  0  0  0  0
 13 20  1  0  0  0  0
 13 21  1  0  0  0  0
 22 23  1  0  0  0  0
  3 22  1  1  0  0  0
M  END
>  <cdx:groupId>
143965

>  <cdx:fragmentId>
143896

$$$$
