25310.cdx
  Mrv1902 05222410202D          

 11 11  0  0  0  0            999 V2000
    7.0771   -2.4827    0.0000 O   0  0  0  0  0  0  0  0  0  0  0  0
    7.7916   -2.8952    0.0000 C   0  0  0  0  0  0  0  0  0  0  0  0
    7.7916   -3.7202    0.0000 C   0  0  1  0  0  0  0  0  0  0  0  0
    7.0771   -4.1327    0.0000 C   0  0  1  0  0  0  0  0  0  0  0  0
    6.3627   -3.7202    0.0000 C   0  0  2  0  0  0  0  0  0  0  0  0
    6.3627   -2.8952    0.0000 C   0  0  2  0  0  0  0  0  0  0  0  0
    8.5061   -2.4827    0.0000 O   0  0  0  0  0  0  0  0  0  0  0  0
    8.5061   -4.1327    0.0000 O   0  0  0  0  0  0  0  0  0  0  0  0
    7.0771   -4.9577    0.0000 O   0  0  0  0  0  0  0  0  0  0  0  0
    5.6482   -4.1327    0.0000 O   0  0  0  0  0  0  0  0  0  0  0  0
    5.6482   -2.4827    0.0000 C   0  0  0  0  0  0  0  0  0  0  0  0
  1  2  1  0  0  0  0
  2  3  1  0  0  0  0
  3  4  1  0  0  0  0
  4  5  1  0  0  0  0
  5  6  1  0  0  0  0
  1  6  1  0  0  0  0
  2  7  1  0  0  0  0
  3  8  1  6  0  0  0
  4  9  1  6  0  0  0
  5 10  1  1  0  0  0
  6 11  1  6  0  0  0
M  END
>  <cdx:groupId>
69

>  <cdx:fragmentId>
39

$$$$
