25386.cdx
  Mrv1902 05222410252D          

 28 32  0  0  0  0            999 V2000
    6.9202   -8.9371    0.0000 O   0  0  0  0  0  0  0  0  0  0  0  0
    3.8991  -10.6325    0.0000 C   0  0  0  0  0  0  0  0  0  0  0  0
    4.6135  -11.0450    0.0000 O   0  0  0  0  0  0  0  0  0  0  0  0
    5.3476  -12.2710    0.0000 C   0  0  0  0  0  0  0  0  0  0  0  0
    6.0554  -11.8471    0.0000 O   0  0  0  0  0  0  0  0  0  0  0  0
    7.7714  -11.6323    0.0000 O   0  0  0  0  0  0  0  0  0  0  0  0
    7.1270   -8.1384    0.0000 O   0  0  0  0  0  0  0  0  0  0  0  0
    8.4398   -7.5471    0.0000 C   0  0  0  0  0  0  0  0  0  0  0  0
    9.1346   -7.1023    0.0000 C   0  0  0  0  0  0  0  0  0  0  0  0
    9.2690   -6.2883    0.0000 O   0  0  0  0  0  0  0  0  0  0  0  0
   10.0847   -6.1646    0.0000 C   0  0  0  0  0  0  0  0  0  0  0  0
   10.4544   -6.9021    0.0000 O   0  0  0  0  0  0  0  0  0  0  0  0
    9.8672   -7.4816    0.0000 C   0  0  0  0  0  0  0  0  0  0  0  0
    9.9050   -8.3057    0.0000 C   0  0  0  0  0  0  0  0  0  0  0  0
    9.2102   -8.7505    0.0000 C   0  0  0  0  0  0  0  0  0  0  0  0
    9.3704   -9.5598    0.0000 C   0  0  0  0  0  0  0  0  0  0  0  0
    8.8376  -10.1897    0.0000 C   0  0  0  0  0  0  0  0  0  0  0  0
    8.0129  -10.1658    0.0000 N   0  0  0  0  0  0  0  0  0  0  0  0
    7.5387  -10.8409    0.0000 C   0  0  0  0  0  0  0  0  0  0  0  0
    6.7501  -10.5984    0.0000 C   0  0  0  0  0  0  0  0  0  0  0  0
    6.0423  -11.0223    0.0000 C   0  0  0  0  0  0  0  0  0  0  0  0
    5.3213  -10.6212    0.0000 C   0  0  0  0  0  0  0  0  0  0  0  0
    5.3082   -9.7963    0.0000 C   0  0  0  0  0  0  0  0  0  0  0  0
    6.0160   -9.3725    0.0000 C   0  0  0  0  0  0  0  0  0  0  0  0
    6.7370   -9.7735    0.0000 C   0  0  0  0  0  0  0  0  0  0  0  0
    7.5174   -9.5061    0.0000 C   0  0  0  0  0  0  0  0  0  0  0  0
    7.7242   -8.7075    0.0000 C   0  0  0  0  0  0  0  0  0  0  0  0
    8.4776   -8.3712    0.0000 C   0  0  0  0  0  0  0  0  0  0  0  0
 26  1  1  0  0  0  0
 22  3  1  0  0  0  0
  3  2  1  0  0  0  0
 21  5  1  0  0  0  0
  5  4  1  0  0  0  0
 19  6  2  0  0  0  0
 27  7  2  0  0  0  0
 25 20  2  0  0  0  0
 26 18  1  0  0  0  0
 13  9  2  0  0  0  0
 28 15  1  0  0  0  0
 28  8  2  0  0  0  0
  9  8  1  0  0  0  0
 10  9  1  0  0  0  0
 11 10  1  0  0  0  0
 12 11  1  0  0  0  0
 13 12  1  0  0  0  0
 14 13  1  0  0  0  0
 15 14  2  0  0  0  0
 16 15  1  0  0  0  0
 17 16  1  0  0  0  0
 18 17  1  0  0  0  0
 19 18  1  0  0  0  0
 20 19  1  0  0  0  0
 21 20  1  0  0  0  0
 22 21  2  0  0  0  0
 23 22  1  0  0  0  0
 24 23  2  0  0  0  0
 25 24  1  0  0  0  0
 26 25  1  0  0  0  0
 27 26  1  0  0  0  0
 28 27  1  0  0  0  0
M  END
>  <cdx:fragmentId>
65117

$$$$
