254424.cdx
  Mrv1902 05222410222D          

 21 23  0  0  0  0            999 V2000
    8.5445   -5.9732    0.0000 O   0  0  0  0  0  0  0  0  0  0  0  0
    9.0295   -6.6407    0.0000 C   0  0  0  0  0  0  0  0  0  0  0  0
    8.5445   -7.3081    0.0000 C   0  0  0  0  0  0  0  0  0  0  0  0
    7.7599   -7.0532    0.0000 C   0  0  0  0  0  0  0  0  0  0  0  0
    7.0454   -7.4657    0.0000 C   0  0  1  0  0  0  0  0  0  0  0  0
    6.3310   -7.0532    0.0000 C   0  0  2  0  0  0  0  0  0  0  0  0
    6.3310   -6.2282    0.0000 C   0  0  1  0  0  0  0  0  0  0  0  0
    7.0454   -5.8157    0.0000 C   0  0  0  0  0  0  0  0  0  0  0  0
    7.7599   -6.2282    0.0000 C   0  0  0  0  0  0  0  0  0  0  0  0
    5.6165   -5.8157    0.0000 C   0  0  1  0  0  0  0  0  0  0  0  0
    4.9020   -6.2282    0.0000 C   0  0  0  0  0  0  0  0  0  0  0  0
    4.9020   -7.0532    0.0000 C   0  0  0  0  0  0  0  0  0  0  0  0
    5.6165   -7.4657    0.0000 C   0  0  0  0  0  0  0  0  0  0  0  0
    9.8545   -6.6407    0.0000 O   0  0  0  0  0  0  0  0  0  0  0  0
    6.3310   -5.4032    0.0000 C   0  0  0  0  0  0  0  0  0  0  0  0
    5.6165   -8.2907    0.0000 C   0  0  0  0  0  0  0  0  0  0  0  0
    8.7995   -8.0927    0.0000 C   0  0  0  0  0  0  0  0  0  0  0  0
    7.7599   -5.4032    0.0000 O   0  0  0  0  0  0  0  0  0  0  0  0
    5.6165   -4.9907    0.0000 O   0  0  0  0  0  0  0  0  0  0  0  0
    7.0454   -8.2907    0.0000 O   0  0  0  0  0  0  0  0  0  0  0  0
    6.3310   -7.8782    0.0000 H   0  0  0  0  0  0  0  0  0  0  0  0
  1  2  1  0  0  0  0
  2  3  1  0  0  0  0
  3  4  2  0  0  0  0
  4  5  1  0  0  0  0
  5  6  1  0  0  0  0
  6  7  1  0  0  0  0
  7  8  1  0  0  0  0
  8  9  1  0  0  0  0
  4  9  1  0  0  0  0
  1  9  1  0  0  0  0
 10 11  1  0  0  0  0
 11 12  1  0  0  0  0
 12 13  2  0  0  0  0
 13  6  1  0  0  0  0
 10  7  1  0  0  0  0
  2 14  2  0  0  0  0
  7 15  1  1  0  0  0
 13 16  1  0  0  0  0
  3 17  1  0  0  0  0
  9 18  1  0  0  0  0
 10 19  1  1  0  0  0
  5 20  1  6  0  0  0
  6 21  1  6  0  0  0
M  END
>  <cdx:fragmentId>
5

$$$$
