254427.cdx
  Mrv1902 05222410222D          

 19 21  0  0  0  0            999 V2000
    8.9378   -6.1052    0.0000 O   0  0  0  0  0  0  0  0  0  0  0  0
    9.4227   -6.7727    0.0000 C   0  0  0  0  0  0  0  0  0  0  0  0
    8.9378   -7.4401    0.0000 C   0  0  0  0  0  0  0  0  0  0  0  0
    8.1532   -7.1852    0.0000 C   0  0  0  0  0  0  0  0  0  0  0  0
    7.4387   -7.5977    0.0000 C   0  0  0  0  0  0  0  0  0  0  0  0
    6.7242   -7.1852    0.0000 C   0  0  0  0  0  0  0  0  0  0  0  0
    6.7242   -6.3602    0.0000 C   0  0  1  0  0  0  0  0  0  0  0  0
    7.4387   -5.9477    0.0000 C   0  0  0  0  0  0  0  0  0  0  0  0
    8.1532   -6.3602    0.0000 C   0  0  2  0  0  0  0  0  0  0  0  0
    6.0098   -5.9477    0.0000 C   0  0  1  0  0  0  0  0  0  0  0  0
    5.2953   -6.3602    0.0000 C   0  0  0  0  0  0  0  0  0  0  0  0
    5.2953   -7.1852    0.0000 C   0  0  0  0  0  0  0  0  0  0  0  0
    6.0098   -7.5977    0.0000 C   0  0  0  0  0  0  0  0  0  0  0  0
   10.2477   -6.7727    0.0000 O   0  0  0  0  0  0  0  0  0  0  0  0
    6.7242   -5.5352    0.0000 C   0  0  0  0  0  0  0  0  0  0  0  0
    6.0098   -8.4227    0.0000 C   0  0  0  0  0  0  0  0  0  0  0  0
    9.1927   -8.2247    0.0000 C   0  0  0  0  0  0  0  0  0  0  0  0
    8.2394   -5.5397    0.0000 O   0  0  0  0  0  0  0  0  0  0  0  0
    6.0098   -5.1227    0.0000 O   0  0  0  0  0  0  0  0  0  0  0  0
  1  2  1  0  0  0  0
  2  3  1  0  0  0  0
  3  4  2  0  0  0  0
  4  5  1  0  0  0  0
  5  6  2  0  0  0  0
  6  7  1  0  0  0  0
  7  8  1  0  0  0  0
  8  9  1  0  0  0  0
  4  9  1  0  0  0  0
  1  9  1  0  0  0  0
 10 11  1  0  0  0  0
 11 12  1  0  0  0  0
 12 13  2  0  0  0  0
 13  6  1  0  0  0  0
 10  7  1  0  0  0  0
  2 14  2  0  0  0  0
  7 15  1  1  0  0  0
 13 16  1  0  0  0  0
  3 17  1  0  0  0  0
  9 18  1  1  0  0  0
 10 19  1  1  0  0  0
M  END
>  <cdx:fragmentId>
153792

$$$$
