10-hydroxy-3,9-dimethoxypterocarpan.cdx
  Mrv1902 05222410282D          

 24 27  0  0  0  0            999 V2000
    6.3764   -4.4550    0.0000 C   0  0  0  0  0  0  0  0  0  0  0  0
    6.3764   -5.2800    0.0000 C   0  0  0  0  0  0  0  0  0  0  0  0
    7.0909   -5.6925    0.0000 C   0  0  0  0  0  0  0  0  0  0  0  0
    7.8053   -5.2800    0.0000 C   0  0  0  0  0  0  0  0  0  0  0  0
    7.8053   -4.4550    0.0000 C   0  0  0  0  0  0  0  0  0  0  0  0
    7.0909   -4.0425    0.0000 C   0  0  0  0  0  0  0  0  0  0  0  0
    8.5198   -5.6925    0.0000 C   0  0  1  0  0  0  0  0  0  0  0  0
    9.2343   -5.2800    0.0000 C   0  0  1  0  0  0  0  0  0  0  0  0
    9.2343   -4.4550    0.0000 C   0  0  0  0  0  0  0  0  0  0  0  0
    8.5198   -4.0425    0.0000 O   0  0  0  0  0  0  0  0  0  0  0  0
    9.9488   -5.6925    0.0000 C   0  0  0  0  0  0  0  0  0  0  0  0
    8.7333   -6.4894    0.0000 O   0  0  0  0  0  0  0  0  0  0  0  0
    5.6619   -4.0425    0.0000 O   0  0  0  0  0  0  0  0  0  0  0  0
    9.6084   -6.4440    0.0000 C   0  0  0  0  0  0  0  0  0  0  0  0
   10.0891   -7.1145    0.0000 C   0  0  0  0  0  0  0  0  0  0  0  0
   10.9101   -7.0335    0.0000 C   0  0  0  0  0  0  0  0  0  0  0  0
   11.2505   -6.2820    0.0000 C   0  0  0  0  0  0  0  0  0  0  0  0
   10.7698   -5.6115    0.0000 C   0  0  0  0  0  0  0  0  0  0  0  0
    9.6766   -7.8290    0.0000 O   0  0  0  0  0  0  0  0  0  0  0  0
   11.4935   -7.6169    0.0000 O   0  0  0  0  0  0  0  0  0  0  0  0
   11.2800   -8.4138    0.0000 C   0  0  0  0  0  0  0  0  0  0  0  0
    9.9488   -4.8675    0.0000 H   0  0  0  0  0  0  0  0  0  0  0  0
    7.8053   -6.1050    0.0000 H   0  0  0  0  0  0  0  0  0  0  0  0
    4.9475   -4.4550    0.0000 C   0  0  0  0  0  0  0  0  0  0  0  0
  1  2  2  0  0  0  0
  2  3  1  0  0  0  0
  3  4  2  0  0  0  0
  4  5  1  0  0  0  0
  5  6  2  0  0  0  0
  6  1  1  0  0  0  0
  4  7  1  0  0  0  0
  7  8  1  0  0  0  0
  8  9  1  0  0  0  0
  9 10  1  0  0  0  0
 10  5  1  0  0  0  0
  8 11  1  1  0  0  0
  7 12  1  1  0  0  0
  1 13  1  0  0  0  0
 11 14  1  0  0  0  0
 14 15  1  0  0  0  0
 15 16  1  0  0  0  0
 16 17  1  0  0  0  0
 17 18  1  0  0  0  0
 18 11  1  0  0  0  0
 12 14  1  0  0  0  0
 15 19  1  0  0  0  0
 16 20  1  0  0  0  0
 20 21  1  0  0  0  0
  8 22  1  6  0  0  0
  7 23  1  6  0  0  0
 13 24  1  0  0  0  0
M  END
>  <cdx:fragmentId>
5

$$$$
