10-hydroxy-8,9-dioxyisopropylidene-thymol.cdx
  Mrv1902 05222410272D          

 17 18  0  0  0  0            999 V2000
    4.8840   -7.3087    0.0000 C   0  0  0  0  0  0  0  0  0  0  0  0
    4.4715   -8.0231    0.0000 C   0  0  0  0  0  0  0  0  0  0  0  0
    4.8840   -8.7376    0.0000 C   0  0  0  0  0  0  0  0  0  0  0  0
    5.7090   -8.7376    0.0000 C   0  0  0  0  0  0  0  0  0  0  0  0
    6.1215   -8.0231    0.0000 C   0  0  0  0  0  0  0  0  0  0  0  0
    5.7090   -7.3087    0.0000 C   0  0  0  0  0  0  0  0  0  0  0  0
    3.6465   -8.0231    0.0000 C   0  0  0  0  0  0  0  0  0  0  0  0
    6.1215   -9.4521    0.0000 O   0  0  0  0  0  0  0  0  0  0  0  0
    6.9465   -8.0231    0.0000 C   0  0  0  0  0  0  0  0  0  0  0  0
    6.9465   -7.1981    0.0000 C   0  0  0  0  0  0  0  0  0  0  0  0
    7.5299   -6.6148    0.0000 O   0  0  0  0  0  0  0  0  0  0  0  0
    6.9465   -8.8481    0.0000 C   0  0  0  0  0  0  0  0  0  0  0  0
    7.6816   -9.0956    0.0000 O   0  0  0  0  0  0  0  0  0  0  0  0
    7.7228   -7.7138    0.0000 O   0  0  0  0  0  0  0  0  0  0  0  0
    8.3342   -8.4150    0.0000 C   0  0  0  0  0  0  0  0  0  0  0  0
    9.0899   -8.0231    0.0000 C   0  0  0  0  0  0  0  0  0  0  0  0
    9.0899   -8.8481    0.0000 C   0  0  0  0  0  0  0  0  0  0  0  0
  1  2  2  0  0  0  0
  2  3  1  0  0  0  0
  3  4  2  0  0  0  0
  4  5  1  0  0  0  0
  5  6  2  0  0  0  0
  6  1  1  0  0  0  0
  2  7  1  0  0  0  0
  4  8  1  0  0  0  0
  5  9  1  0  0  0  0
  9 10  1  0  0  0  0
 10 11  1  0  0  0  0
  9 12  1  0  0  0  0
 12 13  1  0  0  0  0
  9 14  1  0  0  0  0
 14 15  1  0  0  0  0
 13 15  1  0  0  0  0
 15 16  1  0  0  0  0
 15 17  1  0  0  0  0
M  END
>  <cdx:fragmentId>
5

$$$$
