2548.cdx
  Mrv1902 05222410182D          

 19 20  0  0  0  0            999 V2000
    8.3974   -6.9754    0.0000 C   0  0  0  0  0  0  0  0  0  0  0  0
    8.3919   -6.1504    0.0000 C   0  0  0  0  0  0  0  0  0  0  0  0
    7.6748   -5.7427    0.0000 C   0  0  0  0  0  0  0  0  0  0  0  0
    6.9630   -6.1599    0.0000 C   0  0  2  0  0  0  0  0  0  0  0  0
    6.9685   -6.9849    0.0000 C   0  0  2  0  0  0  0  0  0  0  0  0
    7.6857   -7.3926    0.0000 C   0  0  0  0  0  0  0  0  0  0  0  0
    6.2458   -5.7521    0.0000 C   0  0  2  0  0  0  0  0  0  0  0  0
    5.5341   -6.1694    0.0000 C   0  0  0  0  0  0  0  0  0  0  0  0
    5.5396   -6.9943    0.0000 C   0  0  0  0  0  0  0  0  0  0  0  0
    6.2568   -7.4021    0.0000 C   0  0  1  0  0  0  0  0  0  0  0  0
    9.1146   -7.3832    0.0000 O   0  0  0  0  0  0  0  0  0  0  0  0
    9.1037   -5.7332    0.0000 C   0  0  0  0  0  0  0  0  0  0  0  0
    6.2404   -4.9272    0.0000 C   0  0  0  0  0  0  0  0  0  0  0  0
    5.8443   -8.1166    0.0000 O   0  0  0  0  0  0  0  0  0  0  0  0
    6.6693   -8.1166    0.0000 C   0  0  0  0  0  0  0  0  0  0  0  0
    6.9740   -7.8099    0.0000 H   0  0  0  0  0  0  0  0  0  0  0  0
    6.9576   -5.3349    0.0000 H   0  0  0  0  0  0  0  0  0  0  0  0
    6.9521   -4.5099    0.0000 C   0  0  0  0  0  0  0  0  0  0  0  0
    5.5232   -4.5194    0.0000 C   0  0  0  0  0  0  0  0  0  0  0  0
  1  2  1  0  0  0  0
  2  3  2  0  0  0  0
  3  4  1  0  0  0  0
  4  5  1  0  0  0  0
  5  6  1  0  0  0  0
  6  1  1  0  0  0  0
  4  7  1  0  0  0  0
  7  8  1  0  0  0  0
  8  9  1  0  0  0  0
  9 10  1  0  0  0  0
 10  5  1  0  0  0  0
  1 11  2  0  0  0  0
  2 12  1  0  0  0  0
  7 13  1  6  0  0  0
 10 14  1  6  0  0  0
 10 15  1  1  0  0  0
  5 16  1  1  0  0  0
  4 17  1  1  0  0  0
 13 18  1  0  0  0  0
 13 19  1  0  0  0  0
M  END
>  <cdx:fragmentId>
5

$$$$
