taurine.cdx
  Mrv1902 05222410282D          

  7  6  0  0  0  0            999 V2000
    5.8073   -7.9071    0.0000 S   0  0  0  0  0  0  0  0  0  0  0  0
    6.5217   -7.4946    0.0000 C   0  0  0  0  0  0  0  0  0  0  0  0
    7.2362   -7.9071    0.0000 C   0  0  0  0  0  0  0  0  0  0  0  0
    7.9507   -7.4946    0.0000 N   0  0  0  0  0  0  0  0  0  0  0  0
    5.3948   -7.1926    0.0000 O   0  0  0  0  0  0  0  0  0  0  0  0
    6.2198   -8.6215    0.0000 O   0  0  0  0  0  0  0  0  0  0  0  0
    5.0928   -8.3196    0.0000 O   0  0  0  0  0  0  0  0  0  0  0  0
  1  2  1  0  0  0  0
  2  3  1  0  0  0  0
  3  4  1  0  0  0  0
  1  5  2  0  0  0  0
  1  6  2  0  0  0  0
  1  7  1  0  0  0  0
M  END
>  <cdx:fragmentId>
3

$$$$
