2551.cdx
  Mrv1902 05222410282D          

 30 29  0  0  0  0            999 V2000
    1.2863   -8.6419    0.0000 C   0  0  0  0  0  0  0  0  0  0  0  0
    1.7149   -8.3944    0.0000 C   0  0  0  0  0  0  0  0  0  0  0  0
    2.1436   -8.6419    0.0000 C   0  0  0  0  0  0  0  0  0  0  0  0
    2.5723   -8.3944    0.0000 C   0  0  0  0  0  0  0  0  0  0  0  0
    3.0010   -8.6419    0.0000 C   0  0  0  0  0  0  0  0  0  0  0  0
    3.4297   -8.3944    0.0000 C   0  0  0  0  0  0  0  0  0  0  0  0
    3.8584   -8.6419    0.0000 C   0  0  0  0  0  0  0  0  0  0  0  0
    4.2870   -8.3944    0.0000 C   0  0  0  0  0  0  0  0  0  0  0  0
    4.7157   -8.6419    0.0000 C   0  0  0  0  0  0  0  0  0  0  0  0
    5.1444   -8.3944    0.0000 C   0  0  1  0  0  0  0  0  0  0  0  0
    5.5731   -8.6419    0.0000 C   0  0  0  0  0  0  0  0  0  0  0  0
    6.0018   -8.3944    0.0000 C   0  0  0  0  0  0  0  0  0  0  0  0
    6.4305   -8.6419    0.0000 C   0  0  0  0  0  0  0  0  0  0  0  0
    6.8591   -8.3944    0.0000 C   0  0  0  0  0  0  0  0  0  0  0  0
    7.2878   -8.6419    0.0000 C   0  0  0  0  0  0  0  0  0  0  0  0
    7.7165   -8.3944    0.0000 C   0  0  0  0  0  0  0  0  0  0  0  0
    8.1452   -8.6419    0.0000 C   0  0  0  0  0  0  0  0  0  0  0  0
    8.5739   -8.3944    0.0000 C   0  0  0  0  0  0  0  0  0  0  0  0
    9.0025   -8.6419    0.0000 C   0  0  0  0  0  0  0  0  0  0  0  0
    9.4312   -8.3944    0.0000 C   0  0  0  0  0  0  0  0  0  0  0  0
    9.8599   -8.6419    0.0000 C   0  0  0  0  0  0  0  0  0  0  0  0
   10.2886   -8.3944    0.0000 C   0  0  0  0  0  0  0  0  0  0  0  0
   10.7173   -8.6419    0.0000 C   0  0  0  0  0  0  0  0  0  0  0  0
   11.1460   -8.3944    0.0000 C   0  0  0  0  0  0  0  0  0  0  0  0
   11.5746   -8.6419    0.0000 C   0  0  0  0  0  0  0  0  0  0  0  0
   12.0033   -8.3944    0.0000 C   0  0  0  0  0  0  0  0  0  0  0  0
   12.4320   -8.6419    0.0000 C   0  0  0  0  0  0  0  0  0  0  0  0
   12.8607   -8.3944    0.0000 C   0  0  0  0  0  0  0  0  0  0  0  0
   13.2894   -8.6419    0.0000 C   0  0  0  0  0  0  0  0  0  0  0  0
    5.1444   -7.9200    0.0000 O   0  0  0  0  0  0  0  0  0  0  0  0
  1  2  1  0  0  0  0
  2  3  1  0  0  0  0
  3  4  1  0  0  0  0
  4  5  1  0  0  0  0
  5  6  1  0  0  0  0
  6  7  1  0  0  0  0
  7  8  1  0  0  0  0
  8  9  1  0  0  0  0
  9 10  1  0  0  0  0
 10 11  1  0  0  0  0
 11 12  1  0  0  0  0
 12 13  1  0  0  0  0
 13 14  1  0  0  0  0
 14 15  1  0  0  0  0
 15 16  1  0  0  0  0
 16 17  1  0  0  0  0
 17 18  1  0  0  0  0
 18 19  1  0  0  0  0
 19 20  1  0  0  0  0
 20 21  1  0  0  0  0
 21 22  1  0  0  0  0
 22 23  1  0  0  0  0
 23 24  1  0  0  0  0
 24 25  1  0  0  0  0
 25 26  1  0  0  0  0
 26 27  1  0  0  0  0
 27 28  1  0  0  0  0
 28 29  1  0  0  0  0
 10 30  1  6  0  0  0
M  END
>  <cdx:fragmentId>
3

$$$$
