255462.cdx
  Mrv1902 05222410202D          

 18 19  0  0  0  0            999 V2000
    5.2496   -8.8599    0.0000 C   0  0  0  0  0  0  0  0  0  0  0  0
    4.5351   -8.4474    0.0000 C   0  0  0  0  0  0  0  0  0  0  0  0
    4.5351   -7.6224    0.0000 C   0  0  0  0  0  0  0  0  0  0  0  0
    5.2496   -7.2099    0.0000 C   0  0  0  0  0  0  0  0  0  0  0  0
    5.9640   -7.6224    0.0000 C   0  0  0  0  0  0  0  0  0  0  0  0
    5.9640   -8.4474    0.0000 C   0  0  0  0  0  0  0  0  0  0  0  0
    5.2496   -9.6849    0.0000 O   0  0  0  0  0  0  0  0  0  0  0  0
    3.8206   -7.2099    0.0000 O   0  0  0  0  0  0  0  0  0  0  0  0
    6.6785   -7.2099    0.0000 C   0  0  0  0  0  0  0  0  0  0  0  0
    7.3930   -7.6224    0.0000 C   0  0  0  0  0  0  0  0  0  0  0  0
    8.1075   -7.2099    0.0000 C   0  0  0  0  0  0  0  0  0  0  0  0
    8.1075   -6.3849    0.0000 C   0  0  0  0  0  0  0  0  0  0  0  0
    8.8219   -5.9724    0.0000 C   0  0  0  0  0  0  0  0  0  0  0  0
    9.5364   -6.3849    0.0000 C   0  0  0  0  0  0  0  0  0  0  0  0
    9.5364   -7.2099    0.0000 C   0  0  0  0  0  0  0  0  0  0  0  0
    8.8219   -7.6224    0.0000 C   0  0  0  0  0  0  0  0  0  0  0  0
   10.2509   -5.9724    0.0000 O   0  0  0  0  0  0  0  0  0  0  0  0
   10.9653   -6.3849    0.0000 C   0  0  0  0  0  0  0  0  0  0  0  0
  1  2  1  0  0  0  0
  2  3  2  0  0  0  0
  3  4  1  0  0  0  0
  4  5  2  0  0  0  0
  5  6  1  0  0  0  0
  1  6  2  0  0  0  0
  1  7  1  0  0  0  0
  3  8  1  0  0  0  0
  9 10  2  0  0  0  0
 11 12  1  0  0  0  0
 12 13  2  0  0  0  0
 13 14  1  0  0  0  0
 14 15  2  0  0  0  0
 15 16  1  0  0  0  0
 11 16  2  0  0  0  0
 17 18  1  0  0  0  0
 14 17  1  0  0  0  0
 10 11  1  0  0  0  0
  5  9  1  0  0  0  0
M  END
>  <cdx:fragmentId>
9757

$$$$
