25588.cdx
  Mrv1902 05222410222D          

 15 14  0  0  0  0            999 V2000
    7.1924   -2.4621    0.0000 C   0  0  0  0  0  0  0  0  0  0  0  0
    6.4779   -2.8746    0.0000 C   0  0  1  0  0  0  0  0  0  0  0  0
    5.7635   -2.4621    0.0000 C   0  0  1  0  0  0  0  0  0  0  0  0
    5.0490   -2.8746    0.0000 C   0  0  2  0  0  0  0  0  0  0  0  0
    4.3345   -2.4621    0.0000 C   0  0  1  0  0  0  0  0  0  0  0  0
    3.6201   -2.8746    0.0000 C   0  0  1  0  0  0  0  0  0  0  0  0
    2.9056   -2.4621    0.0000 C   0  0  0  0  0  0  0  0  0  0  0  0
    7.1924   -1.6371    0.0000 O   0  0  0  0  0  0  0  0  0  0  0  0
    7.9069   -2.8746    0.0000 O   0  0  0  0  0  0  0  0  0  0  0  0
    2.1911   -2.8746    0.0000 O   0  0  0  0  0  0  0  0  0  0  0  0
    3.6201   -3.6996    0.0000 O   0  0  0  0  0  0  0  0  0  0  0  0
    4.3345   -1.6371    0.0000 O   0  0  0  0  0  0  0  0  0  0  0  0
    5.0490   -3.6996    0.0000 O   0  0  0  0  0  0  0  0  0  0  0  0
    5.7635   -1.6371    0.0000 O   0  0  0  0  0  0  0  0  0  0  0  0
    6.4779   -3.6996    0.0000 O   0  0  0  0  0  0  0  0  0  0  0  0
  1  2  1  0  0  0  0
  2  3  1  0  0  0  0
  3  4  1  0  0  0  0
  4  5  1  0  0  0  0
  5  6  1  0  0  0  0
  6  7  1  0  0  0  0
  1  8  2  0  0  0  0
  1  9  1  0  0  0  0
  7 10  1  0  0  0  0
  6 11  1  6  0  0  0
  5 12  1  1  0  0  0
  4 13  1  1  0  0  0
  3 14  1  1  0  0  0
  2 15  1  6  0  0  0
M  END
>  <cdx:groupId>
91

>  <cdx:fragmentId>
50

$$$$
