256.cdx
  Mrv1902 05222410272D          

 43 46  0  0  0  0            999 V2000
    4.5514   -7.5705    0.0000 C   0  0  0  0  0  0  0  0  0  0  0  0
    4.9135   -8.3117    0.0000 C   0  0  0  0  0  0  0  0  0  0  0  0
    5.7189   -8.4907    0.0000 N   0  0  0  0  0  0  0  0  0  0  0  0
    5.7083   -6.6370    0.0000 N   0  0  0  0  0  0  0  0  0  0  0  0
    4.9051   -6.8251    0.0000 C   0  0  0  0  0  0  0  0  0  0  0  0
    5.7776   -5.8149    0.0000 C   0  0  0  0  0  0  0  0  0  0  0  0
    5.0172   -5.4950    0.0000 C   0  0  0  0  0  0  0  0  0  0  0  0
    4.4779   -6.1193    0.0000 C   0  0  0  0  0  0  0  0  0  0  0  0
    4.4944   -9.0223    0.0000 C   0  0  0  0  0  0  0  0  0  0  0  0
    5.0408   -9.6405    0.0000 C   0  0  0  0  0  0  0  0  0  0  0  0
    5.7975   -9.3119    0.0000 C   0  0  0  0  0  0  0  0  0  0  0  0
    6.5944   -9.5255    0.0000 C   0  0  0  0  0  0  0  0  0  0  0  0
    7.3913   -9.3119    0.0000 C   0  0  0  0  0  0  0  0  0  0  0  0
    8.1634   -9.6026    0.0000 C   0  0  0  0  0  0  0  0  0  0  0  0
    8.6784   -8.9582    0.0000 C   0  0  0  0  0  0  0  0  0  0  0  0
    8.2247   -8.2692    0.0000 C   0  0  0  0  0  0  0  0  0  0  0  0
    7.4292   -8.4878    0.0000 N   0  0  0  0  0  0  0  0  0  0  0  0
    8.5497   -7.5109    0.0000 C   0  0  0  0  0  0  0  0  0  0  0  0
    8.1595   -6.7840    0.0000 C   0  0  0  0  0  0  0  0  0  0  0  0
    7.3480   -6.6358    0.0000 N   0  0  0  0  0  0  0  0  0  0  0  0
    8.5512   -6.0579    0.0000 C   0  0  0  0  0  0  0  0  0  0  0  0
    7.9818   -5.4610    0.0000 C   0  0  0  0  0  0  0  0  0  0  0  0
    7.2381   -5.8182    0.0000 C   0  0  0  0  0  0  0  0  0  0  0  0
    3.6529   -6.1193    0.0000 C   0  0  0  0  0  0  0  0  0  0  0  0
    3.6694   -9.0223    0.0000 C   0  0  0  0  0  0  0  0  0  0  0  0
    9.3762   -6.0579    0.0000 C   0  0  0  0  0  0  0  0  0  0  0  0
    9.5034   -8.9582    0.0000 C   0  0  0  0  0  0  0  0  0  0  0  0
    6.1901   -5.1004    0.0000 O   0  0  0  0  0  0  0  0  0  0  0  0
    6.8256   -5.1037    0.0000 O   0  0  0  0  0  0  0  0  0  0  0  0
    4.8036   -4.6981    0.0000 C   0  0  0  0  0  0  0  0  0  0  0  0
    5.3870   -4.1147    0.0000 C   0  0  0  0  0  0  0  0  0  0  0  0
    8.1953   -4.6641    0.0000 C   0  0  0  0  0  0  0  0  0  0  0  0
    9.7887   -5.3435    0.0000 C   0  0  0  0  0  0  0  0  0  0  0  0
    4.8272  -10.4374    0.0000 C   0  0  0  0  0  0  0  0  0  0  0  0
    8.3769  -10.3995    0.0000 C   0  0  0  0  0  0  0  0  0  0  0  0
    7.7935  -10.9829    0.0000 C   0  0  0  0  0  0  0  0  0  0  0  0
    7.4237  -12.3632    0.0000 O   0  0  0  0  0  0  0  0  0  0  0  0
    8.8039  -11.9933    0.0000 O   0  0  0  0  0  0  0  0  0  0  0  0
    8.0071  -11.7798    0.0000 C   0  0  0  0  0  0  0  0  0  0  0  0
    5.4106  -11.0208    0.0000 C   0  0  0  0  0  0  0  0  0  0  0  0
    5.7804  -12.4010    0.0000 O   0  0  0  0  0  0  0  0  0  0  0  0
    4.4002  -12.0312    0.0000 O   0  0  0  0  0  0  0  0  0  0  0  0
    5.1971  -11.8176    0.0000 C   0  0  0  0  0  0  0  0  0  0  0  0
  1  2  1  0  0  0  0
  2  3  1  0  0  0  0
  4  5  1  0  0  0  0
  5  1  2  0  0  0  0
  4  6  1  0  0  0  0
  6  7  1  0  0  0  0
  7  8  2  0  0  0  0
  8  5  1  0  0  0  0
  2  9  2  0  0  0  0
  9 10  1  0  0  0  0
 10 11  2  0  0  0  0
 11  3  1  0  0  0  0
 11 12  1  0  0  0  0
 12 13  1  0  0  0  0
 13 14  2  0  0  0  0
 14 15  1  0  0  0  0
 15 16  2  0  0  0  0
 16 17  1  0  0  0  0
 17 13  1  0  0  0  0
 16 18  1  0  0  0  0
 18 19  2  0  0  0  0
 19 20  1  0  0  0  0
 19 21  1  0  0  0  0
 21 22  2  0  0  0  0
 22 23  1  0  0  0  0
 23 20  1  0  0  0  0
  8 24  1  0  0  0  0
  9 25  1  0  0  0  0
 21 26  1  0  0  0  0
 15 27  1  0  0  0  0
  6 28  2  0  0  0  0
 23 29  2  0  0  0  0
  7 30  1  0  0  0  0
 30 31  2  0  0  0  0
 22 32  1  0  0  0  0
 26 33  2  0  0  0  0
 10 34  1  0  0  0  0
 14 35  1  0  0  0  0
 35 36  1  0  0  0  0
 39 37  1  0  0  0  0
 36 39  1  0  0  0  0
 39 38  2  0  0  0  0
 34 40  1  0  0  0  0
 43 41  1  0  0  0  0
 40 43  1  0  0  0  0
 43 42  2  0  0  0  0
M  END
>  <cdx:fragmentId>
5

$$$$
