25641.cdx
  Mrv1902 05222410282D          

 12 13  0  0  0  0            999 V2000
    6.2155   -5.9125    0.0000 C   0  0  0  0  0  0  0  0  0  0  0  0
    6.2155   -6.7375    0.0000 C   0  0  0  0  0  0  0  0  0  0  0  0
    6.9300   -7.1500    0.0000 C   0  0  0  0  0  0  0  0  0  0  0  0
    7.6445   -6.7375    0.0000 C   0  0  0  0  0  0  0  0  0  0  0  0
    7.6445   -5.9125    0.0000 C   0  0  0  0  0  0  0  0  0  0  0  0
    6.9300   -5.5000    0.0000 C   0  0  0  0  0  0  0  0  0  0  0  0
    6.9300   -7.9750    0.0000 C   0  0  0  0  0  0  0  0  0  0  0  0
    6.2155   -8.3875    0.0000 C   0  0  0  0  0  0  0  0  0  0  0  0
    6.2155   -9.2125    0.0000 C   0  0  0  0  0  0  0  0  0  0  0  0
    6.9300   -9.6250    0.0000 C   0  0  0  0  0  0  0  0  0  0  0  0
    7.6445   -9.2125    0.0000 C   0  0  0  0  0  0  0  0  0  0  0  0
    7.6445   -8.3875    0.0000 C   0  0  0  0  0  0  0  0  0  0  0  0
  1  2  1  0  0  0  0
  2  3  1  0  0  0  0
  3  4  1  0  0  0  0
  4  5  1  0  0  0  0
  5  6  1  0  0  0  0
  6  1  1  0  0  0  0
  3  7  1  0  0  0  0
  7  8  1  0  0  0  0
  8  9  1  0  0  0  0
  9 10  1  0  0  0  0
 10 11  1  0  0  0  0
 11 12  1  0  0  0  0
 12  7  1  0  0  0  0
M  END
>  <cdx:fragmentId>
11850

$$$$
