25646.cdx
  Mrv1902 05222410262D          

 10 10  0  0  0  0            999 V2000
    7.5630   -5.6383    0.0000 C   0  0  0  0  0  0  0  0  0  0  0  0
    6.8485   -6.0508    0.0000 C   0  0  0  0  0  0  0  0  0  0  0  0
    6.1340   -5.6383    0.0000 C   0  0  0  0  0  0  0  0  0  0  0  0
    5.4195   -6.0508    0.0000 C   0  0  0  0  0  0  0  0  0  0  0  0
    5.4195   -6.8758    0.0000 C   0  0  0  0  0  0  0  0  0  0  0  0
    6.1340   -7.2883    0.0000 C   0  0  0  0  0  0  0  0  0  0  0  0
    6.8485   -6.8758    0.0000 C   0  0  0  0  0  0  0  0  0  0  0  0
    7.5630   -4.8133    0.0000 O   0  0  0  0  0  0  0  0  0  0  0  0
    8.2774   -6.0508    0.0000 O   0  0  0  0  0  0  0  0  0  0  0  0
    8.9919   -5.6383    0.0000 C   0  0  0  0  0  0  0  0  0  0  0  0
  1  2  1  0  0  0  0
  2  3  1  0  0  0  0
  3  4  2  0  0  0  0
  4  5  1  0  0  0  0
  5  6  2  0  0  0  0
  6  7  1  0  0  0  0
  2  7  2  0  0  0  0
  1  8  2  0  0  0  0
  1  9  1  0  0  0  0
  9 10  1  0  0  0  0
M  END
>  <cdx:groupId>
35

>  <cdx:fragmentId>
5

$$$$
