25642.cdx
  Mrv1902 05222410272D          

 21 20  0  0  0  0            999 V2000
    0.4068   -8.5908    0.0000 C   0  0  0  0  0  0  0  0  0  0  0  0
    1.1213   -8.1783    0.0000 O   0  0  0  0  0  0  0  0  0  0  0  0
    1.8358   -9.4158    0.0000 O   0  0  0  0  0  0  0  0  0  0  0  0
   13.9818   -8.1783    0.0000 C   0  0  0  0  0  0  0  0  0  0  0  0
   13.2673   -8.5908    0.0000 C   0  0  0  0  0  0  0  0  0  0  0  0
   12.5529   -8.1783    0.0000 C   0  0  0  0  0  0  0  0  0  0  0  0
   11.8384   -8.5908    0.0000 C   0  0  0  0  0  0  0  0  0  0  0  0
   11.1239   -8.1783    0.0000 C   0  0  0  0  0  0  0  0  0  0  0  0
   10.4094   -8.5908    0.0000 C   0  0  0  0  0  0  0  0  0  0  0  0
    9.6950   -8.1783    0.0000 C   0  0  0  0  0  0  0  0  0  0  0  0
    8.9805   -8.5908    0.0000 C   0  0  0  0  0  0  0  0  0  0  0  0
    8.2660   -8.1783    0.0000 C   0  0  0  0  0  0  0  0  0  0  0  0
    7.5516   -8.5908    0.0000 C   0  0  0  0  0  0  0  0  0  0  0  0
    6.8371   -8.1783    0.0000 C   0  0  0  0  0  0  0  0  0  0  0  0
    6.1226   -8.5908    0.0000 C   0  0  0  0  0  0  0  0  0  0  0  0
    5.4081   -8.1783    0.0000 C   0  0  0  0  0  0  0  0  0  0  0  0
    4.6937   -8.5908    0.0000 C   0  0  0  0  0  0  0  0  0  0  0  0
    3.9792   -8.1783    0.0000 C   0  0  0  0  0  0  0  0  0  0  0  0
    3.2647   -8.5908    0.0000 C   0  0  0  0  0  0  0  0  0  0  0  0
    2.5503   -8.1783    0.0000 C   0  0  0  0  0  0  0  0  0  0  0  0
    1.8358   -8.5908    0.0000 C   0  0  0  0  0  0  0  0  0  0  0  0
  2  1  1  0  0  0  0
 21  2  1  0  0  0  0
 21  3  2  0  0  0  0
  5  4  1  0  0  0  0
  6  5  1  0  0  0  0
  7  6  1  0  0  0  0
  8  7  1  0  0  0  0
  9  8  1  0  0  0  0
 10  9  1  0  0  0  0
 11 10  1  0  0  0  0
 12 11  2  0  0  0  0
 13 12  1  0  0  0  0
 14 13  1  0  0  0  0
 15 14  1  0  0  0  0
 16 15  1  0  0  0  0
 17 16  1  0  0  0  0
 18 17  1  0  0  0  0
 19 18  1  0  0  0  0
 20 19  1  0  0  0  0
 21 20  1  0  0  0  0
M  END
>  <cdx:fragmentId>
3300

$$$$
