25645.cdx
  Mrv1902 05222410262D          

 20 21  0  0  0  0            999 V2000
    5.8566   -6.7404    0.0000 C   0  0  0  0  0  0  0  0  0  0  0  0
    6.2792   -7.4489    0.0000 C   0  0  0  0  0  0  0  0  0  0  0  0
    7.1042   -7.4372    0.0000 C   0  0  0  0  0  0  0  0  0  0  0  0
    7.5065   -6.7169    0.0000 C   0  0  0  0  0  0  0  0  0  0  0  0
    7.0838   -6.0084    0.0000 C   0  0  0  0  0  0  0  0  0  0  0  0
    6.2589   -6.0201    0.0000 C   0  0  0  0  0  0  0  0  0  0  0  0
    8.0008   -7.3774    0.0000 O   0  0  0  0  0  0  0  0  0  0  0  0
    8.7817   -7.1113    0.0000 C   0  0  0  0  0  0  0  0  0  0  0  0
    8.7700   -6.2864    0.0000 C   0  0  0  0  0  0  0  0  0  0  0  0
    7.9818   -6.0427    0.0000 C   0  0  0  0  0  0  0  0  0  0  0  0
    9.4560   -7.5867    0.0000 O   0  0  0  0  0  0  0  0  0  0  0  0
    5.0317   -6.7521    0.0000 O   0  0  0  0  0  0  0  0  0  0  0  0
    5.8363   -5.3116    0.0000 C   0  0  0  0  0  0  0  0  0  0  0  0
    5.4238   -4.5971    0.0000 C   0  0  0  0  0  0  0  0  0  0  0  0
    5.1218   -5.7241    0.0000 C   0  0  0  0  0  0  0  0  0  0  0  0
    6.5508   -4.8991    0.0000 C   0  0  0  0  0  0  0  0  0  0  0  0
    5.8769   -8.1692    0.0000 C   0  0  0  0  0  0  0  0  0  0  0  0
    5.4644   -8.8837    0.0000 C   0  0  0  0  0  0  0  0  0  0  0  0
    5.1625   -7.7567    0.0000 C   0  0  0  0  0  0  0  0  0  0  0  0
    6.5914   -8.5817    0.0000 C   0  0  0  0  0  0  0  0  0  0  0  0
  1  2  1  0  0  0  0
  2  3  2  0  0  0  0
  3  4  1  0  0  0  0
  4  5  1  0  0  0  0
  5  6  2  0  0  0  0
  6  1  1  0  0  0  0
  4  7  1  0  0  0  0
  7  8  1  0  0  0  0
  8  9  1  0  0  0  0
  9 10  1  0  0  0  0
 10  4  1  0  0  0  0
  8 11  2  0  0  0  0
  1 12  2  0  0  0  0
  6 13  1  0  0  0  0
 13 14  1  0  0  0  0
 13 15  1  0  0  0  0
 13 16  1  0  0  0  0
  2 17  1  0  0  0  0
 17 18  1  0  0  0  0
 17 19  1  0  0  0  0
 17 20  1  0  0  0  0
M  END
>  <cdx:fragmentId>
150

$$$$
