256502.cdx
  Mrv1902 05222410272D          

 21 20  0  0  0  0            999 V2000
    3.8005   -9.2953    0.0000 C   0  0  0  0  0  0  0  0  0  0  0  0
    4.5150   -8.8828    0.0000 C   0  0  0  0  0  0  0  0  0  0  0  0
    5.2294   -9.2953    0.0000 C   0  0  0  0  0  0  0  0  0  0  0  0
    5.9439   -8.8828    0.0000 C   0  0  0  0  0  0  0  0  0  0  0  0
    6.6584   -9.2953    0.0000 C   0  0  0  0  0  0  0  0  0  0  0  0
    7.3729   -8.8828    0.0000 C   0  0  0  0  0  0  0  0  0  0  0  0
    8.0873   -9.2953    0.0000 C   0  0  0  0  0  0  0  0  0  0  0  0
    8.8018   -8.8828    0.0000 C   0  0  0  0  0  0  0  0  0  0  0  0
    9.5163   -9.2953    0.0000 C   0  0  0  0  0  0  0  0  0  0  0  0
    3.0860   -8.8828    0.0000 O   0  0  0  0  0  0  0  0  0  0  0  0
   10.2307   -8.8828    0.0000 C   0  0  0  0  0  0  0  0  0  0  0  0
    3.8005  -10.1203    0.0000 O   0  0  0  0  0  0  0  0  0  0  0  0
   10.2307   -8.0578    0.0000 C   0  0  0  0  0  0  0  0  0  0  0  0
   10.9452   -7.6453    0.0000 C   0  0  0  0  0  0  0  0  0  0  0  0
   10.9452   -6.8203    0.0000 C   0  0  0  0  0  0  0  0  0  0  0  0
   10.2307   -6.4078    0.0000 C   0  0  0  0  0  0  0  0  0  0  0  0
   10.2307   -5.5828    0.0000 C   0  0  0  0  0  0  0  0  0  0  0  0
    9.5163   -5.1703    0.0000 C   0  0  0  0  0  0  0  0  0  0  0  0
    8.8018   -5.5828    0.0000 C   0  0  0  0  0  0  0  0  0  0  0  0
    8.0873   -5.1703    0.0000 C   0  0  0  0  0  0  0  0  0  0  0  0
    8.8018   -6.4078    0.0000 O   0  0  0  0  0  0  0  0  0  0  0  0
  1  2  1  0  0  0  0
  2  3  1  0  0  0  0
  3  4  1  0  0  0  0
  4  5  1  0  0  0  0
  5  6  1  0  0  0  0
  6  7  1  0  0  0  0
  7  8  1  0  0  0  0
  8  9  1  0  0  0  0
  1 10  1  0  0  0  0
  9 11  2  0  0  0  0
  1 12  2  0  0  0  0
 11 13  1  0  0  0  0
 13 14  1  0  0  0  0
 14 15  2  0  0  0  0
 15 16  1  0  0  0  0
 16 17  1  0  0  0  0
 17 18  2  0  0  0  0
 18 19  1  0  0  0  0
 19 20  1  0  0  0  0
 19 21  1  0  0  0  0
M  END
>  <cdx:fragmentId>
11736

$$$$
