25659.cdx
  Mrv1902 05222410182D          

 27 30  0  0  0  0            999 V2000
    9.6951   -4.7125    0.0000 C   0  0  0  0  0  0  0  0  0  0  0  0
    9.7049   -5.5374    0.0000 O   0  0  0  0  0  0  0  0  0  0  0  0
    8.9757   -4.3085    0.0000 C   0  0  0  0  0  0  0  0  0  0  0  0
    8.2662   -4.7295    0.0000 O   0  0  0  0  0  0  0  0  0  0  0  0
    7.6058   -9.2752    0.0000 C   0  0  0  0  0  0  0  0  0  0  0  0
    4.1416   -9.8686    0.0000 O   0  0  0  0  0  0  0  0  0  0  0  0
    4.4861  -10.6182    0.0000 C   0  0  0  0  0  0  0  0  0  0  0  0
    5.3055  -10.5222    0.0000 O   0  0  0  0  0  0  0  0  0  0  0  0
    4.7383   -8.4843    0.0000 C   0  0  0  0  0  0  0  0  0  0  0  0
    4.7481   -9.3092    0.0000 C   0  0  0  0  0  0  0  0  0  0  0  0
    5.4674   -9.7132    0.0000 C   0  0  0  0  0  0  0  0  0  0  0  0
    6.1770   -9.2922    0.0000 C   0  0  0  0  0  0  0  0  0  0  0  0
    6.1475   -6.8174    0.0000 C   0  0  0  0  0  0  0  0  0  0  0  0
    5.4380   -7.2384    0.0000 C   0  0  0  0  0  0  0  0  0  0  0  0
    5.4478   -8.0633    0.0000 C   0  0  0  0  0  0  0  0  0  0  0  0
    6.1671   -8.4673    0.0000 C   0  0  0  0  0  0  0  0  0  0  0  0
    6.8668   -7.2214    0.0000 C   0  0  0  0  0  0  0  0  0  0  0  0
    6.8767   -8.0463    0.0000 C   0  0  0  0  0  0  0  0  0  0  0  0
    7.5960   -8.4503    0.0000 N   0  3  0  0  0  0  0  0  0  0  0  0
    8.3055   -8.0293    0.0000 C   0  0  0  0  0  0  0  0  0  0  0  0
    7.5665   -5.9754    0.0000 C   0  0  0  0  0  0  0  0  0  0  0  0
    7.5764   -6.8003    0.0000 C   0  0  0  0  0  0  0  0  0  0  0  0
    8.2957   -7.2043    0.0000 C   0  0  0  0  0  0  0  0  0  0  0  0
    9.0052   -6.7833    0.0000 C   0  0  0  0  0  0  0  0  0  0  0  0
    8.9954   -5.9584    0.0000 C   0  0  0  0  0  0  0  0  0  0  0  0
    8.2760   -5.5544    0.0000 C   0  0  0  0  0  0  0  0  0  0  0  0
    8.7430   -9.8798    0.0000 Cl  0  5  0  0  0  0  0  0  0  0  0  0
  2  1  1  0  0  0  0
 25  2  1  0  0  0  0
  4  3  1  0  0  0  0
 26  4  1  0  0  0  0
 19  5  1  0  0  0  0
  6 10  1  0  0  0  0
  7  6  1  0  0  0  0
  8  7  1  0  0  0  0
 11  8  1  0  0  0  0
  9 15  1  0  0  0  0
 10  9  2  0  0  0  0
 11 10  1  0  0  0  0
 12 11  2  0  0  0  0
 16 12  1  0  0  0  0
 13 17  1  0  0  0  0
 14 13  2  0  0  0  0
 15 14  1  0  0  0  0
 16 15  2  0  0  0  0
 18 16  1  0  0  0  0
 17 22  1  0  0  0  0
 18 17  2  0  0  0  0
 19 18  1  0  0  0  0
 20 19  2  0  0  0  0
 23 20  1  0  0  0  0
 21 26  2  0  0  0  0
 22 21  1  0  0  0  0
 23 22  2  0  0  0  0
 24 23  1  0  0  0  0
 25 24  2  0  0  0  0
 26 25  1  0  0  0  0
M  CHG  2  19   1  27  -1
M  END
>  <cdx:fragmentId>
60

$$$$
