44256721.cdx
  Mrv1902 05222410192D          

 43 47  0  0  0  0            999 V2000
    5.1248  -13.4139    0.0000 O   0  0  0  0  0  0  0  0  0  0  0  0
    5.1248  -12.5889    0.0000 C   0  0  2  0  0  0  0  0  0  0  0  0
    4.4104  -12.1764    0.0000 C   0  0  1  0  0  0  0  0  0  0  0  0
    3.6959  -12.5889    0.0000 C   0  0  0  0  0  0  0  0  0  0  0  0
    3.6959  -13.4139    0.0000 C   0  0  1  0  0  0  0  0  0  0  0  0
    4.4104  -13.8264    0.0000 C   0  0  0  0  0  0  0  0  0  0  0  0
    4.4104  -11.3514    0.0000 O   0  0  0  0  0  0  0  0  0  0  0  0
    2.9814  -12.1764    0.0000 O   0  0  0  0  0  0  0  0  0  0  0  0
    2.9814  -13.8264    0.0000 O   0  0  0  0  0  0  0  0  0  0  0  0
    4.4104  -14.6514    0.0000 C   0  0  0  0  0  0  0  0  0  0  0  0
    3.6959  -15.0639    0.0000 O   0  0  0  0  0  0  0  0  0  0  0  0
    5.8393  -12.1764    0.0000 O   0  0  0  0  0  0  0  0  0  0  0  0
    7.9827  -13.4139    0.0000 O   0  0  0  0  0  0  0  0  0  0  0  0
    7.2682  -13.8264    0.0000 C   0  0  1  0  0  0  0  0  0  0  0  0
    6.5538  -13.4139    0.0000 C   0  0  0  0  0  0  0  0  0  0  0  0
    6.5538  -12.5889    0.0000 C   0  0  0  0  0  0  0  0  0  0  0  0
    7.2682  -12.1764    0.0000 C   0  0  1  0  0  0  0  0  0  0  0  0
    7.9827  -12.5889    0.0000 C   0  0  0  0  0  0  0  0  0  0  0  0
    8.6972  -12.1764    0.0000 C   0  0  0  0  0  0  0  0  0  0  0  0
    9.4117  -12.5889    0.0000 O   0  0  0  0  0  0  0  0  0  0  0  0
    7.2682  -11.3514    0.0000 O   0  0  0  0  0  0  0  0  0  0  0  0
    5.8393  -13.8264    0.0000 O   0  0  0  0  0  0  0  0  0  0  0  0
    7.2682  -14.6514    0.0000 O   0  0  0  0  0  0  0  0  0  0  0  0
    7.9827  -15.8889    0.0000 C   0  0  0  0  0  0  0  0  0  0  0  0
    7.9827  -15.0639    0.0000 C   0  3  0  0  0  0  0  0  0  0  0  0
    8.6972  -14.6514    0.0000 C   0  0  0  0  0  0  0  0  0  0  0  0
    9.4117  -15.0639    0.0000 C   0  0  0  0  0  0  0  0  0  0  0  0
   10.1261  -14.6514    0.0000 C   0  0  0  0  0  0  0  0  0  0  0  0
   10.8406  -15.0639    0.0000 C   0  0  0  0  0  0  0  0  0  0  0  0
   10.8406  -15.8889    0.0000 C   0  0  0  0  0  0  0  0  0  0  0  0
   10.1261  -16.3014    0.0000 C   0  0  0  0  0  0  0  0  0  0  0  0
    9.4117  -15.8889    0.0000 C   0  0  0  0  0  0  0  0  0  0  0  0
    8.6972  -16.3014    0.0000 O   0  0  0  0  0  0  0  0  0  0  0  0
   11.5551  -16.3014    0.0000 O   0  0  0  0  0  0  0  0  0  0  0  0
   10.1261  -13.8264    0.0000 O   0  0  0  0  0  0  0  0  0  0  0  0
    7.2682  -16.3014    0.0000 C   0  0  0  0  0  0  0  0  0  0  0  0
    6.5538  -15.8889    0.0000 C   0  0  0  0  0  0  0  0  0  0  0  0
    5.8393  -16.3014    0.0000 C   0  0  0  0  0  0  0  0  0  0  0  0
    5.8393  -17.1264    0.0000 C   0  0  0  0  0  0  0  0  0  0  0  0
    6.5538  -17.5389    0.0000 C   0  0  0  0  0  0  0  0  0  0  0  0
    7.2682  -17.1264    0.0000 C   0  0  0  0  0  0  0  0  0  0  0  0
    5.1248  -17.5389    0.0000 O   0  0  0  0  0  0  0  0  0  0  0  0
    5.1248  -15.8889    0.0000 O   0  0  0  0  0  0  0  0  0  0  0  0
  1  2  1  0  0  0  0
  2  3  1  0  0  0  0
  3  4  1  0  0  0  0
  4  5  1  0  0  0  0
  5  6  1  0  0  0  0
  1  6  1  0  0  0  0
  3  7  1  1  0  0  0
  4  8  1  0  0  0  0
  5  9  1  1  0  0  0
 10 11  1  0  0  0  0
  6 10  1  0  0  0  0
 13 14  1  0  0  0  0
 14 15  1  0  0  0  0
 15 16  1  0  0  0  0
 16 17  1  0  0  0  0
 17 18  1  0  0  0  0
 13 18  1  0  0  0  0
 19 20  1  0  0  0  0
 18 19  1  0  0  0  0
 17 21  1  6  0  0  0
 15 22  1  0  0  0  0
 24 25  1  0  0  0  0
 25 26  1  0  0  0  0
 26 27  1  0  0  0  0
 27 28  1  0  0  0  0
 28 29  2  0  0  0  0
 29 30  1  0  0  0  0
 30 31  2  0  0  0  0
 31 32  1  0  0  0  0
 27 32  2  0  0  0  0
 32 33  1  0  0  0  0
 24 33  1  0  0  0  0
 30 34  1  0  0  0  0
 28 35  1  0  0  0  0
 36 37  1  0  0  0  0
 37 38  2  0  0  0  0
 38 39  1  0  0  0  0
 39 40  2  0  0  0  0
 40 41  1  0  0  0  0
 36 41  2  0  0  0  0
 39 42  1  0  0  0  0
 38 43  1  0  0  0  0
 24 36  1  0  0  0  0
 23 25  1  0  0  0  0
 14 23  1  6  0  0  0
 12 16  1  0  0  0  0
  2 12  1  6  0  0  0
M  CHG  1  25   1
M  END
>  <cdx:groupId>
153988

>  <cdx:fragmentId>
153904

$$$$
