256772.cdx
  Mrv1902 05222410242D          

 35 39  0  0  0  0            999 V2000
    6.0951   -4.0913    0.0000 O   0  0  0  0  0  0  0  0  0  0  0  0
    5.6625   -4.7938    0.0000 C   0  0  1  0  0  0  0  0  0  0  0  0
    4.8607   -4.5994    0.0000 C   0  0  0  0  0  0  0  0  0  0  0  0
    4.7978   -3.7768    0.0000 C   0  0  1  0  0  0  0  0  0  0  0  0
    5.5606   -3.4628    0.0000 C   0  0  0  0  0  0  0  0  0  0  0  0
    5.7550   -2.6610    0.0000 O   0  0  0  0  0  0  0  0  0  0  0  0
    4.0953   -3.3443    0.0000 C   0  0  0  0  0  0  0  0  0  0  0  0
    9.1085   -6.5793    0.0000 H   0  0  0  0  0  0  0  0  0  0  0  0
    6.8092   -7.4497    0.0000 H   0  0  0  0  0  0  0  0  0  0  0  0
    6.4288   -7.2880    0.0000 H   0  0  0  0  0  0  0  0  0  0  0  0
    6.7974  -10.2743    0.0000 C   0  0  0  0  0  0  0  0  0  0  0  0
    7.2195   -9.5654    0.0000 O   0  0  0  0  0  0  0  0  0  0  0  0
    8.2549  -11.0314    0.0000 C   0  0  0  0  0  0  0  0  0  0  0  0
    6.8317   -8.3280    0.0000 C   0  0  0  0  0  0  0  0  0  0  0  0
    6.0784   -6.8876    0.0000 C   0  0  0  0  0  0  0  0  0  0  0  0
    5.5440   -6.2591    0.0000 C   0  0  0  0  0  0  0  0  0  0  0  0
    5.9766   -5.5566    0.0000 C   0  0  2  0  0  0  0  0  0  0  0  0
    6.7783   -5.7510    0.0000 N   0  0  0  0  0  0  0  0  0  0  0  0
    7.3822   -5.1889    0.0000 C   0  0  0  0  0  0  0  0  0  0  0  0
    8.1982   -5.3105    0.0000 C   0  0  0  0  0  0  0  0  0  0  0  0
    8.6118   -6.0244    0.0000 C   0  0  0  0  0  0  0  0  0  0  0  0
    8.3116   -6.7928    0.0000 C   0  0  1  0  0  0  0  0  0  0  0  0
    8.7876   -7.4667    0.0000 O   0  0  0  0  0  0  0  0  0  0  0  0
    8.2938   -8.1276    0.0000 C   0  0  0  0  0  0  0  0  0  0  0  0
    7.5126   -7.8621    0.0000 C   0  0  2  0  0  0  0  0  0  0  0  0
    7.5237   -7.0372    0.0000 C   0  0  2  0  0  0  0  0  0  0  0  0
    6.8413   -6.5736    0.0000 C   0  0  2  0  0  0  0  0  0  0  0  0
    9.9692  -10.4997    0.0000 O   0  0  0  0  0  0  0  0  0  0  0  0
    8.5382   -8.9155    0.0000 C   0  0  0  0  0  0  0  0  0  0  0  0
    8.0444   -9.5764    0.0000 C   0  0  0  0  0  0  0  0  0  0  0  0
    8.5203  -10.2503    0.0000 C   0  0  0  0  0  0  0  0  0  0  0  0
    9.3083  -10.0059    0.0000 C   0  0  0  0  0  0  0  0  0  0  0  0
    9.3193   -9.1809    0.0000 O   0  0  0  0  0  0  0  0  0  0  0  0
    4.9480   -5.2063    0.0000 H   0  0  0  0  0  0  0  0  0  0  0  0
    5.1516   -5.5566    0.0000 H   0  0  0  0  0  0  0  0  0  0  0  0
 22  8  1  6  0  0  0
 26  9  1  1  0  0  0
 27 10  1  1  0  0  0
 30 12  1  0  0  0  0
 12 11  1  0  0  0  0
 31 13  1  0  0  0  0
 29 24  2  0  0  0  0
 25 14  1  1  0  0  0
 17  2  1  0  0  0  0
 26 22  1  0  0  0  0
 27 18  1  0  0  0  0
 27 15  1  0  0  0  0
 16 15  1  0  0  0  0
 17 16  1  0  0  0  0
 18 17  1  0  0  0  0
 19 18  1  0  0  0  0
 20 19  1  0  0  0  0
 21 20  1  0  0  0  0
 22 21  1  0  0  0  0
 23 22  1  0  0  0  0
 24 23  1  0  0  0  0
 25 24  1  0  0  0  0
 26 25  1  0  0  0  0
 27 26  1  0  0  0  0
 32 28  2  0  0  0  0
 33 29  1  0  0  0  0
 30 29  1  0  0  0  0
 31 30  2  0  0  0  0
 32 31  1  0  0  0  0
 33 32  1  0  0  0  0
  2  1  1  0  0  0  0
  2  3  1  0  0  0  0
  3  4  1  0  0  0  0
  4  5  1  0  0  0  0
  1  5  1  0  0  0  0
  5  6  2  0  0  0  0
  4  7  1  6  0  0  0
  2 34  1  1  0  0  0
 17 35  1  6  0  0  0
M  END
>  <cdx:fragmentId>
149211

$$$$
