256887.cdx
  Mrv1902 05222410282D          

 43 47  0  0  0  0            999 V2000
    7.6360   -7.0537    0.0000 C   0  0  0  0  0  0  0  0  0  0  0  0
    7.6381   -7.8787    0.0000 C   0  0  0  0  0  0  0  0  0  0  0  0
    6.9247   -8.2930    0.0000 C   0  0  0  0  0  0  0  0  0  0  0  0
    6.2092   -7.8823    0.0000 C   0  0  0  0  0  0  0  0  0  0  0  0
    5.4957   -8.2966    0.0000 C   0  0  0  0  0  0  0  0  0  0  0  0
    4.7802   -7.8859    0.0000 C   0  0  0  0  0  0  0  0  0  0  0  0
    4.7782   -7.0609    0.0000 C   0  0  0  0  0  0  0  0  0  0  0  0
    5.4916   -6.6466    0.0000 C   0  0  0  0  0  0  0  0  0  0  0  0
    6.2071   -7.0573    0.0000 C   0  0  0  0  0  0  0  0  0  0  0  0
    6.9205   -6.6430    0.0000 O   0  3  0  0  0  0  0  0  0  0  0  0
    8.3495   -6.6394    0.0000 C   0  0  0  0  0  0  0  0  0  0  0  0
    8.3474   -5.8144    0.0000 C   0  0  0  0  0  0  0  0  0  0  0  0
    9.0609   -5.4002    0.0000 C   0  0  0  0  0  0  0  0  0  0  0  0
    9.7764   -5.8109    0.0000 C   0  0  0  0  0  0  0  0  0  0  0  0
    9.7784   -6.6359    0.0000 C   0  0  0  0  0  0  0  0  0  0  0  0
    9.0650   -7.0501    0.0000 C   0  0  0  0  0  0  0  0  0  0  0  0
   10.4939   -7.0466    0.0000 O   0  0  0  0  0  0  0  0  0  0  0  0
   10.4898   -5.3966    0.0000 O   0  0  0  0  0  0  0  0  0  0  0  0
    9.0588   -4.5752    0.0000 O   0  0  0  0  0  0  0  0  0  0  0  0
    4.0627   -6.6501    0.0000 O   0  0  0  0  0  0  0  0  0  0  0  0
    5.4978   -9.1216    0.0000 O   0  0  0  0  0  0  0  0  0  0  0  0
    8.3536   -8.2894    0.0000 O   0  0  0  0  0  0  0  0  0  0  0  0
    8.3210  -11.5893    0.0000 O   0  0  0  0  0  0  0  0  0  0  0  0
    9.7580  -10.7784    0.0000 O   0  0  0  0  0  0  0  0  0  0  0  0
    9.7743   -9.1285    0.0000 O   0  0  0  0  0  0  0  0  0  0  0  0
    8.3455   -9.1144    0.0000 C   0  0  1  0  0  0  0  0  0  0  0  0
    9.0558   -9.5339    0.0000 C   0  0  1  0  0  0  0  0  0  0  0  0
    9.0477  -10.3589    0.0000 C   0  0  2  0  0  0  0  0  0  0  0  0
    8.3292  -10.7643    0.0000 C   0  0  1  0  0  0  0  0  0  0  0  0
    7.6188  -10.3448    0.0000 C   0  0  2  0  0  0  0  0  0  0  0  0
    7.6270   -9.5198    0.0000 O   0  0  0  0  0  0  0  0  0  0  0  0
    6.9003  -10.7502    0.0000 C   0  0  0  0  0  0  0  0  0  0  0  0
    6.1899  -10.3307    0.0000 O   0  0  0  0  0  0  0  0  0  0  0  0
    3.3322  -10.3025    0.0000 C   0  0  0  0  0  0  0  0  0  0  0  0
    3.3159  -11.9524    0.0000 O   0  0  0  0  0  0  0  0  0  0  0  0
    4.7366  -12.7914    0.0000 O   0  0  0  0  0  0  0  0  0  0  0  0
    6.1736  -11.9806    0.0000 O   0  0  0  0  0  0  0  0  0  0  0  0
    4.0426  -10.7220    0.0000 C   0  0  1  0  0  0  0  0  0  0  0  0
    4.0344  -11.5469    0.0000 C   0  0  1  0  0  0  0  0  0  0  0  0
    4.7448  -11.9665    0.0000 C   0  0  2  0  0  0  0  0  0  0  0  0
    5.4633  -11.5611    0.0000 C   0  0  2  0  0  0  0  0  0  0  0  0
    5.4714  -10.7361    0.0000 C   0  0  1  0  0  0  0  0  0  0  0  0
    4.7611  -10.3166    0.0000 O   0  0  0  0  0  0  0  0  0  0  0  0
 42 33  1  1  0  0  0
 30 32  1  1  0  0  0
 26 22  1  1  0  0  0
 29 23  1  6  0  0  0
 28 24  1  1  0  0  0
 27 25  1  6  0  0  0
 31 26  1  0  0  0  0
 27 26  1  0  0  0  0
 28 27  1  0  0  0  0
 29 28  1  0  0  0  0
 30 29  1  0  0  0  0
 31 30  1  0  0  0  0
 33 32  1  0  0  0  0
 38 34  1  6  0  0  0
 39 35  1  1  0  0  0
 40 36  1  6  0  0  0
 41 37  1  6  0  0  0
 43 38  1  0  0  0  0
 39 38  1  0  0  0  0
 40 39  1  0  0  0  0
 41 40  1  0  0  0  0
 42 41  1  0  0  0  0
 43 42  1  0  0  0  0
  1  2  1  0  0  0  0
  2  3  2  0  0  0  0
  3  4  1  0  0  0  0
  4  5  1  0  0  0  0
  5  6  2  0  0  0  0
  6  7  1  0  0  0  0
  7  8  2  0  0  0  0
  8  9  1  0  0  0  0
  4  9  2  0  0  0  0
  9 10  1  0  0  0  0
  1 10  2  0  0  0  0
 11 12  1  0  0  0  0
 12 13  2  0  0  0  0
 13 14  1  0  0  0  0
 14 15  2  0  0  0  0
 15 16  1  0  0  0  0
 11 16  2  0  0  0  0
 15 17  1  0  0  0  0
 14 18  1  0  0  0  0
 13 19  1  0  0  0  0
  1 11  1  0  0  0  0
  7 20  1  0  0  0  0
  5 21  1  0  0  0  0
 22  2  1  0  0  0  0
M  CHG  1  10   1
M  END
>  <cdx:fragmentId>
109037

$$$$
