44256981.cdx
  Mrv1902 05222410232D          

 45 49  0  0  0  0            999 V2000
    4.0531  -12.6380    0.0000 O   0  0  0  0  0  0  0  0  0  0  0  0
    4.7676  -12.2255    0.0000 C   0  0  2  0  0  0  0  0  0  0  0  0
    4.7676  -11.4005    0.0000 C   0  0  0  0  0  0  0  0  0  0  0  0
    4.0531  -10.9880    0.0000 C   0  0  2  0  0  0  0  0  0  0  0  0
    3.3387  -11.4005    0.0000 C   0  0  2  0  0  0  0  0  0  0  0  0
    3.3387  -12.2255    0.0000 C   0  0  0  0  0  0  0  0  0  0  0  0
    5.4821  -10.9880    0.0000 O   0  0  0  0  0  0  0  0  0  0  0  0
    4.0531  -10.1630    0.0000 O   0  0  0  0  0  0  0  0  0  0  0  0
    2.6242  -10.9880    0.0000 O   0  0  0  0  0  0  0  0  0  0  0  0
    2.6242  -12.6380    0.0000 C   0  0  0  0  0  0  0  0  0  0  0  0
    5.4821  -12.6380    0.0000 O   0  0  0  0  0  0  0  0  0  0  0  0
    6.1965  -12.2255    0.0000 C   0  0  0  0  0  0  0  0  0  0  0  0
    6.9110  -13.4630    0.0000 O   0  0  0  0  0  0  0  0  0  0  0  0
    6.9110  -12.6380    0.0000 C   0  0  0  0  0  0  0  0  0  0  0  0
    7.6255  -12.2255    0.0000 C   0  0  2  0  0  0  0  0  0  0  0  0
    8.3400  -12.6380    0.0000 C   0  0  0  0  0  0  0  0  0  0  0  0
    8.3400  -13.4630    0.0000 C   0  0  0  0  0  0  0  0  0  0  0  0
    7.6255  -13.8755    0.0000 C   0  0  1  0  0  0  0  0  0  0  0  0
    9.0544  -13.8755    0.0000 O   0  0  0  0  0  0  0  0  0  0  0  0
    9.0544  -12.2255    0.0000 O   0  0  0  0  0  0  0  0  0  0  0  0
    7.6255  -11.4005    0.0000 O   0  0  0  0  0  0  0  0  0  0  0  0
    7.6255  -14.7005    0.0000 O   0  0  0  0  0  0  0  0  0  0  0  0
    8.3400  -15.9380    0.0000 C   0  0  0  0  0  0  0  0  0  0  0  0
    8.3400  -15.1130    0.0000 C   0  3  0  0  0  0  0  0  0  0  0  0
    9.0544  -14.7005    0.0000 C   0  0  0  0  0  0  0  0  0  0  0  0
    9.7689  -15.1130    0.0000 C   0  0  0  0  0  0  0  0  0  0  0  0
   10.4834  -14.7005    0.0000 C   0  0  0  0  0  0  0  0  0  0  0  0
   11.1978  -15.1130    0.0000 C   0  0  0  0  0  0  0  0  0  0  0  0
   11.1978  -15.9380    0.0000 C   0  0  0  0  0  0  0  0  0  0  0  0
   10.4834  -16.3505    0.0000 C   0  0  0  0  0  0  0  0  0  0  0  0
    9.7689  -15.9380    0.0000 C   0  0  0  0  0  0  0  0  0  0  0  0
    9.0544  -16.3505    0.0000 O   0  0  0  0  0  0  0  0  0  0  0  0
    7.6255  -16.3505    0.0000 C   0  0  0  0  0  0  0  0  0  0  0  0
    7.6255  -17.1755    0.0000 C   0  0  0  0  0  0  0  0  0  0  0  0
    6.9110  -17.5880    0.0000 C   0  0  0  0  0  0  0  0  0  0  0  0
    6.1965  -17.1755    0.0000 C   0  0  0  0  0  0  0  0  0  0  0  0
    6.1965  -16.3505    0.0000 C   0  0  0  0  0  0  0  0  0  0  0  0
    6.9110  -15.9380    0.0000 C   0  0  0  0  0  0  0  0  0  0  0  0
    5.4821  -15.9380    0.0000 O   0  0  0  0  0  0  0  0  0  0  0  0
    4.7676  -16.3505    0.0000 C   0  0  0  0  0  0  0  0  0  0  0  0
    6.9110  -18.4130    0.0000 O   0  0  0  0  0  0  0  0  0  0  0  0
    6.1965  -18.8255    0.0000 C   0  0  0  0  0  0  0  0  0  0  0  0
    5.4821  -17.5880    0.0000 O   0  0  0  0  0  0  0  0  0  0  0  0
   11.9123  -16.3505    0.0000 O   0  0  0  0  0  0  0  0  0  0  0  0
   10.4834  -13.8755    0.0000 O   0  0  0  0  0  0  0  0  0  0  0  0
  1  2  1  0  0  0  0
  2  3  1  0  0  0  0
  3  4  1  0  0  0  0
  4  5  1  0  0  0  0
  5  6  1  0  0  0  0
  1  6  1  0  0  0  0
  3  7  1  0  0  0  0
  4  8  1  6  0  0  0
  5  9  1  6  0  0  0
  6 10  1  0  0  0  0
 11 12  1  0  0  0  0
 13 14  1  0  0  0  0
 14 15  1  0  0  0  0
 15 16  1  0  0  0  0
 16 17  1  0  0  0  0
 17 18  1  0  0  0  0
 13 18  1  0  0  0  0
 17 19  1  0  0  0  0
 16 20  1  0  0  0  0
 15 21  1  1  0  0  0
 23 24  1  0  0  0  0
 24 25  1  0  0  0  0
 25 26  1  0  0  0  0
 26 27  1  0  0  0  0
 27 28  2  0  0  0  0
 28 29  1  0  0  0  0
 29 30  2  0  0  0  0
 30 31  1  0  0  0  0
 26 31  2  0  0  0  0
 31 32  1  0  0  0  0
 23 32  1  0  0  0  0
 33 34  1  0  0  0  0
 34 35  2  0  0  0  0
 35 36  1  0  0  0  0
 36 37  2  0  0  0  0
 37 38  1  0  0  0  0
 33 38  2  0  0  0  0
 39 40  1  0  0  0  0
 37 39  1  0  0  0  0
 41 42  1  0  0  0  0
 35 41  1  0  0  0  0
 36 43  1  0  0  0  0
 23 33  1  0  0  0  0
 29 44  1  0  0  0  0
 27 45  1  0  0  0  0
 22 24  1  0  0  0  0
 18 22  1  1  0  0  0
 12 14  1  0  0  0  0
  2 11  1  6  0  0  0
M  CHG  1  24   1
M  END
>  <cdx:groupId>
154274

>  <cdx:fragmentId>
154202

$$$$
