44256957.cdx
  Mrv1902 05222410232D          

 44 48  0  0  0  0            999 V2000
    3.9805   -5.6919    0.0000 O   0  0  0  0  0  0  0  0  0  0  0  0
    4.6950   -5.2794    0.0000 C   0  0  2  0  0  0  0  0  0  0  0  0
    4.6950   -4.4544    0.0000 C   0  0  1  0  0  0  0  0  0  0  0  0
    3.9805   -4.0419    0.0000 C   0  0  1  0  0  0  0  0  0  0  0  0
    3.2661   -4.4544    0.0000 C   0  0  2  0  0  0  0  0  0  0  0  0
    3.2661   -5.2794    0.0000 C   0  0  2  0  0  0  0  0  0  0  0  0
    5.4095   -4.0419    0.0000 O   0  0  0  0  0  0  0  0  0  0  0  0
    3.9805   -3.2169    0.0000 O   0  0  0  0  0  0  0  0  0  0  0  0
    2.5516   -4.0419    0.0000 O   0  0  0  0  0  0  0  0  0  0  0  0
    2.5516   -5.6919    0.0000 C   0  0  0  0  0  0  0  0  0  0  0  0
    5.4095   -5.6919    0.0000 O   0  0  0  0  0  0  0  0  0  0  0  0
    6.1239   -5.2794    0.0000 C   0  0  0  0  0  0  0  0  0  0  0  0
    6.8384   -6.5169    0.0000 O   0  0  0  0  0  0  0  0  0  0  0  0
    6.8384   -5.6919    0.0000 C   0  0  1  0  0  0  0  0  0  0  0  0
    7.5529   -5.2794    0.0000 C   0  0  2  0  0  0  0  0  0  0  0  0
    8.2674   -5.6919    0.0000 C   0  0  1  0  0  0  0  0  0  0  0  0
    8.2674   -6.5169    0.0000 C   0  0  2  0  0  0  0  0  0  0  0  0
    7.5529   -6.9294    0.0000 C   0  0  1  0  0  0  0  0  0  0  0  0
    8.9818   -6.9294    0.0000 O   0  0  0  0  0  0  0  0  0  0  0  0
    8.9818   -5.2794    0.0000 O   0  0  0  0  0  0  0  0  0  0  0  0
    7.5529   -4.4544    0.0000 O   0  0  0  0  0  0  0  0  0  0  0  0
    7.5529   -7.7544    0.0000 O   0  0  0  0  0  0  0  0  0  0  0  0
    8.2674   -8.9919    0.0000 C   0  0  0  0  0  0  0  0  0  0  0  0
    8.2674   -8.1669    0.0000 C   0  3  0  0  0  0  0  0  0  0  0  0
    8.9818   -7.7544    0.0000 C   0  0  0  0  0  0  0  0  0  0  0  0
    9.6963   -8.1669    0.0000 C   0  0  0  0  0  0  0  0  0  0  0  0
   10.4108   -7.7544    0.0000 C   0  0  0  0  0  0  0  0  0  0  0  0
   11.1252   -8.1669    0.0000 C   0  0  0  0  0  0  0  0  0  0  0  0
   11.1252   -8.9919    0.0000 C   0  0  0  0  0  0  0  0  0  0  0  0
   10.4108   -9.4044    0.0000 C   0  0  0  0  0  0  0  0  0  0  0  0
    9.6963   -8.9919    0.0000 C   0  0  0  0  0  0  0  0  0  0  0  0
    8.9818   -9.4044    0.0000 O   0  0  0  0  0  0  0  0  0  0  0  0
   11.8397   -9.4044    0.0000 O   0  0  0  0  0  0  0  0  0  0  0  0
   10.4108   -6.9294    0.0000 O   0  0  0  0  0  0  0  0  0  0  0  0
    7.5529   -9.4044    0.0000 C   0  0  0  0  0  0  0  0  0  0  0  0
    7.5529  -10.2294    0.0000 C   0  0  0  0  0  0  0  0  0  0  0  0
    6.8384  -10.6419    0.0000 C   0  0  0  0  0  0  0  0  0  0  0  0
    6.1239  -10.2294    0.0000 C   0  0  0  0  0  0  0  0  0  0  0  0
    6.1239   -9.4044    0.0000 C   0  0  0  0  0  0  0  0  0  0  0  0
    6.8384   -8.9919    0.0000 C   0  0  0  0  0  0  0  0  0  0  0  0
    5.4095   -8.9919    0.0000 O   0  0  0  0  0  0  0  0  0  0  0  0
    4.6950   -9.4044    0.0000 C   0  0  0  0  0  0  0  0  0  0  0  0
    5.4095  -10.6419    0.0000 O   0  0  0  0  0  0  0  0  0  0  0  0
    6.8384  -11.4669    0.0000 O   0  0  0  0  0  0  0  0  0  0  0  0
  1  2  1  0  0  0  0
  2  3  1  0  0  0  0
  3  4  1  0  0  0  0
  4  5  1  0  0  0  0
  5  6  1  0  0  0  0
  1  6  1  0  0  0  0
  3  7  1  1  0  0  0
  4  8  1  1  0  0  0
  5  9  1  6  0  0  0
  6 10  1  1  0  0  0
 11 12  1  0  0  0  0
 13 14  1  0  0  0  0
 14 15  1  0  0  0  0
 15 16  1  0  0  0  0
 16 17  1  0  0  0  0
 17 18  1  0  0  0  0
 13 18  1  0  0  0  0
 17 19  1  1  0  0  0
 16 20  1  6  0  0  0
 15 21  1  1  0  0  0
 23 24  1  0  0  0  0
 24 25  1  0  0  0  0
 25 26  1  0  0  0  0
 26 27  1  0  0  0  0
 27 28  2  0  0  0  0
 28 29  1  0  0  0  0
 29 30  2  0  0  0  0
 30 31  1  0  0  0  0
 26 31  2  0  0  0  0
 31 32  1  0  0  0  0
 23 32  1  0  0  0  0
 29 33  1  0  0  0  0
 27 34  1  0  0  0  0
 35 36  1  0  0  0  0
 36 37  2  0  0  0  0
 37 38  1  0  0  0  0
 38 39  2  0  0  0  0
 39 40  1  0  0  0  0
 35 40  2  0  0  0  0
 41 42  1  0  0  0  0
 39 41  1  0  0  0  0
 38 43  1  0  0  0  0
 37 44  1  0  0  0  0
 23 35  1  0  0  0  0
 22 24  1  0  0  0  0
 18 22  1  1  0  0  0
 14 12  1  6  0  0  0
  2 11  1  6  0  0  0
M  CHG  1  24   1
M  END
>  <cdx:groupId>
1013

>  <cdx:fragmentId>
924

$$$$
