257.cdx
  Mrv1902 05222410272D          

 33 36  0  0  0  0            999 V2000
    3.6694   -9.6660    0.0000 C   0  0  0  0  0  0  0  0  0  0  0  0
    3.6694  -10.4910    0.0000 C   0  0  1  0  0  0  0  0  0  0  0  0
    4.3839  -10.9035    0.0000 C   0  0  0  0  0  0  0  0  0  0  0  0
    5.0984  -10.4910    0.0000 C   0  0  0  0  0  0  0  0  0  0  0  0
    5.0984   -9.6660    0.0000 C   0  0  2  0  0  0  0  0  0  0  0  0
    4.3839   -9.2535    0.0000 C   0  0  0  0  0  0  0  0  0  0  0  0
    5.8128  -10.9035    0.0000 C   0  0  0  0  0  0  0  0  0  0  0  0
    6.5273  -10.4910    0.0000 C   0  0  1  0  0  0  0  0  0  0  0  0
    6.5273   -9.6660    0.0000 C   0  0  2  0  0  0  0  0  0  0  0  0
    5.8128   -9.2535    0.0000 C   0  0  2  0  0  0  0  0  0  0  0  0
    7.2418   -9.2535    0.0000 C   0  0  1  0  0  0  0  0  0  0  0  0
    7.2418   -8.4285    0.0000 C   0  0  2  0  0  0  0  0  0  0  0  0
    6.5273   -8.0160    0.0000 C   0  0  0  0  0  0  0  0  0  0  0  0
    5.8128   -8.4285    0.0000 C   0  0  0  0  0  0  0  0  0  0  0  0
    8.0264   -9.5084    0.0000 C   0  0  0  0  0  0  0  0  0  0  0  0
    8.5113   -8.8410    0.0000 C   0  0  0  0  0  0  0  0  0  0  0  0
    8.0264   -8.1736    0.0000 C   0  0  2  0  0  0  0  0  0  0  0  0
    2.9549  -10.9035    0.0000 O   0  0  0  0  0  0  0  0  0  0  0  0
    5.0984   -8.8410    0.0000 C   0  0  0  0  0  0  0  0  0  0  0  0
    7.2418   -7.6035    0.0000 C   0  0  0  0  0  0  0  0  0  0  0  0
    8.4389   -7.4591    0.0000 C   0  0  2  0  0  0  0  0  0  0  0  0
    8.0264   -6.7446    0.0000 C   0  0  0  0  0  0  0  0  0  0  0  0
   10.5014   -5.3157    0.0000 C   0  0  0  0  0  0  0  0  0  0  0  0
   11.7389   -6.0302    0.0000 C   0  0  0  0  0  0  0  0  0  0  0  0
   10.9139   -6.0302    0.0000 C   0  0  0  0  0  0  0  0  0  0  0  0
   10.5014   -6.7446    0.0000 C   0  0  0  0  0  0  0  0  0  0  0  0
    5.8128  -10.0785    0.0000 H   0  0  0  0  0  0  0  0  0  0  0  0
    7.2418  -10.0785    0.0000 H   0  0  0  0  0  0  0  0  0  0  0  0
    8.8514   -8.1736    0.0000 H   0  0  0  0  0  0  0  0  0  0  0  0
    6.5273   -8.8410    0.0000 H   0  0  0  0  0  0  0  0  0  0  0  0
    7.2418  -10.9035    0.0000 O   0  0  0  0  0  0  0  0  0  0  0  0
    9.6764   -6.7446    0.0000 C   0  0  0  0  0  0  0  0  0  0  0  0
    9.2639   -7.4591    0.0000 C   0  0  0  0  0  0  0  0  0  0  0  0
  1  2  1  0  0  0  0
  2  3  1  0  0  0  0
  3  4  1  0  0  0  0
  4  5  1  0  0  0  0
  5  6  1  0  0  0  0
  6  1  1  0  0  0  0
  4  7  2  0  0  0  0
  7  8  1  0  0  0  0
  8  9  1  0  0  0  0
  9 10  1  0  0  0  0
 10  5  1  0  0  0  0
  9 11  1  0  0  0  0
 11 12  1  0  0  0  0
 12 13  1  0  0  0  0
 13 14  1  0  0  0  0
 14 10  1  0  0  0  0
 11 15  1  0  0  0  0
 15 16  1  0  0  0  0
 16 17  1  0  0  0  0
 17 12  1  0  0  0  0
  2 18  1  1  0  0  0
  5 19  1  1  0  0  0
 12 20  1  1  0  0  0
 17 21  1  0  0  0  0
 21 22  1  6  0  0  0
 25 23  1  0  0  0  0
 21 33  1  0  0  0  0
 25 24  1  0  0  0  0
 26 25  1  0  0  0  0
 32 26  1  0  0  0  0
 33 32  1  0  0  0  0
 10 27  1  6  0  0  0
 11 28  1  6  0  0  0
 17 29  1  6  0  0  0
  9 30  1  1  0  0  0
  8 31  1  1  0  0  0
M  END
>  <cdx:fragmentId>
5

$$$$
