44257224.cdx
  Mrv1902 05222410272D          

 40 44  0  0  0  0            999 V2000
   10.6329  -14.4452    0.0000 C   0  0  0  0  0  0  0  0  0  0  0  0
   10.6329  -13.6202    0.0000 C   0  0  0  0  0  0  0  0  0  0  0  0
    9.9184  -13.2077    0.0000 C   0  0  0  0  0  0  0  0  0  0  0  0
    9.2039  -13.6202    0.0000 C   0  0  0  0  0  0  0  0  0  0  0  0
    8.4894  -13.2077    0.0000 C   0  0  0  0  0  0  0  0  0  0  0  0
    7.7750  -13.6202    0.0000 C   0  0  0  0  0  0  0  0  0  0  0  0
    7.7750  -14.4452    0.0000 C   0  0  0  0  0  0  0  0  0  0  0  0
    8.4894  -14.8577    0.0000 C   0  0  0  0  0  0  0  0  0  0  0  0
    9.2039  -14.4452    0.0000 C   0  0  0  0  0  0  0  0  0  0  0  0
    9.9184  -14.8577    0.0000 O   0  0  0  0  0  0  0  0  0  0  0  0
    9.9184  -12.3827    0.0000 O   0  0  0  0  0  0  0  0  0  0  0  0
    7.0605  -14.8577    0.0000 O   0  0  0  0  0  0  0  0  0  0  0  0
    5.6316  -14.8577    0.0000 O   0  0  0  0  0  0  0  0  0  0  0  0
    6.3460  -14.4452    0.0000 C   0  0  2  0  0  0  0  0  0  0  0  0
    6.3460  -13.6202    0.0000 C   0  0  0  0  0  0  0  0  0  0  0  0
    5.6316  -13.2077    0.0000 C   0  0  2  0  0  0  0  0  0  0  0  0
    4.9171  -13.6202    0.0000 C   0  0  1  0  0  0  0  0  0  0  0  0
    4.9171  -14.4452    0.0000 C   0  0  0  0  0  0  0  0  0  0  0  0
    4.2026  -14.8577    0.0000 C   0  0  0  0  0  0  0  0  0  0  0  0
    3.4881  -14.4452    0.0000 O   0  0  0  0  0  0  0  0  0  0  0  0
    2.0592  -14.4452    0.0000 O   0  0  0  0  0  0  0  0  0  0  0  0
    2.7737  -14.8577    0.0000 C   0  0  2  0  0  0  0  0  0  0  0  0
    2.7737  -15.6827    0.0000 C   0  0  0  0  0  0  0  0  0  0  0  0
    2.0592  -16.0952    0.0000 C   0  0  2  0  0  0  0  0  0  0  0  0
    1.3447  -15.6827    0.0000 C   0  0  1  0  0  0  0  0  0  0  0  0
    1.3447  -14.8577    0.0000 C   0  0  0  0  0  0  0  0  0  0  0  0
    0.6303  -16.0952    0.0000 O   0  0  0  0  0  0  0  0  0  0  0  0
    2.0592  -16.9202    0.0000 O   0  0  0  0  0  0  0  0  0  0  0  0
    3.4881  -16.0952    0.0000 O   0  0  0  0  0  0  0  0  0  0  0  0
    4.2026  -13.2077    0.0000 O   0  0  0  0  0  0  0  0  0  0  0  0
    5.6316  -12.3827    0.0000 O   0  0  0  0  0  0  0  0  0  0  0  0
    7.0605  -13.2077    0.0000 O   0  0  0  0  0  0  0  0  0  0  0  0
   11.3473  -13.2077    0.0000 C   0  0  0  0  0  0  0  0  0  0  0  0
   11.3473  -12.3827    0.0000 C   0  0  0  0  0  0  0  0  0  0  0  0
   12.0618  -11.9702    0.0000 C   0  0  0  0  0  0  0  0  0  0  0  0
   12.7763  -12.3827    0.0000 C   0  0  0  0  0  0  0  0  0  0  0  0
   12.7763  -13.2077    0.0000 C   0  0  0  0  0  0  0  0  0  0  0  0
   12.0618  -13.6202    0.0000 C   0  0  0  0  0  0  0  0  0  0  0  0
   13.4907  -11.9702    0.0000 O   0  0  0  0  0  0  0  0  0  0  0  0
   14.2052  -12.3827    0.0000 C   0  0  0  0  0  0  0  0  0  0  0  0
  1  2  2  0  0  0  0
  2  3  1  0  0  0  0
  3  4  1  0  0  0  0
  4  5  1  0  0  0  0
  5  6  2  0  0  0  0
  6  7  1  0  0  0  0
  7  8  2  0  0  0  0
  8  9  1  0  0  0  0
  4  9  2  0  0  0  0
  9 10  1  0  0  0  0
  1 10  1  0  0  0  0
  3 11  2  0  0  0  0
 13 14  1  0  0  0  0
 14 15  1  0  0  0  0
 15 16  1  0  0  0  0
 16 17  1  0  0  0  0
 17 18  1  0  0  0  0
 13 18  1  0  0  0  0
 21 22  1  0  0  0  0
 22 23  1  0  0  0  0
 23 24  1  0  0  0  0
 24 25  1  0  0  0  0
 25 26  1  0  0  0  0
 21 26  1  0  0  0  0
 25 27  1  6  0  0  0
 24 28  1  1  0  0  0
 23 29  1  0  0  0  0
 22 20  1  1  0  0  0
 19 20  1  0  0  0  0
 18 19  1  0  0  0  0
 17 30  1  1  0  0  0
 16 31  1  6  0  0  0
 15 32  1  0  0  0  0
 14 12  1  6  0  0  0
  7 12  1  0  0  0  0
 33 34  1  0  0  0  0
 34 35  2  0  0  0  0
 35 36  1  0  0  0  0
 36 37  2  0  0  0  0
 37 38  1  0  0  0  0
 33 38  2  0  0  0  0
 39 40  1  0  0  0  0
 36 39  1  0  0  0  0
  2 33  1  0  0  0  0
M  END
>  <cdx:groupId>
154517

>  <cdx:fragmentId>
154436

$$$$
