44257274.cdx
  Mrv1902 05222410212D          

 34 37  0  0  0  0            999 V2000
    2.1175  -15.4764    0.0000 C   0  0  0  0  0  0  0  0  0  0  0  0
    1.4030  -15.0639    0.0000 C   0  0  0  0  0  0  0  0  0  0  0  0
    2.1175  -16.3014    0.0000 O   0  0  0  0  0  0  0  0  0  0  0  0
    2.8319  -15.0639    0.0000 O   0  0  0  0  0  0  0  0  0  0  0  0
    3.5464  -15.4764    0.0000 C   0  0  0  0  0  0  0  0  0  0  0  0
    4.9754  -15.4764    0.0000 O   0  0  0  0  0  0  0  0  0  0  0  0
    4.2609  -15.0639    0.0000 C   0  0  0  0  0  0  0  0  0  0  0  0
    4.2609  -14.2389    0.0000 C   0  0  2  0  0  0  0  0  0  0  0  0
    4.9754  -13.8264    0.0000 C   0  0  1  0  0  0  0  0  0  0  0  0
    5.6898  -14.2389    0.0000 C   0  0  0  0  0  0  0  0  0  0  0  0
    5.6898  -15.0639    0.0000 C   0  0  2  0  0  0  0  0  0  0  0  0
    6.4043  -15.4764    0.0000 O   0  0  0  0  0  0  0  0  0  0  0  0
    9.9766  -15.0639    0.0000 C   0  0  0  0  0  0  0  0  0  0  0  0
    9.9766  -14.2389    0.0000 C   0  0  0  0  0  0  0  0  0  0  0  0
    9.2622  -13.8264    0.0000 C   0  0  0  0  0  0  0  0  0  0  0  0
    8.5477  -14.2389    0.0000 C   0  0  0  0  0  0  0  0  0  0  0  0
    7.8332  -13.8264    0.0000 C   0  0  0  0  0  0  0  0  0  0  0  0
    7.1188  -14.2389    0.0000 C   0  0  0  0  0  0  0  0  0  0  0  0
    7.1188  -15.0639    0.0000 C   0  0  0  0  0  0  0  0  0  0  0  0
    7.8332  -15.4764    0.0000 C   0  0  0  0  0  0  0  0  0  0  0  0
    8.5477  -15.0639    0.0000 C   0  0  0  0  0  0  0  0  0  0  0  0
    9.2622  -15.4764    0.0000 O   0  0  0  0  0  0  0  0  0  0  0  0
    9.2622  -13.0014    0.0000 O   0  0  0  0  0  0  0  0  0  0  0  0
   10.6911  -13.8264    0.0000 C   0  0  0  0  0  0  0  0  0  0  0  0
   10.6911  -13.0014    0.0000 C   0  0  0  0  0  0  0  0  0  0  0  0
   11.4056  -12.5889    0.0000 C   0  0  0  0  0  0  0  0  0  0  0  0
   12.1201  -13.0014    0.0000 C   0  0  0  0  0  0  0  0  0  0  0  0
   12.1201  -13.8264    0.0000 C   0  0  0  0  0  0  0  0  0  0  0  0
   11.4056  -14.2389    0.0000 C   0  0  0  0  0  0  0  0  0  0  0  0
   12.8345  -12.5889    0.0000 O   0  0  0  0  0  0  0  0  0  0  0  0
    7.8332  -13.0014    0.0000 O   0  0  0  0  0  0  0  0  0  0  0  0
    6.4043  -13.8264    0.0000 O   0  0  0  0  0  0  0  0  0  0  0  0
    4.9754  -13.0014    0.0000 O   0  0  0  0  0  0  0  0  0  0  0  0
    3.5464  -13.8264    0.0000 O   0  0  0  0  0  0  0  0  0  0  0  0
  1  2  1  0  0  0  0
  1  3  2  0  0  0  0
  1  4  1  0  0  0  0
  6  7  1  0  0  0  0
  7  8  1  0  0  0  0
  8  9  1  0  0  0  0
  9 10  1  0  0  0  0
 10 11  1  0  0  0  0
  6 11  1  0  0  0  0
 13 14  2  0  0  0  0
 14 15  1  0  0  0  0
 15 16  1  0  0  0  0
 16 17  1  0  0  0  0
 17 18  2  0  0  0  0
 18 19  1  0  0  0  0
 19 20  2  0  0  0  0
 20 21  1  0  0  0  0
 16 21  2  0  0  0  0
 21 22  1  0  0  0  0
 13 22  1  0  0  0  0
 15 23  2  0  0  0  0
 24 25  1  0  0  0  0
 25 26  2  0  0  0  0
 26 27  1  0  0  0  0
 27 28  2  0  0  0  0
 28 29  1  0  0  0  0
 24 29  2  0  0  0  0
 27 30  1  0  0  0  0
 14 24  1  0  0  0  0
 17 31  1  0  0  0  0
 12 19  1  0  0  0  0
 11 12  1  6  0  0  0
 10 32  1  0  0  0  0
  9 33  1  6  0  0  0
  8 34  1  1  0  0  0
  5  7  1  0  0  0  0
  4  5  1  0  0  0  0
M  END
>  <cdx:groupId>
154710

>  <cdx:fragmentId>
154632

$$$$
