257227.cdx
  Mrv1902 05222410282D          

 21 23  0  0  0  0            999 V2000
   10.2103   -7.3639    0.0000 C   0  0  0  0  0  0  0  0  0  0  0  0
    9.4958   -7.7764    0.0000 C   0  0  0  0  0  0  0  0  0  0  0  0
    9.4958   -8.6014    0.0000 C   0  0  0  0  0  0  0  0  0  0  0  0
    8.7814   -9.0139    0.0000 C   0  0  0  0  0  0  0  0  0  0  0  0
    8.0669   -8.6014    0.0000 C   0  0  0  0  0  0  0  0  0  0  0  0
    8.0669   -7.7764    0.0000 C   0  0  0  0  0  0  0  0  0  0  0  0
    8.7814   -7.3639    0.0000 C   0  0  0  0  0  0  0  0  0  0  0  0
   10.9248   -7.7764    0.0000 O   0  0  0  0  0  0  0  0  0  0  0  0
    7.3524   -6.5389    0.0000 C   0  0  0  0  0  0  0  0  0  0  0  0
    7.3524   -7.3639    0.0000 C   0  0  0  0  0  0  0  0  0  0  0  0
    6.6380   -7.7764    0.0000 C   0  0  0  0  0  0  0  0  0  0  0  0
    5.9235   -7.3639    0.0000 C   0  0  0  0  0  0  0  0  0  0  0  0
    5.2090   -7.7764    0.0000 C   0  0  0  0  0  0  0  0  0  0  0  0
    4.4945   -7.3639    0.0000 C   0  0  0  0  0  0  0  0  0  0  0  0
    4.4945   -6.5389    0.0000 C   0  0  0  0  0  0  0  0  0  0  0  0
    5.2090   -6.1264    0.0000 C   0  0  0  0  0  0  0  0  0  0  0  0
    5.9235   -6.5389    0.0000 C   0  0  0  0  0  0  0  0  0  0  0  0
    6.6380   -6.1264    0.0000 O   0  0  0  0  0  0  0  0  0  0  0  0
    6.6380   -8.6014    0.0000 O   0  0  0  0  0  0  0  0  0  0  0  0
    3.7801   -6.1264    0.0000 O   0  0  0  0  0  0  0  0  0  0  0  0
   10.2103   -9.0139    0.0000 O   0  0  0  0  0  0  0  0  0  0  0  0
  1  2  1  0  0  0  0
  2  3  1  0  0  0  0
  3  4  2  0  0  0  0
  4  5  1  0  0  0  0
  5  6  2  0  0  0  0
  6  7  1  0  0  0  0
  2  7  2  0  0  0  0
  1  8  2  0  0  0  0
  9 10  2  0  0  0  0
 10 11  1  0  0  0  0
 11 12  1  0  0  0  0
 12 13  1  0  0  0  0
 13 14  2  0  0  0  0
 14 15  1  0  0  0  0
 15 16  2  0  0  0  0
 16 17  1  0  0  0  0
 12 17  2  0  0  0  0
 17 18  1  0  0  0  0
  9 18  1  0  0  0  0
 11 19  2  0  0  0  0
 15 20  1  0  0  0  0
  6 10  1  0  0  0  0
  3 21  1  0  0  0  0
M  END
>  <cdx:groupId>
154598

>  <cdx:fragmentId>
154552

$$$$
