257283.cdx
  Mrv1902 05222410232D          

 26 29  0  0  0  0            999 V2000
    6.5021   -9.3439    0.0000 O   0  0  0  0  0  0  0  0  0  0  0  0
   11.5034   -9.7564    0.0000 O   0  0  0  0  0  0  0  0  0  0  0  0
   10.0745   -8.1064    0.0000 C   0  0  0  0  0  0  0  0  0  0  0  0
   10.7889   -8.5189    0.0000 C   0  0  0  0  0  0  0  0  0  0  0  0
   10.7889   -9.3439    0.0000 C   0  0  0  0  0  0  0  0  0  0  0  0
   10.0745   -9.7564    0.0000 C   0  0  0  0  0  0  0  0  0  0  0  0
    9.3600   -9.3439    0.0000 C   0  0  0  0  0  0  0  0  0  0  0  0
    9.3600   -8.5189    0.0000 C   0  0  0  0  0  0  0  0  0  0  0  0
    2.8681   -7.6939    0.0000 O   0  0  0  0  0  0  0  0  0  0  0  0
    3.6931   -6.8689    0.0000 C   0  0  0  0  0  0  0  0  0  0  0  0
    3.6931   -7.6939    0.0000 C   0  0  0  0  0  0  0  0  0  0  0  0
    3.6931   -8.5189    0.0000 C   0  0  0  0  0  0  0  0  0  0  0  0
    7.9311   -9.3439    0.0000 O   0  0  0  0  0  0  0  0  0  0  0  0
    4.5181   -7.6939    0.0000 C   0  0  0  0  0  0  0  0  0  0  0  0
    5.0030   -8.3614    0.0000 C   0  0  0  0  0  0  0  0  0  0  0  0
    5.0030   -7.0265    0.0000 O   0  0  0  0  0  0  0  0  0  0  0  0
    7.9311   -6.8689    0.0000 O   0  0  0  0  0  0  0  0  0  0  0  0
    7.2166   -7.2814    0.0000 C   0  0  0  0  0  0  0  0  0  0  0  0
    6.5021   -6.8689    0.0000 C   0  0  0  0  0  0  0  0  0  0  0  0
    5.7876   -7.2814    0.0000 C   0  0  0  0  0  0  0  0  0  0  0  0
    5.7876   -8.1064    0.0000 C   0  0  0  0  0  0  0  0  0  0  0  0
    6.5021   -8.5189    0.0000 C   0  0  0  0  0  0  0  0  0  0  0  0
    7.2166   -8.1064    0.0000 C   0  0  0  0  0  0  0  0  0  0  0  0
    7.9311   -8.5189    0.0000 C   0  0  0  0  0  0  0  0  0  0  0  0
    8.6455   -8.1064    0.0000 C   0  0  0  0  0  0  0  0  0  0  0  0
    8.6455   -7.2814    0.0000 C   0  0  0  0  0  0  0  0  0  0  0  0
 22  1  1  0  0  0  0
 25  8  1  0  0  0  0
  5  2  1  0  0  0  0
  8  3  2  0  0  0  0
  4  3  1  0  0  0  0
  5  4  2  0  0  0  0
  6  5  1  0  0  0  0
  7  6  2  0  0  0  0
  8  7  1  0  0  0  0
 14 11  1  0  0  0  0
 11  9  1  0  0  0  0
 11 10  1  0  0  0  0
 12 11  1  0  0  0  0
 24 13  2  0  0  0  0
 16 20  1  0  0  0  0
 15 21  1  0  0  0  0
 16 14  1  0  0  0  0
 15 14  1  0  0  0  0
 26 17  1  0  0  0  0
 18 17  1  0  0  0  0
 23 18  1  0  0  0  0
 19 18  2  0  0  0  0
 20 19  1  0  0  0  0
 21 20  2  0  0  0  0
 22 21  1  0  0  0  0
 23 22  2  0  0  0  0
 24 23  1  0  0  0  0
 25 24  1  0  0  0  0
 26 25  2  0  0  0  0
M  END
>  <cdx:groupId>
154804

>  <cdx:fragmentId>
154726

$$$$
