257344.cdx
  Mrv1902 05222410272D          

 34 37  0  0  0  0            999 V2000
    4.8059   -8.0960    0.0000 O   0  0  0  0  0  0  0  0  0  0  0  0
    5.5022   -6.8482    0.0000 O   0  0  0  0  0  0  0  0  0  0  0  0
    4.7938   -7.2711    0.0000 C   0  0  2  0  0  0  0  0  0  0  0  0
    4.0734   -6.8691    0.0000 C   0  0  1  0  0  0  0  0  0  0  0  0
    4.0613   -6.0442    0.0000 C   0  0  2  0  0  0  0  0  0  0  0  0
    4.7697   -5.6213    0.0000 C   0  0  1  0  0  0  0  0  0  0  0  0
    5.4901   -6.0233    0.0000 C   0  0  1  0  0  0  0  0  0  0  0  0
    6.1985   -5.6004    0.0000 C   0  0  0  0  0  0  0  0  0  0  0  0
    6.1985   -4.7754    0.0000 O   0  0  0  0  0  0  0  0  0  0  0  0
    4.7577   -4.7964    0.0000 O   0  0  0  0  0  0  0  0  0  0  0  0
    3.3409   -5.6422    0.0000 O   0  0  0  0  0  0  0  0  0  0  0  0
    3.3650   -7.2920    0.0000 O   0  0  0  0  0  0  0  0  0  0  0  0
    6.2204  -10.5793    0.0000 O   0  0  0  0  0  0  0  0  0  0  0  0
    4.0842   -9.3294    0.0000 C   0  0  0  0  0  0  0  0  0  0  0  0
    4.7963   -9.7460    0.0000 O   0  0  0  0  0  0  0  0  0  0  0  0
   11.9360  -10.6126    0.0000 C   0  0  0  0  0  0  0  0  0  0  0  0
   11.2192  -11.0209    0.0000 O   0  0  0  0  0  0  0  0  0  0  0  0
    9.7999   -9.3626    0.0000 C   0  0  0  0  0  0  0  0  0  0  0  0
   10.5119   -9.7793    0.0000 C   0  0  0  0  0  0  0  0  0  0  0  0
   10.5071  -10.6042    0.0000 C   0  0  0  0  0  0  0  0  0  0  0  0
    9.7903  -11.0126    0.0000 C   0  0  0  0  0  0  0  0  0  0  0  0
    9.0782  -10.5959    0.0000 C   0  0  0  0  0  0  0  0  0  0  0  0
    9.0830   -9.7709    0.0000 C   0  0  0  0  0  0  0  0  0  0  0  0
    7.6493  -10.5876    0.0000 O   0  0  0  0  0  0  0  0  0  0  0  0
    7.6637   -8.1127    0.0000 O   0  0  0  0  0  0  0  0  0  0  0  0
    6.9468   -8.5210    0.0000 C   0  0  0  0  0  0  0  0  0  0  0  0
    6.2348   -8.1044    0.0000 C   0  0  0  0  0  0  0  0  0  0  0  0
    5.5179   -8.5127    0.0000 C   0  0  0  0  0  0  0  0  0  0  0  0
    5.5131   -9.3377    0.0000 C   0  0  0  0  0  0  0  0  0  0  0  0
    6.2252   -9.7543    0.0000 C   0  0  0  0  0  0  0  0  0  0  0  0
    6.9420   -9.3460    0.0000 C   0  0  0  0  0  0  0  0  0  0  0  0
    7.6541   -9.7626    0.0000 C   0  0  0  0  0  0  0  0  0  0  0  0
    8.3709   -9.3543    0.0000 C   0  0  0  0  0  0  0  0  0  0  0  0
    8.3757   -8.5293    0.0000 C   0  0  0  0  0  0  0  0  0  0  0  0
 30 13  1  0  0  0  0
 29 15  1  0  0  0  0
 15 14  1  0  0  0  0
 33 23  1  0  0  0  0
 20 17  1  0  0  0  0
 17 16  1  0  0  0  0
 23 18  2  0  0  0  0
 19 18  1  0  0  0  0
 20 19  2  0  0  0  0
 21 20  1  0  0  0  0
 22 21  2  0  0  0  0
 23 22  1  0  0  0  0
 28  1  1  0  0  0  0
 32 24  2  0  0  0  0
 34 25  1  0  0  0  0
 26 25  1  0  0  0  0
 31 26  2  0  0  0  0
 27 26  1  0  0  0  0
 28 27  2  0  0  0  0
 29 28  1  0  0  0  0
 30 29  2  0  0  0  0
 31 30  1  0  0  0  0
 32 31  1  0  0  0  0
 33 32  1  0  0  0  0
 34 33  2  0  0  0  0
  2  3  1  0  0  0  0
  3  4  1  0  0  0  0
  4  5  1  0  0  0  0
  5  6  1  0  0  0  0
  6  7  1  0  0  0  0
  2  7  1  0  0  0  0
  8  9  1  0  0  0  0
  7  8  1  1  0  0  0
  6 10  1  6  0  0  0
  5 11  1  1  0  0  0
  4 12  1  6  0  0  0
  3  1  1  1  0  0  0
M  END
>  <cdx:groupId>
155028

>  <cdx:fragmentId>
154950

$$$$
