257307.cdx
  Mrv1902 05222410222D          

 33 36  0  0  0  0            999 V2000
    6.7003   -9.8505    0.0000 O   0  0  0  0  0  0  0  0  0  0  0  0
    5.2714   -7.3755    0.0000 O   0  0  0  0  0  0  0  0  0  0  0  0
   11.7016   -8.6130    0.0000 O   0  0  0  0  0  0  0  0  0  0  0  0
   12.4161   -9.8505    0.0000 C   0  0  0  0  0  0  0  0  0  0  0  0
   11.7016  -10.2630    0.0000 O   0  0  0  0  0  0  0  0  0  0  0  0
    9.5582   -9.8505    0.0000 C   0  0  0  0  0  0  0  0  0  0  0  0
   10.2727  -10.2630    0.0000 C   0  0  0  0  0  0  0  0  0  0  0  0
   10.9871   -9.8505    0.0000 C   0  0  0  0  0  0  0  0  0  0  0  0
   10.9871   -9.0255    0.0000 C   0  0  0  0  0  0  0  0  0  0  0  0
   10.2727   -8.6130    0.0000 C   0  0  0  0  0  0  0  0  0  0  0  0
    9.5582   -9.0255    0.0000 C   0  0  0  0  0  0  0  0  0  0  0  0
    8.1293   -9.8505    0.0000 O   0  0  0  0  0  0  0  0  0  0  0  0
    8.1293   -7.3755    0.0000 O   0  0  0  0  0  0  0  0  0  0  0  0
    7.4148   -7.7880    0.0000 C   0  0  0  0  0  0  0  0  0  0  0  0
    6.7003   -7.3755    0.0000 C   0  0  0  0  0  0  0  0  0  0  0  0
    5.9859   -7.7880    0.0000 C   0  0  0  0  0  0  0  0  0  0  0  0
    5.9859   -8.6130    0.0000 C   0  0  0  0  0  0  0  0  0  0  0  0
    6.7003   -9.0255    0.0000 C   0  0  0  0  0  0  0  0  0  0  0  0
    7.4148   -8.6130    0.0000 C   0  0  0  0  0  0  0  0  0  0  0  0
    8.1293   -9.0255    0.0000 C   0  0  0  0  0  0  0  0  0  0  0  0
    8.8437   -8.6130    0.0000 C   0  0  0  0  0  0  0  0  0  0  0  0
    8.8437   -7.7880    0.0000 C   0  0  0  0  0  0  0  0  0  0  0  0
    4.5569   -7.7880    0.0000 C   0  0  2  0  0  0  0  0  0  0  0  0
    3.8424   -7.3755    0.0000 O   0  0  0  0  0  0  0  0  0  0  0  0
    3.1280   -7.7880    0.0000 C   0  0  1  0  0  0  0  0  0  0  0  0
    3.1280   -8.6130    0.0000 C   0  0  2  0  0  0  0  0  0  0  0  0
    3.8424   -9.0255    0.0000 C   0  0  1  0  0  0  0  0  0  0  0  0
    4.5569   -8.6130    0.0000 C   0  0  1  0  0  0  0  0  0  0  0  0
    2.4135   -7.3755    0.0000 C   0  0  0  0  0  0  0  0  0  0  0  0
    3.8424   -9.8505    0.0000 O   0  0  0  0  0  0  0  0  0  0  0  0
    2.4135   -9.0255    0.0000 O   0  0  0  0  0  0  0  0  0  0  0  0
    5.2714   -9.0255    0.0000 O   0  0  0  0  0  0  0  0  0  0  0  0
    1.6990   -7.7880    0.0000 O   0  0  0  0  0  0  0  0  0  0  0  0
 18  1  1  0  0  0  0
 16  2  1  0  0  0  0
 21 11  1  0  0  0  0
  9  3  1  0  0  0  0
  8  5  1  0  0  0  0
  5  4  1  0  0  0  0
 11  6  2  0  0  0  0
  7  6  1  0  0  0  0
  8  7  2  0  0  0  0
  9  8  1  0  0  0  0
 10  9  2  0  0  0  0
 11 10  1  0  0  0  0
 20 12  2  0  0  0  0
 22 13  1  0  0  0  0
 14 13  1  0  0  0  0
 19 14  2  0  0  0  0
 15 14  1  0  0  0  0
 16 15  2  0  0  0  0
 17 16  1  0  0  0  0
 18 17  2  0  0  0  0
 19 18  1  0  0  0  0
 20 19  1  0  0  0  0
 21 20  1  0  0  0  0
 22 21  2  0  0  0  0
 23  2  1  1  0  0  0
 23 24  1  0  0  0  0
 24 25  1  0  0  0  0
 25 26  1  0  0  0  0
 26 27  1  0  0  0  0
 27 28  1  0  0  0  0
 28 23  1  0  0  0  0
 25 29  1  1  0  0  0
 27 30  1  1  0  0  0
 26 31  1  6  0  0  0
 28 32  1  6  0  0  0
 29 33  1  0  0  0  0
M  END
>  <cdx:fragmentId>
5

$$$$
