44257449.cdx
  Mrv1902 05222410222D          

 21 24  0  0  0  0            999 V2000
    7.8300  -15.4320    0.0000 C   0  0  0  0  0  0  0  0  0  0  0  0
    7.2780  -14.8189    0.0000 C   0  0  0  0  0  0  0  0  0  0  0  0
    7.5329  -14.0342    0.0000 C   0  0  0  0  0  0  0  0  0  0  0  0
    8.3399  -13.8627    0.0000 C   0  0  0  0  0  0  0  0  0  0  0  0
    8.5948  -13.0781    0.0000 C   0  0  0  0  0  0  0  0  0  0  0  0
    9.4018  -12.9066    0.0000 C   0  0  0  0  0  0  0  0  0  0  0  0
    9.9539  -13.5197    0.0000 C   0  0  0  0  0  0  0  0  0  0  0  0
    9.6989  -14.3043    0.0000 C   0  0  0  0  0  0  0  0  0  0  0  0
    8.8919  -14.4758    0.0000 C   0  0  0  0  0  0  0  0  0  0  0  0
    8.6370  -15.2604    0.0000 O   0  0  0  0  0  0  0  0  0  0  0  0
    6.8655  -13.5493    0.0000 O   0  0  0  0  0  0  0  0  0  0  0  0
    6.4530  -14.8189    0.0000 C   0  0  0  0  0  0  0  0  0  0  0  0
    5.9010  -15.4320    0.0000 C   0  0  0  0  0  0  0  0  0  0  0  0
    5.0940  -15.2604    0.0000 C   0  0  0  0  0  0  0  0  0  0  0  0
    4.8391  -14.4758    0.0000 C   0  0  0  0  0  0  0  0  0  0  0  0
    5.3911  -13.8627    0.0000 C   0  0  0  0  0  0  0  0  0  0  0  0
    6.1981  -14.0342    0.0000 C   0  0  0  0  0  0  0  0  0  0  0  0
   10.7608  -13.3481    0.0000 O   0  0  0  0  0  0  0  0  0  0  0  0
    4.5420  -15.8735    0.0000 O   0  0  0  0  0  0  0  0  0  0  0  0
    4.0321  -14.3043    0.0000 O   0  0  0  0  0  0  0  0  0  0  0  0
    3.4800  -14.9174    0.0000 C   0  0  0  0  0  0  0  0  0  0  0  0
  1  2  1  0  0  0  0
  2  3  1  0  0  0  0
  3  4  1  0  0  0  0
  4  5  1  0  0  0  0
  5  6  2  0  0  0  0
  6  7  1  0  0  0  0
  7  8  2  0  0  0  0
  8  9  1  0  0  0  0
  4  9  2  0  0  0  0
  9 10  1  0  0  0  0
  1 10  1  0  0  0  0
 12 13  1  0  0  0  0
 13 14  2  0  0  0  0
 14 15  1  0  0  0  0
 15 16  2  0  0  0  0
 16 17  1  0  0  0  0
 12 17  2  0  0  0  0
 11 17  1  0  0  0  0
 12  2  1  0  0  0  0
 11  3  1  0  0  0  0
  7 18  1  0  0  0  0
 14 19  1  0  0  0  0
 20 21  1  0  0  0  0
 15 20  1  0  0  0  0
M  END
>  <cdx:groupId>
155221

>  <cdx:fragmentId>
155158

$$$$
