44257531.cdx
  Mrv1902 05222410242D          

 30 33  0  0  0  0            999 V2000
    6.4090  -17.3906    0.0000 C   0  0  0  0  0  0  0  0  0  0  0  0
    5.8570  -16.7775    0.0000 C   0  0  0  0  0  0  0  0  0  0  0  0
    6.1119  -15.9929    0.0000 C   0  0  0  0  0  0  0  0  0  0  0  0
    6.9189  -15.8213    0.0000 C   0  0  0  0  0  0  0  0  0  0  0  0
    7.1738  -15.0367    0.0000 C   0  0  0  0  0  0  0  0  0  0  0  0
    7.9808  -14.8652    0.0000 C   0  0  0  0  0  0  0  0  0  0  0  0
    8.5328  -15.4783    0.0000 C   0  0  0  0  0  0  0  0  0  0  0  0
    8.2779  -16.2629    0.0000 C   0  0  0  0  0  0  0  0  0  0  0  0
    7.4709  -16.4344    0.0000 C   0  0  0  0  0  0  0  0  0  0  0  0
    7.2160  -17.2190    0.0000 O   0  0  0  0  0  0  0  0  0  0  0  0
    5.4445  -15.5079    0.0000 O   0  0  0  0  0  0  0  0  0  0  0  0
    5.0320  -16.7775    0.0000 C   0  0  0  0  0  0  0  0  0  0  0  0
    4.4799  -17.3906    0.0000 C   0  0  0  0  0  0  0  0  0  0  0  0
    3.6730  -17.2190    0.0000 C   0  0  0  0  0  0  0  0  0  0  0  0
    3.4180  -16.4344    0.0000 C   0  0  0  0  0  0  0  0  0  0  0  0
    3.9701  -15.8213    0.0000 C   0  0  0  0  0  0  0  0  0  0  0  0
    4.7770  -15.9929    0.0000 C   0  0  0  0  0  0  0  0  0  0  0  0
    6.1541  -18.1752    0.0000 O   0  0  0  0  0  0  0  0  0  0  0  0
    2.6111  -16.2629    0.0000 O   0  0  0  0  0  0  0  0  0  0  0  0
    9.3398  -15.3067    0.0000 O   0  0  0  0  0  0  0  0  0  0  0  0
    8.2357  -14.0806    0.0000 C   0  0  0  0  0  0  0  0  0  0  0  0
    9.0427  -13.9090    0.0000 C   0  0  0  0  0  0  0  0  0  0  0  0
    9.2976  -13.1244    0.0000 C   0  0  0  0  0  0  0  0  0  0  0  0
   10.1046  -12.9529    0.0000 C   0  0  0  0  0  0  0  0  0  0  0  0
   10.3596  -12.1683    0.0000 C   0  0  0  0  0  0  0  0  0  0  0  0
   11.1665  -11.9967    0.0000 C   0  0  0  0  0  0  0  0  0  0  0  0
   11.4215  -11.2121    0.0000 C   0  0  0  0  0  0  0  0  0  0  0  0
   10.8694  -10.5990    0.0000 C   0  0  0  0  0  0  0  0  0  0  0  0
   12.2284  -11.0406    0.0000 C   0  0  0  0  0  0  0  0  0  0  0  0
    8.7456  -12.5113    0.0000 C   0  0  0  0  0  0  0  0  0  0  0  0
  1  2  1  0  0  0  0
  2  3  2  0  0  0  0
  3  4  1  0  0  0  0
  4  5  1  0  0  0  0
  5  6  2  0  0  0  0
  6  7  1  0  0  0  0
  7  8  2  0  0  0  0
  8  9  1  0  0  0  0
  4  9  2  0  0  0  0
  9 10  1  0  0  0  0
  1 10  1  0  0  0  0
 12 13  1  0  0  0  0
 13 14  2  0  0  0  0
 14 15  1  0  0  0  0
 15 16  2  0  0  0  0
 16 17  1  0  0  0  0
 12 17  2  0  0  0  0
 11 17  1  0  0  0  0
 12  2  1  0  0  0  0
 11  3  1  0  0  0  0
  1 18  2  0  0  0  0
 15 19  1  0  0  0  0
  7 20  1  0  0  0  0
 21 22  1  0  0  0  0
 22 23  2  0  0  0  0
 23 24  1  0  0  0  0
 24 25  1  0  0  0  0
 25 26  1  0  0  0  0
 26 27  2  0  0  0  0
 27 28  1  0  0  0  0
 27 29  1  0  0  0  0
 23 30  1  0  0  0  0
  6 21  1  0  0  0  0
M  END
>  <cdx:groupId>
155319

>  <cdx:fragmentId>
155229

$$$$
