44257572.cdx
  Mrv1902 05222410192D          

 30 33  0  0  0  0            999 V2000
    8.6972  -12.5889    0.0000 O   0  0  0  0  0  0  0  0  0  0  0  0
    9.4151  -13.8245    0.0000 O   0  0  0  0  0  0  0  0  0  0  0  0
    9.4128  -12.9995    0.0000 C   0  0  2  0  0  0  0  0  0  0  0  0
   10.1261  -12.5850    0.0000 C   0  0  1  0  0  0  0  0  0  0  0  0
   10.8417  -12.9955    0.0000 C   0  0  2  0  0  0  0  0  0  0  0  0
   10.8440  -13.8205    0.0000 C   0  0  1  0  0  0  0  0  0  0  0  0
   10.1307  -14.2350    0.0000 C   0  0  1  0  0  0  0  0  0  0  0  0
   10.1329  -15.0600    0.0000 C   0  0  0  0  0  0  0  0  0  0  0  0
   10.8485  -15.4705    0.0000 O   0  0  0  0  0  0  0  0  0  0  0  0
   11.5596  -14.2311    0.0000 O   0  0  0  0  0  0  0  0  0  0  0  0
   11.5551  -12.5811    0.0000 O   0  0  0  0  0  0  0  0  0  0  0  0
   10.1239  -11.7600    0.0000 O   0  0  0  0  0  0  0  0  0  0  0  0
    2.2670  -13.8264    0.0000 O   0  0  0  0  0  0  0  0  0  0  0  0
    6.5538  -13.0014    0.0000 C   0  0  0  0  0  0  0  0  0  0  0  0
    7.2682  -12.5889    0.0000 C   0  0  0  0  0  0  0  0  0  0  0  0
    7.9827  -13.0014    0.0000 C   0  0  0  0  0  0  0  0  0  0  0  0
    7.9827  -13.8264    0.0000 C   0  0  0  0  0  0  0  0  0  0  0  0
    7.2682  -14.2389    0.0000 C   0  0  0  0  0  0  0  0  0  0  0  0
    6.5538  -13.8264    0.0000 C   0  0  0  0  0  0  0  0  0  0  0  0
    5.1248  -16.3014    0.0000 O   0  0  0  0  0  0  0  0  0  0  0  0
    5.1248  -13.8264    0.0000 O   0  0  0  0  0  0  0  0  0  0  0  0
    4.4104  -14.2389    0.0000 C   0  0  0  0  0  0  0  0  0  0  0  0
    3.6959  -13.8264    0.0000 C   0  0  0  0  0  0  0  0  0  0  0  0
    2.9814  -14.2389    0.0000 C   0  0  0  0  0  0  0  0  0  0  0  0
    2.9814  -15.0639    0.0000 C   0  0  0  0  0  0  0  0  0  0  0  0
    3.6959  -15.4764    0.0000 C   0  0  0  0  0  0  0  0  0  0  0  0
    4.4104  -15.0639    0.0000 C   0  0  0  0  0  0  0  0  0  0  0  0
    5.1248  -15.4764    0.0000 C   0  0  0  0  0  0  0  0  0  0  0  0
    5.8393  -15.0639    0.0000 C   0  0  0  0  0  0  0  0  0  0  0  0
    5.8393  -14.2389    0.0000 C   0  0  0  0  0  0  0  0  0  0  0  0
 24 13  1  0  0  0  0
 30 19  1  0  0  0  0
 16  1  1  0  0  0  0
 19 14  2  0  0  0  0
 15 14  1  0  0  0  0
 16 15  2  0  0  0  0
 17 16  1  0  0  0  0
 18 17  2  0  0  0  0
 19 18  1  0  0  0  0
 28 20  2  0  0  0  0
 30 21  1  0  0  0  0
 22 21  1  0  0  0  0
 27 22  2  0  0  0  0
 23 22  1  0  0  0  0
 24 23  2  0  0  0  0
 25 24  1  0  0  0  0
 26 25  2  0  0  0  0
 27 26  1  0  0  0  0
 28 27  1  0  0  0  0
 29 28  1  0  0  0  0
 30 29  2  0  0  0  0
  2  3  1  0  0  0  0
  3  4  1  0  0  0  0
  4  5  1  0  0  0  0
  5  6  1  0  0  0  0
  6  7  1  0  0  0  0
  2  7  1  0  0  0  0
  8  9  1  0  0  0  0
  7  8  1  1  0  0  0
  6 10  1  6  0  0  0
  5 11  1  1  0  0  0
  4 12  1  6  0  0  0
  3  1  1  1  0  0  0
M  END
>  <cdx:fragmentId>
155437

$$$$
