257558.cdx
  Mrv1902 05222410182D          

 20 21  0  0  0  0            999 V2000
    6.1239  -11.1911    0.0000 O   0  0  0  0  0  0  0  0  0  0  0  0
    6.8384   -9.1286    0.0000 C   0  0  0  0  0  0  0  0  0  0  0  0
    6.8384   -9.9536    0.0000 C   0  0  0  0  0  0  0  0  0  0  0  0
    6.1239  -10.3661    0.0000 C   0  0  0  0  0  0  0  0  0  0  0  0
    5.4095   -9.9536    0.0000 C   0  0  0  0  0  0  0  0  0  0  0  0
    5.4095   -9.1286    0.0000 C   0  0  0  0  0  0  0  0  0  0  0  0
    6.1239   -8.7161    0.0000 C   0  0  0  0  0  0  0  0  0  0  0  0
    4.6950   -7.8911    0.0000 C   0  0  0  0  0  0  0  0  0  0  0  0
    5.4095   -7.4786    0.0000 C   0  0  0  0  0  0  0  0  0  0  0  0
    6.1239   -7.8911    0.0000 C   0  0  0  0  0  0  0  0  0  0  0  0
    9.6963   -6.6536    0.0000 C   0  0  0  0  0  0  0  0  0  0  0  0
    8.9818   -6.2411    0.0000 O   0  0  0  0  0  0  0  0  0  0  0  0
    8.9818   -7.8911    0.0000 O   0  0  0  0  0  0  0  0  0  0  0  0
    6.1239   -6.2411    0.0000 O   0  0  0  0  0  0  0  0  0  0  0  0
    7.5529   -6.2411    0.0000 C   0  0  0  0  0  0  0  0  0  0  0  0
    8.2674   -6.6536    0.0000 C   0  0  0  0  0  0  0  0  0  0  0  0
    8.2674   -7.4786    0.0000 C   0  0  0  0  0  0  0  0  0  0  0  0
    7.5529   -7.8911    0.0000 C   0  0  0  0  0  0  0  0  0  0  0  0
    6.8384   -7.4786    0.0000 C   0  0  0  0  0  0  0  0  0  0  0  0
    6.8384   -6.6536    0.0000 C   0  0  0  0  0  0  0  0  0  0  0  0
 19 10  1  0  0  0  0
 10  7  1  0  0  0  0
  4  1  1  0  0  0  0
  7  2  2  0  0  0  0
  3  2  1  0  0  0  0
  4  3  2  0  0  0  0
  5  4  1  0  0  0  0
  6  5  2  0  0  0  0
  7  6  1  0  0  0  0
  9  8  2  0  0  0  0
 10  9  1  0  0  0  0
 16 12  1  0  0  0  0
 12 11  1  0  0  0  0
 17 13  2  0  0  0  0
 20 14  2  0  0  0  0
 20 15  1  0  0  0  0
 16 15  2  0  0  0  0
 17 16  1  0  0  0  0
 18 17  1  0  0  0  0
 19 18  2  0  0  0  0
 20 19  1  0  0  0  0
M  END
>  <cdx:fragmentId>
31

$$$$
