257526.cdx
  Mrv1902 05222410232D          

 12 12  0  0  0  0            999 V2000
    9.3392   -6.9927    0.0000 C   0  0  0  0  0  0  0  0  0  0  0  0
    8.6247   -7.4052    0.0000 C   0  0  0  0  0  0  0  0  0  0  0  0
    7.9102   -6.9927    0.0000 C   0  0  0  0  0  0  0  0  0  0  0  0
    7.1958   -7.4052    0.0000 C   0  0  0  0  0  0  0  0  0  0  0  0
    7.1958   -8.2302    0.0000 C   0  0  0  0  0  0  0  0  0  0  0  0
    7.9102   -8.6427    0.0000 C   0  0  0  0  0  0  0  0  0  0  0  0
    8.6247   -8.2302    0.0000 C   0  0  0  0  0  0  0  0  0  0  0  0
    9.3392   -6.1677    0.0000 O   0  0  0  0  0  0  0  0  0  0  0  0
   10.0536   -7.4052    0.0000 O   0  5  0  0  0  0  0  0  0  0  0  0
    6.4813   -8.6427    0.0000 C   0  0  0  0  0  0  0  0  0  0  0  0
    5.7668   -8.2302    0.0000 C   0  0  0  0  0  0  0  0  0  0  0  0
    5.0524   -8.6427    0.0000 O   0  0  0  0  0  0  0  0  0  0  0  0
  1  2  1  0  0  0  0
  2  3  1  0  0  0  0
  3  4  2  0  0  0  0
  4  5  1  0  0  0  0
  5  6  2  0  0  0  0
  6  7  1  0  0  0  0
  2  7  2  0  0  0  0
  1  8  2  0  0  0  0
  1  9  1  0  0  0  0
 10 11  1  0  0  0  0
 11 12  1  0  0  0  0
  5 10  1  0  0  0  0
M  CHG  1   9  -1
M  END
>  <cdx:groupId>
142496

>  <cdx:fragmentId>
142463

$$$$
