44257654.cdx
  Mrv1902 05222410252D          

 30 33  0  0  0  0            999 V2000
    8.5979  -15.2702    0.0000 C   0  0  0  0  0  0  0  0  0  0  0  0
    8.5979  -14.4452    0.0000 C   0  0  0  0  0  0  0  0  0  0  0  0
    7.8834  -14.0327    0.0000 C   0  0  0  0  0  0  0  0  0  0  0  0
    7.1690  -14.4452    0.0000 C   0  0  0  0  0  0  0  0  0  0  0  0
    6.4545  -14.0327    0.0000 C   0  0  0  0  0  0  0  0  0  0  0  0
    5.7400  -14.4452    0.0000 C   0  0  0  0  0  0  0  0  0  0  0  0
    5.7400  -15.2702    0.0000 C   0  0  0  0  0  0  0  0  0  0  0  0
    6.4545  -15.6827    0.0000 C   0  0  0  0  0  0  0  0  0  0  0  0
    7.1690  -15.2702    0.0000 C   0  0  0  0  0  0  0  0  0  0  0  0
    7.8834  -15.6827    0.0000 O   0  0  0  0  0  0  0  0  0  0  0  0
    7.8834  -13.2077    0.0000 O   0  0  0  0  0  0  0  0  0  0  0  0
    9.3124  -15.6827    0.0000 C   0  0  0  0  0  0  0  0  0  0  0  0
   10.0268  -15.2702    0.0000 C   0  0  0  0  0  0  0  0  0  0  0  0
   10.7413  -15.6827    0.0000 C   0  0  0  0  0  0  0  0  0  0  0  0
   10.7413  -16.5077    0.0000 C   0  0  0  0  0  0  0  0  0  0  0  0
   10.0268  -16.9202    0.0000 C   0  0  0  0  0  0  0  0  0  0  0  0
    9.3124  -16.5077    0.0000 C   0  0  0  0  0  0  0  0  0  0  0  0
   11.4558  -16.9202    0.0000 O   0  0  0  0  0  0  0  0  0  0  0  0
    5.0255  -15.6827    0.0000 O   0  0  0  0  0  0  0  0  0  0  0  0
    6.4545  -13.2077    0.0000 O   0  0  0  0  0  0  0  0  0  0  0  0
    4.3111  -14.4452    0.0000 O   0  0  0  0  0  0  0  0  0  0  0  0
    5.0255  -14.0327    0.0000 C   0  0  1  0  0  0  0  0  0  0  0  0
    5.0255  -13.2077    0.0000 C   0  0  0  0  0  0  0  0  0  0  0  0
    4.3111  -12.7952    0.0000 C   0  0  2  0  0  0  0  0  0  0  0  0
    3.5966  -13.2077    0.0000 C   0  0  0  0  0  0  0  0  0  0  0  0
    3.5966  -14.0327    0.0000 C   0  0  0  0  0  0  0  0  0  0  0  0
    2.8821  -12.7952    0.0000 O   0  0  0  0  0  0  0  0  0  0  0  0
    2.8821  -14.4452    0.0000 C   0  0  0  0  0  0  0  0  0  0  0  0
    4.3111  -11.9702    0.0000 O   0  0  0  0  0  0  0  0  0  0  0  0
    5.7400  -12.7952    0.0000 O   0  0  0  0  0  0  0  0  0  0  0  0
  1  2  2  0  0  0  0
  2  3  1  0  0  0  0
  3  4  1  0  0  0  0
  4  5  1  0  0  0  0
  5  6  2  0  0  0  0
  6  7  1  0  0  0  0
  7  8  2  0  0  0  0
  8  9  1  0  0  0  0
  4  9  2  0  0  0  0
  9 10  1  0  0  0  0
  1 10  1  0  0  0  0
  3 11  2  0  0  0  0
 12 13  1  0  0  0  0
 13 14  2  0  0  0  0
 14 15  1  0  0  0  0
 15 16  2  0  0  0  0
 16 17  1  0  0  0  0
 12 17  2  0  0  0  0
 15 18  1  0  0  0  0
  1 12  1  0  0  0  0
  7 19  1  0  0  0  0
  5 20  1  0  0  0  0
 21 22  1  0  0  0  0
 22 23  1  0  0  0  0
 23 24  1  0  0  0  0
 24 25  1  0  0  0  0
 25 26  1  0  0  0  0
 21 26  1  0  0  0  0
 25 27  2  0  0  0  0
 26 28  1  0  0  0  0
 24 29  1  6  0  0  0
 23 30  1  0  0  0  0
 22  6  1  1  0  0  0
M  END
>  <cdx:groupId>
155698

>  <cdx:fragmentId>
155608

$$$$
