257656.cdx
  Mrv1902 05222410242D          

 31 34  0  0  0  0            999 V2000
    8.6170   -6.8023    0.0000 C   0  0  0  0  0  0  0  0  0  0  0  0
    8.6170   -7.6273    0.0000 C   0  0  0  0  0  0  0  0  0  0  0  0
    7.9025   -8.0398    0.0000 C   0  0  0  0  0  0  0  0  0  0  0  0
    7.1880   -7.6273    0.0000 C   0  0  0  0  0  0  0  0  0  0  0  0
    6.4735   -8.0398    0.0000 C   0  0  0  0  0  0  0  0  0  0  0  0
    5.7591   -7.6273    0.0000 C   0  0  0  0  0  0  0  0  0  0  0  0
    5.7591   -6.8023    0.0000 C   0  0  0  0  0  0  0  0  0  0  0  0
    6.4735   -6.3898    0.0000 C   0  0  0  0  0  0  0  0  0  0  0  0
    7.1880   -6.8023    0.0000 C   0  0  0  0  0  0  0  0  0  0  0  0
    7.9025   -6.3898    0.0000 O   0  0  0  0  0  0  0  0  0  0  0  0
    7.9025   -8.8648    0.0000 O   0  0  0  0  0  0  0  0  0  0  0  0
    4.3301   -7.6273    0.0000 O   0  0  0  0  0  0  0  0  0  0  0  0
    5.0446   -8.0398    0.0000 C   0  0  2  0  0  0  0  0  0  0  0  0
    5.0446   -8.8648    0.0000 C   0  0  1  0  0  0  0  0  0  0  0  0
    4.3301   -9.2773    0.0000 C   0  0  1  0  0  0  0  0  0  0  0  0
    3.6157   -8.8648    0.0000 C   0  0  2  0  0  0  0  0  0  0  0  0
    3.6157   -8.0398    0.0000 C   0  0  2  0  0  0  0  0  0  0  0  0
    2.9012   -7.6273    0.0000 C   0  0  0  0  0  0  0  0  0  0  0  0
    2.9012   -9.2773    0.0000 O   0  0  0  0  0  0  0  0  0  0  0  0
    4.3301  -10.1023    0.0000 O   0  0  0  0  0  0  0  0  0  0  0  0
    5.7591   -9.2773    0.0000 O   0  0  0  0  0  0  0  0  0  0  0  0
    9.3314   -6.3898    0.0000 C   0  0  0  0  0  0  0  0  0  0  0  0
   10.0459   -6.8023    0.0000 C   0  0  0  0  0  0  0  0  0  0  0  0
   10.7604   -6.3898    0.0000 C   0  0  0  0  0  0  0  0  0  0  0  0
   10.7604   -5.5648    0.0000 C   0  0  0  0  0  0  0  0  0  0  0  0
   10.0459   -5.1523    0.0000 C   0  0  0  0  0  0  0  0  0  0  0  0
    9.3314   -5.5648    0.0000 C   0  0  0  0  0  0  0  0  0  0  0  0
   11.4748   -5.1523    0.0000 O   0  0  0  0  0  0  0  0  0  0  0  0
    5.0446   -6.3898    0.0000 O   0  0  0  0  0  0  0  0  0  0  0  0
    6.4735   -8.8648    0.0000 O   0  0  0  0  0  0  0  0  0  0  0  0
    5.0446   -7.2148    0.0000 H   0  0  0  0  0  0  0  0  0  0  0  0
  1  2  2  0  0  0  0
  2  3  1  0  0  0  0
  3  4  1  0  0  0  0
  4  5  1  0  0  0  0
  5  6  2  0  0  0  0
  6  7  1  0  0  0  0
  7  8  2  0  0  0  0
  8  9  1  0  0  0  0
  4  9  2  0  0  0  0
  9 10  1  0  0  0  0
  1 10  1  0  0  0  0
  3 11  2  0  0  0  0
 12 13  1  0  0  0  0
 13 14  1  0  0  0  0
 14 15  1  0  0  0  0
 15 16  1  0  0  0  0
 16 17  1  0  0  0  0
 12 17  1  0  0  0  0
 17 18  1  6  0  0  0
 16 19  1  1  0  0  0
 15 20  1  6  0  0  0
 14 21  1  6  0  0  0
 13  6  1  0  0  0  0
 22 23  1  0  0  0  0
 23 24  2  0  0  0  0
 24 25  1  0  0  0  0
 25 26  2  0  0  0  0
 26 27  1  0  0  0  0
 22 27  2  0  0  0  0
 25 28  1  0  0  0  0
  1 22  1  0  0  0  0
  7 29  1  0  0  0  0
  5 30  1  0  0  0  0
 13 31  1  6  0  0  0
M  END
>  <cdx:fragmentId>
155708

$$$$
