44257872.cdx
  Mrv1902 05222410252D          

 32 35  0  0  0  0            999 V2000
    7.7750  -13.6202    0.0000 C   0  0  0  0  0  0  0  0  0  0  0  0
    7.7750  -12.7952    0.0000 C   0  0  0  0  0  0  0  0  0  0  0  0
    7.0605  -12.3827    0.0000 C   0  0  0  0  0  0  0  0  0  0  0  0
    6.3460  -12.7952    0.0000 C   0  0  0  0  0  0  0  0  0  0  0  0
    5.6316  -12.3827    0.0000 C   0  0  0  0  0  0  0  0  0  0  0  0
    4.9171  -12.7952    0.0000 C   0  0  0  0  0  0  0  0  0  0  0  0
    4.9171  -13.6202    0.0000 C   0  0  0  0  0  0  0  0  0  0  0  0
    5.6316  -14.0327    0.0000 C   0  0  0  0  0  0  0  0  0  0  0  0
    6.3460  -13.6202    0.0000 C   0  0  0  0  0  0  0  0  0  0  0  0
    7.0605  -14.0327    0.0000 O   0  0  0  0  0  0  0  0  0  0  0  0
    7.0605  -11.5577    0.0000 O   0  0  0  0  0  0  0  0  0  0  0  0
    4.9171  -15.2702    0.0000 O   0  0  0  0  0  0  0  0  0  0  0  0
    5.6316  -14.8577    0.0000 C   0  0  2  0  0  0  0  0  0  0  0  0
    6.3460  -15.2702    0.0000 C   0  0  0  0  0  0  0  0  0  0  0  0
    6.3460  -16.0952    0.0000 C   0  0  2  0  0  0  0  0  0  0  0  0
    5.6316  -16.5077    0.0000 C   0  0  1  0  0  0  0  0  0  0  0  0
    4.9171  -16.0952    0.0000 C   0  0  0  0  0  0  0  0  0  0  0  0
    4.2026  -16.5077    0.0000 C   0  0  0  0  0  0  0  0  0  0  0  0
    3.4881  -16.0952    0.0000 O   0  0  0  0  0  0  0  0  0  0  0  0
    5.6316  -17.3327    0.0000 O   0  0  0  0  0  0  0  0  0  0  0  0
    7.0605  -16.5077    0.0000 O   0  0  0  0  0  0  0  0  0  0  0  0
    7.0605  -14.8577    0.0000 O   0  0  0  0  0  0  0  0  0  0  0  0
    8.4894  -14.0327    0.0000 C   0  0  0  0  0  0  0  0  0  0  0  0
    9.2039  -13.6202    0.0000 C   0  0  0  0  0  0  0  0  0  0  0  0
    9.9184  -14.0327    0.0000 C   0  0  0  0  0  0  0  0  0  0  0  0
    9.9184  -14.8577    0.0000 C   0  0  0  0  0  0  0  0  0  0  0  0
    9.2039  -15.2702    0.0000 C   0  0  0  0  0  0  0  0  0  0  0  0
    8.4894  -14.8577    0.0000 C   0  0  0  0  0  0  0  0  0  0  0  0
   10.6329  -15.2702    0.0000 O   0  0  0  0  0  0  0  0  0  0  0  0
   11.3473  -14.8577    0.0000 C   0  0  0  0  0  0  0  0  0  0  0  0
    4.2026  -14.0327    0.0000 O   0  0  0  0  0  0  0  0  0  0  0  0
    5.6316  -11.5577    0.0000 O   0  0  0  0  0  0  0  0  0  0  0  0
  1  2  2  0  0  0  0
  2  3  1  0  0  0  0
  3  4  1  0  0  0  0
  4  5  1  0  0  0  0
  5  6  2  0  0  0  0
  6  7  1  0  0  0  0
  7  8  2  0  0  0  0
  8  9  1  0  0  0  0
  4  9  2  0  0  0  0
  9 10  1  0  0  0  0
  1 10  1  0  0  0  0
  3 11  2  0  0  0  0
 12 13  1  0  0  0  0
 13 14  1  0  0  0  0
 14 15  1  0  0  0  0
 15 16  1  0  0  0  0
 16 17  1  0  0  0  0
 12 17  1  0  0  0  0
 18 19  1  0  0  0  0
 17 18  1  0  0  0  0
 16 20  1  6  0  0  0
 15 21  1  1  0  0  0
 14 22  1  0  0  0  0
 13  8  1  1  0  0  0
 23 24  1  0  0  0  0
 24 25  2  0  0  0  0
 25 26  1  0  0  0  0
 26 27  2  0  0  0  0
 27 28  1  0  0  0  0
 23 28  2  0  0  0  0
 29 30  1  0  0  0  0
 26 29  1  0  0  0  0
  1 23  1  0  0  0  0
  7 31  1  0  0  0  0
  5 32  1  0  0  0  0
M  END
>  <cdx:groupId>
155902

>  <cdx:fragmentId>
155806

$$$$
