257901.cdx
  Mrv1902 05222410242D          

 52 57  0  0  0  0            999 V2000
    7.3964   -6.0735    0.0000 O   0  0  0  0  0  0  0  0  0  0  0  0
    8.8253   -6.0694    0.0000 O   0  0  0  0  0  0  0  0  0  0  0  0
    8.1096   -5.6589    0.0000 C   0  0  2  0  0  0  0  0  0  0  0  0
    8.1072   -4.8339    0.0000 C   0  0  1  0  0  0  0  0  0  0  0  0
    8.8205   -4.4194    0.0000 C   0  0  1  0  0  0  0  0  0  0  0  0
    9.5362   -4.8298    0.0000 C   0  0  2  0  0  0  0  0  0  0  0  0
    9.5386   -5.6548    0.0000 C   0  0  2  0  0  0  0  0  0  0  0  0
   10.2542   -6.0652    0.0000 C   0  0  0  0  0  0  0  0  0  0  0  0
   10.2494   -4.4152    0.0000 O   0  0  0  0  0  0  0  0  0  0  0  0
    8.8181   -3.5944    0.0000 O   0  0  0  0  0  0  0  0  0  0  0  0
    7.3915   -4.4235    0.0000 O   0  0  0  0  0  0  0  0  0  0  0  0
    4.5392   -6.9010    0.0000 O   0  0  0  0  0  0  0  0  0  0  0  0
    5.9674   -6.0748    0.0000 O   0  0  0  0  0  0  0  0  0  0  0  0
    7.3971   -6.8985    0.0000 C   0  0  0  0  0  0  0  0  0  0  0  0
    6.6830   -7.3116    0.0000 C   0  0  2  0  0  0  0  0  0  0  0  0
    5.9681   -6.8998    0.0000 C   0  0  2  0  0  0  0  0  0  0  0  0
    5.2540   -7.3129    0.0000 C   0  0  1  0  0  0  0  0  0  0  0  0
    5.2547   -8.1379    0.0000 C   0  0  2  0  0  0  0  0  0  0  0  0
    5.9695   -8.5498    0.0000 C   0  0  1  0  0  0  0  0  0  0  0  0
    6.6837   -8.1366    0.0000 O   0  0  0  0  0  0  0  0  0  0  0  0
    5.9703   -9.3747    0.0000 O   0  0  0  0  0  0  0  0  0  0  0  0
    7.3992  -11.8497    0.0000 O   0  0  0  0  0  0  0  0  0  0  0  0
   13.1150   -8.5497    0.0000 C   0  0  0  0  0  0  0  0  0  0  0  0
   12.4005   -8.1372    0.0000 O   0  0  0  0  0  0  0  0  0  0  0  0
   10.2571   -8.5497    0.0000 C   0  0  0  0  0  0  0  0  0  0  0  0
   10.9715   -8.1372    0.0000 C   0  0  0  0  0  0  0  0  0  0  0  0
   11.6860   -8.5497    0.0000 C   0  0  0  0  0  0  0  0  0  0  0  0
   11.6860   -9.3747    0.0000 C   0  0  0  0  0  0  0  0  0  0  0  0
   10.9715   -9.7872    0.0000 C   0  0  0  0  0  0  0  0  0  0  0  0
   10.2571   -9.3747    0.0000 C   0  0  0  0  0  0  0  0  0  0  0  0
    8.8281  -11.8497    0.0000 O   0  0  0  0  0  0  0  0  0  0  0  0
    8.8281   -9.3747    0.0000 O   0  0  0  0  0  0  0  0  0  0  0  0
    8.1137   -9.7872    0.0000 C   0  0  0  0  0  0  0  0  0  0  0  0
    7.3992   -9.3747    0.0000 C   0  0  0  0  0  0  0  0  0  0  0  0
    6.6847   -9.7872    0.0000 C   0  0  0  0  0  0  0  0  0  0  0  0
    6.6847  -10.6122    0.0000 C   0  0  0  0  0  0  0  0  0  0  0  0
    7.3992  -11.0247    0.0000 C   0  0  0  0  0  0  0  0  0  0  0  0
    8.1137  -10.6122    0.0000 C   0  0  0  0  0  0  0  0  0  0  0  0
    8.8281  -11.0247    0.0000 C   0  0  0  0  0  0  0  0  0  0  0  0
    9.5426  -10.6122    0.0000 C   0  0  0  0  0  0  0  0  0  0  0  0
    9.5426   -9.7872    0.0000 C   0  0  0  0  0  0  0  0  0  0  0  0
    4.5406   -8.5510    0.0000 O   0  0  0  0  0  0  0  0  0  0  0  0
    3.8289   -7.3346    0.0000 O   0  0  0  0  0  0  0  0  0  0  0  0
    3.8317   -8.1595    0.0000 C   0  0  2  0  0  0  0  0  0  0  0  0
    3.1187   -8.5745    0.0000 C   0  0  1  0  0  0  0  0  0  0  0  0
    2.4028   -8.1645    0.0000 C   0  0  1  0  0  0  0  0  0  0  0  0
    2.4000   -7.3395    0.0000 C   0  0  2  0  0  0  0  0  0  0  0  0
    3.1130   -6.9245    0.0000 C   0  0  2  0  0  0  0  0  0  0  0  0
    3.1101   -6.0995    0.0000 C   0  0  0  0  0  0  0  0  0  0  0  0
    1.6841   -6.9295    0.0000 O   0  0  0  0  0  0  0  0  0  0  0  0
    1.6898   -8.5795    0.0000 O   0  0  0  0  0  0  0  0  0  0  0  0
    3.1216   -9.3995    0.0000 O   0  0  0  0  0  0  0  0  0  0  0  0
 35 21  1  0  0  0  0
 19 21  1  1  0  0  0
 17 12  1  1  0  0  0
 16 13  1  6  0  0  0
 15 14  1  1  0  0  0
 14  1  1  0  0  0  0
 20 15  1  0  0  0  0
 16 15  1  0  0  0  0
 17 16  1  0  0  0  0
 18 17  1  0  0  0  0
 19 18  1  0  0  0  0
 20 19  1  0  0  0  0
 37 22  1  0  0  0  0
 41 30  1  0  0  0  0
 27 24  1  0  0  0  0
 24 23  1  0  0  0  0
 30 25  2  0  0  0  0
 26 25  1  0  0  0  0
 27 26  2  0  0  0  0
 28 27  1  0  0  0  0
 29 28  2  0  0  0  0
 30 29  1  0  0  0  0
 39 31  2  0  0  0  0
 41 32  1  0  0  0  0
 33 32  1  0  0  0  0
 38 33  2  0  0  0  0
 34 33  1  0  0  0  0
 35 34  2  0  0  0  0
 36 35  1  0  0  0  0
 37 36  2  0  0  0  0
 38 37  1  0  0  0  0
 39 38  1  0  0  0  0
 40 39  1  0  0  0  0
 41 40  2  0  0  0  0
  2  3  1  0  0  0  0
  3  4  1  0  0  0  0
  4  5  1  0  0  0  0
  5  6  1  0  0  0  0
  6  7  1  0  0  0  0
  2  7  1  0  0  0  0
  7  8  1  6  0  0  0
  6  9  1  1  0  0  0
  5 10  1  6  0  0  0
  4 11  1  6  0  0  0
  3  1  1  1  0  0  0
 18 42  1  6  0  0  0
 43 44  1  0  0  0  0
 44 45  1  0  0  0  0
 45 46  1  0  0  0  0
 46 47  1  0  0  0  0
 47 48  1  0  0  0  0
 43 48  1  0  0  0  0
 48 49  1  6  0  0  0
 47 50  1  1  0  0  0
 46 51  1  6  0  0  0
 45 52  1  6  0  0  0
 44 42  1  1  0  0  0
M  END
>  <cdx:fragmentId>
63

$$$$
