257975.cdx
  Mrv1902 05222410262D          

 44 48  0  0  0  0            999 V2000
    3.4752  -12.5526    0.0000 O   0  0  0  0  0  0  0  0  0  0  0  0
   10.6199   -7.6026    0.0000 O   0  0  0  0  0  0  0  0  0  0  0  0
    9.1910   -6.7776    0.0000 O   0  0  0  0  0  0  0  0  0  0  0  0
    9.1910   -9.2526    0.0000 C   0  0  0  0  0  0  0  0  0  0  0  0
    9.9055   -8.8401    0.0000 C   0  0  0  0  0  0  0  0  0  0  0  0
    9.9055   -8.0151    0.0000 C   0  0  0  0  0  0  0  0  0  0  0  0
    9.1910   -7.6026    0.0000 C   0  0  0  0  0  0  0  0  0  0  0  0
    8.4765   -8.8401    0.0000 C   0  0  0  0  0  0  0  0  0  0  0  0
    8.4765   -8.0151    0.0000 C   0  0  0  0  0  0  0  0  0  0  0  0
    7.7620  -10.0776    0.0000 C   0  0  0  0  0  0  0  0  0  0  0  0
    7.7620   -9.2526    0.0000 C   0  0  0  0  0  0  0  0  0  0  0  0
    7.0476   -8.8401    0.0000 O   0  0  0  0  0  0  0  0  0  0  0  0
    6.3331   -9.2526    0.0000 C   0  0  0  0  0  0  0  0  0  0  0  0
    5.6186   -8.8401    0.0000 C   0  0  0  0  0  0  0  0  0  0  0  0
    4.9042   -9.2526    0.0000 C   0  0  0  0  0  0  0  0  0  0  0  0
    4.1897   -8.8401    0.0000 O   0  0  0  0  0  0  0  0  0  0  0  0
    7.0476  -11.3151    0.0000 O   0  0  0  0  0  0  0  0  0  0  0  0
    7.0476  -10.4901    0.0000 C   0  0  0  0  0  0  0  0  0  0  0  0
    6.3331  -10.0776    0.0000 C   0  0  0  0  0  0  0  0  0  0  0  0
    4.9042  -11.7276    0.0000 O   0  0  0  0  0  0  0  0  0  0  0  0
    5.6186  -11.3151    0.0000 O   0  0  0  0  0  0  0  0  0  0  0  0
    5.6186  -10.4901    0.0000 C   0  0  0  0  0  0  0  0  0  0  0  0
    4.9042  -10.0776    0.0000 C   0  0  0  0  0  0  0  0  0  0  0  0
    3.4752  -11.7276    0.0000 C   0  0  2  0  0  0  0  0  0  0  0  0
    4.1897  -11.3151    0.0000 C   0  0  2  0  0  0  0  0  0  0  0  0
    4.1897  -10.4901    0.0000 C   0  0  1  0  0  0  0  0  0  0  0  0
    3.4752  -10.0776    0.0000 O   0  0  0  0  0  0  0  0  0  0  0  0
    2.0463  -11.7276    0.0000 O   0  0  0  0  0  0  0  0  0  0  0  0
    2.7607  -11.3151    0.0000 C   0  0  2  0  0  0  0  0  0  0  0  0
    2.7607  -10.4901    0.0000 C   0  0  1  0  0  0  0  0  0  0  0  0
    2.0463  -10.0776    0.0000 C   0  0  0  0  0  0  0  0  0  0  0  0
    1.3318  -10.4901    0.0000 O   0  0  0  0  0  0  0  0  0  0  0  0
    4.1897   -9.6651    0.0000 H   0  0  0  0  0  0  0  0  0  0  0  0
   11.3344   -8.0151    0.0000 C   0  0  2  0  0  0  0  0  0  0  0  0
   11.3344   -8.8401    0.0000 O   0  0  0  0  0  0  0  0  0  0  0  0
   12.0489   -9.2526    0.0000 C   0  0  1  0  0  0  0  0  0  0  0  0
   12.7633   -8.8401    0.0000 C   0  0  2  0  0  0  0  0  0  0  0  0
   12.7633   -8.0151    0.0000 C   0  0  1  0  0  0  0  0  0  0  0  0
   12.0489   -7.6026    0.0000 C   0  0  1  0  0  0  0  0  0  0  0  0
   12.0489  -10.0776    0.0000 C   0  0  0  0  0  0  0  0  0  0  0  0
   13.4778   -7.6026    0.0000 O   0  0  0  0  0  0  0  0  0  0  0  0
   12.0489   -6.7776    0.0000 O   0  0  0  0  0  0  0  0  0  0  0  0
   13.4778   -9.2526    0.0000 O   0  0  0  0  0  0  0  0  0  0  0  0
   12.7633  -10.4901    0.0000 O   0  0  0  0  0  0  0  0  0  0  0  0
 24  1  1  1  0  0  0
  6  2  1  0  0  0  0
  7  3  1  0  0  0  0
  4  8  1  0  0  0  0
  5  4  2  0  0  0  0
  6  5  1  0  0  0  0
  7  6  2  0  0  0  0
  9  7  1  0  0  0  0
  8 11  1  0  0  0  0
  9  8  2  0  0  0  0
 10 18  1  0  0  0  0
 11 10  2  0  0  0  0
 12 11  1  0  0  0  0
 13 12  1  0  0  0  0
 13 19  2  0  0  0  0
 14 13  1  0  0  0  0
 15 14  2  0  0  0  0
 15 23  1  0  0  0  0
 16 15  1  0  0  0  0
 18 17  2  0  0  0  0
 19 18  1  0  0  0  0
 22 19  1  0  0  0  0
 25 20  1  6  0  0  0
 22 21  1  0  0  0  0
 23 22  2  0  0  0  0
 26 23  1  0  0  0  0
 24 29  1  0  0  0  0
 25 24  1  0  0  0  0
 26 25  1  0  0  0  0
 27 26  1  0  0  0  0
 30 27  1  0  0  0  0
 29 28  1  6  0  0  0
 30 29  1  0  0  0  0
 30 31  1  1  0  0  0
 32 31  1  0  0  0  0
 26 33  1  6  0  0  0
 34  2  1  1  0  0  0
 34 35  1  0  0  0  0
 35 36  1  0  0  0  0
 36 37  1  0  0  0  0
 37 38  1  0  0  0  0
 38 39  1  0  0  0  0
 39 34  1  0  0  0  0
 36 40  1  1  0  0  0
 38 41  1  1  0  0  0
 39 42  1  6  0  0  0
 37 43  1  6  0  0  0
 40 44  1  0  0  0  0
M  END
>  <cdx:fragmentId>
5

$$$$
