258.cdx
  Mrv1902 05222410182D          

 33 36  0  0  0  0            999 V2000
    3.5165   -9.6660    0.0000 C   0  0  0  0  0  0  0  0  0  0  0  0
    3.5165  -10.4910    0.0000 C   0  0  1  0  0  0  0  0  0  0  0  0
    4.2310  -10.9035    0.0000 C   0  0  0  0  0  0  0  0  0  0  0  0
    4.9454  -10.4910    0.0000 C   0  0  0  0  0  0  0  0  0  0  0  0
    4.9454   -9.6660    0.0000 C   0  0  2  0  0  0  0  0  0  0  0  0
    4.2310   -9.2535    0.0000 C   0  0  0  0  0  0  0  0  0  0  0  0
    5.6599  -10.9035    0.0000 C   0  0  0  0  0  0  0  0  0  0  0  0
    6.3744  -10.4910    0.0000 C   0  0  0  0  0  0  0  0  0  0  0  0
    6.3744   -9.6660    0.0000 C   0  0  2  0  0  0  0  0  0  0  0  0
    5.6599   -9.2535    0.0000 C   0  0  2  0  0  0  0  0  0  0  0  0
    7.0889   -9.2535    0.0000 C   0  0  1  0  0  0  0  0  0  0  0  0
    7.0889   -8.4285    0.0000 C   0  0  2  0  0  0  0  0  0  0  0  0
    6.3744   -8.0160    0.0000 C   0  0  0  0  0  0  0  0  0  0  0  0
    5.6599   -8.4285    0.0000 C   0  0  0  0  0  0  0  0  0  0  0  0
    7.8735   -9.5084    0.0000 C   0  0  0  0  0  0  0  0  0  0  0  0
    8.3584   -8.8410    0.0000 C   0  0  0  0  0  0  0  0  0  0  0  0
    7.8735   -8.1736    0.0000 C   0  0  2  0  0  0  0  0  0  0  0  0
    2.8020  -10.9035    0.0000 O   0  0  0  0  0  0  0  0  0  0  0  0
    4.9454   -8.8410    0.0000 C   0  0  0  0  0  0  0  0  0  0  0  0
    7.0889   -7.6035    0.0000 C   0  0  0  0  0  0  0  0  0  0  0  0
    8.2860   -7.4591    0.0000 C   0  0  2  0  0  0  0  0  0  0  0  0
    7.8735   -6.7446    0.0000 C   0  0  0  0  0  0  0  0  0  0  0  0
   10.0465   -5.6177    0.0000 C   0  0  0  0  0  0  0  0  0  0  0  0
   11.1735   -5.3157    0.0000 O   0  0  0  0  0  0  0  0  0  0  0  0
   10.7610   -6.0302    0.0000 C   0  0  0  0  0  0  0  0  0  0  0  0
   10.3485   -6.7446    0.0000 C   0  0  0  0  0  0  0  0  0  0  0  0
    9.5235   -6.7446    0.0000 C   0  0  0  0  0  0  0  0  0  0  0  0
    9.1110   -7.4591    0.0000 C   0  0  0  0  0  0  0  0  0  0  0  0
    5.6599  -10.0785    0.0000 H   0  0  0  0  0  0  0  0  0  0  0  0
    7.0889  -10.0785    0.0000 H   0  0  0  0  0  0  0  0  0  0  0  0
    8.6985   -8.1736    0.0000 H   0  0  0  0  0  0  0  0  0  0  0  0
    6.3744   -8.8410    0.0000 H   0  0  0  0  0  0  0  0  0  0  0  0
   11.4754   -6.4427    0.0000 C   0  0  0  0  0  0  0  0  0  0  0  0
  1  2  1  0  0  0  0
  2  3  1  0  0  0  0
  3  4  1  0  0  0  0
  4  5  1  0  0  0  0
  5  6  1  0  0  0  0
  6  1  1  0  0  0  0
  4  7  2  0  0  0  0
  7  8  1  0  0  0  0
  8  9  1  0  0  0  0
  9 10  1  0  0  0  0
 10  5  1  0  0  0  0
  9 11  1  0  0  0  0
 11 12  1  0  0  0  0
 12 13  1  0  0  0  0
 13 14  1  0  0  0  0
 14 10  1  0  0  0  0
 11 15  1  0  0  0  0
 15 16  1  0  0  0  0
 16 17  1  0  0  0  0
 17 12  1  0  0  0  0
  2 18  1  1  0  0  0
  5 19  1  1  0  0  0
 12 20  1  1  0  0  0
 17 21  1  0  0  0  0
 21 22  1  6  0  0  0
 25 23  1  0  0  0  0
 21 28  1  0  0  0  0
 25 24  1  0  0  0  0
 26 25  1  0  0  0  0
 27 26  1  0  0  0  0
 28 27  1  0  0  0  0
 10 29  1  6  0  0  0
 11 30  1  6  0  0  0
 17 31  1  6  0  0  0
  9 32  1  1  0  0  0
 25 33  1  0  0  0  0
M  END
>  <cdx:fragmentId>
5

$$$$
