44258171.cdx
  Mrv1902 05222410242D          

 32 35  0  0  0  0            999 V2000
    8.3901  -15.2702    0.0000 C   0  0  0  0  0  0  0  0  0  0  0  0
    8.3901  -14.4452    0.0000 C   0  0  0  0  0  0  0  0  0  0  0  0
    7.6757  -14.0327    0.0000 C   0  0  0  0  0  0  0  0  0  0  0  0
    6.9612  -14.4452    0.0000 C   0  0  0  0  0  0  0  0  0  0  0  0
    6.2467  -14.0327    0.0000 C   0  0  0  0  0  0  0  0  0  0  0  0
    5.5323  -14.4452    0.0000 C   0  0  0  0  0  0  0  0  0  0  0  0
    5.5323  -15.2702    0.0000 C   0  0  0  0  0  0  0  0  0  0  0  0
    6.2467  -15.6827    0.0000 C   0  0  0  0  0  0  0  0  0  0  0  0
    6.9612  -15.2702    0.0000 C   0  0  0  0  0  0  0  0  0  0  0  0
    7.6757  -15.6827    0.0000 O   0  0  0  0  0  0  0  0  0  0  0  0
    7.6757  -13.2077    0.0000 O   0  0  0  0  0  0  0  0  0  0  0  0
    9.1046  -15.6827    0.0000 C   0  0  0  0  0  0  0  0  0  0  0  0
    9.8191  -15.2702    0.0000 C   0  0  0  0  0  0  0  0  0  0  0  0
   10.5336  -15.6827    0.0000 C   0  0  0  0  0  0  0  0  0  0  0  0
   10.5336  -16.5077    0.0000 C   0  0  0  0  0  0  0  0  0  0  0  0
    9.8191  -16.9202    0.0000 C   0  0  0  0  0  0  0  0  0  0  0  0
    9.1046  -16.5077    0.0000 C   0  0  0  0  0  0  0  0  0  0  0  0
   11.2480  -15.2702    0.0000 O   0  0  0  0  0  0  0  0  0  0  0  0
   11.9625  -15.6827    0.0000 C   0  0  0  0  0  0  0  0  0  0  0  0
   11.2480  -16.9202    0.0000 O   0  0  0  0  0  0  0  0  0  0  0  0
    4.8178  -15.6827    0.0000 O   0  0  0  0  0  0  0  0  0  0  0  0
    6.2467  -13.2077    0.0000 O   0  0  0  0  0  0  0  0  0  0  0  0
    4.1033  -14.4452    0.0000 O   0  0  0  0  0  0  0  0  0  0  0  0
    4.8178  -14.0327    0.0000 C   0  0  1  0  0  0  0  0  0  0  0  0
    4.8178  -13.2077    0.0000 C   0  0  0  0  0  0  0  0  0  0  0  0
    4.1033  -12.7952    0.0000 C   0  0  2  0  0  0  0  0  0  0  0  0
    3.3888  -13.2077    0.0000 C   0  0  0  0  0  0  0  0  0  0  0  0
    3.3888  -14.0327    0.0000 C   0  0  0  0  0  0  0  0  0  0  0  0
    2.6744  -12.7952    0.0000 O   0  0  0  0  0  0  0  0  0  0  0  0
    2.6744  -14.4452    0.0000 C   0  0  0  0  0  0  0  0  0  0  0  0
    4.1033  -11.9702    0.0000 O   0  0  0  0  0  0  0  0  0  0  0  0
    5.5323  -12.7952    0.0000 O   0  0  0  0  0  0  0  0  0  0  0  0
  1  2  2  0  0  0  0
  2  3  1  0  0  0  0
  3  4  1  0  0  0  0
  4  5  1  0  0  0  0
  5  6  2  0  0  0  0
  6  7  1  0  0  0  0
  7  8  2  0  0  0  0
  8  9  1  0  0  0  0
  4  9  2  0  0  0  0
  9 10  1  0  0  0  0
  1 10  1  0  0  0  0
  3 11  2  0  0  0  0
 12 13  1  0  0  0  0
 13 14  2  0  0  0  0
 14 15  1  0  0  0  0
 15 16  2  0  0  0  0
 16 17  1  0  0  0  0
 12 17  2  0  0  0  0
 18 19  1  0  0  0  0
 14 18  1  0  0  0  0
 15 20  1  0  0  0  0
  1 12  1  0  0  0  0
  7 21  1  0  0  0  0
  5 22  1  0  0  0  0
 23 24  1  0  0  0  0
 24 25  1  0  0  0  0
 25 26  1  0  0  0  0
 26 27  1  0  0  0  0
 27 28  1  0  0  0  0
 23 28  1  0  0  0  0
 27 29  2  0  0  0  0
 28 30  1  0  0  0  0
 26 31  1  6  0  0  0
 25 32  1  0  0  0  0
 24  6  1  1  0  0  0
M  END
>  <cdx:groupId>
156721

>  <cdx:fragmentId>
156625

$$$$
