2581.cdx
  Mrv1902 05222410272D          

 40 43  0  0  0  0            999 V2000
    2.9733   -8.2844    0.0000 C   0  0  2  0  0  0  0  0  0  0  0  0
    2.9733   -9.1094    0.0000 C   0  0  2  0  0  0  0  0  0  0  0  0
    3.6877   -9.5219    0.0000 C   0  0  1  0  0  0  0  0  0  0  0  0
    4.4022   -9.1094    0.0000 C   0  0  2  0  0  0  0  0  0  0  0  0
    4.4022   -8.2844    0.0000 C   0  0  1  0  0  0  0  0  0  0  0  0
    3.6877   -7.8719    0.0000 O   0  0  0  0  0  0  0  0  0  0  0  0
    5.1167   -9.5219    0.0000 O   0  0  0  0  0  0  0  0  0  0  0  0
    5.8312   -9.1094    0.0000 C   0  0  0  0  0  0  0  0  0  0  0  0
    5.8312   -8.2844    0.0000 C   0  0  0  0  0  0  0  0  0  0  0  0
    5.1167   -7.8719    0.0000 O   0  0  0  0  0  0  0  0  0  0  0  0
    6.5456   -9.5219    0.0000 C   0  0  0  0  0  0  0  0  0  0  0  0
    7.2601   -9.1094    0.0000 C   0  0  0  0  0  0  0  0  0  0  0  0
    7.2601   -8.2844    0.0000 C   0  0  0  0  0  0  0  0  0  0  0  0
    6.5456   -7.8719    0.0000 C   0  0  0  0  0  0  0  0  0  0  0  0
    7.9746   -7.8719    0.0000 O   0  0  0  0  0  0  0  0  0  0  0  0
    7.9746   -7.0469    0.0000 C   0  0  2  0  0  0  0  0  0  0  0  0
    7.2601   -6.6344    0.0000 O   0  0  0  0  0  0  0  0  0  0  0  0
    7.9746   -9.5219    0.0000 C   0  0  0  0  0  0  0  0  0  0  0  0
    8.6890   -9.1094    0.0000 O   0  0  0  0  0  0  0  0  0  0  0  0
    8.6890   -6.6344    0.0000 C   0  0  1  0  0  0  0  0  0  0  0  0
    8.6890   -5.8094    0.0000 C   0  0  2  0  0  0  0  0  0  0  0  0
    7.9746   -5.3969    0.0000 C   0  0  1  0  0  0  0  0  0  0  0  0
    7.2601   -5.8094    0.0000 C   0  0  1  0  0  0  0  0  0  0  0  0
    7.9746  -10.3469    0.0000 C   0  0  0  0  0  0  0  0  0  0  0  0
    8.6890  -10.7594    0.0000 C   0  0  0  0  0  0  0  0  0  0  0  0
    9.4035  -10.3469    0.0000 C   0  0  0  0  0  0  0  0  0  0  0  0
    9.4035   -9.5219    0.0000 C   0  0  0  0  0  0  0  0  0  0  0  0
    2.2588   -7.8719    0.0000 C   0  0  0  0  0  0  0  0  0  0  0  0
    1.5443   -8.2844    0.0000 O   0  0  0  0  0  0  0  0  0  0  0  0
    8.6890  -11.5844    0.0000 O   0  0  0  0  0  0  0  0  0  0  0  0
   10.1180   -9.1094    0.0000 O   0  0  0  0  0  0  0  0  0  0  0  0
    6.5456   -5.3969    0.0000 C   0  0  0  0  0  0  0  0  0  0  0  0
    6.5456   -4.5719    0.0000 O   0  0  0  0  0  0  0  0  0  0  0  0
    2.2588   -9.5219    0.0000 O   0  0  0  0  0  0  0  0  0  0  0  0
    9.4035   -5.3969    0.0000 O   0  0  0  0  0  0  0  0  0  0  0  0
    7.9746   -4.5719    0.0000 O   0  0  0  0  0  0  0  0  0  0  0  0
    9.4035   -7.0469    0.0000 O   0  0  0  0  0  0  0  0  0  0  0  0
    3.6877  -10.3469    0.0000 O   0  0  0  0  0  0  0  0  0  0  0  0
    6.5456  -10.3469    0.0000 C   0  0  0  0  0  0  0  0  0  0  0  0
    9.4035  -11.9969    0.0000 C   0  0  0  0  0  0  0  0  0  0  0  0
  1  2  1  0  0  0  0
  2  3  1  0  0  0  0
  3  4  1  0  0  0  0
  4  5  1  0  0  0  0
  5  6  1  0  0  0  0
  6  1  1  0  0  0  0
  4  7  1  6  0  0  0
  8  9  2  0  0  0  0
  9 10  1  0  0  0  0
  5 10  1  1  0  0  0
  8 11  1  0  0  0  0
 11 12  2  0  0  0  0
 12 13  1  0  0  0  0
 13 14  2  0  0  0  0
 14  9  1  0  0  0  0
 13 15  1  0  0  0  0
 16 15  1  6  0  0  0
 16 17  1  0  0  0  0
 12 18  1  0  0  0  0
 18 19  1  0  0  0  0
 16 20  1  0  0  0  0
 20 21  1  0  0  0  0
 21 22  1  0  0  0  0
 22 23  1  0  0  0  0
 23 17  1  0  0  0  0
 18 24  2  0  0  0  0
 24 25  1  0  0  0  0
 25 26  2  0  0  0  0
 26 27  1  0  0  0  0
 27 19  1  0  0  0  0
  1 28  1  1  0  0  0
 28 29  1  0  0  0  0
 25 30  1  0  0  0  0
 27 31  2  0  0  0  0
 23 32  1  6  0  0  0
 32 33  1  0  0  0  0
  2 34  1  6  0  0  0
 21 35  1  6  0  0  0
 22 36  1  1  0  0  0
 20 37  1  1  0  0  0
  3 38  1  1  0  0  0
 11 39  1  0  0  0  0
 30 40  1  0  0  0  0
M  END
>  <cdx:fragmentId>
5

$$$$
