258206.cdx
  Mrv1902 05222410242D          

 43 46  0  0  0  0            999 V2000
   13.2915   -7.5242    0.0000 C   0  0  0  0  0  0  0  0  0  0  0  0
   11.8627   -7.5061    0.0000 O   0  0  0  0  0  0  0  0  0  0  0  0
   12.5719   -7.9276    0.0000 C   0  0  0  0  0  0  0  0  0  0  0  0
   13.2395  -11.6488    0.0000 C   0  0  0  0  0  0  0  0  0  0  0  0
   12.5302  -11.2274    0.0000 O   0  0  0  0  0  0  0  0  0  0  0  0
   11.8314   -9.9809    0.0000 C   0  0  0  0  0  0  0  0  0  0  0  0
   12.5407  -10.4024    0.0000 C   0  0  0  0  0  0  0  0  0  0  0  0
   13.2603   -9.9990    0.0000 C   0  0  0  0  0  0  0  0  0  0  0  0
   13.2707   -9.1740    0.0000 C   0  0  0  0  0  0  0  0  0  0  0  0
   12.5615   -8.7526    0.0000 C   0  0  0  0  0  0  0  0  0  0  0  0
   11.8419   -9.1560    0.0000 C   0  0  0  0  0  0  0  0  0  0  0  0
   11.1327   -8.7345    0.0000 O   0  0  0  0  0  0  0  0  0  0  0  0
    8.2542  -10.3483    0.0000 O   0  0  0  0  0  0  0  0  0  0  0  0
    9.6726  -11.1913    0.0000 O   0  0  0  0  0  0  0  0  0  0  0  0
   11.1118  -10.3844    0.0000 O   0  0  0  0  0  0  0  0  0  0  0  0
   10.4130   -9.1380    0.0000 C   0  0  1  0  0  0  0  0  0  0  0  0
   10.4026   -9.9629    0.0000 C   0  0  1  0  0  0  0  0  0  0  0  0
    9.6830  -10.3664    0.0000 C   0  0  2  0  0  0  0  0  0  0  0  0
    8.9738   -9.9449    0.0000 C   0  0  1  0  0  0  0  0  0  0  0  0
    8.9842   -9.1199    0.0000 C   0  0  2  0  0  0  0  0  0  0  0  0
    9.7038   -8.7165    0.0000 O   0  0  0  0  0  0  0  0  0  0  0  0
    8.2750   -8.6985    0.0000 C   0  0  0  0  0  0  0  0  0  0  0  0
    7.5554   -9.1019    0.0000 O   0  0  0  0  0  0  0  0  0  0  0  0
    4.6977   -9.0658    0.0000 O   0  0  0  0  0  0  0  0  0  0  0  0
    6.1161   -9.9088    0.0000 O   0  0  0  0  0  0  0  0  0  0  0  0
    6.8462   -8.6804    0.0000 C   0  0  1  0  0  0  0  0  0  0  0  0
    6.1265   -9.0839    0.0000 C   0  0  1  0  0  0  0  0  0  0  0  0
    5.4173   -8.6624    0.0000 C   0  0  2  0  0  0  0  0  0  0  0  0
    5.4277   -7.8375    0.0000 C   0  0  2  0  0  0  0  0  0  0  0  0
    6.1474   -7.4340    0.0000 C   0  0  0  0  0  0  0  0  0  0  0  0
    6.8566   -7.8555    0.0000 O   0  0  0  0  0  0  0  0  0  0  0  0
    2.6013   -5.3266    0.0000 O   0  0  0  0  0  0  0  0  0  0  0  0
    1.1621   -6.1335    0.0000 O   0  0  0  0  0  0  0  0  0  0  0  0
    1.1413   -7.7834    0.0000 O   0  0  0  0  0  0  0  0  0  0  0  0
    4.7185   -7.4160    0.0000 O   0  0  0  0  0  0  0  0  0  0  0  0
    3.9885   -8.6444    0.0000 O   0  0  0  0  0  0  0  0  0  0  0  0
    2.5701   -7.8014    0.0000 C   0  0  0  0  0  0  0  0  0  0  0  0
    1.8609   -7.3799    0.0000 C   0  0  0  0  0  0  0  0  0  0  0  0
    1.8713   -6.5550    0.0000 C   0  0  0  0  0  0  0  0  0  0  0  0
    2.5909   -6.1515    0.0000 C   0  0  0  0  0  0  0  0  0  0  0  0
    3.3001   -6.5730    0.0000 C   0  0  0  0  0  0  0  0  0  0  0  0
    3.2897   -7.3979    0.0000 C   0  0  0  0  0  0  0  0  0  0  0  0
    3.9989   -7.8194    0.0000 C   0  0  0  0  0  0  0  0  0  0  0  0
 29 35  1  1  0  0  0
 26 23  1  1  0  0  0
 20 22  1  1  0  0  0
 16 12  1  1  0  0  0
 10  3  1  0  0  0  0
  3  1  1  0  0  0  0
  3  2  2  0  0  0  0
  7  5  1  0  0  0  0
  5  4  1  0  0  0  0
 12 11  1  0  0  0  0
 11  6  2  0  0  0  0
  7  6  1  0  0  0  0
  8  7  2  0  0  0  0
  9  8  1  0  0  0  0
 10  9  2  0  0  0  0
 11 10  1  0  0  0  0
 19 13  1  6  0  0  0
 18 14  1  1  0  0  0
 17 15  1  6  0  0  0
 21 16  1  0  0  0  0
 17 16  1  0  0  0  0
 18 17  1  0  0  0  0
 19 18  1  0  0  0  0
 20 19  1  0  0  0  0
 21 20  1  0  0  0  0
 23 22  1  0  0  0  0
 28 24  1  1  0  0  0
 27 25  1  6  0  0  0
 31 26  1  0  0  0  0
 27 26  1  0  0  0  0
 28 27  1  0  0  0  0
 29 28  1  0  0  0  0
 30 29  1  0  0  0  0
 31 30  1  0  0  0  0
 40 32  1  0  0  0  0
 39 33  1  0  0  0  0
 38 34  1  0  0  0  0
 43 35  1  0  0  0  0
 43 36  2  0  0  0  0
 42 37  2  0  0  0  0
 38 37  1  0  0  0  0
 39 38  2  0  0  0  0
 40 39  1  0  0  0  0
 41 40  2  0  0  0  0
 42 41  1  0  0  0  0
 43 42  1  0  0  0  0
M  END
>  <cdx:fragmentId>
43564

$$$$
