258205.cdx
  Mrv1902 05222410232D          

 43 46  0  0  0  0            999 V2000
   11.8658   -6.3204    0.0000 C   0  0  0  0  0  0  0  0  0  0  0  0
   10.4369   -6.3029    0.0000 O   0  0  0  0  0  0  0  0  0  0  0  0
   11.1463   -6.7241    0.0000 C   0  0  0  0  0  0  0  0  0  0  0  0
   11.8152  -10.4451    0.0000 C   0  0  0  0  0  0  0  0  0  0  0  0
   11.1058  -10.0239    0.0000 O   0  0  0  0  0  0  0  0  0  0  0  0
   10.4066   -8.7777    0.0000 C   0  0  0  0  0  0  0  0  0  0  0  0
   11.1159   -9.1990    0.0000 C   0  0  0  0  0  0  0  0  0  0  0  0
   11.8354   -8.7953    0.0000 C   0  0  0  0  0  0  0  0  0  0  0  0
   11.8455   -7.9703    0.0000 C   0  0  0  0  0  0  0  0  0  0  0  0
   11.1362   -7.5491    0.0000 C   0  0  0  0  0  0  0  0  0  0  0  0
   10.4167   -7.9528    0.0000 C   0  0  0  0  0  0  0  0  0  0  0  0
    9.7073   -7.5315    0.0000 O   0  0  0  0  0  0  0  0  0  0  0  0
    5.2113   -7.3814    0.0000 O   0  0  0  0  0  0  0  0  0  0  0  0
    4.1749   -6.4334    0.0000 O   0  0  0  0  0  0  0  0  0  0  0  0
    3.4254   -6.0887    0.0000 O   0  0  0  0  0  0  0  0  0  0  0  0
    4.0987   -5.6120    0.0000 C   0  0  0  0  0  0  0  0  0  0  0  0
    5.2695   -5.2474    0.0000 C   0  0  0  0  0  0  0  0  0  0  0  0
    4.8482   -5.9567    0.0000 C   0  0  2  0  0  0  0  0  0  0  0  0
    5.3927   -6.5766    0.0000 C   0  0  2  0  0  0  0  0  0  0  0  0
    6.1504   -6.2503    0.0000 C   0  0  1  0  0  0  0  0  0  0  0  0
    6.0743   -5.4288    0.0000 O   0  0  0  0  0  0  0  0  0  0  0  0
    6.8598   -6.6715    0.0000 O   0  0  0  0  0  0  0  0  0  0  0  0
    6.8497   -7.4965    0.0000 C   0  0  0  0  0  0  0  0  0  0  0  0
    8.2481   -9.9888    0.0000 O   0  0  0  0  0  0  0  0  0  0  0  0
    9.6871   -9.1814    0.0000 O   0  0  0  0  0  0  0  0  0  0  0  0
    8.9879   -7.9352    0.0000 C   0  0  1  0  0  0  0  0  0  0  0  0
    8.9777   -8.7602    0.0000 C   0  0  1  0  0  0  0  0  0  0  0  0
    8.2583   -9.1639    0.0000 C   0  0  2  0  0  0  0  0  0  0  0  0
    7.5489   -8.7426    0.0000 C   0  0  1  0  0  0  0  0  0  0  0  0
    7.5590   -7.9177    0.0000 C   0  0  2  0  0  0  0  0  0  0  0  0
    8.2785   -7.5140    0.0000 O   0  0  0  0  0  0  0  0  0  0  0  0
    3.2624   -8.6900    0.0000 O   0  0  0  0  0  0  0  0  0  0  0  0
    3.2421  -10.3399    0.0000 O   0  0  0  0  0  0  0  0  0  0  0  0
    4.6609  -11.1824    0.0000 O   0  0  0  0  0  0  0  0  0  0  0  0
    6.8294   -9.1463    0.0000 O   0  0  0  0  0  0  0  0  0  0  0  0
    6.1302   -7.9002    0.0000 O   0  0  0  0  0  0  0  0  0  0  0  0
    5.3905   -9.9537    0.0000 C   0  0  0  0  0  0  0  0  0  0  0  0
    4.6710  -10.3574    0.0000 C   0  0  0  0  0  0  0  0  0  0  0  0
    3.9616   -9.9362    0.0000 C   0  0  0  0  0  0  0  0  0  0  0  0
    3.9718   -9.1113    0.0000 C   0  0  0  0  0  0  0  0  0  0  0  0
    4.6912   -8.7076    0.0000 C   0  0  0  0  0  0  0  0  0  0  0  0
    5.4006   -9.1288    0.0000 C   0  0  0  0  0  0  0  0  0  0  0  0
    6.1201   -8.7251    0.0000 C   0  0  0  0  0  0  0  0  0  0  0  0
 29 35  1  6  0  0  0
 26 12  1  1  0  0  0
 10  3  1  0  0  0  0
  3  1  1  0  0  0  0
  3  2  2  0  0  0  0
  7  5  1  0  0  0  0
  5  4  1  0  0  0  0
 12 11  1  0  0  0  0
 11  6  2  0  0  0  0
  7  6  1  0  0  0  0
  8  7  2  0  0  0  0
  9  8  1  0  0  0  0
 10  9  2  0  0  0  0
 11 10  1  0  0  0  0
 30 23  1  1  0  0  0
 23 22  1  0  0  0  0
 20 22  1  1  0  0  0
 19 13  1  6  0  0  0
 18 14  1  6  0  0  0
 18 16  1  0  0  0  0
 16 15  1  0  0  0  0
 21 17  1  0  0  0  0
 18 17  1  0  0  0  0
 19 18  1  0  0  0  0
 20 19  1  0  0  0  0
 21 20  1  0  0  0  0
 28 24  1  1  0  0  0
 27 25  1  6  0  0  0
 31 26  1  0  0  0  0
 27 26  1  0  0  0  0
 28 27  1  0  0  0  0
 29 28  1  0  0  0  0
 30 29  1  0  0  0  0
 31 30  1  0  0  0  0
 40 32  1  0  0  0  0
 39 33  1  0  0  0  0
 38 34  1  0  0  0  0
 43 35  1  0  0  0  0
 43 36  2  0  0  0  0
 42 37  2  0  0  0  0
 38 37  1  0  0  0  0
 39 38  2  0  0  0  0
 40 39  1  0  0  0  0
 41 40  2  0  0  0  0
 42 41  1  0  0  0  0
 43 42  1  0  0  0  0
M  END
>  <cdx:fragmentId>
43404

$$$$
