258264.cdx
  Mrv1902 05222410272D          

 35 38  0  0  0  0            999 V2000
    4.2690   -9.9271    0.0000 C   0  0  0  0  0  0  0  0  0  0  0  0
    3.5546  -10.3396    0.0000 C   0  0  0  0  0  0  0  0  0  0  0  0
    3.5546  -11.1646    0.0000 C   0  0  1  0  0  0  0  0  0  0  0  0
    4.2690  -11.5771    0.0000 C   0  0  0  0  0  0  0  0  0  0  0  0
    4.9835  -11.1646    0.0000 C   0  0  0  0  0  0  0  0  0  0  0  0
    5.6980  -11.5771    0.0000 C   0  0  0  0  0  0  0  0  0  0  0  0
    6.4125  -11.1646    0.0000 C   0  0  0  0  0  0  0  0  0  0  0  0
    6.4125  -10.3396    0.0000 C   0  0  1  0  0  0  0  0  0  0  0  0
    7.1269   -9.9271    0.0000 C   0  0  2  0  0  0  0  0  0  0  0  0
    7.9116  -10.1820    0.0000 C   0  0  0  0  0  0  0  0  0  0  0  0
    8.3965   -9.5146    0.0000 C   0  0  0  0  0  0  0  0  0  0  0  0
    7.9116   -8.8471    0.0000 C   0  0  1  0  0  0  0  0  0  0  0  0
    7.1269   -9.1021    0.0000 C   0  0  1  0  0  0  0  0  0  0  0  0
    6.4125   -8.6896    0.0000 C   0  0  0  0  0  0  0  0  0  0  0  0
    5.6980   -9.1021    0.0000 C   0  0  0  0  0  0  0  0  0  0  0  0
    5.6980   -9.9271    0.0000 C   0  0  2  0  0  0  0  0  0  0  0  0
    4.9835  -10.3396    0.0000 C   0  0  1  0  0  0  0  0  0  0  0  0
    2.8401  -11.5771    0.0000 O   0  0  0  0  0  0  0  0  0  0  0  0
    7.6145   -7.4494    0.0000 C   0  0  0  0  0  0  0  0  0  0  0  0
    8.1665   -8.0625    0.0000 C   0  0  2  0  0  0  0  0  0  0  0  0
    8.9735   -7.8910    0.0000 C   0  0  0  0  0  0  0  0  0  0  0  0
    9.2284   -7.1064    0.0000 C   0  0  0  0  0  0  0  0  0  0  0  0
   11.3944   -7.3764    0.0000 C   0  0  0  0  0  0  0  0  0  0  0  0
    7.2132   -8.2816    0.0000 C   0  0  0  0  0  0  0  0  0  0  0  0
    4.9835   -9.5146    0.0000 C   0  0  0  0  0  0  0  0  0  0  0  0
    6.4125   -9.5146    0.0000 H   0  0  0  0  0  0  0  0  0  0  0  0
    5.6980  -10.7521    0.0000 H   0  0  0  0  0  0  0  0  0  0  0  0
    7.1269  -10.7521    0.0000 H   0  0  0  0  0  0  0  0  0  0  0  0
    9.7383   -5.5371    0.0000 C   0  0  0  0  0  0  0  0  0  0  0  0
   10.2903   -6.1502    0.0000 C   0  0  0  0  0  0  0  0  0  0  0  0
   11.0973   -5.9787    0.0000 C   0  0  0  0  0  0  0  0  0  0  0  0
   10.3325   -8.3326    0.0000 C   0  0  0  0  0  0  0  0  0  0  0  0
   10.5874   -7.5479    0.0000 C   0  0  0  0  0  0  0  0  0  0  0  0
   10.0354   -6.9348    0.0000 C   0  0  0  0  0  0  0  0  0  0  0  0
    8.6962   -8.5922    0.0000 H   0  0  0  0  0  0  0  0  0  0  0  0
 33 23  1  0  0  0  0
 34 30  1  0  0  0  0
 30 29  1  0  0  0  0
 31 30  1  0  0  0  0
 33 32  1  0  0  0  0
 34 33  2  0  0  0  0
  1  2  1  0  0  0  0
  2  3  1  0  0  0  0
  3  4  1  0  0  0  0
  4  5  1  0  0  0  0
  5  6  2  0  0  0  0
  6  7  1  0  0  0  0
  7  8  1  0  0  0  0
  8  9  1  0  0  0  0
  9 10  1  0  0  0  0
 10 11  1  0  0  0  0
 12 11  1  0  0  0  0
 12 13  1  0  0  0  0
  9 13  1  0  0  0  0
 13 14  1  0  0  0  0
 14 15  1  0  0  0  0
 15 16  1  0  0  0  0
  8 16  1  0  0  0  0
 16 17  1  0  0  0  0
  5 17  1  0  0  0  0
  1 17  1  0  0  0  0
  3 18  1  1  0  0  0
 20 19  1  6  0  0  0
 20 21  1  0  0  0  0
 21 22  1  0  0  0  0
 22 34  1  0  0  0  0
 12 20  1  0  0  0  0
 13 24  1  1  0  0  0
 17 25  1  1  0  0  0
  8 26  1  1  0  0  0
 16 27  1  6  0  0  0
  9 28  1  6  0  0  0
 12 35  1  6  0  0  0
M  END
>  <cdx:groupId>
144076

>  <cdx:fragmentId>
143974

$$$$
