258298.cdx
  Mrv1902 05222410262D          

 32 35  0  0  0  0            999 V2000
    9.3092   -7.6389    0.0000 C   0  0  0  0  0  0  0  0  0  0  0  0
    9.3092   -8.4639    0.0000 C   0  0  0  0  0  0  0  0  0  0  0  0
   10.0236   -8.8764    0.0000 C   0  0  0  0  0  0  0  0  0  0  0  0
   10.4361   -8.1620    0.0000 C   0  0  0  0  0  0  0  0  0  0  0  0
    9.6111   -9.5909    0.0000 C   0  0  0  0  0  0  0  0  0  0  0  0
    8.5947   -4.7514    0.0000 O   0  0  0  0  0  0  0  0  0  0  0  0
   11.4526   -4.7514    0.0000 O   0  0  0  0  0  0  0  0  0  0  0  0
   10.0236   -6.4014    0.0000 C   0  0  0  0  0  0  0  0  0  0  0  0
   10.7381   -5.9889    0.0000 C   0  0  0  0  0  0  0  0  0  0  0  0
   10.7381   -5.1639    0.0000 C   0  0  0  0  0  0  0  0  0  0  0  0
   10.0236   -4.7514    0.0000 C   0  0  0  0  0  0  0  0  0  0  0  0
    9.3092   -5.1639    0.0000 C   0  0  0  0  0  0  0  0  0  0  0  0
    9.3092   -5.9889    0.0000 C   0  0  0  0  0  0  0  0  0  0  0  0
    6.4513   -8.4639    0.0000 O   0  0  0  0  0  0  0  0  0  0  0  0
   10.7381   -9.2889    0.0000 O   0  0  0  0  0  0  0  0  0  0  0  0
    3.4829   -6.4014    0.0000 C   0  0  0  0  0  0  0  0  0  0  0  0
    3.8954   -5.6870    0.0000 C   0  0  0  0  0  0  0  0  0  0  0  0
    7.8802   -8.4639    0.0000 O   0  0  0  0  0  0  0  0  0  0  0  0
    7.8802   -5.9889    0.0000 O   0  0  0  0  0  0  0  0  0  0  0  0
    8.5947   -6.4014    0.0000 C   0  0  0  0  0  0  0  0  0  0  0  0
    8.5947   -7.2264    0.0000 C   0  0  0  0  0  0  0  0  0  0  0  0
    7.8802   -7.6389    0.0000 C   0  0  0  0  0  0  0  0  0  0  0  0
    5.0223   -5.9889    0.0000 O   0  0  0  0  0  0  0  0  0  0  0  0
    5.7368   -6.4014    0.0000 C   0  0  0  0  0  0  0  0  0  0  0  0
    6.4513   -5.9889    0.0000 C   0  0  0  0  0  0  0  0  0  0  0  0
    7.1657   -6.4014    0.0000 C   0  0  0  0  0  0  0  0  0  0  0  0
    7.1657   -7.2264    0.0000 C   0  0  0  0  0  0  0  0  0  0  0  0
    6.4513   -7.6389    0.0000 C   0  0  0  0  0  0  0  0  0  0  0  0
    5.7368   -7.2264    0.0000 C   0  0  0  0  0  0  0  0  0  0  0  0
    5.0223   -7.6389    0.0000 C   0  0  0  0  0  0  0  0  0  0  0  0
    4.3079   -7.2264    0.0000 C   0  0  0  0  0  0  0  0  0  0  0  0
    4.3079   -6.4014    0.0000 C   0  0  0  0  0  0  0  0  0  0  0  0
 20 13  1  0  0  0  0
 12  6  1  0  0  0  0
 10  7  1  0  0  0  0
 13  8  2  0  0  0  0
  9  8  1  0  0  0  0
 10  9  2  0  0  0  0
 11 10  1  0  0  0  0
 12 11  2  0  0  0  0
 13 12  1  0  0  0  0
 28 14  1  0  0  0  0
 21  1  1  0  0  0  0
 32 16  1  0  0  0  0
 32 17  1  0  0  0  0
 22 18  2  0  0  0  0
 19 26  1  0  0  0  0
 22 27  1  0  0  0  0
 20 19  1  0  0  0  0
 21 20  2  0  0  0  0
 22 21  1  0  0  0  0
 32 23  1  0  0  0  0
 24 23  1  0  0  0  0
 29 24  2  0  0  0  0
 25 24  1  0  0  0  0
 26 25  2  0  0  0  0
 27 26  1  0  0  0  0
 28 27  2  0  0  0  0
 29 28  1  0  0  0  0
 30 29  1  0  0  0  0
 31 30  2  0  0  0  0
 32 31  1  0  0  0  0
  1  2  1  0  0  0  0
  2  3  1  0  0  0  0
  3  4  1  0  0  0  0
  3  5  1  0  0  0  0
  3 15  1  0  0  0  0
M  END
>  <cdx:fragmentId>
156735

$$$$
