25835.cdx
  Mrv1902 05222410212D          

 14 13  0  0  0  0            999 V2000
    1.7975   -3.1683    0.0000 C   0  0  0  0  0  0  0  0  0  0  0  0
    2.5120   -2.7558    0.0000 C   0  0  0  0  0  0  0  0  0  0  0  0
    3.2265   -3.1683    0.0000 C   0  0  0  0  0  0  0  0  0  0  0  0
    3.9410   -2.7558    0.0000 C   0  0  0  0  0  0  0  0  0  0  0  0
    4.6554   -3.1683    0.0000 C   0  0  0  0  0  0  0  0  0  0  0  0
    5.3699   -2.7558    0.0000 C   0  0  0  0  0  0  0  0  0  0  0  0
    6.0844   -3.1683    0.0000 C   0  0  0  0  0  0  0  0  0  0  0  0
    6.7988   -2.7558    0.0000 C   0  0  0  0  0  0  0  0  0  0  0  0
    7.5133   -3.1683    0.0000 C   0  0  0  0  0  0  0  0  0  0  0  0
    8.2278   -2.7558    0.0000 C   0  0  0  0  0  0  0  0  0  0  0  0
    8.9423   -3.1683    0.0000 C   0  0  0  0  0  0  0  0  0  0  0  0
    9.6567   -2.7558    0.0000 C   0  0  0  0  0  0  0  0  0  0  0  0
   10.3712   -3.1683    0.0000 C   0  0  0  0  0  0  0  0  0  0  0  0
    5.3699   -1.9308    0.0000 C   0  0  0  0  0  0  0  0  0  0  0  0
  1  2  1  0  0  0  0
  2  3  1  0  0  0  0
  3  4  1  0  0  0  0
  4  5  1  0  0  0  0
  5  6  1  0  0  0  0
  6  7  1  0  0  0  0
  7  8  1  0  0  0  0
  8  9  1  0  0  0  0
  9 10  1  0  0  0  0
 10 11  1  0  0  0  0
 11 12  1  0  0  0  0
 12 13  1  0  0  0  0
  6 14  1  0  0  0  0
M  END
>  <cdx:groupId>
43

>  <cdx:fragmentId>
5

$$$$
