258359.cdx
  Mrv1902 05222410232D          

 22 24  0  0  0  0            999 V2000
    6.0790  -10.1494    0.0000 O   0  0  0  0  0  0  0  0  0  0  0  0
   11.0709   -6.4241    0.0000 O   0  0  0  0  0  0  0  0  0  0  0  0
    8.9285   -6.8421    0.0000 C   0  0  0  0  0  0  0  0  0  0  0  0
    9.6419   -6.4278    0.0000 C   0  0  0  0  0  0  0  0  0  0  0  0
   10.3574   -6.8385    0.0000 C   0  0  0  0  0  0  0  0  0  0  0  0
   10.3595   -7.6634    0.0000 C   0  0  0  0  0  0  0  0  0  0  0  0
    9.6461   -8.0778    0.0000 C   0  0  0  0  0  0  0  0  0  0  0  0
    8.9306   -7.6671    0.0000 C   0  0  0  0  0  0  0  0  0  0  0  0
    3.9304   -8.0923    0.0000 C   0  0  0  0  0  0  0  0  0  0  0  0
    4.6438   -7.6780    0.0000 O   0  0  0  0  0  0  0  0  0  0  0  0
    4.6480   -9.3280    0.0000 C   0  0  0  0  0  0  0  0  0  0  0  0
    7.5080  -10.1457    0.0000 O   0  0  0  0  0  0  0  0  0  0  0  0
    7.5017   -7.6707    0.0000 O   0  0  0  0  0  0  0  0  0  0  0  0
    6.7882   -8.0850    0.0000 C   0  0  0  0  0  0  0  0  0  0  0  0
    6.0727   -7.6744    0.0000 C   0  0  0  0  0  0  0  0  0  0  0  0
    5.3593   -8.0887    0.0000 C   0  0  0  0  0  0  0  0  0  0  0  0
    5.3614   -8.9137    0.0000 C   0  0  0  0  0  0  0  0  0  0  0  0
    6.0769   -9.3244    0.0000 C   0  0  0  0  0  0  0  0  0  0  0  0
    6.7903   -8.9100    0.0000 C   0  0  0  0  0  0  0  0  0  0  0  0
    7.5059   -9.3207    0.0000 C   0  0  0  0  0  0  0  0  0  0  0  0
    8.2193   -8.9064    0.0000 C   0  0  0  0  0  0  0  0  0  0  0  0
    8.2172   -8.0814    0.0000 C   0  0  0  0  0  0  0  0  0  0  0  0
 18  1  1  0  0  0  0
 22  8  1  0  0  0  0
  5  2  1  0  0  0  0
  8  3  2  0  0  0  0
  4  3  1  0  0  0  0
  5  4  2  0  0  0  0
  6  5  1  0  0  0  0
  7  6  2  0  0  0  0
  8  7  1  0  0  0  0
 16 10  1  0  0  0  0
 10  9  1  0  0  0  0
 17 11  1  0  0  0  0
 20 12  2  0  0  0  0
 22 13  1  0  0  0  0
 14 13  1  0  0  0  0
 19 14  2  0  0  0  0
 15 14  1  0  0  0  0
 16 15  2  0  0  0  0
 17 16  1  0  0  0  0
 18 17  2  0  0  0  0
 19 18  1  0  0  0  0
 20 19  1  0  0  0  0
 21 20  1  0  0  0  0
 22 21  2  0  0  0  0
M  END
>  <cdx:groupId>
157018

>  <cdx:fragmentId>
156953

$$$$
