258536.cdx
  Mrv1902 05222410192D          

 25 27  0  0  0  0            999 V2000
    7.6491   -6.2097    0.0000 O   0  0  0  0  0  0  0  0  0  0  0  0
   10.5070   -6.2097    0.0000 O   0  0  0  0  0  0  0  0  0  0  0  0
   11.2215   -7.4472    0.0000 C   0  0  0  0  0  0  0  0  0  0  0  0
   10.5070   -7.8597    0.0000 O   0  0  0  0  0  0  0  0  0  0  0  0
    9.0781   -7.8597    0.0000 C   0  0  0  0  0  0  0  0  0  0  0  0
    9.7925   -7.4472    0.0000 C   0  0  0  0  0  0  0  0  0  0  0  0
    9.7925   -6.6222    0.0000 C   0  0  0  0  0  0  0  0  0  0  0  0
    9.0781   -6.2097    0.0000 C   0  0  0  0  0  0  0  0  0  0  0  0
    8.3636   -6.6222    0.0000 C   0  0  0  0  0  0  0  0  0  0  0  0
    8.3636   -7.4472    0.0000 C   0  0  0  0  0  0  0  0  0  0  0  0
    5.5057   -9.9222    0.0000 O   0  0  0  0  0  0  0  0  0  0  0  0
    4.0768   -7.4472    0.0000 O   0  0  0  0  0  0  0  0  0  0  0  0
    3.3623   -8.6847    0.0000 C   0  0  0  0  0  0  0  0  0  0  0  0
    4.0768   -9.0972    0.0000 O   0  0  0  0  0  0  0  0  0  0  0  0
    6.9347   -9.9222    0.0000 O   0  0  0  0  0  0  0  0  0  0  0  0
    6.9347   -7.4472    0.0000 O   0  0  0  0  0  0  0  0  0  0  0  0
    6.2202   -7.8597    0.0000 C   0  0  0  0  0  0  0  0  0  0  0  0
    5.5057   -7.4472    0.0000 C   0  0  0  0  0  0  0  0  0  0  0  0
    4.7913   -7.8597    0.0000 C   0  0  0  0  0  0  0  0  0  0  0  0
    4.7913   -8.6847    0.0000 C   0  0  0  0  0  0  0  0  0  0  0  0
    5.5057   -9.0972    0.0000 C   0  0  0  0  0  0  0  0  0  0  0  0
    6.2202   -8.6847    0.0000 C   0  0  0  0  0  0  0  0  0  0  0  0
    6.9347   -9.0972    0.0000 C   0  0  0  0  0  0  0  0  0  0  0  0
    7.6491   -8.6847    0.0000 C   0  0  0  0  0  0  0  0  0  0  0  0
    7.6491   -7.8597    0.0000 C   0  0  0  0  0  0  0  0  0  0  0  0
 25 10  1  0  0  0  0
  9  1  1  0  0  0  0
  7  2  1  0  0  0  0
  6  4  1  0  0  0  0
  4  3  1  0  0  0  0
 10  5  2  0  0  0  0
  6  5  1  0  0  0  0
  7  6  2  0  0  0  0
  8  7  1  0  0  0  0
  9  8  2  0  0  0  0
 10  9  1  0  0  0  0
 21 11  1  0  0  0  0
 19 12  1  0  0  0  0
 20 14  1  0  0  0  0
 14 13  1  0  0  0  0
 23 15  2  0  0  0  0
 25 16  1  0  0  0  0
 17 16  1  0  0  0  0
 22 17  2  0  0  0  0
 18 17  1  0  0  0  0
 19 18  2  0  0  0  0
 20 19  1  0  0  0  0
 21 20  2  0  0  0  0
 22 21  1  0  0  0  0
 23 22  1  0  0  0  0
 24 23  1  0  0  0  0
 25 24  2  0  0  0  0
M  END
>  <cdx:fragmentId>
157029

$$$$
