258781.cdx
  Mrv1902 05222410212D          

 38 41  0  0  0  0            999 V2000
    5.1127  -10.1934    0.0000 O   0  0  0  0  0  0  0  0  0  0  0  0
    5.8206   -8.9521    0.0000 O   0  0  0  0  0  0  0  0  0  0  0  0
    5.1083   -9.3684    0.0000 C   0  0  2  0  0  0  0  0  0  0  0  0
    4.3916   -8.9598    0.0000 C   0  0  1  0  0  0  0  0  0  0  0  0
    4.3872   -8.1348    0.0000 C   0  0  2  0  0  0  0  0  0  0  0  0
    5.0994   -7.7185    0.0000 C   0  0  1  0  0  0  0  0  0  0  0  0
    5.8161   -8.1271    0.0000 C   0  0  1  0  0  0  0  0  0  0  0  0
    6.5284   -7.7108    0.0000 C   0  0  0  0  0  0  0  0  0  0  0  0
    6.5284   -6.8858    0.0000 O   0  0  0  0  0  0  0  0  0  0  0  0
    5.0950   -6.8935    0.0000 O   0  0  0  0  0  0  0  0  0  0  0  0
    3.6705   -7.7261    0.0000 O   0  0  0  0  0  0  0  0  0  0  0  0
    3.6794   -9.3761    0.0000 O   0  0  0  0  0  0  0  0  0  0  0  0
    9.3989  -11.8452    0.0000 O   0  0  0  0  0  0  0  0  0  0  0  0
    6.5407  -12.6690    0.0000 O   0  0  0  0  0  0  0  0  0  0  0  0
    3.6825  -13.4929    0.0000 O   0  0  0  0  0  0  0  0  0  0  0  0
    4.8096  -13.7951    0.0000 C   0  0  0  0  0  0  0  0  0  0  0  0
    3.9846  -12.3662    0.0000 C   0  0  0  0  0  0  0  0  0  0  0  0
    4.3971  -13.0807    0.0000 C   0  0  0  0  0  0  0  0  0  0  0  0
    5.1117  -12.6684    0.0000 C   0  0  0  0  0  0  0  0  0  0  0  0
    5.1121  -11.8434    0.0000 C   0  0  0  0  0  0  0  0  0  0  0  0
   11.5435   -8.9585    0.0000 O   0  0  0  0  0  0  0  0  0  0  0  0
    9.3999   -9.3702    0.0000 C   0  0  0  0  0  0  0  0  0  0  0  0
   10.1145   -8.9579    0.0000 C   0  0  0  0  0  0  0  0  0  0  0  0
   10.8288   -9.3707    0.0000 C   0  0  0  0  0  0  0  0  0  0  0  0
   10.8285  -10.1957    0.0000 C   0  0  0  0  0  0  0  0  0  0  0  0
   10.1139  -10.6079    0.0000 C   0  0  0  0  0  0  0  0  0  0  0  0
    9.3996  -10.1952    0.0000 C   0  0  0  0  0  0  0  0  0  0  0  0
    7.9696  -12.6696    0.0000 O   0  0  0  0  0  0  0  0  0  0  0  0
    7.9706  -10.1946    0.0000 O   0  0  0  0  0  0  0  0  0  0  0  0
    7.2560  -10.6068    0.0000 C   0  0  0  0  0  0  0  0  0  0  0  0
    6.5417  -10.1940    0.0000 C   0  0  0  0  0  0  0  0  0  0  0  0
    5.8270  -10.6062    0.0000 C   0  0  0  0  0  0  0  0  0  0  0  0
    5.8267  -11.4312    0.0000 C   0  0  0  0  0  0  0  0  0  0  0  0
    6.5410  -11.8440    0.0000 C   0  0  0  0  0  0  0  0  0  0  0  0
    7.2557  -11.4318    0.0000 C   0  0  0  0  0  0  0  0  0  0  0  0
    7.9700  -11.8446    0.0000 C   0  0  0  0  0  0  0  0  0  0  0  0
    8.6846  -11.4324    0.0000 C   0  0  0  0  0  0  0  0  0  0  0  0
    8.6849  -10.6074    0.0000 C   0  0  0  0  0  0  0  0  0  0  0  0
 37 13  1  0  0  0  0
 34 14  1  0  0  0  0
 33 20  1  0  0  0  0
 18 15  1  0  0  0  0
 18 16  1  0  0  0  0
 18 17  1  0  0  0  0
 19 18  1  0  0  0  0
 20 19  1  0  0  0  0
 38 27  1  0  0  0  0
 24 21  1  0  0  0  0
 27 22  2  0  0  0  0
 23 22  1  0  0  0  0
 24 23  2  0  0  0  0
 25 24  1  0  0  0  0
 26 25  2  0  0  0  0
 27 26  1  0  0  0  0
 32  1  1  0  0  0  0
 36 28  2  0  0  0  0
 38 29  1  0  0  0  0
 30 29  1  0  0  0  0
 35 30  2  0  0  0  0
 31 30  1  0  0  0  0
 32 31  2  0  0  0  0
 33 32  1  0  0  0  0
 34 33  2  0  0  0  0
 35 34  1  0  0  0  0
 36 35  1  0  0  0  0
 37 36  1  0  0  0  0
 38 37  2  0  0  0  0
  2  3  1  0  0  0  0
  3  4  1  0  0  0  0
  4  5  1  0  0  0  0
  5  6  1  0  0  0  0
  6  7  1  0  0  0  0
  2  7  1  0  0  0  0
  8  9  1  0  0  0  0
  7  8  1  1  0  0  0
  6 10  1  6  0  0  0
  5 11  1  1  0  0  0
  4 12  1  6  0  0  0
  3  1  1  1  0  0  0
M  END
>  <cdx:groupId>
157228

>  <cdx:fragmentId>
157138

$$$$
