258787.cdx
  Mrv1902 05222410232D          

 48 52  0  0  0  0            999 V2000
    7.3462   -9.1810    0.0000 O   0  0  0  0  0  0  0  0  0  0  0  0
   12.3611   -5.4869    0.0000 O   0  0  0  0  0  0  0  0  0  0  0  0
   10.2162   -5.8915    0.0000 C   0  0  0  0  0  0  0  0  0  0  0  0
   10.9322   -5.4816    0.0000 C   0  0  0  0  0  0  0  0  0  0  0  0
   11.6452   -5.8968    0.0000 C   0  0  0  0  0  0  0  0  0  0  0  0
   11.6421   -6.7217    0.0000 C   0  0  0  0  0  0  0  0  0  0  0  0
   10.9261   -7.1316    0.0000 C   0  0  0  0  0  0  0  0  0  0  0  0
   10.2132   -6.7165    0.0000 C   0  0  0  0  0  0  0  0  0  0  0  0
    5.9355   -4.2257    0.0000 C   0  0  0  0  0  0  0  0  0  0  0  0
    7.3644   -4.2310    0.0000 C   0  0  0  0  0  0  0  0  0  0  0  0
    6.6485   -4.6409    0.0000 C   0  0  0  0  0  0  0  0  0  0  0  0
    6.6454   -5.4658    0.0000 C   0  0  0  0  0  0  0  0  0  0  0  0
    7.3584   -5.8810    0.0000 C   0  0  0  0  0  0  0  0  0  0  0  0
    5.9203   -8.3507    0.0000 O   0  0  0  0  0  0  0  0  0  0  0  0
    4.4884   -9.1704    0.0000 O   0  0  0  0  0  0  0  0  0  0  0  0
    3.0625   -8.3402    0.0000 O   0  0  0  0  0  0  0  0  0  0  0  0
    2.3526   -7.1001    0.0000 O   0  0  0  0  0  0  0  0  0  0  0  0
    3.0685   -6.6902    0.0000 C   0  0  0  0  0  0  0  0  0  0  0  0
    3.7815   -7.1053    0.0000 C   0  0  2  0  0  0  0  0  0  0  0  0
    3.7784   -7.9303    0.0000 C   0  0  2  0  0  0  0  0  0  0  0  0
    4.4914   -8.3454    0.0000 C   0  0  1  0  0  0  0  0  0  0  0  0
    5.2074   -7.9356    0.0000 C   0  0  2  0  0  0  0  0  0  0  0  0
    5.2104   -7.1106    0.0000 C   0  0  1  0  0  0  0  0  0  0  0  0
    4.4975   -6.6955    0.0000 O   0  0  0  0  0  0  0  0  0  0  0  0
    5.9264   -6.7007    0.0000 O   0  0  0  0  0  0  0  0  0  0  0  0
   11.6330   -9.1967    0.0000 O   0  0  0  0  0  0  0  0  0  0  0  0
   11.6269  -10.8467    0.0000 O   0  0  0  0  0  0  0  0  0  0  0  0
   10.1950  -11.6665    0.0000 O   0  0  0  0  0  0  0  0  0  0  0  0
    8.7691  -11.6612    0.0000 O   0  0  0  0  0  0  0  0  0  0  0  0
    8.7691  -10.8362    0.0000 C   0  0  0  0  0  0  0  0  0  0  0  0
    9.4851  -10.4263    0.0000 C   0  0  2  0  0  0  0  0  0  0  0  0
   10.1980  -10.8415    0.0000 C   0  0  2  0  0  0  0  0  0  0  0  0
   10.9140  -10.4316    0.0000 C   0  0  1  0  0  0  0  0  0  0  0  0
   10.9170   -9.6066    0.0000 C   0  0  2  0  0  0  0  0  0  0  0  0
   10.2041   -9.1915    0.0000 C   0  0  1  0  0  0  0  0  0  0  0  0
    9.4881   -9.6013    0.0000 O   0  0  0  0  0  0  0  0  0  0  0  0
   10.2071   -8.3665    0.0000 O   0  0  0  0  0  0  0  0  0  0  0  0
    8.7752   -9.1862    0.0000 O   0  0  0  0  0  0  0  0  0  0  0  0
    8.7843   -6.7112    0.0000 O   0  0  0  0  0  0  0  0  0  0  0  0
    8.0683   -7.1211    0.0000 C   0  0  0  0  0  0  0  0  0  0  0  0
    7.3553   -6.7060    0.0000 C   0  0  0  0  0  0  0  0  0  0  0  0
    6.6393   -7.1158    0.0000 C   0  0  0  0  0  0  0  0  0  0  0  0
    6.6363   -7.9408    0.0000 C   0  0  0  0  0  0  0  0  0  0  0  0
    7.3493   -8.3560    0.0000 C   0  0  0  0  0  0  0  0  0  0  0  0
    8.0652   -7.9461    0.0000 C   0  0  0  0  0  0  0  0  0  0  0  0
    8.7782   -8.3612    0.0000 C   0  0  0  0  0  0  0  0  0  0  0  0
    9.4942   -7.9513    0.0000 C   0  0  0  0  0  0  0  0  0  0  0  0
    9.4972   -7.1264    0.0000 C   0  0  0  0  0  0  0  0  0  0  0  0
 44  1  1  0  0  0  0
 48  8  1  0  0  0  0
  5  2  1  0  0  0  0
  8  3  2  0  0  0  0
  4  3  1  0  0  0  0
  5  4  2  0  0  0  0
  6  5  1  0  0  0  0
  7  6  2  0  0  0  0
  8  7  1  0  0  0  0
 41 13  1  0  0  0  0
 11  9  1  0  0  0  0
 11 10  1  0  0  0  0
 12 11  2  0  0  0  0
 13 12  1  0  0  0  0
 42 25  1  0  0  0  0
 23 25  1  1  0  0  0
 22 14  1  6  0  0  0
 21 15  1  1  0  0  0
 20 16  1  6  0  0  0
 19 18  1  1  0  0  0
 18 17  1  0  0  0  0
 24 19  1  0  0  0  0
 20 19  1  0  0  0  0
 21 20  1  0  0  0  0
 22 21  1  0  0  0  0
 23 22  1  0  0  0  0
 24 23  1  0  0  0  0
 47 37  1  0  0  0  0
 35 37  1  1  0  0  0
 34 26  1  6  0  0  0
 33 27  1  1  0  0  0
 32 28  1  6  0  0  0
 31 30  1  1  0  0  0
 30 29  1  0  0  0  0
 36 31  1  0  0  0  0
 32 31  1  0  0  0  0
 33 32  1  0  0  0  0
 34 33  1  0  0  0  0
 35 34  1  0  0  0  0
 36 35  1  0  0  0  0
 46 38  2  0  0  0  0
 48 39  1  0  0  0  0
 40 39  1  0  0  0  0
 45 40  2  0  0  0  0
 41 40  1  0  0  0  0
 42 41  2  0  0  0  0
 43 42  1  0  0  0  0
 44 43  2  0  0  0  0
 45 44  1  0  0  0  0
 46 45  1  0  0  0  0
 47 46  1  0  0  0  0
 48 47  2  0  0  0  0
M  END
>  <cdx:groupId>
157390

>  <cdx:fragmentId>
157269

$$$$
