258880.cdx
  Mrv1902 05222410272D          

 45 49  0  0  0  0            999 V2000
    6.6000   -9.1591    0.0000 C   0  0  1  0  0  0  0  0  0  0  0  0
    7.3189   -9.5639    0.0000 C   0  0  1  0  0  0  0  0  0  0  0  0
    8.0289   -9.1437    0.0000 C   0  0  2  0  0  0  0  0  0  0  0  0
    8.0200   -8.3187    0.0000 C   0  0  1  0  0  0  0  0  0  0  0  0
    7.3011   -7.9140    0.0000 O   0  0  0  0  0  0  0  0  0  0  0  0
    6.5911   -8.3341    0.0000 C   0  0  2  0  0  0  0  0  0  0  0  0
    8.7300   -7.8986    0.0000 O   0  0  0  0  0  0  0  0  0  0  0  0
    9.4488   -8.3034    0.0000 C   0  0  0  0  0  0  0  0  0  0  0  0
   10.1588   -7.8832    0.0000 C   0  0  0  0  0  0  0  0  0  0  0  0
    9.4577   -9.1283    0.0000 O   0  0  0  0  0  0  0  0  0  0  0  0
   10.8820   -8.2802    0.0000 C   0  0  0  0  0  0  0  0  0  0  0  0
   11.5874   -7.8524    0.0000 C   0  0  0  0  0  0  0  0  0  0  0  0
   11.5874   -7.0276    0.0000 C   0  0  0  0  0  0  0  0  0  0  0  0
   10.8820   -6.6306    0.0000 C   0  0  0  0  0  0  0  0  0  0  0  0
   10.1588   -7.0584    0.0000 C   0  0  0  0  0  0  0  0  0  0  0  0
   10.8731   -5.8056    0.0000 O   0  0  0  0  0  0  0  0  0  0  0  0
   12.2996   -6.6112    0.0000 O   0  0  0  0  0  0  0  0  0  0  0  0
   12.3063   -8.2572    0.0000 O   0  0  0  0  0  0  0  0  0  0  0  0
    5.3879  -13.2290    0.0000 O   0  0  0  0  0  0  0  0  0  0  0  0
    3.9544  -12.4119    0.0000 O   0  0  0  0  0  0  0  0  0  0  0  0
    3.9453  -10.7619    0.0000 O   0  0  0  0  0  0  0  0  0  0  0  0
    4.6620  -11.1705    0.0000 C   0  0  0  0  0  0  0  0  0  0  0  0
    4.6666  -11.9955    0.0000 C   0  0  0  0  0  0  0  0  0  0  0  0
    5.3833  -12.4040    0.0000 C   0  0  0  0  0  0  0  0  0  0  0  0
    6.0955  -11.9876    0.0000 C   0  0  0  0  0  0  0  0  0  0  0  0
    6.0910  -11.1626    0.0000 C   0  0  0  0  0  0  0  0  0  0  0  0
    5.3742  -10.7541    0.0000 C   0  0  0  0  0  0  0  0  0  0  0  0
    5.8722   -7.9294    0.0000 C   0  0  0  0  0  0  0  0  0  0  0  0
    5.1645   -8.3533    0.0000 O   0  0  0  0  0  0  0  0  0  0  0  0
    4.4435   -7.9523    0.0000 C   0  0  0  0  0  0  0  0  0  0  0  0
    3.7357   -8.3763    0.0000 C   0  0  0  0  0  0  0  0  0  0  0  0
    4.4302   -7.1274    0.0000 O   0  0  0  0  0  0  0  0  0  0  0  0
    3.0105   -7.9831    0.0000 C   0  0  0  0  0  0  0  0  0  0  0  0
    2.3073   -8.4146    0.0000 C   0  0  0  0  0  0  0  0  0  0  0  0
    2.3117   -9.2394    0.0000 C   0  0  0  0  0  0  0  0  0  0  0  0
    3.0192   -9.6327    0.0000 C   0  0  0  0  0  0  0  0  0  0  0  0
    3.7401   -9.2011    0.0000 C   0  0  0  0  0  0  0  0  0  0  0  0
    1.5863   -8.0137    0.0000 O   0  0  0  0  0  0  0  0  0  0  0  0
    3.0325  -10.4576    0.0000 O   0  0  0  0  0  0  0  0  0  0  0  0
    1.6017   -9.6596    0.0000 O   0  0  0  0  0  0  0  0  0  0  0  0
    8.7477   -9.5485    0.0000 O   0  0  0  0  0  0  0  0  0  0  0  0
    5.8900   -9.5793    0.0000 O   0  0  0  0  0  0  0  0  0  0  0  0
    7.3278  -10.3888    0.0000 O   0  0  0  0  0  0  0  0  0  0  0  0
    6.9454  -11.1199    0.0000 C   0  0  0  0  0  0  0  0  0  0  0  0
    7.3873  -11.8165    0.0000 O   0  0  0  0  0  0  0  0  0  0  0  0
  1  2  1  0  0  0  0
  2  3  1  0  0  0  0
  3  4  1  0  0  0  0
  4  5  1  0  0  0  0
  5  6  1  0  0  0  0
  6  1  1  0  0  0  0
  4  7  1  1  0  0  0
  6 28  1  1  0  0  0
  7  8  1  0  0  0  0
  8  9  1  0  0  0  0
  8 10  2  0  0  0  0
  9 11  2  0  0  0  0
 11 12  1  0  0  0  0
 12 13  2  0  0  0  0
 13 14  1  0  0  0  0
 14 15  2  0  0  0  0
 15  9  1  0  0  0  0
 14 16  1  0  0  0  0
 13 17  1  0  0  0  0
 12 18  1  0  0  0  0
 24 19  1  0  0  0  0
 23 20  1  0  0  0  0
 22 21  1  0  0  0  0
 22 27  1  0  0  0  0
 23 22  2  0  0  0  0
 24 23  1  0  0  0  0
 25 24  2  0  0  0  0
 26 25  1  0  0  0  0
 27 26  2  0  0  0  0
 28 29  1  0  0  0  0
 29 30  1  0  0  0  0
 30 31  1  0  0  0  0
 30 32  2  0  0  0  0
 31 33  2  0  0  0  0
 33 34  1  0  0  0  0
 34 35  2  0  0  0  0
 35 36  1  0  0  0  0
 36 37  2  0  0  0  0
 37 31  1  0  0  0  0
 34 38  1  0  0  0  0
 36 39  1  0  0  0  0
 35 40  1  0  0  0  0
  3 41  1  6  0  0  0
  1 42  1  6  0  0  0
  2 43  1  1  0  0  0
 43 44  1  0  0  0  0
 44 45  2  0  0  0  0
 26 44  1  0  0  0  0
 37 27  1  0  0  0  0
M  END
>  <cdx:fragmentId>
46

$$$$
