259070.cdx
  Mrv1902 05222410212D          

 51 55  0  0  0  0            999 V2000
    4.3696  -10.1457    0.0000 O   0  0  0  0  0  0  0  0  0  0  0  0
    2.9744   -7.6515    0.0000 O   0  0  0  0  0  0  0  0  0  0  0  0
   10.1297   -6.9238    0.0000 C   0  0  0  0  0  0  0  0  0  0  0  0
    9.4209   -6.5016    0.0000 O   0  0  0  0  0  0  0  0  0  0  0  0
    7.2721   -6.8849    0.0000 C   0  0  0  0  0  0  0  0  0  0  0  0
    7.9921   -6.4822    0.0000 C   0  0  0  0  0  0  0  0  0  0  0  0
    8.7009   -6.9044    0.0000 C   0  0  0  0  0  0  0  0  0  0  0  0
    8.6897   -7.7293    0.0000 C   0  0  0  0  0  0  0  0  0  0  0  0
    7.9697   -8.1320    0.0000 C   0  0  0  0  0  0  0  0  0  0  0  0
    7.2609   -7.7098    0.0000 C   0  0  0  0  0  0  0  0  0  0  0  0
    3.0081   -5.1767    0.0000 C   0  0  0  0  0  0  0  0  0  0  0  0
    4.4369   -5.1962    0.0000 C   0  0  0  0  0  0  0  0  0  0  0  0
    3.7169   -5.5989    0.0000 C   0  0  0  0  0  0  0  0  0  0  0  0
    3.7057   -6.4238    0.0000 C   0  0  0  0  0  0  0  0  0  0  0  0
    4.4145   -6.8460    0.0000 C   0  0  0  0  0  0  0  0  0  0  0  0
    5.7984  -10.1652    0.0000 O   0  0  0  0  0  0  0  0  0  0  0  0
    5.8321   -7.6904    0.0000 O   0  0  0  0  0  0  0  0  0  0  0  0
    5.1120   -8.0931    0.0000 C   0  0  0  0  0  0  0  0  0  0  0  0
    4.4033   -7.6709    0.0000 C   0  0  0  0  0  0  0  0  0  0  0  0
    3.6832   -8.0737    0.0000 C   0  0  0  0  0  0  0  0  0  0  0  0
    3.6720   -8.8986    0.0000 C   0  0  0  0  0  0  0  0  0  0  0  0
    4.3808   -9.3208    0.0000 C   0  0  0  0  0  0  0  0  0  0  0  0
    5.1008   -8.9181    0.0000 C   0  0  0  0  0  0  0  0  0  0  0  0
    5.8096   -9.3402    0.0000 C   0  0  0  0  0  0  0  0  0  0  0  0
    6.5296   -8.9375    0.0000 C   0  0  0  0  0  0  0  0  0  0  0  0
    6.5408   -8.1126    0.0000 C   0  0  0  0  0  0  0  0  0  0  0  0
    7.2384   -9.3597    0.0000 O   0  0  0  0  0  0  0  0  0  0  0  0
    7.1935  -12.6594    0.0000 O   0  0  0  0  0  0  0  0  0  0  0  0
    5.7759  -11.8150    0.0000 C   0  0  0  0  0  0  0  0  0  0  0  0
   10.0960   -9.3986    0.0000 O   0  0  0  0  0  0  0  0  0  0  0  0
   11.5136  -10.2430    0.0000 O   0  0  0  0  0  0  0  0  0  0  0  0
   11.4911  -11.8928    0.0000 O   0  0  0  0  0  0  0  0  0  0  0  0
   10.7599  -13.1205    0.0000 O   0  0  0  0  0  0  0  0  0  0  0  0
   10.0511  -12.6983    0.0000 C   0  0  0  0  0  0  0  0  0  0  0  0
   10.0623  -11.8734    0.0000 C   0  0  2  0  0  0  0  0  0  0  0  0
   10.7824  -11.4706    0.0000 C   0  0  2  0  0  0  0  0  0  0  0  0
   10.7936  -10.6457    0.0000 C   0  0  1  0  0  0  0  0  0  0  0  0
   10.0848  -10.2235    0.0000 C   0  0  2  0  0  0  0  0  0  0  0  0
    9.3648  -10.6263    0.0000 C   0  0  1  0  0  0  0  0  0  0  0  0
    9.3535  -11.4512    0.0000 O   0  0  0  0  0  0  0  0  0  0  0  0
    8.6560  -10.2041    0.0000 O   0  0  0  0  0  0  0  0  0  0  0  0
    6.4959  -11.4123    0.0000 C   0  0  1  0  0  0  0  0  0  0  0  0
    7.2047  -11.8345    0.0000 C   0  0  1  0  0  0  0  0  0  0  0  0
    7.9247  -11.4317    0.0000 C   0  0  2  0  0  0  0  0  0  0  0  0
    7.9360  -10.6068    0.0000 C   0  0  2  0  0  0  0  0  0  0  0  0
    7.2272  -10.1846    0.0000 C   0  0  1  0  0  0  0  0  0  0  0  0
    6.5072  -10.5874    0.0000 O   0  0  0  0  0  0  0  0  0  0  0  0
    8.6335  -11.8539    0.0000 O   0  0  0  0  0  0  0  0  0  0  0  0
    7.9023  -13.0816    0.0000 O   0  0  0  0  0  0  0  0  0  0  0  0
    9.3311  -13.1010    0.0000 C   0  0  0  0  0  0  0  0  0  0  0  0
    8.6223  -12.6788    0.0000 C   0  0  0  0  0  0  0  0  0  0  0  0
 44 48  1  6  0  0  0
 46 27  1  1  0  0  0
 27 25  1  0  0  0  0
 22  1  1  0  0  0  0
 20  2  1  0  0  0  0
 26 10  1  0  0  0  0
  7  4  1  0  0  0  0
  4  3  1  0  0  0  0
 10  5  2  0  0  0  0
  6  5  1  0  0  0  0
  7  6  2  0  0  0  0
  8  7  1  0  0  0  0
  9  8  2  0  0  0  0
 10  9  1  0  0  0  0
 19 15  1  0  0  0  0
 13 11  1  0  0  0  0
 13 12  1  0  0  0  0
 14 13  2  0  0  0  0
 15 14  1  0  0  0  0
 24 16  2  0  0  0  0
 26 17  1  0  0  0  0
 18 17  1  0  0  0  0
 23 18  2  0  0  0  0
 19 18  1  0  0  0  0
 20 19  2  0  0  0  0
 21 20  1  0  0  0  0
 22 21  2  0  0  0  0
 23 22  1  0  0  0  0
 24 23  1  0  0  0  0
 25 24  1  0  0  0  0
 26 25  2  0  0  0  0
 43 28  1  1  0  0  0
 42 29  1  6  0  0  0
 45 41  1  6  0  0  0
 39 41  1  1  0  0  0
 38 30  1  6  0  0  0
 37 31  1  1  0  0  0
 36 32  1  6  0  0  0
 35 34  1  1  0  0  0
 34 33  1  0  0  0  0
 40 35  1  0  0  0  0
 36 35  1  0  0  0  0
 37 36  1  0  0  0  0
 38 37  1  0  0  0  0
 39 38  1  0  0  0  0
 40 39  1  0  0  0  0
 47 42  1  0  0  0  0
 43 42  1  0  0  0  0
 44 43  1  0  0  0  0
 45 44  1  0  0  0  0
 46 45  1  0  0  0  0
 47 46  1  0  0  0  0
 51 48  1  0  0  0  0
 51 49  2  0  0  0  0
 51 50  1  0  0  0  0
M  END
>  <cdx:groupId>
158080

>  <cdx:fragmentId>
157976

$$$$
