259076.cdx
  Mrv1902 05222410232D          

 65 70  0  0  0  0            999 V2000
    7.9932  -15.3381    0.0000 C   0  0  0  0  0  0  0  0  0  0  0  0
    7.9846  -16.1630    0.0000 C   0  0  0  0  0  0  0  0  0  0  0  0
    7.2831  -14.9181    0.0000 O   0  0  0  0  0  0  0  0  0  0  0  0
    8.7378  -12.4582    0.0000 O   0  0  0  0  0  0  0  0  0  0  0  0
    8.0191  -12.8632    0.0000 C   0  0  0  0  0  0  0  0  0  0  0  0
    8.0104  -13.6882    0.0000 O   0  0  0  0  0  0  0  0  0  0  0  0
    8.7119  -14.9331    0.0000 O   0  0  0  0  0  0  0  0  0  0  0  0
    8.7206  -14.1081    0.0000 C   0  0  0  0  0  0  0  0  0  0  0  0
    9.4479  -12.8781    0.0000 O   0  0  0  0  0  0  0  0  0  0  0  0
    9.4393  -13.7031    0.0000 C   0  0  1  0  0  0  0  0  0  0  0  0
   10.1494  -14.1230    0.0000 C   0  0  2  0  0  0  0  0  0  0  0  0
   10.8682  -13.7180    0.0000 C   0  0  1  0  0  0  0  0  0  0  0  0
   10.8768  -12.8931    0.0000 C   0  0  2  0  0  0  0  0  0  0  0  0
   10.1667  -12.4731    0.0000 C   0  0  2  0  0  0  0  0  0  0  0  0
   11.5955  -12.4881    0.0000 O   0  0  0  0  0  0  0  0  0  0  0  0
   11.5783  -14.1380    0.0000 O   0  0  0  0  0  0  0  0  0  0  0  0
   10.1408  -14.9480    0.0000 O   0  0  0  0  0  0  0  0  0  0  0  0
   10.1753  -11.6482    0.0000 O   0  0  0  0  0  0  0  0  0  0  0  0
    7.3089  -12.4433    0.0000 C   0  0  0  0  0  0  0  0  0  0  0  0
   10.1925   -9.9983    0.0000 O   0  0  0  0  0  0  0  0  0  0  0  0
    5.9059   -9.9535    0.0000 O   0  0  0  0  0  0  0  0  0  0  0  0
   11.6559   -6.7134    0.0000 C   0  0  0  0  0  0  0  0  0  0  0  0
   10.9457   -6.2934    0.0000 O   0  0  0  0  0  0  0  0  0  0  0  0
    8.7981   -6.6835    0.0000 C   0  0  0  0  0  0  0  0  0  0  0  0
    9.5169   -6.2785    0.0000 C   0  0  0  0  0  0  0  0  0  0  0  0
   10.2270   -6.6984    0.0000 C   0  0  0  0  0  0  0  0  0  0  0  0
   10.2184   -7.5234    0.0000 C   0  0  0  0  0  0  0  0  0  0  0  0
    9.4996   -7.9284    0.0000 C   0  0  0  0  0  0  0  0  0  0  0  0
    8.7895   -7.5085    0.0000 C   0  0  0  0  0  0  0  0  0  0  0  0
    4.5288   -4.9888    0.0000 C   0  0  0  0  0  0  0  0  0  0  0  0
    5.9576   -5.0038    0.0000 C   0  0  0  0  0  0  0  0  0  0  0  0
    5.2389   -5.4088    0.0000 C   0  0  0  0  0  0  0  0  0  0  0  0
    5.2303   -6.2337    0.0000 C   0  0  0  0  0  0  0  0  0  0  0  0
    5.9404   -6.6537    0.0000 C   0  0  0  0  0  0  0  0  0  0  0  0
    7.3348   -9.9684    0.0000 O   0  0  0  0  0  0  0  0  0  0  0  0
    4.4857   -9.1136    0.0000 O   0  0  0  0  0  0  0  0  0  0  0  0
    3.0482   -9.9236    0.0000 O   0  0  0  0  0  0  0  0  0  0  0  0
    1.6280   -9.0838    0.0000 O   0  0  0  0  0  0  0  0  0  0  0  0
    0.9264   -7.8389    0.0000 O   0  0  0  0  0  0  0  0  0  0  0  0
    1.6452   -7.4338    0.0000 C   0  0  0  0  0  0  0  0  0  0  0  0
    2.3553   -7.8538    0.0000 C   0  0  2  0  0  0  0  0  0  0  0  0
    2.3467   -8.6787    0.0000 C   0  0  2  0  0  0  0  0  0  0  0  0
    3.0568   -9.0987    0.0000 C   0  0  1  0  0  0  0  0  0  0  0  0
    3.7756   -8.6937    0.0000 C   0  0  2  0  0  0  0  0  0  0  0  0
    3.7842   -7.8687    0.0000 C   0  0  1  0  0  0  0  0  0  0  0  0
    3.0741   -7.4488    0.0000 O   0  0  0  0  0  0  0  0  0  0  0  0
    4.5029   -7.4637    0.0000 O   0  0  0  0  0  0  0  0  0  0  0  0
    7.3606   -7.4935    0.0000 O   0  0  0  0  0  0  0  0  0  0  0  0
    6.6419   -7.8986    0.0000 C   0  0  0  0  0  0  0  0  0  0  0  0
    5.9318   -7.4786    0.0000 C   0  0  0  0  0  0  0  0  0  0  0  0
    5.2130   -7.8836    0.0000 C   0  0  0  0  0  0  0  0  0  0  0  0
    5.2044   -8.7086    0.0000 C   0  0  0  0  0  0  0  0  0  0  0  0
    5.9145   -9.1285    0.0000 C   0  0  0  0  0  0  0  0  0  0  0  0
    6.6333   -8.7235    0.0000 C   0  0  0  0  0  0  0  0  0  0  0  0
    7.3434   -9.1435    0.0000 C   0  0  0  0  0  0  0  0  0  0  0  0
    8.0621   -8.7384    0.0000 C   0  0  0  0  0  0  0  0  0  0  0  0
    8.0708   -7.9135    0.0000 C   0  0  0  0  0  0  0  0  0  0  0  0
    8.7723   -9.1584    0.0000 O   0  0  0  0  0  0  0  0  0  0  0  0
    7.3176  -11.6183    0.0000 C   0  0  0  0  0  0  0  0  0  0  0  0
    8.0363  -11.2133    0.0000 C   0  0  1  0  0  0  0  0  0  0  0  0
    8.7464  -11.6332    0.0000 C   0  0  1  0  0  0  0  0  0  0  0  0
    9.4652  -11.2282    0.0000 C   0  0  2  0  0  0  0  0  0  0  0  0
    9.4738  -10.4033    0.0000 C   0  0  2  0  0  0  0  0  0  0  0  0
    8.7637   -9.9833    0.0000 C   0  0  1  0  0  0  0  0  0  0  0  0
    8.0449  -10.3884    0.0000 O   0  0  0  0  0  0  0  0  0  0  0  0
 62 18  1  6  0  0  0
 61  4  1  1  0  0  0
 63 20  1  6  0  0  0
 64 58  1  1  0  0  0
 58 56  1  0  0  0  0
 53 21  1  0  0  0  0
 57 29  1  0  0  0  0
 26 23  1  0  0  0  0
 23 22  1  0  0  0  0
 29 24  2  0  0  0  0
 25 24  1  0  0  0  0
 26 25  2  0  0  0  0
 27 26  1  0  0  0  0
 28 27  2  0  0  0  0
 29 28  1  0  0  0  0
 50 34  1  0  0  0  0
 32 30  1  0  0  0  0
 32 31  1  0  0  0  0
 33 32  2  0  0  0  0
 34 33  1  0  0  0  0
 55 35  2  0  0  0  0
 51 47  1  0  0  0  0
 45 47  1  1  0  0  0
 44 36  1  6  0  0  0
 43 37  1  1  0  0  0
 42 38  1  6  0  0  0
 41 40  1  1  0  0  0
 40 39  1  0  0  0  0
 46 41  1  0  0  0  0
 42 41  1  0  0  0  0
 43 42  1  0  0  0  0
 44 43  1  0  0  0  0
 45 44  1  0  0  0  0
 46 45  1  0  0  0  0
 57 48  1  0  0  0  0
 49 48  1  0  0  0  0
 54 49  2  0  0  0  0
 50 49  1  0  0  0  0
 51 50  2  0  0  0  0
 52 51  1  0  0  0  0
 53 52  2  0  0  0  0
 54 53  1  0  0  0  0
 55 54  1  0  0  0  0
 56 55  1  0  0  0  0
 57 56  2  0  0  0  0
 60 59  1  6  0  0  0
 65 60  1  0  0  0  0
 61 60  1  0  0  0  0
 62 61  1  0  0  0  0
 63 62  1  0  0  0  0
 64 63  1  0  0  0  0
 65 64  1  0  0  0  0
  5  6  2  0  0  0  0
  5 19  1  0  0  0  0
  4  5  1  0  0  0  0
  1  2  1  0  0  0  0
  1  3  2  0  0  0  0
  1  7  1  0  0  0  0
  9 10  1  0  0  0  0
 10 11  1  0  0  0  0
 11 12  1  0  0  0  0
 12 13  1  0  0  0  0
 13 14  1  0  0  0  0
  9 14  1  0  0  0  0
 13 15  1  6  0  0  0
 12 16  1  1  0  0  0
 11 17  1  6  0  0  0
 14 18  1  1  0  0  0
 10  8  1  1  0  0  0
  7  8  1  0  0  0  0
M  END
>  <cdx:groupId>
158294

>  <cdx:fragmentId>
158165

$$$$
