259065.cdx
  Mrv1902 05222410212D          

 59 64  0  0  0  0            999 V2000
   10.2554  -11.4132    0.0000 O   0  0  0  0  0  0  0  0  0  0  0  0
    9.5496  -12.6556    0.0000 O   0  0  0  0  0  0  0  0  0  0  0  0
   10.2612  -12.2382    0.0000 C   0  0  2  0  0  0  0  0  0  0  0  0
   10.9785  -12.6457    0.0000 C   0  0  1  0  0  0  0  0  0  0  0  0
   10.9843  -13.4706    0.0000 C   0  0  2  0  0  0  0  0  0  0  0  0
   10.2727  -13.8881    0.0000 C   0  0  1  0  0  0  0  0  0  0  0  0
    9.5554  -13.4806    0.0000 C   0  0  1  0  0  0  0  0  0  0  0  0
    8.8438  -13.8981    0.0000 C   0  0  0  0  0  0  0  0  0  0  0  0
    8.8496  -14.7231    0.0000 O   0  0  0  0  0  0  0  0  0  0  0  0
   10.2785  -14.7131    0.0000 O   0  0  0  0  0  0  0  0  0  0  0  0
   11.7016  -13.8781    0.0000 O   0  0  0  0  0  0  0  0  0  0  0  0
   11.6901  -12.2282    0.0000 O   0  0  0  0  0  0  0  0  0  0  0  0
   10.2439   -9.7632    0.0000 O   0  0  0  0  0  0  0  0  0  0  0  0
    8.8323  -12.2481    0.0000 O   0  0  0  0  0  0  0  0  0  0  0  0
    7.3976  -11.4331    0.0000 C   0  0  0  0  0  0  0  0  0  0  0  0
    8.1092  -11.0157    0.0000 C   0  0  1  0  0  0  0  0  0  0  0  0
    8.8265  -11.4232    0.0000 C   0  0  1  0  0  0  0  0  0  0  0  0
    9.5381  -11.0057    0.0000 C   0  0  2  0  0  0  0  0  0  0  0  0
    9.5323  -10.1807    0.0000 C   0  0  2  0  0  0  0  0  0  0  0  0
    8.8150   -9.7732    0.0000 C   0  0  1  0  0  0  0  0  0  0  0  0
    8.1034  -10.1907    0.0000 O   0  0  0  0  0  0  0  0  0  0  0  0
    8.8093   -8.9482    0.0000 O   0  0  0  0  0  0  0  0  0  0  0  0
    5.9572   -9.7932    0.0000 O   0  0  0  0  0  0  0  0  0  0  0  0
   11.6498   -6.4533    0.0000 C   0  0  0  0  0  0  0  0  0  0  0  0
   10.9325   -6.0458    0.0000 O   0  0  0  0  0  0  0  0  0  0  0  0
    8.7920   -6.4733    0.0000 C   0  0  0  0  0  0  0  0  0  0  0  0
    9.5035   -6.0558    0.0000 C   0  0  0  0  0  0  0  0  0  0  0  0
   10.2209   -6.4633    0.0000 C   0  0  0  0  0  0  0  0  0  0  0  0
   10.2266   -7.2883    0.0000 C   0  0  0  0  0  0  0  0  0  0  0  0
    9.5151   -7.7058    0.0000 C   0  0  0  0  0  0  0  0  0  0  0  0
    8.7977   -7.2983    0.0000 C   0  0  0  0  0  0  0  0  0  0  0  0
    4.4937   -4.8533    0.0000 C   0  0  0  0  0  0  0  0  0  0  0  0
    5.9226   -4.8433    0.0000 C   0  0  0  0  0  0  0  0  0  0  0  0
    5.2111   -5.2608    0.0000 C   0  0  0  0  0  0  0  0  0  0  0  0
    5.2168   -6.0857    0.0000 C   0  0  0  0  0  0  0  0  0  0  0  0
    5.9342   -6.4932    0.0000 C   0  0  0  0  0  0  0  0  0  0  0  0
    4.5225   -8.9782    0.0000 O   0  0  0  0  0  0  0  0  0  0  0  0
    3.0994   -9.8131    0.0000 O   0  0  0  0  0  0  0  0  0  0  0  0
    1.6647   -8.9981    0.0000 O   0  0  0  0  0  0  0  0  0  0  0  0
    0.9416   -7.7656    0.0000 O   0  0  0  0  0  0  0  0  0  0  0  0
    1.6532   -7.3482    0.0000 C   0  0  0  0  0  0  0  0  0  0  0  0
    2.3705   -7.7557    0.0000 C   0  0  2  0  0  0  0  0  0  0  0  0
    2.3763   -8.5806    0.0000 C   0  0  2  0  0  0  0  0  0  0  0  0
    3.0936   -8.9881    0.0000 C   0  0  1  0  0  0  0  0  0  0  0  0
    3.8052   -8.5707    0.0000 C   0  0  2  0  0  0  0  0  0  0  0  0
    3.7994   -7.7457    0.0000 C   0  0  1  0  0  0  0  0  0  0  0  0
    3.0821   -7.3382    0.0000 O   0  0  0  0  0  0  0  0  0  0  0  0
    4.5110   -7.3282    0.0000 O   0  0  0  0  0  0  0  0  0  0  0  0
    7.3861   -9.7832    0.0000 O   0  0  0  0  0  0  0  0  0  0  0  0
    7.3688   -7.3082    0.0000 O   0  0  0  0  0  0  0  0  0  0  0  0
    6.6573   -7.7257    0.0000 C   0  0  0  0  0  0  0  0  0  0  0  0
    5.9399   -7.3182    0.0000 C   0  0  0  0  0  0  0  0  0  0  0  0
    5.2283   -7.7357    0.0000 C   0  0  0  0  0  0  0  0  0  0  0  0
    5.2341   -8.5607    0.0000 C   0  0  0  0  0  0  0  0  0  0  0  0
    5.9514   -8.9682    0.0000 C   0  0  0  0  0  0  0  0  0  0  0  0
    6.6630   -8.5507    0.0000 C   0  0  0  0  0  0  0  0  0  0  0  0
    7.3803   -8.9582    0.0000 C   0  0  0  0  0  0  0  0  0  0  0  0
    8.0919   -8.5407    0.0000 C   0  0  0  0  0  0  0  0  0  0  0  0
    8.0862   -7.7157    0.0000 C   0  0  0  0  0  0  0  0  0  0  0  0
 58 22  1  0  0  0  0
 20 22  1  1  0  0  0
 19 13  1  6  0  0  0
 17 14  1  1  0  0  0
 16 15  1  6  0  0  0
 18  1  1  6  0  0  0
 21 16  1  0  0  0  0
 17 16  1  0  0  0  0
 18 17  1  0  0  0  0
 19 18  1  0  0  0  0
 20 19  1  0  0  0  0
 21 20  1  0  0  0  0
 55 23  1  0  0  0  0
 59 31  1  0  0  0  0
 28 25  1  0  0  0  0
 25 24  1  0  0  0  0
 31 26  2  0  0  0  0
 27 26  1  0  0  0  0
 28 27  2  0  0  0  0
 29 28  1  0  0  0  0
 30 29  2  0  0  0  0
 31 30  1  0  0  0  0
 52 36  1  0  0  0  0
 34 32  1  0  0  0  0
 34 33  1  0  0  0  0
 35 34  2  0  0  0  0
 36 35  1  0  0  0  0
 53 48  1  0  0  0  0
 46 48  1  1  0  0  0
 45 37  1  6  0  0  0
 44 38  1  1  0  0  0
 43 39  1  6  0  0  0
 42 41  1  1  0  0  0
 41 40  1  0  0  0  0
 47 42  1  0  0  0  0
 43 42  1  0  0  0  0
 44 43  1  0  0  0  0
 45 44  1  0  0  0  0
 46 45  1  0  0  0  0
 47 46  1  0  0  0  0
 57 49  2  0  0  0  0
 59 50  1  0  0  0  0
 51 50  1  0  0  0  0
 56 51  2  0  0  0  0
 52 51  1  0  0  0  0
 53 52  2  0  0  0  0
 54 53  1  0  0  0  0
 55 54  2  0  0  0  0
 56 55  1  0  0  0  0
 57 56  1  0  0  0  0
 58 57  1  0  0  0  0
 59 58  2  0  0  0  0
  2  3  1  0  0  0  0
  3  4  1  0  0  0  0
  4  5  1  0  0  0  0
  5  6  1  0  0  0  0
  6  7  1  0  0  0  0
  2  7  1  0  0  0  0
  8  9  1  0  0  0  0
  7  8  1  1  0  0  0
  6 10  1  6  0  0  0
  5 11  1  1  0  0  0
  4 12  1  6  0  0  0
  3  1  1  1  0  0  0
M  END
>  <cdx:groupId>
157902

>  <cdx:fragmentId>
157747

$$$$
