25915.cdx
  Mrv1902 05222410272D          

  9  9  0  0  0  0            999 V2000
    5.7378   -5.2113    0.0000 C   0  0  0  0  0  0  0  0  0  0  0  0
    6.4523   -5.6238    0.0000 C   0  0  0  0  0  0  0  0  0  0  0  0
    9.3102   -3.9738    0.0000 C   0  0  0  0  0  0  0  0  0  0  0  0
    7.8812   -3.9738    0.0000 C   0  0  0  0  0  0  0  0  0  0  0  0
    8.5957   -4.3862    0.0000 C   0  0  0  0  0  0  0  0  0  0  0  0
    8.5957   -5.2113    0.0000 N   0  0  0  0  0  0  0  0  0  0  0  0
    7.1668   -4.3862    0.0000 N   0  0  0  0  0  0  0  0  0  0  0  0
    7.8812   -5.6238    0.0000 C   0  0  0  0  0  0  0  0  0  0  0  0
    7.1668   -5.2113    0.0000 C   0  0  0  0  0  0  0  0  0  0  0  0
  9  2  1  0  0  0  0
  2  1  1  0  0  0  0
  5  3  1  0  0  0  0
  7  4  1  0  0  0  0
  5  4  2  0  0  0  0
  6  5  1  0  0  0  0
  8  6  2  0  0  0  0
  9  7  2  0  0  0  0
  9  8  1  0  0  0  0
M  END
>  <cdx:fragmentId>
5

$$$$
