25916.cdx
  Mrv1902 05222410262D          

 10 10  0  0  0  0            999 V2000
    4.9731   -2.2968    0.0000 C   0  0  0  0  0  0  0  0  0  0  0  0
    4.9731   -1.4718    0.0000 C   0  0  0  0  0  0  0  0  0  0  0  0
    4.2586   -2.7093    0.0000 N   0  0  0  0  0  0  0  0  0  0  0  0
    4.2586   -1.0593    0.0000 N   0  0  0  0  0  0  0  0  0  0  0  0
    3.5442   -1.4718    0.0000 C   0  0  0  0  0  0  0  0  0  0  0  0
    3.5442   -2.2968    0.0000 C   0  0  0  0  0  0  0  0  0  0  0  0
    2.8297   -2.7093    0.0000 C   0  0  0  0  0  0  0  0  0  0  0  0
    5.6876   -1.0593    0.0000 C   0  0  0  0  0  0  0  0  0  0  0  0
    5.6876   -2.7093    0.0000 C   0  0  0  0  0  0  0  0  0  0  0  0
    6.4021   -2.2968    0.0000 C   0  0  0  0  0  0  0  0  0  0  0  0
  1  2  1  0  0  0  0
  1  3  2  0  0  0  0
  2  4  2  0  0  0  0
  4  5  1  0  0  0  0
  5  6  2  0  0  0  0
  3  6  1  0  0  0  0
  6  7  1  0  0  0  0
  2  8  1  0  0  0  0
  9 10  1  0  0  0  0
  1  9  1  0  0  0  0
M  END
>  <cdx:groupId>
32

>  <cdx:fragmentId>
5

$$$$
