44259179.cdx
  Mrv1902 05222410262D          

 54 59  0  0  0  0            999 V2000
    6.5538  -16.0952    0.0000 C   0  0  0  0  0  0  0  0  0  0  0  0
    6.5538  -15.2702    0.0000 C   0  0  0  0  0  0  0  0  0  0  0  0
    5.8393  -14.8577    0.0000 C   0  0  0  0  0  0  0  0  0  0  0  0
    5.1248  -15.2702    0.0000 C   0  0  0  0  0  0  0  0  0  0  0  0
    4.4104  -14.8577    0.0000 C   0  0  0  0  0  0  0  0  0  0  0  0
    3.6959  -15.2702    0.0000 C   0  0  0  0  0  0  0  0  0  0  0  0
    3.6959  -16.0952    0.0000 C   0  0  0  0  0  0  0  0  0  0  0  0
    4.4104  -16.5077    0.0000 C   0  0  0  0  0  0  0  0  0  0  0  0
    5.1248  -16.0952    0.0000 C   0  0  0  0  0  0  0  0  0  0  0  0
    5.8393  -16.5077    0.0000 O   0  0  0  0  0  0  0  0  0  0  0  0
    5.8393  -14.0327    0.0000 O   0  0  0  0  0  0  0  0  0  0  0  0
    7.2682  -14.8577    0.0000 O   0  0  0  0  0  0  0  0  0  0  0  0
    6.5538  -13.6202    0.0000 O   0  0  0  0  0  0  0  0  0  0  0  0
    7.2682  -14.0327    0.0000 C   0  0  2  0  0  0  0  0  0  0  0  0
    7.9827  -13.6202    0.0000 C   0  0  0  0  0  0  0  0  0  0  0  0
    7.9827  -12.7952    0.0000 C   0  0  0  0  0  0  0  0  0  0  0  0
    7.2682  -12.3827    0.0000 C   0  0  1  0  0  0  0  0  0  0  0  0
    6.5538  -12.7952    0.0000 C   0  0  0  0  0  0  0  0  0  0  0  0
    5.8393  -12.3827    0.0000 C   0  0  0  0  0  0  0  0  0  0  0  0
    5.1248  -12.7952    0.0000 O   0  0  0  0  0  0  0  0  0  0  0  0
    3.6959  -12.7952    0.0000 O   0  0  0  0  0  0  0  0  0  0  0  0
    4.4104  -12.3827    0.0000 C   0  0  2  0  0  0  0  0  0  0  0  0
    4.4104  -11.5577    0.0000 C   0  0  0  0  0  0  0  0  0  0  0  0
    3.6959  -11.1452    0.0000 C   0  0  2  0  0  0  0  0  0  0  0  0
    2.9814  -11.5577    0.0000 C   0  0  2  0  0  0  0  0  0  0  0  0
    2.9814  -12.3827    0.0000 C   0  0  0  0  0  0  0  0  0  0  0  0
    2.2670  -12.7952    0.0000 C   0  0  0  0  0  0  0  0  0  0  0  0
    2.2670  -11.1452    0.0000 O   0  0  0  0  0  0  0  0  0  0  0  0
    3.6959  -10.3202    0.0000 O   0  0  0  0  0  0  0  0  0  0  0  0
    5.1248  -11.1452    0.0000 O   0  0  0  0  0  0  0  0  0  0  0  0
    7.2682  -11.5577    0.0000 O   0  0  0  0  0  0  0  0  0  0  0  0
    8.6972  -12.3827    0.0000 O   0  0  0  0  0  0  0  0  0  0  0  0
    8.6972  -14.0327    0.0000 O   0  0  0  0  0  0  0  0  0  0  0  0
    7.2682  -16.5077    0.0000 C   0  0  0  0  0  0  0  0  0  0  0  0
    7.9827  -16.0952    0.0000 C   0  0  0  0  0  0  0  0  0  0  0  0
    8.6972  -16.5077    0.0000 C   0  0  0  0  0  0  0  0  0  0  0  0
    8.6972  -17.3327    0.0000 C   0  0  0  0  0  0  0  0  0  0  0  0
    7.9827  -17.7452    0.0000 C   0  0  0  0  0  0  0  0  0  0  0  0
    7.2682  -17.3327    0.0000 C   0  0  0  0  0  0  0  0  0  0  0  0
    9.4117  -17.7452    0.0000 O   0  0  0  0  0  0  0  0  0  0  0  0
   10.1261  -16.5077    0.0000 O   0  0  0  0  0  0  0  0  0  0  0  0
   10.1261  -17.3327    0.0000 C   0  0  2  0  0  0  0  0  0  0  0  0
   10.8406  -17.7452    0.0000 C   0  0  0  0  0  0  0  0  0  0  0  0
   11.5551  -17.3327    0.0000 C   0  0  0  0  0  0  0  0  0  0  0  0
   11.5551  -16.5077    0.0000 C   0  0  1  0  0  0  0  0  0  0  0  0
   10.8406  -16.0952    0.0000 C   0  0  0  0  0  0  0  0  0  0  0  0
   10.8406  -15.2702    0.0000 C   0  0  0  0  0  0  0  0  0  0  0  0
   11.5551  -14.8577    0.0000 O   0  0  0  0  0  0  0  0  0  0  0  0
   12.2695  -16.0952    0.0000 O   0  0  0  0  0  0  0  0  0  0  0  0
   12.2695  -17.7452    0.0000 O   0  0  0  0  0  0  0  0  0  0  0  0
   10.8406  -18.5702    0.0000 O   0  0  0  0  0  0  0  0  0  0  0  0
    9.4117  -16.0952    0.0000 O   0  0  0  0  0  0  0  0  0  0  0  0
    2.9814  -16.5077    0.0000 O   0  0  0  0  0  0  0  0  0  0  0  0
    4.4104  -14.0327    0.0000 O   0  0  0  0  0  0  0  0  0  0  0  0
  1  2  2  0  0  0  0
  2  3  1  0  0  0  0
  3  4  1  0  0  0  0
  4  5  1  0  0  0  0
  5  6  2  0  0  0  0
  6  7  1  0  0  0  0
  7  8  2  0  0  0  0
  8  9  1  0  0  0  0
  4  9  2  0  0  0  0
  9 10  1  0  0  0  0
  1 10  1  0  0  0  0
  3 11  2  0  0  0  0
 13 14  1  0  0  0  0
 14 15  1  0  0  0  0
 15 16  1  0  0  0  0
 16 17  1  0  0  0  0
 17 18  1  0  0  0  0
 13 18  1  0  0  0  0
 21 22  1  0  0  0  0
 22 23  1  0  0  0  0
 23 24  1  0  0  0  0
 24 25  1  0  0  0  0
 25 26  1  0  0  0  0
 21 26  1  0  0  0  0
 26 27  1  0  0  0  0
 25 28  1  6  0  0  0
 24 29  1  6  0  0  0
 23 30  1  0  0  0  0
 22 20  1  6  0  0  0
 19 20  1  0  0  0  0
 18 19  1  0  0  0  0
 17 31  1  1  0  0  0
 16 32  1  0  0  0  0
 15 33  1  0  0  0  0
 14 12  1  6  0  0  0
  2 12  1  0  0  0  0
 34 35  1  0  0  0  0
 35 36  2  0  0  0  0
 36 37  1  0  0  0  0
 37 38  2  0  0  0  0
 38 39  1  0  0  0  0
 34 39  2  0  0  0  0
 41 42  1  0  0  0  0
 42 43  1  0  0  0  0
 43 44  1  0  0  0  0
 44 45  1  0  0  0  0
 45 46  1  0  0  0  0
 41 46  1  0  0  0  0
 47 48  1  0  0  0  0
 46 47  1  0  0  0  0
 45 49  1  1  0  0  0
 44 50  1  0  0  0  0
 43 51  1  0  0  0  0
 42 40  1  6  0  0  0
 37 40  1  0  0  0  0
 36 52  1  0  0  0  0
  1 34  1  0  0  0  0
  7 53  1  0  0  0  0
  5 54  1  0  0  0  0
M  END
>  <cdx:groupId>
158755

>  <cdx:fragmentId>
158631

$$$$
