44259184.cdx
  Mrv1902 05222410262D          

 55 60  0  0  0  0            999 V2000
    8.6972  -14.2389    0.0000 C   0  0  0  0  0  0  0  0  0  0  0  0
    8.6972  -13.4139    0.0000 C   0  0  0  0  0  0  0  0  0  0  0  0
    7.9827  -13.0014    0.0000 C   0  0  0  0  0  0  0  0  0  0  0  0
    7.2682  -13.4139    0.0000 C   0  0  0  0  0  0  0  0  0  0  0  0
    6.5538  -13.0014    0.0000 C   0  0  0  0  0  0  0  0  0  0  0  0
    5.8393  -13.4139    0.0000 C   0  0  0  0  0  0  0  0  0  0  0  0
    5.8393  -14.2389    0.0000 C   0  0  0  0  0  0  0  0  0  0  0  0
    6.5538  -14.6514    0.0000 C   0  0  0  0  0  0  0  0  0  0  0  0
    7.2682  -14.2389    0.0000 C   0  0  0  0  0  0  0  0  0  0  0  0
    7.9827  -14.6514    0.0000 O   0  0  0  0  0  0  0  0  0  0  0  0
    7.9827  -12.1764    0.0000 O   0  0  0  0  0  0  0  0  0  0  0  0
    5.1248  -14.6514    0.0000 O   0  0  0  0  0  0  0  0  0  0  0  0
    3.6959  -14.6514    0.0000 O   0  0  0  0  0  0  0  0  0  0  0  0
    4.4104  -14.2389    0.0000 C   0  0  2  0  0  0  0  0  0  0  0  0
    4.4104  -13.4139    0.0000 C   0  0  0  0  0  0  0  0  0  0  0  0
    3.6959  -13.0014    0.0000 C   0  0  0  0  0  0  0  0  0  0  0  0
    2.9814  -13.4139    0.0000 C   0  0  1  0  0  0  0  0  0  0  0  0
    2.9814  -14.2389    0.0000 C   0  0  2  0  0  0  0  0  0  0  0  0
    2.2670  -14.6514    0.0000 C   0  0  0  0  0  0  0  0  0  0  0  0
    1.5525  -14.2389    0.0000 O   0  0  0  0  0  0  0  0  0  0  0  0
    2.2670  -13.0014    0.0000 O   0  0  0  0  0  0  0  0  0  0  0  0
    3.6959  -12.1764    0.0000 O   0  0  0  0  0  0  0  0  0  0  0  0
    5.1248  -13.0014    0.0000 O   0  0  0  0  0  0  0  0  0  0  0  0
    9.4117  -13.0014    0.0000 O   0  0  0  0  0  0  0  0  0  0  0  0
    8.6972  -11.7639    0.0000 O   0  0  0  0  0  0  0  0  0  0  0  0
    9.4117  -12.1764    0.0000 C   0  0  2  0  0  0  0  0  0  0  0  0
   10.1261  -11.7639    0.0000 C   0  0  0  0  0  0  0  0  0  0  0  0
   10.1261  -10.9389    0.0000 C   0  0  0  0  0  0  0  0  0  0  0  0
    9.4117  -10.5264    0.0000 C   0  0  1  0  0  0  0  0  0  0  0  0
    8.6972  -10.9389    0.0000 C   0  0  0  0  0  0  0  0  0  0  0  0
    7.9827  -10.5264    0.0000 C   0  0  0  0  0  0  0  0  0  0  0  0
    7.2682  -10.9389    0.0000 O   0  0  0  0  0  0  0  0  0  0  0  0
    9.4117   -9.7014    0.0000 O   0  0  0  0  0  0  0  0  0  0  0  0
   10.8406  -10.5264    0.0000 O   0  0  0  0  0  0  0  0  0  0  0  0
   10.8406  -12.1764    0.0000 O   0  0  0  0  0  0  0  0  0  0  0  0
    9.4117  -14.6514    0.0000 C   0  0  0  0  0  0  0  0  0  0  0  0
    9.4117  -15.4764    0.0000 C   0  0  0  0  0  0  0  0  0  0  0  0
   10.1261  -15.8889    0.0000 C   0  0  0  0  0  0  0  0  0  0  0  0
   10.8406  -15.4764    0.0000 C   0  0  0  0  0  0  0  0  0  0  0  0
   10.8406  -14.6514    0.0000 C   0  0  0  0  0  0  0  0  0  0  0  0
   10.1261  -14.2389    0.0000 C   0  0  0  0  0  0  0  0  0  0  0  0
   11.5551  -15.8889    0.0000 O   0  0  0  0  0  0  0  0  0  0  0  0
   10.8406  -17.1264    0.0000 O   0  0  0  0  0  0  0  0  0  0  0  0
   11.5551  -16.7139    0.0000 C   0  0  2  0  0  0  0  0  0  0  0  0
   12.2695  -17.1264    0.0000 C   0  0  0  0  0  0  0  0  0  0  0  0
   12.2695  -17.9514    0.0000 C   0  0  0  0  0  0  0  0  0  0  0  0
   11.5551  -18.3639    0.0000 C   0  0  1  0  0  0  0  0  0  0  0  0
   10.8406  -17.9514    0.0000 C   0  0  0  0  0  0  0  0  0  0  0  0
   10.1261  -18.3639    0.0000 C   0  0  0  0  0  0  0  0  0  0  0  0
    9.4117  -17.9514    0.0000 O   0  0  0  0  0  0  0  0  0  0  0  0
   11.5551  -19.1889    0.0000 O   0  0  0  0  0  0  0  0  0  0  0  0
   12.9840  -18.3639    0.0000 O   0  0  0  0  0  0  0  0  0  0  0  0
   12.9840  -16.7139    0.0000 O   0  0  0  0  0  0  0  0  0  0  0  0
   10.1261  -16.7139    0.0000 O   0  0  0  0  0  0  0  0  0  0  0  0
    6.5538  -12.1764    0.0000 O   0  0  0  0  0  0  0  0  0  0  0  0
  1  2  2  0  0  0  0
  2  3  1  0  0  0  0
  3  4  1  0  0  0  0
  4  5  1  0  0  0  0
  5  6  2  0  0  0  0
  6  7  1  0  0  0  0
  7  8  2  0  0  0  0
  8  9  1  0  0  0  0
  4  9  2  0  0  0  0
  9 10  1  0  0  0  0
  1 10  1  0  0  0  0
  3 11  2  0  0  0  0
 13 14  1  0  0  0  0
 14 15  1  0  0  0  0
 15 16  1  0  0  0  0
 16 17  1  0  0  0  0
 17 18  1  0  0  0  0
 13 18  1  0  0  0  0
 19 20  1  0  0  0  0
 18 19  1  1  0  0  0
 17 21  1  1  0  0  0
 16 22  1  0  0  0  0
 15 23  1  0  0  0  0
 14 12  1  6  0  0  0
  7 12  1  0  0  0  0
 25 26  1  0  0  0  0
 26 27  1  0  0  0  0
 27 28  1  0  0  0  0
 28 29  1  0  0  0  0
 29 30  1  0  0  0  0
 25 30  1  0  0  0  0
 31 32  1  0  0  0  0
 30 31  1  0  0  0  0
 29 33  1  1  0  0  0
 28 34  1  0  0  0  0
 27 35  1  0  0  0  0
 26 24  1  6  0  0  0
  2 24  1  0  0  0  0
 36 37  1  0  0  0  0
 37 38  2  0  0  0  0
 38 39  1  0  0  0  0
 39 40  2  0  0  0  0
 40 41  1  0  0  0  0
 36 41  2  0  0  0  0
 43 44  1  0  0  0  0
 44 45  1  0  0  0  0
 45 46  1  0  0  0  0
 46 47  1  0  0  0  0
 47 48  1  0  0  0  0
 43 48  1  0  0  0  0
 49 50  1  0  0  0  0
 48 49  1  0  0  0  0
 47 51  1  6  0  0  0
 46 52  1  0  0  0  0
 45 53  1  0  0  0  0
 44 42  1  1  0  0  0
 39 42  1  0  0  0  0
 38 54  1  0  0  0  0
  1 36  1  0  0  0  0
  5 55  1  0  0  0  0
M  END
>  <cdx:groupId>
158933

>  <cdx:fragmentId>
158790

$$$$
