2591.cdx
  Mrv1902 05222410272D          

 19 21  0  0  0  0            999 V2000
    6.0074   -7.3425    0.0000 C   0  0  2  0  0  0  0  0  0  0  0  0
    6.0074   -8.1675    0.0000 C   0  0  1  0  0  0  0  0  0  0  0  0
    6.6524   -8.6819    0.0000 C   0  0  0  0  0  0  0  0  0  0  0  0
    7.4568   -8.4983    0.0000 C   0  0  1  0  0  0  0  0  0  0  0  0
    7.8147   -7.7550    0.0000 C   0  0  0  0  0  0  0  0  0  0  0  0
    7.4568   -7.0117    0.0000 C   0  0  0  0  0  0  0  0  0  0  0  0
    6.6524   -6.8281    0.0000 C   0  0  1  0  0  0  0  0  0  0  0  0
    5.2228   -7.0876    0.0000 C   0  0  0  0  0  0  0  0  0  0  0  0
    4.7379   -7.7550    0.0000 C   0  0  0  0  0  0  0  0  0  0  0  0
    5.2228   -8.4224    0.0000 C   0  0  2  0  0  0  0  0  0  0  0  0
    5.0093   -9.2193    0.0000 C   0  0  0  0  0  0  0  0  0  0  0  0
    6.4389   -6.0312    0.0000 C   0  0  0  0  0  0  0  0  0  0  0  0
    7.8693   -9.2128    0.0000 C   0  0  2  0  0  0  0  0  0  0  0  0
    8.6943   -9.2128    0.0000 C   0  0  0  0  0  0  0  0  0  0  0  0
    7.6557  -10.0097    0.0000 C   0  0  0  0  0  0  0  0  0  0  0  0
    6.0074   -6.5175    0.0000 O   0  0  0  0  0  0  0  0  0  0  0  0
    6.0074   -8.9925    0.0000 H   0  0  0  0  0  0  0  0  0  0  0  0
    4.4259   -8.6360    0.0000 O   0  0  0  0  0  0  0  0  0  0  0  0
    8.0962   -7.5426    0.0000 O   0  0  0  0  0  0  0  0  0  0  0  0
  1  2  1  0  0  0  0
  2  3  1  0  0  0  0
  3  4  1  0  0  0  0
  4  5  1  0  0  0  0
  5  6  1  0  0  0  0
  6  7  1  0  0  0  0
  7  1  1  0  0  0  0
  1  8  1  0  0  0  0
  8  9  1  0  0  0  0
  9 10  1  0  0  0  0
 10  2  1  0  0  0  0
 10 11  1  1  0  0  0
  7 12  1  1  0  0  0
  4 13  1  1  0  0  0
 13 14  1  0  0  0  0
 13 15  1  0  0  0  0
  1 16  1  6  0  0  0
  2 17  1  6  0  0  0
 10 18  1  6  0  0  0
  7 19  1  1  0  0  0
 13 19  1  1  0  0  0
M  END
>  <cdx:fragmentId>
5

$$$$
