25913.cdx
  Mrv1902 05222410282D          

 15 14  0  0  0  0            999 V2000
    1.5575   -2.7614    0.0000 C   0  0  0  0  0  0  0  0  0  0  0  0
    2.2719   -2.3489    0.0000 C   0  0  0  0  0  0  0  0  0  0  0  0
    2.9864   -2.7614    0.0000 C   0  0  0  0  0  0  0  0  0  0  0  0
    3.7009   -2.3489    0.0000 C   0  0  0  0  0  0  0  0  0  0  0  0
    4.4153   -2.7614    0.0000 C   0  0  0  0  0  0  0  0  0  0  0  0
    5.1298   -2.3489    0.0000 C   0  0  0  0  0  0  0  0  0  0  0  0
    5.8443   -2.7614    0.0000 C   0  0  0  0  0  0  0  0  0  0  0  0
    6.5587   -2.3489    0.0000 C   0  0  0  0  0  0  0  0  0  0  0  0
    7.2732   -2.7614    0.0000 C   0  0  0  0  0  0  0  0  0  0  0  0
    7.9877   -2.3489    0.0000 C   0  0  0  0  0  0  0  0  0  0  0  0
    8.7022   -2.7614    0.0000 C   0  0  0  0  0  0  0  0  0  0  0  0
    9.4166   -2.3489    0.0000 C   0  0  0  0  0  0  0  0  0  0  0  0
   10.1311   -2.7614    0.0000 C   0  0  0  0  0  0  0  0  0  0  0  0
   10.8456   -2.3489    0.0000 C   0  0  0  0  0  0  0  0  0  0  0  0
   11.5600   -2.7614    0.0000 C   0  0  0  0  0  0  0  0  0  0  0  0
  1  2  2  0  0  0  0
  2  3  1  0  0  0  0
  3  4  1  0  0  0  0
  4  5  1  0  0  0  0
  5  6  1  0  0  0  0
  6  7  1  0  0  0  0
  7  8  1  0  0  0  0
  8  9  1  0  0  0  0
  9 10  1  0  0  0  0
 10 11  1  0  0  0  0
 11 12  1  0  0  0  0
 12 13  1  0  0  0  0
 13 14  1  0  0  0  0
 14 15  1  0  0  0  0
M  END
>  <cdx:groupId>
46

>  <cdx:fragmentId>
5

$$$$
