259139.cdx
  Mrv1902 05222410212D          

 42 46  0  0  0  0            999 V2000
   10.7680   -7.6904    0.0000 O   0  0  0  0  0  0  0  0  0  0  0  0
   10.7680   -6.0404    0.0000 O   0  0  0  0  0  0  0  0  0  0  0  0
    8.6246   -6.4529    0.0000 C   0  0  0  0  0  0  0  0  0  0  0  0
    9.3391   -6.0404    0.0000 C   0  0  0  0  0  0  0  0  0  0  0  0
   10.0535   -6.4529    0.0000 C   0  0  0  0  0  0  0  0  0  0  0  0
   10.0535   -7.2779    0.0000 C   0  0  0  0  0  0  0  0  0  0  0  0
    9.3391   -7.6904    0.0000 C   0  0  0  0  0  0  0  0  0  0  0  0
    8.6246   -7.2779    0.0000 C   0  0  0  0  0  0  0  0  0  0  0  0
    5.7667   -9.7529    0.0000 O   0  0  0  0  0  0  0  0  0  0  0  0
    4.3378   -7.2779    0.0000 O   0  0  0  0  0  0  0  0  0  0  0  0
   10.0535   -9.7529    0.0000 O   0  0  0  0  0  0  0  0  0  0  0  0
   10.0535  -11.4029    0.0000 O   0  0  0  0  0  0  0  0  0  0  0  0
    8.6246  -12.2279    0.0000 O   0  0  0  0  0  0  0  0  0  0  0  0
    5.0522  -10.1654    0.0000 O   0  0  0  0  0  0  0  0  0  0  0  0
    3.6233  -10.9904    0.0000 O   0  0  0  0  0  0  0  0  0  0  0  0
    3.6233  -12.6404    0.0000 O   0  0  0  0  0  0  0  0  0  0  0  0
    5.0522  -12.6404    0.0000 C   0  0  0  0  0  0  0  0  0  0  0  0
    4.3378  -12.2279    0.0000 C   0  0  1  0  0  0  0  0  0  0  0  0
    4.3378  -11.4029    0.0000 C   0  0  1  0  0  0  0  0  0  0  0  0
    5.0522  -10.9904    0.0000 C   0  0  2  0  0  0  0  0  0  0  0  0
    5.7667  -11.4029    0.0000 C   0  0  1  0  0  0  0  0  0  0  0  0
    5.7667  -12.2279    0.0000 O   0  0  0  0  0  0  0  0  0  0  0  0
    6.4812  -10.9904    0.0000 O   0  0  0  0  0  0  0  0  0  0  0  0
    7.1956  -11.4029    0.0000 C   0  0  0  0  0  0  0  0  0  0  0  0
    7.9101  -10.9904    0.0000 C   0  0  2  0  0  0  0  0  0  0  0  0
    8.6246  -11.4029    0.0000 C   0  0  2  0  0  0  0  0  0  0  0  0
    9.3391  -10.9904    0.0000 C   0  0  1  0  0  0  0  0  0  0  0  0
    9.3391  -10.1654    0.0000 C   0  0  2  0  0  0  0  0  0  0  0  0
    8.6246   -9.7529    0.0000 C   0  0  1  0  0  0  0  0  0  0  0  0
    7.9101  -10.1654    0.0000 O   0  0  0  0  0  0  0  0  0  0  0  0
    8.6246   -8.9279    0.0000 O   0  0  0  0  0  0  0  0  0  0  0  0
    7.1956   -9.7529    0.0000 O   0  0  0  0  0  0  0  0  0  0  0  0
    7.1956   -7.2779    0.0000 O   0  0  0  0  0  0  0  0  0  0  0  0
    6.4812   -7.6904    0.0000 C   0  0  0  0  0  0  0  0  0  0  0  0
    5.7667   -7.2779    0.0000 C   0  0  0  0  0  0  0  0  0  0  0  0
    5.0522   -7.6904    0.0000 C   0  0  0  0  0  0  0  0  0  0  0  0
    5.0522   -8.5154    0.0000 C   0  0  0  0  0  0  0  0  0  0  0  0
    5.7667   -8.9279    0.0000 C   0  0  0  0  0  0  0  0  0  0  0  0
    6.4812   -8.5154    0.0000 C   0  0  0  0  0  0  0  0  0  0  0  0
    7.1956   -8.9279    0.0000 C   0  0  0  0  0  0  0  0  0  0  0  0
    7.9101   -8.5154    0.0000 C   0  0  0  0  0  0  0  0  0  0  0  0
    7.9101   -7.6904    0.0000 C   0  0  0  0  0  0  0  0  0  0  0  0
 42  8  1  0  0  0  0
  6  1  1  0  0  0  0
  5  2  1  0  0  0  0
  8  3  2  0  0  0  0
  4  3  1  0  0  0  0
  5  4  2  0  0  0  0
  6  5  1  0  0  0  0
  7  6  2  0  0  0  0
  8  7  1  0  0  0  0
 38  9  1  0  0  0  0
 36 10  1  0  0  0  0
 41 31  1  0  0  0  0
 29 31  1  1  0  0  0
 28 11  1  6  0  0  0
 27 12  1  1  0  0  0
 26 13  1  6  0  0  0
 25 24  1  1  0  0  0
 24 23  1  0  0  0  0
 21 23  1  6  0  0  0
 20 14  1  1  0  0  0
 19 15  1  6  0  0  0
 18 16  1  6  0  0  0
 22 17  1  0  0  0  0
 18 17  1  0  0  0  0
 19 18  1  0  0  0  0
 20 19  1  0  0  0  0
 21 20  1  0  0  0  0
 22 21  1  0  0  0  0
 30 25  1  0  0  0  0
 26 25  1  0  0  0  0
 27 26  1  0  0  0  0
 28 27  1  0  0  0  0
 29 28  1  0  0  0  0
 30 29  1  0  0  0  0
 40 32  2  0  0  0  0
 42 33  1  0  0  0  0
 34 33  1  0  0  0  0
 39 34  2  0  0  0  0
 35 34  1  0  0  0  0
 36 35  2  0  0  0  0
 37 36  1  0  0  0  0
 38 37  2  0  0  0  0
 39 38  1  0  0  0  0
 40 39  1  0  0  0  0
 41 40  1  0  0  0  0
 42 41  2  0  0  0  0
M  END
>  <cdx:fragmentId>
45

$$$$
