11259276.cdx
  Mrv1902 05222410222D          

 32 35  0  0  0  0            999 V2000
    8.9795  -16.4917    0.0000 C   0  0  0  0  0  0  0  0  0  0  0  0
    8.9795  -15.6667    0.0000 C   0  0  0  0  0  0  0  0  0  0  0  0
    8.2650  -15.2542    0.0000 C   0  0  0  0  0  0  0  0  0  0  0  0
    7.5505  -15.6667    0.0000 C   0  0  0  0  0  0  0  0  0  0  0  0
    6.8361  -15.2542    0.0000 C   0  0  0  0  0  0  0  0  0  0  0  0
    6.1216  -15.6667    0.0000 C   0  0  0  0  0  0  0  0  0  0  0  0
    6.1216  -16.4917    0.0000 C   0  0  0  0  0  0  0  0  0  0  0  0
    6.8361  -16.9042    0.0000 C   0  0  0  0  0  0  0  0  0  0  0  0
    7.5505  -16.4917    0.0000 C   0  0  0  0  0  0  0  0  0  0  0  0
    8.2650  -16.9042    0.0000 O   0  0  0  0  0  0  0  0  0  0  0  0
    9.6940  -16.9042    0.0000 O   0  0  0  0  0  0  0  0  0  0  0  0
    6.8361  -17.7292    0.0000 O   0  0  0  0  0  0  0  0  0  0  0  0
    6.1216  -18.1417    0.0000 C   0  0  0  0  0  0  0  0  0  0  0  0
    5.4071  -15.2542    0.0000 O   0  0  0  0  0  0  0  0  0  0  0  0
    4.6927  -15.6667    0.0000 C   0  0  0  0  0  0  0  0  0  0  0  0
    8.9795  -13.1917    0.0000 C   0  0  0  0  0  0  0  0  0  0  0  0
    8.9795  -14.0167    0.0000 C   0  0  0  0  0  0  0  0  0  0  0  0
    8.2650  -14.4292    0.0000 C   0  0  0  0  0  0  0  0  0  0  0  0
    7.5505  -14.0167    0.0000 C   0  0  0  0  0  0  0  0  0  0  0  0
    6.8361  -14.4292    0.0000 C   0  0  0  0  0  0  0  0  0  0  0  0
    6.1216  -14.0167    0.0000 C   0  0  0  0  0  0  0  0  0  0  0  0
    6.1216  -13.1917    0.0000 C   0  0  0  0  0  0  0  0  0  0  0  0
    6.8361  -12.7792    0.0000 C   0  0  0  0  0  0  0  0  0  0  0  0
    7.5505  -13.1917    0.0000 C   0  0  0  0  0  0  0  0  0  0  0  0
    8.2650  -12.7792    0.0000 O   0  0  0  0  0  0  0  0  0  0  0  0
    9.6940  -12.7792    0.0000 O   0  0  0  0  0  0  0  0  0  0  0  0
    6.8361  -11.9542    0.0000 O   0  0  0  0  0  0  0  0  0  0  0  0
    6.1216  -11.5417    0.0000 C   0  0  0  0  0  0  0  0  0  0  0  0
    5.4071  -14.4292    0.0000 O   0  0  0  0  0  0  0  0  0  0  0  0
    4.6927  -14.0167    0.0000 C   0  0  0  0  0  0  0  0  0  0  0  0
    5.4071  -12.7792    0.0000 O   0  0  0  0  0  0  0  0  0  0  0  0
    5.4071  -16.9042    0.0000 O   0  0  0  0  0  0  0  0  0  0  0  0
  1  2  1  0  0  0  0
  2  3  2  0  0  0  0
  3  4  1  0  0  0  0
  4  5  1  0  0  0  0
  5  6  2  0  0  0  0
  6  7  1  0  0  0  0
  7  8  2  0  0  0  0
  8  9  1  0  0  0  0
  4  9  2  0  0  0  0
  9 10  1  0  0  0  0
  1 10  1  0  0  0  0
  1 11  2  0  0  0  0
 12 13  1  0  0  0  0
  8 12  1  0  0  0  0
 14 15  1  0  0  0  0
  6 14  1  0  0  0  0
 16 17  1  0  0  0  0
 17 18  2  0  0  0  0
 18 19  1  0  0  0  0
 19 20  1  0  0  0  0
 20 21  2  0  0  0  0
 21 22  1  0  0  0  0
 22 23  2  0  0  0  0
 23 24  1  0  0  0  0
 19 24  2  0  0  0  0
 24 25  1  0  0  0  0
 16 25  1  0  0  0  0
 16 26  2  0  0  0  0
 27 28  1  0  0  0  0
 23 27  1  0  0  0  0
 29 30  1  0  0  0  0
 21 29  1  0  0  0  0
 22 31  1  0  0  0  0
  3 18  1  0  0  0  0
  7 32  1  0  0  0  0
M  END
>  <cdx:groupId>
68689

>  <cdx:fragmentId>
68623

$$$$
