259218.cdx
  Mrv1902 05222410272D          

 19 22  0  0  0  0            999 V2000
    8.6667  -10.0799    0.0000 C   0  0  0  0  0  0  0  0  0  0  0  0
    9.4737   -9.9083    0.0000 C   0  0  0  0  0  0  0  0  0  0  0  0
    9.7287   -9.1237    0.0000 N   0  0  0  0  0  0  0  0  0  0  0  0
    9.1766   -8.5106    0.0000 C   0  0  0  0  0  0  0  0  0  0  0  0
    9.3135   -7.6969    0.0000 C   0  0  0  0  0  0  0  0  0  0  0  0
    8.6932   -7.1530    0.0000 C   0  0  0  0  0  0  0  0  0  0  0  0
    7.9053   -7.3976    0.0000 C   0  0  0  0  0  0  0  0  0  0  0  0
    7.7022   -8.1972    0.0000 N   0  0  0  0  0  0  0  0  0  0  0  0
    7.0348   -8.6822    0.0000 C   0  0  0  0  0  0  0  0  0  0  0  0
    6.2278   -8.5106    0.0000 C   0  0  0  0  0  0  0  0  0  0  0  0
    5.6758   -9.1237    0.0000 C   0  0  0  0  0  0  0  0  0  0  0  0
    5.9307   -9.9083    0.0000 C   0  0  0  0  0  0  0  0  0  0  0  0
    6.7377  -10.0799    0.0000 C   0  0  0  0  0  0  0  0  0  0  0  0
    7.2897   -9.4668    0.0000 C   0  0  0  0  0  0  0  0  0  0  0  0
    8.1147   -9.4668    0.0000 C   0  0  0  0  0  0  0  0  0  0  0  0
    8.3697   -8.6822    0.0000 C   0  0  0  0  0  0  0  0  0  0  0  0
    7.3069   -6.8297    0.0000 O   0  0  0  0  0  0  0  0  0  0  0  0
    8.8647   -6.3460    0.0000 O   0  0  0  0  0  0  0  0  0  0  0  0
    9.6493   -6.0911    0.0000 C   0  0  0  0  0  0  0  0  0  0  0  0
  1  2  1  0  0  0  0
  2  3  2  0  0  0  0
  3  4  1  0  0  0  0
  4  5  1  0  0  0  0
  5  6  2  0  0  0  0
  6  7  1  0  0  0  0
  7  8  1  0  0  0  0
  8  9  1  0  0  0  0
  9 10  1  0  0  0  0
 10 11  2  0  0  0  0
 11 12  1  0  0  0  0
 12 13  2  0  0  0  0
 13 14  1  0  0  0  0
  9 14  2  0  0  0  0
 14 15  1  0  0  0  0
  1 15  2  0  0  0  0
 15 16  1  0  0  0  0
  4 16  2  0  0  0  0
  8 16  1  0  0  0  0
  7 17  2  0  0  0  0
 18 19  1  0  0  0  0
  6 18  1  0  0  0  0
M  END
>  <cdx:fragmentId>
5045

$$$$
