44259381.cdx
  Mrv1902 05222410282D          

 34 37  0  0  0  0            999 V2000
    6.5538  -13.0014    0.0000 C   0  0  0  0  0  0  0  0  0  0  0  0
    6.5538  -12.1764    0.0000 C   0  0  0  0  0  0  0  0  0  0  0  0
    5.8393  -11.7639    0.0000 C   0  0  0  0  0  0  0  0  0  0  0  0
    5.1248  -12.1764    0.0000 C   0  0  0  0  0  0  0  0  0  0  0  0
    4.4104  -11.7639    0.0000 C   0  0  0  0  0  0  0  0  0  0  0  0
    3.6959  -12.1764    0.0000 C   0  0  0  0  0  0  0  0  0  0  0  0
    3.6959  -13.0014    0.0000 C   0  0  0  0  0  0  0  0  0  0  0  0
    4.4104  -13.4139    0.0000 C   0  0  0  0  0  0  0  0  0  0  0  0
    5.1248  -13.0014    0.0000 C   0  0  0  0  0  0  0  0  0  0  0  0
    5.8393  -13.4139    0.0000 O   0  0  0  0  0  0  0  0  0  0  0  0
    5.8393  -10.9389    0.0000 O   0  0  0  0  0  0  0  0  0  0  0  0
    7.2682  -13.4139    0.0000 C   0  0  0  0  0  0  0  0  0  0  0  0
    7.9827  -13.0014    0.0000 C   0  0  0  0  0  0  0  0  0  0  0  0
    8.6972  -13.4139    0.0000 C   0  0  0  0  0  0  0  0  0  0  0  0
    8.6972  -14.2389    0.0000 C   0  0  0  0  0  0  0  0  0  0  0  0
    7.9827  -14.6514    0.0000 C   0  0  0  0  0  0  0  0  0  0  0  0
    7.2682  -14.2389    0.0000 C   0  0  0  0  0  0  0  0  0  0  0  0
    9.4117  -14.6514    0.0000 O   0  0  0  0  0  0  0  0  0  0  0  0
   10.1261  -15.8889    0.0000 O   0  0  0  0  0  0  0  0  0  0  0  0
    9.4117  -15.4764    0.0000 C   0  0  1  0  0  0  0  0  0  0  0  0
    8.6972  -15.8889    0.0000 C   0  0  0  0  0  0  0  0  0  0  0  0
    8.6972  -16.7139    0.0000 C   0  0  0  0  0  0  0  0  0  0  0  0
    9.4117  -17.1264    0.0000 C   0  0  1  0  0  0  0  0  0  0  0  0
   10.1261  -16.7139    0.0000 C   0  0  0  0  0  0  0  0  0  0  0  0
   10.8406  -17.1264    0.0000 C   0  0  0  0  0  0  0  0  0  0  0  0
   11.5551  -16.7139    0.0000 O   0  0  0  0  0  0  0  0  0  0  0  0
    9.4117  -17.9514    0.0000 O   0  0  0  0  0  0  0  0  0  0  0  0
    7.9827  -17.1264    0.0000 O   0  0  0  0  0  0  0  0  0  0  0  0
    7.9827  -15.4764    0.0000 O   0  0  0  0  0  0  0  0  0  0  0  0
    9.4117  -13.0014    0.0000 O   0  0  0  0  0  0  0  0  0  0  0  0
   10.1261  -13.4139    0.0000 C   0  0  0  0  0  0  0  0  0  0  0  0
    2.9814  -13.4139    0.0000 O   0  0  0  0  0  0  0  0  0  0  0  0
    4.4104  -10.9389    0.0000 O   0  0  0  0  0  0  0  0  0  0  0  0
    7.2682  -11.7639    0.0000 O   0  0  0  0  0  0  0  0  0  0  0  0
  1  2  2  0  0  0  0
  2  3  1  0  0  0  0
  3  4  1  0  0  0  0
  4  5  1  0  0  0  0
  5  6  2  0  0  0  0
  6  7  1  0  0  0  0
  7  8  2  0  0  0  0
  8  9  1  0  0  0  0
  4  9  2  0  0  0  0
  9 10  1  0  0  0  0
  1 10  1  0  0  0  0
  3 11  2  0  0  0  0
 12 13  1  0  0  0  0
 13 14  2  0  0  0  0
 14 15  1  0  0  0  0
 15 16  2  0  0  0  0
 16 17  1  0  0  0  0
 12 17  2  0  0  0  0
 19 20  1  0  0  0  0
 20 21  1  0  0  0  0
 21 22  1  0  0  0  0
 22 23  1  0  0  0  0
 23 24  1  0  0  0  0
 19 24  1  0  0  0  0
 25 26  1  0  0  0  0
 24 25  1  0  0  0  0
 23 27  1  1  0  0  0
 22 28  1  0  0  0  0
 21 29  1  0  0  0  0
 20 18  1  1  0  0  0
 15 18  1  0  0  0  0
 30 31  1  0  0  0  0
 14 30  1  0  0  0  0
  1 12  1  0  0  0  0
  7 32  1  0  0  0  0
  5 33  1  0  0  0  0
  2 34  1  0  0  0  0
M  END
>  <cdx:groupId>
159047

>  <cdx:fragmentId>
158981

$$$$
