259413.cdx
  Mrv1902 05222410192D          

 24 26  0  0  0  0            999 V2000
    5.0300   -7.0757    0.0000 O   0  0  0  0  0  0  0  0  0  0  0  0
    3.6396   -4.5788    0.0000 O   0  0  0  0  0  0  0  0  0  0  0  0
   11.4914   -5.1132    0.0000 C   0  0  0  0  0  0  0  0  0  0  0  0
   10.7835   -4.6896    0.0000 O   0  0  0  0  0  0  0  0  0  0  0  0
    8.6339   -5.0688    0.0000 C   0  0  0  0  0  0  0  0  0  0  0  0
    9.3547   -4.6675    0.0000 C   0  0  0  0  0  0  0  0  0  0  0  0
   10.0627   -5.0910    0.0000 C   0  0  0  0  0  0  0  0  0  0  0  0
   10.0499   -5.9159    0.0000 C   0  0  0  0  0  0  0  0  0  0  0  0
    9.3291   -6.3173    0.0000 C   0  0  0  0  0  0  0  0  0  0  0  0
    8.6211   -5.8937    0.0000 C   0  0  0  0  0  0  0  0  0  0  0  0
    7.9003   -6.2951    0.0000 C   0  0  0  0  0  0  0  0  0  0  0  0
    3.6140   -6.2286    0.0000 C   0  0  0  0  0  0  0  0  0  0  0  0
    5.0812   -3.7761    0.0000 C   0  0  0  0  0  0  0  0  0  0  0  0
    6.4588   -7.0978    0.0000 O   0  0  0  0  0  0  0  0  0  0  0  0
    6.4971   -4.6231    0.0000 O   0  0  0  0  0  0  0  0  0  0  0  0
    5.7764   -5.0245    0.0000 C   0  0  0  0  0  0  0  0  0  0  0  0
    5.0684   -4.6010    0.0000 C   0  0  0  0  0  0  0  0  0  0  0  0
    4.3476   -5.0023    0.0000 C   0  0  0  0  0  0  0  0  0  0  0  0
    4.3348   -5.8272    0.0000 C   0  0  0  0  0  0  0  0  0  0  0  0
    5.0428   -6.2508    0.0000 C   0  0  0  0  0  0  0  0  0  0  0  0
    5.7636   -5.8494    0.0000 C   0  0  0  0  0  0  0  0  0  0  0  0
    6.4716   -6.2729    0.0000 C   0  0  0  0  0  0  0  0  0  0  0  0
    7.1923   -5.8716    0.0000 C   0  0  0  0  0  0  0  0  0  0  0  0
    7.2051   -5.0467    0.0000 C   0  0  0  0  0  0  0  0  0  0  0  0
 20  1  1  0  0  0  0
 18  2  1  0  0  0  0
 23 11  1  1  0  0  0
 11 10  1  0  0  0  0
  7  4  1  0  0  0  0
  4  3  1  0  0  0  0
 10  5  2  0  0  0  0
  6  5  1  0  0  0  0
  7  6  2  0  0  0  0
  8  7  1  0  0  0  0
  9  8  2  0  0  0  0
 10  9  1  0  0  0  0
 19 12  1  0  0  0  0
 17 13  1  0  0  0  0
 22 14  2  0  0  0  0
 24 15  1  0  0  0  0
 16 15  1  0  0  0  0
 21 16  2  0  0  0  0
 17 16  1  0  0  0  0
 18 17  2  0  0  0  0
 19 18  1  0  0  0  0
 20 19  2  0  0  0  0
 21 20  1  0  0  0  0
 22 21  1  0  0  0  0
 23 22  1  0  0  0  0
 24 23  2  0  0  0  0
M  END
>  <cdx:groupId>
144159

>  <cdx:fragmentId>
144088

$$$$
