259411.cdx
  Mrv1902 05222410202D          

 38 41  0  0  0  0            999 V2000
    5.3747   -9.5222    0.0000 O   0  0  0  0  0  0  0  0  0  0  0  0
    3.9658   -7.0358    0.0000 O   0  0  0  0  0  0  0  0  0  0  0  0
   10.3925   -7.5002    0.0000 O   0  0  0  0  0  0  0  0  0  0  0  0
   11.1169   -6.2685    0.0000 C   0  0  0  0  0  0  0  0  0  0  0  0
   10.4058   -5.8502    0.0000 O   0  0  0  0  0  0  0  0  0  0  0  0
    8.2591   -6.2454    0.0000 C   0  0  0  0  0  0  0  0  0  0  0  0
    8.9769   -5.8387    0.0000 C   0  0  0  0  0  0  0  0  0  0  0  0
    9.6880   -6.2570    0.0000 C   0  0  0  0  0  0  0  0  0  0  0  0
    9.6814   -7.0819    0.0000 C   0  0  0  0  0  0  0  0  0  0  0  0
    8.9636   -7.4886    0.0000 C   0  0  0  0  0  0  0  0  0  0  0  0
    8.2525   -7.0704    0.0000 C   0  0  0  0  0  0  0  0  0  0  0  0
    3.9858   -4.5608    0.0000 C   0  0  0  0  0  0  0  0  0  0  0  0
    5.4147   -4.5724    0.0000 C   0  0  0  0  0  0  0  0  0  0  0  0
    4.6969   -4.9791    0.0000 C   0  0  0  0  0  0  0  0  0  0  0  0
    4.6902   -5.8041    0.0000 C   0  0  0  0  0  0  0  0  0  0  0  0
    5.4013   -6.2223    0.0000 C   0  0  0  0  0  0  0  0  0  0  0  0
    9.6614   -9.5569    0.0000 O   0  0  0  0  0  0  0  0  0  0  0  0
    9.6480  -11.2068    0.0000 O   0  0  0  0  0  0  0  0  0  0  0  0
    8.2125  -12.0202    0.0000 O   0  0  0  0  0  0  0  0  0  0  0  0
    6.7902  -11.1837    0.0000 C   0  0  0  0  0  0  0  0  0  0  0  0
    7.5080  -10.7770    0.0000 C   0  0  1  0  0  0  0  0  0  0  0  0
    8.2191  -11.1953    0.0000 C   0  0  1  0  0  0  0  0  0  0  0  0
    8.9369  -10.7885    0.0000 C   0  0  2  0  0  0  0  0  0  0  0  0
    8.9436   -9.9636    0.0000 C   0  0  2  0  0  0  0  0  0  0  0  0
    8.2325   -9.5453    0.0000 C   0  0  1  0  0  0  0  0  0  0  0  0
    7.5147   -9.9520    0.0000 O   0  0  0  0  0  0  0  0  0  0  0  0
    8.2391   -8.7203    0.0000 O   0  0  0  0  0  0  0  0  0  0  0  0
    6.8036   -9.5338    0.0000 O   0  0  0  0  0  0  0  0  0  0  0  0
    6.8236   -7.0588    0.0000 O   0  0  0  0  0  0  0  0  0  0  0  0
    6.1058   -7.4656    0.0000 C   0  0  0  0  0  0  0  0  0  0  0  0
    5.3947   -7.0473    0.0000 C   0  0  0  0  0  0  0  0  0  0  0  0
    4.6769   -7.4540    0.0000 C   0  0  0  0  0  0  0  0  0  0  0  0
    4.6702   -8.2790    0.0000 C   0  0  0  0  0  0  0  0  0  0  0  0
    5.3813   -8.6973    0.0000 C   0  0  0  0  0  0  0  0  0  0  0  0
    6.0991   -8.2905    0.0000 C   0  0  0  0  0  0  0  0  0  0  0  0
    6.8102   -8.7088    0.0000 C   0  0  0  0  0  0  0  0  0  0  0  0
    7.5280   -8.3021    0.0000 C   0  0  0  0  0  0  0  0  0  0  0  0
    7.5347   -7.4771    0.0000 C   0  0  0  0  0  0  0  0  0  0  0  0
 34  1  1  0  0  0  0
 32  2  1  0  0  0  0
 38 11  1  0  0  0  0
  9  3  1  0  0  0  0
  8  5  1  0  0  0  0
  5  4  1  0  0  0  0
 11  6  2  0  0  0  0
  7  6  1  0  0  0  0
  8  7  2  0  0  0  0
  9  8  1  0  0  0  0
 10  9  2  0  0  0  0
 11 10  1  0  0  0  0
 31 16  1  0  0  0  0
 14 12  1  0  0  0  0
 14 13  1  0  0  0  0
 15 14  2  0  0  0  0
 16 15  1  0  0  0  0
 37 27  1  0  0  0  0
 25 27  1  1  0  0  0
 24 17  1  6  0  0  0
 23 18  1  6  0  0  0
 22 19  1  1  0  0  0
 21 20  1  6  0  0  0
 26 21  1  0  0  0  0
 22 21  1  0  0  0  0
 23 22  1  0  0  0  0
 24 23  1  0  0  0  0
 25 24  1  0  0  0  0
 26 25  1  0  0  0  0
 36 28  2  0  0  0  0
 38 29  1  0  0  0  0
 30 29  1  0  0  0  0
 35 30  2  0  0  0  0
 31 30  1  0  0  0  0
 32 31  2  0  0  0  0
 33 32  1  0  0  0  0
 34 33  2  0  0  0  0
 35 34  1  0  0  0  0
 36 35  1  0  0  0  0
 37 36  1  0  0  0  0
 38 37  2  0  0  0  0
M  END
>  <cdx:groupId>
159172

>  <cdx:fragmentId>
159058

$$$$
