2596.cdx
  Mrv1902 05222410262D          

 53 58  0  0  0  0            999 V2000
    4.2108   -8.3531    0.0000 C   0  0  0  0  0  0  0  0  0  0  0  0
    4.2108   -9.1781    0.0000 C   0  0  2  0  0  0  0  0  0  0  0  0
    4.9252   -9.5906    0.0000 C   0  0  2  0  0  0  0  0  0  0  0  0
    5.6397   -9.1781    0.0000 C   0  0  0  0  0  0  0  0  0  0  0  0
    5.6397   -8.3531    0.0000 C   0  0  0  0  0  0  0  0  0  0  0  0
    4.9252   -7.9406    0.0000 C   0  0  0  0  0  0  0  0  0  0  0  0
    6.3542   -9.5906    0.0000 C   0  0  0  0  0  0  0  0  0  0  0  0
    7.0687   -9.1781    0.0000 C   0  0  0  0  0  0  0  0  0  0  0  0
    7.0687   -8.3531    0.0000 C   0  0  0  0  0  0  0  0  0  0  0  0
    6.3542   -7.9406    0.0000 C   0  0  1  0  0  0  0  0  0  0  0  0
    7.7831   -7.9406    0.0000 C   0  0  1  0  0  0  0  0  0  0  0  0
    7.7831   -7.1156    0.0000 C   0  0  2  0  0  0  0  0  0  0  0  0
    7.0687   -6.7031    0.0000 C   0  0  0  0  0  0  0  0  0  0  0  0
    6.3542   -7.1156    0.0000 C   0  0  0  0  0  0  0  0  0  0  0  0
    8.4976   -6.7031    0.0000 C   0  0  0  0  0  0  0  0  0  0  0  0
    9.2121   -7.1156    0.0000 C   0  0  1  0  0  0  0  0  0  0  0  0
    9.2121   -7.9406    0.0000 C   0  0  0  0  0  0  0  0  0  0  0  0
    8.4976   -5.8781    0.0000 C   0  0  0  0  0  0  0  0  0  0  0  0
    7.7831   -5.4656    0.0000 C   0  0  0  0  0  0  0  0  0  0  0  0
    9.2121   -5.4656    0.0000 C   0  0  0  0  0  0  0  0  0  0  0  0
   10.0371   -5.4656    0.0000 C   0  0  0  0  0  0  0  0  0  0  0  0
   10.7515   -5.8781    0.0000 C   0  0  0  0  0  0  0  0  0  0  0  0
   11.5765   -5.8781    0.0000 C   0  0  0  0  0  0  0  0  0  0  0  0
   12.2910   -5.4656    0.0000 C   0  0  0  0  0  0  0  0  0  0  0  0
   12.2910   -6.2906    0.0000 C   0  0  0  0  0  0  0  0  0  0  0  0
   10.3390   -6.5926    0.0000 O   0  0  0  0  0  0  0  0  0  0  0  0
    5.6397   -6.7031    0.0000 O   0  0  0  0  0  0  0  0  0  0  0  0
    3.4963   -9.5906    0.0000 O   0  0  0  0  0  0  0  0  0  0  0  0
    5.3377  -10.3051    0.0000 C   0  0  0  0  0  0  0  0  0  0  0  0
    7.7831   -8.7656    0.0000 C   0  0  0  0  0  0  0  0  0  0  0  0
   10.0371   -7.1156    0.0000 O   0  0  0  0  0  0  0  0  0  0  0  0
    4.5127  -10.3051    0.0000 C   0  0  0  0  0  0  0  0  0  0  0  0
    6.3542   -8.7656    0.0000 C   0  0  0  0  0  0  0  0  0  0  0  0
    7.7831   -6.2906    0.0000 C   0  0  0  0  0  0  0  0  0  0  0  0
    2.7818  -10.0031    0.0000 C   0  0  1  0  0  0  0  0  0  0  0  0
    2.0674   -9.5906    0.0000 C   0  0  1  0  0  0  0  0  0  0  0  0
    1.3529  -10.0031    0.0000 C   0  0  2  0  0  0  0  0  0  0  0  0
    1.3529  -10.8281    0.0000 C   0  0  1  0  0  0  0  0  0  0  0  0
    2.0674  -11.2406    0.0000 C   0  0  0  0  0  0  0  0  0  0  0  0
    2.7818  -10.8281    0.0000 O   0  0  0  0  0  0  0  0  0  0  0  0
    0.6384   -9.5906    0.0000 O   0  0  0  0  0  0  0  0  0  0  0  0
    2.0674   -8.7656    0.0000 O   0  0  0  0  0  0  0  0  0  0  0  0
    0.6384  -11.2406    0.0000 O   0  0  0  0  0  0  0  0  0  0  0  0
   10.6204   -7.6990    0.0000 C   0  0  2  0  0  0  0  0  0  0  0  0
   10.4069   -8.4959    0.0000 O   0  0  0  0  0  0  0  0  0  0  0  0
   10.9903   -9.0792    0.0000 C   0  0  1  0  0  0  0  0  0  0  0  0
   11.7872   -8.8657    0.0000 C   0  0  2  0  0  0  0  0  0  0  0  0
   12.0007   -8.0688    0.0000 C   0  0  1  0  0  0  0  0  0  0  0  0
   11.4173   -7.4855    0.0000 C   0  0  2  0  0  0  0  0  0  0  0  0
   11.6309   -6.6886    0.0000 O   0  0  0  0  0  0  0  0  0  0  0  0
   12.7976   -7.8553    0.0000 O   0  0  0  0  0  0  0  0  0  0  0  0
   10.7768   -9.8761    0.0000 C   0  0  0  0  0  0  0  0  0  0  0  0
   12.3705   -9.4491    0.0000 O   0  0  0  0  0  0  0  0  0  0  0  0
  1  2  1  0  0  0  0
  2  3  1  0  0  0  0
  3  4  1  0  0  0  0
  4  5  1  0  0  0  0
  5  6  1  0  0  0  0
  6  1  1  0  0  0  0
  4  7  2  0  0  0  0
  7  8  1  0  0  0  0
  8  9  1  0  0  0  0
  9 10  1  0  0  0  0
 10  5  1  0  0  0  0
  9 11  1  0  0  0  0
 11 12  1  0  0  0  0
 12 13  1  0  0  0  0
 13 14  1  0  0  0  0
 14 10  1  0  0  0  0
 12 15  1  0  0  0  0
 15 16  1  0  0  0  0
 16 17  1  0  0  0  0
 17 11  1  0  0  0  0
 15 18  1  0  0  0  0
 18 19  1  0  0  0  0
 18 20  2  0  0  0  0
 20 21  1  0  0  0  0
 21 22  1  0  0  0  0
 22 23  1  0  0  0  0
 23 24  1  0  0  0  0
 23 25  1  0  0  0  0
 22 26  2  0  0  0  0
 14 27  2  0  0  0  0
  2 28  1  6  0  0  0
  3 29  1  6  0  0  0
 11 30  1  6  0  0  0
 16 31  1  6  0  0  0
  3 32  1  1  0  0  0
 10 33  1  1  0  0  0
 12 34  1  1  0  0  0
 35 28  1  6  0  0  0
 35 36  1  0  0  0  0
 36 37  1  0  0  0  0
 37 38  1  0  0  0  0
 38 39  1  0  0  0  0
 39 40  1  0  0  0  0
 40 35  1  0  0  0  0
 37 41  1  6  0  0  0
 36 42  1  1  0  0  0
 38 43  1  1  0  0  0
 44 31  1  1  0  0  0
 44 45  1  0  0  0  0
 45 46  1  0  0  0  0
 46 47  1  0  0  0  0
 47 48  1  0  0  0  0
 48 49  1  0  0  0  0
 49 44  1  0  0  0  0
 49 50  1  1  0  0  0
 48 51  1  1  0  0  0
 46 52  1  1  0  0  0
 47 53  1  6  0  0  0
M  END
>  <cdx:fragmentId>
5

$$$$
