44259713.cdx
  Mrv1902 05222410222D          

 27 29  0  0  0  0            999 V2000
    7.6255  -14.0817    0.0000 C   0  0  0  0  0  0  0  0  0  0  0  0
    7.6255  -13.2567    0.0000 C   0  0  0  0  0  0  0  0  0  0  0  0
    6.9110  -12.8442    0.0000 C   0  0  0  0  0  0  0  0  0  0  0  0
    6.1965  -13.2567    0.0000 C   0  0  0  0  0  0  0  0  0  0  0  0
    5.4821  -12.8442    0.0000 C   0  0  0  0  0  0  0  0  0  0  0  0
    4.7676  -13.2567    0.0000 C   0  0  0  0  0  0  0  0  0  0  0  0
    4.7676  -14.0817    0.0000 C   0  0  0  0  0  0  0  0  0  0  0  0
    5.4821  -14.4942    0.0000 C   0  0  0  0  0  0  0  0  0  0  0  0
    6.1965  -14.0817    0.0000 C   0  0  0  0  0  0  0  0  0  0  0  0
    6.9110  -14.4942    0.0000 O   0  0  0  0  0  0  0  0  0  0  0  0
    6.9110  -12.0192    0.0000 O   0  0  0  0  0  0  0  0  0  0  0  0
    4.0531  -14.4942    0.0000 O   0  0  0  0  0  0  0  0  0  0  0  0
    3.3387  -14.0817    0.0000 C   0  0  0  0  0  0  0  0  0  0  0  0
    8.3400  -12.8442    0.0000 O   0  0  0  0  0  0  0  0  0  0  0  0
    9.0544  -13.2567    0.0000 C   0  0  0  0  0  0  0  0  0  0  0  0
    8.3400  -14.4942    0.0000 C   0  0  0  0  0  0  0  0  0  0  0  0
    8.3400  -15.3192    0.0000 C   0  0  0  0  0  0  0  0  0  0  0  0
    9.0544  -15.7317    0.0000 C   0  0  0  0  0  0  0  0  0  0  0  0
    9.7689  -15.3192    0.0000 C   0  0  0  0  0  0  0  0  0  0  0  0
    9.7689  -14.4942    0.0000 C   0  0  0  0  0  0  0  0  0  0  0  0
    9.0544  -14.0817    0.0000 C   0  0  0  0  0  0  0  0  0  0  0  0
   10.4834  -14.0817    0.0000 O   0  0  0  0  0  0  0  0  0  0  0  0
   11.1978  -14.4942    0.0000 C   0  0  0  0  0  0  0  0  0  0  0  0
    9.0544  -16.5567    0.0000 O   0  0  0  0  0  0  0  0  0  0  0  0
    9.7689  -16.9692    0.0000 C   0  0  0  0  0  0  0  0  0  0  0  0
   10.4834  -15.7317    0.0000 O   0  0  0  0  0  0  0  0  0  0  0  0
    5.4821  -12.0192    0.0000 O   0  0  0  0  0  0  0  0  0  0  0  0
  1  2  2  0  0  0  0
  2  3  1  0  0  0  0
  3  4  1  0  0  0  0
  4  5  1  0  0  0  0
  5  6  2  0  0  0  0
  6  7  1  0  0  0  0
  7  8  2  0  0  0  0
  8  9  1  0  0  0  0
  4  9  2  0  0  0  0
  9 10  1  0  0  0  0
  1 10  1  0  0  0  0
  3 11  2  0  0  0  0
 12 13  1  0  0  0  0
  7 12  1  0  0  0  0
 14 15  1  0  0  0  0
  2 14  1  0  0  0  0
 16 17  1  0  0  0  0
 17 18  2  0  0  0  0
 18 19  1  0  0  0  0
 19 20  2  0  0  0  0
 20 21  1  0  0  0  0
 16 21  2  0  0  0  0
 22 23  1  0  0  0  0
 20 22  1  0  0  0  0
 24 25  1  0  0  0  0
 18 24  1  0  0  0  0
 19 26  1  0  0  0  0
  1 16  1  0  0  0  0
  5 27  1  0  0  0  0
M  END
>  <cdx:groupId>
159421

>  <cdx:fragmentId>
159341

$$$$
