259846.cdx
  Mrv1902 05222410212D          

 35 39  0  0  0  0            999 V2000
    4.5046   -9.3332    0.0000 C   0  0  1  0  0  0  0  0  0  0  0  0
    4.5046   -8.5082    0.0000 C   0  0  0  0  0  0  0  0  0  0  0  0
    5.2191   -8.0957    0.0000 C   0  0  0  0  0  0  0  0  0  0  0  0
    5.2191   -9.7457    0.0000 C   0  0  2  0  0  0  0  0  0  0  0  0
    5.6316  -10.4602    0.0000 C   0  0  0  0  0  0  0  0  0  0  0  0
    4.8066  -10.4602    0.0000 C   0  0  0  0  0  0  0  0  0  0  0  0
    5.9336   -9.3332    0.0000 C   0  0  2  0  0  0  0  0  0  0  0  0
    5.9336  -10.1582    0.0000 H   0  0  0  0  0  0  0  0  0  0  0  0
    6.6480   -9.7457    0.0000 C   0  0  0  0  0  0  0  0  0  0  0  0
    7.3625   -9.3332    0.0000 C   0  0  0  0  0  0  0  0  0  0  0  0
    7.3625   -8.5082    0.0000 C   0  0  1  0  0  0  0  0  0  0  0  0
    7.3625   -7.6832    0.0000 C   0  0  0  0  0  0  0  0  0  0  0  0
    8.0770   -8.0957    0.0000 C   0  0  2  0  0  0  0  0  0  0  0  0
    8.0770   -8.9207    0.0000 C   0  0  0  0  0  0  0  0  0  0  0  0
    8.7914   -8.5082    0.0000 C   0  0  0  0  0  0  0  0  0  0  0  0
    9.5059   -8.0957    0.0000 C   0  0  0  0  0  0  0  0  0  0  0  0
    9.5059   -7.2707    0.0000 C   0  0  1  0  0  0  0  0  0  0  0  0
   10.2596   -7.6063    0.0000 C   0  0  0  0  0  0  0  0  0  0  0  0
   10.1190   -6.7187    0.0000 C   0  0  0  0  0  0  0  0  0  0  0  0
    9.7835   -5.9650    0.0000 C   0  0  0  0  0  0  0  0  0  0  0  0
    8.9630   -6.0513    0.0000 C   0  0  1  0  0  0  0  0  0  0  0  0
    8.4109   -5.4382    0.0000 C   0  0  0  0  0  0  0  0  0  0  0  0
    8.6659   -4.6535    0.0000 C   0  0  0  0  0  0  0  0  0  0  0  0
    7.6040   -5.6097    0.0000 C   0  0  0  0  0  0  0  0  0  0  0  0
    8.7914   -6.8582    0.0000 C   0  0  2  0  0  0  0  0  0  0  0  0
    8.7914   -7.6832    0.0000 H   0  0  0  0  0  0  0  0  0  0  0  0
    8.0770   -7.2707    0.0000 C   0  0  1  0  0  0  0  0  0  0  0  0
    8.0770   -6.4457    0.0000 H   0  0  0  0  0  0  0  0  0  0  0  0
    7.3625   -6.8582    0.0000 C   0  0  0  0  0  0  0  0  0  0  0  0
    6.6480   -7.2707    0.0000 C   0  0  0  0  0  0  0  0  0  0  0  0
    6.6480   -8.0957    0.0000 C   0  0  2  0  0  0  0  0  0  0  0  0
    5.9336   -8.5082    0.0000 C   0  0  1  0  0  0  0  0  0  0  0  0
    5.9336   -7.6832    0.0000 C   0  0  0  0  0  0  0  0  0  0  0  0
    3.7901   -9.7457    0.0000 O   0  0  0  0  0  0  0  0  0  0  0  0
    6.6480   -8.9207    0.0000 H   0  0  0  0  0  0  0  0  0  0  0  0
  1  2  1  0  0  0  0
  2  3  1  0  0  0  0
  1  4  1  0  0  0  0
  4  5  1  6  0  0  0
  4  6  1  1  0  0  0
  4  7  1  0  0  0  0
  7  8  1  6  0  0  0
  7  9  1  0  0  0  0
  9 10  1  0  0  0  0
 10 11  1  0  0  0  0
 11 12  1  1  0  0  0
 11 13  1  0  0  0  0
 13 14  1  6  0  0  0
 13 15  1  0  0  0  0
 15 16  1  0  0  0  0
 16 17  1  0  0  0  0
 17 18  1  1  0  0  0
 17 19  1  0  0  0  0
 19 20  1  0  0  0  0
 20 21  1  0  0  0  0
 21 22  1  6  0  0  0
 22 23  2  0  0  0  0
 22 24  1  0  0  0  0
 21 25  1  0  0  0  0
 25 26  1  6  0  0  0
 17 25  1  0  0  0  0
 25 27  1  0  0  0  0
 13 27  1  0  0  0  0
 27 28  1  1  0  0  0
 27 29  1  0  0  0  0
 29 30  1  0  0  0  0
 30 31  1  0  0  0  0
 11 31  1  0  0  0  0
 31 32  1  0  0  0  0
  3 32  1  0  0  0  0
  7 32  1  0  0  0  0
 32 33  1  1  0  0  0
  1 34  1  1  0  0  0
 31 35  1  6  0  0  0
M  END
>  <cdx:groupId>
5216

>  <cdx:fragmentId>
5110

$$$$
