2599.cdx
  Mrv1902 05222410192D          

 21 22  0  0  0  0            999 V2000
    8.5847   -7.4110    0.0000 C   0  0  0  0  0  0  0  0  0  0  0  0
    8.8394   -6.6263    0.0000 C   0  0  0  0  0  0  0  0  0  0  0  0
    9.6463   -6.4545    0.0000 C   0  0  0  0  0  0  0  0  0  0  0  0
   10.1986   -7.0674    0.0000 C   0  0  0  0  0  0  0  0  0  0  0  0
    9.1370   -8.0239    0.0000 O   0  0  0  0  0  0  0  0  0  0  0  0
    7.7778   -7.5828    0.0000 O   0  0  0  0  0  0  0  0  0  0  0  0
    8.2872   -6.0134    0.0000 C   0  0  0  0  0  0  0  0  0  0  0  0
    6.7162   -8.5393    0.0000 C   0  0  0  0  0  0  0  0  0  0  0  0
    7.5231   -8.3675    0.0000 C   0  0  0  0  0  0  0  0  0  0  0  0
    8.0754   -8.9804    0.0000 C   0  0  0  0  0  0  0  0  0  0  0  0
    8.8823   -8.8086    0.0000 C   0  0  0  0  0  0  0  0  0  0  0  0
    6.9467   -9.9912    0.0000 O   0  0  0  0  0  0  0  0  0  0  0  0
    6.4615   -9.3240    0.0000 C   0  0  0  0  0  0  0  0  0  0  0  0
    5.6770   -9.5792    0.0000 C   0  0  0  0  0  0  0  0  0  0  0  0
    5.6772  -10.4042    0.0000 C   0  0  0  0  0  0  0  0  0  0  0  0
    6.4620  -10.6588    0.0000 C   0  0  0  0  0  0  0  0  0  0  0  0
    4.9629  -10.8169    0.0000 C   0  0  0  0  0  0  0  0  0  0  0  0
    4.2483  -10.4046    0.0000 C   0  0  0  0  0  0  0  0  0  0  0  0
    4.2480   -9.5796    0.0000 C   0  0  0  0  0  0  0  0  0  0  0  0
    4.9624   -9.1669    0.0000 C   0  0  0  0  0  0  0  0  0  0  0  0
    6.7171  -11.4434    0.0000 O   0  0  0  0  0  0  0  0  0  0  0  0
  1  2  1  0  0  0  0
  2  3  2  0  0  0  0
  3  4  1  0  0  0  0
  1  5  2  0  0  0  0
  1  6  1  0  0  0  0
  2  7  1  0  0  0  0
  8  9  1  0  0  0  0
  9 10  1  0  0  0  0
 10 11  1  0  0  0  0
 12 13  1  0  0  0  0
 13 14  1  0  0  0  0
 14 15  2  0  0  0  0
 15 16  1  0  0  0  0
 12 16  1  0  0  0  0
 17 18  2  0  0  0  0
 18 19  1  0  0  0  0
 19 20  1  0  0  0  0
 20 14  1  0  0  0  0
 17 15  1  0  0  0  0
 16 21  2  0  0  0  0
  8 13  2  0  0  0  0
  6  9  1  0  0  0  0
M  END
>  <cdx:fragmentId>
27

$$$$
