260.cdx
  Mrv1902 05222410202D          

 33 37  0  0  0  0            999 V2000
    3.6694   -9.4598    0.0000 C   0  0  0  0  0  0  0  0  0  0  0  0
    3.6694  -10.2848    0.0000 C   0  0  1  0  0  0  0  0  0  0  0  0
    4.3839  -10.6973    0.0000 C   0  0  0  0  0  0  0  0  0  0  0  0
    5.0984  -10.2848    0.0000 C   0  0  2  0  0  0  0  0  0  0  0  0
    5.0984   -9.4598    0.0000 C   0  0  2  0  0  0  0  0  0  0  0  0
    4.3839   -9.0473    0.0000 C   0  0  0  0  0  0  0  0  0  0  0  0
    5.8128  -10.6973    0.0000 C   0  0  1  0  0  0  0  0  0  0  0  0
    6.5273  -10.2848    0.0000 C   0  0  0  0  0  0  0  0  0  0  0  0
    6.5273   -9.4598    0.0000 C   0  0  2  0  0  0  0  0  0  0  0  0
    5.8128   -9.0473    0.0000 C   0  0  2  0  0  0  0  0  0  0  0  0
    7.2418   -9.0473    0.0000 C   0  0  1  0  0  0  0  0  0  0  0  0
    7.2418   -8.2223    0.0000 C   0  0  2  0  0  0  0  0  0  0  0  0
    6.5273   -7.8098    0.0000 C   0  0  0  0  0  0  0  0  0  0  0  0
    5.8128   -8.2223    0.0000 C   0  0  0  0  0  0  0  0  0  0  0  0
    8.0264   -9.3022    0.0000 C   0  0  0  0  0  0  0  0  0  0  0  0
    8.5113   -8.6348    0.0000 C   0  0  0  0  0  0  0  0  0  0  0  0
    8.0264   -7.9673    0.0000 C   0  0  2  0  0  0  0  0  0  0  0  0
    2.9549  -10.6973    0.0000 O   0  0  0  0  0  0  0  0  0  0  0  0
    5.0984   -8.6348    0.0000 C   0  0  0  0  0  0  0  0  0  0  0  0
    7.2418   -7.3973    0.0000 C   0  0  0  0  0  0  0  0  0  0  0  0
    8.4389   -7.2528    0.0000 C   0  0  2  0  0  0  0  0  0  0  0  0
    8.0264   -6.5384    0.0000 C   0  0  0  0  0  0  0  0  0  0  0  0
   10.5014   -5.1094    0.0000 C   0  0  0  0  0  0  0  0  0  0  0  0
   11.7389   -5.8239    0.0000 C   0  0  0  0  0  0  0  0  0  0  0  0
   10.9139   -5.8239    0.0000 C   0  0  0  0  0  0  0  0  0  0  0  0
   10.5014   -6.5384    0.0000 C   0  0  0  0  0  0  0  0  0  0  0  0
    9.6764   -6.5384    0.0000 C   0  0  0  0  0  0  0  0  0  0  0  0
    9.2639   -7.2528    0.0000 C   0  0  0  0  0  0  0  0  0  0  0  0
    5.0984  -11.1098    0.0000 O   0  0  0  0  0  0  0  0  0  0  0  0
    5.8128   -9.8723    0.0000 H   0  0  0  0  0  0  0  0  0  0  0  0
    7.2418   -9.8723    0.0000 H   0  0  0  0  0  0  0  0  0  0  0  0
    8.8514   -7.9673    0.0000 H   0  0  0  0  0  0  0  0  0  0  0  0
    6.5273   -8.6348    0.0000 H   0  0  0  0  0  0  0  0  0  0  0  0
  1  2  1  0  0  0  0
  2  3  1  0  0  0  0
  3  4  1  0  0  0  0
  4  5  1  0  0  0  0
  5  6  1  0  0  0  0
  6  1  1  0  0  0  0
  4  7  1  0  0  0  0
  7  8  1  0  0  0  0
  8  9  1  0  0  0  0
  9 10  1  0  0  0  0
 10  5  1  0  0  0  0
  9 11  1  0  0  0  0
 11 12  1  0  0  0  0
 12 13  1  0  0  0  0
 13 14  1  0  0  0  0
 14 10  1  0  0  0  0
 11 15  1  0  0  0  0
 15 16  1  0  0  0  0
 16 17  1  0  0  0  0
 17 12  1  0  0  0  0
  2 18  1  1  0  0  0
  5 19  1  1  0  0  0
 12 20  1  1  0  0  0
 17 21  1  0  0  0  0
 21 22  1  6  0  0  0
 25 23  1  0  0  0  0
 21 28  1  0  0  0  0
 25 24  1  0  0  0  0
 26 25  1  0  0  0  0
 27 26  1  0  0  0  0
 28 27  1  0  0  0  0
 10 30  1  6  0  0  0
 11 31  1  6  0  0  0
 17 32  1  6  0  0  0
  9 33  1  1  0  0  0
  4 29  1  1  0  0  0
  7 29  1  1  0  0  0
M  END
>  <cdx:fragmentId>
5

$$$$
