26050.cdx
  Mrv1902 05222410202D          

 12 13  0  0  0  0            999 V2000
    7.5100   -3.5406    0.0000 C   0  0  1  0  0  0  0  0  0  0  0  0
    6.7955   -3.1281    0.0000 C   0  0  0  0  0  0  0  0  0  0  0  0
    6.0810   -3.5406    0.0000 C   0  0  0  0  0  0  0  0  0  0  0  0
    6.0810   -4.3656    0.0000 C   0  0  0  0  0  0  0  0  0  0  0  0
    6.7955   -4.7781    0.0000 C   0  0  0  0  0  0  0  0  0  0  0  0
    7.5100   -4.3656    0.0000 C   0  0  1  0  0  0  0  0  0  0  0  0
    8.2245   -3.9531    0.0000 C   0  0  0  0  0  0  0  0  0  0  0  0
    8.9389   -4.3656    0.0000 C   0  0  0  0  0  0  0  0  0  0  0  0
    8.9389   -3.5406    0.0000 C   0  0  0  0  0  0  0  0  0  0  0  0
    5.3666   -3.1281    0.0000 C   0  0  0  0  0  0  0  0  0  0  0  0
    7.7235   -2.7437    0.0000 H   0  0  0  0  0  0  0  0  0  0  0  0
    7.7235   -5.1625    0.0000 H   0  0  0  0  0  0  0  0  0  0  0  0
  1  2  1  0  0  0  0
  2  3  1  0  0  0  0
  3  4  2  0  0  0  0
  4  5  1  0  0  0  0
  5  6  1  0  0  0  0
  1  6  1  0  0  0  0
  6  7  1  0  0  0  0
  1  7  1  0  0  0  0
  7  8  1  0  0  0  0
  7  9  1  0  0  0  0
  3 10  1  0  0  0  0
  1 11  1  1  0  0  0
  6 12  1  1  0  0  0
M  END
>  <cdx:fragmentId>
5

$$$$
