26058.cdx
  Mrv1902 05222410232D          

 12 11  0  0  0  0            999 V2000
    8.3961   -3.9113    0.0000 C   0  0  0  0  0  0  0  0  0  0  0  0
    8.8086   -4.6258    0.0000 C   0  0  0  0  0  0  0  0  0  0  0  0
    8.0941   -5.0383    0.0000 C   0  0  0  0  0  0  0  0  0  0  0  0
    7.3796   -4.6258    0.0000 C   0  0  0  0  0  0  0  0  0  0  0  0
    6.6652   -5.0383    0.0000 C   0  0  0  0  0  0  0  0  0  0  0  0
    5.9507   -4.6258    0.0000 C   0  0  0  0  0  0  0  0  0  0  0  0
    5.5382   -5.3403    0.0000 C   0  0  0  0  0  0  0  0  0  0  0  0
    5.2362   -4.2133    0.0000 C   0  0  0  0  0  0  0  0  0  0  0  0
    6.3632   -3.9113    0.0000 C   0  0  0  0  0  0  0  0  0  0  0  0
    7.3796   -3.8008    0.0000 C   0  0  0  0  0  0  0  0  0  0  0  0
    9.5230   -4.2133    0.0000 C   0  0  0  0  0  0  0  0  0  0  0  0
    9.2211   -5.3403    0.0000 C   0  0  0  0  0  0  0  0  0  0  0  0
  1  2  1  0  0  0  0
  2  3  1  0  0  0  0
  3  4  1  0  0  0  0
  4  5  1  0  0  0  0
  5  6  1  0  0  0  0
  6  7  1  0  0  0  0
  6  8  1  0  0  0  0
  6  9  1  0  0  0  0
  4 10  1  0  0  0  0
  2 11  1  0  0  0  0
  2 12  1  0  0  0  0
M  END
>  <cdx:fragmentId>
5

$$$$
