26104.cdx
  Mrv1902 05222410242D          

 18 19  0  0  0  0            999 V2000
    5.8559   -6.4622    0.0000 C   0  0  0  0  0  0  0  0  0  0  0  0
    5.8559   -7.2872    0.0000 C   0  0  0  0  0  0  0  0  0  0  0  0
    5.1414   -7.6997    0.0000 C   0  0  0  0  0  0  0  0  0  0  0  0
    4.4270   -7.2872    0.0000 C   0  0  0  0  0  0  0  0  0  0  0  0
    4.4270   -6.4622    0.0000 C   0  0  0  0  0  0  0  0  0  0  0  0
    5.1414   -6.0497    0.0000 C   0  0  0  0  0  0  0  0  0  0  0  0
    6.5704   -6.0497    0.0000 C   0  0  0  0  0  0  0  0  0  0  0  0
    6.5704   -5.2247    0.0000 O   0  0  0  0  0  0  0  0  0  0  0  0
    7.2848   -6.4622    0.0000 O   0  0  0  0  0  0  0  0  0  0  0  0
    7.9993   -6.0497    0.0000 C   0  0  0  0  0  0  0  0  0  0  0  0
    7.9993   -5.2247    0.0000 C   0  0  0  0  0  0  0  0  0  0  0  0
    8.7138   -4.8122    0.0000 C   0  0  0  0  0  0  0  0  0  0  0  0
    9.4283   -5.2247    0.0000 C   0  0  0  0  0  0  0  0  0  0  0  0
    9.4283   -6.0497    0.0000 C   0  0  0  0  0  0  0  0  0  0  0  0
    8.7138   -6.4622    0.0000 C   0  0  0  0  0  0  0  0  0  0  0  0
   10.1427   -4.8122    0.0000 N   0  3  0  0  0  0  0  0  0  0  0  0
   10.1427   -3.9872    0.0000 O   0  0  0  0  0  0  0  0  0  0  0  0
   10.8572   -5.2247    0.0000 O   0  5  0  0  0  0  0  0  0  0  0  0
  1  2  1  0  0  0  0
  2  3  1  0  0  0  0
  3  4  1  0  0  0  0
  4  5  1  0  0  0  0
  5  6  1  0  0  0  0
  1  6  1  0  0  0  0
  7  8  2  0  0  0  0
  7  9  1  0  0  0  0
  1  7  1  0  0  0  0
 10 11  1  0  0  0  0
 11 12  2  0  0  0  0
 12 13  1  0  0  0  0
 13 14  2  0  0  0  0
 14 15  1  0  0  0  0
 10 15  2  0  0  0  0
 16 17  2  0  0  0  0
 16 18  1  0  0  0  0
 13 16  1  0  0  0  0
  9 10  1  0  0  0  0
M  CHG  2  16   1  18  -1
M  END
>  <cdx:fragmentId>
23

$$$$
