261406.cdx
  Mrv1902 05222410192D          

 11 11  0  0  0  0            999 V2000
    6.7666   -4.4013    0.0000 N   0  0  0  0  0  0  0  0  0  0  0  0
    7.4356   -4.8840    0.0000 C   0  0  1  0  0  0  0  0  0  0  0  0
    7.1833   -5.6694    0.0000 C   0  0  2  0  0  0  0  0  0  0  0  0
    6.3583   -5.6722    0.0000 C   0  0  2  0  0  0  0  0  0  0  0  0
    6.1008   -4.8884    0.0000 C   0  0  1  0  0  0  0  0  0  0  0  0
    7.6705   -6.3352    0.0000 O   0  0  0  0  0  0  0  0  0  0  0  0
    5.8757   -6.3413    0.0000 O   0  0  0  0  0  0  0  0  0  0  0  0
    5.3153   -4.6361    0.0000 C   0  0  0  0  0  0  0  0  0  0  0  0
    4.7041   -5.1902    0.0000 O   0  0  0  0  0  0  0  0  0  0  0  0
    8.2194   -4.6264    0.0000 C   0  0  0  0  0  0  0  0  0  0  0  0
    8.8344   -5.1764    0.0000 O   0  0  0  0  0  0  0  0  0  0  0  0
  1  2  1  0  0  0  0
  2  3  1  0  0  0  0
  3  4  1  0  0  0  0
  4  5  1  0  0  0  0
  1  5  1  0  0  0  0
  3  6  1  1  0  0  0
  4  7  1  1  0  0  0
  8  9  1  0  0  0  0
  5  8  1  1  0  0  0
 10 11  1  0  0  0  0
  2 10  1  6  0  0  0
M  END
>  <cdx:fragmentId>
43643

$$$$
