92261439.cdx
  Mrv1902 05222410182D          

 19 21  0  0  0  0            999 V2000
    4.6375  -14.1646    0.0000 C   0  0  0  0  0  0  0  0  0  0  0  0
    4.6375  -14.9896    0.0000 C   0  0  0  0  0  0  0  0  0  0  0  0
    5.3519  -15.4021    0.0000 C   0  0  0  0  0  0  0  0  0  0  0  0
    6.0664  -14.9896    0.0000 C   0  0  0  0  0  0  0  0  0  0  0  0
    6.7809  -15.4021    0.0000 C   0  0  0  0  0  0  0  0  0  0  0  0
    7.4954  -14.9896    0.0000 C   0  0  0  0  0  0  0  0  0  0  0  0
    7.4954  -14.1646    0.0000 C   0  0  0  0  0  0  0  0  0  0  0  0
    6.7809  -13.7521    0.0000 C   0  0  0  0  0  0  0  0  0  0  0  0
    6.0664  -14.1646    0.0000 C   0  0  0  0  0  0  0  0  0  0  0  0
    5.3519  -13.7521    0.0000 O   0  0  0  0  0  0  0  0  0  0  0  0
    8.2800  -13.9097    0.0000 O   0  0  0  0  0  0  0  0  0  0  0  0
    8.2800  -15.2446    0.0000 C   0  0  2  0  0  0  0  0  0  0  0  0
    8.7649  -14.5771    0.0000 C   0  0  1  0  0  0  0  0  0  0  0  0
    3.9230  -13.7521    0.0000 O   0  0  0  0  0  0  0  0  0  0  0  0
   10.0024  -15.2916    0.0000 C   0  0  0  0  0  0  0  0  0  0  0  0
    9.5899  -14.5771    0.0000 C   0  0  0  0  0  0  0  0  0  0  0  0
   10.0024  -13.8627    0.0000 C   0  0  0  0  0  0  0  0  0  0  0  0
   10.4149  -14.5771    0.0000 O   0  0  0  0  0  0  0  0  0  0  0  0
    8.5349  -16.0292    0.0000 O   0  0  0  0  0  0  0  0  0  0  0  0
  1  2  1  0  0  0  0
  2  3  2  0  0  0  0
  3  4  1  0  0  0  0
  4  5  2  0  0  0  0
  5  6  1  0  0  0  0
  6  7  2  0  0  0  0
  7  8  1  0  0  0  0
  8  9  2  0  0  0  0
  4  9  1  0  0  0  0
  9 10  1  0  0  0  0
  1 10  1  0  0  0  0
 12 13  1  0  0  0  0
 11 13  1  0  0  0  0
 12  6  1  0  0  0  0
 11  7  1  0  0  0  0
  1 14  2  0  0  0  0
 15 16  1  0  0  0  0
 16 17  1  0  0  0  0
 16 18  1  0  0  0  0
 13 16  1  6  0  0  0
 12 19  1  6  0  0  0
M  END
>  <cdx:groupId>
220082

>  <cdx:fragmentId>
220026

$$$$
