262075.cdx
  Mrv1902 05222410282D          

 16 16  0  0  0  0            999 V2000
   11.2632   -7.9943    0.0000 C   0  0  0  0  0  0  0  0  0  0  0  0
   10.5488   -7.5818    0.0000 C   0  0  0  0  0  0  0  0  0  0  0  0
    9.8343   -7.9943    0.0000 C   0  0  0  0  0  0  0  0  0  0  0  0
    9.1198   -7.5818    0.0000 C   0  0  0  0  0  0  0  0  0  0  0  0
    8.4054   -7.9943    0.0000 C   0  0  0  0  0  0  0  0  0  0  0  0
    7.6909   -7.5818    0.0000 C   0  0  0  0  0  0  0  0  0  0  0  0
    6.9764   -7.9943    0.0000 C   0  0  0  0  0  0  0  0  0  0  0  0
    6.2619   -7.5818    0.0000 C   0  0  0  0  0  0  0  0  0  0  0  0
    5.5475   -7.9943    0.0000 C   0  0  0  0  0  0  0  0  0  0  0  0
    4.1514   -8.0465    0.0000 C   0  0  0  0  0  0  0  0  0  0  0  0
    3.3630   -7.8034    0.0000 C   0  0  0  0  0  0  0  0  0  0  0  0
    3.0616   -7.0354    0.0000 C   0  0  0  0  0  0  0  0  0  0  0  0
    3.4741   -6.3209    0.0000 C   0  0  0  0  0  0  0  0  0  0  0  0
    4.2899   -6.1980    0.0000 C   0  0  0  0  0  0  0  0  0  0  0  0
    4.8947   -6.7591    0.0000 C   0  0  0  0  0  0  0  0  0  0  0  0
    4.8330   -7.5818    0.0000 C   0  0  0  0  0  0  0  0  0  0  0  0
 16  9  1  0  0  0  0
  2  1  1  0  0  0  0
  3  2  1  0  0  0  0
  4  3  1  0  0  0  0
  5  4  1  0  0  0  0
  6  5  1  0  0  0  0
  7  6  1  0  0  0  0
  8  7  1  0  0  0  0
  9  8  1  0  0  0  0
 16 10  1  0  0  0  0
 11 10  1  0  0  0  0
 12 11  1  0  0  0  0
 13 12  1  0  0  0  0
 14 13  1  0  0  0  0
 15 14  1  0  0  0  0
 16 15  1  0  0  0  0
M  END
>  <cdx:fragmentId>
127263

$$$$
