26252.cdx
  Mrv1902 05222410202D          

 10 10  0  0  0  0            999 V2000
    5.1968   -1.9602    0.0000 C   0  0  0  0  0  0  0  0  0  0  0  0
    5.1968   -2.7852    0.0000 C   0  0  0  0  0  0  0  0  0  0  0  0
    4.4823   -3.1977    0.0000 C   0  0  0  0  0  0  0  0  0  0  0  0
    3.7679   -2.7852    0.0000 C   0  0  0  0  0  0  0  0  0  0  0  0
    3.7679   -1.9602    0.0000 C   0  0  0  0  0  0  0  0  0  0  0  0
    4.4823   -1.5477    0.0000 C   0  0  0  0  0  0  0  0  0  0  0  0
    5.9113   -1.5477    0.0000 O   0  0  0  0  0  0  0  0  0  0  0  0
    5.9113   -3.1977    0.0000 C   0  0  0  0  0  0  0  0  0  0  0  0
    5.9113   -4.0227    0.0000 C   0  0  0  0  0  0  0  0  0  0  0  0
    6.6258   -2.7852    0.0000 C   0  0  0  0  0  0  0  0  0  0  0  0
  1  2  1  0  0  0  0
  2  3  1  0  0  0  0
  3  4  1  0  0  0  0
  4  5  1  0  0  0  0
  5  6  1  0  0  0  0
  1  6  1  0  0  0  0
  1  7  2  0  0  0  0
  8  9  1  0  0  0  0
  8 10  1  0  0  0  0
  2  8  2  0  0  0  0
M  END
>  <cdx:groupId>
32

>  <cdx:fragmentId>
5

$$$$
