262534.cdx
  Mrv1902 05222410182D          

 15 16  0  0  0  0            999 V2000
    5.1901  -14.0984    0.0000 O   0  0  0  0  0  0  0  0  0  0  0  0
    7.0316  -13.3839    0.0000 O   0  0  0  0  0  0  0  0  0  0  0  0
    7.3335  -16.1609    0.0000 C   0  0  0  0  0  0  0  0  0  0  0  0
    6.2066  -13.3839    0.0000 C   0  0  0  0  0  0  0  0  0  0  0  0
    9.4769  -14.0984    0.0000 O   0  0  0  0  0  0  0  0  0  0  0  0
    7.3335  -14.5109    0.0000 C   0  0  0  0  0  0  0  0  0  0  0  0
    6.6191  -14.0984    0.0000 C   0  0  2  0  0  0  0  0  0  0  0  0
    5.9046  -14.5109    0.0000 C   0  0  1  0  0  0  0  0  0  0  0  0
    5.9046  -15.3359    0.0000 C   0  0  0  0  0  0  0  0  0  0  0  0
    6.6191  -15.7484    0.0000 C   0  0  0  0  0  0  0  0  0  0  0  0
    7.3335  -15.3359    0.0000 C   0  0  1  0  0  0  0  0  0  0  0  0
    8.0480  -15.7484    0.0000 C   0  0  0  0  0  0  0  0  0  0  0  0
    8.7625  -15.3359    0.0000 C   0  0  0  0  0  0  0  0  0  0  0  0
    8.7625  -14.5109    0.0000 C   0  0  0  0  0  0  0  0  0  0  0  0
    8.0480  -14.0984    0.0000 C   0  0  0  0  0  0  0  0  0  0  0  0
  8  1  1  1  0  0  0
  7  2  1  6  0  0  0
 11  3  1  6  0  0  0
  7  4  1  1  0  0  0
 14  5  2  0  0  0  0
 11  6  1  0  0  0  0
 15  6  2  0  0  0  0
  7  6  1  0  0  0  0
  8  7  1  0  0  0  0
  9  8  1  0  0  0  0
 10  9  1  0  0  0  0
 11 10  1  0  0  0  0
 12 11  1  0  0  0  0
 13 12  1  0  0  0  0
 14 13  1  0  0  0  0
 15 14  1  0  0  0  0
M  END
>  <cdx:groupId>
43723

>  <cdx:fragmentId>
43680

$$$$
