263.cdx
  Mrv1902 05222410192D          

  5  4  0  0  0  0            999 V2000
    6.6305   -8.2029    0.0000 C   0  0  0  0  0  0  0  0  0  0  0  0
    7.3450   -8.6154    0.0000 C   0  0  0  0  0  0  0  0  0  0  0  0
    8.0595   -8.2029    0.0000 C   0  0  0  0  0  0  0  0  0  0  0  0
    8.7739   -8.6154    0.0000 C   0  0  0  0  0  0  0  0  0  0  0  0
    5.9160   -8.6154    0.0000 O   0  0  0  0  0  0  0  0  0  0  0  0
  1  2  1  0  0  0  0
  2  3  1  0  0  0  0
  3  4  1  0  0  0  0
  1  5  1  0  0  0  0
M  END
>  <cdx:fragmentId>
23

$$$$
