2630.cdx
  Mrv1902 05222410272D          

 69 75  0  0  0  0            999 V2000
    1.4073  -10.4156    0.0000 C   0  0  1  0  0  0  0  0  0  0  0  0
    1.4073  -11.0756    0.0000 C   0  0  1  0  0  0  0  0  0  0  0  0
    1.9788  -11.4056    0.0000 C   0  0  2  0  0  0  0  0  0  0  0  0
    2.5504  -11.0756    0.0000 C   0  0  1  0  0  0  0  0  0  0  0  0
    2.5504  -10.4156    0.0000 O   0  0  0  0  0  0  0  0  0  0  0  0
    1.9788  -10.0856    0.0000 C   0  0  2  0  0  0  0  0  0  0  0  0
    3.1220  -11.4056    0.0000 O   0  0  0  0  0  0  0  0  0  0  0  0
    3.6936  -11.0756    0.0000 C   0  0  1  0  0  0  0  0  0  0  0  0
    3.6936  -10.4156    0.0000 C   0  0  0  0  0  0  0  0  0  0  0  0
    4.2651  -11.4056    0.0000 C   0  0  1  0  0  0  0  0  0  0  0  0
    4.8367  -11.0756    0.0000 C   0  0  0  0  0  0  0  0  0  0  0  0
    4.8367  -10.4156    0.0000 C   0  0  1  0  0  0  0  0  0  0  0  0
    4.2651  -10.0856    0.0000 C   0  0  0  0  0  0  0  0  0  0  0  0
    5.4083  -11.4056    0.0000 C   0  0  0  0  0  0  0  0  0  0  0  0
    5.9799  -11.0756    0.0000 C   0  0  0  0  0  0  0  0  0  0  0  0
    5.9799  -10.4156    0.0000 C   0  0  1  0  0  0  0  0  0  0  0  0
    5.4083  -10.0856    0.0000 C   0  0  1  0  0  0  0  0  0  0  0  0
    6.5515  -10.0856    0.0000 C   0  0  1  0  0  0  0  0  0  0  0  0
    6.5515   -9.4256    0.0000 C   0  0  2  0  0  0  0  0  0  0  0  0
    5.9799   -9.0956    0.0000 C   0  0  0  0  0  0  0  0  0  0  0  0
    5.4083   -9.4256    0.0000 C   0  0  0  0  0  0  0  0  0  0  0  0
    7.1791  -10.2896    0.0000 C   0  0  0  0  0  0  0  0  0  0  0  0
    7.5671   -9.7556    0.0000 C   0  0  0  0  0  0  0  0  0  0  0  0
    7.1791   -9.2217    0.0000 C   0  0  2  0  0  0  0  0  0  0  0  0
    4.8367   -9.0956    0.0000 O   0  0  0  0  0  0  0  0  0  0  0  0
    7.3831   -8.5940    0.0000 C   0  0  2  0  0  0  0  0  0  0  0  0
    6.9415   -8.1035    0.0000 C   0  0  0  0  0  0  0  0  0  0  0  0
    8.0287   -8.4568    0.0000 C   0  0  0  0  0  0  0  0  0  0  0  0
    8.4703   -8.9472    0.0000 C   0  0  0  0  0  0  0  0  0  0  0  0
    9.1159   -8.8100    0.0000 C   0  0  2  0  0  0  0  0  0  0  0  0
    9.5575   -9.3005    0.0000 C   0  0  0  0  0  0  0  0  0  0  0  0
   10.2031   -9.1633    0.0000 C   0  0  0  0  0  0  0  0  0  0  0  0
    9.3536   -9.9282    0.0000 C   0  0  0  0  0  0  0  0  0  0  0  0
   10.0242   -9.7672    0.0000 O   0  0  0  0  0  0  0  0  0  0  0  0
    1.9788   -9.4256    0.0000 C   0  0  0  0  0  0  0  0  0  0  0  0
    1.4073   -9.0956    0.0000 O   0  0  0  0  0  0  0  0  0  0  0  0
    9.3198   -8.1823    0.0000 O   0  0  0  0  0  0  0  0  0  0  0  0
    9.0678   -7.0634    0.0000 C   0  0  1  0  0  0  0  0  0  0  0  0
    9.5145   -7.5493    0.0000 C   0  0  1  0  0  0  0  0  0  0  0  0
   10.1586   -7.4055    0.0000 O   0  0  0  0  0  0  0  0  0  0  0  0
   10.3561   -6.7757    0.0000 C   0  0  1  0  0  0  0  0  0  0  0  0
    9.9095   -6.2898    0.0000 C   0  0  2  0  0  0  0  0  0  0  0  0
    9.2653   -6.4336    0.0000 C   0  0  2  0  0  0  0  0  0  0  0  0
   11.0002   -6.6319    0.0000 C   0  0  0  0  0  0  0  0  0  0  0  0
   11.1977   -6.0021    0.0000 O   0  0  0  0  0  0  0  0  0  0  0  0
   10.1070   -5.6600    0.0000 O   0  0  0  0  0  0  0  0  0  0  0  0
   11.8419   -5.8583    0.0000 C   0  0  2  0  0  0  0  0  0  0  0  0
   12.0394   -5.2285    0.0000 O   0  0  0  0  0  0  0  0  0  0  0  0
   12.2885   -6.3442    0.0000 C   0  0  1  0  0  0  0  0  0  0  0  0
   12.9326   -6.2004    0.0000 C   0  0  2  0  0  0  0  0  0  0  0  0
   13.1301   -5.5706    0.0000 C   0  0  1  0  0  0  0  0  0  0  0  0
   12.6835   -5.0847    0.0000 C   0  0  1  0  0  0  0  0  0  0  0  0
   13.7743   -5.4267    0.0000 O   0  0  0  0  0  0  0  0  0  0  0  0
   13.5251   -4.3111    0.0000 O   0  0  0  0  0  0  0  0  0  0  0  0
   12.8810   -4.4549    0.0000 C   0  0  0  0  0  0  0  0  0  0  0  0
   12.0910   -6.9740    0.0000 O   0  0  0  0  0  0  0  0  0  0  0  0
    0.8357  -11.4056    0.0000 O   0  0  0  0  0  0  0  0  0  0  0  0
    3.9351  -11.9772    0.0000 C   0  0  0  0  0  0  0  0  0  0  0  0
    5.4083  -10.7456    0.0000 C   0  0  0  0  0  0  0  0  0  0  0  0
    6.5515   -8.7656    0.0000 C   0  0  0  0  0  0  0  0  0  0  0  0
    0.8357  -10.0856    0.0000 O   0  0  0  0  0  0  0  0  0  0  0  0
    1.9788  -12.0656    0.0000 O   0  0  0  0  0  0  0  0  0  0  0  0
    4.5951  -11.9772    0.0000 C   0  0  0  0  0  0  0  0  0  0  0  0
    4.8367   -9.7556    0.0000 H   0  0  0  0  0  0  0  0  0  0  0  0
    5.9799   -9.7556    0.0000 H   0  0  0  0  0  0  0  0  0  0  0  0
    6.5515  -10.7456    0.0000 C   0  0  0  0  0  0  0  0  0  0  0  0
    8.4237   -7.2073    0.0000 O   0  0  0  0  0  0  0  0  0  0  0  0
   13.3793   -6.6863    0.0000 O   0  0  0  0  0  0  0  0  0  0  0  0
    8.8187   -5.9477    0.0000 O   0  0  0  0  0  0  0  0  0  0  0  0
  1  2  1  0  0  0  0
  2  3  1  0  0  0  0
  3  4  1  0  0  0  0
  4  5  1  0  0  0  0
  5  6  1  0  0  0  0
  6  1  1  0  0  0  0
  4  7  1  1  0  0  0
  8  7  1  1  0  0  0
  8  9  1  0  0  0  0
  8 10  1  0  0  0  0
 10 11  1  0  0  0  0
 11 12  1  0  0  0  0
 12 13  1  0  0  0  0
 13  9  1  0  0  0  0
 11 14  2  0  0  0  0
 14 15  1  0  0  0  0
 15 16  1  0  0  0  0
 16 17  1  0  0  0  0
 17 12  1  0  0  0  0
 16 18  1  0  0  0  0
 18 19  1  0  0  0  0
 19 20  1  0  0  0  0
 20 21  1  0  0  0  0
 21 17  1  0  0  0  0
 18 22  1  0  0  0  0
 22 23  1  0  0  0  0
 23 24  1  0  0  0  0
 24 19  1  0  0  0  0
 21 25  2  0  0  0  0
 24 26  1  1  0  0  0
 26 27  1  6  0  0  0
 26 28  1  0  0  0  0
 28 29  1  0  0  0  0
 29 30  1  0  0  0  0
 30 31  1  0  0  0  0
 31 32  1  0  0  0  0
 31 33  1  0  0  0  0
 31 34  1  0  0  0  0
  6 35  1  1  0  0  0
 35 36  1  0  0  0  0
 30 37  1  1  0  0  0
 38 39  1  0  0  0  0
 39 40  1  0  0  0  0
 40 41  1  0  0  0  0
 41 42  1  0  0  0  0
 42 43  1  0  0  0  0
 43 38  1  0  0  0  0
 41 44  1  1  0  0  0
 44 45  1  0  0  0  0
 42 46  1  6  0  0  0
 47 45  1  6  0  0  0
 47 48  1  0  0  0  0
 47 49  1  0  0  0  0
 49 50  1  0  0  0  0
 50 51  1  0  0  0  0
 51 52  1  0  0  0  0
 52 48  1  0  0  0  0
 51 53  1  1  0  0  0
 54 55  1  0  0  0  0
 52 55  1  6  0  0  0
 49 56  1  1  0  0  0
  2 57  1  1  0  0  0
 10 58  1  1  0  0  0
 17 59  1  1  0  0  0
 19 60  1  1  0  0  0
  1 61  1  6  0  0  0
  3 62  1  6  0  0  0
 10 63  1  6  0  0  0
 12 64  1  6  0  0  0
 16 65  1  6  0  0  0
 18 66  1  6  0  0  0
 38 67  1  6  0  0  0
 50 68  1  6  0  0  0
 43 69  1  1  0  0  0
 39 37  1  1  0  0  0
M  END
>  <cdx:fragmentId>
5

$$$$
