263254.cdx
  Mrv1902 05222410252D          

 79 87  0  0  0  0            999 V2000
   14.1385  -10.8461    0.0000 C   0  0  1  0  0  0  0  0  0  0  0  0
   14.8530  -10.4336    0.0000 C   0  0  2  0  0  0  0  0  0  0  0  0
   15.6376  -10.6885    0.0000 C   0  0  0  0  0  0  0  0  0  0  0  0
   16.1225  -10.0211    0.0000 C   0  0  2  0  0  0  0  0  0  0  0  0
   16.9071   -9.7661    0.0000 O   0  0  0  0  0  0  0  0  0  0  0  0
   16.9071   -8.9411    0.0000 C   0  0  1  0  0  0  0  0  0  0  0  0
   16.1225   -8.6862    0.0000 C   0  0  2  0  0  0  0  0  0  0  0  0
   15.6376   -9.3536    0.0000 C   0  0  2  0  0  0  0  0  0  0  0  0
   14.8530   -9.6086    0.0000 C   0  0  1  0  0  0  0  0  0  0  0  0
   14.1385   -9.1961    0.0000 C   0  0  0  0  0  0  0  0  0  0  0  0
   13.4240   -9.6086    0.0000 C   0  0  0  0  0  0  0  0  0  0  0  0
   13.4240  -10.4336    0.0000 C   0  0  2  0  0  0  0  0  0  0  0  0
   12.7095  -10.8461    0.0000 C   0  0  1  0  0  0  0  0  0  0  0  0
   11.9951  -10.4336    0.0000 C   0  0  0  0  0  0  0  0  0  0  0  0
   11.2806  -10.8461    0.0000 C   0  0  0  0  0  0  0  0  0  0  0  0
   11.2806  -11.6711    0.0000 C   0  0  1  0  0  0  0  0  0  0  0  0
   11.9951  -12.0836    0.0000 C   0  0  0  0  0  0  0  0  0  0  0  0
   12.7095  -11.6711    0.0000 C   0  0  0  0  0  0  0  0  0  0  0  0
   13.4240  -12.0836    0.0000 C   0  0  0  0  0  0  0  0  0  0  0  0
   14.1385  -11.6711    0.0000 C   0  0  0  0  0  0  0  0  0  0  0  0
   17.7316   -8.9109    0.0000 C   0  0  0  0  0  0  0  0  0  0  0  0
   18.1699   -9.6098    0.0000 C   0  0  0  0  0  0  0  0  0  0  0  0
   18.9944   -9.5796    0.0000 C   0  0  2  0  0  0  0  0  0  0  0  0
   19.4328  -10.2785    0.0000 C   0  0  0  0  0  0  0  0  0  0  0  0
   20.2572  -10.2483    0.0000 O   0  0  0  0  0  0  0  0  0  0  0  0
   20.3095  -11.6763    0.0000 O   0  0  0  0  0  0  0  0  0  0  0  0
   20.6956  -10.9472    0.0000 C   0  0  2  0  0  0  0  0  0  0  0  0
   21.5200  -10.9170    0.0000 C   0  0  1  0  0  0  0  0  0  0  0  0
   21.9584  -11.6159    0.0000 C   0  0  2  0  0  0  0  0  0  0  0  0
   21.5724  -12.3450    0.0000 C   0  0  1  0  0  0  0  0  0  0  0  0
   20.7479  -12.3752    0.0000 C   0  0  1  0  0  0  0  0  0  0  0  0
   20.3619  -13.1043    0.0000 C   0  0  0  0  0  0  0  0  0  0  0  0
   20.8002  -13.8031    0.0000 O   0  0  0  0  0  0  0  0  0  0  0  0
   22.0107  -13.0438    0.0000 O   0  0  0  0  0  0  0  0  0  0  0  0
   22.7829  -11.5857    0.0000 O   0  0  0  0  0  0  0  0  0  0  0  0
   21.9061  -10.1879    0.0000 O   0  0  0  0  0  0  0  0  0  0  0  0
   19.3805   -8.8505    0.0000 C   0  0  0  0  0  0  0  0  0  0  0  0
   12.7095  -10.0211    0.0000 C   0  0  0  0  0  0  0  0  0  0  0  0
   14.8530   -8.7836    0.0000 C   0  0  0  0  0  0  0  0  0  0  0  0
   15.8676   -7.9016    0.0000 C   0  0  0  0  0  0  0  0  0  0  0  0
   14.1385  -10.0211    0.0000 H   0  0  0  0  0  0  0  0  0  0  0  0
   14.8530  -11.2586    0.0000 H   0  0  0  0  0  0  0  0  0  0  0  0
   16.6074  -10.6885    0.0000 H   0  0  0  0  0  0  0  0  0  0  0  0
   15.2759   -8.6121    0.0000 H   0  0  0  0  0  0  0  0  0  0  0  0
   13.4240  -11.2586    0.0000 H   0  0  0  0  0  0  0  0  0  0  0  0
    7.7083  -12.0661    0.0000 O   0  0  0  0  0  0  0  0  0  0  0  0
    8.4404   -9.1830    0.0000 O   0  0  0  0  0  0  0  0  0  0  0  0
    9.1523   -9.5999    0.0000 C   0  0  0  0  0  0  0  0  0  0  0  0
   10.5661  -12.0836    0.0000 O   0  0  0  0  0  0  0  0  0  0  0  0
    9.1206  -14.6873    0.0000 O   0  0  0  0  0  0  0  0  0  0  0  0
    7.6866  -15.5035    0.0000 O   0  0  0  0  0  0  0  0  0  0  0  0
    6.2627  -14.6698    0.0000 O   0  0  0  0  0  0  0  0  0  0  0  0
    6.2728  -13.0198    0.0000 C   0  0  0  0  0  0  0  0  0  0  0  0
    6.9848  -13.4367    0.0000 C   0  0  1  0  0  0  0  0  0  0  0  0
    6.9797  -14.2617    0.0000 C   0  0  1  0  0  0  0  0  0  0  0  0
    7.6917  -14.6785    0.0000 C   0  0  2  0  0  0  0  0  0  0  0  0
    8.4086  -14.2704    0.0000 C   0  0  2  0  0  0  0  0  0  0  0  0
    8.4137  -13.4454    0.0000 C   0  0  1  0  0  0  0  0  0  0  0  0
    7.7017  -13.0286    0.0000 O   0  0  0  0  0  0  0  0  0  0  0  0
    9.1307  -13.0373    0.0000 O   0  0  0  0  0  0  0  0  0  0  0  0
    9.8542  -11.6667    0.0000 C   0  0  1  0  0  0  0  0  0  0  0  0
    9.1372  -12.0748    0.0000 C   0  0  1  0  0  0  0  0  0  0  0  0
    8.4253  -11.6580    0.0000 C   0  0  2  0  0  0  0  0  0  0  0  0
    8.4303  -10.8330    0.0000 C   0  0  1  0  0  0  0  0  0  0  0  0
    9.1473  -10.4249    0.0000 C   0  0  2  0  0  0  0  0  0  0  0  0
    9.8592  -10.8417    0.0000 O   0  0  0  0  0  0  0  0  0  0  0  0
    7.6423  -10.2911    0.0000 O   0  0  0  0  0  0  0  0  0  0  0  0
    6.1983  -12.7573    0.0000 C   0  0  0  0  0  0  0  0  0  0  0  0
    4.7744  -11.9236    0.0000 O   0  0  0  0  0  0  0  0  0  0  0  0
    4.7845  -10.2736    0.0000 O   0  0  0  0  0  0  0  0  0  0  0  0
    6.2184   -9.4574    0.0000 O   0  0  0  0  0  0  0  0  0  0  0  0
    6.2033  -11.9323    0.0000 C   0  0  1  0  0  0  0  0  0  0  0  0
    5.4914  -11.5155    0.0000 C   0  0  1  0  0  0  0  0  0  0  0  0
    5.4964  -10.6905    0.0000 C   0  0  2  0  0  0  0  0  0  0  0  0
    6.2134  -10.2823    0.0000 C   0  0  2  0  0  0  0  0  0  0  0  0
    6.9253  -10.6992    0.0000 C   0  0  1  0  0  0  0  0  0  0  0  0
    6.9203  -11.5242    0.0000 O   0  0  0  0  0  0  0  0  0  0  0  0
   17.3196   -8.2266    0.0000 O   0  0  0  0  0  0  0  0  0  0  0  0
   18.1446   -8.2266    0.0000 C   0  0  0  0  0  0  0  0  0  0  0  0
 76 67  1  6  0  0  0
 64 67  1  6  0  0  0
 63 46  1  1  0  0  0
 65 48  1  1  0  0  0
 48 47  1  0  0  0  0
 61 49  1  1  0  0  0
 62 60  1  6  0  0  0
 58 60  1  1  0  0  0
 57 50  1  6  0  0  0
 56 51  1  6  0  0  0
 55 52  1  1  0  0  0
 54 53  1  6  0  0  0
 59 54  1  0  0  0  0
 55 54  1  0  0  0  0
 56 55  1  0  0  0  0
 57 56  1  0  0  0  0
 58 57  1  0  0  0  0
 59 58  1  0  0  0  0
 66 61  1  0  0  0  0
 62 61  1  0  0  0  0
 63 62  1  0  0  0  0
 64 63  1  0  0  0  0
 65 64  1  0  0  0  0
 66 65  1  0  0  0  0
 72 68  1  1  0  0  0
 73 69  1  6  0  0  0
 74 70  1  1  0  0  0
 75 71  1  1  0  0  0
 77 72  1  0  0  0  0
 73 72  1  0  0  0  0
 74 73  1  0  0  0  0
 75 74  1  0  0  0  0
 76 75  1  0  0  0  0
 77 76  1  0  0  0  0
  1  2  1  0  0  0  0
  2  3  1  0  0  0  0
  3  4  1  0  0  0  0
  4  5  1  0  0  0  0
  5  6  1  0  0  0  0
  6  7  1  0  0  0  0
  7  8  1  0  0  0  0
  8  9  1  0  0  0  0
  9 10  1  0  0  0  0
 10 11  1  0  0  0  0
 11 12  1  0  0  0  0
 12 13  1  0  0  0  0
 13 14  1  0  0  0  0
 14 15  1  0  0  0  0
 15 16  1  0  0  0  0
 16 17  1  0  0  0  0
 17 18  1  0  0  0  0
 18 19  2  0  0  0  0
 19 20  1  0  0  0  0
  1 20  1  0  0  0  0
  1 12  1  0  0  0  0
 13 18  1  0  0  0  0
  2  9  1  0  0  0  0
  4  8  1  0  0  0  0
 21 22  1  0  0  0  0
 22 23  1  0  0  0  0
 23 24  1  0  0  0  0
 26 27  1  0  0  0  0
 27 28  1  0  0  0  0
 28 29  1  0  0  0  0
 29 30  1  0  0  0  0
 30 31  1  0  0  0  0
 26 31  1  0  0  0  0
 32 33  1  0  0  0  0
 31 32  1  1  0  0  0
 30 34  1  6  0  0  0
 29 35  1  1  0  0  0
 28 36  1  6  0  0  0
 27 25  1  1  0  0  0
 24 25  1  0  0  0  0
 23 37  1  1  0  0  0
  6 21  1  0  0  0  0
 13 38  1  1  0  0  0
  9 39  1  1  0  0  0
  7 40  1  6  0  0  0
 16 49  1  1  0  0  0
  1 41  1  1  0  0  0
  2 42  1  6  0  0  0
  4 43  1  6  0  0  0
  8 44  1  6  0  0  0
 12 45  1  6  0  0  0
  6 78  1  6  0  0  0
 78 79  1  0  0  0  0
M  END
>  <cdx:fragmentId>
63

$$$$
