263246.cdx
  Mrv1902 05222410242D          

 16 16  0  0  0  0            999 V2000
   11.7989   -7.3527    0.0000 C   0  0  0  0  0  0  0  0  0  0  0  0
   11.0137   -7.6060    0.0000 C   0  0  0  0  0  0  0  0  0  0  0  0
   10.2286   -7.8593    0.0000 C   0  0  0  0  0  0  0  0  0  0  0  0
    8.7770   -7.6262    0.0000 S   0  0  0  0  0  0  0  0  0  0  0  0
    9.4434   -8.1126    0.0000 C   0  0  0  0  0  0  0  0  0  0  0  0
    9.1868   -8.8967    0.0000 C   0  0  0  0  0  0  0  0  0  0  0  0
    8.3618   -8.8949    0.0000 C   0  0  0  0  0  0  0  0  0  0  0  0
    8.1085   -8.1098    0.0000 C   0  0  0  0  0  0  0  0  0  0  0  0
    4.0183   -6.0195    0.0000 O   0  0  0  0  0  0  0  0  0  0  0  0
    2.7898   -7.1210    0.0000 O   0  0  0  0  0  0  0  0  0  0  0  0
    7.3245   -7.8532    0.0000 C   0  0  0  0  0  0  0  0  0  0  0  0
    6.5404   -7.5966    0.0000 C   0  0  0  0  0  0  0  0  0  0  0  0
    5.7563   -7.3400    0.0000 C   0  0  0  0  0  0  0  0  0  0  0  0
    4.9722   -7.0834    0.0000 C   0  0  0  0  0  0  0  0  0  0  0  0
    4.1881   -6.8268    0.0000 C   0  0  0  0  0  0  0  0  0  0  0  0
    3.5739   -7.3775    0.0000 C   0  0  0  0  0  0  0  0  0  0  0  0
 11  8  1  0  0  0  0
  5  3  1  0  0  0  0
  2  1  1  0  0  0  0
  3  2  3  0  0  0  0
  8  4  1  0  0  0  0
  5  4  1  0  0  0  0
  6  5  2  0  0  0  0
  7  6  1  0  0  0  0
  8  7  2  0  0  0  0
 15  9  1  0  0  0  0
 16 10  1  0  0  0  0
 12 11  3  0  0  0  0
 13 12  1  0  0  0  0
 14 13  3  0  0  0  0
 15 14  1  0  0  0  0
 16 15  1  0  0  0  0
M  END
>  <cdx:fragmentId>
43746

$$$$
