26332.cdx
  Mrv1902 05222410202D          

  9  9  0  0  0  0            999 V2000
    8.1700   -5.8649    0.0000 C   0  0  0  0  0  0  0  0  0  0  0  0
    8.1700   -5.0399    0.0000 C   0  0  0  0  0  0  0  0  0  0  0  0
    7.4555   -6.2774    0.0000 N   0  0  0  0  0  0  0  0  0  0  0  0
    7.4555   -4.6274    0.0000 N   0  0  0  0  0  0  0  0  0  0  0  0
    6.7410   -5.0399    0.0000 C   0  0  0  0  0  0  0  0  0  0  0  0
    6.7410   -5.8649    0.0000 C   0  0  0  0  0  0  0  0  0  0  0  0
    6.0266   -6.2774    0.0000 C   0  0  0  0  0  0  0  0  0  0  0  0
    8.8845   -6.2774    0.0000 C   0  0  0  0  0  0  0  0  0  0  0  0
    9.5989   -5.8649    0.0000 C   0  0  0  0  0  0  0  0  0  0  0  0
  1  2  1  0  0  0  0
  1  3  2  0  0  0  0
  2  4  2  0  0  0  0
  4  5  1  0  0  0  0
  5  6  2  0  0  0  0
  3  6  1  0  0  0  0
  6  7  1  0  0  0  0
  8  9  1  0  0  0  0
  1  8  1  0  0  0  0
M  END
>  <cdx:fragmentId>
5

$$$$
