26333.cdx
  Mrv1902 05222410212D          

 11 11  0  0  0  0            999 V2000
    6.7165   -5.5762    0.0000 C   0  0  0  0  0  0  0  0  0  0  0  0
    6.7165   -4.7512    0.0000 C   0  0  0  0  0  0  0  0  0  0  0  0
    6.0020   -5.9887    0.0000 N   0  0  0  0  0  0  0  0  0  0  0  0
    6.0020   -4.3387    0.0000 N   0  0  0  0  0  0  0  0  0  0  0  0
    5.2875   -4.7512    0.0000 C   0  0  0  0  0  0  0  0  0  0  0  0
    5.2875   -5.5762    0.0000 C   0  0  0  0  0  0  0  0  0  0  0  0
    7.4309   -4.3387    0.0000 C   0  0  0  0  0  0  0  0  0  0  0  0
    7.4309   -5.9887    0.0000 C   0  0  0  0  0  0  0  0  0  0  0  0
    8.1454   -5.5762    0.0000 C   0  0  0  0  0  0  0  0  0  0  0  0
    8.1454   -4.7512    0.0000 C   0  0  0  0  0  0  0  0  0  0  0  0
    8.8599   -5.9887    0.0000 C   0  0  0  0  0  0  0  0  0  0  0  0
  1  2  1  0  0  0  0
  1  3  2  0  0  0  0
  2  4  2  0  0  0  0
  4  5  1  0  0  0  0
  5  6  2  0  0  0  0
  3  6  1  0  0  0  0
  2  7  1  0  0  0  0
  8  9  1  0  0  0  0
  9 10  1  0  0  0  0
 11  9  1  0  0  0  0
  1  8  1  0  0  0  0
M  END
>  <cdx:fragmentId>
5

$$$$
