26331.cdx
  Mrv1902 05222410212D          

  8  8  0  0  0  0            999 V2000
    7.6388   -4.5237    0.0000 C   0  0  0  0  0  0  0  0  0  0  0  0
    6.9243   -4.9363    0.0000 C   0  0  0  0  0  0  0  0  0  0  0  0
    7.6388   -3.6988    0.0000 N   0  0  0  0  0  0  0  0  0  0  0  0
    6.2099   -4.5237    0.0000 N   0  0  0  0  0  0  0  0  0  0  0  0
    6.2099   -3.6988    0.0000 C   0  0  0  0  0  0  0  0  0  0  0  0
    6.9243   -3.2862    0.0000 C   0  0  0  0  0  0  0  0  0  0  0  0
    8.3533   -4.9363    0.0000 C   0  0  0  0  0  0  0  0  0  0  0  0
    9.0678   -4.5237    0.0000 C   0  0  0  0  0  0  0  0  0  0  0  0
  1  2  1  0  0  0  0
  1  3  2  0  0  0  0
  2  4  2  0  0  0  0
  4  5  1  0  0  0  0
  5  6  2  0  0  0  0
  3  6  1  0  0  0  0
  7  8  1  0  0  0  0
  1  7  1  0  0  0  0
M  END
>  <cdx:fragmentId>
5

$$$$
