26334.cdx
  Mrv1902 05222410222D          

 10 10  0  0  0  0            999 V2000
    4.2925   -3.0599    0.0000 C   0  0  0  0  0  0  0  0  0  0  0  0
    4.2925   -2.2349    0.0000 C   0  0  0  0  0  0  0  0  0  0  0  0
    3.5780   -3.4724    0.0000 N   0  0  0  0  0  0  0  0  0  0  0  0
    3.5780   -1.8224    0.0000 N   0  0  0  0  0  0  0  0  0  0  0  0
    2.8635   -2.2349    0.0000 C   0  0  0  0  0  0  0  0  0  0  0  0
    2.8635   -3.0599    0.0000 C   0  0  0  0  0  0  0  0  0  0  0  0
    2.1491   -1.8224    0.0000 C   0  0  0  0  0  0  0  0  0  0  0  0
    5.0070   -1.8224    0.0000 C   0  0  0  0  0  0  0  0  0  0  0  0
    5.0070   -3.4724    0.0000 C   0  0  0  0  0  0  0  0  0  0  0  0
    5.7214   -3.0599    0.0000 C   0  0  0  0  0  0  0  0  0  0  0  0
  1  2  1  0  0  0  0
  1  3  2  0  0  0  0
  2  4  2  0  0  0  0
  4  5  1  0  0  0  0
  5  6  2  0  0  0  0
  3  6  1  0  0  0  0
  5  7  1  0  0  0  0
  2  8  1  0  0  0  0
  9 10  1  0  0  0  0
  1  9  1  0  0  0  0
M  END
>  <cdx:groupId>
32

>  <cdx:fragmentId>
5

$$$$
