26396.cdx
  Mrv1902 05222410202D          

 12 12  0  0  0  0            999 V2000
    4.8509   -2.3105    0.0000 C   0  0  0  0  0  0  0  0  0  0  0  0
    5.2634   -3.0250    0.0000 C   0  0  0  0  0  0  0  0  0  0  0  0
    4.8509   -3.7395    0.0000 C   0  0  0  0  0  0  0  0  0  0  0  0
    4.0259   -3.7395    0.0000 C   0  0  0  0  0  0  0  0  0  0  0  0
    3.6134   -3.0250    0.0000 C   0  0  0  0  0  0  0  0  0  0  0  0
    4.0259   -2.3105    0.0000 O   0  0  0  0  0  0  0  0  0  0  0  0
    6.0884   -3.0250    0.0000 O   0  0  0  0  0  0  0  0  0  0  0  0
    2.8989   -2.6125    0.0000 C   0  0  0  0  0  0  0  0  0  0  0  0
    2.1844   -3.0250    0.0000 C   0  0  0  0  0  0  0  0  0  0  0  0
    2.8989   -3.4375    0.0000 C   0  0  0  0  0  0  0  0  0  0  0  0
    4.8509   -1.4855    0.0000 C   0  0  0  0  0  0  0  0  0  0  0  0
    5.5653   -1.8980    0.0000 C   0  0  0  0  0  0  0  0  0  0  0  0
  1  2  1  0  0  0  0
  2  3  1  0  0  0  0
  3  4  1  0  0  0  0
  4  5  1  0  0  0  0
  5  6  1  0  0  0  0
  1  6  1  0  0  0  0
  2  7  1  0  0  0  0
  8  9  2  0  0  0  0
  5  8  1  0  0  0  0
  5 10  1  0  0  0  0
  1 11  1  0  0  0  0
  1 12  1  0  0  0  0
M  END
>  <cdx:groupId>
38

>  <cdx:fragmentId>
5

$$$$
