264.cdx
  Mrv1902 05222410182D          

  6  5  0  0  0  0            999 V2000
    3.5927   -3.2252    0.0000 C   0  0  0  0  0  0  0  0  0  0  0  0
    2.8783   -3.6377    0.0000 C   0  0  0  0  0  0  0  0  0  0  0  0
    2.1638   -3.2252    0.0000 C   0  0  0  0  0  0  0  0  0  0  0  0
    1.4493   -3.6377    0.0000 C   0  0  0  0  0  0  0  0  0  0  0  0
    3.5927   -2.4002    0.0000 O   0  0  0  0  0  0  0  0  0  0  0  0
    4.3072   -3.6377    0.0000 O   0  0  0  0  0  0  0  0  0  0  0  0
  1  2  1  0  0  0  0
  2  3  1  0  0  0  0
  3  4  1  0  0  0  0
  1  5  2  0  0  0  0
  1  6  1  0  0  0  0
M  END
>  <cdx:groupId>
19

>  <cdx:fragmentId>
5

$$$$
