264105.cdx
  Mrv1902 05222410242D          

 14 15  0  0  0  0            999 V2000
   14.6368  -19.5242    0.0000 C   0  0  0  0  0  0  0  0  0  0  0  0
   14.6368  -18.6992    0.0000 C   0  0  0  0  0  0  0  0  0  0  0  0
   15.4214  -18.4443    0.0000 C   0  0  0  0  0  0  0  0  0  0  0  0
   15.9063  -19.1117    0.0000 C   0  0  0  0  0  0  0  0  0  0  0  0
   15.4214  -19.7791    0.0000 S   0  0  0  0  0  0  0  0  0  0  0  0
   13.8522  -18.4443    0.0000 C   0  0  0  0  0  0  0  0  0  0  0  0
   13.3672  -19.1117    0.0000 C   0  0  0  0  0  0  0  0  0  0  0  0
   13.8522  -19.7791    0.0000 C   0  0  0  0  0  0  0  0  0  0  0  0
   15.6763  -17.6596    0.0000 C   0  0  0  0  0  0  0  0  0  0  0  0
   15.1243  -17.0465    0.0000 O   0  0  0  0  0  0  0  0  0  0  0  0
   16.4833  -17.4881    0.0000 O   0  0  0  0  0  0  0  0  0  0  0  0
   16.7313  -19.1117    0.0000 N   0  0  0  0  0  0  0  0  0  0  0  0
   16.7382  -16.7035    0.0000 C   0  0  0  0  0  0  0  0  0  0  0  0
   17.5452  -16.5320    0.0000 C   0  0  0  0  0  0  0  0  0  0  0  0
  1  2  2  0  0  0  0
  2  3  1  0  0  0  0
  3  4  2  0  0  0  0
  4  5  1  0  0  0  0
  1  5  1  0  0  0  0
  6  7  1  0  0  0  0
  7  8  1  0  0  0  0
  8  1  1  0  0  0  0
  6  2  1  0  0  0  0
  9 10  2  0  0  0  0
  9 11  1  0  0  0  0
  3  9  1  0  0  0  0
  4 12  1  0  0  0  0
 13 14  1  0  0  0  0
 11 13  1  0  0  0  0
M  END
>  <cdx:groupId>
5267

>  <cdx:fragmentId>
5227

$$$$
