264377.cdx
  Mrv1902 05222410282D          

 18 18  0  0  0  0            999 V2000
    7.3863   -7.4177    0.0000 O   0  0  0  0  0  0  0  0  0  0  0  0
    7.3890   -8.2427    0.0000 C   0  0  0  0  0  0  0  0  0  0  0  0
    6.6759   -8.6575    0.0000 C   0  0  0  0  0  0  0  0  0  0  0  0
    6.6786   -9.4825    0.0000 C   0  0  0  0  0  0  0  0  0  0  0  0
    7.3944   -9.8927    0.0000 C   0  0  0  0  0  0  0  0  0  0  0  0
    8.1076   -9.4778    0.0000 C   0  0  0  0  0  0  0  0  0  0  0  0
    8.1048   -8.6528    0.0000 C   0  0  0  0  0  0  0  0  0  0  0  0
    5.9601   -8.2474    0.0000 O   0  0  0  0  0  0  0  0  0  0  0  0
    5.2470   -8.6622    0.0000 C   0  0  0  0  0  0  0  0  0  0  0  0
    7.3972  -10.7177    0.0000 C   0  0  0  0  0  0  0  0  0  0  0  0
    8.1130  -11.1278    0.0000 C   0  0  0  0  0  0  0  0  0  0  0  0
    8.1157  -11.9528    0.0000 C   0  0  0  0  0  0  0  0  0  0  0  0
    8.8315  -12.3629    0.0000 O   0  0  0  0  0  0  0  0  0  0  0  0
    9.5283   -6.9981    0.0000 O   0  0  0  0  0  0  0  0  0  0  0  0
    8.8098   -5.7630    0.0000 O   0  0  0  0  0  0  0  0  0  0  0  0
    8.8152   -7.4130    0.0000 C   0  0  0  0  0  0  0  0  0  0  0  0
    8.0994   -7.0028    0.0000 C   0  0  0  0  0  0  0  0  0  0  0  0
    8.0967   -6.1778    0.0000 C   0  0  0  0  0  0  0  0  0  0  0  0
 17  1  1  0  0  0  0
 16 14  1  0  0  0  0
 18 15  1  0  0  0  0
 17 16  1  0  0  0  0
 18 17  1  0  0  0  0
  2  3  1  0  0  0  0
  3  4  2  0  0  0  0
  4  5  1  0  0  0  0
  5  6  2  0  0  0  0
  6  7  1  0  0  0  0
  2  7  2  0  0  0  0
  1  2  1  0  0  0  0
  8  9  1  0  0  0  0
  3  8  1  0  0  0  0
 10 11  1  0  0  0  0
 11 12  1  0  0  0  0
 12 13  1  0  0  0  0
  5 10  1  0  0  0  0
M  END
>  <cdx:fragmentId>
43855

$$$$
