264524.cdx
  Mrv1902 05222410222D          

 16 17  0  0  0  0            999 V2000
    8.0288   -7.0516    0.0000 O   0  0  0  0  0  0  0  0  0  0  0  0
    7.5439   -7.7191    0.0000 C   0  0  0  0  0  0  0  0  0  0  0  0
    6.7593   -7.4641    0.0000 C   0  0  0  0  0  0  0  0  0  0  0  0
    6.7593   -6.6391    0.0000 C   0  0  0  0  0  0  0  0  0  0  0  0
    7.5439   -6.3842    0.0000 C   0  0  2  0  0  0  0  0  0  0  0  0
    6.0448   -6.2266    0.0000 C   0  0  0  0  0  0  0  0  0  0  0  0
    5.3303   -6.6391    0.0000 C   0  0  0  0  0  0  0  0  0  0  0  0
    5.3303   -7.4641    0.0000 C   0  0  0  0  0  0  0  0  0  0  0  0
    6.0448   -7.8766    0.0000 C   0  0  0  0  0  0  0  0  0  0  0  0
    7.7988   -8.5037    0.0000 O   0  0  0  0  0  0  0  0  0  0  0  0
    7.3304   -5.5873    0.0000 O   0  0  0  0  0  0  0  0  0  0  0  0
    8.1570   -5.8321    0.0000 C   0  0  0  0  0  0  0  0  0  0  0  0
    8.9416   -6.0871    0.0000 C   0  0  0  0  0  0  0  0  0  0  0  0
    9.5250   -5.5037    0.0000 C   0  0  0  0  0  0  0  0  0  0  0  0
   10.3219   -5.7172    0.0000 C   0  0  0  0  0  0  0  0  0  0  0  0
    7.9855   -5.0252    0.0000 O   0  0  0  0  0  0  0  0  0  0  0  0
  1  2  1  0  0  0  0
  2  3  1  0  0  0  0
  3  4  2  0  0  0  0
  4  5  1  0  0  0  0
  1  5  1  0  0  0  0
  6  7  1  0  0  0  0
  7  8  1  0  0  0  0
  8  9  2  0  0  0  0
  9  3  1  0  0  0  0
  6  4  1  0  0  0  0
  2 10  2  0  0  0  0
  5 11  1  0  0  0  0
 12 13  1  0  0  0  0
 13 14  1  0  0  0  0
 14 15  1  0  0  0  0
 12 16  2  0  0  0  0
  5 12  1  1  0  0  0
M  END
>  <cdx:fragmentId>
68702

$$$$
