264627.cdx
  Mrv1902 05222410202D          

 29 35  0  0  0  0            999 V2000
    7.7374   -9.2410    0.0000 N   0  0  0  0  0  0  0  0  0  0  0  0
    7.0701   -8.7560    0.0000 C   0  0  0  0  0  0  0  0  0  0  0  0
    6.3163   -9.0914    0.0000 C   0  0  0  0  0  0  0  0  0  0  0  0
    6.2299   -9.9118    0.0000 C   0  0  0  0  0  0  0  0  0  0  0  0
    6.8973  -10.3969    0.0000 C   0  0  0  0  0  0  0  0  0  0  0  0
    6.9341  -11.2211    0.0000 C   0  0  0  0  0  0  0  0  0  0  0  0
    7.6540  -11.6240    0.0000 C   0  0  0  0  0  0  0  0  0  0  0  0
    8.3738  -11.2208    0.0000 C   0  0  0  0  0  0  0  0  0  0  0  0
    8.4046  -10.3972    0.0000 C   0  0  0  0  0  0  0  0  0  0  0  0
    7.6510  -10.0615    0.0000 C   0  0  0  0  0  0  0  0  0  0  0  0
    9.1475  -11.5047    0.0000 N   0  0  0  0  0  0  0  0  0  0  0  0
    9.1975  -10.1720    0.0000 C   0  0  0  0  0  0  0  0  0  0  0  0
    9.6566  -10.8565    0.0000 C   0  0  0  0  0  0  0  0  0  0  0  0
    5.4346  -10.1312    0.0000 O   0  0  0  0  0  0  0  0  0  0  0  0
    6.3128  -11.7637    0.0000 C   0  0  0  0  0  0  0  0  0  0  0  0
    5.5010  -11.6163    0.0000 C   0  0  0  0  0  0  0  0  0  0  0  0
    5.1102  -10.8897    0.0000 C   0  0  2  0  0  0  0  0  0  0  0  0
    4.2886  -10.8156    0.0000 C   0  0  0  0  0  0  0  0  0  0  0  0
    4.1051  -10.0113    0.0000 C   0  0  0  0  0  0  0  0  0  0  0  0
    4.8134   -9.5883    0.0000 C   0  0  0  0  0  0  0  0  0  0  0  0
    8.9568   -9.7842    0.0000 C   0  0  0  0  0  0  0  0  0  0  0  0
    9.7818   -9.7843    0.0000 C   0  0  0  0  0  0  0  0  0  0  0  0
   10.1944   -9.0699    0.0000 C   0  0  0  0  0  0  0  0  0  0  0  0
    9.7820   -8.3554    0.0000 C   0  0  0  0  0  0  0  0  0  0  0  0
    8.9570   -8.3552    0.0000 C   0  0  0  0  0  0  0  0  0  0  0  0
    8.5444   -9.0696    0.0000 C   0  0  0  0  0  0  0  0  0  0  0  0
    4.6766  -11.5436    0.0000 C   0  0  0  0  0  0  0  0  0  0  0  0
   10.1945   -7.6409    0.0000 O   0  0  0  0  0  0  0  0  0  0  0  0
    5.6936  -10.3064    0.0000 O   0  0  0  0  0  0  0  0  0  0  0  0
  1  2  1  0  0  0  0
  2  3  2  0  0  0  0
  3  4  1  0  0  0  0
  4  5  2  0  0  0  0
  5  6  1  0  0  0  0
  6  7  1  0  0  0  0
  7  8  1  0  0  0  0
  8  9  1  0  0  0  0
  9 10  1  0  0  0  0
  1 10  1  0  0  0  0
  5 10  1  0  0  0  0
 12 13  2  0  0  0  0
 11 13  1  0  0  0  0
 11  8  2  0  0  0  0
 12  9  1  0  0  0  0
 15 16  1  0  0  0  0
 16 17  1  0  0  0  0
 17 18  1  0  0  0  0
 18 19  1  0  0  0  0
 19 20  1  0  0  0  0
 14 20  1  0  0  0  0
 14  4  1  0  0  0  0
 15  6  1  0  0  0  0
 21 22  2  0  0  0  0
 22 23  1  0  0  0  0
 23 24  1  0  0  0  0
 24 25  1  0  0  0  0
 25 26  1  0  0  0  0
 21 26  1  0  0  0  0
 21  9  1  0  0  0  0
 26  1  1  0  0  0  0
 18 27  1  0  0  0  0
 16 27  1  0  0  0  0
 24 28  2  0  0  0  0
 17 29  1  6  0  0  0
M  END
>  <cdx:groupId>
948

>  <cdx:fragmentId>
858

$$$$
