26473.cdx
  Mrv1902 05222410242D          

  5  4  0  0  0  0            999 V2000
    7.1184   -4.5631    0.0000 Se  0  0  0  0  0  0  0  0  0  0  0  0
    7.1184   -5.3881    0.0000 O   0  0  0  0  0  0  0  0  0  0  0  0
    7.1184   -3.7381    0.0000 O   0  0  0  0  0  0  0  0  0  0  0  0
    6.2934   -4.5631    0.0000 O   0  5  0  0  0  0  0  0  0  0  0  0
    7.9434   -4.5631    0.0000 O   0  5  0  0  0  0  0  0  0  0  0  0
  1  2  2  0  0  0  0
  1  3  2  0  0  0  0
  1  4  1  0  0  0  0
  1  5  1  0  0  0  0
M  CHG  2   4  -1   5  -1
M  END
>  <cdx:groupId>
16

>  <cdx:fragmentId>
5

$$$$
