264769.cdx
  Mrv1902 05222410192D          

 20 23  0  0  0  0            999 V2000
    7.4318   -8.9837    0.0000 C   0  0  0  0  0  0  0  0  0  0  0  0
    6.7174   -9.3962    0.0000 C   0  0  0  0  0  0  0  0  0  0  0  0
    6.0029   -8.9837    0.0000 C   0  0  0  0  0  0  0  0  0  0  0  0
    5.2884   -9.3962    0.0000 C   0  0  0  0  0  0  0  0  0  0  0  0
    5.2884  -10.2212    0.0000 C   0  0  0  0  0  0  0  0  0  0  0  0
    6.0029  -10.6337    0.0000 C   0  0  0  0  0  0  0  0  0  0  0  0
    6.7174  -10.2212    0.0000 C   0  0  0  0  0  0  0  0  0  0  0  0
    7.4318  -10.6337    0.0000 C   0  0  0  0  0  0  0  0  0  0  0  0
    8.1463  -10.2212    0.0000 C   0  0  0  0  0  0  0  0  0  0  0  0
    8.1463   -9.3962    0.0000 C   0  0  0  0  0  0  0  0  0  0  0  0
    8.8608   -8.9837    0.0000 C   0  0  0  0  0  0  0  0  0  0  0  0
    9.6454   -9.2386    0.0000 O   0  0  0  0  0  0  0  0  0  0  0  0
   10.1303   -8.5712    0.0000 C   0  0  0  0  0  0  0  0  0  0  0  0
    9.6454   -7.9037    0.0000 C   0  0  0  0  0  0  0  0  0  0  0  0
    8.8608   -8.1587    0.0000 C   0  0  0  0  0  0  0  0  0  0  0  0
    8.1463   -7.7462    0.0000 C   0  0  0  0  0  0  0  0  0  0  0  0
    7.4318   -8.1587    0.0000 O   0  0  0  0  0  0  0  0  0  0  0  0
    8.1463   -6.9212    0.0000 O   0  0  0  0  0  0  0  0  0  0  0  0
    9.9003   -7.1191    0.0000 C   0  0  0  0  0  0  0  0  0  0  0  0
    6.0029  -11.4587    0.0000 C   0  0  0  0  0  0  0  0  0  0  0  0
  1  2  1  0  0  0  0
  2  3  2  0  0  0  0
  3  4  1  0  0  0  0
  4  5  2  0  0  0  0
  5  6  1  0  0  0  0
  6  7  2  0  0  0  0
  7  8  1  0  0  0  0
  8  9  2  0  0  0  0
  9 10  1  0  0  0  0
 10 11  1  0  0  0  0
 11 12  1  0  0  0  0
 12 13  1  0  0  0  0
 13 14  2  0  0  0  0
 14 15  1  0  0  0  0
 15 16  1  0  0  0  0
 16 17  1  0  0  0  0
  1 17  1  0  0  0  0
  1 10  2  0  0  0  0
 11 15  2  0  0  0  0
  2  7  1  0  0  0  0
 16 18  2  0  0  0  0
 14 19  1  0  0  0  0
  6 20  1  0  0  0  0
M  END
>  <cdx:fragmentId>
43902

$$$$
