26483.cdx
  Mrv1902 05222410202D          

 17 18  0  0  0  0            999 V2000
    9.0179   -8.8923    0.0000 O   0  0  0  0  0  0  0  0  0  0  0  0
    4.7311   -8.8923    0.0000 O   0  0  0  0  0  0  0  0  0  0  0  0
    6.1600   -6.4173    0.0000 C   0  0  0  0  0  0  0  0  0  0  0  0
    4.7311   -6.4173    0.0000 C   0  0  0  0  0  0  0  0  0  0  0  0
    5.4455   -6.8298    0.0000 C   0  0  0  0  0  0  0  0  0  0  0  0
    5.4455   -7.6548    0.0000 C   0  0  0  0  0  0  0  0  0  0  0  0
    6.1600   -8.0673    0.0000 C   0  0  0  0  0  0  0  0  0  0  0  0
    7.5889  -10.5423    0.0000 C   0  0  0  0  0  0  0  0  0  0  0  0
    8.3034  -10.1298    0.0000 C   0  0  0  0  0  0  0  0  0  0  0  0
    8.3034   -9.3048    0.0000 C   0  0  0  0  0  0  0  0  0  0  0  0
    7.5889   -8.8923    0.0000 O   0  0  0  0  0  0  0  0  0  0  0  0
    6.1600  -10.5423    0.0000 C   0  0  0  0  0  0  0  0  0  0  0  0
    6.8745  -10.1298    0.0000 C   0  0  0  0  0  0  0  0  0  0  0  0
    6.8745   -9.3048    0.0000 C   0  0  0  0  0  0  0  0  0  0  0  0
    6.1600   -8.8923    0.0000 C   0  0  0  0  0  0  0  0  0  0  0  0
    5.4455   -9.3048    0.0000 C   0  0  0  0  0  0  0  0  0  0  0  0
    5.4455  -10.1298    0.0000 C   0  0  0  0  0  0  0  0  0  0  0  0
 10  1  2  0  0  0  0
 16  2  1  0  0  0  0
  5  3  1  0  0  0  0
  5  4  1  0  0  0  0
  6  5  2  0  0  0  0
  7  6  1  0  0  0  0
 15  7  1  0  0  0  0
  8 13  1  0  0  0  0
  9  8  2  0  0  0  0
 10  9  1  0  0  0  0
 11 10  1  0  0  0  0
 14 11  1  0  0  0  0
 12 17  2  0  0  0  0
 13 12  1  0  0  0  0
 14 13  2  0  0  0  0
 15 14  1  0  0  0  0
 16 15  2  0  0  0  0
 17 16  1  0  0  0  0
M  END
>  <cdx:fragmentId>
107

$$$$
