265.cdx
  Mrv1902 05222410182D          

 16 16  0  0  0  0            999 V2000
    5.5232   -4.3190    0.0000 C   0  0  0  0  0  0  0  0  0  0  0  0
    5.5232   -5.1440    0.0000 C   0  0  0  0  0  0  0  0  0  0  0  0
    6.2377   -5.5565    0.0000 C   0  0  0  0  0  0  0  0  0  0  0  0
    6.9522   -5.1440    0.0000 C   0  0  0  0  0  0  0  0  0  0  0  0
    6.9522   -4.3190    0.0000 C   0  0  0  0  0  0  0  0  0  0  0  0
    6.2377   -3.9065    0.0000 C   0  0  0  0  0  0  0  0  0  0  0  0
    4.8088   -3.9065    0.0000 O   0  0  0  0  0  0  0  0  0  0  0  0
    4.8088   -5.5565    0.0000 O   0  0  0  0  0  0  0  0  0  0  0  0
    6.2377   -6.3815    0.0000 O   0  0  0  0  0  0  0  0  0  0  0  0
    7.6666   -3.9065    0.0000 C   0  0  0  0  0  0  0  0  0  0  0  0
    8.3811   -4.3190    0.0000 C   0  0  0  0  0  0  0  0  0  0  0  0
    9.0956   -3.9065    0.0000 C   0  0  0  0  0  0  0  0  0  0  0  0
    9.8100   -4.3190    0.0000 O   0  0  0  0  0  0  0  0  0  0  0  0
    9.0956   -3.0815    0.0000 O   0  0  0  0  0  0  0  0  0  0  0  0
    4.0943   -4.3190    0.0000 C   0  0  0  0  0  0  0  0  0  0  0  0
    5.5232   -6.7940    0.0000 C   0  0  0  0  0  0  0  0  0  0  0  0
  1  2  2  0  0  0  0
  2  3  1  0  0  0  0
  3  4  2  0  0  0  0
  4  5  1  0  0  0  0
  5  6  2  0  0  0  0
  6  1  1  0  0  0  0
  1  7  1  0  0  0  0
  2  8  1  0  0  0  0
  3  9  1  0  0  0  0
  5 10  1  0  0  0  0
 10 11  2  0  0  0  0
 11 12  1  0  0  0  0
 12 13  1  0  0  0  0
 12 14  2  0  0  0  0
  7 15  1  0  0  0  0
  9 16  1  0  0  0  0
M  END
>  <cdx:fragmentId>
29

$$$$
