26519.cdx
  Mrv1902 05222410222D          

 34 33  0  0  0  0            999 V2000
    0.2521   -4.2900    0.0000 C   0  0  0  0  0  0  0  0  0  0  0  0
    0.9666   -3.8775    0.0000 C   0  0  0  0  0  0  0  0  0  0  0  0
    1.6810   -4.2900    0.0000 C   0  0  0  0  0  0  0  0  0  0  0  0
    2.3955   -3.8775    0.0000 C   0  0  0  0  0  0  0  0  0  0  0  0
    3.1100   -4.2900    0.0000 C   0  0  0  0  0  0  0  0  0  0  0  0
    3.8245   -3.8775    0.0000 C   0  0  0  0  0  0  0  0  0  0  0  0
    4.5389   -4.2900    0.0000 C   0  0  0  0  0  0  0  0  0  0  0  0
    5.2534   -3.8775    0.0000 C   0  0  0  0  0  0  0  0  0  0  0  0
    5.9679   -4.2900    0.0000 C   0  0  0  0  0  0  0  0  0  0  0  0
    6.6823   -3.8775    0.0000 C   0  0  0  0  0  0  0  0  0  0  0  0
    7.3968   -4.2900    0.0000 C   0  0  0  0  0  0  0  0  0  0  0  0
    8.1113   -3.8775    0.0000 C   0  0  0  0  0  0  0  0  0  0  0  0
    8.8258   -4.2900    0.0000 C   0  0  0  0  0  0  0  0  0  0  0  0
    9.5402   -3.8775    0.0000 C   0  0  0  0  0  0  0  0  0  0  0  0
   10.2547   -4.2900    0.0000 C   0  0  0  0  0  0  0  0  0  0  0  0
   10.9692   -3.8775    0.0000 C   0  0  0  0  0  0  0  0  0  0  0  0
   11.6836   -4.2900    0.0000 C   0  0  0  0  0  0  0  0  0  0  0  0
   12.3981   -3.8775    0.0000 C   0  0  0  0  0  0  0  0  0  0  0  0
   13.1126   -4.2900    0.0000 C   0  0  0  0  0  0  0  0  0  0  0  0
   13.8271   -3.8775    0.0000 C   0  0  0  0  0  0  0  0  0  0  0  0
   14.5415   -4.2900    0.0000 C   0  0  0  0  0  0  0  0  0  0  0  0
   15.2560   -3.8775    0.0000 C   0  0  0  0  0  0  0  0  0  0  0  0
   15.9705   -4.2900    0.0000 C   0  0  0  0  0  0  0  0  0  0  0  0
   16.6849   -3.8775    0.0000 C   0  0  0  0  0  0  0  0  0  0  0  0
   17.3994   -4.2900    0.0000 C   0  0  0  0  0  0  0  0  0  0  0  0
   18.1139   -3.8775    0.0000 C   0  0  0  0  0  0  0  0  0  0  0  0
   18.8283   -4.2900    0.0000 C   0  0  0  0  0  0  0  0  0  0  0  0
   19.5428   -3.8775    0.0000 C   0  0  0  0  0  0  0  0  0  0  0  0
   20.2573   -4.2900    0.0000 C   0  0  0  0  0  0  0  0  0  0  0  0
   20.9718   -3.8775    0.0000 C   0  0  0  0  0  0  0  0  0  0  0  0
   21.6862   -4.2900    0.0000 C   0  0  0  0  0  0  0  0  0  0  0  0
   22.4007   -3.8775    0.0000 C   0  0  0  0  0  0  0  0  0  0  0  0
   23.1152   -4.2900    0.0000 C   0  0  0  0  0  0  0  0  0  0  0  0
   23.8296   -3.8775    0.0000 C   0  0  0  0  0  0  0  0  0  0  0  0
  1  2  1  0  0  0  0
  2  3  1  0  0  0  0
  3  4  1  0  0  0  0
  4  5  1  0  0  0  0
  5  6  1  0  0  0  0
  6  7  1  0  0  0  0
  7  8  1  0  0  0  0
  8  9  1  0  0  0  0
  9 10  1  0  0  0  0
 10 11  1  0  0  0  0
 11 12  1  0  0  0  0
 12 13  1  0  0  0  0
 13 14  1  0  0  0  0
 14 15  1  0  0  0  0
 15 16  1  0  0  0  0
 16 17  1  0  0  0  0
 17 18  1  0  0  0  0
 18 19  1  0  0  0  0
 19 20  1  0  0  0  0
 20 21  1  0  0  0  0
 21 22  1  0  0  0  0
 22 23  1  0  0  0  0
 23 24  1  0  0  0  0
 24 25  1  0  0  0  0
 25 26  1  0  0  0  0
 26 27  1  0  0  0  0
 27 28  1  0  0  0  0
 28 29  1  0  0  0  0
 29 30  1  0  0  0  0
 30 31  1  0  0  0  0
 31 32  1  0  0  0  0
 32 33  1  0  0  0  0
 33 34  1  0  0  0  0
M  END
>  <cdx:groupId>
103

>  <cdx:fragmentId>
5

$$$$
