26555.cdx
  Mrv1902 05222410192D          

 27 28  0  0  0  0            999 V2000
    8.7224   -7.8925    0.0000 C   0  0  0  0  0  0  0  0  0  0  0  0
    8.7224   -8.7175    0.0000 C   0  0  0  0  0  0  0  0  0  0  0  0
    9.4369   -9.1300    0.0000 C   0  0  0  0  0  0  0  0  0  0  0  0
   10.1514   -8.7175    0.0000 C   0  0  0  0  0  0  0  0  0  0  0  0
   10.1514   -7.8925    0.0000 C   0  0  0  0  0  0  0  0  0  0  0  0
    9.4369   -7.4800    0.0000 C   0  0  0  0  0  0  0  0  0  0  0  0
    8.0080   -7.4800    0.0000 C   0  0  0  0  0  0  0  0  0  0  0  0
    7.2935   -7.8925    0.0000 C   0  0  0  0  0  0  0  0  0  0  0  0
    6.5790   -7.4800    0.0000 C   0  0  0  0  0  0  0  0  0  0  0  0
    5.8645   -7.8925    0.0000 O   0  0  0  0  0  0  0  0  0  0  0  0
    6.5790   -6.6550    0.0000 O   0  0  0  0  0  0  0  0  0  0  0  0
    5.1501   -7.4800    0.0000 C   0  0  2  0  0  0  0  0  0  0  0  0
    5.1501   -6.6550    0.0000 O   0  0  0  0  0  0  0  0  0  0  0  0
    4.4356   -6.2425    0.0000 C   0  0  1  0  0  0  0  0  0  0  0  0
    3.7211   -6.6550    0.0000 C   0  0  2  0  0  0  0  0  0  0  0  0
    3.7211   -7.4800    0.0000 C   0  0  1  0  0  0  0  0  0  0  0  0
    4.4356   -7.8925    0.0000 C   0  0  1  0  0  0  0  0  0  0  0  0
    4.4356   -5.4175    0.0000 C   0  0  0  0  0  0  0  0  0  0  0  0
    3.0067   -7.8925    0.0000 O   0  0  0  0  0  0  0  0  0  0  0  0
    3.7211   -5.0050    0.0000 O   0  0  0  0  0  0  0  0  0  0  0  0
    3.0067   -6.2425    0.0000 O   0  0  0  0  0  0  0  0  0  0  0  0
    4.4356   -8.7175    0.0000 O   0  0  0  0  0  0  0  0  0  0  0  0
   10.8658   -9.1300    0.0000 O   0  0  0  0  0  0  0  0  0  0  0  0
   10.8658   -7.4800    0.0000 O   0  0  0  0  0  0  0  0  0  0  0  0
    9.4369   -9.9550    0.0000 O   0  0  0  0  0  0  0  0  0  0  0  0
   10.1514  -10.3675    0.0000 C   0  0  0  0  0  0  0  0  0  0  0  0
   11.5803   -7.8925    0.0000 C   0  0  0  0  0  0  0  0  0  0  0  0
  1  2  2  0  0  0  0
  2  3  1  0  0  0  0
  3  4  2  0  0  0  0
  4  5  1  0  0  0  0
  5  6  2  0  0  0  0
  6  1  1  0  0  0  0
  1  7  1  0  0  0  0
  7  8  2  0  0  0  0
  8  9  1  0  0  0  0
  9 10  1  0  0  0  0
  9 11  2  0  0  0  0
 12 10  1  1  0  0  0
 12 13  1  0  0  0  0
 13 14  1  0  0  0  0
 14 15  1  0  0  0  0
 15 16  1  0  0  0  0
 16 17  1  0  0  0  0
 17 12  1  0  0  0  0
 14 18  1  1  0  0  0
 16 19  1  1  0  0  0
 18 20  1  0  0  0  0
 15 21  1  6  0  0  0
 17 22  1  6  0  0  0
  4 23  1  0  0  0  0
  5 24  1  0  0  0  0
  3 25  1  0  0  0  0
 25 26  1  0  0  0  0
 24 27  1  0  0  0  0
M  END
>  <cdx:fragmentId>
5

$$$$
