2655.cdx
  Mrv1902 05222410232D          

 24 26  0  0  0  0            999 V2000
    4.5408   -8.0025    0.0000 C   0  0  0  0  0  0  0  0  0  0  0  0
    4.5408   -8.8275    0.0000 C   0  0  0  0  0  0  0  0  0  0  0  0
    5.2552   -9.2400    0.0000 C   0  0  0  0  0  0  0  0  0  0  0  0
    5.9697   -8.8275    0.0000 C   0  0  0  0  0  0  0  0  0  0  0  0
    5.9697   -8.0025    0.0000 C   0  0  0  0  0  0  0  0  0  0  0  0
    5.2552   -7.5900    0.0000 C   0  0  0  0  0  0  0  0  0  0  0  0
    6.6842   -9.2400    0.0000 C   0  0  0  0  0  0  0  0  0  0  0  0
    7.3987   -8.8275    0.0000 C   0  0  0  0  0  0  0  0  0  0  0  0
    7.3987   -8.0025    0.0000 C   0  0  2  0  0  0  0  0  0  0  0  0
    6.6842   -7.5900    0.0000 C   0  0  2  0  0  0  0  0  0  0  0  0
    8.1131   -7.5900    0.0000 C   0  0  0  0  0  0  0  0  0  0  0  0
    8.1131   -6.7650    0.0000 C   0  0  0  0  0  0  0  0  0  0  0  0
    7.3987   -6.3525    0.0000 C   0  0  0  0  0  0  0  0  0  0  0  0
    6.6842   -6.7650    0.0000 C   0  0  0  0  0  0  0  0  0  0  0  0
    3.8263   -7.5900    0.0000 O   0  0  0  0  0  0  0  0  0  0  0  0
    3.8263   -9.2400    0.0000 O   0  0  0  0  0  0  0  0  0  0  0  0
    5.2552   -6.7650    0.0000 C   0  0  0  0  0  0  0  0  0  0  0  0
    4.5408   -6.3525    0.0000 C   0  0  0  0  0  0  0  0  0  0  0  0
    5.9697   -6.3525    0.0000 C   0  0  0  0  0  0  0  0  0  0  0  0
    8.9381   -7.5900    0.0000 C   0  0  0  0  0  0  0  0  0  0  0  0
    8.3267   -8.3869    0.0000 C   0  0  0  0  0  0  0  0  0  0  0  0
    6.6842  -10.0650    0.0000 O   0  0  0  0  0  0  0  0  0  0  0  0
    8.1131   -8.4150    0.0000 H   0  0  0  0  0  0  0  0  0  0  0  0
    5.9697   -7.1775    0.0000 C   0  0  0  0  0  0  0  0  0  0  0  0
  1  2  1  0  0  0  0
  2  3  2  0  0  0  0
  3  4  1  0  0  0  0
  4  5  2  0  0  0  0
  5  6  1  0  0  0  0
  6  1  2  0  0  0  0
  4  7  1  0  0  0  0
  7  8  1  0  0  0  0
  8  9  1  0  0  0  0
  9 10  1  0  0  0  0
 10  5  1  0  0  0  0
  9 11  1  0  0  0  0
 11 12  1  0  0  0  0
 12 13  1  0  0  0  0
 13 14  1  0  0  0  0
 14 10  1  0  0  0  0
  1 15  1  0  0  0  0
  2 16  1  0  0  0  0
  6 17  1  0  0  0  0
 17 18  1  0  0  0  0
 17 19  1  0  0  0  0
 11 20  1  0  0  0  0
 11 21  1  0  0  0  0
  7 22  2  0  0  0  0
  9 23  1  1  0  0  0
 10 24  1  6  0  0  0
M  END
>  <cdx:fragmentId>
5

$$$$
