2657.cdx
  Mrv1902 05222410242D          

 46 49  0  0  0  0            999 V2000
    3.7364   -7.7963    0.0000 C   0  0  0  0  0  0  0  0  0  0  0  0
    3.7364   -8.6212    0.0000 C   0  0  0  0  0  0  0  0  0  0  0  0
    4.4509   -9.0337    0.0000 C   0  0  0  0  0  0  0  0  0  0  0  0
    5.1653   -8.6212    0.0000 C   0  0  1  0  0  0  0  0  0  0  0  0
    5.1653   -7.7963    0.0000 C   0  0  2  0  0  0  0  0  0  0  0  0
    4.4509   -7.3838    0.0000 C   0  0  0  0  0  0  0  0  0  0  0  0
    5.8798   -9.0337    0.0000 C   0  0  0  0  0  0  0  0  0  0  0  0
    6.5943   -8.6212    0.0000 C   0  0  0  0  0  0  0  0  0  0  0  0
    6.5943   -7.7963    0.0000 C   0  0  0  0  0  0  0  0  0  0  0  0
    5.8798   -7.3838    0.0000 C   0  0  0  0  0  0  0  0  0  0  0  0
    7.3088   -7.3838    0.0000 C   0  0  1  0  0  0  0  0  0  0  0  0
    7.3088   -6.5587    0.0000 C   0  0  2  0  0  0  0  0  0  0  0  0
    6.5943   -6.1463    0.0000 C   0  0  0  0  0  0  0  0  0  0  0  0
    5.8798   -6.5587    0.0000 C   0  0  0  0  0  0  0  0  0  0  0  0
    8.0934   -7.6387    0.0000 C   0  0  0  0  0  0  0  0  0  0  0  0
    8.5783   -6.9712    0.0000 C   0  0  0  0  0  0  0  0  0  0  0  0
    8.0934   -6.3038    0.0000 C   0  0  2  0  0  0  0  0  0  0  0  0
    3.0219   -9.0337    0.0000 O   0  0  0  0  0  0  0  0  0  0  0  0
    5.1653   -6.1463    0.0000 O   0  0  0  0  0  0  0  0  0  0  0  0
    7.3088   -9.0337    0.0000 O   0  0  0  0  0  0  0  0  0  0  0  0
    8.3069   -8.4356    0.0000 O   0  0  0  0  0  0  0  0  0  0  0  0
    6.5943   -5.3213    0.0000 O   0  0  0  0  0  0  0  0  0  0  0  0
    4.0384   -9.7482    0.0000 C   0  0  0  0  0  0  0  0  0  0  0  0
    5.1653   -6.9712    0.0000 C   0  0  0  0  0  0  0  0  0  0  0  0
    7.3088   -5.7338    0.0000 C   0  0  0  0  0  0  0  0  0  0  0  0
    4.8634   -9.7482    0.0000 C   0  0  0  0  0  0  0  0  0  0  0  0
    5.1653   -9.4462    0.0000 H   0  0  0  0  0  0  0  0  0  0  0  0
    7.3088   -8.2088    0.0000 C   0  0  0  0  0  0  0  0  0  0  0  0
    8.3483   -5.5192    0.0000 C   0  0  2  0  0  0  0  0  0  0  0  0
    7.7963   -4.9061    0.0000 C   0  0  0  0  0  0  0  0  0  0  0  0
    9.1553   -5.3477    0.0000 C   0  0  0  0  0  0  0  0  0  0  0  0
    9.4102   -4.5630    0.0000 C   0  0  0  0  0  0  0  0  0  0  0  0
   10.2172   -4.3915    0.0000 C   0  0  0  0  0  0  0  0  0  0  0  0
   10.4721   -3.6069    0.0000 C   0  0  0  0  0  0  0  0  0  0  0  0
    9.9201   -2.9938    0.0000 C   0  0  0  0  0  0  0  0  0  0  0  0
   11.2791   -3.4354    0.0000 C   0  0  0  0  0  0  0  0  0  0  0  0
    8.8903   -6.0903    0.0000 H   0  0  0  0  0  0  0  0  0  0  0  0
    5.8798   -4.9088    0.0000 C   0  0  0  0  0  0  0  0  0  0  0  0
    5.8798   -4.0838    0.0000 O   0  0  0  0  0  0  0  0  0  0  0  0
    5.1653   -5.3213    0.0000 C   0  0  0  0  0  0  0  0  0  0  0  0
    9.1038   -8.6491    0.0000 C   0  0  0  0  0  0  0  0  0  0  0  0
    9.6872   -8.0657    0.0000 C   0  0  0  0  0  0  0  0  0  0  0  0
    9.3173   -9.4460    0.0000 O   0  0  0  0  0  0  0  0  0  0  0  0
    8.8582   -3.9499    0.0000 O   0  0  0  0  0  0  0  0  0  0  0  0
   11.8311   -4.0485    0.0000 O   0  0  0  0  0  0  0  0  0  0  0  0
   11.5341   -2.6507    0.0000 O   0  0  0  0  0  0  0  0  0  0  0  0
  1  2  1  0  0  0  0
  2  3  1  0  0  0  0
  3  4  1  0  0  0  0
  4  5  1  0  0  0  0
  5  6  1  0  0  0  0
  6  1  1  0  0  0  0
  4  7  1  0  0  0  0
  7  8  1  0  0  0  0
  8  9  1  0  0  0  0
  9 10  2  0  0  0  0
 10  5  1  0  0  0  0
  9 11  1  0  0  0  0
 11 12  1  0  0  0  0
 12 13  1  0  0  0  0
 13 14  1  0  0  0  0
 14 10  1  0  0  0  0
 11 15  1  0  0  0  0
 15 16  1  0  0  0  0
 16 17  1  0  0  0  0
 17 12  1  0  0  0  0
  2 18  1  0  0  0  0
 14 19  2  0  0  0  0
  8 20  2  0  0  0  0
 15 21  1  0  0  0  0
 13 22  1  0  0  0  0
  3 23  1  0  0  0  0
  5 24  1  1  0  0  0
 12 25  1  1  0  0  0
  3 26  1  0  0  0  0
  4 27  1  6  0  0  0
 11 28  1  6  0  0  0
 17 29  1  0  0  0  0
 29 30  1  6  0  0  0
 29 31  1  0  0  0  0
 31 32  1  0  0  0  0
 32 33  1  0  0  0  0
 33 34  1  0  0  0  0
 34 35  1  0  0  0  0
 34 36  1  0  0  0  0
 17 37  1  6  0  0  0
 22 38  1  0  0  0  0
 38 39  2  0  0  0  0
 38 40  1  0  0  0  0
 21 41  1  0  0  0  0
 41 42  1  0  0  0  0
 41 43  2  0  0  0  0
 32 44  2  0  0  0  0
 36 45  1  0  0  0  0
 36 46  2  0  0  0  0
M  END
>  <cdx:fragmentId>
5

$$$$
