265808.cdx
  Mrv1902 05222410222D          

 21 22  0  0  0  0            999 V2000
    6.4949   -6.7105    0.0000 O   0  0  0  0  0  0  0  0  0  0  0  0
   10.7818   -7.5355    0.0000 C   0  0  0  0  0  0  0  0  0  0  0  0
   11.4962   -7.9480    0.0000 C   0  0  0  0  0  0  0  0  0  0  0  0
   11.4962   -8.7730    0.0000 C   0  0  0  0  0  0  0  0  0  0  0  0
   10.7818   -9.1855    0.0000 C   0  0  0  0  0  0  0  0  0  0  0  0
   10.0673   -8.7730    0.0000 C   0  0  0  0  0  0  0  0  0  0  0  0
   10.0673   -7.9480    0.0000 C   0  0  0  0  0  0  0  0  0  0  0  0
    4.3515   -8.7730    0.0000 C   0  0  0  0  0  0  0  0  0  0  0  0
    3.6370   -9.1855    0.0000 C   0  0  0  0  0  0  0  0  0  0  0  0
    2.9226   -8.7730    0.0000 C   0  0  0  0  0  0  0  0  0  0  0  0
    2.9226   -7.9480    0.0000 C   0  0  0  0  0  0  0  0  0  0  0  0
    3.6370   -7.5355    0.0000 C   0  0  0  0  0  0  0  0  0  0  0  0
    4.3515   -7.9480    0.0000 C   0  0  0  0  0  0  0  0  0  0  0  0
    7.9239   -6.7105    0.0000 O   0  0  0  0  0  0  0  0  0  0  0  0
    5.0660   -7.5355    0.0000 C   0  0  0  0  0  0  0  0  0  0  0  0
    5.7805   -7.9480    0.0000 C   0  0  0  0  0  0  0  0  0  0  0  0
    6.4949   -7.5355    0.0000 C   0  0  1  0  0  0  0  0  0  0  0  0
    7.2094   -7.9480    0.0000 C   0  0  0  0  0  0  0  0  0  0  0  0
    7.9239   -7.5355    0.0000 C   0  0  0  0  0  0  0  0  0  0  0  0
    8.6383   -7.9480    0.0000 C   0  0  0  0  0  0  0  0  0  0  0  0
    9.3528   -7.5355    0.0000 C   0  0  0  0  0  0  0  0  0  0  0  0
 17  1  1  6  0  0  0
 21  7  1  0  0  0  0
  7  2  2  0  0  0  0
  3  2  1  0  0  0  0
  4  3  2  0  0  0  0
  5  4  1  0  0  0  0
  6  5  2  0  0  0  0
  7  6  1  0  0  0  0
 15 13  1  0  0  0  0
 13  8  2  0  0  0  0
  9  8  1  0  0  0  0
 10  9  2  0  0  0  0
 11 10  1  0  0  0  0
 12 11  2  0  0  0  0
 13 12  1  0  0  0  0
 19 14  2  0  0  0  0
 16 15  1  0  0  0  0
 17 16  1  0  0  0  0
 18 17  1  0  0  0  0
 19 18  1  0  0  0  0
 20 19  1  0  0  0  0
 21 20  1  0  0  0  0
M  END
>  <cdx:fragmentId>
44036

$$$$
