266.cdx
  Mrv1902 05222410192D          

 43 47  0  0  0  0            999 V2000
    5.1199   -3.9204    0.0000 O   0  0  0  0  0  0  0  0  0  0  0  0
    6.5488   -3.0954    0.0000 O   0  0  0  0  0  0  0  0  0  0  0  0
    7.9778   -3.0954    0.0000 O   0  0  0  0  0  0  0  0  0  0  0  0
    7.9778   -3.9204    0.0000 C   0  0  0  0  0  0  0  0  0  0  0  0
    7.2633   -4.3329    0.0000 C   0  0  2  0  0  0  0  0  0  0  0  0
    6.5488   -3.9204    0.0000 C   0  0  2  0  0  0  0  0  0  0  0  0
    5.8343   -4.3329    0.0000 C   0  0  1  0  0  0  0  0  0  0  0  0
    5.8343   -5.1579    0.0000 C   0  0  2  0  0  0  0  0  0  0  0  0
    6.5488   -5.5704    0.0000 C   0  0  1  0  0  0  0  0  0  0  0  0
    7.2633   -5.1579    0.0000 O   0  0  0  0  0  0  0  0  0  0  0  0
    6.5488   -6.3954    0.0000 O   0  0  0  0  0  0  0  0  0  0  0  0
    7.9778   -8.8704    0.0000 O   0  0  0  0  0  0  0  0  0  0  0  0
   12.9790   -6.8079    0.0000 O   0  0  0  0  0  0  0  0  0  0  0  0
   13.6935   -5.5704    0.0000 C   0  0  0  0  0  0  0  0  0  0  0  0
   12.9790   -5.1579    0.0000 O   0  0  0  0  0  0  0  0  0  0  0  0
   10.8356   -5.5704    0.0000 C   0  0  0  0  0  0  0  0  0  0  0  0
   11.5501   -5.1579    0.0000 C   0  0  0  0  0  0  0  0  0  0  0  0
   12.2646   -5.5704    0.0000 C   0  0  0  0  0  0  0  0  0  0  0  0
   12.2646   -6.3954    0.0000 C   0  0  0  0  0  0  0  0  0  0  0  0
   11.5501   -6.8079    0.0000 C   0  0  0  0  0  0  0  0  0  0  0  0
   10.8356   -6.3954    0.0000 C   0  0  0  0  0  0  0  0  0  0  0  0
    9.4067   -8.8704    0.0000 O   0  0  0  0  0  0  0  0  0  0  0  0
    9.4067   -6.3954    0.0000 O   0  0  0  0  0  0  0  0  0  0  0  0
    8.6922   -6.8079    0.0000 C   0  0  0  0  0  0  0  0  0  0  0  0
    7.9778   -6.3954    0.0000 C   0  0  0  0  0  0  0  0  0  0  0  0
    7.2633   -6.8079    0.0000 C   0  0  0  0  0  0  0  0  0  0  0  0
    7.2633   -7.6329    0.0000 C   0  0  0  0  0  0  0  0  0  0  0  0
    7.9778   -8.0454    0.0000 C   0  0  0  0  0  0  0  0  0  0  0  0
    8.6922   -7.6329    0.0000 C   0  0  0  0  0  0  0  0  0  0  0  0
    9.4067   -8.0454    0.0000 C   0  0  0  0  0  0  0  0  0  0  0  0
   10.1212   -7.6329    0.0000 C   0  0  0  0  0  0  0  0  0  0  0  0
   10.1212   -6.8079    0.0000 C   0  0  1  0  0  0  0  0  0  0  0  0
    5.1199   -5.5704    0.0000 O   0  0  0  0  0  0  0  0  0  0  0  0
    4.4054   -5.1579    0.0000 C   0  0  2  0  0  0  0  0  0  0  0  0
    4.4054   -4.3329    0.0000 O   0  0  0  0  0  0  0  0  0  0  0  0
    3.6909   -3.9204    0.0000 C   0  0  2  0  0  0  0  0  0  0  0  0
    2.9765   -4.3329    0.0000 C   0  0  1  0  0  0  0  0  0  0  0  0
    2.9765   -5.1579    0.0000 C   0  0  2  0  0  0  0  0  0  0  0  0
    3.6909   -5.5704    0.0000 C   0  0  1  0  0  0  0  0  0  0  0  0
    2.2620   -3.9204    0.0000 O   0  0  0  0  0  0  0  0  0  0  0  0
    2.2620   -5.5704    0.0000 O   0  0  0  0  0  0  0  0  0  0  0  0
    3.6909   -6.3954    0.0000 O   0  0  0  0  0  0  0  0  0  0  0  0
    3.6909   -3.0954    0.0000 C   0  0  0  0  0  0  0  0  0  0  0  0
 26 11  1  0  0  0  0
  9 11  1  1  0  0  0
  7  1  1  1  0  0  0
  6  2  1  6  0  0  0
  5  4  1  1  0  0  0
  4  3  1  0  0  0  0
 10  5  1  0  0  0  0
  6  5  1  0  0  0  0
  7  6  1  0  0  0  0
  8  7  1  0  0  0  0
  9  8  1  0  0  0  0
 10  9  1  0  0  0  0
 28 12  1  0  0  0  0
 32 21  1  6  0  0  0
 19 13  1  0  0  0  0
 18 15  1  0  0  0  0
 15 14  1  0  0  0  0
 21 16  2  0  0  0  0
 17 16  1  0  0  0  0
 18 17  2  0  0  0  0
 19 18  1  0  0  0  0
 20 19  2  0  0  0  0
 21 20  1  0  0  0  0
 30 22  2  0  0  0  0
 32 23  1  0  0  0  0
 24 23  1  0  0  0  0
 29 24  2  0  0  0  0
 25 24  1  0  0  0  0
 26 25  2  0  0  0  0
 27 26  1  0  0  0  0
 28 27  2  0  0  0  0
 29 28  1  0  0  0  0
 30 29  1  0  0  0  0
 31 30  1  0  0  0  0
 32 31  1  0  0  0  0
  8 33  1  6  0  0  0
 34 33  1  1  0  0  0
 34 35  1  0  0  0  0
 35 36  1  0  0  0  0
 36 37  1  0  0  0  0
 37 38  1  0  0  0  0
 38 39  1  0  0  0  0
 39 34  1  0  0  0  0
 37 40  1  1  0  0  0
 38 41  1  6  0  0  0
 39 42  1  6  0  0  0
 36 43  1  6  0  0  0
M  END
>  <cdx:fragmentId>
63

$$$$
