2667.cdx
  Mrv1902 05222410222D          

 45 48  0  0  0  0            999 V2000
    6.4975   -5.6934    0.0000 O   0  0  0  0  0  0  0  0  0  0  0  0
    6.5193   -9.0744    0.0000 H   0  0  0  0  0  0  0  0  0  0  0  0
    6.1640   -9.3112    0.0000 H   0  0  0  0  0  0  0  0  0  0  0  0
    3.6834   -8.7270    0.0000 H   0  0  0  0  0  0  0  0  0  0  0  0
    4.7778   -9.7791    0.0000 O   0  0  0  0  0  0  0  0  0  0  0  0
    3.7752  -11.1524    0.0000 O   0  0  0  0  0  0  0  0  0  0  0  0
    6.7430  -11.1493    0.0000 O   0  0  0  0  0  0  0  0  0  0  0  0
    5.9263  -11.2663    0.0000 C   0  0  0  0  0  0  0  0  0  0  0  0
    1.8323   -9.9873    0.0000 C   0  0  0  0  0  0  0  0  0  0  0  0
    6.9892   -7.2904    0.0000 C   0  0  0  0  0  0  0  0  0  0  0  0
    7.2534   -8.0720    0.0000 C   0  0  0  0  0  0  0  0  0  0  0  0
    3.4729   -8.0438    0.0000 C   0  0  0  0  0  0  0  0  0  0  0  0
    2.9259  -11.4105    0.0000 O   0  0  0  0  0  0  0  0  0  0  0  0
    4.2818   -8.2057    0.0000 C   0  0  2  0  0  0  0  0  0  0  0  0
    4.8266   -7.5861    0.0000 C   0  0  0  0  0  0  0  0  0  0  0  0
    5.6355   -7.7481    0.0000 C   0  0  1  0  0  0  0  0  0  0  0  0
    6.4445   -7.9100    0.0000 C   0  0  0  0  0  0  0  0  0  0  0  0
    5.8997   -8.5296    0.0000 C   0  0  1  0  0  0  0  0  0  0  0  0
    5.3550   -9.1492    0.0000 C   0  0  2  0  0  0  0  0  0  0  0  0
    5.7328   -9.8827    0.0000 C   0  0  0  0  0  0  0  0  0  0  0  0
    5.3949  -10.6353    0.0000 C   0  0  0  0  0  0  0  0  0  0  0  0
    4.5958  -10.8404    0.0000 C   0  0  0  0  0  0  0  0  0  0  0  0
    3.9372  -10.3435    0.0000 C   0  0  1  0  0  0  0  0  0  0  0  0
    3.1597  -10.6194    0.0000 C   0  0  0  0  0  0  0  0  0  0  0  0
    2.6570   -9.9652    0.0000 C   0  0  0  0  0  0  0  0  0  0  0  0
    3.1239   -9.2850    0.0000 C   0  0  0  0  0  0  0  0  0  0  0  0
    3.9151   -9.5188    0.0000 C   0  0  1  0  0  0  0  0  0  0  0  0
    4.5461   -8.9873    0.0000 C   0  0  2  0  0  0  0  0  0  0  0  0
    5.7975   -6.9391    0.0000 O   0  0  0  0  0  0  0  0  0  0  0  0
    7.2263   -6.9225    0.0000 C   0  0  0  0  0  0  0  0  0  0  0  0
    6.5071   -6.5183    0.0000 C   0  0  0  0  0  0  0  0  0  0  0  0
    7.9359   -6.5017    0.0000 C   0  0  0  0  0  0  0  0  0  0  0  0
    8.6552   -6.9058    0.0000 C   0  0  0  0  0  0  0  0  0  0  0  0
    9.3648   -6.4850    0.0000 C   0  0  0  0  0  0  0  0  0  0  0  0
   10.0840   -6.8892    0.0000 C   0  0  0  0  0  0  0  0  0  0  0  0
   10.7936   -6.4684    0.0000 C   0  0  0  0  0  0  0  0  0  0  0  0
   11.5128   -6.8725    0.0000 C   0  0  0  0  0  0  0  0  0  0  0  0
   12.2225   -6.4518    0.0000 C   0  0  0  0  0  0  0  0  0  0  0  0
   12.9417   -6.8559    0.0000 C   0  0  0  0  0  0  0  0  0  0  0  0
   13.6513   -6.4351    0.0000 C   0  0  0  0  0  0  0  0  0  0  0  0
   14.3705   -6.8393    0.0000 C   0  0  0  0  0  0  0  0  0  0  0  0
   15.0802   -6.4185    0.0000 C   0  0  0  0  0  0  0  0  0  0  0  0
   15.7994   -6.8226    0.0000 C   0  0  0  0  0  0  0  0  0  0  0  0
   16.5090   -6.4018    0.0000 C   0  0  0  0  0  0  0  0  0  0  0  0
   17.2282   -6.8060    0.0000 C   0  0  0  0  0  0  0  0  0  0  0  0
 18  2  1  6  0  0  0
 19  3  1  1  0  0  0
 27  4  1  6  0  0  0
 16 29  1  6  0  0  0
 28  5  1  6  0  0  0
 23  6  1  1  0  0  0
 21  8  1  0  0  0  0
  8  7  1  0  0  0  0
 25  9  1  0  0  0  0
 17 10  1  0  0  0  0
 17 11  1  0  0  0  0
 14 12  1  6  0  0  0
 24 13  2  0  0  0  0
 27 23  1  0  0  0  0
 18 16  1  0  0  0  0
 28 19  1  0  0  0  0
 28 14  1  0  0  0  0
 15 14  1  0  0  0  0
 16 15  1  0  0  0  0
 17 16  1  0  0  0  0
 18 17  1  0  0  0  0
 19 18  1  0  0  0  0
 20 19  1  0  0  0  0
 21 20  2  0  0  0  0
 22 21  1  0  0  0  0
 23 22  1  0  0  0  0
 24 23  1  0  0  0  0
 25 24  1  0  0  0  0
 26 25  2  0  0  0  0
 27 26  1  0  0  0  0
 28 27  1  0  0  0  0
 31  1  2  0  0  0  0
 31 30  1  0  0  0  0
 31 29  1  0  0  0  0
 30 32  1  0  0  0  0
 32 33  1  0  0  0  0
 33 34  1  0  0  0  0
 34 35  1  0  0  0  0
 35 36  1  0  0  0  0
 36 37  1  0  0  0  0
 37 38  1  0  0  0  0
 38 39  1  0  0  0  0
 39 40  1  0  0  0  0
 40 41  1  0  0  0  0
 41 42  1  0  0  0  0
 42 43  1  0  0  0  0
 43 44  1  0  0  0  0
 44 45  1  0  0  0  0
M  END
>  <cdx:groupId>
71754

>  <cdx:fragmentId>
71669

$$$$
