muscone (=3-methylcyclopentadecanone).cdx
  Mrv1902 05222410192D          

 17 17  0  0  0  0            999 V2000
    5.5700   -6.0023    0.0000 C   0  0  0  0  0  0  0  0  0  0  0  0
    7.2200   -5.9925    0.0000 C   0  0  0  0  0  0  0  0  0  0  0  0
    6.8032   -5.2805    0.0000 C   0  0  0  0  0  0  0  0  0  0  0  0
    5.9782   -5.2854    0.0000 C   0  0  0  0  0  0  0  0  0  0  0  0
    7.2157   -4.5660    0.0000 O   0  0  0  0  0  0  0  0  0  0  0  0
    8.0169   -6.2060    0.0000 C   0  0  0  0  0  0  0  0  0  0  0  0
    8.2304   -7.0029    0.0000 C   0  0  0  0  0  0  0  0  0  0  0  0
    7.6470   -7.5862    0.0000 C   0  0  0  0  0  0  0  0  0  0  0  0
    7.8605   -8.3831    0.0000 C   0  0  0  0  0  0  0  0  0  0  0  0
    7.1461   -8.7956    0.0000 C   0  0  0  0  0  0  0  0  0  0  0  0
    6.4316   -8.3831    0.0000 C   0  0  0  0  0  0  0  0  0  0  0  0
    4.7731   -6.2158    0.0000 C   0  0  0  0  0  0  0  0  0  0  0  0
    4.5596   -7.0127    0.0000 C   0  0  0  0  0  0  0  0  0  0  0  0
    5.1429   -7.5961    0.0000 C   0  0  0  0  0  0  0  0  0  0  0  0
    4.9294   -8.3930    0.0000 C   0  0  0  0  0  0  0  0  0  0  0  0
    5.6439   -8.8055    0.0000 C   0  0  0  0  0  0  0  0  0  0  0  0
    8.4294   -5.4915    0.0000 C   0  0  0  0  0  0  0  0  0  0  0  0
  2  3  1  0  0  0  0
  3  4  1  0  0  0  0
  4  1  1  0  0  0  0
  3  5  2  0  0  0  0
  2  6  1  0  0  0  0
  6  7  1  0  0  0  0
  7  8  1  0  0  0  0
  8  9  1  0  0  0  0
  9 10  1  0  0  0  0
 10 11  1  0  0  0  0
  1 12  1  0  0  0  0
 12 13  1  0  0  0  0
 13 14  1  0  0  0  0
 14 15  1  0  0  0  0
 15 16  1  0  0  0  0
 16 11  1  0  0  0  0
  6 17  1  0  0  0  0
M  END
>  <cdx:fragmentId>
5

$$$$
