45267920.cdx
  Mrv1902 05222410182D          

 20 22  0  0  0  0            999 V2000
    6.4043  -16.3014    0.0000 C   0  0  0  0  0  0  0  0  0  0  0  0
    5.6898  -15.8889    0.0000 C   0  0  0  0  0  0  0  0  0  0  0  0
    5.6898  -15.0639    0.0000 C   0  0  0  0  0  0  0  0  0  0  0  0
    6.4043  -14.6514    0.0000 C   0  0  0  0  0  0  0  0  0  0  0  0
    7.1188  -15.0639    0.0000 C   0  0  0  0  0  0  0  0  0  0  0  0
    7.8332  -14.6514    0.0000 C   0  0  0  0  0  0  0  0  0  0  0  0
    7.8332  -13.8264    0.0000 C   0  0  0  0  0  0  0  0  0  0  0  0
    8.5477  -13.4139    0.0000 C   0  0  0  0  0  0  0  0  0  0  0  0
    9.2622  -13.8264    0.0000 C   0  0  0  0  0  0  0  0  0  0  0  0
    9.2622  -14.6514    0.0000 C   0  0  0  0  0  0  0  0  0  0  0  0
    8.5477  -15.0639    0.0000 C   0  0  0  0  0  0  0  0  0  0  0  0
    8.5477  -15.8889    0.0000 C   0  0  0  0  0  0  0  0  0  0  0  0
    7.8332  -16.3014    0.0000 C   0  0  0  0  0  0  0  0  0  0  0  0
    7.1188  -15.8889    0.0000 C   0  0  0  0  0  0  0  0  0  0  0  0
    4.9754  -16.3014    0.0000 O   0  0  0  0  0  0  0  0  0  0  0  0
    9.9766  -13.4139    0.0000 O   0  0  0  0  0  0  0  0  0  0  0  0
    7.1188  -13.4139    0.0000 O   0  0  0  0  0  0  0  0  0  0  0  0
    6.4043  -13.8264    0.0000 C   0  0  0  0  0  0  0  0  0  0  0  0
    4.9754  -14.6514    0.0000 O   0  0  0  0  0  0  0  0  0  0  0  0
    4.2609  -15.0639    0.0000 C   0  0  0  0  0  0  0  0  0  0  0  0
  1  2  1  0  0  0  0
  2  3  2  0  0  0  0
  3  4  1  0  0  0  0
  4  5  2  0  0  0  0
  5  6  1  0  0  0  0
  6  7  1  0  0  0  0
  7  8  2  0  0  0  0
  8  9  1  0  0  0  0
  9 10  2  0  0  0  0
 10 11  1  0  0  0  0
  6 11  2  0  0  0  0
 11 12  1  0  0  0  0
 12 13  1  0  0  0  0
 13 14  1  0  0  0  0
  1 14  2  0  0  0  0
  5 14  1  0  0  0  0
  2 15  1  0  0  0  0
  9 16  1  0  0  0  0
 17 18  1  0  0  0  0
  7 17  1  0  0  0  0
 19 20  1  0  0  0  0
  3 19  1  0  0  0  0
M  END
>  <cdx:groupId>
172569

>  <cdx:fragmentId>
172510

$$$$
