normuscone.cdx
  Mrv1902 05222410282D          

 16 16  0  0  0  0            999 V2000
    6.0803   -6.3736    0.0000 C   0  0  0  0  0  0  0  0  0  0  0  0
    7.7302   -6.3637    0.0000 C   0  0  0  0  0  0  0  0  0  0  0  0
    7.3135   -5.6517    0.0000 C   0  0  0  0  0  0  0  0  0  0  0  0
    6.4885   -5.6567    0.0000 C   0  0  0  0  0  0  0  0  0  0  0  0
    7.7260   -4.9373    0.0000 O   0  0  0  0  0  0  0  0  0  0  0  0
    8.5271   -6.5772    0.0000 C   0  0  0  0  0  0  0  0  0  0  0  0
    8.7406   -7.3741    0.0000 C   0  0  0  0  0  0  0  0  0  0  0  0
    8.1573   -7.9575    0.0000 C   0  0  0  0  0  0  0  0  0  0  0  0
    8.3708   -8.7544    0.0000 C   0  0  0  0  0  0  0  0  0  0  0  0
    7.6563   -9.1669    0.0000 C   0  0  0  0  0  0  0  0  0  0  0  0
    6.9419   -8.7544    0.0000 C   0  0  0  0  0  0  0  0  0  0  0  0
    5.2834   -6.5871    0.0000 C   0  0  0  0  0  0  0  0  0  0  0  0
    5.0699   -7.3840    0.0000 C   0  0  0  0  0  0  0  0  0  0  0  0
    5.6532   -7.9674    0.0000 C   0  0  0  0  0  0  0  0  0  0  0  0
    5.4397   -8.7642    0.0000 C   0  0  0  0  0  0  0  0  0  0  0  0
    6.1542   -9.1767    0.0000 C   0  0  0  0  0  0  0  0  0  0  0  0
  2  3  1  0  0  0  0
  3  4  1  0  0  0  0
  4  1  1  0  0  0  0
  3  5  2  0  0  0  0
  2  6  1  0  0  0  0
  6  7  1  0  0  0  0
  7  8  1  0  0  0  0
  8  9  1  0  0  0  0
  9 10  1  0  0  0  0
 10 11  1  0  0  0  0
  1 12  1  0  0  0  0
 12 13  1  0  0  0  0
 13 14  1  0  0  0  0
 14 15  1  0  0  0  0
 15 16  1  0  0  0  0
 16 11  1  0  0  0  0
M  END
>  <cdx:fragmentId>
103

$$$$
