26808.cdx
  Mrv1902 05222410272D          

  9  9  0  0  0  0            999 V2000
    4.6703   -3.1218    0.0000 C   0  0  0  0  0  0  0  0  0  0  0  0
    4.6703   -3.9468    0.0000 C   0  0  0  0  0  0  0  0  0  0  0  0
    3.9559   -2.7093    0.0000 N   0  0  0  0  0  0  0  0  0  0  0  0
    3.9559   -4.3593    0.0000 N   0  0  0  0  0  0  0  0  0  0  0  0
    3.2414   -3.9468    0.0000 C   0  0  0  0  0  0  0  0  0  0  0  0
    3.2414   -3.1218    0.0000 C   0  0  0  0  0  0  0  0  0  0  0  0
    5.3848   -2.7093    0.0000 C   0  0  0  0  0  0  0  0  0  0  0  0
    5.3848   -4.3593    0.0000 C   0  0  0  0  0  0  0  0  0  0  0  0
    2.5269   -4.3593    0.0000 C   0  0  0  0  0  0  0  0  0  0  0  0
  1  2  1  0  0  0  0
  1  3  2  0  0  0  0
  2  4  2  0  0  0  0
  4  5  1  0  0  0  0
  5  6  2  0  0  0  0
  3  6  1  0  0  0  0
  1  7  1  0  0  0  0
  2  8  1  0  0  0  0
  5  9  1  0  0  0  0
M  END
>  <cdx:groupId>
29

>  <cdx:fragmentId>
5

$$$$
