1268040.cdx
  Mrv1902 05222410222D          

 14 14  0  0  0  0            999 V2000
   12.5853   -9.9357    0.0000 C   0  0  0  0  0  0  0  0  0  0  0  0
   11.8709  -10.3482    0.0000 C   0  0  0  0  0  0  0  0  0  0  0  0
   12.5853   -9.1107    0.0000 O   0  0  0  0  0  0  0  0  0  0  0  0
   13.2998  -10.3482    0.0000 O   0  0  0  0  0  0  0  0  0  0  0  0
   14.0143   -9.9357    0.0000 C   0  0  2  0  0  0  0  0  0  0  0  0
   14.0143   -9.1107    0.0000 C   0  0  2  0  0  0  0  0  0  0  0  0
   14.7287   -8.6982    0.0000 C   0  0  0  0  0  0  0  0  0  0  0  0
   15.4432   -9.1107    0.0000 C   0  0  0  0  0  0  0  0  0  0  0  0
   15.4432   -9.9357    0.0000 C   0  0  2  0  0  0  0  0  0  0  0  0
   14.7287  -10.3482    0.0000 C   0  0  0  0  0  0  0  0  0  0  0  0
   16.1577  -11.1732    0.0000 C   0  0  0  0  0  0  0  0  0  0  0  0
   16.1577  -10.3482    0.0000 C   0  0  0  0  0  0  0  0  0  0  0  0
   16.8721   -9.9357    0.0000 C   0  0  0  0  0  0  0  0  0  0  0  0
   13.2998   -8.6982    0.0000 C   0  0  0  0  0  0  0  0  0  0  0  0
  1  2  1  0  0  0  0
  1  3  2  0  0  0  0
  1  4  1  0  0  0  0
  5  6  1  0  0  0  0
  6  7  1  0  0  0  0
  7  8  1  0  0  0  0
  8  9  1  0  0  0  0
  9 10  1  0  0  0  0
  5 10  1  0  0  0  0
 11 12  2  0  0  0  0
 12 13  1  0  0  0  0
  9 12  1  1  0  0  0
  6 14  1  1  0  0  0
  5  4  1  6  0  0  0
M  END
>  <cdx:groupId>
43756

>  <cdx:fragmentId>
43725

$$$$
