26862.cdx
  Mrv1902 05222410222D          

 13 13  0  0  0  0            999 V2000
    8.8436   -6.6188    0.0000 C   0  0  0  0  0  0  0  0  0  0  0  0
    8.8432   -7.4438    0.0000 C   0  0  0  0  0  0  0  0  0  0  0  0
    8.1286   -7.8560    0.0000 C   0  0  0  0  0  0  0  0  0  0  0  0
    8.1292   -6.2060    0.0000 O   0  0  0  0  0  0  0  0  0  0  0  0
    5.9848   -9.0930    0.0000 C   0  0  0  0  0  0  0  0  0  0  0  0
    6.6993   -8.6805    0.0000 O   0  0  0  0  0  0  0  0  0  0  0  0
    8.8425   -9.0938    0.0000 C   0  0  0  0  0  0  0  0  0  0  0  0
    8.8422   -9.9188    0.0000 C   0  0  0  0  0  0  0  0  0  0  0  0
    8.1276  -10.3310    0.0000 C   0  0  0  0  0  0  0  0  0  0  0  0
    7.4133   -9.9182    0.0000 C   0  0  0  0  0  0  0  0  0  0  0  0
    7.4136   -9.0932    0.0000 C   0  0  0  0  0  0  0  0  0  0  0  0
    8.1282   -8.6810    0.0000 C   0  0  0  0  0  0  0  0  0  0  0  0
    9.5582   -6.2066    0.0000 O   0  0  0  0  0  0  0  0  0  0  0  0
  3 12  1  0  0  0  0
 11  6  1  0  0  0  0
  6  5  1  0  0  0  0
 12  7  2  0  0  0  0
  8  7  1  0  0  0  0
  9  8  2  0  0  0  0
 10  9  1  0  0  0  0
 11 10  2  0  0  0  0
 12 11  1  0  0  0  0
  1  2  1  0  0  0  0
  2  3  2  0  0  0  0
  1  4  2  0  0  0  0
  1 13  1  0  0  0  0
M  END
>  <cdx:fragmentId>
6572

$$$$
