2689.cdx
  Mrv1902 05222410212D          

 17 18  0  0  0  0            999 V2000
    7.3685   -8.0713    0.0000 C   0  0  0  0  0  0  0  0  0  0  0  0
    8.0830   -8.4838    0.0000 C   0  0  0  0  0  0  0  0  0  0  0  0
    4.5106   -8.8963    0.0000 O   0  0  0  0  0  0  0  0  0  0  0  0
    5.2251   -8.4838    0.0000 C   0  0  0  0  0  0  0  0  0  0  0  0
    4.5106   -7.2462    0.0000 C   0  0  0  0  0  0  0  0  0  0  0  0
    5.2251   -7.6587    0.0000 C   0  0  0  0  0  0  0  0  0  0  0  0
    9.5119   -6.0088    0.0000 O   0  0  0  0  0  0  0  0  0  0  0  0
    6.6541   -6.0088    0.0000 C   0  0  0  0  0  0  0  0  0  0  0  0
    5.9396   -6.4213    0.0000 C   0  0  0  0  0  0  0  0  0  0  0  0
    5.9396   -7.2462    0.0000 C   0  0  2  0  0  0  0  0  0  0  0  0
    6.6541   -7.6587    0.0000 C   0  0  0  0  0  0  0  0  0  0  0  0
    8.0830   -6.0088    0.0000 C   0  0  0  0  0  0  0  0  0  0  0  0
    7.3685   -6.4213    0.0000 C   0  0  0  0  0  0  0  0  0  0  0  0
    7.3685   -7.2462    0.0000 C   0  0  1  0  0  0  0  0  0  0  0  0
    8.0830   -7.6587    0.0000 C   0  0  1  0  0  0  0  0  0  0  0  0
    8.7975   -7.2462    0.0000 C   0  0  0  0  0  0  0  0  0  0  0  0
    8.7975   -6.4213    0.0000 C   0  0  0  0  0  0  0  0  0  0  0  0
 14  1  1  1  0  0  0
 15  2  1  1  0  0  0
  4  3  1  0  0  0  0
  6  4  1  0  0  0  0
  6  5  2  0  0  0  0
 10  6  1  6  0  0  0
 17  7  2  0  0  0  0
  8 13  1  0  0  0  0
  9  8  1  0  0  0  0
 10  9  1  0  0  0  0
 11 10  1  0  0  0  0
 14 11  1  0  0  0  0
 12 17  1  0  0  0  0
 13 12  2  0  0  0  0
 14 13  1  0  0  0  0
 15 14  1  0  0  0  0
 16 15  1  0  0  0  0
 17 16  1  0  0  0  0
M  END
>  <cdx:fragmentId>
5

$$$$
