muscopyridine.cdx
  Mrv1902 05222410282D          

 17 18  0  0  0  0            999 V2000
    6.1183   -7.1270    0.0000 C   0  0  0  0  0  0  0  0  0  0  0  0
    6.1183   -7.9520    0.0000 C   0  0  0  0  0  0  0  0  0  0  0  0
    6.8328   -8.3645    0.0000 N   0  0  0  0  0  0  0  0  0  0  0  0
    7.5473   -7.9520    0.0000 C   0  0  0  0  0  0  0  0  0  0  0  0
    7.5473   -7.1270    0.0000 C   0  0  0  0  0  0  0  0  0  0  0  0
    6.8328   -6.7145    0.0000 C   0  0  0  0  0  0  0  0  0  0  0  0
    5.4039   -8.3645    0.0000 C   0  0  0  0  0  0  0  0  0  0  0  0
    5.4039   -9.1895    0.0000 C   0  0  0  0  0  0  0  0  0  0  0  0
    6.1183   -9.6020    0.0000 C   0  0  0  0  0  0  0  0  0  0  0  0
    6.1183  -10.2826    0.0000 C   0  0  0  0  0  0  0  0  0  0  0  0
    6.5927  -10.9970    0.0000 C   0  0  0  0  0  0  0  0  0  0  0  0
    7.1628  -11.0045    0.0000 C   0  0  0  0  0  0  0  0  0  0  0  0
    7.6033  -10.2826    0.0000 C   0  0  0  0  0  0  0  0  0  0  0  0
    7.6033   -9.6020    0.0000 C   0  0  0  0  0  0  0  0  0  0  0  0
    8.2765   -9.1895    0.0000 C   0  0  0  0  0  0  0  0  0  0  0  0
    8.2765   -8.3645    0.0000 C   0  0  0  0  0  0  0  0  0  0  0  0
    8.9910   -9.6020    0.0000 C   0  0  0  0  0  0  0  0  0  0  0  0
  1  2  1  0  0  0  0
  2  3  2  0  0  0  0
  3  4  1  0  0  0  0
  4  5  2  0  0  0  0
  5  6  1  0  0  0  0
  6  1  2  0  0  0  0
  2  7  1  0  0  0  0
  7  8  1  0  0  0  0
  8  9  1  0  0  0  0
  9 10  1  0  0  0  0
 10 11  1  0  0  0  0
 11 12  1  0  0  0  0
 12 13  1  0  0  0  0
 13 14  1  0  0  0  0
 14 15  1  0  0  0  0
 15 16  1  0  0  0  0
 16  4  1  0  0  0  0
 15 17  1  0  0  0  0
M  END
>  <cdx:fragmentId>
140

$$$$
