102269021.cdx
  Mrv1902 05222410252D          

 91 99  0  0  0  0            999 V2000
    2.4594  -13.8502    0.0000 O   0  0  0  0  0  0  0  0  0  0  0  0
    3.1739  -14.2627    0.0000 C   0  0  2  0  0  0  0  0  0  0  0  0
    3.1739  -15.0877    0.0000 C   0  0  0  0  0  0  0  0  0  0  0  0
    2.4594  -15.5002    0.0000 C   0  0  2  0  0  0  0  0  0  0  0  0
    1.7450  -15.0877    0.0000 C   0  0  1  0  0  0  0  0  0  0  0  0
    1.7450  -14.2627    0.0000 C   0  0  2  0  0  0  0  0  0  0  0  0
    3.8884  -15.5002    0.0000 O   0  0  0  0  0  0  0  0  0  0  0  0
    2.4594  -16.3252    0.0000 O   0  0  0  0  0  0  0  0  0  0  0  0
    1.0305  -15.5002    0.0000 O   0  0  0  0  0  0  0  0  0  0  0  0
    1.0305  -13.8502    0.0000 C   0  0  0  0  0  0  0  0  0  0  0  0
    0.3160  -14.2627    0.0000 O   0  0  0  0  0  0  0  0  0  0  0  0
    3.8884  -13.8502    0.0000 O   0  0  0  0  0  0  0  0  0  0  0  0
    4.6029  -14.2627    0.0000 C   0  0  0  0  0  0  0  0  0  0  0  0
    6.0318  -14.2627    0.0000 O   0  0  0  0  0  0  0  0  0  0  0  0
    5.3173  -13.8502    0.0000 C   0  0  0  0  0  0  0  0  0  0  0  0
    5.3173  -13.0252    0.0000 C   0  0  2  0  0  0  0  0  0  0  0  0
    6.0318  -12.6127    0.0000 C   0  0  1  0  0  0  0  0  0  0  0  0
    6.7463  -13.0252    0.0000 C   0  0  1  0  0  0  0  0  0  0  0  0
    6.7463  -13.8502    0.0000 C   0  0  2  0  0  0  0  0  0  0  0  0
    7.4607  -12.6127    0.0000 O   0  0  0  0  0  0  0  0  0  0  0  0
    6.0318  -11.7877    0.0000 O   0  0  0  0  0  0  0  0  0  0  0  0
    4.6029  -12.6127    0.0000 O   0  0  0  0  0  0  0  0  0  0  0  0
    7.4607  -14.2627    0.0000 O   0  0  0  0  0  0  0  0  0  0  0  0
    8.8897  -12.6127    0.0000 C   0  0  0  0  0  0  0  0  0  0  0  0
    8.1752  -13.0252    0.0000 C   0  0  0  0  0  0  0  0  0  0  0  0
    8.1752  -13.8502    0.0000 C   0  0  1  0  0  0  0  0  0  0  0  0
    8.8897  -14.2627    0.0000 C   0  0  0  0  0  0  0  0  0  0  0  0
    9.6042  -13.8502    0.0000 C   0  0  0  0  0  0  0  0  0  0  0  0
   10.3186  -14.2627    0.0000 C   0  0  0  0  0  0  0  0  0  0  0  0
   11.0331  -13.8502    0.0000 C   0  0  0  0  0  0  0  0  0  0  0  0
   11.0331  -13.0252    0.0000 C   0  0  1  0  0  0  0  0  0  0  0  0
   11.7476  -12.6127    0.0000 C   0  0  1  0  0  0  0  0  0  0  0  0
   12.5322  -12.8677    0.0000 C   0  0  0  0  0  0  0  0  0  0  0  0
   13.0171  -12.2002    0.0000 C   0  0  0  0  0  0  0  0  0  0  0  0
   12.5322  -11.5328    0.0000 C   0  0  2  0  0  0  0  0  0  0  0  0
   11.7476  -11.7877    0.0000 C   0  0  1  0  0  0  0  0  0  0  0  0
   11.0331  -11.3752    0.0000 C   0  0  0  0  0  0  0  0  0  0  0  0
   10.3186  -11.7877    0.0000 C   0  0  0  0  0  0  0  0  0  0  0  0
   10.3186  -12.6127    0.0000 C   0  0  2  0  0  0  0  0  0  0  0  0
    9.6042  -13.0252    0.0000 C   0  0  2  0  0  0  0  0  0  0  0  0
   11.7476  -13.4377    0.0000 C   0  0  0  0  0  0  0  0  0  0  0  0
   11.8338  -10.9672    0.0000 C   0  0  0  0  0  0  0  0  0  0  0  0
   10.3186  -13.4377    0.0000 C   0  0  0  0  0  0  0  0  0  0  0  0
    9.3022  -14.9772    0.0000 C   0  0  0  0  0  0  0  0  0  0  0  0
    8.4772  -14.9772    0.0000 C   0  0  0  0  0  0  0  0  0  0  0  0
    9.6042  -11.3752    0.0000 O   0  0  0  0  0  0  0  0  0  0  0  0
   12.2351  -10.1351    0.0000 C   0  0  0  0  0  0  0  0  0  0  0  0
   12.7871  -10.7482    0.0000 C   0  0  0  0  0  0  0  0  0  0  0  0
   13.5941  -10.5766    0.0000 C   0  0  0  0  0  0  0  0  0  0  0  0
   13.8490   -9.7920    0.0000 C   0  0  0  0  0  0  0  0  0  0  0  0
   14.6560   -9.6205    0.0000 C   0  0  2  0  0  0  0  0  0  0  0  0
   15.2080  -10.2336    0.0000 C   0  0  0  0  0  0  0  0  0  0  0  0
   16.0150  -10.0621    0.0000 C   0  0  0  0  0  0  0  0  0  0  0  0
   14.9531  -11.0182    0.0000 C   0  0  0  0  0  0  0  0  0  0  0  0
   15.7601  -10.8467    0.0000 O   0  0  0  0  0  0  0  0  0  0  0  0
   14.9109   -8.8359    0.0000 O   0  0  0  0  0  0  0  0  0  0  0  0
   16.2700   -9.2774    0.0000 O   0  0  0  0  0  0  0  0  0  0  0  0
   15.7179   -8.6643    0.0000 C   0  0  2  0  0  0  0  0  0  0  0  0
   15.9729   -7.8797    0.0000 C   0  0  0  0  0  0  0  0  0  0  0  0
   16.7798   -7.7082    0.0000 C   0  0  2  0  0  0  0  0  0  0  0  0
   17.3319   -8.3213    0.0000 C   0  0  1  0  0  0  0  0  0  0  0  0
   17.0769   -9.1059    0.0000 C   0  0  2  0  0  0  0  0  0  0  0  0
   17.6290   -9.7190    0.0000 C   0  0  0  0  0  0  0  0  0  0  0  0
   18.4359   -9.5475    0.0000 O   0  0  0  0  0  0  0  0  0  0  0  0
   19.7949   -9.9890    0.0000 O   0  0  0  0  0  0  0  0  0  0  0  0
   18.9880  -10.1606    0.0000 C   0  0  2  0  0  0  0  0  0  0  0  0
   18.7330  -10.9452    0.0000 C   0  0  0  0  0  0  0  0  0  0  0  0
   19.2851  -11.5583    0.0000 C   0  0  2  0  0  0  0  0  0  0  0  0
   20.0920  -11.3868    0.0000 C   0  0  1  0  0  0  0  0  0  0  0  0
   20.3470  -10.6021    0.0000 C   0  0  2  0  0  0  0  0  0  0  0  0
   21.1539  -10.4306    0.0000 C   0  0  0  0  0  0  0  0  0  0  0  0
   21.7060  -11.0437    0.0000 O   0  0  0  0  0  0  0  0  0  0  0  0
   20.6441  -11.9998    0.0000 O   0  0  0  0  0  0  0  0  0  0  0  0
   19.0301  -12.3429    0.0000 O   0  0  0  0  0  0  0  0  0  0  0  0
   17.9261  -11.1167    0.0000 O   0  0  0  0  0  0  0  0  0  0  0  0
   15.4208   -7.2666    0.0000 O   0  0  0  0  0  0  0  0  0  0  0  0
   16.4827   -6.3105    0.0000 O   0  0  0  0  0  0  0  0  0  0  0  0
   15.6758   -6.4820    0.0000 C   0  0  2  0  0  0  0  0  0  0  0  0
   15.1237   -5.8689    0.0000 C   0  0  0  0  0  0  0  0  0  0  0  0
   15.3787   -5.0843    0.0000 C   0  0  2  0  0  0  0  0  0  0  0  0
   16.1856   -4.9128    0.0000 C   0  0  1  0  0  0  0  0  0  0  0  0
   16.7377   -5.5258    0.0000 C   0  0  1  0  0  0  0  0  0  0  0  0
   17.5446   -5.3543    0.0000 C   0  0  0  0  0  0  0  0  0  0  0  0
   18.1280   -5.9377    0.0000 O   0  0  0  0  0  0  0  0  0  0  0  0
   16.4406   -4.1281    0.0000 O   0  0  0  0  0  0  0  0  0  0  0  0
   14.8266   -4.4712    0.0000 O   0  0  0  0  0  0  0  0  0  0  0  0
   14.3168   -6.0404    0.0000 O   0  0  0  0  0  0  0  0  0  0  0  0
   18.1388   -8.1498    0.0000 O   0  0  0  0  0  0  0  0  0  0  0  0
   17.0348   -6.9236    0.0000 O   0  0  0  0  0  0  0  0  0  0  0  0
   11.0331  -12.2002    0.0000 H   0  0  0  0  0  0  0  0  0  0  0  0
    9.6042  -12.2002    0.0000 H   0  0  0  0  0  0  0  0  0  0  0  0
  1  2  1  0  0  0  0
  2  3  1  0  0  0  0
  3  4  1  0  0  0  0
  4  5  1  0  0  0  0
  5  6  1  0  0  0  0
  1  6  1  0  0  0  0
  3  7  1  0  0  0  0
  4  8  1  1  0  0  0
  5  9  1  6  0  0  0
 10 11  1  0  0  0  0
  6 10  1  6  0  0  0
 12 13  1  0  0  0  0
 14 15  1  0  0  0  0
 15 16  1  0  0  0  0
 16 17  1  0  0  0  0
 17 18  1  0  0  0  0
 18 19  1  0  0  0  0
 14 19  1  0  0  0  0
 18 20  1  6  0  0  0
 17 21  1  6  0  0  0
 16 22  1  1  0  0  0
 24 25  1  0  0  0  0
 25 26  1  0  0  0  0
 26 27  1  0  0  0  0
 27 28  1  0  0  0  0
 28 29  2  0  0  0  0
 29 30  1  0  0  0  0
 30 31  1  0  0  0  0
 31 32  1  0  0  0  0
 32 33  1  0  0  0  0
 33 34  1  0  0  0  0
 35 34  1  6  0  0  0
 35 36  1  0  0  0  0
 32 36  1  0  0  0  0
 36 37  1  0  0  0  0
 37 38  1  0  0  0  0
 38 39  1  0  0  0  0
 31 39  1  0  0  0  0
 39 40  1  0  0  0  0
 28 40  1  0  0  0  0
 24 40  1  0  0  0  0
 32 41  1  1  0  0  0
 36 42  1  1  0  0  0
 39 43  1  6  0  0  0
 27 44  1  0  0  0  0
 27 45  1  0  0  0  0
 38 46  1  0  0  0  0
 47 48  1  0  0  0  0
 48 49  1  0  0  0  0
 49 50  1  0  0  0  0
 50 51  1  0  0  0  0
 51 52  1  0  0  0  0
 52 53  1  0  0  0  0
 52 54  1  0  0  0  0
 52 55  1  0  0  0  0
 57 58  1  0  0  0  0
 58 59  1  0  0  0  0
 59 60  1  0  0  0  0
 60 61  1  0  0  0  0
 61 62  1  0  0  0  0
 57 62  1  0  0  0  0
 65 66  1  0  0  0  0
 66 67  1  0  0  0  0
 67 68  1  0  0  0  0
 68 69  1  0  0  0  0
 69 70  1  0  0  0  0
 65 70  1  0  0  0  0
 71 72  1  0  0  0  0
 70 71  1  1  0  0  0
 69 73  1  1  0  0  0
 68 74  1  6  0  0  0
 67 75  1  0  0  0  0
 66 64  1  6  0  0  0
 63 64  1  0  0  0  0
 62 63  1  6  0  0  0
 77 78  1  0  0  0  0
 78 79  1  0  0  0  0
 79 80  1  0  0  0  0
 80 81  1  0  0  0  0
 81 82  1  0  0  0  0
 77 82  1  0  0  0  0
 83 84  1  0  0  0  0
 82 83  1  1  0  0  0
 81 85  1  6  0  0  0
 80 86  1  1  0  0  0
 79 87  1  0  0  0  0
 78 76  1  1  0  0  0
 59 76  1  0  0  0  0
 61 88  1  6  0  0  0
 60 89  1  1  0  0  0
 58 56  1  1  0  0  0
 51 56  1  1  0  0  0
 35 48  1  0  0  0  0
 26 23  1  1  0  0  0
 19 23  1  6  0  0  0
 13 15  1  0  0  0  0
  2 12  1  1  0  0  0
 31 90  1  1  0  0  0
 40 91  1  6  0  0  0
M  END
>  <cdx:groupId>
15732

>  <cdx:fragmentId>
15582

$$$$
