102269022.cdx
  Mrv1902 05222410252D          

 80 87  0  0  0  0            999 V2000
   16.5788  -10.7146    0.0000 O   0  0  0  0  0  0  0  0  0  0  0  0
   15.7718  -10.8861    0.0000 C   0  0  2  0  0  0  0  0  0  0  0  0
   15.5168  -11.6708    0.0000 C   0  0  0  0  0  0  0  0  0  0  0  0
   16.0689  -12.2839    0.0000 C   0  0  2  0  0  0  0  0  0  0  0  0
   16.8758  -12.1123    0.0000 C   0  0  1  0  0  0  0  0  0  0  0  0
   17.1308  -11.3277    0.0000 C   0  0  2  0  0  0  0  0  0  0  0  0
   14.7099  -11.8423    0.0000 O   0  0  0  0  0  0  0  0  0  0  0  0
   15.8139  -13.0685    0.0000 O   0  0  0  0  0  0  0  0  0  0  0  0
   17.4279  -12.7254    0.0000 O   0  0  0  0  0  0  0  0  0  0  0  0
   17.9378  -11.1562    0.0000 C   0  0  0  0  0  0  0  0  0  0  0  0
   18.4898  -11.7693    0.0000 O   0  0  0  0  0  0  0  0  0  0  0  0
   15.2198  -10.2730    0.0000 O   0  0  0  0  0  0  0  0  0  0  0  0
   14.4128  -10.4446    0.0000 C   0  0  0  0  0  0  0  0  0  0  0  0
   13.0538  -10.0030    0.0000 O   0  0  0  0  0  0  0  0  0  0  0  0
   13.8607   -9.8315    0.0000 C   0  0  2  0  0  0  0  0  0  0  0  0
   14.1157   -9.0469    0.0000 C   0  0  2  0  0  0  0  0  0  0  0  0
   13.5637   -8.4338    0.0000 C   0  0  1  0  0  0  0  0  0  0  0  0
   12.7567   -8.6053    0.0000 C   0  0  0  0  0  0  0  0  0  0  0  0
   12.5017   -9.3899    0.0000 C   0  0  2  0  0  0  0  0  0  0  0  0
   12.2046   -7.9922    0.0000 O   0  0  0  0  0  0  0  0  0  0  0  0
   13.2666   -7.0360    0.0000 O   0  0  0  0  0  0  0  0  0  0  0  0
   12.4596   -7.2076    0.0000 C   0  0  2  0  0  0  0  0  0  0  0  0
   11.9076   -6.5945    0.0000 C   0  0  1  0  0  0  0  0  0  0  0  0
   12.1625   -5.8099    0.0000 C   0  0  2  0  0  0  0  0  0  0  0  0
   12.9695   -5.6383    0.0000 C   0  0  1  0  0  0  0  0  0  0  0  0
   13.5215   -6.2514    0.0000 C   0  0  1  0  0  0  0  0  0  0  0  0
   14.3285   -6.0799    0.0000 C   0  0  0  0  0  0  0  0  0  0  0  0
   14.8805   -6.6930    0.0000 O   0  0  0  0  0  0  0  0  0  0  0  0
   13.2244   -4.8537    0.0000 O   0  0  0  0  0  0  0  0  0  0  0  0
   11.6105   -5.1968    0.0000 O   0  0  0  0  0  0  0  0  0  0  0  0
   11.1006   -6.7660    0.0000 O   0  0  0  0  0  0  0  0  0  0  0  0
   11.6948   -9.5614    0.0000 O   0  0  0  0  0  0  0  0  0  0  0  0
   12.7988  -10.7876    0.0000 C   0  0  0  0  0  0  0  0  0  0  0  0
   11.9919  -10.9592    0.0000 C   0  0  0  0  0  0  0  0  0  0  0  0
   11.4398  -10.3461    0.0000 C   0  0  1  0  0  0  0  0  0  0  0  0
   10.6329  -10.5176    0.0000 C   0  0  0  0  0  0  0  0  0  0  0  0
   10.3779  -11.3022    0.0000 C   0  0  0  0  0  0  0  0  0  0  0  0
    9.5709  -11.4737    0.0000 C   0  0  0  0  0  0  0  0  0  0  0  0
    9.0189  -10.8606    0.0000 C   0  0  0  0  0  0  0  0  0  0  0  0
   11.7369  -11.7438    0.0000 C   0  0  0  0  0  0  0  0  0  0  0  0
    5.6735  -13.3383    0.0000 C   0  0  0  0  0  0  0  0  0  0  0  0
    4.9590  -13.7508    0.0000 C   0  0  0  0  0  0  0  0  0  0  0  0
    4.9590  -14.5758    0.0000 C   0  0  1  0  0  0  0  0  0  0  0  0
    5.6735  -14.9883    0.0000 C   0  0  0  0  0  0  0  0  0  0  0  0
    6.3880  -14.5758    0.0000 C   0  0  0  0  0  0  0  0  0  0  0  0
    7.1024  -14.9883    0.0000 C   0  0  0  0  0  0  0  0  0  0  0  0
    7.8169  -14.5758    0.0000 C   0  0  0  0  0  0  0  0  0  0  0  0
    7.8169  -13.7508    0.0000 C   0  0  1  0  0  0  0  0  0  0  0  0
    8.5314  -13.3383    0.0000 C   0  0  1  0  0  0  0  0  0  0  0  0
    9.3160  -13.5932    0.0000 C   0  0  0  0  0  0  0  0  0  0  0  0
    9.8009  -12.9258    0.0000 C   0  0  0  0  0  0  0  0  0  0  0  0
    9.3160  -12.2584    0.0000 C   0  0  2  0  0  0  0  0  0  0  0  0
    8.5314  -12.5133    0.0000 C   0  0  1  0  0  0  0  0  0  0  0  0
    7.8169  -12.1008    0.0000 C   0  0  0  0  0  0  0  0  0  0  0  0
    7.1024  -12.5133    0.0000 C   0  0  0  0  0  0  0  0  0  0  0  0
    7.1024  -13.3383    0.0000 C   0  0  2  0  0  0  0  0  0  0  0  0
    6.3880  -13.7508    0.0000 C   0  0  2  0  0  0  0  0  0  0  0  0
    4.2446  -14.9883    0.0000 O   0  0  0  0  0  0  0  0  0  0  0  0
    2.8156  -14.9883    0.0000 O   0  0  0  0  0  0  0  0  0  0  0  0
    3.5301  -14.5758    0.0000 C   0  0  2  0  0  0  0  0  0  0  0  0
    3.5301  -13.7508    0.0000 C   0  0  2  0  0  0  0  0  0  0  0  0
    2.8156  -13.3383    0.0000 C   0  0  2  0  0  0  0  0  0  0  0  0
    2.1011  -13.7508    0.0000 C   0  0  1  0  0  0  0  0  0  0  0  0
    2.1011  -14.5758    0.0000 C   0  0  2  0  0  0  0  0  0  0  0  0
    1.3867  -14.9883    0.0000 C   0  0  0  0  0  0  0  0  0  0  0  0
    0.6722  -14.5758    0.0000 O   0  0  0  0  0  0  0  0  0  0  0  0
    1.3867  -13.3383    0.0000 O   0  0  0  0  0  0  0  0  0  0  0  0
    2.8156  -12.5133    0.0000 O   0  0  0  0  0  0  0  0  0  0  0  0
    4.2446  -13.3383    0.0000 O   0  0  0  0  0  0  0  0  0  0  0  0
    8.5314  -14.1633    0.0000 C   0  0  0  0  0  0  0  0  0  0  0  0
    8.6176  -11.6928    0.0000 C   0  0  0  0  0  0  0  0  0  0  0  0
    7.1024  -14.1633    0.0000 C   0  0  0  0  0  0  0  0  0  0  0  0
    6.0860  -15.7028    0.0000 C   0  0  0  0  0  0  0  0  0  0  0  0
    5.2610  -15.7028    0.0000 C   0  0  0  0  0  0  0  0  0  0  0  0
    6.3880  -12.1008    0.0000 O   0  0  0  0  0  0  0  0  0  0  0  0
   12.5439  -11.5723    0.0000 O   0  0  0  0  0  0  0  0  0  0  0  0
   13.8186   -7.6491    0.0000 O   0  0  0  0  0  0  0  0  0  0  0  0
   14.9227   -8.8753    0.0000 O   0  0  0  0  0  0  0  0  0  0  0  0
    7.8169  -12.9258    0.0000 H   0  0  0  0  0  0  0  0  0  0  0  0
    6.3880  -12.9258    0.0000 H   0  0  0  0  0  0  0  0  0  0  0  0
  1  2  1  0  0  0  0
  2  3  1  0  0  0  0
  3  4  1  0  0  0  0
  4  5  1  0  0  0  0
  5  6  1  0  0  0  0
  1  6  1  0  0  0  0
  3  7  1  0  0  0  0
  4  8  1  6  0  0  0
  5  9  1  1  0  0  0
 10 11  1  0  0  0  0
  6 10  1  1  0  0  0
 12 13  1  0  0  0  0
 14 15  1  0  0  0  0
 15 16  1  0  0  0  0
 16 17  1  0  0  0  0
 17 18  1  0  0  0  0
 18 19  1  0  0  0  0
 14 19  1  0  0  0  0
 21 22  1  0  0  0  0
 22 23  1  0  0  0  0
 23 24  1  0  0  0  0
 24 25  1  0  0  0  0
 25 26  1  0  0  0  0
 21 26  1  0  0  0  0
 27 28  1  0  0  0  0
 26 27  1  1  0  0  0
 25 29  1  6  0  0  0
 24 30  1  1  0  0  0
 23 31  1  6  0  0  0
 22 20  1  1  0  0  0
 18 20  1  0  0  0  0
 33 34  1  0  0  0  0
 34 35  1  0  0  0  0
 35 36  1  0  0  0  0
 36 37  1  0  0  0  0
 37 38  1  0  0  0  0
 38 39  1  0  0  0  0
 34 40  1  0  0  0  0
 41 42  1  0  0  0  0
 42 43  1  0  0  0  0
 43 44  1  0  0  0  0
 44 45  1  0  0  0  0
 45 46  2  0  0  0  0
 46 47  1  0  0  0  0
 47 48  1  0  0  0  0
 48 49  1  0  0  0  0
 49 50  1  0  0  0  0
 50 51  1  0  0  0  0
 52 51  1  6  0  0  0
 52 53  1  0  0  0  0
 49 53  1  0  0  0  0
 53 54  1  0  0  0  0
 54 55  1  0  0  0  0
 55 56  1  0  0  0  0
 48 56  1  0  0  0  0
 56 57  1  0  0  0  0
 45 57  1  0  0  0  0
 41 57  1  0  0  0  0
 59 60  1  0  0  0  0
 60 61  1  0  0  0  0
 61 62  1  0  0  0  0
 62 63  1  0  0  0  0
 63 64  1  0  0  0  0
 59 64  1  0  0  0  0
 65 66  1  0  0  0  0
 64 65  1  1  0  0  0
 63 67  1  1  0  0  0
 62 68  1  6  0  0  0
 61 69  1  6  0  0  0
 60 58  1  6  0  0  0
 43 58  1  1  0  0  0
 49 70  1  1  0  0  0
 53 71  1  1  0  0  0
 56 72  1  6  0  0  0
 44 73  1  0  0  0  0
 44 74  1  0  0  0  0
 55 75  1  0  0  0  0
 38 52  1  0  0  0  0
 34 76  1  0  0  0  0
 35 32  1  1  0  0  0
 19 32  1  1  0  0  0
 17 77  1  1  0  0  0
 16 78  1  6  0  0  0
 15 13  1  6  0  0  0
  2 12  1  6  0  0  0
 48 79  1  1  0  0  0
 57 80  1  6  0  0  0
M  END
>  <cdx:groupId>
17202

>  <cdx:fragmentId>
17038

$$$$
