26975.cdx
  Mrv1902 05222410192D          

 12 12  0  0  0  0            999 V2000
    6.7748   -2.3647    0.0000 C   0  0  0  0  0  0  0  0  0  0  0  0
    6.7748   -3.1897    0.0000 C   0  0  0  0  0  0  0  0  0  0  0  0
    6.0603   -3.6022    0.0000 C   0  0  0  0  0  0  0  0  0  0  0  0
    5.3459   -3.1897    0.0000 C   0  0  0  0  0  0  0  0  0  0  0  0
    5.3459   -2.3647    0.0000 C   0  0  0  0  0  0  0  0  0  0  0  0
    6.0603   -1.9522    0.0000 C   0  0  0  0  0  0  0  0  0  0  0  0
    7.4893   -1.9522    0.0000 O   0  0  0  0  0  0  0  0  0  0  0  0
    4.6314   -3.6022    0.0000 C   0  0  0  0  0  0  0  0  0  0  0  0
    3.9169   -3.1897    0.0000 C   0  0  0  0  0  0  0  0  0  0  0  0
    3.2024   -3.6022    0.0000 C   0  0  0  0  0  0  0  0  0  0  0  0
    2.4880   -3.1897    0.0000 C   0  0  0  0  0  0  0  0  0  0  0  0
    1.7735   -3.6022    0.0000 C   0  0  0  0  0  0  0  0  0  0  0  0
  1  2  1  0  0  0  0
  2  3  2  0  0  0  0
  3  4  1  0  0  0  0
  4  5  2  0  0  0  0
  5  6  1  0  0  0  0
  1  6  2  0  0  0  0
  1  7  1  0  0  0  0
  8  9  1  0  0  0  0
  9 10  1  0  0  0  0
 10 11  1  0  0  0  0
 11 12  1  0  0  0  0
  4  8  1  0  0  0  0
M  END
>  <cdx:groupId>
38

>  <cdx:fragmentId>
5

$$$$
