11269868.cdx
  Mrv1902 05222410202D          

 32 35  0  0  0  0            999 V2000
    5.6746  -13.4086    0.0000 C   0  0  0  0  0  0  0  0  0  0  0  0
    5.3925  -12.6333    0.0000 C   0  0  0  0  0  0  0  0  0  0  0  0
    6.4871  -13.5518    0.0000 O   0  0  0  0  0  0  0  0  0  0  0  0
    5.1443  -14.0406    0.0000 O   0  0  0  0  0  0  0  0  0  0  0  0
    6.4927  -14.8957    0.0000 C   0  0  1  0  0  0  0  0  0  0  0  0
    7.0071  -14.2507    0.0000 C   0  0  0  0  0  0  0  0  0  0  0  0
    7.8321  -14.2507    0.0000 C   0  0  2  0  0  0  0  0  0  0  0  0
    8.3465  -14.8957    0.0000 C   0  0  2  0  0  0  0  0  0  0  0  0
    9.1681  -14.8218    0.0000 C   0  0  0  0  0  0  0  0  0  0  0  0
    9.4924  -15.5804    0.0000 C   0  0  2  0  0  0  0  0  0  0  0  0
    8.8711  -16.1232    0.0000 C   0  0  2  0  0  0  0  0  0  0  0  0
    8.1629  -15.7000    0.0000 C   0  0  1  0  0  0  0  0  0  0  0  0
    7.4196  -16.0580    0.0000 C   0  0  0  0  0  0  0  0  0  0  0  0
    6.6763  -15.7000    0.0000 C   0  0  2  0  0  0  0  0  0  0  0  0
    6.1619  -16.3451    0.0000 C   0  0  0  0  0  0  0  0  0  0  0  0
    5.3369  -16.3451    0.0000 C   0  0  0  0  0  0  0  0  0  0  0  0
    4.8225  -15.7000    0.0000 C   0  0  1  0  0  0  0  0  0  0  0  0
    5.0061  -14.8957    0.0000 C   0  0  2  0  0  0  0  0  0  0  0  0
    5.7494  -14.5378    0.0000 C   0  0  0  0  0  0  0  0  0  0  0  0
    5.4265  -14.8158    0.0000 C   0  0  1  0  0  0  0  0  0  0  0  0
    7.4196  -16.8830    0.0000 C   0  0  0  0  0  0  0  0  0  0  0  0
    4.7047  -14.1278    0.0000 C   0  0  0  0  0  0  0  0  0  0  0  0
    9.1681  -13.9968    0.0000 C   0  0  0  0  0  0  0  0  0  0  0  0
    9.8826  -14.4093    0.0000 C   0  0  0  0  0  0  0  0  0  0  0  0
    4.1903  -14.7728    0.0000 O   0  0  0  0  0  0  0  0  0  0  0  0
    8.9450  -16.9449    0.0000 O   0  0  0  0  0  0  0  0  0  0  0  0
   10.2967  -15.7640    0.0000 O   0  0  0  0  0  0  0  0  0  0  0  0
    8.6707  -14.1371    0.0000 O   0  0  0  0  0  0  0  0  0  0  0  0
    8.2446  -13.5363    0.0000 O   0  0  0  0  0  0  0  0  0  0  0  0
    8.1629  -16.5250    0.0000 H   0  0  0  0  0  0  0  0  0  0  0  0
    6.8599  -16.5044    0.0000 H   0  0  0  0  0  0  0  0  0  0  0  0
    4.0182  -15.8836    0.0000 H   0  0  0  0  0  0  0  0  0  0  0  0
  1  2  1  0  0  0  0
  1  3  2  0  0  0  0
  1  4  1  0  0  0  0
  5  6  1  0  0  0  0
  6  7  1  0  0  0  0
  7  8  1  0  0  0  0
  8  9  1  0  0  0  0
  9 10  1  0  0  0  0
 10 11  1  0  0  0  0
 11 12  1  0  0  0  0
 12 13  1  0  0  0  0
 13 14  1  0  0  0  0
 14 15  1  0  0  0  0
 15 16  1  0  0  0  0
 16 17  1  0  0  0  0
 17 18  1  0  0  0  0
 18 19  1  0  0  0  0
  5 19  1  1  0  0  0
  5 20  1  0  0  0  0
 20 17  1  0  0  0  0
  5 14  1  0  0  0  0
  8 12  1  0  0  0  0
 13 21  2  0  0  0  0
 18 22  1  1  0  0  0
  9 23  1  0  0  0  0
  9 24  1  0  0  0  0
 18 25  1  6  0  0  0
 11 26  1  1  0  0  0
 10 27  1  1  0  0  0
  8 28  1  1  0  0  0
  7 29  1  1  0  0  0
 20  4  1  1  0  0  0
 12 30  1  6  0  0  0
 14 31  1  1  0  0  0
 17 32  1  6  0  0  0
M  END
>  <cdx:groupId>
68938

>  <cdx:fragmentId>
68850

$$$$
