270628.cdx
  Mrv1902 05222410232D          

 35 39  0  0  0  0            999 V2000
    9.2589   -6.3951    0.0000 C   0  0  1  0  0  0  0  0  0  0  0  0
    9.9734   -6.8076    0.0000 C   0  0  1  0  0  0  0  0  0  0  0  0
    9.9734   -7.6326    0.0000 C   0  0  0  0  0  0  0  0  0  0  0  0
    9.2589   -8.0451    0.0000 C   0  0  0  0  0  0  0  0  0  0  0  0
    8.5445   -7.6326    0.0000 C   0  0  1  0  0  0  0  0  0  0  0  0
    7.8300   -8.0451    0.0000 C   0  0  2  0  0  0  0  0  0  0  0  0
    7.8300   -8.8701    0.0000 C   0  0  0  0  0  0  0  0  0  0  0  0
    7.1155   -9.2826    0.0000 C   0  0  0  0  0  0  0  0  0  0  0  0
    6.4011   -8.8701    0.0000 C   0  0  1  0  0  0  0  0  0  0  0  0
    5.6866   -9.2826    0.0000 C   0  0  0  0  0  0  0  0  0  0  0  0
    4.9721   -8.8701    0.0000 C   0  0  1  0  0  0  0  0  0  0  0  0
    4.9721   -8.0451    0.0000 C   0  0  0  0  0  0  0  0  0  0  0  0
    5.6866   -7.6326    0.0000 C   0  0  0  0  0  0  0  0  0  0  0  0
    6.4011   -8.0451    0.0000 C   0  0  2  0  0  0  0  0  0  0  0  0
    7.1155   -7.6326    0.0000 C   0  0  1  0  0  0  0  0  0  0  0  0
    7.1155   -6.8076    0.0000 C   0  0  0  0  0  0  0  0  0  0  0  0
    7.8300   -6.3951    0.0000 C   0  0  0  0  0  0  0  0  0  0  0  0
    8.5445   -6.8076    0.0000 C   0  0  2  0  0  0  0  0  0  0  0  0
   10.5865   -6.2556    0.0000 C   0  0  0  0  0  0  0  0  0  0  0  0
   10.2510   -5.5019    0.0000 C   0  0  0  0  0  0  0  0  0  0  0  0
    9.4305   -5.5881    0.0000 C   0  0  1  0  0  0  0  0  0  0  0  0
    4.2576   -9.2826    0.0000 O   0  0  0  0  0  0  0  0  0  0  0  0
    9.1334   -4.1904    0.0000 C   0  0  0  0  0  0  0  0  0  0  0  0
    8.8784   -4.9750    0.0000 C   0  0  0  0  0  0  0  0  0  0  0  0
    8.0715   -5.1466    0.0000 C   0  0  0  0  0  0  0  0  0  0  0  0
    6.4011   -7.2201    0.0000 C   0  0  0  0  0  0  0  0  0  0  0  0
    6.0991   -9.9971    0.0000 C   0  0  0  0  0  0  0  0  0  0  0  0
    5.2741   -9.9971    0.0000 C   0  0  0  0  0  0  0  0  0  0  0  0
    7.8300   -7.2201    0.0000 C   0  0  0  0  0  0  0  0  0  0  0  0
    8.5445   -8.4576    0.0000 C   0  0  0  0  0  0  0  0  0  0  0  0
   10.7271   -7.1432    0.0000 C   0  0  0  0  0  0  0  0  0  0  0  0
    6.4011   -9.6951    0.0000 H   0  0  0  0  0  0  0  0  0  0  0  0
    7.1155   -8.4576    0.0000 H   0  0  0  0  0  0  0  0  0  0  0  0
    8.5445   -5.9826    0.0000 H   0  0  0  0  0  0  0  0  0  0  0  0
    9.2589   -7.2201    0.0000 H   0  0  0  0  0  0  0  0  0  0  0  0
  1  2  1  0  0  0  0
  2  3  1  0  0  0  0
  3  4  1  0  0  0  0
  4  5  1  0  0  0  0
  5  6  1  0  0  0  0
  6  7  1  0  0  0  0
  7  8  1  0  0  0  0
  8  9  1  0  0  0  0
  9 10  1  0  0  0  0
 10 11  1  0  0  0  0
 11 12  1  0  0  0  0
 12 13  1  0  0  0  0
 13 14  1  0  0  0  0
  9 14  1  0  0  0  0
 14 15  1  0  0  0  0
  6 15  1  0  0  0  0
 15 16  1  0  0  0  0
 16 17  1  0  0  0  0
 17 18  1  0  0  0  0
  5 18  1  0  0  0  0
  1 18  1  0  0  0  0
 19 20  1  0  0  0  0
 20 21  1  0  0  0  0
 21  1  1  0  0  0  0
 19  2  1  0  0  0  0
 11 22  1  6  0  0  0
 23 24  2  0  0  0  0
 24 25  1  0  0  0  0
 21 24  1  6  0  0  0
 14 26  1  1  0  0  0
 10 27  1  0  0  0  0
 10 28  1  0  0  0  0
  6 29  1  1  0  0  0
  5 30  1  6  0  0  0
  2 31  1  1  0  0  0
  9 32  1  6  0  0  0
 15 33  1  6  0  0  0
 18 34  1  1  0  0  0
  1 35  1  6  0  0  0
M  END
>  <cdx:fragmentId>
6504

$$$$
