271805.cdx
  Mrv1902 05222410262D          

 42 47  0  0  0  0            999 V2000
    6.4026   -8.8646    0.0000 C   0  0  0  0  0  0  0  0  0  0  0  0
    6.3924   -8.0397    0.0000 C   0  0  0  0  0  0  0  0  0  0  0  0
    5.6728   -7.6361    0.0000 C   0  0  0  0  0  0  0  0  0  0  0  0
    4.9635   -8.0574    0.0000 C   0  0  0  0  0  0  0  0  0  0  0  0
    4.9738   -8.8824    0.0000 C   0  0  0  0  0  0  0  0  0  0  0  0
    5.6934   -9.2860    0.0000 C   0  0  0  0  0  0  0  0  0  0  0  0
    5.6626   -6.8111    0.0000 C   0  0  0  0  0  0  0  0  0  0  0  0
    4.9430   -6.4076    0.0000 C   0  0  0  0  0  0  0  0  0  0  0  0
    4.9327   -5.5826    0.0000 C   0  0  0  0  0  0  0  0  0  0  0  0
    5.6420   -5.1613    0.0000 C   0  0  0  0  0  0  0  0  0  0  0  0
    6.3616   -5.5648    0.0000 C   0  0  0  0  0  0  0  0  0  0  0  0
    6.3718   -6.3898    0.0000 C   0  0  0  0  0  0  0  0  0  0  0  0
    7.0708   -5.1435    0.0000 C   0  0  0  0  0  0  0  0  0  0  0  0
    7.7904   -5.5471    0.0000 C   0  0  0  0  0  0  0  0  0  0  0  0
    7.8007   -6.3720    0.0000 C   0  0  0  0  0  0  0  0  0  0  0  0
    7.0914   -6.7934    0.0000 O   0  0  0  0  0  0  0  0  0  0  0  0
    4.2337   -6.8289    0.0000 O   0  0  0  0  0  0  0  0  0  0  0  0
    5.6317   -4.3363    0.0000 O   0  0  0  0  0  0  0  0  0  0  0  0
    7.0606   -4.3186    0.0000 O   0  0  0  0  0  0  0  0  0  0  0  0
    8.5202   -6.7756    0.0000 C   0  0  0  0  0  0  0  0  0  0  0  0
    4.2440   -7.6539    0.0000 O   0  0  0  0  0  0  0  0  0  0  0  0
    3.5347   -8.0752    0.0000 C   0  0  0  0  0  0  0  0  0  0  0  0
    7.1222   -9.2682    0.0000 C   0  0  0  0  0  0  0  0  0  0  0  0
    7.1325  -10.0931    0.0000 O   0  0  0  0  0  0  0  0  0  0  0  0
    7.8520  -10.4967    0.0000 C   0  0  0  0  0  0  0  0  0  0  0  0
    8.5613  -10.0753    0.0000 C   0  0  0  0  0  0  0  0  0  0  0  0
    8.5510   -9.2504    0.0000 C   0  0  0  0  0  0  0  0  0  0  0  0
    7.8315   -8.8468    0.0000 C   0  0  0  0  0  0  0  0  0  0  0  0
    7.8623  -11.3216    0.0000 C   0  0  0  0  0  0  0  0  0  0  0  0
    8.5818  -11.7252    0.0000 C   0  0  0  0  0  0  0  0  0  0  0  0
    9.2911  -11.3038    0.0000 C   0  0  0  0  0  0  0  0  0  0  0  0
    9.2808  -10.4789    0.0000 C   0  0  0  0  0  0  0  0  0  0  0  0
    9.2295   -6.3542    0.0000 C   0  0  0  0  0  0  0  0  0  0  0  0
    9.9491   -6.7578    0.0000 C   0  0  0  0  0  0  0  0  0  0  0  0
    9.9593   -7.5827    0.0000 C   0  0  0  0  0  0  0  0  0  0  0  0
    9.2500   -8.0041    0.0000 C   0  0  0  0  0  0  0  0  0  0  0  0
    8.5305   -7.6005    0.0000 C   0  0  0  0  0  0  0  0  0  0  0  0
   10.6789   -7.9863    0.0000 O   0  0  0  0  0  0  0  0  0  0  0  0
    9.2603   -8.8290    0.0000 O   0  0  0  0  0  0  0  0  0  0  0  0
    9.9901  -10.0575    0.0000 O   0  0  0  0  0  0  0  0  0  0  0  0
    8.5921  -12.5501    0.0000 O   0  0  0  0  0  0  0  0  0  0  0  0
    9.3117  -12.9537    0.0000 C   0  0  0  0  0  0  0  0  0  0  0  0
  1  2  1  0  0  0  0
  2  3  2  0  0  0  0
  3  4  1  0  0  0  0
  4  5  2  0  0  0  0
  5  6  1  0  0  0  0
  6  1  2  0  0  0  0
  3  7  1  0  0  0  0
  7  8  2  0  0  0  0
  8  9  1  0  0  0  0
  9 10  2  0  0  0  0
 10 11  1  0  0  0  0
 11 12  2  0  0  0  0
 12  7  1  0  0  0  0
 11 13  1  0  0  0  0
 13 14  1  0  0  0  0
 14 15  2  0  0  0  0
 15 16  1  0  0  0  0
 16 12  1  0  0  0  0
  8 17  1  0  0  0  0
 10 18  1  0  0  0  0
 13 19  2  0  0  0  0
 15 20  1  0  0  0  0
  4 21  1  0  0  0  0
 21 22  1  0  0  0  0
  1 23  1  0  0  0  0
 23 24  1  0  0  0  0
 24 25  1  0  0  0  0
 25 26  2  0  0  0  0
 26 27  1  0  0  0  0
 27 28  1  0  0  0  0
 28 23  2  0  0  0  0
 25 29  1  0  0  0  0
 29 30  2  0  0  0  0
 30 31  1  0  0  0  0
 31 32  2  0  0  0  0
 32 26  1  0  0  0  0
 20 33  2  0  0  0  0
 33 34  1  0  0  0  0
 34 35  2  0  0  0  0
 35 36  1  0  0  0  0
 36 37  2  0  0  0  0
 37 20  1  0  0  0  0
 35 38  1  0  0  0  0
 27 39  2  0  0  0  0
 32 40  1  0  0  0  0
 30 41  1  0  0  0  0
 41 42  1  0  0  0  0
M  END
>  <cdx:fragmentId>
6622

$$$$
