5271984.cdx
  Mrv1902 05222410192D          

 22 25  0  0  0  0            999 V2000
   15.4686   -7.7075    0.0000 C   0  0  2  0  0  0  0  0  0  0  0  0
   14.7545   -8.1208    0.0000 C   0  0  1  0  0  0  0  0  0  0  0  0
   14.0399   -7.7085    0.0000 C   0  0  0  0  0  0  0  0  0  0  0  0
   13.3255   -8.1212    0.0000 C   0  0  0  0  0  0  0  0  0  0  0  0
   13.3258   -8.9462    0.0000 C   0  0  0  0  0  0  0  0  0  0  0  0
   14.0404   -9.3585    0.0000 C   0  0  0  0  0  0  0  0  0  0  0  0
   14.7548   -8.9458    0.0000 N   0  0  0  0  0  0  0  0  0  0  0  0
   15.4691   -9.3585    0.0000 C   0  0  0  0  0  0  0  0  0  0  0  0
   16.1830   -8.9450    0.0000 C   0  0  1  0  0  0  0  0  0  0  0  0
   16.8975   -9.3575    0.0000 C   0  0  0  0  0  0  0  0  0  0  0  0
   17.6120   -8.9450    0.0000 C   0  0  0  0  0  0  0  0  0  0  0  0
   17.6120   -8.1200    0.0000 C   0  0  0  0  0  0  0  0  0  0  0  0
   16.8975   -7.7075    0.0000 N   0  0  0  0  0  0  0  0  0  0  0  0
   16.8975   -6.8825    0.0000 C   0  0  0  0  0  0  0  0  0  0  0  0
   16.1830   -6.4700    0.0000 C   0  0  0  0  0  0  0  0  0  0  0  0
   15.4686   -6.8825    0.0000 C   0  0  0  0  0  0  0  0  0  0  0  0
   16.1830   -8.1200    0.0000 C   0  0  1  0  0  0  0  0  0  0  0  0
   14.0404  -10.1835    0.0000 O   0  0  0  0  0  0  0  0  0  0  0  0
   15.4686   -8.5325    0.0000 H   0  0  0  0  0  0  0  0  0  0  0  0
   14.7545   -7.2958    0.0000 H   0  0  0  0  0  0  0  0  0  0  0  0
   16.1830   -9.7700    0.0000 H   0  0  0  0  0  0  0  0  0  0  0  0
   16.1830   -7.2950    0.0000 H   0  0  0  0  0  0  0  0  0  0  0  0
  1  2  1  0  0  0  0
  2  3  1  0  0  0  0
  3  4  1  0  0  0  0
  4  5  1  0  0  0  0
  5  6  1  0  0  0  0
  6  7  1  0  0  0  0
  7  8  1  0  0  0  0
  8  9  1  0  0  0  0
  9 10  1  0  0  0  0
 10 11  1  0  0  0  0
 11 12  1  0  0  0  0
 12 13  1  0  0  0  0
 13 14  1  0  0  0  0
 14 15  1  0  0  0  0
 15 16  1  0  0  0  0
  1 16  1  0  0  0  0
  1 17  1  0  0  0  0
 17  9  1  0  0  0  0
  2  7  1  0  0  0  0
 13 17  1  0  0  0  0
  6 18  2  0  0  0  0
  1 19  1  1  0  0  0
  2 20  1  1  0  0  0
  9 21  1  1  0  0  0
 17 22  1  1  0  0  0
M  END
>  <cdx:groupId>
6793

>  <cdx:fragmentId>
6727

$$$$
