272.cdx
  Mrv1902 05222410192D          

 25 28  0  0  0  0            999 V2000
    4.1884   -6.9897    0.0000 C   0  0  0  0  0  0  0  0  0  0  0  0
    4.1884   -7.8147    0.0000 C   0  0  2  0  0  0  0  0  0  0  0  0
    4.9029   -8.2272    0.0000 C   0  0  0  0  0  0  0  0  0  0  0  0
    5.6173   -7.8147    0.0000 C   0  0  1  0  0  0  0  0  0  0  0  0
    5.6173   -6.9897    0.0000 C   0  0  2  0  0  0  0  0  0  0  0  0
    4.9029   -6.5772    0.0000 C   0  0  0  0  0  0  0  0  0  0  0  0
    6.3318   -8.2272    0.0000 C   0  0  0  0  0  0  0  0  0  0  0  0
    7.0463   -7.8147    0.0000 C   0  0  0  0  0  0  0  0  0  0  0  0
    7.0463   -6.9897    0.0000 C   0  0  2  0  0  0  0  0  0  0  0  0
    6.3318   -6.5772    0.0000 C   0  0  2  0  0  0  0  0  0  0  0  0
    7.7608   -6.5772    0.0000 C   0  0  1  0  0  0  0  0  0  0  0  0
    7.7608   -5.7522    0.0000 C   0  0  2  0  0  0  0  0  0  0  0  0
    7.0463   -5.3397    0.0000 C   0  0  0  0  0  0  0  0  0  0  0  0
    6.3318   -5.7522    0.0000 C   0  0  0  0  0  0  0  0  0  0  0  0
    8.5454   -6.8321    0.0000 C   0  0  0  0  0  0  0  0  0  0  0  0
    9.0303   -6.1647    0.0000 C   0  0  0  0  0  0  0  0  0  0  0  0
    8.5454   -5.4972    0.0000 C   0  0  2  0  0  0  0  0  0  0  0  0
    5.6173   -6.1647    0.0000 C   0  0  0  0  0  0  0  0  0  0  0  0
    7.7608   -4.9272    0.0000 C   0  0  0  0  0  0  0  0  0  0  0  0
    8.7589   -4.7003    0.0000 O   0  0  0  0  0  0  0  0  0  0  0  0
    5.6173   -8.6397    0.0000 H   0  0  0  0  0  0  0  0  0  0  0  0
    3.4739   -8.2272    0.0000 O   0  0  0  0  0  0  0  0  0  0  0  0
    6.3318   -7.4022    0.0000 H   0  0  0  0  0  0  0  0  0  0  0  0
    7.0463   -6.1647    0.0000 H   0  0  0  0  0  0  0  0  0  0  0  0
    7.7608   -7.4022    0.0000 H   0  0  0  0  0  0  0  0  0  0  0  0
  1  2  1  0  0  0  0
  2  3  1  0  0  0  0
  3  4  1  0  0  0  0
  4  5  1  0  0  0  0
  5  6  1  0  0  0  0
  6  1  1  0  0  0  0
  4  7  1  0  0  0  0
  7  8  1  0  0  0  0
  8  9  1  0  0  0  0
  9 10  1  0  0  0  0
 10  5  1  0  0  0  0
  9 11  1  0  0  0  0
 11 12  1  0  0  0  0
 12 13  1  0  0  0  0
 13 14  1  0  0  0  0
 14 10  1  0  0  0  0
 11 15  1  0  0  0  0
 15 16  1  0  0  0  0
 16 17  1  0  0  0  0
 17 12  1  0  0  0  0
  5 18  1  1  0  0  0
 12 19  1  1  0  0  0
 17 20  1  1  0  0  0
  4 21  1  6  0  0  0
  2 22  1  6  0  0  0
 10 23  1  6  0  0  0
  9 24  1  1  0  0  0
 11 25  1  6  0  0  0
M  END
>  <cdx:fragmentId>
5

$$$$
