45272283.cdx
  Mrv1902 05222410182D          

 82 90  0  0  0  0            999 V2000
    1.7506  -13.6492    0.0000 C   0  0  0  0  0  0  0  0  0  0  0  0
    1.0362  -14.0617    0.0000 C   0  0  0  0  0  0  0  0  0  0  0  0
    1.0362  -14.8867    0.0000 C   0  0  1  0  0  0  0  0  0  0  0  0
    1.7506  -15.2992    0.0000 C   0  0  2  0  0  0  0  0  0  0  0  0
    2.4651  -14.8867    0.0000 C   0  0  2  0  0  0  0  0  0  0  0  0
    3.1796  -15.2992    0.0000 C   0  0  0  0  0  0  0  0  0  0  0  0
    3.8941  -14.8867    0.0000 C   0  0  0  0  0  0  0  0  0  0  0  0
    3.8941  -14.0617    0.0000 C   0  0  1  0  0  0  0  0  0  0  0  0
    4.6085  -13.6492    0.0000 C   0  0  2  0  0  0  0  0  0  0  0  0
    5.3230  -14.0617    0.0000 C   0  0  0  0  0  0  0  0  0  0  0  0
    6.0375  -13.6492    0.0000 C   0  0  0  0  0  0  0  0  0  0  0  0
    6.0375  -12.8242    0.0000 C   0  0  1  0  0  0  0  0  0  0  0  0
    6.7519  -12.4117    0.0000 C   0  0  0  0  0  0  0  0  0  0  0  0
    6.7519  -11.5867    0.0000 C   0  0  0  0  0  0  0  0  0  0  0  0
    6.0375  -11.1742    0.0000 C   0  0  0  0  0  0  0  0  0  0  0  0
    5.3230  -11.5867    0.0000 C   0  0  0  0  0  0  0  0  0  0  0  0
    5.3230  -12.4117    0.0000 C   0  0  1  0  0  0  0  0  0  0  0  0
    4.6085  -12.8242    0.0000 C   0  0  0  0  0  0  0  0  0  0  0  0
    3.8941  -12.4117    0.0000 C   0  0  0  0  0  0  0  0  0  0  0  0
    3.1796  -12.8242    0.0000 C   0  0  0  0  0  0  0  0  0  0  0  0
    3.1796  -13.6492    0.0000 C   0  0  2  0  0  0  0  0  0  0  0  0
    2.4651  -14.0617    0.0000 C   0  0  1  0  0  0  0  0  0  0  0  0
    1.7506  -16.1242    0.0000 C   0  0  0  0  0  0  0  0  0  0  0  0
    2.4651  -16.5367    0.0000 O   0  0  0  0  0  0  0  0  0  0  0  0
    1.0362  -16.5367    0.0000 O   0  0  0  0  0  0  0  0  0  0  0  0
    2.4651  -13.2367    0.0000 C   0  0  0  0  0  0  0  0  0  0  0  0
    5.6250  -10.4598    0.0000 C   0  0  0  0  0  0  0  0  0  0  0  0
    6.4500  -10.4598    0.0000 C   0  0  0  0  0  0  0  0  0  0  0  0
    4.6085  -14.4742    0.0000 C   0  0  0  0  0  0  0  0  0  0  0  0
    3.8941  -13.2367    0.0000 C   0  0  0  0  0  0  0  0  0  0  0  0
    1.0362  -15.7117    0.0000 C   0  0  0  0  0  0  0  0  0  0  0  0
    0.3217  -15.2992    0.0000 O   0  0  0  0  0  0  0  0  0  0  0  0
    6.7519  -13.2367    0.0000 C   0  0  0  0  0  0  0  0  0  0  0  0
    6.7519  -14.0617    0.0000 O   0  0  0  0  0  0  0  0  0  0  0  0
    7.4664  -12.8242    0.0000 O   0  0  0  0  0  0  0  0  0  0  0  0
    8.1809  -14.0617    0.0000 O   0  0  0  0  0  0  0  0  0  0  0  0
    8.1809  -13.2367    0.0000 C   0  0  2  0  0  0  0  0  0  0  0  0
    8.8954  -12.8242    0.0000 C   0  0  1  0  0  0  0  0  0  0  0  0
    9.6098  -13.2367    0.0000 C   0  0  2  0  0  0  0  0  0  0  0  0
    9.6098  -14.0617    0.0000 C   0  0  1  0  0  0  0  0  0  0  0  0
    8.8954  -14.4742    0.0000 C   0  0  1  0  0  0  0  0  0  0  0  0
   10.3243  -12.8242    0.0000 O   0  0  0  0  0  0  0  0  0  0  0  0
   11.0388  -14.0617    0.0000 O   0  0  0  0  0  0  0  0  0  0  0  0
   11.0388  -13.2367    0.0000 C   0  0  2  0  0  0  0  0  0  0  0  0
   11.7532  -12.8242    0.0000 C   0  0  1  0  0  0  0  0  0  0  0  0
   12.4677  -13.2367    0.0000 C   0  0  2  0  0  0  0  0  0  0  0  0
   12.4677  -14.0617    0.0000 C   0  0  1  0  0  0  0  0  0  0  0  0
   11.7532  -14.4742    0.0000 C   0  0  1  0  0  0  0  0  0  0  0  0
   11.7532  -15.2992    0.0000 C   0  0  0  0  0  0  0  0  0  0  0  0
   12.4677  -15.7117    0.0000 O   0  0  0  0  0  0  0  0  0  0  0  0
   13.1822  -14.4742    0.0000 O   0  0  0  0  0  0  0  0  0  0  0  0
   13.1822  -12.8242    0.0000 O   0  0  0  0  0  0  0  0  0  0  0  0
   11.7532  -11.9992    0.0000 O   0  0  0  0  0  0  0  0  0  0  0  0
   10.3243  -14.4742    0.0000 O   0  0  0  0  0  0  0  0  0  0  0  0
    8.8954  -11.9992    0.0000 O   0  0  0  0  0  0  0  0  0  0  0  0
    8.8954  -15.2992    0.0000 C   0  0  0  0  0  0  0  0  0  0  0  0
    9.6098  -15.7117    0.0000 O   0  0  0  0  0  0  0  0  0  0  0  0
    8.8954  -16.9492    0.0000 O   0  0  0  0  0  0  0  0  0  0  0  0
    9.6098  -16.5367    0.0000 C   0  0  2  0  0  0  0  0  0  0  0  0
   10.3243  -16.9492    0.0000 C   0  0  1  0  0  0  0  0  0  0  0  0
   10.3243  -17.7742    0.0000 C   0  0  2  0  0  0  0  0  0  0  0  0
    9.6098  -18.1867    0.0000 C   0  0  1  0  0  0  0  0  0  0  0  0
    8.8954  -17.7742    0.0000 C   0  0  1  0  0  0  0  0  0  0  0  0
   11.2531  -16.4130    0.0000 O   0  0  0  0  0  0  0  0  0  0  0  0
   12.8964  -16.5367    0.0000 O   0  0  0  0  0  0  0  0  0  0  0  0
   12.1819  -16.9492    0.0000 C   0  0  2  0  0  0  0  0  0  0  0  0
   12.1819  -17.7742    0.0000 C   0  0  1  0  0  0  0  0  0  0  0  0
   12.8964  -18.1867    0.0000 C   0  0  2  0  0  0  0  0  0  0  0  0
   13.6109  -17.7742    0.0000 C   0  0  1  0  0  0  0  0  0  0  0  0
   13.6109  -16.9492    0.0000 C   0  0  1  0  0  0  0  0  0  0  0  0
   14.3253  -16.5367    0.0000 C   0  0  0  0  0  0  0  0  0  0  0  0
   15.0398  -16.9492    0.0000 O   0  0  0  0  0  0  0  0  0  0  0  0
   14.3253  -18.1867    0.0000 O   0  0  0  0  0  0  0  0  0  0  0  0
   12.8964  -19.0117    0.0000 O   0  0  0  0  0  0  0  0  0  0  0  0
   11.4674  -18.1867    0.0000 O   0  0  0  0  0  0  0  0  0  0  0  0
    8.1809  -18.1867    0.0000 C   0  0  0  0  0  0  0  0  0  0  0  0
    7.4664  -17.7742    0.0000 O   0  0  0  0  0  0  0  0  0  0  0  0
    9.6098  -19.0117    0.0000 O   0  0  0  0  0  0  0  0  0  0  0  0
   11.0388  -18.1867    0.0000 O   0  0  0  0  0  0  0  0  0  0  0  0
    2.4651  -15.7117    0.0000 H   0  0  0  0  0  0  0  0  0  0  0  0
    5.3230  -13.2367    0.0000 H   0  0  0  0  0  0  0  0  0  0  0  0
    3.1796  -14.4742    0.0000 H   0  0  0  0  0  0  0  0  0  0  0  0
  1  2  1  0  0  0  0
  2  3  1  0  0  0  0
  3  4  1  0  0  0  0
  4  5  1  0  0  0  0
  5  6  1  0  0  0  0
  6  7  1  0  0  0  0
  7  8  1  0  0  0  0
  8  9  1  0  0  0  0
  9 10  1  0  0  0  0
 10 11  1  0  0  0  0
 11 12  1  0  0  0  0
 12 13  1  0  0  0  0
 13 14  1  0  0  0  0
 14 15  1  0  0  0  0
 15 16  1  0  0  0  0
 16 17  1  0  0  0  0
 12 17  1  0  0  0  0
 17 18  1  0  0  0  0
  9 18  1  0  0  0  0
 18 19  2  0  0  0  0
 19 20  1  0  0  0  0
 20 21  1  0  0  0  0
  8 21  1  0  0  0  0
 21 22  1  0  0  0  0
  5 22  1  0  0  0  0
  1 22  1  0  0  0  0
 23 24  2  0  0  0  0
 23 25  1  0  0  0  0
  4 23  1  0  0  0  0
 22 26  1  1  0  0  0
 15 27  1  0  0  0  0
 15 28  1  0  0  0  0
  9 29  1  6  0  0  0
  8 30  1  1  0  0  0
  4 31  1  1  0  0  0
  3 32  1  1  0  0  0
 33 34  2  0  0  0  0
 36 37  1  0  0  0  0
 37 38  1  0  0  0  0
 38 39  1  0  0  0  0
 39 40  1  0  0  0  0
 40 41  1  0  0  0  0
 36 41  1  0  0  0  0
 43 44  1  0  0  0  0
 44 45  1  0  0  0  0
 45 46  1  0  0  0  0
 46 47  1  0  0  0  0
 47 48  1  0  0  0  0
 43 48  1  0  0  0  0
 49 50  1  0  0  0  0
 48 49  1  1  0  0  0
 47 51  1  6  0  0  0
 46 52  1  1  0  0  0
 45 53  1  6  0  0  0
 44 42  1  1  0  0  0
 39 42  1  1  0  0  0
 40 54  1  6  0  0  0
 38 55  1  6  0  0  0
 58 59  1  0  0  0  0
 59 60  1  0  0  0  0
 60 61  1  0  0  0  0
 61 62  1  0  0  0  0
 62 63  1  0  0  0  0
 58 63  1  0  0  0  0
 65 66  1  0  0  0  0
 66 67  1  0  0  0  0
 67 68  1  0  0  0  0
 68 69  1  0  0  0  0
 69 70  1  0  0  0  0
 65 70  1  0  0  0  0
 71 72  1  0  0  0  0
 70 71  1  6  0  0  0
 69 73  1  1  0  0  0
 68 74  1  6  0  0  0
 67 75  1  1  0  0  0
 66 64  1  6  0  0  0
 60 64  1  6  0  0  0
 76 77  1  0  0  0  0
 63 76  1  1  0  0  0
 62 78  1  6  0  0  0
 61 79  1  1  0  0  0
 59 57  1  1  0  0  0
 56 57  1  0  0  0  0
 41 56  1  1  0  0  0
 37 35  1  1  0  0  0
 33 35  1  0  0  0  0
 12 33  1  1  0  0  0
  5 80  1  6  0  0  0
 17 81  1  1  0  0  0
 21 82  1  6  0  0  0
M  END
>  <cdx:groupId>
172829

>  <cdx:fragmentId>
172706

$$$$
