2726.cdx
  Mrv1902 05222410252D          

 22 23  0  0  0  0            999 V2000
    3.6539   -7.6931    0.0000 C   0  0  0  0  0  0  0  0  0  0  0  0
    3.6539   -8.5181    0.0000 C   0  0  0  0  0  0  0  0  0  0  0  0
    4.3684   -8.9306    0.0000 C   0  0  1  0  0  0  0  0  0  0  0  0
    5.0828   -8.5181    0.0000 C   0  0  0  0  0  0  0  0  0  0  0  0
    5.0828   -7.6931    0.0000 C   0  0  2  0  0  0  0  0  0  0  0  0
    4.3684   -7.2806    0.0000 C   0  0  0  0  0  0  0  0  0  0  0  0
    5.7973   -8.9306    0.0000 C   0  0  0  0  0  0  0  0  0  0  0  0
    6.5118   -8.5181    0.0000 C   0  0  0  0  0  0  0  0  0  0  0  0
    6.5118   -7.6931    0.0000 C   0  0  0  0  0  0  0  0  0  0  0  0
    5.7973   -7.2806    0.0000 C   0  0  2  0  0  0  0  0  0  0  0  0
    7.2263   -7.2806    0.0000 C   0  0  0  0  0  0  0  0  0  0  0  0
    7.2263   -6.4556    0.0000 C   0  0  0  0  0  0  0  0  0  0  0  0
    6.5118   -6.0431    0.0000 C   0  0  0  0  0  0  0  0  0  0  0  0
    5.7973   -6.4556    0.0000 C   0  0  0  0  0  0  0  0  0  0  0  0
    8.6552   -6.4556    0.0000 C   0  0  0  0  0  0  0  0  0  0  0  0
    7.9407   -6.0431    0.0000 C   0  0  0  0  0  0  0  0  0  0  0  0
    7.2263   -5.6306    0.0000 C   0  0  0  0  0  0  0  0  0  0  0  0
    5.0828   -6.8681    0.0000 C   0  0  0  0  0  0  0  0  0  0  0  0
    3.9559   -9.6451    0.0000 C   0  0  0  0  0  0  0  0  0  0  0  0
    3.5434  -10.3596    0.0000 O   0  0  0  0  0  0  0  0  0  0  0  0
    4.7809   -9.6451    0.0000 C   0  0  0  0  0  0  0  0  0  0  0  0
    7.8096   -7.0390    0.0000 O   0  0  0  0  0  0  0  0  0  0  0  0
  1  2  1  0  0  0  0
  2  3  1  0  0  0  0
  3  4  1  0  0  0  0
  4  5  1  0  0  0  0
  5  6  1  0  0  0  0
  6  1  1  0  0  0  0
  4  7  1  0  0  0  0
  7  8  1  0  0  0  0
  8  9  1  0  0  0  0
  9 10  1  0  0  0  0
 10  5  1  0  0  0  0
  9 11  2  0  0  0  0
 12 13  1  0  0  0  0
 13 14  1  0  0  0  0
 10 14  1  1  0  0  0
 15 16  2  0  0  0  0
 16 12  1  0  0  0  0
 12 17  1  1  0  0  0
  5 18  1  1  0  0  0
  3 19  1  1  0  0  0
  3 21  1  6  0  0  0
 12 22  1  6  0  0  0
 19 20  2  0  0  0  0
M  STY  1   1 SUP
M  SAL   1  2  19  20
M  SBL   1  1  20
M  SMT   1 CHO
M  SAP   1  1  19   3  1
M  END
>  <cdx:fragmentId>
5

$$$$
