2727.cdx
  Mrv1902 05222410252D          

 26 29  0  0  0  0            999 V2000
    7.0403   -7.1902    0.0000 C   0  0  0  0  0  0  0  0  0  0  0  0
    7.7547   -6.7777    0.0000 N   0  3  0  0  0  0  0  0  0  0  0  0
    7.7547   -5.9527    0.0000 C   0  0  0  0  0  0  0  0  0  0  0  0
    7.0403   -5.5402    0.0000 C   0  0  0  0  0  0  0  0  0  0  0  0
    6.3258   -5.9527    0.0000 C   0  0  0  0  0  0  0  0  0  0  0  0
    5.6113   -5.5402    0.0000 C   0  0  0  0  0  0  0  0  0  0  0  0
    4.8969   -5.9527    0.0000 C   0  0  0  0  0  0  0  0  0  0  0  0
    4.8969   -6.7777    0.0000 C   0  0  0  0  0  0  0  0  0  0  0  0
    5.6113   -7.1902    0.0000 C   0  0  0  0  0  0  0  0  0  0  0  0
    6.3258   -6.7777    0.0000 C   0  0  0  0  0  0  0  0  0  0  0  0
    8.4692   -7.1902    0.0000 C   0  0  0  0  0  0  0  0  0  0  0  0
    9.1837   -6.7777    0.0000 C   0  0  0  0  0  0  0  0  0  0  0  0
    9.1837   -5.9527    0.0000 C   0  0  0  0  0  0  0  0  0  0  0  0
    9.8981   -5.5402    0.0000 C   0  0  0  0  0  0  0  0  0  0  0  0
    9.8981   -4.7152    0.0000 C   0  0  0  0  0  0  0  0  0  0  0  0
    9.1837   -4.3027    0.0000 C   0  0  0  0  0  0  0  0  0  0  0  0
    8.4692   -4.7152    0.0000 C   0  0  0  0  0  0  0  0  0  0  0  0
    8.4692   -5.5402    0.0000 C   0  0  0  0  0  0  0  0  0  0  0  0
    9.1837   -3.4777    0.0000 O   0  0  0  0  0  0  0  0  0  0  0  0
    4.1824   -7.1902    0.0000 O   0  0  0  0  0  0  0  0  0  0  0  0
    3.4679   -6.7777    0.0000 C   0  0  0  0  0  0  0  0  0  0  0  0
    5.6113   -8.0152    0.0000 O   0  0  0  0  0  0  0  0  0  0  0  0
    4.8969   -8.4277    0.0000 C   0  0  0  0  0  0  0  0  0  0  0  0
   10.6126   -4.3027    0.0000 O   0  0  0  0  0  0  0  0  0  0  0  0
   11.3271   -4.7152    0.0000 C   0  0  0  0  0  0  0  0  0  0  0  0
    7.0403   -4.7152    0.0000 O   0  0  0  0  0  0  0  0  0  0  0  0
  1  2  1  0  0  0  0
  2  3  2  0  0  0  0
  3  4  1  0  0  0  0
  4  5  2  0  0  0  0
  5  6  1  0  0  0  0
  6  7  2  0  0  0  0
  7  8  1  0  0  0  0
  8  9  2  0  0  0  0
  9 10  1  0  0  0  0
  1 10  2  0  0  0  0
  5 10  1  0  0  0  0
 11 12  1  0  0  0  0
 12 13  1  0  0  0  0
 13 14  2  0  0  0  0
 14 15  1  0  0  0  0
 15 16  2  0  0  0  0
 16 17  1  0  0  0  0
 17 18  2  0  0  0  0
 13 18  1  0  0  0  0
 11  2  1  0  0  0  0
 18  3  1  0  0  0  0
 16 19  1  0  0  0  0
 20 21  1  0  0  0  0
  8 20  1  0  0  0  0
 22 23  1  0  0  0  0
  9 22  1  0  0  0  0
 24 25  1  0  0  0  0
 15 24  1  0  0  0  0
  4 26  1  0  0  0  0
M  CHG  1   2   1
M  END
>  <cdx:fragmentId>
5

$$$$
