2729.cdx
  Mrv1902 05222410212D          

 26 30  0  0  0  0            999 V2000
    7.9108   -8.5048    0.0000 C   0  0  0  0  0  0  0  0  0  0  0  0
    8.6252   -8.0923    0.0000 C   0  0  0  0  0  0  0  0  0  0  0  0
    8.6252   -7.2673    0.0000 C   0  0  0  0  0  0  0  0  0  0  0  0
    9.3397   -6.8548    0.0000 C   0  0  0  0  0  0  0  0  0  0  0  0
   10.0542   -7.2673    0.0000 C   0  0  0  0  0  0  0  0  0  0  0  0
   10.0542   -8.0923    0.0000 C   0  0  0  0  0  0  0  0  0  0  0  0
    9.3397   -8.5048    0.0000 C   0  0  0  0  0  0  0  0  0  0  0  0
    9.3397   -9.3298    0.0000 C   0  0  0  0  0  0  0  0  0  0  0  0
    8.6252   -9.7423    0.0000 C   0  0  0  0  0  0  0  0  0  0  0  0
    7.9108   -9.3298    0.0000 N   0  3  0  0  0  0  0  0  0  0  0  0
    7.1963   -9.7423    0.0000 C   0  0  0  0  0  0  0  0  0  0  0  0
    6.4818   -9.3298    0.0000 C   0  0  0  0  0  0  0  0  0  0  0  0
    5.7674   -9.7423    0.0000 C   0  0  0  0  0  0  0  0  0  0  0  0
    5.0529   -9.3298    0.0000 C   0  0  0  0  0  0  0  0  0  0  0  0
    5.0529   -8.5048    0.0000 C   0  0  0  0  0  0  0  0  0  0  0  0
    5.7674   -8.0923    0.0000 C   0  0  0  0  0  0  0  0  0  0  0  0
    6.4818   -8.5048    0.0000 C   0  0  0  0  0  0  0  0  0  0  0  0
    7.1963   -8.0923    0.0000 C   0  0  0  0  0  0  0  0  0  0  0  0
    7.1963   -7.2673    0.0000 O   0  0  0  0  0  0  0  0  0  0  0  0
    9.3397   -6.0298    0.0000 O   0  0  0  0  0  0  0  0  0  0  0  0
   10.7687   -6.8548    0.0000 O   0  0  0  0  0  0  0  0  0  0  0  0
   10.0542   -5.6173    0.0000 C   0  0  0  0  0  0  0  0  0  0  0  0
   11.4831   -7.2673    0.0000 C   0  0  0  0  0  0  0  0  0  0  0  0
    4.4398   -9.8818    0.0000 O   0  0  0  0  0  0  0  0  0  0  0  0
    4.7753  -10.6355    0.0000 C   0  0  0  0  0  0  0  0  0  0  0  0
    5.5958  -10.5492    0.0000 O   0  0  0  0  0  0  0  0  0  0  0  0
  1  2  1  0  0  0  0
  2  3  2  0  0  0  0
  3  4  1  0  0  0  0
  5  6  1  0  0  0  0
  6  7  2  0  0  0  0
  7  8  1  0  0  0  0
  8  9  1  0  0  0  0
  9 10  1  0  0  0  0
 10 11  1  0  0  0  0
 11 12  2  0  0  0  0
 12 13  1  0  0  0  0
 13 14  2  0  0  0  0
 14 15  1  0  0  0  0
 15 16  2  0  0  0  0
 16 17  1  0  0  0  0
 17 18  2  0  0  0  0
  1 18  1  0  0  0  0
  1 10  2  0  0  0  0
 12 17  1  0  0  0  0
  2  7  1  0  0  0  0
  4  5  2  0  0  0  0
 18 19  1  0  0  0  0
  4 20  1  0  0  0  0
  5 21  1  0  0  0  0
 20 22  1  0  0  0  0
 21 23  1  0  0  0  0
 14 24  1  0  0  0  0
 24 25  1  0  0  0  0
 25 26  1  0  0  0  0
 26 13  1  0  0  0  0
M  CHG  1  10   1
M  END
>  <cdx:fragmentId>
5

$$$$
