27290.cdx
  Mrv1902 05222410262D          

 13 14  0  0  0  0            999 V2000
    4.6827   -4.0482    0.0000 C   0  0  0  0  0  0  0  0  0  0  0  0
    4.9376   -4.8328    0.0000 O   0  0  0  0  0  0  0  0  0  0  0  0
    5.1676   -3.3807    0.0000 N   0  0  0  0  0  0  0  0  0  0  0  0
    4.6827   -2.7133    0.0000 S   0  0  0  0  0  0  0  0  0  0  0  0
    5.2958   -2.1613    0.0000 O   0  0  0  0  0  0  0  0  0  0  0  0
    4.5112   -1.9063    0.0000 O   0  0  0  0  0  0  0  0  0  0  0  0
    3.8981   -2.9682    0.0000 C   0  0  0  0  0  0  0  0  0  0  0  0
    3.1836   -2.5557    0.0000 C   0  0  0  0  0  0  0  0  0  0  0  0
    2.4691   -2.9682    0.0000 C   0  0  0  0  0  0  0  0  0  0  0  0
    2.4691   -3.7932    0.0000 C   0  0  0  0  0  0  0  0  0  0  0  0
    3.1836   -4.2057    0.0000 C   0  0  0  0  0  0  0  0  0  0  0  0
    3.8981   -3.7932    0.0000 C   0  0  0  0  0  0  0  0  0  0  0  0
    5.9926   -3.3807    0.0000 C   0  0  0  0  0  0  0  0  0  0  0  0
  1  2  2  0  0  0  0
  1  3  1  0  0  0  0
  3  4  1  0  0  0  0
  4  5  2  0  0  0  0
  4  6  2  0  0  0  0
  4  7  1  0  0  0  0
  7  8  1  0  0  0  0
  8  9  2  0  0  0  0
  9 10  1  0  0  0  0
 10 11  2  0  0  0  0
 11 12  1  0  0  0  0
  7 12  2  0  0  0  0
  1 12  1  0  0  0  0
  3 13  1  0  0  0  0
M  END
>  <cdx:groupId>
42

>  <cdx:fragmentId>
5

$$$$
