45273489.cdx
  Mrv1902 05222410232D          

 29 31  0  0  0  0            999 V2000
    4.6216  -15.4764    0.0000 C   0  0  0  0  0  0  0  0  0  0  0  0
    3.9071  -15.0639    0.0000 C   0  0  0  0  0  0  0  0  0  0  0  0
    3.1926  -15.4764    0.0000 C   0  0  0  0  0  0  0  0  0  0  0  0
    2.4781  -15.0639    0.0000 C   0  0  0  0  0  0  0  0  0  0  0  0
    2.4781  -14.2389    0.0000 C   0  0  0  0  0  0  0  0  0  0  0  0
    3.1926  -13.8264    0.0000 C   0  0  0  0  0  0  0  0  0  0  0  0
    3.9071  -14.2389    0.0000 C   0  0  0  0  0  0  0  0  0  0  0  0
    4.6216  -16.3014    0.0000 O   0  0  0  0  0  0  0  0  0  0  0  0
    5.3360  -15.0639    0.0000 O   0  0  0  0  0  0  0  0  0  0  0  0
    6.0505  -15.4764    0.0000 C   0  0  0  0  0  0  0  0  0  0  0  0
    6.7650  -15.0639    0.0000 C   0  0  0  0  0  0  0  0  0  0  0  0
    7.4794  -15.4764    0.0000 C   0  0  0  0  0  0  0  0  0  0  0  0
    8.1939  -15.0639    0.0000 C   0  0  0  0  0  0  0  0  0  0  0  0
    8.1939  -14.2389    0.0000 C   0  0  0  0  0  0  0  0  0  0  0  0
    7.4794  -13.8264    0.0000 C   0  0  0  0  0  0  0  0  0  0  0  0
    6.7650  -14.2389    0.0000 C   0  0  0  0  0  0  0  0  0  0  0  0
    8.9084  -13.8264    0.0000 O   0  0  0  0  0  0  0  0  0  0  0  0
    9.6228  -15.0639    0.0000 O   0  0  0  0  0  0  0  0  0  0  0  0
    9.6228  -14.2389    0.0000 C   0  0  2  0  0  0  0  0  0  0  0  0
   10.3373  -13.8264    0.0000 C   0  0  1  0  0  0  0  0  0  0  0  0
   11.0518  -14.2389    0.0000 C   0  0  2  0  0  0  0  0  0  0  0  0
   11.0518  -15.0639    0.0000 C   0  0  1  0  0  0  0  0  0  0  0  0
   10.3373  -15.4764    0.0000 C   0  0  1  0  0  0  0  0  0  0  0  0
   10.3373  -16.3014    0.0000 C   0  0  0  0  0  0  0  0  0  0  0  0
   11.0518  -16.7139    0.0000 O   0  0  0  0  0  0  0  0  0  0  0  0
   11.7663  -15.4764    0.0000 O   0  0  0  0  0  0  0  0  0  0  0  0
   11.7663  -13.8264    0.0000 O   0  0  0  0  0  0  0  0  0  0  0  0
   10.3373  -13.0014    0.0000 O   0  0  0  0  0  0  0  0  0  0  0  0
    8.9084  -15.4764    0.0000 O   0  0  0  0  0  0  0  0  0  0  0  0
  1  2  1  0  0  0  0
  2  3  1  0  0  0  0
  3  4  2  0  0  0  0
  4  5  1  0  0  0  0
  5  6  2  0  0  0  0
  6  7  1  0  0  0  0
  2  7  2  0  0  0  0
  1  8  2  0  0  0  0
  1  9  1  0  0  0  0
 11 12  1  0  0  0  0
 12 13  2  0  0  0  0
 13 14  1  0  0  0  0
 14 15  2  0  0  0  0
 15 16  1  0  0  0  0
 11 16  2  0  0  0  0
 18 19  1  0  0  0  0
 19 20  1  0  0  0  0
 20 21  1  0  0  0  0
 21 22  1  0  0  0  0
 22 23  1  0  0  0  0
 18 23  1  0  0  0  0
 24 25  1  0  0  0  0
 23 24  1  1  0  0  0
 22 26  1  6  0  0  0
 21 27  1  1  0  0  0
 20 28  1  6  0  0  0
 19 17  1  1  0  0  0
 14 17  1  0  0  0  0
 13 29  1  0  0  0  0
 10 11  1  0  0  0  0
  9 10  1  0  0  0  0
M  END
>  <cdx:groupId>
172933

>  <cdx:fragmentId>
172881

$$$$
