5273569.cdx
  Mrv1902 05222410282D          

 15 16  0  0  0  0            999 V2000
   15.1009   -7.3556    0.0000 O   0  0  0  0  0  0  0  0  0  0  0  0
   15.1009   -8.1608    0.0000 C   0  0  0  0  0  0  0  0  0  0  0  0
   15.8133   -8.5768    0.0000 C   0  0  0  0  0  0  0  0  0  0  0  0
   14.3885   -8.5768    0.0000 C   0  0  0  0  0  0  0  0  0  0  0  0
   15.8133   -9.4089    0.0000 C   0  0  0  0  0  0  0  0  0  0  0  0
   16.5257   -8.1608    0.0000 O   0  0  0  0  0  0  0  0  0  0  0  0
   13.6970   -8.1787    0.0000 O   0  0  0  0  0  0  0  0  0  0  0  0
   14.3885   -9.4089    0.0000 C   0  0  0  0  0  0  0  0  0  0  0  0
   15.1009   -9.8250    0.0000 C   0  0  0  0  0  0  0  0  0  0  0  0
   16.5257   -9.8250    0.0000 C   0  0  0  0  0  0  0  0  0  0  0  0
   17.2381   -8.5768    0.0000 C   0  0  0  0  0  0  0  0  0  0  0  0
   13.6970   -9.8100    0.0000 O   0  0  0  0  0  0  0  0  0  0  0  0
   17.2381   -9.4089    0.0000 C   0  0  0  0  0  0  0  0  0  0  0  0
   17.9296   -8.1787    0.0000 O   0  0  0  0  0  0  0  0  0  0  0  0
   12.7931   -9.2892    0.0000 C   0  0  0  0  0  0  0  0  0  0  0  0
  1  2  1  0  0  0  0
  2  3  1  0  0  0  0
  2  4  2  0  0  0  0
  3  5  2  0  0  0  0
  3  6  1  0  0  0  0
  4  7  1  0  0  0  0
  4  8  1  0  0  0  0
  5  9  1  0  0  0  0
  5 10  1  0  0  0  0
  6 11  1  0  0  0  0
  8  9  2  0  0  0  0
  8 12  1  0  0  0  0
 10 13  2  0  0  0  0
 11 13  1  0  0  0  0
 11 14  2  0  0  0  0
 12 15  1  0  0  0  0
M  END
>  <cdx:fragmentId>
7111

$$$$
