5273568.cdx
  Mrv1902 05222410282D          

 26 28  0  0  0  0            999 V2000
   17.4618   -9.4078    0.0000 O   0  0  0  0  0  0  0  0  0  0  0  0
   18.1763   -9.8203    0.0000 C   0  0  0  0  0  0  0  0  0  0  0  0
   18.8907   -9.4078    0.0000 O   0  0  0  0  0  0  0  0  0  0  0  0
   18.1763  -10.6453    0.0000 C   0  0  0  0  0  0  0  0  0  0  0  0
   17.4618  -11.0578    0.0000 C   0  0  0  0  0  0  0  0  0  0  0  0
   16.7473  -10.6453    0.0000 C   0  0  0  0  0  0  0  0  0  0  0  0
   16.0328  -11.0578    0.0000 C   0  0  0  0  0  0  0  0  0  0  0  0
   15.3184  -10.6453    0.0000 C   0  0  0  0  0  0  0  0  0  0  0  0
   15.3184   -9.8203    0.0000 C   0  0  0  0  0  0  0  0  0  0  0  0
   16.0328   -9.4078    0.0000 C   0  0  0  0  0  0  0  0  0  0  0  0
   16.7473   -9.8203    0.0000 C   0  0  0  0  0  0  0  0  0  0  0  0
   14.6039  -11.0578    0.0000 O   0  0  0  0  0  0  0  0  0  0  0  0
   13.8895  -10.6453    0.0000 C   0  0  0  0  0  0  0  0  0  0  0  0
   14.6039   -9.4078    0.0000 O   0  0  0  0  0  0  0  0  0  0  0  0
   16.0328   -8.5828    0.0000 O   0  0  0  0  0  0  0  0  0  0  0  0
   15.3184   -8.1703    0.0000 C   0  0  2  0  0  0  0  0  0  0  0  0
   15.3184   -7.3453    0.0000 C   0  0  2  0  0  0  0  0  0  0  0  0
   16.0328   -6.9328    0.0000 O   0  0  0  0  0  0  0  0  0  0  0  0
   14.6039   -6.9328    0.0000 C   0  0  1  0  0  0  0  0  0  0  0  0
   14.6039   -6.1078    0.0000 O   0  0  0  0  0  0  0  0  0  0  0  0
   13.8895   -7.3453    0.0000 C   0  0  2  0  0  0  0  0  0  0  0  0
   13.1750   -6.9328    0.0000 O   0  0  0  0  0  0  0  0  0  0  0  0
   13.8895   -8.1703    0.0000 C   0  0  2  0  0  0  0  0  0  0  0  0
   14.6039   -8.5828    0.0000 O   0  0  0  0  0  0  0  0  0  0  0  0
   13.1750   -8.5828    0.0000 C   0  0  0  0  0  0  0  0  0  0  0  0
   12.4605   -8.1703    0.0000 O   0  0  0  0  0  0  0  0  0  0  0  0
  1  2  1  0  0  0  0
  2  3  2  0  0  0  0
  2  4  1  0  0  0  0
  4  5  2  0  0  0  0
  5  6  1  0  0  0  0
  6  7  1  0  0  0  0
  7  8  2  0  0  0  0
  8  9  1  0  0  0  0
  9 10  2  0  0  0  0
 10 11  1  0  0  0  0
  1 11  1  0  0  0  0
  6 11  2  0  0  0  0
 12 13  1  0  0  0  0
  8 12  1  0  0  0  0
  9 14  1  0  0  0  0
 16 24  1  0  0  0  0
 16 17  1  0  0  0  0
 17 18  1  1  0  0  0
 17 19  1  0  0  0  0
 19 20  1  6  0  0  0
 19 21  1  0  0  0  0
 21 22  1  1  0  0  0
 21 23  1  0  0  0  0
 23 24  1  0  0  0  0
 23 25  1  6  0  0  0
 25 26  1  0  0  0  0
 16 15  1  1  0  0  0
 10 15  1  0  0  0  0
M  END
>  <cdx:fragmentId>
7048

$$$$
