27365.cdx
  Mrv1902 05222410212D          

  7  6  0  0  0  0            999 V2000
    4.1209   -3.1743    0.0000 P   0  0  0  0  0  0  0  0  0  0  0  0
    4.8353   -3.5868    0.0000 C   0  0  0  0  0  0  0  0  0  0  0  0
    5.5498   -3.1743    0.0000 C   0  0  0  0  0  0  0  0  0  0  0  0
    3.4064   -3.5868    0.0000 C   0  0  0  0  0  0  0  0  0  0  0  0
    2.6919   -3.1743    0.0000 C   0  0  0  0  0  0  0  0  0  0  0  0
    4.1209   -2.3493    0.0000 C   0  0  0  0  0  0  0  0  0  0  0  0
    3.4064   -1.9368    0.0000 C   0  0  0  0  0  0  0  0  0  0  0  0
  2  3  1  0  0  0  0
  1  2  1  0  0  0  0
  4  5  1  0  0  0  0
  1  4  1  0  0  0  0
  6  7  1  0  0  0  0
  1  6  1  0  0  0  0
M  END
>  <cdx:groupId>
22

>  <cdx:fragmentId>
7

$$$$
