273993.cdx
  Mrv1902 05222410202D          

 39 42  0  0  0  0            999 V2000
    7.1395   -9.1957    0.0000 O   0  0  0  0  0  0  0  0  0  0  0  0
    7.1302   -8.3708    0.0000 C   0  0  2  0  0  0  0  0  0  0  0  0
    7.8400   -7.9503    0.0000 C   0  0  1  0  0  0  0  0  0  0  0  0
    8.5591   -8.3548    0.0000 C   0  0  2  0  0  0  0  0  0  0  0  0
    8.5683   -9.1797    0.0000 C   0  0  1  0  0  0  0  0  0  0  0  0
    7.8585   -9.6002    0.0000 C   0  0  1  0  0  0  0  0  0  0  0  0
    7.8678  -10.4251    0.0000 C   0  0  0  0  0  0  0  0  0  0  0  0
    9.2874   -9.5842    0.0000 O   0  0  0  0  0  0  0  0  0  0  0  0
    9.2688   -7.9343    0.0000 O   0  0  0  0  0  0  0  0  0  0  0  0
    7.8307   -7.1254    0.0000 O   0  0  0  0  0  0  0  0  0  0  0  0
    7.7984   -4.6586    0.0000 C   0  0  0  0  0  0  0  0  0  0  0  0
    5.6736   -5.0870    0.0000 O   0  0  0  0  0  0  0  0  0  0  0  0
    4.2943   -7.5596    0.0000 O   0  0  0  0  0  0  0  0  0  0  0  0
    5.0817   -7.8057    0.0000 C   0  0  0  0  0  0  0  0  0  0  0  0
    6.4111   -7.9664    0.0000 O   0  0  0  0  0  0  0  0  0  0  0  0
    7.0839   -4.2461    0.0000 O   0  0  0  0  0  0  0  0  0  0  0  0
    5.6550   -4.2621    0.0000 O   0  0  0  0  0  0  0  0  0  0  0  0
    6.3741   -4.6666    0.0000 C   0  0  0  0  0  0  0  0  0  0  0  0
    4.9011   -7.0007    0.0000 C   0  0  1  0  0  0  0  0  0  0  0  0
    4.4087   -6.3387    0.0000 C   0  0  0  0  0  0  0  0  0  0  0  0
    4.8861   -5.6659    0.0000 C   0  0  0  0  0  0  0  0  0  0  0  0
    7.1117   -6.7209    0.0000 O   0  0  0  0  0  0  0  0  0  0  0  0
   10.0067  -11.6702    0.0000 O   0  0  0  0  0  0  0  0  0  0  0  0
    9.9886  -13.3201    0.0000 O   0  0  0  0  0  0  0  0  0  0  0  0
    8.5507  -14.1294    0.0000 O   0  0  0  0  0  0  0  0  0  0  0  0
    7.1219  -14.1138    0.0000 O   0  0  0  0  0  0  0  0  0  0  0  0
    7.1309  -13.2888    0.0000 C   0  0  0  0  0  0  0  0  0  0  0  0
    7.8498  -12.8842    0.0000 C   0  0  2  0  0  0  0  0  0  0  0  0
    8.5598  -13.3045    0.0000 C   0  0  2  0  0  0  0  0  0  0  0  0
    9.2787  -12.8998    0.0000 C   0  0  1  0  0  0  0  0  0  0  0  0
    9.2877  -12.0748    0.0000 C   0  0  2  0  0  0  0  0  0  0  0  0
    8.5778  -11.6546    0.0000 C   0  0  1  0  0  0  0  0  0  0  0  0
    7.8589  -12.0592    0.0000 O   0  0  0  0  0  0  0  0  0  0  0  0
    8.5868  -10.8296    0.0000 O   0  0  0  0  0  0  0  0  0  0  0  0
    7.1024   -5.8960    0.0000 C   0  0  0  0  0  0  0  0  0  0  0  0
    6.3834   -5.4915    0.0000 C   0  0  0  0  0  0  0  0  0  0  0  0
    5.6736   -5.9120    0.0000 C   0  0  1  0  0  0  0  0  0  0  0  0
    5.6828   -6.7370    0.0000 C   0  0  0  0  0  0  0  0  0  0  0  0
    6.4019   -7.1414    0.0000 C   0  0  2  0  0  0  0  0  0  0  0  0
 16 11  1  0  0  0  0
 37 12  1  1  0  0  0
 19 13  1  1  0  0  0
 19 14  1  6  0  0  0
 39 15  1  1  0  0  0
 36 18  1  0  0  0  0
 18 16  1  0  0  0  0
 18 17  2  0  0  0  0
 21 37  1  0  0  0  0
 19 38  1  0  0  0  0
 20 19  1  0  0  0  0
 21 20  1  0  0  0  0
 39 22  1  0  0  0  0
 32 34  1  1  0  0  0
 31 23  1  6  0  0  0
 30 24  1  1  0  0  0
 29 25  1  6  0  0  0
 28 27  1  1  0  0  0
 27 26  1  0  0  0  0
 33 28  1  0  0  0  0
 29 28  1  0  0  0  0
 30 29  1  0  0  0  0
 31 30  1  0  0  0  0
 32 31  1  0  0  0  0
 33 32  1  0  0  0  0
 35 22  1  0  0  0  0
 36 35  2  0  0  0  0
 37 36  1  0  0  0  0
 38 37  1  0  0  0  0
 39 38  1  0  0  0  0
  1  2  1  0  0  0  0
  2  3  1  0  0  0  0
  3  4  1  0  0  0  0
  4  5  1  0  0  0  0
  5  6  1  0  0  0  0
  1  6  1  0  0  0  0
  7 34  1  0  0  0  0
  6  7  1  1  0  0  0
  5  8  1  6  0  0  0
  4  9  1  1  0  0  0
  3 10  1  6  0  0  0
  2 15  1  1  0  0  0
M  END
>  <cdx:fragmentId>
32377

$$$$
