2741.cdx
  Mrv1902 05222410262D          

 25 30  0  0  0  0            999 V2000
    9.9007   -6.6680    0.0000 C   0  0  0  0  0  0  0  0  0  0  0  0
    9.1838   -6.2596    0.0000 C   0  0  0  0  0  0  0  0  0  0  0  0
    8.4718   -6.6763    0.0000 C   0  0  0  0  0  0  0  0  0  0  0  0
    8.4766   -7.5013    0.0000 C   0  0  0  0  0  0  0  0  0  0  0  0
    9.1934   -7.9096    0.0000 C   0  0  0  0  0  0  0  0  0  0  0  0
    9.9055   -7.4930    0.0000 C   0  0  0  0  0  0  0  0  0  0  0  0
    7.7645   -7.9179    0.0000 C   0  0  0  0  0  0  0  0  0  0  0  0
    7.7693   -8.7429    0.0000 N   0  3  0  0  0  0  0  0  0  0  0  0
    8.4861   -9.1513    0.0000 C   0  0  0  0  0  0  0  0  0  0  0  0
    9.1982   -8.7346    0.0000 C   0  0  0  0  0  0  0  0  0  0  0  0
    7.0476   -7.5096    0.0000 C   0  0  0  0  0  0  0  0  0  0  0  0
    6.3356   -7.9262    0.0000 C   0  0  0  0  0  0  0  0  0  0  0  0
    6.3404   -8.7512    0.0000 C   0  0  0  0  0  0  0  0  0  0  0  0
    7.0572   -9.1595    0.0000 C   0  0  0  0  0  0  0  0  0  0  0  0
    5.6187   -7.5179    0.0000 C   0  0  0  0  0  0  0  0  0  0  0  0
    4.9067   -7.9345    0.0000 C   0  0  0  0  0  0  0  0  0  0  0  0
    4.9114   -8.7595    0.0000 C   0  0  0  0  0  0  0  0  0  0  0  0
    5.6283   -9.1678    0.0000 C   0  0  0  0  0  0  0  0  0  0  0  0
   10.5106   -6.1124    0.0000 O   0  0  0  0  0  0  0  0  0  0  0  0
   10.1706   -5.3607    0.0000 C   0  0  0  0  0  0  0  0  0  0  0  0
    9.3507   -5.4517    0.0000 O   0  0  0  0  0  0  0  0  0  0  0  0
    4.3016   -9.3151    0.0000 O   0  0  0  0  0  0  0  0  0  0  0  0
    4.6415  -10.0668    0.0000 C   0  0  0  0  0  0  0  0  0  0  0  0
    5.4615   -9.9758    0.0000 O   0  0  0  0  0  0  0  0  0  0  0  0
    7.0428   -6.6846    0.0000 C   0  0  0  0  0  0  0  0  0  0  0  0
  1  2  2  0  0  0  0
  2  3  1  0  0  0  0
  3  4  2  0  0  0  0
  4  5  1  0  0  0  0
  5  6  2  0  0  0  0
  6  1  1  0  0  0  0
  4  7  1  0  0  0  0
  7  8  2  0  0  0  0
  8  9  1  0  0  0  0
  9 10  1  0  0  0  0
 10  5  1  0  0  0  0
  7 11  1  0  0  0  0
 11 12  2  0  0  0  0
 12 13  1  0  0  0  0
 13 14  2  0  0  0  0
 14  8  1  0  0  0  0
 12 15  1  0  0  0  0
 15 16  2  0  0  0  0
 16 17  1  0  0  0  0
 17 18  2  0  0  0  0
 18 13  1  0  0  0  0
  1 19  1  0  0  0  0
 19 20  1  0  0  0  0
 20 21  1  0  0  0  0
 21  2  1  0  0  0  0
 17 22  1  0  0  0  0
 22 23  1  0  0  0  0
 23 24  1  0  0  0  0
 24 18  1  0  0  0  0
 11 25  1  0  0  0  0
M  CHG  1   8   1
M  END
>  <cdx:fragmentId>
108

$$$$
