11274200.cdx
  Mrv1902 05222410272D          

 55 61  0  0  0  0            999 V2000
    9.5374  -13.4040    0.0000 C   0  0  0  0  0  0  0  0  0  0  0  0
    8.8229  -12.9915    0.0000 C   0  0  0  0  0  0  0  0  0  0  0  0
    8.8229  -12.1665    0.0000 C   0  0  0  0  0  0  0  0  0  0  0  0
    8.1084  -11.7540    0.0000 C   0  0  0  0  0  0  0  0  0  0  0  0
   10.2518  -12.9915    0.0000 O   0  0  0  0  0  0  0  0  0  0  0  0
    9.5374  -14.2290    0.0000 O   0  0  0  0  0  0  0  0  0  0  0  0
    8.1084  -13.4040    0.0000 C   0  0  0  0  0  0  0  0  0  0  0  0
   10.9663  -15.8790    0.0000 C   0  0  2  0  0  0  0  0  0  0  0  0
   11.6808  -16.2915    0.0000 O   0  0  0  0  0  0  0  0  0  0  0  0
   11.6808  -15.4665    0.0000 C   0  0  1  0  0  0  0  0  0  0  0  0
   12.4654  -15.7214    0.0000 C   0  0  0  0  0  0  0  0  0  0  0  0
   12.9503  -15.0540    0.0000 C   0  0  0  0  0  0  0  0  0  0  0  0
   12.4654  -14.3865    0.0000 C   0  0  2  0  0  0  0  0  0  0  0  0
   11.6808  -14.6415    0.0000 C   0  0  1  0  0  0  0  0  0  0  0  0
   10.9663  -14.2290    0.0000 C   0  0  1  0  0  0  0  0  0  0  0  0
   10.2518  -14.6415    0.0000 C   0  0  2  0  0  0  0  0  0  0  0  0
   10.2518  -15.4665    0.0000 C   0  0  2  0  0  0  0  0  0  0  0  0
    9.5374  -15.8790    0.0000 C   0  0  1  0  0  0  0  0  0  0  0  0
    8.8229  -15.4665    0.0000 C   0  0  0  0  0  0  0  0  0  0  0  0
    8.1084  -15.8790    0.0000 C   0  0  0  0  0  0  0  0  0  0  0  0
    8.1084  -16.7040    0.0000 C   0  0  1  0  0  0  0  0  0  0  0  0
    8.8229  -17.1165    0.0000 C   0  0  0  0  0  0  0  0  0  0  0  0
    9.5374  -16.7040    0.0000 C   0  0  2  0  0  0  0  0  0  0  0  0
   10.2518  -17.1165    0.0000 C   0  0  0  0  0  0  0  0  0  0  0  0
   10.9663  -16.7040    0.0000 C   0  0  0  0  0  0  0  0  0  0  0  0
    9.5374  -15.0540    0.0000 C   0  0  0  0  0  0  0  0  0  0  0  0
   11.7670  -13.8210    0.0000 C   0  0  0  0  0  0  0  0  0  0  0  0
   10.9663  -13.4040    0.0000 O   0  0  0  0  0  0  0  0  0  0  0  0
    7.3939  -17.1165    0.0000 O   0  0  0  0  0  0  0  0  0  0  0  0
    6.6795  -15.8790    0.0000 O   0  0  0  0  0  0  0  0  0  0  0  0
    6.6795  -16.7040    0.0000 C   0  0  2  0  0  0  0  0  0  0  0  0
    5.9650  -17.1165    0.0000 C   0  0  0  0  0  0  0  0  0  0  0  0
    5.2505  -16.7040    0.0000 C   0  0  2  0  0  0  0  0  0  0  0  0
    5.2505  -15.8790    0.0000 C   0  0  1  0  0  0  0  0  0  0  0  0
    5.9650  -15.4665    0.0000 C   0  0  1  0  0  0  0  0  0  0  0  0
    5.9650  -14.6415    0.0000 C   0  0  0  0  0  0  0  0  0  0  0  0
    4.5361  -17.1165    0.0000 O   0  0  0  0  0  0  0  0  0  0  0  0
    4.5361  -17.9415    0.0000 C   0  0  0  0  0  0  0  0  0  0  0  0
    4.5361  -15.4665    0.0000 O   0  0  0  0  0  0  0  0  0  0  0  0
    3.8216  -16.7040    0.0000 O   0  0  0  0  0  0  0  0  0  0  0  0
    3.8216  -15.8790    0.0000 C   0  0  2  0  0  0  0  0  0  0  0  0
    3.1071  -15.4665    0.0000 C   0  0  1  0  0  0  0  0  0  0  0  0
    2.3927  -15.8790    0.0000 C   0  0  1  0  0  0  0  0  0  0  0  0
    2.3927  -16.7040    0.0000 C   0  0  1  0  0  0  0  0  0  0  0  0
    3.1071  -17.1165    0.0000 C   0  0  1  0  0  0  0  0  0  0  0  0
    3.1071  -17.9415    0.0000 C   0  0  0  0  0  0  0  0  0  0  0  0
    1.6782  -15.4665    0.0000 O   0  0  0  0  0  0  0  0  0  0  0  0
    0.9637  -15.8790    0.0000 C   0  0  0  0  0  0  0  0  0  0  0  0
    1.6782  -17.1165    0.0000 O   0  0  0  0  0  0  0  0  0  0  0  0
    3.1071  -14.6415    0.0000 O   0  0  0  0  0  0  0  0  0  0  0  0
   12.7203  -13.6019    0.0000 C   0  0  0  0  0  0  0  0  0  0  0  0
   12.1683  -12.9888    0.0000 O   0  0  0  0  0  0  0  0  0  0  0  0
   13.5273  -13.4304    0.0000 C   0  0  0  0  0  0  0  0  0  0  0  0
   10.2518  -16.2915    0.0000 H   0  0  0  0  0  0  0  0  0  0  0  0
    9.5374  -17.5290    0.0000 H   0  0  0  0  0  0  0  0  0  0  0  0
  1  2  1  0  0  0  0
  2  3  2  0  0  0  0
  3  4  1  0  0  0  0
  1  5  2  0  0  0  0
  1  6  1  0  0  0  0
  2  7  1  0  0  0  0
  8  9  1  1  0  0  0
 10  9  1  1  0  0  0
 10 11  1  0  0  0  0
 11 12  1  0  0  0  0
 12 13  1  0  0  0  0
 13 14  1  0  0  0  0
 14 15  1  0  0  0  0
 15 16  1  0  0  0  0
 16 17  1  0  0  0  0
 17 18  1  0  0  0  0
 18 19  1  0  0  0  0
 19 20  1  0  0  0  0
 20 21  1  0  0  0  0
 21 22  1  0  0  0  0
 22 23  1  0  0  0  0
 23 24  1  0  0  0  0
 24 25  1  0  0  0  0
  8 25  1  0  0  0  0
  8 17  1  0  0  0  0
 18 23  1  0  0  0  0
 10 14  1  0  0  0  0
  8 10  1  0  0  0  0
 18 26  1  1  0  0  0
 14 27  1  1  0  0  0
 15 28  1  1  0  0  0
 30 31  1  0  0  0  0
 31 32  1  0  0  0  0
 32 33  1  0  0  0  0
 33 34  1  0  0  0  0
 34 35  1  0  0  0  0
 30 35  1  0  0  0  0
 35 36  1  1  0  0  0
 37 38  1  0  0  0  0
 33 37  1  1  0  0  0
 40 41  1  0  0  0  0
 41 42  1  0  0  0  0
 42 43  1  0  0  0  0
 43 44  1  0  0  0  0
 44 45  1  0  0  0  0
 40 45  1  0  0  0  0
 45 46  1  6  0  0  0
 47 48  1  0  0  0  0
 43 47  1  1  0  0  0
 44 49  1  1  0  0  0
 42 50  1  1  0  0  0
 41 39  1  6  0  0  0
 34 39  1  6  0  0  0
 31 29  1  1  0  0  0
 21 29  1  1  0  0  0
 51 52  2  0  0  0  0
 51 53  1  0  0  0  0
 13 51  1  6  0  0  0
 16  6  1  6  0  0  0
 17 54  1  6  0  0  0
 23 55  1  6  0  0  0
M  END
>  <cdx:groupId>
69120

>  <cdx:fragmentId>
68966

$$$$
