2743.cdx
  Mrv1902 05222410262D          

 12 12  0  0  0  0            999 V2000
    6.9067   -4.4185    0.0000 C   0  0  0  0  0  0  0  0  0  0  0  0
    6.4942   -5.1330    0.0000 C   0  0  0  0  0  0  0  0  0  0  0  0
    6.0817   -4.4185    0.0000 C   0  0  0  0  0  0  0  0  0  0  0  0
    7.6212   -4.0060    0.0000 C   0  0  0  0  0  0  0  0  0  0  0  0
    7.6212   -3.1810    0.0000 O   0  0  0  0  0  0  0  0  0  0  0  0
    8.3357   -4.4185    0.0000 O   0  0  0  0  0  0  0  0  0  0  0  0
    5.3673   -4.0060    0.0000 C   0  0  0  0  0  0  0  0  0  0  0  0
    4.6528   -4.4185    0.0000 C   0  0  0  0  0  0  0  0  0  0  0  0
    4.6528   -5.2435    0.0000 C   0  0  0  0  0  0  0  0  0  0  0  0
    3.9383   -4.0060    0.0000 C   0  0  0  0  0  0  0  0  0  0  0  0
    6.9067   -5.8475    0.0000 C   0  0  0  0  0  0  0  0  0  0  0  0
    6.0817   -5.8475    0.0000 C   0  0  0  0  0  0  0  0  0  0  0  0
  1  2  1  0  0  0  0
  2  3  1  0  0  0  0
  1  3  1  0  0  0  0
  4  5  2  0  0  0  0
  4  6  1  0  0  0  0
  1  4  1  0  0  0  0
  7  8  2  0  0  0  0
  8  9  1  0  0  0  0
  8 10  1  0  0  0  0
  3  7  1  0  0  0  0
  2 11  1  0  0  0  0
  2 12  1  0  0  0  0
M  END
>  <cdx:groupId>
38

>  <cdx:fragmentId>
5

$$$$
