274465.cdx
  Mrv1902 05222410242D          

 13 15  0  0  0  0            999 V2000
    7.7924   -9.9543    0.0000 H   0  0  0  0  0  0  0  0  0  0  0  0
    7.7924   -6.4919    0.0000 H   0  0  0  0  0  0  0  0  0  0  0  0
    5.6216   -8.2231    0.0000 O   0  0  0  0  0  0  0  0  0  0  0  0
    7.0742   -8.2221    0.0000 N   0  0  0  0  0  0  0  0  0  0  0  0
    6.8045   -7.4798    0.0000 C   0  0  0  0  0  0  0  0  0  0  0  0
    6.4466   -8.2231    0.0000 C   0  0  0  0  0  0  0  0  0  0  0  0
    6.8045   -8.9664    0.0000 C   0  0  0  0  0  0  0  0  0  0  0  0
    7.6088   -9.1500    0.0000 C   0  0  2  0  0  0  0  0  0  0  0  0
    8.2539   -8.6356    0.0000 C   0  0  2  0  0  0  0  0  0  0  0  0
    8.9683   -8.2231    0.0000 O   0  0  0  0  0  0  0  0  0  0  0  0
    8.2539   -7.8106    0.0000 C   0  0  2  0  0  0  0  0  0  0  0  0
    7.6088   -7.2962    0.0000 C   0  0  1  0  0  0  0  0  0  0  0  0
    6.3598   -7.8096    0.0000 C   0  0  0  0  0  0  0  0  0  0  0  0
  8  1  1  6  0  0  0
 12  2  1  6  0  0  0
  6  3  1  0  0  0  0
 11  9  1  0  0  0  0
  8  4  1  0  0  0  0
 12  4  1  0  0  0  0
 12  5  1  0  0  0  0
  6  5  1  0  0  0  0
  7  6  1  0  0  0  0
  8  7  1  0  0  0  0
  9  8  1  0  0  0  0
  9 10  1  1  0  0  0
 11 10  1  1  0  0  0
 12 11  1  0  0  0  0
  4 13  1  0  0  0  0
M  END
>  <cdx:fragmentId>
5

$$$$
