27457.cdx
  Mrv1902 05222410262D          

  9  9  0  0  0  0            999 V2000
    7.7199   -5.2943    0.0000 C   0  0  0  0  0  0  0  0  0  0  0  0
    7.7199   -4.4693    0.0000 C   0  0  0  0  0  0  0  0  0  0  0  0
    7.0055   -5.7068    0.0000 N   0  0  0  0  0  0  0  0  0  0  0  0
    7.0055   -4.0568    0.0000 N   0  0  0  0  0  0  0  0  0  0  0  0
    6.2910   -4.4693    0.0000 C   0  0  0  0  0  0  0  0  0  0  0  0
    6.2910   -5.2943    0.0000 C   0  0  0  0  0  0  0  0  0  0  0  0
    8.4344   -4.0568    0.0000 C   0  0  0  0  0  0  0  0  0  0  0  0
    8.4344   -5.7068    0.0000 C   0  0  0  0  0  0  0  0  0  0  0  0
    9.1489   -5.2943    0.0000 C   0  0  0  0  0  0  0  0  0  0  0  0
  1  2  1  0  0  0  0
  1  3  2  0  0  0  0
  2  4  2  0  0  0  0
  4  5  1  0  0  0  0
  5  6  2  0  0  0  0
  3  6  1  0  0  0  0
  2  7  1  0  0  0  0
  8  9  1  0  0  0  0
  1  8  1  0  0  0  0
M  END
>  <cdx:fragmentId>
5

$$$$
