5274591.cdx
  Mrv1902 05222410192D          

 45 50  0  0  0  0            999 V2000
   13.2836   -6.9179    0.0000 O   0  0  0  0  0  0  0  0  0  0  0  0
   13.2836   -5.2681    0.0000 O   0  0  0  0  0  0  0  0  0  0  0  0
   17.6117  -11.8620    0.0000 O   0  0  0  0  0  0  0  0  0  0  0  0
   17.5925  -10.2121    0.0000 O   0  0  0  0  0  0  0  0  0  0  0  0
   11.8537   -7.7428    0.0000 O   0  0  0  0  0  0  0  0  0  0  0  0
   18.9921   -9.4532    0.0000 O   0  0  0  0  0  0  0  0  0  0  0  0
   16.9105   -6.5219    0.0000 N   0  0  0  0  0  0  0  0  0  0  0  0
   13.9683  -10.6493    0.0000 N   0  0  0  0  0  0  0  0  0  0  0  0
   16.1626   -6.9454    0.0000 C   0  0  1  0  0  0  0  0  0  0  0  0
   14.7107  -10.2176    0.0000 C   0  0  1  0  0  0  0  0  0  0  0  0
   15.4257   -6.5054    0.0000 C   0  0  0  0  0  0  0  0  0  0  0  0
   15.4532  -10.6493    0.0000 C   0  0  0  0  0  0  0  0  0  0  0  0
   16.9105   -5.6640    0.0000 C   0  0  0  0  0  0  0  0  0  0  0  0
   16.1626   -5.2406    0.0000 C   0  0  0  0  0  0  0  0  0  0  0  0
   13.9793  -11.5100    0.0000 C   0  0  0  0  0  0  0  0  0  0  0  0
   15.4257   -5.6805    0.0000 C   0  0  0  0  0  0  0  0  0  0  0  0
   14.7300  -11.9252    0.0000 C   0  0  0  0  0  0  0  0  0  0  0  0
   14.7107   -9.3927    0.0000 C   0  0  0  0  0  0  0  0  0  0  0  0
   15.4642  -11.4743    0.0000 C   0  0  0  0  0  0  0  0  0  0  0  0
   16.1544   -7.7703    0.0000 C   0  0  0  0  0  0  0  0  0  0  0  0
   14.7107   -6.9179    0.0000 C   0  0  0  0  0  0  0  0  0  0  0  0
   17.6227   -6.9372    0.0000 C   0  0  0  0  0  0  0  0  0  0  0  0
   13.9958   -8.9802    0.0000 C   0  0  0  0  0  0  0  0  0  0  0  0
   13.2506  -10.2424    0.0000 C   0  0  0  0  0  0  0  0  0  0  0  0
   14.7107   -5.2681    0.0000 C   0  0  0  0  0  0  0  0  0  0  0  0
   16.1626  -10.2286    0.0000 C   0  0  0  0  0  0  0  0  0  0  0  0
   16.8638   -8.1911    0.0000 C   0  0  0  0  0  0  0  0  0  0  0  0
   16.1819  -11.8785    0.0000 C   0  0  0  0  0  0  0  0  0  0  0  0
   13.9958   -6.5054    0.0000 C   0  0  0  0  0  0  0  0  0  0  0  0
   13.9958   -5.6805    0.0000 C   0  0  0  0  0  0  0  0  0  0  0  0
   16.8830  -10.6328    0.0000 C   0  0  0  0  0  0  0  0  0  0  0  0
   16.8913  -11.4578    0.0000 C   0  0  0  0  0  0  0  0  0  0  0  0
   13.9958   -8.1553    0.0000 C   0  0  0  0  0  0  0  0  0  0  0  0
   13.2836   -7.7428    0.0000 C   0  0  0  0  0  0  0  0  0  0  0  0
   13.2836   -9.3927    0.0000 C   0  0  0  0  0  0  0  0  0  0  0  0
   17.5815   -7.7868    0.0000 C   0  0  0  0  0  0  0  0  0  0  0  0
   16.8528   -9.0160    0.0000 C   0  0  0  0  0  0  0  0  0  0  0  0
   12.5687   -8.1553    0.0000 C   0  0  0  0  0  0  0  0  0  0  0  0
   12.5687   -8.9802    0.0000 C   0  0  0  0  0  0  0  0  0  0  0  0
   18.2909   -8.2076    0.0000 C   0  0  0  0  0  0  0  0  0  0  0  0
   17.5622   -9.4367    0.0000 C   0  0  0  0  0  0  0  0  0  0  0  0
   18.2827   -9.0325    0.0000 C   0  0  0  0  0  0  0  0  0  0  0  0
   13.2836   -4.4431    0.0000 C   0  0  0  0  0  0  0  0  0  0  0  0
   17.6200  -12.6869    0.0000 C   0  0  0  0  0  0  0  0  0  0  0  0
   19.7126   -9.0490    0.0000 C   0  0  0  0  0  0  0  0  0  0  0  0
  1 29  1  0  0  0  0
  1 34  1  0  0  0  0
  2 30  1  0  0  0  0
  2 43  1  0  0  0  0
  3 32  1  0  0  0  0
  3 44  1  0  0  0  0
  4 31  1  0  0  0  0
  5 38  1  0  0  0  0
  6 42  1  0  0  0  0
  6 45  1  0  0  0  0
  7  9  1  0  0  0  0
  7 13  1  0  0  0  0
  7 22  1  0  0  0  0
  8 10  1  0  0  0  0
  8 15  1  0  0  0  0
  8 24  1  0  0  0  0
  9 11  1  0  0  0  0
  9 20  1  6  0  0  0
 10 12  1  0  0  0  0
 10 18  1  6  0  0  0
 11 16  1  0  0  0  0
 11 21  2  0  0  0  0
 12 19  1  0  0  0  0
 12 26  2  0  0  0  0
 13 14  1  0  0  0  0
 14 16  1  0  0  0  0
 15 17  1  0  0  0  0
 16 25  2  0  0  0  0
 17 19  1  0  0  0  0
 18 23  1  0  0  0  0
 19 28  2  0  0  0  0
 20 27  1  0  0  0  0
 21 29  1  0  0  0  0
 23 33  2  0  0  0  0
 23 35  1  0  0  0  0
 25 30  1  0  0  0  0
 26 31  1  0  0  0  0
 27 36  2  0  0  0  0
 27 37  1  0  0  0  0
 28 32  1  0  0  0  0
 29 30  2  0  0  0  0
 31 32  2  0  0  0  0
 33 34  1  0  0  0  0
 34 38  2  0  0  0  0
 35 39  2  0  0  0  0
 36 40  1  0  0  0  0
 37 41  2  0  0  0  0
 38 39  1  0  0  0  0
 40 42  2  0  0  0  0
 41 42  1  0  0  0  0
M  END
>  <cdx:fragmentId>
7723

$$$$
