27458.cdx
  Mrv1902 05222410192D          

 10 10  0  0  0  0            999 V2000
    7.7337   -4.9231    0.0000 C   0  0  0  0  0  0  0  0  0  0  0  0
    7.7337   -5.7481    0.0000 C   0  0  0  0  0  0  0  0  0  0  0  0
    7.0192   -4.5106    0.0000 N   0  0  0  0  0  0  0  0  0  0  0  0
    7.0192   -6.1606    0.0000 N   0  0  0  0  0  0  0  0  0  0  0  0
    6.3047   -5.7481    0.0000 C   0  0  0  0  0  0  0  0  0  0  0  0
    6.3047   -4.9231    0.0000 C   0  0  0  0  0  0  0  0  0  0  0  0
    8.4482   -6.1606    0.0000 C   0  0  0  0  0  0  0  0  0  0  0  0
    9.1626   -5.7481    0.0000 C   0  0  0  0  0  0  0  0  0  0  0  0
    8.4482   -4.5106    0.0000 C   0  0  0  0  0  0  0  0  0  0  0  0
    9.1626   -4.9231    0.0000 C   0  0  0  0  0  0  0  0  0  0  0  0
  1  2  1  0  0  0  0
  1  3  2  0  0  0  0
  2  4  2  0  0  0  0
  4  5  1  0  0  0  0
  5  6  2  0  0  0  0
  3  6  1  0  0  0  0
  7  8  1  0  0  0  0
  2  7  1  0  0  0  0
  9 10  1  0  0  0  0
  1  9  1  0  0  0  0
M  END
>  <cdx:fragmentId>
5

$$$$
