274587.cdx
  Mrv1902 05222410182D          

 23 25  0  0  0  0            999 V2000
   10.7150   -9.6978    0.0000 O   0  0  0  0  0  0  0  0  0  0  0  0
    9.2562   -8.0742    0.0000 C   0  0  0  0  0  0  0  0  0  0  0  0
    9.9781   -8.4735    0.0000 C   0  0  0  0  0  0  0  0  0  0  0  0
    9.9931   -9.2984    0.0000 C   0  0  0  0  0  0  0  0  0  0  0  0
    9.2863   -9.7239    0.0000 C   0  0  0  0  0  0  0  0  0  0  0  0
    8.5644   -9.3245    0.0000 C   0  0  0  0  0  0  0  0  0  0  0  0
    8.5493   -8.4996    0.0000 C   0  0  0  0  0  0  0  0  0  0  0  0
    7.8275   -8.1003    0.0000 C   0  0  0  0  0  0  0  0  0  0  0  0
    4.2331   -6.9283    0.0000 C   0  0  0  0  0  0  0  0  0  0  0  0
    4.9550   -7.3277    0.0000 O   0  0  0  0  0  0  0  0  0  0  0  0
    8.9447   -7.5567    0.0000 C   0  0  0  0  0  0  0  0  0  0  0  0
    9.3440   -6.8348    0.0000 C   0  0  0  0  0  0  0  0  0  0  0  0
    4.9248   -5.6779    0.0000 O   0  0  0  0  0  0  0  0  0  0  0  0
    7.0905   -6.8760    0.0000 C   0  0  0  0  0  0  0  0  0  0  0  0
    6.3837   -7.3015    0.0000 C   0  0  0  0  0  0  0  0  0  0  0  0
    5.6618   -6.9022    0.0000 C   0  0  0  0  0  0  0  0  0  0  0  0
    5.6467   -6.0773    0.0000 C   0  0  0  0  0  0  0  0  0  0  0  0
    6.3535   -5.6518    0.0000 C   0  0  0  0  0  0  0  0  0  0  0  0
    7.0754   -6.0512    0.0000 C   0  0  0  0  0  0  0  0  0  0  0  0
    7.7822   -5.6257    0.0000 C   0  0  0  0  0  0  0  0  0  0  0  0
    8.5041   -6.0251    0.0000 C   0  0  0  0  0  0  0  0  0  0  0  0
    8.5192   -6.8499    0.0000 N   0  3  0  0  0  0  0  0  0  0  0  0
    7.8124   -7.2754    0.0000 C   0  0  2  0  0  0  0  0  0  0  0  0
 23  8  1  6  0  0  0
  8  7  1  0  0  0  0
  4  1  1  0  0  0  0
  7  2  2  0  0  0  0
  3  2  1  0  0  0  0
  4  3  2  0  0  0  0
  5  4  1  0  0  0  0
  6  5  2  0  0  0  0
  7  6  1  0  0  0  0
 16 10  1  0  0  0  0
 10  9  1  0  0  0  0
 22 11  1  0  0  0  0
 22 12  1  0  0  0  0
 17 13  1  0  0  0  0
 19 14  2  0  0  0  0
 23 14  1  0  0  0  0
 15 14  1  0  0  0  0
 16 15  2  0  0  0  0
 17 16  1  0  0  0  0
 18 17  2  0  0  0  0
 19 18  1  0  0  0  0
 20 19  1  0  0  0  0
 21 20  1  0  0  0  0
 22 21  1  0  0  0  0
 23 22  1  0  0  0  0
M  CHG  1  22   1
M  END
>  <cdx:fragmentId>
7645

$$$$
