2745.cdx
  Mrv1902 05222410272D          

 26 29  0  0  0  0            999 V2000
    6.7653   -7.0252    0.0000 C   0  0  0  0  0  0  0  0  0  0  0  0
    7.4797   -6.6127    0.0000 N   0  3  0  0  0  0  0  0  0  0  0  0
    7.4797   -5.7877    0.0000 C   0  0  0  0  0  0  0  0  0  0  0  0
    6.7653   -5.3752    0.0000 C   0  0  0  0  0  0  0  0  0  0  0  0
    6.0508   -5.7877    0.0000 C   0  0  0  0  0  0  0  0  0  0  0  0
    5.3363   -5.3752    0.0000 C   0  0  0  0  0  0  0  0  0  0  0  0
    4.6219   -5.7877    0.0000 C   0  0  0  0  0  0  0  0  0  0  0  0
    4.6219   -6.6127    0.0000 C   0  0  0  0  0  0  0  0  0  0  0  0
    5.3363   -7.0252    0.0000 C   0  0  0  0  0  0  0  0  0  0  0  0
    6.0508   -6.6127    0.0000 C   0  0  0  0  0  0  0  0  0  0  0  0
    8.1942   -7.0252    0.0000 C   0  0  0  0  0  0  0  0  0  0  0  0
    8.9087   -6.6127    0.0000 C   0  0  0  0  0  0  0  0  0  0  0  0
    8.9087   -5.7877    0.0000 C   0  0  0  0  0  0  0  0  0  0  0  0
    9.6231   -5.3752    0.0000 C   0  0  0  0  0  0  0  0  0  0  0  0
    9.6231   -4.5502    0.0000 C   0  0  0  0  0  0  0  0  0  0  0  0
    8.9087   -4.1377    0.0000 C   0  0  0  0  0  0  0  0  0  0  0  0
    8.1942   -4.5502    0.0000 C   0  0  0  0  0  0  0  0  0  0  0  0
    8.1942   -5.3752    0.0000 C   0  0  0  0  0  0  0  0  0  0  0  0
    8.9087   -3.3127    0.0000 O   0  0  0  0  0  0  0  0  0  0  0  0
    3.9074   -7.0252    0.0000 O   0  0  0  0  0  0  0  0  0  0  0  0
    3.1929   -6.6127    0.0000 C   0  0  0  0  0  0  0  0  0  0  0  0
    5.3363   -7.8502    0.0000 O   0  0  0  0  0  0  0  0  0  0  0  0
    4.6219   -8.2627    0.0000 C   0  0  0  0  0  0  0  0  0  0  0  0
   10.3376   -4.1377    0.0000 O   0  0  0  0  0  0  0  0  0  0  0  0
   11.0521   -4.5502    0.0000 C   0  0  0  0  0  0  0  0  0  0  0  0
    6.7653   -4.5502    0.0000 C   0  0  0  0  0  0  0  0  0  0  0  0
  1  2  1  0  0  0  0
  2  3  2  0  0  0  0
  3  4  1  0  0  0  0
  4  5  2  0  0  0  0
  5  6  1  0  0  0  0
  6  7  2  0  0  0  0
  7  8  1  0  0  0  0
  8  9  2  0  0  0  0
  9 10  1  0  0  0  0
  1 10  2  0  0  0  0
  5 10  1  0  0  0  0
 11 12  1  0  0  0  0
 12 13  1  0  0  0  0
 13 14  2  0  0  0  0
 14 15  1  0  0  0  0
 15 16  2  0  0  0  0
 16 17  1  0  0  0  0
 17 18  2  0  0  0  0
 13 18  1  0  0  0  0
 11  2  1  0  0  0  0
 18  3  1  0  0  0  0
 16 19  1  0  0  0  0
 20 21  1  0  0  0  0
  8 20  1  0  0  0  0
 22 23  1  0  0  0  0
  9 22  1  0  0  0  0
 24 25  1  0  0  0  0
 15 24  1  0  0  0  0
  4 26  1  0  0  0  0
M  CHG  1   2   1
M  END
>  <cdx:fragmentId>
102

$$$$
