274622.cdx
  Mrv1902 05222410202D          

 53 56  0  0  0  0            999 V2000
   15.0168  -11.2835    0.0000 C   0  0  0  0  0  0  0  0  0  0  0  0
   15.7312  -10.8710    0.0000 C   0  0  0  0  0  0  0  0  0  0  0  0
   16.4457  -11.2835    0.0000 C   0  0  0  0  0  0  0  0  0  0  0  0
   15.0168  -12.1085    0.0000 O   0  0  0  0  0  0  0  0  0  0  0  0
   14.3023  -10.8710    0.0000 O   0  0  0  0  0  0  0  0  0  0  0  0
   17.1602  -10.8710    0.0000 C   0  0  0  0  0  0  0  0  0  0  0  0
   17.8746  -11.2835    0.0000 C   0  0  0  0  0  0  0  0  0  0  0  0
   18.5891  -10.8710    0.0000 C   0  0  0  0  0  0  0  0  0  0  0  0
   18.5891  -10.0460    0.0000 C   0  0  0  0  0  0  0  0  0  0  0  0
   17.8746   -9.6335    0.0000 C   0  0  0  0  0  0  0  0  0  0  0  0
   17.1602  -10.0460    0.0000 C   0  0  0  0  0  0  0  0  0  0  0  0
   19.3036  -11.2835    0.0000 O   0  0  0  0  0  0  0  0  0  0  0  0
   20.0181  -10.8710    0.0000 C   0  0  0  0  0  0  0  0  0  0  0  0
   19.3036   -9.6335    0.0000 O   0  0  0  0  0  0  0  0  0  0  0  0
   13.5878  -11.2835    0.0000 C   0  0  0  0  0  0  0  0  0  0  0  0
   12.8733  -10.8710    0.0000 C   0  0  0  0  0  0  0  0  0  0  0  0
   12.1589  -11.2835    0.0000 C   0  0  0  0  0  0  0  0  0  0  0  0
   11.4444  -10.8710    0.0000 C   0  0  0  0  0  0  0  0  0  0  0  0
   10.7299  -11.2835    0.0000 C   0  0  0  0  0  0  0  0  0  0  0  0
   10.0155  -10.8710    0.0000 C   0  0  0  0  0  0  0  0  0  0  0  0
   10.0155  -10.0460    0.0000 C   0  0  0  0  0  0  0  0  0  0  0  0
   10.7299   -9.6335    0.0000 C   0  0  0  0  0  0  0  0  0  0  0  0
   11.4444  -10.0460    0.0000 C   0  0  0  0  0  0  0  0  0  0  0  0
    9.3010  -11.2835    0.0000 O   0  0  0  0  0  0  0  0  0  0  0  0
    8.5865  -10.8710    0.0000 C   0  0  0  0  0  0  0  0  0  0  0  0
    9.3010   -9.6335    0.0000 O   0  0  0  0  0  0  0  0  0  0  0  0
   10.0155   -8.3960    0.0000 C   0  0  1  0  0  0  0  0  0  0  0  0
    9.3010   -8.8085    0.0000 C   0  0  2  0  0  0  0  0  0  0  0  0
    8.5865   -8.3960    0.0000 C   0  0  0  0  0  0  0  0  0  0  0  0
    8.5865   -7.5710    0.0000 O   0  0  0  0  0  0  0  0  0  0  0  0
    7.8720   -7.1585    0.0000 C   0  0  0  0  0  0  0  0  0  0  0  0
    7.1576   -7.5710    0.0000 C   0  0  0  0  0  0  0  0  0  0  0  0
    6.4431   -7.1585    0.0000 C   0  0  0  0  0  0  0  0  0  0  0  0
    7.8720   -6.3335    0.0000 O   0  0  0  0  0  0  0  0  0  0  0  0
    5.7286   -7.5710    0.0000 C   0  0  0  0  0  0  0  0  0  0  0  0
    5.0142   -7.1585    0.0000 C   0  0  0  0  0  0  0  0  0  0  0  0
    4.2997   -7.5710    0.0000 C   0  0  0  0  0  0  0  0  0  0  0  0
    4.2997   -8.3960    0.0000 C   0  0  0  0  0  0  0  0  0  0  0  0
    5.0142   -8.8085    0.0000 C   0  0  0  0  0  0  0  0  0  0  0  0
    5.7286   -8.3960    0.0000 C   0  0  0  0  0  0  0  0  0  0  0  0
    3.5852   -7.1585    0.0000 O   0  0  0  0  0  0  0  0  0  0  0  0
    2.8707   -7.5710    0.0000 C   0  0  0  0  0  0  0  0  0  0  0  0
    3.5852   -8.8085    0.0000 O   0  0  0  0  0  0  0  0  0  0  0  0
   10.0155   -7.5710    0.0000 C   0  0  0  0  0  0  0  0  0  0  0  0
   10.7299   -7.1585    0.0000 C   0  0  0  0  0  0  0  0  0  0  0  0
   10.7299   -6.3335    0.0000 C   0  0  0  0  0  0  0  0  0  0  0  0
   10.0155   -5.9210    0.0000 C   0  0  0  0  0  0  0  0  0  0  0  0
    9.3010   -6.3335    0.0000 C   0  0  0  0  0  0  0  0  0  0  0  0
    9.3010   -7.1585    0.0000 C   0  0  0  0  0  0  0  0  0  0  0  0
   11.4444   -5.9210    0.0000 O   0  0  0  0  0  0  0  0  0  0  0  0
   11.4444   -5.0960    0.0000 C   0  0  0  0  0  0  0  0  0  0  0  0
   10.0155   -5.0960    0.0000 O   0  0  0  0  0  0  0  0  0  0  0  0
   10.7299   -8.8085    0.0000 O   0  0  0  0  0  0  0  0  0  0  0  0
  1  2  1  0  0  0  0
  2  3  2  0  0  0  0
  1  4  2  0  0  0  0
  1  5  1  0  0  0  0
  6  7  1  0  0  0  0
  7  8  2  0  0  0  0
  8  9  1  0  0  0  0
  9 10  2  0  0  0  0
 10 11  1  0  0  0  0
  6 11  2  0  0  0  0
 12 13  1  0  0  0  0
  8 12  1  0  0  0  0
  9 14  1  0  0  0  0
  3  6  1  0  0  0  0
 15 16  1  0  0  0  0
 16 17  1  0  0  0  0
 18 19  1  0  0  0  0
 19 20  2  0  0  0  0
 20 21  1  0  0  0  0
 21 22  2  0  0  0  0
 22 23  1  0  0  0  0
 18 23  2  0  0  0  0
 24 25  1  0  0  0  0
 20 24  1  0  0  0  0
 27 28  1  0  0  0  0
 28 29  1  0  0  0  0
 31 32  1  0  0  0  0
 32 33  2  0  0  0  0
 31 34  2  0  0  0  0
 35 36  1  0  0  0  0
 36 37  2  0  0  0  0
 37 38  1  0  0  0  0
 38 39  2  0  0  0  0
 39 40  1  0  0  0  0
 35 40  2  0  0  0  0
 41 42  1  0  0  0  0
 37 41  1  0  0  0  0
 38 43  1  0  0  0  0
 33 35  1  0  0  0  0
 30 31  1  0  0  0  0
 29 30  1  0  0  0  0
 44 45  1  0  0  0  0
 45 46  2  0  0  0  0
 46 47  1  0  0  0  0
 47 48  2  0  0  0  0
 48 49  1  0  0  0  0
 44 49  2  0  0  0  0
 50 51  1  0  0  0  0
 46 50  1  0  0  0  0
 47 52  1  0  0  0  0
 27 44  1  0  0  0  0
 27 53  1  1  0  0  0
 28 26  1  1  0  0  0
 21 26  1  0  0  0  0
 17 18  1  0  0  0  0
  5 15  1  0  0  0  0
M  END
>  <cdx:fragmentId>
73

$$$$
