274624.cdx
  Mrv1902 05222410192D          

 52 56  0  0  0  0            999 V2000
   15.2138   -8.5089    0.0000 C   0  0  0  0  0  0  0  0  0  0  0  0
   15.9283   -8.0964    0.0000 C   0  0  0  0  0  0  0  0  0  0  0  0
   16.6428   -8.5089    0.0000 C   0  0  0  0  0  0  0  0  0  0  0  0
   15.2138   -9.3339    0.0000 O   0  0  0  0  0  0  0  0  0  0  0  0
   14.4994   -8.0964    0.0000 O   0  0  0  0  0  0  0  0  0  0  0  0
   17.3572   -8.0964    0.0000 C   0  0  0  0  0  0  0  0  0  0  0  0
   18.0717   -8.5089    0.0000 C   0  0  0  0  0  0  0  0  0  0  0  0
   18.7862   -8.0964    0.0000 C   0  0  0  0  0  0  0  0  0  0  0  0
   18.7862   -7.2714    0.0000 C   0  0  0  0  0  0  0  0  0  0  0  0
   18.0717   -6.8589    0.0000 C   0  0  0  0  0  0  0  0  0  0  0  0
   17.3572   -7.2714    0.0000 C   0  0  0  0  0  0  0  0  0  0  0  0
   19.5006   -8.5089    0.0000 O   0  0  0  0  0  0  0  0  0  0  0  0
   20.2151   -8.0964    0.0000 C   0  0  0  0  0  0  0  0  0  0  0  0
   19.5006   -6.8589    0.0000 O   0  0  0  0  0  0  0  0  0  0  0  0
   13.7849   -8.5089    0.0000 C   0  0  0  0  0  0  0  0  0  0  0  0
   13.0704   -8.0964    0.0000 C   0  0  0  0  0  0  0  0  0  0  0  0
   12.3559   -8.5089    0.0000 C   0  0  0  0  0  0  0  0  0  0  0  0
    9.4279   -7.0164    0.0000 O   0  0  0  0  0  0  0  0  0  0  0  0
    8.9430   -7.6839    0.0000 C   0  0  2  0  0  0  0  0  0  0  0  0
    9.4279   -8.3513    0.0000 C   0  0  1  0  0  0  0  0  0  0  0  0
   10.2125   -8.0964    0.0000 C   0  0  0  0  0  0  0  0  0  0  0  0
   10.9270   -8.5089    0.0000 C   0  0  0  0  0  0  0  0  0  0  0  0
   11.6415   -8.0964    0.0000 C   0  0  0  0  0  0  0  0  0  0  0  0
   11.6415   -7.2714    0.0000 C   0  0  0  0  0  0  0  0  0  0  0  0
   10.9270   -6.8589    0.0000 C   0  0  0  0  0  0  0  0  0  0  0  0
   10.2125   -7.2714    0.0000 C   0  0  0  0  0  0  0  0  0  0  0  0
   10.9270   -6.0339    0.0000 O   0  0  0  0  0  0  0  0  0  0  0  0
   10.2125   -5.6214    0.0000 C   0  0  0  0  0  0  0  0  0  0  0  0
    9.1730   -9.1359    0.0000 C   0  0  0  0  0  0  0  0  0  0  0  0
    8.3660   -9.3075    0.0000 O   0  0  0  0  0  0  0  0  0  0  0  0
    8.1111  -10.0921    0.0000 C   0  0  0  0  0  0  0  0  0  0  0  0
    7.3041  -10.2636    0.0000 C   0  0  0  0  0  0  0  0  0  0  0  0
    7.0491  -11.0482    0.0000 C   0  0  0  0  0  0  0  0  0  0  0  0
    8.6631  -10.7052    0.0000 O   0  0  0  0  0  0  0  0  0  0  0  0
    6.2422  -11.2198    0.0000 C   0  0  0  0  0  0  0  0  0  0  0  0
    5.9872  -12.0044    0.0000 C   0  0  0  0  0  0  0  0  0  0  0  0
    5.1803  -12.1759    0.0000 C   0  0  0  0  0  0  0  0  0  0  0  0
    4.6282  -11.5628    0.0000 C   0  0  0  0  0  0  0  0  0  0  0  0
    4.8832  -10.7782    0.0000 C   0  0  0  0  0  0  0  0  0  0  0  0
    5.6901  -10.6067    0.0000 C   0  0  0  0  0  0  0  0  0  0  0  0
    4.9253  -12.9605    0.0000 O   0  0  0  0  0  0  0  0  0  0  0  0
    4.1183  -13.1321    0.0000 C   0  0  0  0  0  0  0  0  0  0  0  0
    3.8213  -11.7344    0.0000 O   0  0  0  0  0  0  0  0  0  0  0  0
    8.1180   -7.6839    0.0000 C   0  0  0  0  0  0  0  0  0  0  0  0
    7.7055   -8.3984    0.0000 C   0  0  0  0  0  0  0  0  0  0  0  0
    6.8805   -8.3984    0.0000 C   0  0  0  0  0  0  0  0  0  0  0  0
    6.4680   -7.6839    0.0000 C   0  0  0  0  0  0  0  0  0  0  0  0
    6.8805   -6.9694    0.0000 C   0  0  0  0  0  0  0  0  0  0  0  0
    7.7055   -6.9694    0.0000 C   0  0  0  0  0  0  0  0  0  0  0  0
    6.4680   -9.1128    0.0000 O   0  0  0  0  0  0  0  0  0  0  0  0
    5.6430   -9.1128    0.0000 C   0  0  0  0  0  0  0  0  0  0  0  0
    5.6430   -7.6839    0.0000 O   0  0  0  0  0  0  0  0  0  0  0  0
  1  2  1  0  0  0  0
  2  3  2  0  0  0  0
  1  4  2  0  0  0  0
  1  5  1  0  0  0  0
  6  7  1  0  0  0  0
  7  8  2  0  0  0  0
  8  9  1  0  0  0  0
  9 10  2  0  0  0  0
 10 11  1  0  0  0  0
  6 11  2  0  0  0  0
 12 13  1  0  0  0  0
  8 12  1  0  0  0  0
  9 14  1  0  0  0  0
  3  6  1  0  0  0  0
 15 16  1  0  0  0  0
 16 17  1  0  0  0  0
 18 19  1  0  0  0  0
 19 20  1  0  0  0  0
 20 21  1  0  0  0  0
 21 22  1  0  0  0  0
 22 23  2  0  0  0  0
 23 24  1  0  0  0  0
 24 25  2  0  0  0  0
 25 26  1  0  0  0  0
 21 26  2  0  0  0  0
 18 26  1  0  0  0  0
 27 28  1  0  0  0  0
 25 27  1  0  0  0  0
 31 32  1  0  0  0  0
 32 33  2  0  0  0  0
 31 34  2  0  0  0  0
 35 36  1  0  0  0  0
 36 37  2  0  0  0  0
 37 38  1  0  0  0  0
 38 39  2  0  0  0  0
 39 40  1  0  0  0  0
 35 40  2  0  0  0  0
 41 42  1  0  0  0  0
 37 41  1  0  0  0  0
 38 43  1  0  0  0  0
 33 35  1  0  0  0  0
 30 31  1  0  0  0  0
 29 30  1  0  0  0  0
 20 29  1  1  0  0  0
 44 45  1  0  0  0  0
 45 46  2  0  0  0  0
 46 47  1  0  0  0  0
 47 48  2  0  0  0  0
 48 49  1  0  0  0  0
 44 49  2  0  0  0  0
 50 51  1  0  0  0  0
 46 50  1  0  0  0  0
 47 52  1  0  0  0  0
 19 44  1  6  0  0  0
 17 23  1  0  0  0  0
  5 15  1  0  0  0  0
M  END
>  <cdx:fragmentId>
73

$$$$
