27470.cdx
  Mrv1902 05222410192D          

  9  8  0  0  0  0            999 V2000
    2.4931   -4.5177    0.0000 C   0  0  0  0  0  0  0  0  0  0  0  0
    3.2076   -4.1052    0.0000 C   0  0  0  0  0  0  0  0  0  0  0  0
    3.9220   -4.5177    0.0000 C   0  0  0  0  0  0  0  0  0  0  0  0
    4.6365   -4.1052    0.0000 C   0  0  0  0  0  0  0  0  0  0  0  0
    5.3510   -4.5177    0.0000 C   0  0  0  0  0  0  0  0  0  0  0  0
    6.0654   -4.1052    0.0000 C   0  0  0  0  0  0  0  0  0  0  0  0
    6.7799   -4.5177    0.0000 C   0  0  0  0  0  0  0  0  0  0  0  0
    4.6365   -3.2802    0.0000 O   0  0  0  0  0  0  0  0  0  0  0  0
    3.9220   -5.3427    0.0000 C   0  0  0  0  0  0  0  0  0  0  0  0
  1  2  1  0  0  0  0
  2  3  1  0  0  0  0
  3  4  1  0  0  0  0
  4  5  1  0  0  0  0
  5  6  1  0  0  0  0
  6  7  1  0  0  0  0
  4  8  2  0  0  0  0
  3  9  1  0  0  0  0
M  END
>  <cdx:groupId>
28

>  <cdx:fragmentId>
5

$$$$
