2747.cdx
  Mrv1902 05222410282D          

 26 29  0  0  0  0            999 V2000
    9.9089   -5.9480    0.0000 C   0  0  0  0  0  0  0  0  0  0  0  0
    9.1931   -5.5378    0.0000 C   0  0  0  0  0  0  0  0  0  0  0  0
    8.4799   -5.9526    0.0000 C   0  0  0  0  0  0  0  0  0  0  0  0
    8.4826   -6.7776    0.0000 C   0  0  0  0  0  0  0  0  0  0  0  0
    9.1984   -7.1878    0.0000 C   0  0  0  0  0  0  0  0  0  0  0  0
    9.9115   -6.7730    0.0000 C   0  0  0  0  0  0  0  0  0  0  0  0
    7.7694   -7.1924    0.0000 C   0  0  0  0  0  0  0  0  0  0  0  0
    7.7721   -8.0174    0.0000 N   0  3  0  0  0  0  0  0  0  0  0  0
    8.4879   -8.4276    0.0000 C   0  0  0  0  0  0  0  0  0  0  0  0
    9.2010   -8.0128    0.0000 C   0  0  0  0  0  0  0  0  0  0  0  0
    7.0536   -6.7822    0.0000 C   0  0  0  0  0  0  0  0  0  0  0  0
    6.3405   -7.1969    0.0000 C   0  0  0  0  0  0  0  0  0  0  0  0
    6.3431   -8.0219    0.0000 C   0  0  0  0  0  0  0  0  0  0  0  0
    7.0589   -8.4321    0.0000 C   0  0  0  0  0  0  0  0  0  0  0  0
    5.6247   -6.7867    0.0000 C   0  0  0  0  0  0  0  0  0  0  0  0
    4.9116   -7.2015    0.0000 C   0  0  0  0  0  0  0  0  0  0  0  0
    4.9142   -8.0265    0.0000 C   0  0  0  0  0  0  0  0  0  0  0  0
    5.6300   -8.4367    0.0000 C   0  0  0  0  0  0  0  0  0  0  0  0
   10.6220   -5.5332    0.0000 O   0  0  0  0  0  0  0  0  0  0  0  0
    9.9036   -4.2980    0.0000 C   0  0  0  0  0  0  0  0  0  0  0  0
    9.1904   -4.7128    0.0000 O   0  0  0  0  0  0  0  0  0  0  0  0
    4.2011   -8.4413    0.0000 O   0  0  0  0  0  0  0  0  0  0  0  0
    4.9195   -9.6765    0.0000 C   0  0  0  0  0  0  0  0  0  0  0  0
    5.6326   -9.2617    0.0000 O   0  0  0  0  0  0  0  0  0  0  0  0
    3.4853   -8.0311    0.0000 C   0  0  0  0  0  0  0  0  0  0  0  0
    7.0510   -5.9572    0.0000 C   0  0  0  0  0  0  0  0  0  0  0  0
  1  2  2  0  0  0  0
  2  3  1  0  0  0  0
  3  4  2  0  0  0  0
  4  5  1  0  0  0  0
  5  6  2  0  0  0  0
  6  1  1  0  0  0  0
  4  7  1  0  0  0  0
  7  8  2  0  0  0  0
  8  9  1  0  0  0  0
  9 10  1  0  0  0  0
 10  5  1  0  0  0  0
  7 11  1  0  0  0  0
 11 12  2  0  0  0  0
 12 13  1  0  0  0  0
 13 14  2  0  0  0  0
 14  8  1  0  0  0  0
 12 15  1  0  0  0  0
 15 16  2  0  0  0  0
 16 17  1  0  0  0  0
 17 18  2  0  0  0  0
 18 13  1  0  0  0  0
  1 19  1  0  0  0  0
 20 21  1  0  0  0  0
 21  2  1  0  0  0  0
 17 22  1  0  0  0  0
 23 24  1  0  0  0  0
 24 18  1  0  0  0  0
 22 25  1  0  0  0  0
 11 26  1  0  0  0  0
M  CHG  1   8   1
M  END
>  <cdx:fragmentId>
5

$$$$
