2748.cdx
  Mrv1902 05222410192D          

 26 29  0  0  0  0            999 V2000
    9.9003   -5.9257    0.0000 C   0  0  0  0  0  0  0  0  0  0  0  0
    9.1812   -5.5214    0.0000 C   0  0  0  0  0  0  0  0  0  0  0  0
    8.4715   -5.9420    0.0000 C   0  0  0  0  0  0  0  0  0  0  0  0
    8.4809   -6.7669    0.0000 C   0  0  0  0  0  0  0  0  0  0  0  0
    9.2000   -7.1713    0.0000 C   0  0  0  0  0  0  0  0  0  0  0  0
    9.9097   -6.7506    0.0000 C   0  0  0  0  0  0  0  0  0  0  0  0
    7.7712   -7.1876    0.0000 C   0  0  0  0  0  0  0  0  0  0  0  0
    7.7806   -8.0125    0.0000 N   0  3  0  0  0  0  0  0  0  0  0  0
    8.4997   -8.4168    0.0000 C   0  0  0  0  0  0  0  0  0  0  0  0
    9.2094   -7.9962    0.0000 C   0  0  0  0  0  0  0  0  0  0  0  0
    7.0520   -6.7832    0.0000 C   0  0  0  0  0  0  0  0  0  0  0  0
    6.3423   -7.2039    0.0000 C   0  0  0  0  0  0  0  0  0  0  0  0
    6.3517   -8.0288    0.0000 C   0  0  0  0  0  0  0  0  0  0  0  0
    7.0709   -8.4331    0.0000 C   0  0  0  0  0  0  0  0  0  0  0  0
    5.6232   -6.7995    0.0000 C   0  0  0  0  0  0  0  0  0  0  0  0
    4.9135   -7.2202    0.0000 C   0  0  0  0  0  0  0  0  0  0  0  0
    4.9229   -8.0451    0.0000 C   0  0  0  0  0  0  0  0  0  0  0  0
    5.6420   -8.4494    0.0000 C   0  0  0  0  0  0  0  0  0  0  0  0
   10.6100   -5.5051    0.0000 O   0  0  0  0  0  0  0  0  0  0  0  0
    9.8815   -4.2758    0.0000 C   0  0  0  0  0  0  0  0  0  0  0  0
    9.1718   -4.6964    0.0000 O   0  0  0  0  0  0  0  0  0  0  0  0
    4.2132   -8.4657    0.0000 O   0  0  0  0  0  0  0  0  0  0  0  0
    4.9417   -9.6950    0.0000 C   0  0  0  0  0  0  0  0  0  0  0  0
    5.6514   -9.2744    0.0000 O   0  0  0  0  0  0  0  0  0  0  0  0
    3.4940   -8.0614    0.0000 C   0  0  0  0  0  0  0  0  0  0  0  0
    7.0426   -5.9583    0.0000 O   0  0  0  0  0  0  0  0  0  0  0  0
  1  2  2  0  0  0  0
  2  3  1  0  0  0  0
  3  4  2  0  0  0  0
  4  5  1  0  0  0  0
  5  6  2  0  0  0  0
  6  1  1  0  0  0  0
  4  7  1  0  0  0  0
  7  8  2  0  0  0  0
  8  9  1  0  0  0  0
  9 10  1  0  0  0  0
 10  5  1  0  0  0  0
  7 11  1  0  0  0  0
 11 12  2  0  0  0  0
 12 13  1  0  0  0  0
 13 14  2  0  0  0  0
 14  8  1  0  0  0  0
 12 15  1  0  0  0  0
 15 16  2  0  0  0  0
 16 17  1  0  0  0  0
 17 18  2  0  0  0  0
 18 13  1  0  0  0  0
  1 19  1  0  0  0  0
 20 21  1  0  0  0  0
 21  2  1  0  0  0  0
 17 22  1  0  0  0  0
 23 24  1  0  0  0  0
 24 18  1  0  0  0  0
 22 25  1  0  0  0  0
 11 26  1  0  0  0  0
M  CHG  1   8   1
M  END
>  <cdx:fragmentId>
5

$$$$
