275196.cdx
  Mrv1902 05222410242D          

 32 36  0  0  0  0            999 V2000
    8.6733  -10.6657    0.0000 C   0  0  0  0  0  0  0  0  0  0  0  0
    8.6635   -9.8408    0.0000 C   0  0  0  0  0  0  0  0  0  0  0  0
    7.9436   -9.4368    0.0000 C   0  0  0  0  0  0  0  0  0  0  0  0
    7.2336   -9.8578    0.0000 C   0  0  0  0  0  0  0  0  0  0  0  0
    7.2434  -10.6827    0.0000 C   0  0  0  0  0  0  0  0  0  0  0  0
    7.9633  -11.0867    0.0000 C   0  0  0  0  0  0  0  0  0  0  0  0
    9.4462  -10.9040    0.0000 O   0  0  0  0  0  0  0  0  0  0  0  0
    9.9333  -10.2382    0.0000 C   0  0  0  0  0  0  0  0  0  0  0  0
    9.4305   -9.5841    0.0000 O   0  0  0  0  0  0  0  0  0  0  0  0
    6.5138   -9.4538    0.0000 C   0  0  1  0  0  0  0  0  0  0  0  0
    5.8039   -9.8747    0.0000 N   0  0  0  0  0  0  0  0  0  0  0  0
    5.8137  -10.6997    0.0000 C   0  0  0  0  0  0  0  0  0  0  0  0
    6.5335  -11.1037    0.0000 C   0  0  0  0  0  0  0  0  0  0  0  0
    7.9338   -8.6120    0.0000 O   0  0  0  0  0  0  0  0  0  0  0  0
    8.6439   -8.1911    0.0000 C   0  0  0  0  0  0  0  0  0  0  0  0
    5.0841   -9.4708    0.0000 C   0  0  0  0  0  0  0  0  0  0  0  0
    5.7994   -9.0413    0.0000 H   0  0  0  0  0  0  0  0  0  0  0  0
    3.3741   -6.6851    0.0000 C   0  0  0  0  0  0  0  0  0  0  0  0
    4.1626   -6.5051    0.0000 O   0  0  0  0  0  0  0  0  0  0  0  0
    5.1701   -5.5728    0.0000 C   0  0  0  0  0  0  0  0  0  0  0  0
    5.7535   -6.1562    0.0000 O   0  0  0  0  0  0  0  0  0  0  0  0
    7.3845   -6.8793    0.0000 O   0  0  0  0  0  0  0  0  0  0  0  0
    5.5151   -6.9291    0.0000 C   0  0  0  0  0  0  0  0  0  0  0  0
    4.7200   -7.1311    0.0000 C   0  0  0  0  0  0  0  0  0  0  0  0
    4.4542   -7.9042    0.0000 C   0  0  0  0  0  0  0  0  0  0  0  0
    5.0114   -8.5027    0.0000 C   0  0  0  0  0  0  0  0  0  0  0  0
    7.2969   -9.0285    0.0000 H   0  0  0  0  0  0  0  0  0  0  0  0
    7.1542   -8.3122    0.0000 O   0  0  0  0  0  0  0  0  0  0  0  0
    6.8975   -7.5452    0.0000 C   0  0  0  0  0  0  0  0  0  0  0  0
    6.0727   -7.5550    0.0000 C   0  0  0  0  0  0  0  0  0  0  0  0
    5.8343   -8.3279    0.0000 C   0  0  0  0  0  0  0  0  0  0  0  0
    6.5000   -8.8149    0.0000 C   0  0  1  0  0  0  0  0  0  0  0  0
 19 18  1  0  0  0  0
 24 19  1  0  0  0  0
 21 20  1  0  0  0  0
 23 21  1  0  0  0  0
 29 22  2  0  0  0  0
 30 23  1  0  0  0  0
 24 23  2  0  0  0  0
 25 24  1  0  0  0  0
 26 25  2  0  0  0  0
 31 26  1  0  0  0  0
 32 27  1  1  0  0  0
 32 28  1  0  0  0  0
 29 28  1  0  0  0  0
 30 29  1  0  0  0  0
 31 30  2  0  0  0  0
  1  2  2  0  0  0  0
  2  3  1  0  0  0  0
  3  4  2  0  0  0  0
  4  5  1  0  0  0  0
  5  6  2  0  0  0  0
  1  6  1  0  0  0  0
  1  7  1  0  0  0  0
  7  8  1  0  0  0  0
  8  9  1  0  0  0  0
  2  9  1  0  0  0  0
  4 10  1  0  0  0  0
 10 11  1  0  0  0  0
 11 12  1  0  0  0  0
 12 13  1  0  0  0  0
  5 13  1  0  0  0  0
  3 14  1  0  0  0  0
 14 15  1  0  0  0  0
 11 16  1  0  0  0  0
 10 32  1  0  0  0  0
 32 31  1  0  0  0  0
 10 17  1  6  0  0  0
M  END
>  <cdx:fragmentId>
5309

$$$$
