275508.cdx
  Mrv1902 05222410282D          

 18 17  0  0  0  0            999 V2000
   10.5989   -6.8678    0.0000 C   0  0  0  0  0  0  0  0  0  0  0  0
    9.8844   -7.2803    0.0000 C   0  0  0  0  0  0  0  0  0  0  0  0
    9.1699   -6.8678    0.0000 C   0  0  0  0  0  0  0  0  0  0  0  0
    8.4555   -7.2803    0.0000 C   0  0  0  0  0  0  0  0  0  0  0  0
    7.7410   -6.8678    0.0000 C   0  0  0  0  0  0  0  0  0  0  0  0
    7.0265   -7.2803    0.0000 C   0  0  0  0  0  0  0  0  0  0  0  0
    6.3120   -6.8678    0.0000 C   0  0  0  0  0  0  0  0  0  0  0  0
    5.5976   -7.2803    0.0000 C   0  0  0  0  0  0  0  0  0  0  0  0
    4.8831   -6.8678    0.0000 C   0  0  0  0  0  0  0  0  0  0  0  0
    4.1686   -7.2803    0.0000 C   0  0  0  0  0  0  0  0  0  0  0  0
    3.4542   -6.8678    0.0000 C   0  0  0  0  0  0  0  0  0  0  0  0
    3.4542   -6.0428    0.0000 C   0  0  0  0  0  0  0  0  0  0  0  0
   10.5989   -6.0428    0.0000 O   0  0  0  0  0  0  0  0  0  0  0  0
   11.3133   -7.2803    0.0000 O   0  0  0  0  0  0  0  0  0  0  0  0
    2.7397   -7.2803    0.0000 C   0  0  0  0  0  0  0  0  0  0  0  0
    6.3120   -6.0428    0.0000 C   0  0  0  0  0  0  0  0  0  0  0  0
    9.1699   -6.0428    0.0000 C   0  0  0  0  0  0  0  0  0  0  0  0
   12.0278   -6.8678    0.0000 C   0  0  0  0  0  0  0  0  0  0  0  0
  1  2  1  0  0  0  0
  2  3  2  0  0  0  0
  3  4  1  0  0  0  0
  4  5  1  0  0  0  0
  5  6  1  0  0  0  0
  6  7  2  0  0  0  0
  7  8  1  0  0  0  0
  8  9  1  0  0  0  0
  9 10  1  0  0  0  0
 10 11  2  0  0  0  0
 11 12  1  0  0  0  0
  1 13  2  0  0  0  0
  1 14  1  0  0  0  0
 11 15  1  0  0  0  0
  7 16  1  0  0  0  0
  3 17  1  0  0  0  0
 14 18  1  0  0  0  0
M  END
>  <cdx:fragmentId>
8108

$$$$
