5275521.cdx
  Mrv1902 05222410282D          

 22 21  0  0  0  0            999 V2000
   12.0708   -7.1153    0.0000 C   0  0  0  0  0  0  0  0  0  0  0  0
   11.3563   -7.5278    0.0000 C   0  0  0  0  0  0  0  0  0  0  0  0
   10.6418   -7.1153    0.0000 C   0  0  0  0  0  0  0  0  0  0  0  0
   10.6418   -6.2903    0.0000 C   0  0  0  0  0  0  0  0  0  0  0  0
    9.9273   -7.5278    0.0000 C   0  0  0  0  0  0  0  0  0  0  0  0
    9.2129   -7.1153    0.0000 C   0  0  0  0  0  0  0  0  0  0  0  0
    8.4984   -7.5278    0.0000 C   0  0  0  0  0  0  0  0  0  0  0  0
    7.7839   -7.1153    0.0000 C   0  0  0  0  0  0  0  0  0  0  0  0
    7.7839   -6.2903    0.0000 C   0  0  0  0  0  0  0  0  0  0  0  0
    7.0695   -7.5278    0.0000 C   0  0  0  0  0  0  0  0  0  0  0  0
    6.3550   -7.1153    0.0000 C   0  0  0  0  0  0  0  0  0  0  0  0
    5.6405   -7.5278    0.0000 C   0  0  0  0  0  0  0  0  0  0  0  0
    4.9260   -7.1153    0.0000 C   0  0  0  0  0  0  0  0  0  0  0  0
    4.9260   -6.2903    0.0000 C   0  0  0  0  0  0  0  0  0  0  0  0
    4.2116   -7.5278    0.0000 C   0  0  0  0  0  0  0  0  0  0  0  0
    3.4971   -7.1153    0.0000 C   0  0  0  0  0  0  0  0  0  0  0  0
    2.7826   -7.5278    0.0000 C   0  0  0  0  0  0  0  0  0  0  0  0
    2.0682   -7.1153    0.0000 C   0  0  0  0  0  0  0  0  0  0  0  0
    1.3537   -7.5278    0.0000 C   0  0  0  0  0  0  0  0  0  0  0  0
    2.0682   -6.2903    0.0000 C   0  0  0  0  0  0  0  0  0  0  0  0
   12.0708   -6.2903    0.0000 O   0  0  0  0  0  0  0  0  0  0  0  0
   12.7852   -7.5278    0.0000 O   0  0  0  0  0  0  0  0  0  0  0  0
  1  2  1  0  0  0  0
  2  3  2  0  0  0  0
  3  4  1  0  0  0  0
  3  5  1  0  0  0  0
  5  6  1  0  0  0  0
  6  7  1  0  0  0  0
  7  8  2  0  0  0  0
  8  9  1  0  0  0  0
  8 10  1  0  0  0  0
 10 11  1  0  0  0  0
 11 12  1  0  0  0  0
 12 13  2  0  0  0  0
 13 14  1  0  0  0  0
 13 15  1  0  0  0  0
 15 16  1  0  0  0  0
 16 17  1  0  0  0  0
 17 18  2  0  0  0  0
 18 19  1  0  0  0  0
 18 20  1  0  0  0  0
  1 21  2  0  0  0  0
  1 22  1  0  0  0  0
M  END
>  <cdx:fragmentId>
8206

$$$$
