5275520.cdx
  Mrv1902 05222410282D          

 12 11  0  0  0  0            999 V2000
   17.2979   -8.6553    0.0000 C   0  0  0  0  0  0  0  0  0  0  0  0
   16.5834   -9.0678    0.0000 C   0  0  0  0  0  0  0  0  0  0  0  0
   15.8689   -8.6553    0.0000 C   0  0  0  0  0  0  0  0  0  0  0  0
   15.8689   -7.8303    0.0000 C   0  0  0  0  0  0  0  0  0  0  0  0
   15.1545   -9.0678    0.0000 C   0  0  0  0  0  0  0  0  0  0  0  0
   14.4400   -8.6553    0.0000 C   0  0  0  0  0  0  0  0  0  0  0  0
   13.7255   -9.0678    0.0000 C   0  0  0  0  0  0  0  0  0  0  0  0
   13.0111   -8.6553    0.0000 C   0  0  0  0  0  0  0  0  0  0  0  0
   12.2966   -9.0678    0.0000 C   0  0  0  0  0  0  0  0  0  0  0  0
   13.0111   -7.8303    0.0000 C   0  0  0  0  0  0  0  0  0  0  0  0
   17.2979   -7.8303    0.0000 O   0  0  0  0  0  0  0  0  0  0  0  0
   18.0123   -9.0678    0.0000 O   0  0  0  0  0  0  0  0  0  0  0  0
  1  2  1  0  0  0  0
  2  3  2  0  0  0  0
  3  4  1  0  0  0  0
  3  5  1  0  0  0  0
  5  6  1  0  0  0  0
  6  7  1  0  0  0  0
  7  8  2  0  0  0  0
  8  9  1  0  0  0  0
  8 10  1  0  0  0  0
  1 11  2  0  0  0  0
  1 12  1  0  0  0  0
M  END
>  <cdx:groupId>
8199

>  <cdx:fragmentId>
8167

$$$$
