2756.cdx
  Mrv1902 05222410262D          

 26 29  0  0  0  0            999 V2000
    7.0678   -7.8228    0.0000 C   0  0  0  0  0  0  0  0  0  0  0  0
    7.7822   -7.4103    0.0000 N   0  3  0  0  0  0  0  0  0  0  0  0
    7.7822   -6.5853    0.0000 C   0  0  0  0  0  0  0  0  0  0  0  0
    7.0678   -6.1728    0.0000 C   0  0  0  0  0  0  0  0  0  0  0  0
    6.3533   -6.5853    0.0000 C   0  0  0  0  0  0  0  0  0  0  0  0
    5.6388   -6.1728    0.0000 C   0  0  0  0  0  0  0  0  0  0  0  0
    4.9244   -6.5853    0.0000 C   0  0  0  0  0  0  0  0  0  0  0  0
    4.9244   -7.4103    0.0000 C   0  0  0  0  0  0  0  0  0  0  0  0
    5.6388   -7.8228    0.0000 C   0  0  0  0  0  0  0  0  0  0  0  0
    6.3533   -7.4103    0.0000 C   0  0  0  0  0  0  0  0  0  0  0  0
    8.4967   -7.8228    0.0000 C   0  0  0  0  0  0  0  0  0  0  0  0
    9.2112   -7.4103    0.0000 C   0  0  0  0  0  0  0  0  0  0  0  0
    9.2112   -6.5853    0.0000 C   0  0  0  0  0  0  0  0  0  0  0  0
    9.9256   -6.1728    0.0000 C   0  0  0  0  0  0  0  0  0  0  0  0
    9.9256   -5.3478    0.0000 C   0  0  0  0  0  0  0  0  0  0  0  0
    9.2112   -4.9353    0.0000 C   0  0  0  0  0  0  0  0  0  0  0  0
    8.4967   -5.3478    0.0000 C   0  0  0  0  0  0  0  0  0  0  0  0
    8.4967   -6.1728    0.0000 C   0  0  0  0  0  0  0  0  0  0  0  0
    5.6388   -8.6478    0.0000 O   0  0  0  0  0  0  0  0  0  0  0  0
    4.2099   -7.8228    0.0000 O   0  0  0  0  0  0  0  0  0  0  0  0
    3.4954   -7.4103    0.0000 C   0  0  0  0  0  0  0  0  0  0  0  0
   10.6401   -4.9353    0.0000 O   0  0  0  0  0  0  0  0  0  0  0  0
   11.3546   -5.3478    0.0000 C   0  0  0  0  0  0  0  0  0  0  0  0
    9.2112   -4.1103    0.0000 O   0  0  0  0  0  0  0  0  0  0  0  0
    9.9256   -3.6978    0.0000 C   0  0  0  0  0  0  0  0  0  0  0  0
    7.0678   -5.3478    0.0000 C   0  0  0  0  0  0  0  0  0  0  0  0
  1  2  1  0  0  0  0
  2  3  2  0  0  0  0
  3  4  1  0  0  0  0
  4  5  2  0  0  0  0
  5  6  1  0  0  0  0
  6  7  2  0  0  0  0
  7  8  1  0  0  0  0
  8  9  2  0  0  0  0
  9 10  1  0  0  0  0
  1 10  2  0  0  0  0
  5 10  1  0  0  0  0
 11 12  1  0  0  0  0
 12 13  1  0  0  0  0
 13 14  1  0  0  0  0
 14 15  2  0  0  0  0
 15 16  1  0  0  0  0
 16 17  2  0  0  0  0
 17 18  1  0  0  0  0
 13 18  2  0  0  0  0
 11  2  1  0  0  0  0
 18  3  1  0  0  0  0
  9 19  1  0  0  0  0
 20 21  1  0  0  0  0
  8 20  1  0  0  0  0
 22 23  1  0  0  0  0
 15 22  1  0  0  0  0
 24 25  1  0  0  0  0
 16 24  1  0  0  0  0
  4 26  1  0  0  0  0
M  CHG  1   2   1
M  END
>  <cdx:fragmentId>
2815

$$$$
