2758.cdx
  Mrv1902 05222410192D          

 11 12  0  0  0  0            999 V2000
    3.7152   -5.1457    0.0000 C   0  0  0  0  0  0  0  0  0  0  0  0
    4.4297   -4.7332    0.0000 O   0  0  0  0  0  0  0  0  0  0  0  0
    4.4297   -3.9082    0.0000 C   0  0  0  0  0  0  0  0  0  0  0  0
    3.7152   -3.4957    0.0000 C   0  0  0  0  0  0  0  0  0  0  0  0
    3.3740   -4.0108    0.0000 C   0  0  0  0  0  0  0  0  0  0  0  0
    3.3740   -4.6295    0.0000 C   0  0  0  0  0  0  0  0  0  0  0  0
    3.0008   -4.7332    0.0000 C   0  0  0  0  0  0  0  0  0  0  0  0
    3.0008   -3.9082    0.0000 C   0  0  0  0  0  0  0  0  0  0  0  0
    4.8422   -3.1937    0.0000 C   0  0  0  0  0  0  0  0  0  0  0  0
    5.2547   -3.9082    0.0000 C   0  0  0  0  0  0  0  0  0  0  0  0
    3.7152   -5.9707    0.0000 C   0  0  0  0  0  0  0  0  0  0  0  0
  1  2  1  0  0  0  0
  2  3  1  0  0  0  0
  3  4  1  0  0  0  0
  4  5  1  0  0  0  0
  5  6  1  0  0  0  0
  7  8  1  0  0  0  0
  1  6  1  0  0  0  0
  1  7  1  0  0  0  0
  8  4  1  0  0  0  0
  3  9  1  0  0  0  0
  3 10  1  0  0  0  0
  1 11  1  0  0  0  0
M  END
>  <cdx:groupId>
36

>  <cdx:fragmentId>
5

$$$$
