276.cdx
  Mrv1902 05222410192D          

 28 31  0  0  0  0            999 V2000
    5.7284   -5.8072    0.0000 C   0  0  0  0  0  0  0  0  0  0  0  0
    5.7284   -6.6322    0.0000 C   0  0  2  0  0  0  0  0  0  0  0  0
    6.4429   -7.0447    0.0000 C   0  0  0  0  0  0  0  0  0  0  0  0
    7.1573   -6.6322    0.0000 C   0  0  1  0  0  0  0  0  0  0  0  0
    7.1573   -5.8072    0.0000 C   0  0  2  0  0  0  0  0  0  0  0  0
    6.4429   -5.3947    0.0000 C   0  0  0  0  0  0  0  0  0  0  0  0
    7.8718   -7.0447    0.0000 C   0  0  0  0  0  0  0  0  0  0  0  0
    8.5863   -6.6322    0.0000 C   0  0  0  0  0  0  0  0  0  0  0  0
    8.5863   -5.8072    0.0000 C   0  0  0  0  0  0  0  0  0  0  0  0
    7.8718   -5.3947    0.0000 C   0  0  0  0  0  0  0  0  0  0  0  0
    9.3008   -5.3947    0.0000 C   0  0  0  0  0  0  0  0  0  0  0  0
    9.3008   -4.5697    0.0000 C   0  0  2  0  0  0  0  0  0  0  0  0
    8.5863   -4.1572    0.0000 C   0  0  0  0  0  0  0  0  0  0  0  0
    7.8718   -4.5697    0.0000 C   0  0  0  0  0  0  0  0  0  0  0  0
   10.0854   -5.6496    0.0000 C   0  0  0  0  0  0  0  0  0  0  0  0
   10.5703   -4.9822    0.0000 C   0  0  0  0  0  0  0  0  0  0  0  0
   10.0854   -4.3147    0.0000 C   0  0  0  0  0  0  0  0  0  0  0  0
    7.1573   -4.9822    0.0000 C   0  0  0  0  0  0  0  0  0  0  0  0
    9.3008   -3.7447    0.0000 C   0  0  0  0  0  0  0  0  0  0  0  0
   10.2989   -3.5178    0.0000 O   0  0  0  0  0  0  0  0  0  0  0  0
    7.1573   -7.4572    0.0000 H   0  0  0  0  0  0  0  0  0  0  0  0
    5.0139   -7.0447    0.0000 O   0  0  0  0  0  0  0  0  0  0  0  0
    4.2995   -6.6322    0.0000 C   0  0  0  0  0  0  0  0  0  0  0  0
    3.5850   -7.0447    0.0000 C   0  0  0  0  0  0  0  0  0  0  0  0
    4.2995   -5.8072    0.0000 O   0  0  0  0  0  0  0  0  0  0  0  0
    3.1725   -6.3302    0.0000 F   0  0  0  0  0  0  0  0  0  0  0  0
    3.9975   -7.7591    0.0000 F   0  0  0  0  0  0  0  0  0  0  0  0
    2.8705   -7.4572    0.0000 F   0  0  0  0  0  0  0  0  0  0  0  0
  1  2  1  0  0  0  0
  2  3  1  0  0  0  0
  3  4  1  0  0  0  0
  4  5  1  0  0  0  0
  5  6  1  0  0  0  0
  6  1  1  0  0  0  0
  4  7  1  0  0  0  0
  7  8  1  0  0  0  0
  8  9  1  0  0  0  0
  9 10  1  0  0  0  0
 10  5  1  0  0  0  0
  9 11  1  0  0  0  0
 11 12  1  0  0  0  0
 12 13  1  0  0  0  0
 13 14  1  0  0  0  0
 14 10  1  0  0  0  0
 11 15  1  0  0  0  0
 15 16  1  0  0  0  0
 16 17  1  0  0  0  0
 17 12  1  0  0  0  0
  5 18  1  1  0  0  0
 12 19  1  1  0  0  0
 17 20  2  0  0  0  0
  4 21  1  6  0  0  0
  2 22  1  6  0  0  0
 22 23  1  0  0  0  0
 23 24  1  0  0  0  0
 23 25  2  0  0  0  0
 24 26  1  0  0  0  0
 24 27  1  0  0  0  0
 24 28  1  0  0  0  0
M  END
>  <cdx:fragmentId>
5

$$$$
