276107.cdx
  Mrv1902 05222410232D          

 18 20  0  0  0  0            999 V2000
    7.1408   -6.2695    0.0000 C   0  0  2  0  0  0  0  0  0  0  0  0
    7.3124   -5.4626    0.0000 C   0  0  0  0  0  0  0  0  0  0  0  0
    8.1328   -5.3763    0.0000 C   0  0  0  0  0  0  0  0  0  0  0  0
    8.4684   -6.1300    0.0000 C   0  0  1  0  0  0  0  0  0  0  0  0
    7.8553   -6.6820    0.0000 C   0  0  2  0  0  0  0  0  0  0  0  0
    7.1408   -7.0945    0.0000 C   0  0  1  0  0  0  0  0  0  0  0  0
    6.4264   -7.5070    0.0000 C   0  0  1  0  0  0  0  0  0  0  0  0
    5.7119   -7.0945    0.0000 C   0  0  0  0  0  0  0  0  0  0  0  0
    5.7119   -6.2695    0.0000 C   0  0  0  0  0  0  0  0  0  0  0  0
    6.4264   -5.8570    0.0000 C   0  0  1  0  0  0  0  0  0  0  0  0
    9.2530   -5.8751    0.0000 O   0  0  0  0  0  0  0  0  0  0  0  0
    7.1408   -8.7445    0.0000 C   0  0  0  0  0  0  0  0  0  0  0  0
    6.4264   -8.3320    0.0000 C   0  0  0  0  0  0  0  0  0  0  0  0
    5.7119   -8.7445    0.0000 C   0  0  0  0  0  0  0  0  0  0  0  0
    6.4264   -5.0320    0.0000 C   0  0  0  0  0  0  0  0  0  0  0  0
    9.0815   -6.6820    0.0000 C   0  0  0  0  0  0  0  0  0  0  0  0
    8.3402   -7.3495    0.0000 H   0  0  0  0  0  0  0  0  0  0  0  0
    7.5533   -7.8090    0.0000 H   0  0  0  0  0  0  0  0  0  0  0  0
  1  2  1  6  0  0  0
  2  3  1  0  0  0  0
  3  4  1  0  0  0  0
  4  5  1  0  0  0  0
  5  6  1  0  0  0  0
  6  7  1  0  0  0  0
  7  8  1  0  0  0  0
  8  9  1  0  0  0  0
  9 10  1  0  0  0  0
  1 10  1  0  0  0  0
  1  6  1  0  0  0  0
  1  5  1  0  0  0  0
  4 11  1  6  0  0  0
 12 13  1  0  0  0  0
 13 14  1  0  0  0  0
  7 13  1  6  0  0  0
 10 15  1  1  0  0  0
  4 16  1  1  0  0  0
  5 17  1  1  0  0  0
  6 18  1  6  0  0  0
M  END
>  <cdx:fragmentId>
69137

$$$$
