276243.cdx
  Mrv1902 05222410222D          

 17 18  0  0  0  0            999 V2000
    9.9789   -6.3806    0.0000 C   0  0  0  0  0  0  0  0  0  0  0  0
    9.2672   -6.7977    0.0000 C   0  0  0  0  0  0  0  0  0  0  0  0
    8.5500   -6.3898    0.0000 C   0  0  0  0  0  0  0  0  0  0  0  0
    7.8382   -6.8069    0.0000 C   0  0  0  0  0  0  0  0  0  0  0  0
    7.8436   -7.6319    0.0000 C   0  0  0  0  0  0  0  0  0  0  0  0
    8.5607   -8.0398    0.0000 C   0  0  0  0  0  0  0  0  0  0  0  0
    9.2725   -7.6227    0.0000 C   0  0  0  0  0  0  0  0  0  0  0  0
   10.6961   -6.7884    0.0000 O   0  0  0  0  0  0  0  0  0  0  0  0
    7.1211   -6.3991    0.0000 C   0  0  0  0  0  0  0  0  0  0  0  0
    6.4093   -6.8162    0.0000 C   0  0  0  0  0  0  0  0  0  0  0  0
    6.4147   -7.6412    0.0000 C   0  0  0  0  0  0  0  0  0  0  0  0
    5.7029   -8.0583    0.0000 C   0  0  0  0  0  0  0  0  0  0  0  0
    4.9858   -7.6505    0.0000 C   0  0  0  0  0  0  0  0  0  0  0  0
    4.9804   -6.8255    0.0000 C   0  0  0  0  0  0  0  0  0  0  0  0
    5.6922   -6.4083    0.0000 C   0  0  0  0  0  0  0  0  0  0  0  0
    4.2740   -8.0676    0.0000 O   0  0  0  0  0  0  0  0  0  0  0  0
    7.1318   -8.0491    0.0000 O   0  0  0  0  0  0  0  0  0  0  0  0
  1  2  1  0  0  0  0
  2  3  1  0  0  0  0
  3  4  2  0  0  0  0
  4  5  1  0  0  0  0
  5  6  2  0  0  0  0
  6  7  1  0  0  0  0
  2  7  2  0  0  0  0
  1  8  2  0  0  0  0
 10 11  1  0  0  0  0
 11 12  2  0  0  0  0
 12 13  1  0  0  0  0
 13 14  2  0  0  0  0
 14 15  1  0  0  0  0
 10 15  2  0  0  0  0
 13 16  1  0  0  0  0
  9 10  1  0  0  0  0
  4  9  1  0  0  0  0
  5 17  1  0  0  0  0
M  END
>  <cdx:fragmentId>
69216

$$$$
