2768.cdx
  Mrv1902 05222410272D          

 26 25  0  0  0  0            999 V2000
    1.1921   -6.2906    0.0000 O   0  0  0  0  0  0  0  0  0  0  0  0
    1.9066   -6.7031    0.0000 C   0  0  0  0  0  0  0  0  0  0  0  0
    2.6211   -6.2906    0.0000 C   0  0  0  0  0  0  0  0  0  0  0  0
    3.3355   -6.7031    0.0000 C   0  0  0  0  0  0  0  0  0  0  0  0
    4.0500   -6.2906    0.0000 C   0  0  0  0  0  0  0  0  0  0  0  0
    4.7645   -5.8781    0.0000 C   0  0  0  0  0  0  0  0  0  0  0  0
    5.4790   -5.4656    0.0000 C   0  0  0  0  0  0  0  0  0  0  0  0
    6.1934   -5.0531    0.0000 C   0  0  0  0  0  0  0  0  0  0  0  0
    6.9079   -4.6406    0.0000 C   0  0  0  0  0  0  0  0  0  0  0  0
    7.6224   -5.0531    0.0000 C   0  0  0  0  0  0  0  0  0  0  0  0
    8.3368   -5.4656    0.0000 C   0  0  0  0  0  0  0  0  0  0  0  0
    9.0513   -5.0531    0.0000 C   0  0  0  0  0  0  0  0  0  0  0  0
    9.7658   -5.4656    0.0000 C   0  0  0  0  0  0  0  0  0  0  0  0
   10.4802   -5.0531    0.0000 C   0  0  0  0  0  0  0  0  0  0  0  0
    9.7658   -6.2906    0.0000 O   0  0  0  0  0  0  0  0  0  0  0  0
    9.0513   -6.7031    0.0000 C   0  0  0  0  0  0  0  0  0  0  0  0
    8.3368   -6.2906    0.0000 O   0  0  0  0  0  0  0  0  0  0  0  0
    9.0513   -7.5281    0.0000 C   0  0  0  0  0  0  0  0  0  0  0  0
    9.7658   -7.9406    0.0000 C   0  0  0  0  0  0  0  0  0  0  0  0
   10.4802   -7.5281    0.0000 C   0  0  0  0  0  0  0  0  0  0  0  0
    9.7658   -8.7656    0.0000 C   0  0  0  0  0  0  0  0  0  0  0  0
   11.1947   -5.4656    0.0000 C   0  0  0  0  0  0  0  0  0  0  0  0
   11.9092   -5.0531    0.0000 O   0  0  0  0  0  0  0  0  0  0  0  0
   12.6237   -5.4656    0.0000 C   0  0  0  0  0  0  0  0  0  0  0  0
   12.6237   -6.2906    0.0000 C   0  0  0  0  0  0  0  0  0  0  0  0
   13.3381   -5.0531    0.0000 O   0  0  0  0  0  0  0  0  0  0  0  0
  1  2  1  0  0  0  0
  2  3  1  0  0  0  0
  3  4  2  0  0  0  0
  4  5  1  0  0  0  0
  5  6  3  0  0  0  0
  6  7  1  0  0  0  0
  7  8  3  0  0  0  0
  8  9  1  0  0  0  0
  9 10  2  0  0  0  0
 10 11  1  0  0  0  0
 11 12  2  0  0  0  0
 12 13  1  0  0  0  0
 13 14  1  0  0  0  0
 13 15  1  0  0  0  0
 15 16  1  0  0  0  0
 16 17  2  0  0  0  0
 16 18  1  0  0  0  0
 18 19  2  0  0  0  0
 19 20  1  0  0  0  0
 19 21  1  0  0  0  0
 14 22  1  0  0  0  0
 22 23  1  0  0  0  0
 23 24  1  0  0  0  0
 24 25  1  0  0  0  0
 24 26  2  0  0  0  0
M  END
>  <cdx:fragmentId>
3

$$$$
