276863.cdx
  Mrv1902 05222410232D          

 43 47  0  0  0  0            999 V2000
    7.6868   -7.3533    0.0000 O   0  0  0  0  0  0  0  0  0  0  0  0
    6.9723   -7.7658    0.0000 C   0  0  2  0  0  0  0  0  0  0  0  0
    7.6868   -9.8283    0.0000 C   0  0  0  0  0  0  0  0  0  0  0  0
    8.4013  -10.2408    0.0000 C   0  0  0  0  0  0  0  0  0  0  0  0
    8.4013  -11.0658    0.0000 C   0  0  0  0  0  0  0  0  0  0  0  0
    9.1158  -11.4783    0.0000 C   0  0  0  0  0  0  0  0  0  0  0  0
    9.1158   -9.8283    0.0000 O   0  0  0  0  0  0  0  0  0  0  0  0
    9.1158  -12.3033    0.0000 C   0  0  0  0  0  0  0  0  0  0  0  0
    9.8302  -12.7158    0.0000 C   0  0  0  0  0  0  0  0  0  0  0  0
    9.8302  -13.5408    0.0000 C   0  0  0  0  0  0  0  0  0  0  0  0
    9.1158  -13.9533    0.0000 C   0  0  0  0  0  0  0  0  0  0  0  0
    8.4013  -13.5408    0.0000 C   0  0  0  0  0  0  0  0  0  0  0  0
    8.4013  -12.7158    0.0000 C   0  0  0  0  0  0  0  0  0  0  0  0
    9.1158  -14.7783    0.0000 O   0  0  0  0  0  0  0  0  0  0  0  0
    6.2579   -7.3533    0.0000 C   0  0  1  0  0  0  0  0  0  0  0  0
    6.2579   -6.5283    0.0000 C   0  0  2  0  0  0  0  0  0  0  0  0
    6.9723   -6.1158    0.0000 C   0  0  1  0  0  0  0  0  0  0  0  0
    7.6868   -6.5283    0.0000 C   0  0  1  0  0  0  0  0  0  0  0  0
    8.4013   -6.1158    0.0000 C   0  0  0  0  0  0  0  0  0  0  0  0
    9.1158   -6.5283    0.0000 O   0  0  0  0  0  0  0  0  0  0  0  0
    6.9723   -5.2908    0.0000 O   0  0  0  0  0  0  0  0  0  0  0  0
    5.5434   -6.1158    0.0000 O   0  0  0  0  0  0  0  0  0  0  0  0
    5.5434   -7.7658    0.0000 O   0  0  0  0  0  0  0  0  0  0  0  0
    4.9883  -10.8447    0.0000 O   0  0  0  0  0  0  0  0  0  0  0  0
    6.9723  -11.0658    0.0000 O   0  0  0  0  0  0  0  0  0  0  0  0
    3.3383  -10.8447    0.0000 O   0  0  0  0  0  0  0  0  0  0  0  0
    2.5133   -9.4158    0.0000 O   0  0  0  0  0  0  0  0  0  0  0  0
    6.3890   -8.0074    0.0000 O   0  0  0  0  0  0  0  0  0  0  0  0
    7.6868   -8.1783    0.0000 H   0  0  0  0  0  0  0  0  0  0  0  0
    8.4013   -8.5908    0.0000 O   0  0  0  0  0  0  0  0  0  0  0  0
    3.7508   -8.7013    0.0000 C   0  0  0  0  0  0  0  0  0  0  0  0
    3.3383   -9.4158    0.0000 C   0  0  2  0  0  0  0  0  0  0  0  0
    3.7508  -10.1303    0.0000 C   0  0  2  0  0  0  0  0  0  0  0  0
    4.5758  -10.1303    0.0000 C   0  0  1  0  0  0  0  0  0  0  0  0
    4.5758   -8.7013    0.0000 O   0  0  0  0  0  0  0  0  0  0  0  0
    6.2579   -9.0033    0.0000 C   0  0  0  0  0  0  0  0  0  0  0  0
    6.9723   -8.5908    0.0000 C   0  0  2  0  0  0  0  0  0  0  0  0
    7.6868   -9.0033    0.0000 C   0  0  0  0  0  0  0  0  0  0  0  0
    6.9723  -10.2408    0.0000 C   0  0  0  0  0  0  0  0  0  0  0  0
    6.2579   -9.8283    0.0000 C   0  0  0  0  0  0  0  0  0  0  0  0
    5.4732  -10.0832    0.0000 C   0  0  0  0  0  0  0  0  0  0  0  0
    4.9883   -9.4158    0.0000 C   0  0  2  0  0  0  0  0  0  0  0  0
    5.4732   -8.7483    0.0000 O   0  0  0  0  0  0  0  0  0  0  0  0
 34 24  1  1  0  0  0
 39 25  2  0  0  0  0
 33 26  1  6  0  0  0
 32 27  1  6  0  0  0
 37 28  1  6  0  0  0
 37  2  1  0  0  0  0
  2  1  1  0  0  0  0
  2 15  1  0  0  0  0
 38 30  2  0  0  0  0
 34 42  1  0  0  0  0
 35 42  1  0  0  0  0
 35 31  1  0  0  0  0
 32 31  1  0  0  0  0
 33 32  1  0  0  0  0
 34 33  1  0  0  0  0
 43 36  1  0  0  0  0
 40 36  2  0  0  0  0
 37 36  1  0  0  0  0
 38 37  1  0  0  0  0
  3 38  1  0  0  0  0
 39  3  1  0  0  0  0
 40 39  1  0  0  0  0
 41 40  1  0  0  0  0
 42 41  1  6  0  0  0
 42 43  1  1  0  0  0
  4  5  1  0  0  0  0
  5  6  2  0  0  0  0
  4  7  1  0  0  0  0
  8  9  1  0  0  0  0
  9 10  2  0  0  0  0
 10 11  1  0  0  0  0
 11 12  2  0  0  0  0
 12 13  1  0  0  0  0
  8 13  2  0  0  0  0
 11 14  1  0  0  0  0
  6  8  1  0  0  0  0
 15 16  1  0  0  0  0
 16 17  1  0  0  0  0
 17 18  1  0  0  0  0
  1 18  1  0  0  0  0
 19 20  1  0  0  0  0
 18 19  1  1  0  0  0
 17 21  1  6  0  0  0
 16 22  1  1  0  0  0
 15 23  1  6  0  0  0
  2 29  1  6  0  0  0
  3  4  2  0  0  0  0
M  END
>  <cdx:groupId>
173069

>  <cdx:fragmentId>
172940

$$$$
