2770.cdx
  Mrv1902 05222410192D          

 26 25  0  0  0  0            999 V2000
    1.1715   -5.9813    0.0000 O   0  0  0  0  0  0  0  0  0  0  0  0
    1.8860   -5.5687    0.0000 C   0  0  0  0  0  0  0  0  0  0  0  0
    2.6004   -5.9813    0.0000 C   0  0  0  0  0  0  0  0  0  0  0  0
    3.3149   -5.5687    0.0000 C   0  0  0  0  0  0  0  0  0  0  0  0
    4.0294   -5.9813    0.0000 C   0  0  0  0  0  0  0  0  0  0  0  0
    4.7439   -6.3937    0.0000 C   0  0  0  0  0  0  0  0  0  0  0  0
    5.4583   -6.8062    0.0000 C   0  0  0  0  0  0  0  0  0  0  0  0
    6.1728   -7.2188    0.0000 C   0  0  0  0  0  0  0  0  0  0  0  0
    6.8873   -7.6313    0.0000 C   0  0  0  0  0  0  0  0  0  0  0  0
    7.6017   -7.2188    0.0000 C   0  0  0  0  0  0  0  0  0  0  0  0
    8.3162   -7.6313    0.0000 C   0  0  0  0  0  0  0  0  0  0  0  0
    9.0307   -7.2188    0.0000 C   0  0  0  0  0  0  0  0  0  0  0  0
    9.7452   -7.6313    0.0000 C   0  0  0  0  0  0  0  0  0  0  0  0
    9.7452   -8.4563    0.0000 O   0  0  0  0  0  0  0  0  0  0  0  0
   10.4596   -8.8688    0.0000 C   0  0  0  0  0  0  0  0  0  0  0  0
   10.4596   -7.2188    0.0000 C   0  0  0  0  0  0  0  0  0  0  0  0
   11.1741   -7.6313    0.0000 C   0  0  0  0  0  0  0  0  0  0  0  0
   11.8886   -7.2188    0.0000 O   0  0  0  0  0  0  0  0  0  0  0  0
   12.6030   -7.6313    0.0000 C   0  0  0  0  0  0  0  0  0  0  0  0
   10.4596   -9.6937    0.0000 C   0  0  0  0  0  0  0  0  0  0  0  0
   11.1741   -8.4563    0.0000 O   0  0  0  0  0  0  0  0  0  0  0  0
   11.1741  -10.1063    0.0000 C   0  0  0  0  0  0  0  0  0  0  0  0
   13.3175   -7.2188    0.0000 C   0  0  0  0  0  0  0  0  0  0  0  0
   12.6030   -8.4563    0.0000 O   0  0  0  0  0  0  0  0  0  0  0  0
   11.8886   -9.6937    0.0000 C   0  0  0  0  0  0  0  0  0  0  0  0
    9.7452  -10.1062    0.0000 C   0  0  0  0  0  0  0  0  0  0  0  0
  1  2  1  0  0  0  0
  2  3  1  0  0  0  0
  3  4  2  0  0  0  0
  4  5  1  0  0  0  0
  5  6  3  0  0  0  0
  6  7  1  0  0  0  0
  7  8  3  0  0  0  0
  8  9  1  0  0  0  0
  9 10  2  0  0  0  0
 10 11  1  0  0  0  0
 11 12  2  0  0  0  0
 12 13  1  0  0  0  0
 13 14  1  0  0  0  0
 14 15  1  0  0  0  0
 13 16  1  0  0  0  0
 16 17  1  0  0  0  0
 17 18  1  0  0  0  0
 18 19  1  0  0  0  0
 15 20  1  0  0  0  0
 15 21  2  0  0  0  0
 20 22  1  0  0  0  0
 19 23  1  0  0  0  0
 19 24  2  0  0  0  0
 22 25  1  0  0  0  0
 20 26  1  0  0  0  0
M  END
>  <cdx:fragmentId>
36

$$$$
