132277303.cdx
  Mrv1902 05222410202D          

 13 14  0  0  0  0            999 V2000
    8.0340   -7.6164    0.0000 C   0  0  0  0  0  0  0  0  0  0  0  0
    8.4465   -6.9019    0.0000 C   0  0  0  0  0  0  0  0  0  0  0  0
    7.7320   -6.4894    0.0000 C   0  0  0  0  0  0  0  0  0  0  0  0
    7.0176   -6.9019    0.0000 C   0  0  0  0  0  0  0  0  0  0  0  0
    6.3031   -6.4894    0.0000 C   0  0  0  0  0  0  0  0  0  0  0  0
    5.5886   -6.9019    0.0000 C   0  0  0  0  0  0  0  0  0  0  0  0
    5.5886   -7.7269    0.0000 C   0  0  0  0  0  0  0  0  0  0  0  0
    8.8590   -7.6164    0.0000 O   0  0  0  0  0  0  0  0  0  0  0  0
    4.8742   -6.4894    0.0000 C   0  0  0  0  0  0  0  0  0  0  0  0
    9.1610   -6.4894    0.0000 C   0  0  0  0  0  0  0  0  0  0  0  0
    9.1610   -5.6644    0.0000 O   0  0  0  0  0  0  0  0  0  0  0  0
    9.8755   -6.0769    0.0000 C   0  0  0  0  0  0  0  0  0  0  0  0
    9.8755   -6.9019    0.0000 O   0  0  0  0  0  0  0  0  0  0  0  0
  1  2  1  0  0  0  0
  2  3  1  0  0  0  0
  3  4  1  0  0  0  0
  4  5  1  0  0  0  0
  5  6  2  0  0  0  0
  6  7  1  0  0  0  0
  2  8  1  0  0  0  0
  6  9  1  0  0  0  0
 10 11  1  0  0  0  0
 11 12  1  0  0  0  0
 12 13  1  0  0  0  0
 10 13  1  0  0  0  0
 10 12  1  0  0  0  0
  2 10  1  0  0  0  0
M  END
>  <cdx:groupId>
42

>  <cdx:fragmentId>
5

$$$$
