277399.cdx
  Mrv1902 05222410212D          

 24 25  0  0  0  0            999 V2000
   11.5818   -8.4092    0.0000 C   0  0  0  0  0  0  0  0  0  0  0  0
   11.5818   -7.5842    0.0000 C   0  0  0  0  0  0  0  0  0  0  0  0
   10.8673   -7.1717    0.0000 C   0  0  0  0  0  0  0  0  0  0  0  0
   10.1528   -7.5842    0.0000 C   0  0  0  0  0  0  0  0  0  0  0  0
    9.4384   -7.1717    0.0000 C   0  0  0  0  0  0  0  0  0  0  0  0
    8.7239   -7.5842    0.0000 C   0  0  0  0  0  0  0  0  0  0  0  0
    8.7239   -8.4092    0.0000 C   0  0  0  0  0  0  0  0  0  0  0  0
    9.4384   -8.8217    0.0000 C   0  0  0  0  0  0  0  0  0  0  0  0
   10.1528   -8.4092    0.0000 C   0  0  0  0  0  0  0  0  0  0  0  0
   10.8673   -8.8217    0.0000 O   0  0  0  0  0  0  0  0  0  0  0  0
   12.2962   -8.8217    0.0000 O   0  0  0  0  0  0  0  0  0  0  0  0
    8.0094   -8.8217    0.0000 O   0  0  0  0  0  0  0  0  0  0  0  0
    7.2949   -8.4092    0.0000 C   0  0  0  0  0  0  0  0  0  0  0  0
    6.5805   -8.8217    0.0000 C   0  0  0  0  0  0  0  0  0  0  0  0
    5.8660   -8.4092    0.0000 C   0  0  0  0  0  0  0  0  0  0  0  0
    5.1515   -8.8217    0.0000 C   0  0  0  0  0  0  0  0  0  0  0  0
    4.4371   -8.4092    0.0000 C   0  0  0  0  0  0  0  0  0  0  0  0
    3.7226   -8.8217    0.0000 C   0  0  2  0  0  0  0  0  0  0  0  0
    3.0081   -8.4092    0.0000 C   0  0  0  0  0  0  0  0  0  0  0  0
    2.2937   -8.8217    0.0000 C   0  0  0  0  0  0  0  0  0  0  0  0
    3.0081   -7.5842    0.0000 C   0  0  0  0  0  0  0  0  0  0  0  0
    5.8660   -7.5842    0.0000 C   0  0  0  0  0  0  0  0  0  0  0  0
    2.2937   -7.9967    0.0000 O   0  0  0  0  0  0  0  0  0  0  0  0
    3.7226   -9.6467    0.0000 O   0  0  0  0  0  0  0  0  0  0  0  0
  1  2  1  0  0  0  0
  2  3  2  0  0  0  0
  3  4  1  0  0  0  0
  4  5  1  0  0  0  0
  5  6  2  0  0  0  0
  6  7  1  0  0  0  0
  7  8  2  0  0  0  0
  8  9  1  0  0  0  0
  4  9  2  0  0  0  0
  9 10  1  0  0  0  0
  1 10  1  0  0  0  0
  1 11  2  0  0  0  0
 13 14  1  0  0  0  0
 14 15  2  0  0  0  0
 15 16  1  0  0  0  0
 16 17  1  0  0  0  0
 17 18  1  0  0  0  0
 18 19  1  0  0  0  0
 19 20  1  0  0  0  0
 12 13  1  0  0  0  0
 19 21  1  0  0  0  0
 15 22  1  0  0  0  0
 19 23  1  0  0  0  0
 18 24  1  1  0  0  0
  7 12  1  0  0  0  0
M  END
>  <cdx:fragmentId>
29

$$$$
