2775.cdx
  Mrv1902 05222410192D          

 15 16  0  0  0  0            999 V2000
    8.9318   -7.4825    0.0000 C   0  0  0  0  0  0  0  0  0  0  0  0
    8.9318   -8.3075    0.0000 C   0  0  0  0  0  0  0  0  0  0  0  0
    8.2173   -8.7200    0.0000 C   0  0  0  0  0  0  0  0  0  0  0  0
    7.5028   -8.3075    0.0000 C   0  0  0  0  0  0  0  0  0  0  0  0
    6.7884   -8.7200    0.0000 C   0  0  0  0  0  0  0  0  0  0  0  0
    6.0739   -8.3075    0.0000 C   0  0  0  0  0  0  0  0  0  0  0  0
    6.0739   -7.4825    0.0000 C   0  0  0  0  0  0  0  0  0  0  0  0
    6.7884   -7.0700    0.0000 C   0  0  0  0  0  0  0  0  0  0  0  0
    7.5028   -7.4825    0.0000 C   0  0  0  0  0  0  0  0  0  0  0  0
    8.2173   -7.0700    0.0000 O   0  0  0  0  0  0  0  0  0  0  0  0
    9.6463   -7.0700    0.0000 O   0  0  0  0  0  0  0  0  0  0  0  0
    5.3594   -7.0700    0.0000 O   0  0  0  0  0  0  0  0  0  0  0  0
    4.6450   -7.4825    0.0000 C   0  0  0  0  0  0  0  0  0  0  0  0
    6.7884   -9.5450    0.0000 O   0  0  0  0  0  0  0  0  0  0  0  0
    6.0739   -9.9575    0.0000 C   0  0  0  0  0  0  0  0  0  0  0  0
  1  2  1  0  0  0  0
  2  3  2  0  0  0  0
  3  4  1  0  0  0  0
  4  5  1  0  0  0  0
  5  6  2  0  0  0  0
  6  7  1  0  0  0  0
  7  8  2  0  0  0  0
  8  9  1  0  0  0  0
  4  9  2  0  0  0  0
  9 10  1  0  0  0  0
  1 10  1  0  0  0  0
  1 11  2  0  0  0  0
 12 13  1  0  0  0  0
  7 12  1  0  0  0  0
 14 15  1  0  0  0  0
  5 14  1  0  0  0  0
M  END
>  <cdx:fragmentId>
5

$$$$
