27809.cdx
  Mrv1902 05222410232D          

 10 10  0  0  0  0            999 V2000
    7.5307   -4.0462    0.0000 C   0  0  0  0  0  0  0  0  0  0  0  0
    6.8266   -4.4763    0.0000 C   0  0  0  0  0  0  0  0  0  0  0  0
    6.8470   -5.3010    0.0000 C   0  0  0  0  0  0  0  0  0  0  0  0
    7.5714   -5.6957    0.0000 C   0  0  0  0  0  0  0  0  0  0  0  0
    8.2755   -5.2657    0.0000 C   0  0  0  0  0  0  0  0  0  0  0  0
    8.2551   -4.4409    0.0000 C   0  0  0  0  0  0  0  0  0  0  0  0
    7.5103   -3.2215    0.0000 C   0  0  0  0  0  0  0  0  0  0  0  0
    8.0936   -2.6381    0.0000 O   0  0  0  0  0  0  0  0  0  0  0  0
    7.5918   -6.5205    0.0000 C   0  0  0  0  0  0  0  0  0  0  0  0
    6.1022   -4.0816    0.0000 C   0  0  0  0  0  0  0  0  0  0  0  0
  1  2  1  0  0  0  0
  2  3  2  0  0  0  0
  3  4  1  0  0  0  0
  4  5  2  0  0  0  0
  5  6  1  0  0  0  0
  1  6  2  0  0  0  0
  7  8  1  0  0  0  0
  1  7  1  0  0  0  0
  4  9  1  0  0  0  0
  2 10  1  0  0  0  0
M  END
>  <cdx:fragmentId>
5

$$$$
