278083.cdx
  Mrv1902 05222410212D          

 25 27  0  0  0  0            999 V2000
    5.6297   -9.8605    0.0000 C   0  0  0  0  0  0  0  0  0  0  0  0
    6.3442  -10.2730    0.0000 C   0  0  0  0  0  0  0  0  0  0  0  0
    7.0587   -9.8605    0.0000 C   0  0  0  0  0  0  0  0  0  0  0  0
    7.0587   -9.0355    0.0000 C   0  0  0  0  0  0  0  0  0  0  0  0
    6.3442   -8.6230    0.0000 C   0  0  0  0  0  0  0  0  0  0  0  0
    7.7731  -10.2730    0.0000 C   0  0  0  0  0  0  0  0  0  0  0  0
    8.4876   -9.8605    0.0000 C   0  0  0  0  0  0  0  0  0  0  0  0
    9.2021  -10.2730    0.0000 C   0  0  0  0  0  0  0  0  0  0  0  0
    9.9165   -9.8605    0.0000 C   0  0  0  0  0  0  0  0  0  0  0  0
   10.0028   -9.0400    0.0000 C   0  0  0  0  0  0  0  0  0  0  0  0
   10.8098   -8.8685    0.0000 C   0  0  0  0  0  0  0  0  0  0  0  0
   11.2223   -9.5829    0.0000 C   0  0  0  0  0  0  0  0  0  0  0  0
   10.6702  -10.1960    0.0000 C   0  0  0  0  0  0  0  0  0  0  0  0
    4.9153  -10.2730    0.0000 C   0  0  0  0  0  0  0  0  0  0  0  0
    4.9153  -11.0980    0.0000 C   0  0  0  0  0  0  0  0  0  0  0  0
    4.2008  -11.5105    0.0000 C   0  0  0  0  0  0  0  0  0  0  0  0
    3.4863  -11.0980    0.0000 C   0  0  0  0  0  0  0  0  0  0  0  0
    3.4863  -10.2730    0.0000 C   0  0  0  0  0  0  0  0  0  0  0  0
    4.2008   -9.8605    0.0000 C   0  0  0  0  0  0  0  0  0  0  0  0
    6.3442   -7.7980    0.0000 C   0  0  0  0  0  0  0  0  0  0  0  0
    5.6297   -7.3855    0.0000 C   0  0  0  0  0  0  0  0  0  0  0  0
    5.6297   -6.5605    0.0000 C   0  0  0  0  0  0  0  0  0  0  0  0
    6.3442   -6.1480    0.0000 C   0  0  0  0  0  0  0  0  0  0  0  0
    7.0587   -6.5605    0.0000 C   0  0  0  0  0  0  0  0  0  0  0  0
    7.0587   -7.3855    0.0000 C   0  0  0  0  0  0  0  0  0  0  0  0
  1  2  1  0  0  0  0
  2  3  1  0  0  0  0
  3  4  1  0  0  0  0
  4  5  1  0  0  0  0
  6  7  1  0  0  0  0
  7  8  1  0  0  0  0
  9 10  1  0  0  0  0
 10 11  1  0  0  0  0
 11 12  1  0  0  0  0
 12 13  1  0  0  0  0
  9 13  1  0  0  0  0
  8  9  1  0  0  0  0
  3  6  1  0  0  0  0
 14 15  1  0  0  0  0
 15 16  2  0  0  0  0
 16 17  1  0  0  0  0
 17 18  2  0  0  0  0
 18 19  1  0  0  0  0
 14 19  2  0  0  0  0
  1 14  1  0  0  0  0
 20 21  1  0  0  0  0
 21 22  2  0  0  0  0
 22 23  1  0  0  0  0
 23 24  2  0  0  0  0
 24 25  1  0  0  0  0
 20 25  2  0  0  0  0
  5 20  1  0  0  0  0
M  END
>  <cdx:fragmentId>
5408

$$$$
