27820.cdx
  Mrv1902 05222410232D          

 12 11  0  0  0  0            999 V2000
    3.9805   -7.0105    0.0000 C   0  0  0  0  0  0  0  0  0  0  0  0
    4.6950   -7.4230    0.0000 C   0  0  0  0  0  0  0  0  0  0  0  0
    4.6950   -8.2480    0.0000 C   0  0  0  0  0  0  0  0  0  0  0  0
    5.4095   -8.6605    0.0000 C   0  0  0  0  0  0  0  0  0  0  0  0
    5.4095   -9.4855    0.0000 C   0  0  0  0  0  0  0  0  0  0  0  0
    6.1239   -9.8980    0.0000 C   0  0  0  0  0  0  0  0  0  0  0  0
    6.8384   -9.4855    0.0000 C   0  0  0  0  0  0  0  0  0  0  0  0
    7.5529   -9.0730    0.0000 C   0  0  0  0  0  0  0  0  0  0  0  0
    8.2674   -8.6605    0.0000 C   0  0  0  0  0  0  0  0  0  0  0  0
    8.9818   -9.0730    0.0000 C   0  0  0  0  0  0  0  0  0  0  0  0
    9.6963   -8.6605    0.0000 C   0  0  0  0  0  0  0  0  0  0  0  0
   10.4108   -9.0730    0.0000 C   0  0  0  0  0  0  0  0  0  0  0  0
  1  2  1  0  0  0  0
  2  3  1  0  0  0  0
  3  4  1  0  0  0  0
  4  5  1  0  0  0  0
  5  6  2  0  0  0  0
  6  7  1  0  0  0  0
  7  8  3  0  0  0  0
  8  9  1  0  0  0  0
  9 10  1  0  0  0  0
 10 11  1  0  0  0  0
 11 12  1  0  0  0  0
M  END
>  <cdx:fragmentId>
5

$$$$
