2783.cdx
  Mrv1902 05222410272D          

 47 53  0  0  0  0            999 V2000
    6.8113   -7.1134    0.0000 C   0  0  2  0  0  0  0  0  0  0  0  0
    7.1714   -7.8557    0.0000 C   0  0  1  0  0  0  0  0  0  0  0  0
    6.8156   -8.6000    0.0000 C   0  0  1  0  0  0  0  0  0  0  0  0
    6.0118   -8.7860    0.0000 C   0  0  1  0  0  0  0  0  0  0  0  0
    5.3653   -8.2735    0.0000 C   0  0  1  0  0  0  0  0  0  0  0  0
    5.3629   -7.4485    0.0000 C   0  0  2  0  0  0  0  0  0  0  0  0
    6.0064   -6.9322    0.0000 C   0  0  2  0  0  0  0  0  0  0  0  0
    4.6521   -8.6880    0.0000 C   0  0  2  0  0  0  0  0  0  0  0  0
    3.9364   -8.2776    0.0000 C   0  0  1  0  0  0  0  0  0  0  0  0
    3.9340   -7.4526    0.0000 C   0  0  0  0  0  0  0  0  0  0  0  0
    4.6472   -7.0380    0.0000 C   0  0  2  0  0  0  0  0  0  0  0  0
    5.9301   -6.1107    0.0000 C   0  0  0  0  0  0  0  0  0  0  0  0
    6.6877   -5.7843    0.0000 C   0  0  1  0  0  0  0  0  0  0  0  0
    7.2323   -6.4040    0.0000 C   0  0  2  0  0  0  0  0  0  0  0  0
    4.6448   -6.2131    0.0000 O   0  0  0  0  0  0  0  0  0  0  0  0
    3.9337   -5.7949    0.0000 C   0  0  0  0  0  0  0  0  0  0  0  0
    4.6545   -9.5130    0.0000 C   0  0  0  0  0  0  0  0  0  0  0  0
    3.9412   -9.9276    0.0000 O   0  0  0  0  0  0  0  0  0  0  0  0
    3.9436  -10.7526    0.0000 C   0  0  0  0  0  0  0  0  0  0  0  0
    5.3625   -6.7925    0.0000 C   0  0  0  0  0  0  0  0  0  0  0  0
    4.6475   -7.8100    0.0000 N   0  0  0  0  0  0  0  0  0  0  0  0
    3.9325   -8.9925    0.0000 C   0  0  0  0  0  0  0  0  0  0  0  0
    7.9700   -7.6485    0.0000 C   0  0  2  0  0  0  0  0  0  0  0  0
    8.0025   -5.9675    0.0000 C   0  0  2  0  0  0  0  0  0  0  0  0
    7.3849   -8.6526    0.0000 O   0  0  0  0  0  0  0  0  0  0  0  0
    8.7175   -6.4075    0.0000 O   0  0  0  0  0  0  0  0  0  0  0  0
    5.3587   -9.0984    0.0000 H   0  0  0  0  0  0  0  0  0  0  0  0
    5.4231   -6.3488    0.0000 O   0  0  0  0  0  0  0  0  0  0  0  0
    7.6362   -7.1200    0.0000 H   0  0  0  0  0  0  0  0  0  0  0  0
    6.6877   -4.9593    0.0000 O   0  0  0  0  0  0  0  0  0  0  0  0
    6.8156   -9.4250    0.0000 H   0  0  0  0  0  0  0  0  0  0  0  0
    3.2219   -8.6901    0.0000 O   0  0  0  0  0  0  0  0  0  0  0  0
    3.4650   -7.8100    0.0000 C   0  0  0  0  0  0  0  0  0  0  0  0
    2.8816   -7.2266    0.0000 C   0  0  0  0  0  0  0  0  0  0  0  0
    8.7170   -5.5550    0.0000 O   0  0  0  0  0  0  0  0  0  0  0  0
    8.7170   -4.7300    0.0000 C   0  0  0  0  0  0  0  0  0  0  0  0
    6.0118   -9.6110    0.0000 O   0  0  0  0  0  0  0  0  0  0  0  0
    5.2974  -10.0235    0.0000 C   0  0  0  0  0  0  0  0  0  0  0  0
    9.4320   -6.8200    0.0000 C   0  0  0  0  0  0  0  0  0  0  0  0
   10.1464   -6.4075    0.0000 C   0  0  0  0  0  0  0  0  0  0  0  0
    9.4320   -7.6450    0.0000 O   0  0  0  0  0  0  0  0  0  0  0  0
   10.8609   -6.8200    0.0000 C   0  0  0  0  0  0  0  0  0  0  0  0
   11.5754   -6.4075    0.0000 C   0  0  0  0  0  0  0  0  0  0  0  0
   11.5754   -5.5825    0.0000 C   0  0  0  0  0  0  0  0  0  0  0  0
   10.8609   -5.1700    0.0000 C   0  0  0  0  0  0  0  0  0  0  0  0
   10.1464   -5.5825    0.0000 C   0  0  0  0  0  0  0  0  0  0  0  0
    8.7668   -7.8621    0.0000 O   0  0  0  0  0  0  0  0  0  0  0  0
  1  2  1  0  0  0  0
  2  3  1  0  0  0  0
  3  4  1  0  0  0  0
  4  5  1  0  0  0  0
  5  6  1  0  0  0  0
  6  7  1  0  0  0  0
  7  1  1  0  0  0  0
  5  8  1  0  0  0  0
  8  9  1  0  0  0  0
  9 10  1  0  0  0  0
 10 11  1  0  0  0  0
  6 11  1  1  0  0  0
  7 12  1  0  0  0  0
 12 13  1  0  0  0  0
 13 14  1  0  0  0  0
 14  1  1  0  0  0  0
 11 15  1  6  0  0  0
 15 16  1  0  0  0  0
  8 17  1  1  0  0  0
 17 18  1  0  0  0  0
 18 19  1  0  0  0  0
  6 20  1  0  0  0  0
  3 20  1  0  0  0  0
 20 21  1  0  0  0  0
 21 22  1  0  0  0  0
  8 22  1  0  0  0  0
  2 23  1  0  0  0  0
 13 24  1  0  0  0  0
 24 23  1  0  0  0  0
  2 25  1  1  0  0  0
 14 26  1  6  0  0  0
  5 27  1  1  0  0  0
  7 28  1  1  0  0  0
  1 29  1  1  0  0  0
 13 30  1  1  0  0  0
  3 31  1  6  0  0  0
  9 32  1  6  0  0  0
 21 33  1  0  0  0  0
 33 34  1  0  0  0  0
 24 35  1  1  0  0  0
 35 36  1  0  0  0  0
  4 37  1  6  0  0  0
 37 38  1  0  0  0  0
 26 39  1  0  0  0  0
 39 40  1  0  0  0  0
 39 41  2  0  0  0  0
 40 42  2  0  0  0  0
 42 43  1  0  0  0  0
 43 44  2  0  0  0  0
 44 45  1  0  0  0  0
 45 46  2  0  0  0  0
 46 40  1  0  0  0  0
 23 47  1  6  0  0  0
M  END
>  <cdx:fragmentId>
168

$$$$
