86278344.cdx
  Mrv1902 05222410192D          

 61 67  0  0  0  0            999 V2000
    1.6627  -17.0352    0.0000 C   0  0  0  0  0  0  0  0  0  0  0  0
    1.6627  -16.2102    0.0000 O   0  0  0  0  0  0  0  0  0  0  0  0
    7.3785  -14.5607    0.0000 C   0  0  0  0  0  0  0  0  0  0  0  0
    6.6640  -14.9732    0.0000 C   0  0  0  0  0  0  0  0  0  0  0  0
    6.6640  -15.7982    0.0000 C   0  0  1  0  0  0  0  0  0  0  0  0
    7.3785  -16.2107    0.0000 C   0  0  0  0  0  0  0  0  0  0  0  0
    8.0930  -15.7982    0.0000 C   0  0  2  0  0  0  0  0  0  0  0  0
    8.8075  -16.2107    0.0000 C   0  0  0  0  0  0  0  0  0  0  0  0
    9.5219  -15.7982    0.0000 C   0  0  0  0  0  0  0  0  0  0  0  0
    9.5219  -14.9732    0.0000 C   0  0  1  0  0  0  0  0  0  0  0  0
   10.2364  -14.5607    0.0000 C   0  0  2  0  0  0  0  0  0  0  0  0
   10.9509  -14.9732    0.0000 C   0  0  0  0  0  0  0  0  0  0  0  0
   11.6653  -14.5607    0.0000 C   0  0  0  0  0  0  0  0  0  0  0  0
   11.6653  -13.7357    0.0000 C   0  0  1  0  0  0  0  0  0  0  0  0
   12.3798  -13.3232    0.0000 C   0  0  1  0  0  0  0  0  0  0  0  0
   12.3798  -12.4982    0.0000 C   0  0  0  0  0  0  0  0  0  0  0  0
   11.6653  -12.0857    0.0000 C   0  0  2  0  0  0  0  0  0  0  0  0
   10.9509  -12.4982    0.0000 C   0  0  0  0  0  0  0  0  0  0  0  0
   10.9509  -13.3232    0.0000 C   0  0  1  0  0  0  0  0  0  0  0  0
   10.2364  -13.7357    0.0000 C   0  0  0  0  0  0  0  0  0  0  0  0
    9.5219  -13.3232    0.0000 C   0  0  0  0  0  0  0  0  0  0  0  0
    8.8075  -13.7357    0.0000 C   0  0  0  0  0  0  0  0  0  0  0  0
    8.8075  -14.5607    0.0000 C   0  0  2  0  0  0  0  0  0  0  0  0
    8.0930  -14.9732    0.0000 C   0  0  1  0  0  0  0  0  0  0  0  0
    8.0930  -13.3232    0.0000 O   0  0  0  0  0  0  0  0  0  0  0  0
    8.0930  -14.1482    0.0000 C   0  0  0  0  0  0  0  0  0  0  0  0
   11.2528  -11.3712    0.0000 C   0  0  0  0  0  0  0  0  0  0  0  0
   12.3798  -14.1482    0.0000 C   0  0  0  0  0  0  0  0  0  0  0  0
   10.2364  -15.3857    0.0000 C   0  0  0  0  0  0  0  0  0  0  0  0
    9.5219  -14.1482    0.0000 C   0  0  0  0  0  0  0  0  0  0  0  0
    7.7910  -16.9251    0.0000 C   0  0  0  0  0  0  0  0  0  0  0  0
    6.9660  -16.9251    0.0000 C   0  0  0  0  0  0  0  0  0  0  0  0
   12.0450  -11.3850    0.0000 C   0  0  0  0  0  0  0  0  0  0  0  0
   12.8700  -11.3850    0.0000 O   0  0  0  0  0  0  0  0  0  0  0  0
   13.0943  -13.7357    0.0000 O   0  0  0  0  0  0  0  0  0  0  0  0
    8.0930  -16.6232    0.0000 H   0  0  0  0  0  0  0  0  0  0  0  0
   10.2364  -12.9107    0.0000 H   0  0  0  0  0  0  0  0  0  0  0  0
    8.8075  -15.3857    0.0000 H   0  0  0  0  0  0  0  0  0  0  0  0
    5.9496  -16.2107    0.0000 O   0  0  0  0  0  0  0  0  0  0  0  0
    3.8065  -13.3229    0.0000 O   0  0  0  0  0  0  0  0  0  0  0  0
    5.2354  -13.3231    0.0000 O   0  0  0  0  0  0  0  0  0  0  0  0
    4.5209  -13.7355    0.0000 C   0  0  0  0  0  0  0  0  0  0  0  0
    3.0917  -16.2103    0.0000 O   0  0  0  0  0  0  0  0  0  0  0  0
    3.0919  -14.5603    0.0000 O   0  0  0  0  0  0  0  0  0  0  0  0
    4.5208  -14.5605    0.0000 C   0  0  2  0  0  0  0  0  0  0  0  0
    3.8063  -14.9729    0.0000 C   0  0  2  0  0  0  0  0  0  0  0  0
    3.8062  -15.7979    0.0000 C   0  0  1  0  0  0  0  0  0  0  0  0
    4.5206  -16.2105    0.0000 C   0  0  2  0  0  0  0  0  0  0  0  0
    5.2351  -15.7981    0.0000 C   0  0  1  0  0  0  0  0  0  0  0  0
    5.2352  -14.9731    0.0000 O   0  0  0  0  0  0  0  0  0  0  0  0
    4.5205  -17.0355    0.0000 O   0  0  0  0  0  0  0  0  0  0  0  0
    1.6625  -18.6852    0.0000 O   0  0  0  0  0  0  0  0  0  0  0  0
    3.0913  -19.5103    0.0000 O   0  0  0  0  0  0  0  0  0  0  0  0
    4.5203  -18.6855    0.0000 O   0  0  0  0  0  0  0  0  0  0  0  0
    0.9481  -17.4476    0.0000 O   0  0  0  0  0  0  0  0  0  0  0  0
    3.8060  -17.4479    0.0000 C   0  0  1  0  0  0  0  0  0  0  0  0
    3.8059  -18.2729    0.0000 C   0  0  1  0  0  0  0  0  0  0  0  0
    3.0914  -18.6853    0.0000 C   0  0  2  0  0  0  0  0  0  0  0  0
    2.3770  -18.2728    0.0000 C   0  0  1  0  0  0  0  0  0  0  0  0
    2.3771  -17.4478    0.0000 C   0  0  2  0  0  0  0  0  0  0  0  0
    3.0916  -17.0353    0.0000 O   0  0  0  0  0  0  0  0  0  0  0  0
 56 51  1  1  0  0  0
 48 51  1  6  0  0  0
 49 39  1  1  0  0  0
 45 42  1  1  0  0  0
 42 40  1  0  0  0  0
 42 41  2  0  0  0  0
 47 43  1  1  0  0  0
 46 44  1  6  0  0  0
 50 45  1  0  0  0  0
 46 45  1  0  0  0  0
 47 46  1  0  0  0  0
 48 47  1  0  0  0  0
 49 48  1  0  0  0  0
 50 49  1  0  0  0  0
 59 52  1  6  0  0  0
 58 53  1  1  0  0  0
 57 54  1  6  0  0  0
 60  1  1  1  0  0  0
 61 56  1  0  0  0  0
 57 56  1  0  0  0  0
 58 57  1  0  0  0  0
 59 58  1  0  0  0  0
 60 59  1  0  0  0  0
 61 60  1  0  0  0  0
  1  2  2  0  0  0  0
  1 55  1  0  0  0  0
  3  4  1  0  0  0  0
  4  5  1  0  0  0  0
  5  6  1  0  0  0  0
  6  7  1  0  0  0  0
  7  8  1  0  0  0  0
  8  9  1  0  0  0  0
  9 10  1  0  0  0  0
 10 11  1  0  0  0  0
 11 12  1  0  0  0  0
 12 13  1  0  0  0  0
 13 14  1  0  0  0  0
 14 15  1  0  0  0  0
 15 16  1  0  0  0  0
 16 17  1  0  0  0  0
 17 18  1  0  0  0  0
 18 19  1  0  0  0  0
 14 19  1  0  0  0  0
 19 20  1  0  0  0  0
 11 20  1  0  0  0  0
 20 21  2  0  0  0  0
 21 22  1  0  0  0  0
 22 23  1  0  0  0  0
 10 23  1  0  0  0  0
 23 24  1  0  0  0  0
  7 24  1  0  0  0  0
  3 24  1  0  0  0  0
 22 25  2  0  0  0  0
 24 26  1  1  0  0  0
 17 27  1  6  0  0  0
 14 28  1  1  0  0  0
 11 29  1  6  0  0  0
 10 30  1  1  0  0  0
  6 31  1  0  0  0  0
  6 32  1  0  0  0  0
 33 34  1  0  0  0  0
 17 33  1  1  0  0  0
 15 35  1  1  0  0  0
  5 39  1  1  0  0  0
  7 36  1  6  0  0  0
 19 37  1  1  0  0  0
 23 38  1  6  0  0  0
M  END
>  <cdx:fragmentId>
209981

$$$$
