27866.cdx
  Mrv1902 05222410262D          

 11 11  0  0  0  0            999 V2000
    7.6858   -4.7833    0.0000 C   0  0  1  0  0  0  0  0  0  0  0  0
    7.6795   -3.9584    0.0000 C   0  0  0  0  0  0  0  0  0  0  0  0
    8.3907   -3.5404    0.0000 C   0  0  2  0  0  0  0  0  0  0  0  0
    9.1084   -3.9474    0.0000 C   0  0  0  0  0  0  0  0  0  0  0  0
    9.1147   -4.7723    0.0000 C   0  0  0  0  0  0  0  0  0  0  0  0
    8.4034   -5.1903    0.0000 O   0  0  0  0  0  0  0  0  0  0  0  0
    6.9745   -5.2013    0.0000 C   0  0  0  0  0  0  0  0  0  0  0  0
    6.9809   -6.0263    0.0000 C   0  0  0  0  0  0  0  0  0  0  0  0
    7.6985   -6.4333    0.0000 C   0  0  0  0  0  0  0  0  0  0  0  0
    6.2696   -6.4443    0.0000 C   0  0  0  0  0  0  0  0  0  0  0  0
    8.3844   -2.7154    0.0000 C   0  0  0  0  0  0  0  0  0  0  0  0
  1  2  1  0  0  0  0
  2  3  1  0  0  0  0
  3  4  1  0  0  0  0
  4  5  1  0  0  0  0
  5  6  1  0  0  0  0
  1  6  1  0  0  0  0
  7  8  2  0  0  0  0
  8  9  1  0  0  0  0
  8 10  1  0  0  0  0
  1  7  1  1  0  0  0
  3 11  1  1  0  0  0
M  END
>  <cdx:fragmentId>
5

$$$$
