27867.cdx
  Mrv1902 05222410262D          

 14 14  0  0  0  0            999 V2000
    5.9332   -5.6934    0.0000 C   0  0  0  0  0  0  0  0  0  0  0  0
    5.2188   -6.1059    0.0000 C   0  0  0  0  0  0  0  0  0  0  0  0
    5.9332   -4.8684    0.0000 O   0  0  0  0  0  0  0  0  0  0  0  0
    6.6477   -6.1059    0.0000 O   0  0  0  0  0  0  0  0  0  0  0  0
    7.3622   -5.6934    0.0000 C   0  0  0  0  0  0  0  0  0  0  0  0
    8.0766   -6.1059    0.0000 C   0  0  0  0  0  0  0  0  0  0  0  0
    8.7911   -5.6934    0.0000 C   0  0  0  0  0  0  0  0  0  0  0  0
    8.7911   -4.8684    0.0000 C   0  0  0  0  0  0  0  0  0  0  0  0
    8.0766   -4.4559    0.0000 C   0  0  0  0  0  0  0  0  0  0  0  0
    7.3622   -4.8684    0.0000 C   0  0  0  0  0  0  0  0  0  0  0  0
    8.0766   -3.6309    0.0000 C   0  0  0  0  0  0  0  0  0  0  0  0
    8.0766   -6.9309    0.0000 C   0  0  0  0  0  0  0  0  0  0  0  0
    8.7911   -7.3434    0.0000 C   0  0  0  0  0  0  0  0  0  0  0  0
    7.3622   -7.3434    0.0000 C   0  0  0  0  0  0  0  0  0  0  0  0
  1  2  1  0  0  0  0
  1  3  2  0  0  0  0
  1  4  1  0  0  0  0
  5  6  1  0  0  0  0
  6  7  1  0  0  0  0
  7  8  1  0  0  0  0
  8  9  1  0  0  0  0
  9 10  1  0  0  0  0
  5 10  1  0  0  0  0
  9 11  1  0  0  0  0
 12 13  1  0  0  0  0
 12 14  1  0  0  0  0
  6 12  1  0  0  0  0
  4  5  1  0  0  0  0
M  END
>  <cdx:fragmentId>
13

$$$$
