5279294.cdx
  Mrv1902 05222410262D          

 17 18  0  0  0  0            999 V2000
   14.2380   -9.3555    0.0000 C   0  0  0  0  0  0  0  0  0  0  0  0
   13.5236   -8.9430    0.0000 C   0  0  0  0  0  0  0  0  0  0  0  0
   13.5236   -8.1180    0.0000 C   0  0  0  0  0  0  0  0  0  0  0  0
   14.2380   -7.7055    0.0000 C   0  0  1  0  0  0  0  0  0  0  0  0
   14.9525   -8.1180    0.0000 C   0  0  0  0  0  0  0  0  0  0  0  0
   15.6670   -7.7055    0.0000 C   0  0  1  0  0  0  0  0  0  0  0  0
   16.3815   -8.1180    0.0000 C   0  0  2  0  0  0  0  0  0  0  0  0
   16.3815   -8.9430    0.0000 C   0  0  0  0  0  0  0  0  0  0  0  0
   15.6670   -9.3555    0.0000 C   0  0  0  0  0  0  0  0  0  0  0  0
   14.9525   -8.9430    0.0000 C   0  0  0  0  0  0  0  0  0  0  0  0
   14.2380  -10.1805    0.0000 O   0  0  0  0  0  0  0  0  0  0  0  0
   14.9525   -6.4680    0.0000 C   0  0  0  0  0  0  0  0  0  0  0  0
   14.2380   -6.8805    0.0000 C   0  0  0  0  0  0  0  0  0  0  0  0
   13.5236   -6.4680    0.0000 C   0  0  0  0  0  0  0  0  0  0  0  0
   17.2065   -8.1180    0.0000 C   0  0  0  0  0  0  0  0  0  0  0  0
   16.7940   -7.4036    0.0000 O   0  0  0  0  0  0  0  0  0  0  0  0
   15.6670   -6.8805    0.0000 O   0  0  0  0  0  0  0  0  0  0  0  0
  1  2  1  0  0  0  0
  2  3  1  0  0  0  0
  3  4  1  0  0  0  0
  4  5  1  0  0  0  0
  5  6  1  0  0  0  0
  6  7  1  0  0  0  0
  7  8  1  0  0  0  0
  8  9  1  0  0  0  0
  9 10  1  0  0  0  0
  1 10  1  0  0  0  0
  5 10  2  0  0  0  0
  1 11  2  0  0  0  0
 12 13  1  0  0  0  0
 13 14  1  0  0  0  0
  4 13  1  6  0  0  0
  7 15  1  1  0  0  0
  7 16  1  6  0  0  0
  6 17  1  6  0  0  0
M  END
>  <cdx:groupId>
8543

>  <cdx:fragmentId>
8494

$$$$
