2797.cdx
  Mrv1902 05222410272D          

 46 52  0  0  0  0            999 V2000
    7.6638   -8.8734    0.0000 C   0  0  2  0  0  0  0  0  0  0  0  0
    8.0239   -9.6157    0.0000 C   0  0  1  0  0  0  0  0  0  0  0  0
    7.6681  -10.3600    0.0000 C   0  0  1  0  0  0  0  0  0  0  0  0
    6.8643  -10.5460    0.0000 C   0  0  1  0  0  0  0  0  0  0  0  0
    6.2178  -10.0335    0.0000 C   0  0  1  0  0  0  0  0  0  0  0  0
    6.2154   -9.2085    0.0000 C   0  0  2  0  0  0  0  0  0  0  0  0
    6.8589   -8.6922    0.0000 C   0  0  2  0  0  0  0  0  0  0  0  0
    5.5046  -10.4480    0.0000 C   0  0  2  0  0  0  0  0  0  0  0  0
    4.7889  -10.0376    0.0000 C   0  0  0  0  0  0  0  0  0  0  0  0
    4.7865   -9.2126    0.0000 C   0  0  0  0  0  0  0  0  0  0  0  0
    5.4997   -8.7980    0.0000 C   0  0  2  0  0  0  0  0  0  0  0  0
    6.7826   -7.8707    0.0000 C   0  0  0  0  0  0  0  0  0  0  0  0
    7.5402   -7.5443    0.0000 C   0  0  1  0  0  0  0  0  0  0  0  0
    8.0848   -8.1640    0.0000 C   0  0  2  0  0  0  0  0  0  0  0  0
    5.4973   -7.9731    0.0000 O   0  0  0  0  0  0  0  0  0  0  0  0
    4.7862   -7.5549    0.0000 C   0  0  0  0  0  0  0  0  0  0  0  0
    5.5070  -11.2730    0.0000 C   0  0  0  0  0  0  0  0  0  0  0  0
    4.7937  -11.6876    0.0000 O   0  0  0  0  0  0  0  0  0  0  0  0
    4.7961  -12.5126    0.0000 C   0  0  0  0  0  0  0  0  0  0  0  0
    6.2150   -8.5525    0.0000 C   0  0  0  0  0  0  0  0  0  0  0  0
    5.5000   -9.5700    0.0000 N   0  0  0  0  0  0  0  0  0  0  0  0
    4.7850  -10.7525    0.0000 C   0  0  0  0  0  0  0  0  0  0  0  0
    8.8225   -9.4085    0.0000 C   0  0  2  0  0  0  0  0  0  0  0  0
    8.8550   -7.7275    0.0000 C   0  0  2  0  0  0  0  0  0  0  0  0
    8.2374  -10.4126    0.0000 O   0  0  0  0  0  0  0  0  0  0  0  0
    9.5700   -8.1675    0.0000 O   0  0  0  0  0  0  0  0  0  0  0  0
    6.2112  -10.8584    0.0000 H   0  0  0  0  0  0  0  0  0  0  0  0
    6.2756   -8.1088    0.0000 H   0  0  0  0  0  0  0  0  0  0  0  0
    8.4887   -8.8800    0.0000 H   0  0  0  0  0  0  0  0  0  0  0  0
    7.5402   -6.7193    0.0000 O   0  0  0  0  0  0  0  0  0  0  0  0
    7.6681  -11.1850    0.0000 H   0  0  0  0  0  0  0  0  0  0  0  0
    4.3175   -9.5700    0.0000 C   0  0  0  0  0  0  0  0  0  0  0  0
    3.7341   -8.9866    0.0000 C   0  0  0  0  0  0  0  0  0  0  0  0
    9.5695   -7.3150    0.0000 O   0  0  0  0  0  0  0  0  0  0  0  0
    9.5695   -6.4900    0.0000 C   0  0  0  0  0  0  0  0  0  0  0  0
    6.8643  -11.3710    0.0000 O   0  0  0  0  0  0  0  0  0  0  0  0
    6.1499  -11.7835    0.0000 C   0  0  0  0  0  0  0  0  0  0  0  0
   10.2845   -8.5800    0.0000 C   0  0  0  0  0  0  0  0  0  0  0  0
   10.9989   -8.1675    0.0000 C   0  0  0  0  0  0  0  0  0  0  0  0
   10.2845   -9.4050    0.0000 O   0  0  0  0  0  0  0  0  0  0  0  0
   11.7134   -8.5800    0.0000 C   0  0  0  0  0  0  0  0  0  0  0  0
   12.4279   -8.1675    0.0000 C   0  0  0  0  0  0  0  0  0  0  0  0
   12.4279   -7.3425    0.0000 C   0  0  0  0  0  0  0  0  0  0  0  0
   11.7134   -6.9300    0.0000 C   0  0  0  0  0  0  0  0  0  0  0  0
   10.9989   -7.3425    0.0000 C   0  0  0  0  0  0  0  0  0  0  0  0
    9.6193   -9.6221    0.0000 O   0  0  0  0  0  0  0  0  0  0  0  0
  1  2  1  0  0  0  0
  2  3  1  0  0  0  0
  3  4  1  0  0  0  0
  4  5  1  0  0  0  0
  5  6  1  0  0  0  0
  6  7  1  0  0  0  0
  7  1  1  0  0  0  0
  5  8  1  0  0  0  0
  8  9  1  0  0  0  0
  9 10  1  0  0  0  0
 10 11  1  0  0  0  0
  6 11  1  1  0  0  0
  7 12  1  0  0  0  0
 12 13  1  0  0  0  0
 13 14  1  0  0  0  0
 14  1  1  0  0  0  0
 11 15  1  6  0  0  0
 15 16  1  0  0  0  0
  8 17  1  1  0  0  0
 17 18  1  0  0  0  0
 18 19  1  0  0  0  0
  6 20  1  0  0  0  0
  3 20  1  0  0  0  0
 20 21  1  0  0  0  0
 21 22  1  0  0  0  0
  8 22  1  0  0  0  0
  2 23  1  0  0  0  0
 13 24  1  0  0  0  0
 24 23  1  0  0  0  0
  2 25  1  1  0  0  0
 14 26  1  6  0  0  0
  5 27  1  1  0  0  0
  7 28  1  1  0  0  0
  1 29  1  1  0  0  0
 13 30  1  1  0  0  0
  3 31  1  6  0  0  0
 21 32  1  0  0  0  0
 32 33  1  0  0  0  0
 24 34  1  1  0  0  0
 34 35  1  0  0  0  0
  4 36  1  6  0  0  0
 36 37  1  0  0  0  0
 26 38  1  0  0  0  0
 38 39  1  0  0  0  0
 38 40  2  0  0  0  0
 39 41  2  0  0  0  0
 41 42  1  0  0  0  0
 42 43  2  0  0  0  0
 43 44  1  0  0  0  0
 44 45  2  0  0  0  0
 45 39  1  0  0  0  0
 23 46  1  6  0  0  0
M  END
>  <cdx:fragmentId>
378

$$$$
