280360.cdx
  Mrv1902 05222410182D          

 25 25  0  0  0  0            999 V2000
    8.0242   -8.9550    0.0000 C   0  0  2  0  0  0  0  0  0  0  0  0
    7.1994   -8.9749    0.0000 C   0  0  2  0  0  0  0  0  0  0  0  0
    6.9635   -9.7655    0.0000 C   0  0  0  0  0  0  0  0  0  0  0  0
    7.6425  -10.2341    0.0000 C   0  0  0  0  0  0  0  0  0  0  0  0
    8.2980   -9.7332    0.0000 C   0  0  1  0  0  0  0  0  0  0  0  0
    6.1853  -10.0393    0.0000 O   0  0  0  0  0  0  0  0  0  0  0  0
    9.0886   -9.9691    0.0000 O   0  0  0  0  0  0  0  0  0  0  0  0
   12.9037   -5.9783    0.0000 C   0  0  0  0  0  0  0  0  0  0  0  0
   12.0789   -5.9983    0.0000 C   0  0  0  0  0  0  0  0  0  0  0  0
   11.6838   -6.7225    0.0000 C   0  0  0  0  0  0  0  0  0  0  0  0
   10.8591   -6.7424    0.0000 C   0  0  0  0  0  0  0  0  0  0  0  0
    9.2095   -6.7823    0.0000 O   0  0  0  0  0  0  0  0  0  0  0  0
   10.4639   -7.4667    0.0000 C   0  0  0  0  0  0  0  0  0  0  0  0
    9.6392   -7.4866    0.0000 C   0  0  1  0  0  0  0  0  0  0  0  0
    9.2441   -8.2108    0.0000 C   0  0  0  0  0  0  0  0  0  0  0  0
    8.4193   -8.2308    0.0000 C   0  0  0  0  0  0  0  0  0  0  0  0
    5.9450   -8.2906    0.0000 C   0  0  0  0  0  0  0  0  0  0  0  0
    6.7698   -8.2706    0.0000 C   0  0  0  0  0  0  0  0  0  0  0  0
    5.5154   -7.5863    0.0000 C   0  0  0  0  0  0  0  0  0  0  0  0
    5.9105   -6.8621    0.0000 C   0  0  0  0  0  0  0  0  0  0  0  0
    5.4808   -6.1578    0.0000 C   0  0  0  0  0  0  0  0  0  0  0  0
    5.8759   -5.4335    0.0000 C   0  0  0  0  0  0  0  0  0  0  0  0
    5.4463   -4.7293    0.0000 C   0  0  0  0  0  0  0  0  0  0  0  0
    5.8414   -4.0050    0.0000 O   0  0  0  0  0  0  0  0  0  0  0  0
    4.6215   -4.7492    0.0000 O   0  0  0  0  0  0  0  0  0  0  0  0
  9  8  1  0  0  0  0
 10  9  1  0  0  0  0
 11 10  1  0  0  0  0
 13 11  1  0  0  0  0
 14 12  1  1  0  0  0
 14 13  1  0  0  0  0
 15 14  1  0  0  0  0
 16 15  2  0  0  0  0
 18 17  1  0  0  0  0
  1  2  1  0  0  0  0
  2  3  1  0  0  0  0
  3  4  1  0  0  0  0
  4  5  1  0  0  0  0
  5  1  1  0  0  0  0
  3  6  2  0  0  0  0
  5  7  1  6  0  0  0
  2 18  1  6  0  0  0
  1 16  1  1  0  0  0
 17 19  2  0  0  0  0
 19 20  1  0  0  0  0
 20 21  1  0  0  0  0
 21 22  1  0  0  0  0
 22 23  1  0  0  0  0
 23 24  2  0  0  0  0
 23 25  1  0  0  0  0
M  END
>  <cdx:fragmentId>
8690

$$$$
