280371.cdx
  Mrv1902 05222410202D          

 15 17  0  0  0  0            999 V2000
    6.7137   -9.7022    0.0000 O   0  0  0  0  0  0  0  0  0  0  0  0
    9.5716   -7.2272    0.0000 O   0  0  0  0  0  0  0  0  0  0  0  0
    4.7297   -8.0522    0.0000 C   0  0  0  0  0  0  0  0  0  0  0  0
    5.2146   -8.7197    0.0000 C   0  0  0  0  0  0  0  0  0  0  0  0
    5.2146   -7.3848    0.0000 O   0  0  0  0  0  0  0  0  0  0  0  0
    8.1427   -7.2272    0.0000 O   0  0  0  0  0  0  0  0  0  0  0  0
    7.4282   -7.6397    0.0000 C   0  0  0  0  0  0  0  0  0  0  0  0
    6.7137   -7.2272    0.0000 C   0  0  0  0  0  0  0  0  0  0  0  0
    5.9993   -7.6397    0.0000 C   0  0  0  0  0  0  0  0  0  0  0  0
    5.9993   -8.4647    0.0000 C   0  0  0  0  0  0  0  0  0  0  0  0
    6.7137   -8.8772    0.0000 C   0  0  0  0  0  0  0  0  0  0  0  0
    7.4282   -8.4647    0.0000 C   0  0  0  0  0  0  0  0  0  0  0  0
    8.1427   -8.8772    0.0000 C   0  0  0  0  0  0  0  0  0  0  0  0
    8.8572   -8.4647    0.0000 C   0  0  0  0  0  0  0  0  0  0  0  0
    8.8572   -7.6397    0.0000 C   0  0  0  0  0  0  0  0  0  0  0  0
 11  1  1  0  0  0  0
 15  2  2  0  0  0  0
  5  9  1  0  0  0  0
  4 10  1  0  0  0  0
  5  3  1  0  0  0  0
  4  3  2  0  0  0  0
 15  6  1  0  0  0  0
  7  6  1  0  0  0  0
 12  7  1  0  0  0  0
  8  7  2  0  0  0  0
  9  8  1  0  0  0  0
 10  9  2  0  0  0  0
 11 10  1  0  0  0  0
 12 11  2  0  0  0  0
 13 12  1  0  0  0  0
 14 13  2  0  0  0  0
 15 14  1  0  0  0  0
M  END
>  <cdx:fragmentId>
5

$$$$
