5280335.cdx
  Mrv1902 05222410242D          

 21 20  0  0  0  0            999 V2000
   10.0673   -8.1827    0.0000 C   0  0  0  0  0  0  0  0  0  0  0  0
   10.7818   -8.5952    0.0000 C   0  0  1  0  0  0  0  0  0  0  0  0
   11.4962   -8.1827    0.0000 C   0  0  1  0  0  0  0  0  0  0  0  0
   12.2107   -8.5952    0.0000 C   0  0  0  0  0  0  0  0  0  0  0  0
   12.9252   -8.1827    0.0000 C   0  0  0  0  0  0  0  0  0  0  0  0
   13.6396   -8.5952    0.0000 C   0  0  0  0  0  0  0  0  0  0  0  0
   14.3541   -8.1827    0.0000 C   0  0  0  0  0  0  0  0  0  0  0  0
   15.0686   -8.5952    0.0000 C   0  0  0  0  0  0  0  0  0  0  0  0
   15.7830   -8.1827    0.0000 C   0  0  0  0  0  0  0  0  0  0  0  0
   16.4975   -8.5952    0.0000 C   0  0  0  0  0  0  0  0  0  0  0  0
   17.2120   -8.1827    0.0000 C   0  0  0  0  0  0  0  0  0  0  0  0
   17.9265   -8.5952    0.0000 C   0  0  0  0  0  0  0  0  0  0  0  0
   18.6409   -8.1827    0.0000 C   0  0  0  0  0  0  0  0  0  0  0  0
   19.3554   -8.5952    0.0000 C   0  0  0  0  0  0  0  0  0  0  0  0
   20.0699   -8.1827    0.0000 C   0  0  0  0  0  0  0  0  0  0  0  0
   20.7843   -8.5952    0.0000 C   0  0  0  0  0  0  0  0  0  0  0  0
   21.4988   -8.1827    0.0000 C   0  0  0  0  0  0  0  0  0  0  0  0
   22.2133   -8.5952    0.0000 C   0  0  0  0  0  0  0  0  0  0  0  0
    9.3528   -8.5952    0.0000 O   0  0  0  0  0  0  0  0  0  0  0  0
   11.4962   -7.3577    0.0000 O   0  0  0  0  0  0  0  0  0  0  0  0
   10.7818   -9.4202    0.0000 N   0  0  0  0  0  0  0  0  0  0  0  0
  1  2  1  0  0  0  0
  2  3  1  0  0  0  0
  3  4  1  0  0  0  0
  4  5  2  0  0  0  0
  5  6  1  0  0  0  0
  6  7  1  0  0  0  0
  7  8  1  0  0  0  0
  8  9  1  0  0  0  0
  9 10  1  0  0  0  0
 10 11  1  0  0  0  0
 11 12  1  0  0  0  0
 12 13  1  0  0  0  0
 13 14  1  0  0  0  0
 14 15  1  0  0  0  0
 15 16  1  0  0  0  0
 16 17  1  0  0  0  0
 17 18  1  0  0  0  0
  1 19  1  0  0  0  0
  3 20  1  6  0  0  0
  2 21  1  1  0  0  0
M  END
>  <cdx:groupId>
8610

>  <cdx:fragmentId>
8551

$$$$
