5280460.cdx
  Mrv1902 05222410232D          

 14 15  0  0  0  0            999 V2000
   16.4330   -7.6241    0.0000 O   0  0  0  0  0  0  0  0  0  0  0  0
   17.1475   -8.0366    0.0000 C   0  0  0  0  0  0  0  0  0  0  0  0
   17.8620   -7.6241    0.0000 O   0  0  0  0  0  0  0  0  0  0  0  0
   17.1475   -8.8616    0.0000 C   0  0  0  0  0  0  0  0  0  0  0  0
   16.4330   -9.2741    0.0000 C   0  0  0  0  0  0  0  0  0  0  0  0
   15.7186   -8.8616    0.0000 C   0  0  0  0  0  0  0  0  0  0  0  0
   15.0041   -9.2741    0.0000 C   0  0  0  0  0  0  0  0  0  0  0  0
   14.2896   -8.8616    0.0000 C   0  0  0  0  0  0  0  0  0  0  0  0
   13.5752   -9.2741    0.0000 O   0  0  0  0  0  0  0  0  0  0  0  0
   12.8607   -8.8616    0.0000 C   0  0  0  0  0  0  0  0  0  0  0  0
   14.2896   -8.0366    0.0000 C   0  0  0  0  0  0  0  0  0  0  0  0
   13.5752   -7.6241    0.0000 O   0  0  0  0  0  0  0  0  0  0  0  0
   15.0041   -7.6241    0.0000 C   0  0  0  0  0  0  0  0  0  0  0  0
   15.7186   -8.0366    0.0000 C   0  0  0  0  0  0  0  0  0  0  0  0
  1  2  1  0  0  0  0
  2  3  2  0  0  0  0
  2  4  1  0  0  0  0
  4  5  2  0  0  0  0
  5  6  1  0  0  0  0
  6  7  1  0  0  0  0
  7  8  2  0  0  0  0
  8  9  1  0  0  0  0
  9 10  1  0  0  0  0
  8 11  1  0  0  0  0
 11 12  1  0  0  0  0
 11 13  2  0  0  0  0
 13 14  1  0  0  0  0
  1 14  1  0  0  0  0
  6 14  2  0  0  0  0
M  END
>  <cdx:groupId>
9773

>  <cdx:fragmentId>
9733

$$$$
