280452.cdx
  Mrv1902 05222410242D          

  8  7  0  0  0  0            999 V2000
    8.3721   -6.6341    0.0000 C   0  0  0  0  0  0  0  0  0  0  0  0
    7.6577   -7.0466    0.0000 C   0  0  0  0  0  0  0  0  0  0  0  0
    6.9432   -6.6341    0.0000 C   0  0  0  0  0  0  0  0  0  0  0  0
    6.9432   -5.8091    0.0000 C   0  0  0  0  0  0  0  0  0  0  0  0
    8.3721   -5.8091    0.0000 O   0  0  0  0  0  0  0  0  0  0  0  0
    9.0866   -7.0466    0.0000 O   0  0  0  0  0  0  0  0  0  0  0  0
    7.6577   -5.3966    0.0000 O   0  0  0  0  0  0  0  0  0  0  0  0
    6.2287   -5.3966    0.0000 N   0  0  0  0  0  0  0  0  0  0  0  0
  1  2  1  0  0  0  0
  2  3  2  0  0  0  0
  3  4  1  0  0  0  0
  1  5  2  0  0  0  0
  1  6  1  0  0  0  0
  4  7  2  0  0  0  0
  4  8  1  0  0  0  0
M  END
>  <cdx:fragmentId>
9485

$$$$
