280489.cdx
  Mrv1902 05222410222D          

 40 41  0  0  0  0            999 V2000
    2.8869  -14.7436    0.0000 C   0  0  0  0  0  0  0  0  0  0  0  0
    3.6012  -14.3307    0.0000 C   0  0  0  0  0  0  0  0  0  0  0  0
    4.3159  -14.7428    0.0000 C   0  0  0  0  0  0  0  0  0  0  0  0
    4.3164  -15.5678    0.0000 C   0  0  0  0  0  0  0  0  0  0  0  0
    3.6022  -15.9807    0.0000 C   0  0  0  0  0  0  0  0  0  0  0  0
    2.8874  -15.5686    0.0000 C   0  0  0  0  0  0  0  0  0  0  0  0
    3.6007  -13.5057    0.0000 C   0  0  0  0  0  0  0  0  0  0  0  0
    4.3149  -13.0928    0.0000 C   0  0  0  0  0  0  0  0  0  0  0  0
    4.3144  -12.2678    0.0000 C   0  0  0  0  0  0  0  0  0  0  0  0
    5.0286  -11.8548    0.0000 C   0  0  0  0  0  0  0  0  0  0  0  0
    5.0281  -11.0298    0.0000 C   0  0  0  0  0  0  0  0  0  0  0  0
    5.7423  -10.6169    0.0000 C   0  0  0  0  0  0  0  0  0  0  0  0
    5.7418   -9.7919    0.0000 C   0  0  0  0  0  0  0  0  0  0  0  0
    6.4561   -9.3790    0.0000 C   0  0  0  0  0  0  0  0  0  0  0  0
    6.4556   -8.5540    0.0000 C   0  0  0  0  0  0  0  0  0  0  0  0
    7.1698   -8.1410    0.0000 C   0  0  0  0  0  0  0  0  0  0  0  0
    7.1693   -7.3160    0.0000 C   0  0  0  0  0  0  0  0  0  0  0  0
    7.8835   -6.9031    0.0000 C   0  0  0  0  0  0  0  0  0  0  0  0
    7.8830   -6.0781    0.0000 C   0  0  0  0  0  0  0  0  0  0  0  0
    8.5972   -5.6652    0.0000 C   0  0  0  0  0  0  0  0  0  0  0  0
    8.5967   -4.8402    0.0000 C   0  0  0  0  0  0  0  0  0  0  0  0
    9.3110   -4.4273    0.0000 C   0  0  0  0  0  0  0  0  0  0  0  0
    9.3105   -3.6023    0.0000 C   0  0  0  0  0  0  0  0  0  0  0  0
   10.0247   -3.1893    0.0000 C   0  0  0  0  0  0  0  0  0  0  0  0
   10.0242   -2.3643    0.0000 C   0  0  0  0  0  0  0  0  0  0  0  0
    9.3095   -1.9523    0.0000 C   0  0  0  0  0  0  0  0  0  0  0  0
    9.3090   -1.1273    0.0000 C   0  0  0  0  0  0  0  0  0  0  0  0
   10.0232   -0.7143    0.0000 C   0  0  0  0  0  0  0  0  0  0  0  0
   10.7379   -1.1264    0.0000 C   0  0  0  0  0  0  0  0  0  0  0  0
   10.7384   -1.9514    0.0000 C   0  0  0  0  0  0  0  0  0  0  0  0
   10.0257   -4.8393    0.0000 C   0  0  0  0  0  0  0  0  0  0  0  0
    8.5982   -7.3152    0.0000 C   0  0  0  0  0  0  0  0  0  0  0  0
    5.0271   -9.3798    0.0000 C   0  0  0  0  0  0  0  0  0  0  0  0
    3.5997  -11.8557    0.0000 C   0  0  0  0  0  0  0  0  0  0  0  0
   11.4531   -2.3635    0.0000 C   0  0  0  0  0  0  0  0  0  0  0  0
    8.8978   -2.6672    0.0000 C   0  0  0  0  0  0  0  0  0  0  0  0
    8.4845   -1.9532    0.0000 C   0  0  0  0  0  0  0  0  0  0  0  0
    5.0301  -14.3298    0.0000 C   0  0  0  0  0  0  0  0  0  0  0  0
    2.0619  -14.7436    0.0000 C   0  0  0  0  0  0  0  0  0  0  0  0
    2.4744  -14.0292    0.0000 C   0  0  0  0  0  0  0  0  0  0  0  0
  1  2  1  0  0  0  0
  2  3  2  0  0  0  0
  3  4  1  0  0  0  0
  4  5  1  0  0  0  0
  5  6  1  0  0  0  0
  1  6  1  0  0  0  0
  7  8  2  0  0  0  0
  8  9  1  0  0  0  0
  9 10  2  0  0  0  0
 10 11  1  0  0  0  0
 11 12  2  0  0  0  0
 12 13  1  0  0  0  0
 13 14  2  0  0  0  0
 14 15  1  0  0  0  0
 15 16  2  0  0  0  0
 16 17  1  0  0  0  0
 17 18  2  0  0  0  0
 18 19  1  0  0  0  0
 19 20  2  0  0  0  0
 20 21  1  0  0  0  0
 21 22  2  0  0  0  0
 22 23  1  0  0  0  0
 23 24  2  0  0  0  0
 25 26  1  0  0  0  0
 26 27  1  0  0  0  0
 27 28  1  0  0  0  0
 28 29  1  0  0  0  0
 29 30  1  0  0  0  0
 25 30  2  0  0  0  0
 25 24  1  0  0  0  0
 22 31  1  0  0  0  0
 18 32  1  0  0  0  0
 13 33  1  0  0  0  0
  9 34  1  0  0  0  0
  2  7  1  0  0  0  0
 30 35  1  0  0  0  0
 26 36  1  0  0  0  0
 26 37  1  0  0  0  0
  3 38  1  0  0  0  0
  1 39  1  0  0  0  0
  1 40  1  0  0  0  0
M  END
>  <cdx:fragmentId>
17

$$$$
