5280462.cdx
  Mrv1902 05222410222D          

 16 16  0  0  0  0            999 V2000
   13.7900   -7.6471    0.0000 C   0  0  0  0  0  0  0  0  0  0  0  0
   13.7900   -8.4721    0.0000 C   0  0  0  0  0  0  0  0  0  0  0  0
   14.5045   -8.8846    0.0000 C   0  0  0  0  0  0  0  0  0  0  0  0
   15.2189   -8.4721    0.0000 C   0  0  1  0  0  0  0  0  0  0  0  0
   15.2189   -7.6471    0.0000 C   0  0  0  0  0  0  0  0  0  0  0  0
   14.5045   -7.2346    0.0000 C   0  0  0  0  0  0  0  0  0  0  0  0
   13.0755   -7.2346    0.0000 O   0  0  0  0  0  0  0  0  0  0  0  0
   15.6314   -6.9327    0.0000 C   0  0  0  0  0  0  0  0  0  0  0  0
   16.0439   -7.6471    0.0000 C   0  0  0  0  0  0  0  0  0  0  0  0
   14.5045   -9.7096    0.0000 C   0  0  0  0  0  0  0  0  0  0  0  0
   15.9334   -8.8846    0.0000 C   0  0  0  0  0  0  0  0  0  0  0  0
   16.6479   -8.4721    0.0000 C   0  0  0  0  0  0  0  0  0  0  0  0
   17.3624   -8.8846    0.0000 C   0  0  1  0  0  0  0  0  0  0  0  0
   18.0768   -8.4721    0.0000 C   0  0  0  0  0  0  0  0  0  0  0  0
   17.3624   -9.7096    0.0000 O   0  0  0  0  0  0  0  0  0  0  0  0
   15.2189   -9.2971    0.0000 O   0  0  0  0  0  0  0  0  0  0  0  0
  1  2  1  0  0  0  0
  2  3  2  0  0  0  0
  3  4  1  0  0  0  0
  4  5  1  0  0  0  0
  5  6  1  0  0  0  0
  1  6  1  0  0  0  0
  1  7  2  0  0  0  0
  5  8  1  0  0  0  0
  5  9  1  0  0  0  0
  3 10  1  0  0  0  0
 11 12  2  0  0  0  0
 12 13  1  0  0  0  0
 13 14  1  0  0  0  0
 13 15  1  1  0  0  0
  4 11  1  0  0  0  0
  4 16  1  6  0  0  0
M  END
>  <cdx:groupId>
9828

>  <cdx:fragmentId>
9783

$$$$
