5280486.cdx
  Mrv1902 05222410232D          

 40 46  0  0  0  0            999 V2000
    9.2068   -9.4784    0.0000 C   0  0  0  0  0  0  0  0  0  0  0  0
    9.8304   -8.9382    0.0000 C   0  0  0  0  0  0  0  0  0  0  0  0
    9.3628  -10.2885    0.0000 O   0  0  0  0  0  0  0  0  0  0  0  0
    8.4272   -9.2085    0.0000 O   0  0  0  0  0  0  0  0  0  0  0  0
    9.2151   -7.5304    0.0000 C   0  0  2  0  0  0  0  0  0  0  0  0
    9.9997   -7.7853    0.0000 C   0  0  0  0  0  0  0  0  0  0  0  0
   10.3353   -8.5390    0.0000 C   0  0  0  0  0  0  0  0  0  0  0  0
   11.1558   -8.6252    0.0000 C   0  0  0  0  0  0  0  0  0  0  0  0
   11.6407   -7.9578    0.0000 C   0  0  0  0  0  0  0  0  0  0  0  0
   11.3051   -7.2041    0.0000 C   0  0  0  0  0  0  0  0  0  0  0  0
   10.4847   -7.1179    0.0000 C   0  0  0  0  0  0  0  0  0  0  0  0
    9.9997   -6.4504    0.0000 N   0  0  0  0  0  0  0  0  0  0  0  0
    9.2151   -6.7054    0.0000 C   0  0  0  0  0  0  0  0  0  0  0  0
    8.5006   -6.2929    0.0000 C   0  0  2  0  0  0  0  0  0  0  0  0
    8.1347   -7.1009    0.0000 C   0  0  0  0  0  0  0  0  0  0  0  0
    6.3572   -7.5304    0.0000 C   0  0  1  0  0  0  0  0  0  0  0  0
    6.3572   -6.7054    0.0000 C   0  0  0  0  0  0  0  0  0  0  0  0
    7.0717   -6.2929    0.0000 C   0  0  2  0  0  0  0  0  0  0  0  0
    7.7862   -6.7054    0.0000 N   0  0  0  0  0  0  0  0  0  0  0  0
    7.7862   -7.5304    0.0000 C   0  0  2  0  0  0  0  0  0  0  0  0
    7.0717   -7.9429    0.0000 C   0  0  0  0  0  0  0  0  0  0  0  0
    8.2712   -8.3984    0.0000 C   0  0  1  0  0  0  0  0  0  0  0  0
    8.5006   -7.9429    0.0000 C   0  0  0  0  0  0  0  0  0  0  0  0
    7.0717   -5.4679    0.0000 O   0  0  0  0  0  0  0  0  0  0  0  0
    5.6428   -5.4679    0.0000 O   0  0  0  0  0  0  0  0  0  0  0  0
    6.3572   -5.0554    0.0000 C   0  0  2  0  0  0  0  0  0  0  0  0
    6.3572   -4.2304    0.0000 C   0  0  1  0  0  0  0  0  0  0  0  0
    5.6428   -3.8179    0.0000 C   0  0  2  0  0  0  0  0  0  0  0  0
    4.9283   -4.2304    0.0000 C   0  0  1  0  0  0  0  0  0  0  0  0
    4.9283   -5.0554    0.0000 C   0  0  1  0  0  0  0  0  0  0  0  0
    4.2138   -5.4679    0.0000 C   0  0  0  0  0  0  0  0  0  0  0  0
    3.4994   -5.0554    0.0000 O   0  0  0  0  0  0  0  0  0  0  0  0
    4.2138   -3.8179    0.0000 O   0  0  0  0  0  0  0  0  0  0  0  0
    5.6428   -2.9929    0.0000 O   0  0  0  0  0  0  0  0  0  0  0  0
    7.0717   -3.8179    0.0000 O   0  0  0  0  0  0  0  0  0  0  0  0
    5.6428   -6.2929    0.0000 C   0  0  0  0  0  0  0  0  0  0  0  0
    4.9283   -6.7054    0.0000 C   0  0  0  0  0  0  0  0  0  0  0  0
    8.5006   -5.4679    0.0000 H   0  0  0  0  0  0  0  0  0  0  0  0
    5.6428   -7.9429    0.0000 H   0  0  0  0  0  0  0  0  0  0  0  0
    8.5986   -7.3871    0.0000 H   0  0  0  0  0  0  0  0  0  0  0  0
  1  2  1  0  0  0  0
  1  3  2  0  0  0  0
  1  4  1  0  0  0  0
  5  6  1  0  0  0  0
  6  7  2  0  0  0  0
  7  8  1  0  0  0  0
  8  9  2  0  0  0  0
  9 10  1  0  0  0  0
 10 11  2  0  0  0  0
 11 12  1  0  0  0  0
 12 13  2  0  0  0  0
 13 14  1  0  0  0  0
 14 15  1  1  0  0  0
 16 15  1  1  0  0  0
 16 17  1  0  0  0  0
 17 18  1  0  0  0  0
 18 19  1  0  0  0  0
 19 20  1  0  0  0  0
 20 21  1  0  0  0  0
 21 22  1  0  0  0  0
  5 22  1  0  0  0  0
  5 23  1  6  0  0  0
 23 20  1  0  0  0  0
 16 21  1  0  0  0  0
 14 19  1  0  0  0  0
  5 13  1  0  0  0  0
  6 11  1  0  0  0  0
 25 26  1  0  0  0  0
 26 27  1  0  0  0  0
 27 28  1  0  0  0  0
 28 29  1  0  0  0  0
 29 30  1  0  0  0  0
 25 30  1  0  0  0  0
 31 32  1  0  0  0  0
 30 31  1  6  0  0  0
 29 33  1  1  0  0  0
 28 34  1  6  0  0  0
 27 35  1  1  0  0  0
 26 24  1  6  0  0  0
 18 24  1  1  0  0  0
 36 37  1  0  0  0  0
 17 36  2  0  0  0  0
 22  4  1  6  0  0  0
 14 38  1  0  0  0  0
 16 39  1  0  0  0  0
 20 40  1  6  0  0  0
M  END
>  <cdx:groupId>
128

>  <cdx:fragmentId>
13

$$$$
