5280457.cdx
  Mrv1902 05222410252D          

 16 17  0  0  0  0            999 V2000
   15.8596   -8.0690    0.0000 C   0  0  0  0  0  0  0  0  0  0  0  0
   15.8596   -8.8935    0.0000 C   0  0  0  0  0  0  0  0  0  0  0  0
   16.5743   -9.3058    0.0000 C   0  0  0  0  0  0  0  0  0  0  0  0
   17.2890   -8.8935    0.0000 C   0  0  0  0  0  0  0  0  0  0  0  0
   17.2890   -8.0690    0.0000 C   0  0  0  0  0  0  0  0  0  0  0  0
   16.5743   -7.6567    0.0000 C   0  0  0  0  0  0  0  0  0  0  0  0
   15.1724   -9.3058    0.0000 C   0  0  0  0  0  0  0  0  0  0  0  0
   14.4578   -8.8935    0.0000 C   0  0  0  0  0  0  0  0  0  0  0  0
   13.7432   -9.3058    0.0000 C   0  0  0  0  0  0  0  0  0  0  0  0
   13.0286   -8.8935    0.0000 C   0  0  0  0  0  0  0  0  0  0  0  0
   12.3140   -9.3058    0.0000 C   0  0  0  0  0  0  0  0  0  0  0  0
   12.3140  -10.1305    0.0000 C   0  0  0  0  0  0  0  0  0  0  0  0
   13.0286  -10.5427    0.0000 C   0  0  0  0  0  0  0  0  0  0  0  0
   13.7432  -10.1305    0.0000 C   0  0  0  0  0  0  0  0  0  0  0  0
   16.5743   -6.8321    0.0000 O   0  0  0  0  0  0  0  0  0  0  0  0
   18.0036   -9.3058    0.0000 O   0  0  0  0  0  0  0  0  0  0  0  0
  1  6  1  0  0  0  0
  1  2  2  0  0  0  0
  2  3  1  0  0  0  0
  3  4  2  0  0  0  0
  4  5  1  0  0  0  0
  5  6  2  0  0  0  0
  2  7  1  0  0  0  0
  7  8  2  0  0  0  0
  9 14  2  0  0  0  0
  9 10  1  0  0  0  0
 10 11  2  0  0  0  0
 11 12  1  0  0  0  0
 12 13  2  0  0  0  0
 13 14  1  0  0  0  0
  8  9  1  0  0  0  0
  6 15  1  0  0  0  0
  4 16  1  0  0  0  0
M  END
>  <cdx:fragmentId>
9509

$$$$
