280481.cdx
  Mrv1902 05222410252D          

 26 30  0  0  0  0            999 V2000
    5.8283   -5.2094    0.0000 H   0  0  0  0  0  0  0  0  0  0  0  0
    7.0477   -6.0954    0.0000 H   0  0  0  0  0  0  0  0  0  0  0  0
   10.0912   -5.8021    0.0000 O   0  0  0  0  0  0  0  0  0  0  0  0
    4.8589   -4.0123    0.0000 C   0  0  0  0  0  0  0  0  0  0  0  0
    9.9103   -4.3171    0.0000 C   0  0  0  0  0  0  0  0  0  0  0  0
    5.6925   -3.3762    0.0000 O   0  0  0  0  0  0  0  0  0  0  0  0
    6.3333   -2.8739    0.0000 O   0  0  0  0  0  0  0  0  0  0  0  0
    7.7622   -2.8739    0.0000 O   0  0  0  0  0  0  0  0  0  0  0  0
    7.0477   -3.2864    0.0000 C   0  0  0  0  0  0  0  0  0  0  0  0
    8.2375   -5.5312    0.0000 C   0  0  0  0  0  0  0  0  0  0  0  0
    5.9813   -3.9531    0.0000 C   0  0  0  0  0  0  0  0  0  0  0  0
    7.0675   -4.7369    0.0000 O   0  0  0  0  0  0  0  0  0  0  0  0
    6.0832   -5.9941    0.0000 C   0  0  0  0  0  0  0  0  0  0  0  0
    5.2762   -5.8225    0.0000 C   0  0  0  0  0  0  0  0  0  0  0  0
    5.0213   -5.0379    0.0000 C   0  0  0  0  0  0  0  0  0  0  0  0
    5.5733   -4.4248    0.0000 C   0  0  1  0  0  0  0  0  0  0  0  0
    6.3803   -4.5963    0.0000 C   0  0  1  0  0  0  0  0  0  0  0  0
    7.0477   -4.1114    0.0000 C   0  0  1  0  0  0  0  0  0  0  0  0
    7.7152   -4.5963    0.0000 C   0  0  1  0  0  0  0  0  0  0  0  0
    8.4876   -4.3065    0.0000 C   0  0  0  0  0  0  0  0  0  0  0  0
    9.1958   -4.7296    0.0000 C   0  0  0  0  0  0  0  0  0  0  0  0
    9.3065   -5.5471    0.0000 C   0  0  1  0  0  0  0  0  0  0  0  0
    8.7364   -6.1434    0.0000 C   0  0  0  0  0  0  0  0  0  0  0  0
    7.9147   -6.0695    0.0000 C   0  0  0  0  0  0  0  0  0  0  0  0
    7.4602   -5.3810    0.0000 C   0  0  1  0  0  0  0  0  0  0  0  0
    6.6352   -5.3810    0.0000 C   0  0  1  0  0  0  0  0  0  0  0  0
 17  1  1  6  0  0  0
 25  2  1  6  0  0  0
 22  3  1  1  0  0  0
 16  4  1  6  0  0  0
 21  5  2  0  0  0  0
 11  6  2  0  0  0  0
 18  9  1  6  0  0  0
  9  7  1  0  0  0  0
  9  8  2  0  0  0  0
 25 19  1  0  0  0  0
 22 10  1  0  0  0  0
 19 10  1  1  0  0  0
 26 17  1  0  0  0  0
 16 11  1  0  0  0  0
 26 12  1  1  0  0  0
 26 13  1  0  0  0  0
 12 11  1  0  0  0  0
 14 13  1  0  0  0  0
 15 14  1  0  0  0  0
 16 15  1  0  0  0  0
 17 16  1  0  0  0  0
 18 17  1  0  0  0  0
 19 18  1  0  0  0  0
 20 19  1  0  0  0  0
 21 20  1  0  0  0  0
 22 21  1  0  0  0  0
 23 22  1  0  0  0  0
 24 23  1  0  0  0  0
 25 24  1  0  0  0  0
 26 25  1  0  0  0  0
M  END
>  <cdx:groupId>
87

>  <cdx:fragmentId>
589

$$$$
