280551.cdx
  Mrv1902 05222410272D          

 21 23  0  0  0  0            999 V2000
    3.7726   -7.2724    0.0000 O   0  0  0  0  0  0  0  0  0  0  0  0
    7.3450  -10.1599    0.0000 O   0  0  0  0  0  0  0  0  0  0  0  0
   10.9173   -9.7474    0.0000 C   0  0  0  0  0  0  0  0  0  0  0  0
   10.2029  -10.1599    0.0000 O   0  0  0  0  0  0  0  0  0  0  0  0
    8.7739   -8.5099    0.0000 C   0  0  0  0  0  0  0  0  0  0  0  0
    9.4884   -8.9224    0.0000 C   0  0  0  0  0  0  0  0  0  0  0  0
    9.4884   -9.7474    0.0000 C   0  0  0  0  0  0  0  0  0  0  0  0
    8.7739  -10.1599    0.0000 C   0  0  0  0  0  0  0  0  0  0  0  0
    8.0595   -9.7474    0.0000 C   0  0  0  0  0  0  0  0  0  0  0  0
    8.0595   -8.9224    0.0000 C   0  0  0  0  0  0  0  0  0  0  0  0
    6.6305   -9.7474    0.0000 O   0  0  0  0  0  0  0  0  0  0  0  0
    6.6305   -7.2724    0.0000 O   0  0  0  0  0  0  0  0  0  0  0  0
    5.9160   -7.6849    0.0000 C   0  0  0  0  0  0  0  0  0  0  0  0
    5.2016   -7.2724    0.0000 C   0  0  0  0  0  0  0  0  0  0  0  0
    4.4871   -7.6849    0.0000 C   0  0  0  0  0  0  0  0  0  0  0  0
    4.4871   -8.5099    0.0000 C   0  0  0  0  0  0  0  0  0  0  0  0
    5.2016   -8.9224    0.0000 C   0  0  0  0  0  0  0  0  0  0  0  0
    5.9160   -8.5099    0.0000 C   0  0  0  0  0  0  0  0  0  0  0  0
    6.6305   -8.9224    0.0000 C   0  0  0  0  0  0  0  0  0  0  0  0
    7.3450   -8.5099    0.0000 C   0  0  0  0  0  0  0  0  0  0  0  0
    7.3450   -7.6849    0.0000 C   0  0  0  0  0  0  0  0  0  0  0  0
 15  1  1  0  0  0  0
 20 10  1  0  0  0  0
  9  2  1  0  0  0  0
  7  4  1  0  0  0  0
  4  3  1  0  0  0  0
 10  5  2  0  0  0  0
  6  5  1  0  0  0  0
  7  6  2  0  0  0  0
  8  7  1  0  0  0  0
  9  8  2  0  0  0  0
 10  9  1  0  0  0  0
 19 11  2  0  0  0  0
 21 12  1  0  0  0  0
 13 12  1  0  0  0  0
 18 13  2  0  0  0  0
 14 13  1  0  0  0  0
 15 14  2  0  0  0  0
 16 15  1  0  0  0  0
 17 16  2  0  0  0  0
 18 17  1  0  0  0  0
 19 18  1  0  0  0  0
 20 19  1  0  0  0  0
 21 20  2  0  0  0  0
M  END
>  <cdx:fragmentId>
5

$$$$
