280523.cdx
  Mrv1902 05222410252D          

 12 11  0  0  0  0            999 V2000
    6.1745   -6.4268    0.0000 C   0  0  0  0  0  0  0  0  0  0  0  0
    6.8890   -6.0143    0.0000 C   0  0  0  0  0  0  0  0  0  0  0  0
    6.8890   -6.8393    0.0000 O   0  0  0  0  0  0  0  0  0  0  0  0
    7.6035   -6.4268    0.0000 C   0  0  0  0  0  0  0  0  0  0  0  0
    8.3180   -6.0143    0.0000 C   0  0  0  0  0  0  0  0  0  0  0  0
    6.1745   -7.2518    0.0000 O   0  0  0  0  0  0  0  0  0  0  0  0
    5.4601   -6.0143    0.0000 O   0  0  0  0  0  0  0  0  0  0  0  0
    8.3180   -5.1893    0.0000 O   0  0  0  0  0  0  0  0  0  0  0  0
    9.0324   -6.4268    0.0000 O   0  0  0  0  0  0  0  0  0  0  0  0
    6.8890   -5.1893    0.0000 C   0  0  0  0  0  0  0  0  0  0  0  0
    6.1745   -4.7768    0.0000 C   0  0  0  0  0  0  0  0  0  0  0  0
    7.6035   -4.7768    0.0000 C   0  0  0  0  0  0  0  0  0  0  0  0
  1  2  1  0  0  0  0
  2  3  1  0  0  0  0
  2  4  1  0  0  0  0
  4  5  1  0  0  0  0
  1  6  2  0  0  0  0
  1  7  1  0  0  0  0
  5  8  2  0  0  0  0
  5  9  1  0  0  0  0
 10 11  1  0  0  0  0
 10 12  1  0  0  0  0
  2 10  1  0  0  0  0
M  END
>  <cdx:groupId>
10007

>  <cdx:fragmentId>
9975

$$$$
