280567.cdx
  Mrv1902 05222410182D          

 13 14  0  0  0  0            999 V2000
    8.3051   -4.8987    0.0000 O   0  0  0  0  0  0  0  0  0  0  0  0
    9.0196   -5.3112    0.0000 C   0  0  0  0  0  0  0  0  0  0  0  0
    9.7340   -4.8987    0.0000 O   0  0  0  0  0  0  0  0  0  0  0  0
    9.0196   -6.1362    0.0000 C   0  0  0  0  0  0  0  0  0  0  0  0
    8.3051   -6.5487    0.0000 C   0  0  0  0  0  0  0  0  0  0  0  0
    7.5906   -6.1362    0.0000 C   0  0  0  0  0  0  0  0  0  0  0  0
    6.8762   -6.5487    0.0000 C   0  0  0  0  0  0  0  0  0  0  0  0
    6.1617   -6.1362    0.0000 C   0  0  0  0  0  0  0  0  0  0  0  0
    6.1617   -5.3112    0.0000 C   0  0  0  0  0  0  0  0  0  0  0  0
    6.8762   -4.8987    0.0000 C   0  0  0  0  0  0  0  0  0  0  0  0
    7.5906   -5.3112    0.0000 C   0  0  0  0  0  0  0  0  0  0  0  0
    5.4472   -4.8987    0.0000 O   0  0  0  0  0  0  0  0  0  0  0  0
    8.3051   -7.3737    0.0000 C   0  0  0  0  0  0  0  0  0  0  0  0
  1  2  1  0  0  0  0
  2  3  2  0  0  0  0
  2  4  1  0  0  0  0
  4  5  2  0  0  0  0
  5  6  1  0  0  0  0
  6  7  1  0  0  0  0
  7  8  2  0  0  0  0
  8  9  1  0  0  0  0
  9 10  2  0  0  0  0
 10 11  1  0  0  0  0
  1 11  1  0  0  0  0
  6 11  2  0  0  0  0
  9 12  1  0  0  0  0
  5 13  1  0  0  0  0
M  END
>  <cdx:fragmentId>
10210

$$$$
