5280569.cdx
  Mrv1902 05222410272D          

 13 14  0  0  0  0            999 V2000
   14.2463   -9.5121    0.0000 C   0  0  0  0  0  0  0  0  0  0  0  0
   14.9609   -9.9244    0.0000 C   0  0  0  0  0  0  0  0  0  0  0  0
   14.2463   -8.6875    0.0000 C   0  0  0  0  0  0  0  0  0  0  0  0
   14.9609   -8.2753    0.0000 C   0  0  0  0  0  0  0  0  0  0  0  0
   15.6756   -8.6875    0.0000 C   0  0  0  0  0  0  0  0  0  0  0  0
   15.6756   -9.5121    0.0000 C   0  0  0  0  0  0  0  0  0  0  0  0
   16.3903   -8.2753    0.0000 O   0  0  0  0  0  0  0  0  0  0  0  0
   17.1049   -8.6875    0.0000 C   0  0  0  0  0  0  0  0  0  0  0  0
   17.1049   -9.5121    0.0000 C   0  0  0  0  0  0  0  0  0  0  0  0
   16.3903   -9.9244    0.0000 C   0  0  0  0  0  0  0  0  0  0  0  0
   17.8196   -8.2753    0.0000 O   0  0  0  0  0  0  0  0  0  0  0  0
   14.9609   -7.4505    0.0000 O   0  0  0  0  0  0  0  0  0  0  0  0
   13.5317   -8.2753    0.0000 O   0  0  0  0  0  0  0  0  0  0  0  0
  1  2  2  0  0  0  0
  1  3  1  0  0  0  0
  3  4  2  0  0  0  0
  4  5  1  0  0  0  0
  2  6  1  0  0  0  0
  5  6  2  0  0  0  0
  5  7  1  0  0  0  0
  7  8  1  0  0  0  0
  8  9  1  0  0  0  0
  9 10  2  0  0  0  0
  6 10  1  0  0  0  0
  8 11  2  0  0  0  0
  4 12  1  0  0  0  0
  3 13  1  0  0  0  0
M  END
>  <cdx:fragmentId>
10249

$$$$
