280590.cdx
  Mrv1902 05222410262D          

 21 20  0  0  0  0            999 V2000
    2.6084   -9.0475    0.0000 O   0  0  0  0  0  0  0  0  0  0  0  0
    3.3228   -9.4600    0.0000 C   0  0  0  0  0  0  0  0  0  0  0  0
    4.0373   -9.0475    0.0000 C   0  0  0  0  0  0  0  0  0  0  0  0
    4.7518   -9.4600    0.0000 C   0  0  0  0  0  0  0  0  0  0  0  0
    5.4663   -9.0475    0.0000 C   0  0  0  0  0  0  0  0  0  0  0  0
    6.1807   -9.4600    0.0000 C   0  0  0  0  0  0  0  0  0  0  0  0
    6.8952   -9.0475    0.0000 C   0  0  0  0  0  0  0  0  0  0  0  0
    7.6097   -9.4600    0.0000 C   0  0  0  0  0  0  0  0  0  0  0  0
    8.3241   -9.0475    0.0000 C   0  0  0  0  0  0  0  0  0  0  0  0
    9.0386   -9.4600    0.0000 C   0  0  0  0  0  0  0  0  0  0  0  0
    9.7531   -9.0475    0.0000 C   0  0  0  0  0  0  0  0  0  0  0  0
    9.7531   -8.2225    0.0000 C   0  0  0  0  0  0  0  0  0  0  0  0
   10.4676   -7.8100    0.0000 C   0  0  0  0  0  0  0  0  0  0  0  0
   10.4676   -6.9850    0.0000 C   0  0  0  0  0  0  0  0  0  0  0  0
   11.1820   -6.5725    0.0000 C   0  0  0  0  0  0  0  0  0  0  0  0
   11.1820   -5.7475    0.0000 C   0  0  0  0  0  0  0  0  0  0  0  0
   11.8965   -5.3350    0.0000 C   0  0  0  0  0  0  0  0  0  0  0  0
   11.8965   -4.5100    0.0000 C   0  0  0  0  0  0  0  0  0  0  0  0
   12.6110   -4.0975    0.0000 C   0  0  0  0  0  0  0  0  0  0  0  0
    3.3228  -10.2850    0.0000 O   0  0  0  0  0  0  0  0  0  0  0  0
    1.8939   -9.4600    0.0000 C   0  0  0  0  0  0  0  0  0  0  0  0
  1  2  1  0  0  0  0
  2  3  1  0  0  0  0
  3  4  1  0  0  0  0
  4  5  1  0  0  0  0
  5  6  1  0  0  0  0
  6  7  1  0  0  0  0
  7  8  1  0  0  0  0
  8  9  1  0  0  0  0
  9 10  1  0  0  0  0
 10 11  2  0  0  0  0
 11 12  1  0  0  0  0
 12 13  1  0  0  0  0
 13 14  1  0  0  0  0
 14 15  1  0  0  0  0
 15 16  1  0  0  0  0
 16 17  1  0  0  0  0
 17 18  1  0  0  0  0
 18 19  1  0  0  0  0
  2 20  2  0  0  0  0
  1 21  1  0  0  0  0
M  END
>  <cdx:fragmentId>
3

$$$$
