5280647.cdx
  Mrv1902 05222410232D          

 23 25  0  0  0  0            999 V2000
   12.9538   -7.5503    0.0000 C   0  0  0  0  0  0  0  0  0  0  0  0
   12.9538   -8.3831    0.0000 C   0  0  0  0  0  0  0  0  0  0  0  0
   13.6671   -8.8040    0.0000 C   0  0  0  0  0  0  0  0  0  0  0  0
   13.6671   -7.1384    0.0000 C   0  0  0  0  0  0  0  0  0  0  0  0
   14.3896   -8.3831    0.0000 C   0  0  0  0  0  0  0  0  0  0  0  0
   15.1172   -8.8012    0.0000 O   0  0  0  0  0  0  0  0  0  0  0  0
   15.8448   -8.3865    0.0000 C   0  0  0  0  0  0  0  0  0  0  0  0
   15.8391   -7.5449    0.0000 C   0  0  0  0  0  0  0  0  0  0  0  0
   15.1115   -7.1268    0.0000 C   0  0  0  0  0  0  0  0  0  0  0  0
   14.3896   -7.5503    0.0000 C   0  0  0  0  0  0  0  0  0  0  0  0
   15.1078   -6.3031    0.0000 O   0  0  0  0  0  0  0  0  0  0  0  0
   16.5583   -8.7979    0.0000 C   0  0  0  0  0  0  0  0  0  0  0  0
   16.5596   -9.6229    0.0000 C   0  0  0  0  0  0  0  0  0  0  0  0
   17.2703  -10.0388    0.0000 C   0  0  0  0  0  0  0  0  0  0  0  0
   17.9841   -9.6205    0.0000 C   0  0  0  0  0  0  0  0  0  0  0  0
   17.9827   -8.7955    0.0000 C   0  0  0  0  0  0  0  0  0  0  0  0
   17.2676   -8.3888    0.0000 C   0  0  0  0  0  0  0  0  0  0  0  0
   16.5505   -7.1299    0.0000 O   0  0  0  0  0  0  0  0  0  0  0  0
   13.6648   -6.3148    0.0000 O   0  0  0  0  0  0  0  0  0  0  0  0
   12.2385   -8.7915    0.0000 O   0  0  0  0  0  0  0  0  0  0  0  0
   13.6648   -9.6277    0.0000 O   0  0  0  0  0  0  0  0  0  0  0  0
   18.6990  -10.0294    0.0000 O   0  0  0  0  0  0  0  0  0  0  0  0
   17.2704  -10.8624    0.0000 O   0  0  0  0  0  0  0  0  0  0  0  0
  1  4  1  0  0  0  0
  1  2  2  0  0  0  0
  2  3  1  0  0  0  0
  3  5  2  0  0  0  0
 10  4  2  0  0  0  0
  5 10  1  0  0  0  0
  5  6  1  0  0  0  0
  6  7  1  0  0  0  0
  7  8  2  0  0  0  0
  8  9  1  0  0  0  0
  9 10  1  0  0  0  0
  9 11  2  0  0  0  0
 12 17  2  0  0  0  0
 12 13  1  0  0  0  0
 13 14  2  0  0  0  0
 14 15  1  0  0  0  0
 15 16  2  0  0  0  0
 16 17  1  0  0  0  0
  7 12  1  0  0  0  0
  8 18  1  0  0  0  0
  4 19  1  0  0  0  0
  2 20  1  0  0  0  0
  3 21  1  0  0  0  0
 15 22  1  0  0  0  0
 14 23  1  0  0  0  0
M  END
>  <cdx:fragmentId>
10612

$$$$
