280793.cdx
  Mrv1902 05222410262D          

 31 33  0  0  0  0            999 V2000
    5.2200  -10.0227    0.0000 C   0  0  0  0  0  0  0  0  0  0  0  0
    5.9274   -9.5983    0.0000 C   0  0  0  0  0  0  0  0  0  0  0  0
    5.9136   -8.7734    0.0000 C   0  0  0  0  0  0  0  0  0  0  0  0
    6.6210   -8.3490    0.0000 C   0  0  2  0  0  0  0  0  0  0  0  0
    7.4098   -8.5907    0.0000 C   0  0  0  0  0  0  0  0  0  0  0  0
    7.8835   -7.9152    0.0000 C   0  0  0  0  0  0  0  0  0  0  0  0
    7.3874   -7.2560    0.0000 C   0  0  2  0  0  0  0  0  0  0  0  0
    7.6291   -6.4672    0.0000 C   0  0  1  0  0  0  0  0  0  0  0  0
    8.4331   -6.2822    0.0000 C   0  0  0  0  0  0  0  0  0  0  0  0
    8.6748   -5.4934    0.0000 C   0  0  0  0  0  0  0  0  0  0  0  0
    9.4788   -5.3083    0.0000 C   0  0  2  0  0  0  0  0  0  0  0  0
   10.0411   -5.9121    0.0000 C   0  0  0  0  0  0  0  0  0  0  0  0
    9.7205   -4.5195    0.0000 C   0  0  0  0  0  0  0  0  0  0  0  0
    9.1583   -3.9158    0.0000 C   0  0  0  0  0  0  0  0  0  0  0  0
   10.5245   -4.3345    0.0000 C   0  0  0  0  0  0  0  0  0  0  0  0
    7.0669   -5.8635    0.0000 C   0  0  0  0  0  0  0  0  0  0  0  0
    6.6072   -7.5241    0.0000 C   0  0  2  0  0  0  0  0  0  0  0  0
    6.6072   -6.6991    0.0000 C   0  0  0  0  0  0  0  0  0  0  0  0
    5.8859   -7.1236    0.0000 C   0  0  0  0  0  0  0  0  0  0  0  0
    5.1784   -7.5481    0.0000 C   0  0  0  0  0  0  0  0  0  0  0  0
    5.1923   -8.3730    0.0000 C   0  0  0  0  0  0  0  0  0  0  0  0
    5.2339  -10.8476    0.0000 C   0  0  0  0  0  0  0  0  0  0  0  0
    4.5230  -11.2663    0.0000 C   0  0  0  0  0  0  0  0  0  0  0  0
    4.5324  -12.0913    0.0000 C   0  0  2  0  0  0  0  0  0  0  0  0
    5.2526  -12.4975    0.0000 C   0  0  0  0  0  0  0  0  0  0  0  0
    5.9634  -12.0750    0.0000 C   0  0  0  0  0  0  0  0  0  0  0  0
    5.9540  -11.2500    0.0000 C   0  0  0  0  0  0  0  0  0  0  0  0
    6.6632  -10.8285    0.0000 C   0  0  0  0  0  0  0  0  0  0  0  0
    3.8224  -12.5114    0.0000 O   0  0  0  0  0  0  0  0  0  0  0  0
    6.6349   -9.1739    0.0000 H   0  0  0  0  0  0  0  0  0  0  0  0
    8.1843   -7.0425    0.0000 H   0  0  0  0  0  0  0  0  0  0  0  0
  1  2  1  0  0  0  0
  2  3  2  0  0  0  0
  3  4  1  0  0  0  0
  4  5  1  0  0  0  0
  5  6  1  0  0  0  0
  7  6  1  0  0  0  0
  7  8  1  0  0  0  0
  8  9  1  0  0  0  0
  9 10  2  0  0  0  0
 10 11  1  0  0  0  0
 11 12  1  1  0  0  0
 11 13  1  0  0  0  0
 13 14  1  0  0  0  0
 13 15  1  0  0  0  0
  8 16  1  6  0  0  0
  7 17  1  0  0  0  0
  4 17  1  0  0  0  0
 17 18  1  1  0  0  0
 17 19  1  0  0  0  0
 19 20  1  0  0  0  0
 20 21  1  0  0  0  0
  3 21  1  0  0  0  0
  1 22  2  0  0  0  0
 22 23  1  0  0  0  0
 23 24  1  0  0  0  0
 24 25  1  0  0  0  0
 25 26  1  0  0  0  0
 26 27  1  0  0  0  0
 27 22  1  0  0  0  0
 27 28  2  0  0  0  0
 24 29  1  6  0  0  0
  4 30  1  6  0  0  0
  7 31  1  6  0  0  0
M  END
>  <cdx:groupId>
11220

>  <cdx:fragmentId>
11134

$$$$
