280788.cdx
  Mrv1902 05222410192D          

 40 39  0  0  0  0            999 V2000
   24.1698   -7.2242    0.0000 C   0  0  0  0  0  0  0  0  0  0  0  0
   20.5974   -8.4617    0.0000 C   0  0  0  0  0  0  0  0  0  0  0  0
   17.7396   -8.4617    0.0000 C   0  0  0  0  0  0  0  0  0  0  0  0
   14.8817   -8.4617    0.0000 C   0  0  0  0  0  0  0  0  0  0  0  0
   11.3093   -6.3992    0.0000 C   0  0  0  0  0  0  0  0  0  0  0  0
    8.4514   -6.3992    0.0000 C   0  0  0  0  0  0  0  0  0  0  0  0
    5.5936   -6.3992    0.0000 C   0  0  0  0  0  0  0  0  0  0  0  0
    2.0212   -7.6367    0.0000 C   0  0  0  0  0  0  0  0  0  0  0  0
    2.7357   -6.3992    0.0000 C   0  0  0  0  0  0  0  0  0  0  0  0
    2.7357   -7.2242    0.0000 C   0  0  0  0  0  0  0  0  0  0  0  0
    3.4501   -7.6367    0.0000 C   0  0  0  0  0  0  0  0  0  0  0  0
    4.1646   -7.2242    0.0000 C   0  0  0  0  0  0  0  0  0  0  0  0
    4.8791   -7.6367    0.0000 C   0  0  0  0  0  0  0  0  0  0  0  0
    5.5936   -7.2242    0.0000 C   0  0  0  0  0  0  0  0  0  0  0  0
    6.3080   -7.6367    0.0000 C   0  0  0  0  0  0  0  0  0  0  0  0
    7.0225   -7.2242    0.0000 C   0  0  0  0  0  0  0  0  0  0  0  0
    7.7370   -7.6367    0.0000 C   0  0  0  0  0  0  0  0  0  0  0  0
    8.4514   -7.2242    0.0000 C   0  0  0  0  0  0  0  0  0  0  0  0
    9.1659   -7.6367    0.0000 C   0  0  0  0  0  0  0  0  0  0  0  0
    9.8804   -7.2242    0.0000 C   0  0  0  0  0  0  0  0  0  0  0  0
   10.5949   -7.6367    0.0000 C   0  0  0  0  0  0  0  0  0  0  0  0
   11.3093   -7.2242    0.0000 C   0  0  0  0  0  0  0  0  0  0  0  0
   12.0238   -7.6367    0.0000 C   0  0  0  0  0  0  0  0  0  0  0  0
   12.7383   -7.2242    0.0000 C   0  0  0  0  0  0  0  0  0  0  0  0
   13.4527   -7.6367    0.0000 C   0  0  0  0  0  0  0  0  0  0  0  0
   14.1672   -7.2242    0.0000 C   0  0  0  0  0  0  0  0  0  0  0  0
   14.8817   -7.6367    0.0000 C   0  0  0  0  0  0  0  0  0  0  0  0
   15.5961   -7.2242    0.0000 C   0  0  0  0  0  0  0  0  0  0  0  0
   16.3106   -7.6367    0.0000 C   0  0  0  0  0  0  0  0  0  0  0  0
   17.0251   -7.2242    0.0000 C   0  0  0  0  0  0  0  0  0  0  0  0
   17.7396   -7.6367    0.0000 C   0  0  0  0  0  0  0  0  0  0  0  0
   18.4540   -7.2242    0.0000 C   0  0  0  0  0  0  0  0  0  0  0  0
   19.1685   -7.6367    0.0000 C   0  0  0  0  0  0  0  0  0  0  0  0
   19.8830   -7.2242    0.0000 C   0  0  0  0  0  0  0  0  0  0  0  0
   20.5974   -7.6367    0.0000 C   0  0  0  0  0  0  0  0  0  0  0  0
   21.3119   -7.2242    0.0000 C   0  0  0  0  0  0  0  0  0  0  0  0
   22.0264   -7.6367    0.0000 C   0  0  0  0  0  0  0  0  0  0  0  0
   22.7409   -7.2242    0.0000 C   0  0  0  0  0  0  0  0  0  0  0  0
   23.4553   -7.6367    0.0000 C   0  0  0  0  0  0  0  0  0  0  0  0
   23.4553   -8.4617    0.0000 C   0  0  0  0  0  0  0  0  0  0  0  0
 39  1  1  0  0  0  0
 35  2  1  0  0  0  0
 31  3  1  0  0  0  0
 27  4  1  0  0  0  0
 22  5  1  0  0  0  0
 18  6  1  0  0  0  0
 14  7  1  0  0  0  0
 10  8  1  0  0  0  0
 10  9  1  0  0  0  0
 11 10  2  0  0  0  0
 12 11  1  0  0  0  0
 13 12  1  0  0  0  0
 14 13  1  0  0  0  0
 15 14  2  0  0  0  0
 16 15  1  0  0  0  0
 17 16  1  0  0  0  0
 18 17  1  0  0  0  0
 19 18  2  0  0  0  0
 20 19  1  0  0  0  0
 21 20  2  0  0  0  0
 22 21  1  0  0  0  0
 23 22  2  0  0  0  0
 24 23  1  0  0  0  0
 25 24  2  0  0  0  0
 26 25  1  0  0  0  0
 27 26  2  0  0  0  0
 28 27  1  0  0  0  0
 29 28  2  0  0  0  0
 30 29  1  0  0  0  0
 31 30  2  0  0  0  0
 32 31  1  0  0  0  0
 33 32  1  0  0  0  0
 34 33  1  0  0  0  0
 35 34  2  0  0  0  0
 36 35  1  0  0  0  0
 37 36  1  0  0  0  0
 38 37  1  0  0  0  0
 39 38  2  0  0  0  0
 40 39  1  0  0  0  0
M  END
>  <cdx:fragmentId>
5

$$$$
