280784.cdx
  Mrv1902 05222410272D          

 40 39  0  0  0  0            999 V2000
   13.6263   -8.7103    0.0000 C   0  0  0  0  0  0  0  0  0  0  0  0
   12.9118   -9.1228    0.0000 C   0  0  0  0  0  0  0  0  0  0  0  0
   12.1973   -8.7103    0.0000 C   0  0  0  0  0  0  0  0  0  0  0  0
   12.1973   -7.8853    0.0000 C   0  0  0  0  0  0  0  0  0  0  0  0
   11.4828   -9.1228    0.0000 C   0  0  0  0  0  0  0  0  0  0  0  0
   10.7684   -8.7103    0.0000 C   0  0  0  0  0  0  0  0  0  0  0  0
   10.0539   -9.1228    0.0000 C   0  0  0  0  0  0  0  0  0  0  0  0
    9.3394   -8.7103    0.0000 C   0  0  0  0  0  0  0  0  0  0  0  0
    9.3394   -7.8853    0.0000 C   0  0  0  0  0  0  0  0  0  0  0  0
    8.6250   -9.1228    0.0000 C   0  0  0  0  0  0  0  0  0  0  0  0
    7.9105   -8.7103    0.0000 C   0  0  0  0  0  0  0  0  0  0  0  0
    7.1960   -9.1228    0.0000 C   0  0  0  0  0  0  0  0  0  0  0  0
    6.4815   -8.7103    0.0000 C   0  0  0  0  0  0  0  0  0  0  0  0
    6.4815   -7.8853    0.0000 C   0  0  0  0  0  0  0  0  0  0  0  0
    5.7671   -9.1228    0.0000 C   0  0  0  0  0  0  0  0  0  0  0  0
    5.0526   -8.7103    0.0000 C   0  0  0  0  0  0  0  0  0  0  0  0
    4.3381   -9.1228    0.0000 C   0  0  0  0  0  0  0  0  0  0  0  0
    3.6237   -8.7103    0.0000 C   0  0  0  0  0  0  0  0  0  0  0  0
    2.9092   -9.1228    0.0000 C   0  0  0  0  0  0  0  0  0  0  0  0
    3.6237   -7.8853    0.0000 C   0  0  0  0  0  0  0  0  0  0  0  0
   14.3407   -9.1228    0.0000 C   0  0  0  0  0  0  0  0  0  0  0  0
   15.0552   -8.7103    0.0000 C   0  0  0  0  0  0  0  0  0  0  0  0
   15.7697   -9.1228    0.0000 C   0  0  0  0  0  0  0  0  0  0  0  0
   16.4841   -8.7103    0.0000 C   0  0  0  0  0  0  0  0  0  0  0  0
   15.7697   -9.9478    0.0000 C   0  0  0  0  0  0  0  0  0  0  0  0
   17.1986   -9.1228    0.0000 C   0  0  0  0  0  0  0  0  0  0  0  0
   17.9131   -8.7103    0.0000 C   0  0  0  0  0  0  0  0  0  0  0  0
   18.6276   -9.1228    0.0000 C   0  0  0  0  0  0  0  0  0  0  0  0
   19.3420   -8.7103    0.0000 C   0  0  0  0  0  0  0  0  0  0  0  0
   18.6276   -9.9478    0.0000 C   0  0  0  0  0  0  0  0  0  0  0  0
   20.0565   -9.1228    0.0000 C   0  0  0  0  0  0  0  0  0  0  0  0
   20.7710   -8.7103    0.0000 C   0  0  0  0  0  0  0  0  0  0  0  0
   21.4854   -9.1228    0.0000 C   0  0  0  0  0  0  0  0  0  0  0  0
   22.1999   -8.7103    0.0000 C   0  0  0  0  0  0  0  0  0  0  0  0
   21.4854   -9.9478    0.0000 C   0  0  0  0  0  0  0  0  0  0  0  0
   22.9144   -9.1228    0.0000 C   0  0  0  0  0  0  0  0  0  0  0  0
   23.6288   -8.7103    0.0000 C   0  0  0  0  0  0  0  0  0  0  0  0
   24.3433   -9.1228    0.0000 C   0  0  0  0  0  0  0  0  0  0  0  0
   25.0578   -8.7103    0.0000 C   0  0  0  0  0  0  0  0  0  0  0  0
   24.3433   -9.9478    0.0000 C   0  0  0  0  0  0  0  0  0  0  0  0
  1  2  1  0  0  0  0
  2  3  2  0  0  0  0
  3  4  1  0  0  0  0
  3  5  1  0  0  0  0
  5  6  1  0  0  0  0
  6  7  1  0  0  0  0
  7  8  2  0  0  0  0
  8  9  1  0  0  0  0
  8 10  1  0  0  0  0
 10 11  1  0  0  0  0
 11 12  1  0  0  0  0
 12 13  2  0  0  0  0
 13 14  1  0  0  0  0
 13 15  1  0  0  0  0
 15 16  1  0  0  0  0
 16 17  1  0  0  0  0
 17 18  2  0  0  0  0
 18 19  1  0  0  0  0
 18 20  1  0  0  0  0
  1 21  2  0  0  0  0
 21 22  1  0  0  0  0
 22 23  2  0  0  0  0
 23 24  1  0  0  0  0
 23 25  1  0  0  0  0
 24 26  1  0  0  0  0
 26 27  1  0  0  0  0
 27 28  2  0  0  0  0
 28 29  1  0  0  0  0
 28 30  1  0  0  0  0
 29 31  1  0  0  0  0
 31 32  1  0  0  0  0
 32 33  2  0  0  0  0
 33 34  1  0  0  0  0
 33 35  1  0  0  0  0
 34 36  1  0  0  0  0
 36 37  1  0  0  0  0
 37 38  2  0  0  0  0
 38 39  1  0  0  0  0
 38 40  1  0  0  0  0
M  END
>  <cdx:fragmentId>
11120

$$$$
