280897.cdx
  Mrv1902 05222410202D          

 19 19  0  0  0  0            999 V2000
    7.9590   -7.2567    0.0000 C   0  0  1  0  0  0  0  0  0  0  0  0
    8.6734   -7.6692    0.0000 C   0  0  0  0  0  0  0  0  0  0  0  0
    8.6734   -8.4942    0.0000 C   0  0  0  0  0  0  0  0  0  0  0  0
    7.9590   -8.9067    0.0000 C   0  0  0  0  0  0  0  0  0  0  0  0
    7.2445   -8.4942    0.0000 C   0  0  0  0  0  0  0  0  0  0  0  0
    7.2445   -7.6692    0.0000 C   0  0  0  0  0  0  0  0  0  0  0  0
    7.9590   -9.7317    0.0000 O   0  0  0  0  0  0  0  0  0  0  0  0
    6.4195   -7.6692    0.0000 C   0  0  0  0  0  0  0  0  0  0  0  0
    6.8320   -6.9547    0.0000 C   0  0  0  0  0  0  0  0  0  0  0  0
    9.3879   -7.2567    0.0000 C   0  0  0  0  0  0  0  0  0  0  0  0
    7.5465   -6.5422    0.0000 O   0  0  0  0  0  0  0  0  0  0  0  0
    8.3715   -6.5422    0.0000 C   0  0  0  0  0  0  0  0  0  0  0  0
    7.9590   -5.8278    0.0000 C   0  0  0  0  0  0  0  0  0  0  0  0
    8.3715   -5.1133    0.0000 C   0  0  0  0  0  0  0  0  0  0  0  0
    7.9590   -4.3988    0.0000 C   0  0  0  0  0  0  0  0  0  0  0  0
    8.3715   -3.6843    0.0000 C   0  0  0  0  0  0  0  0  0  0  0  0
    7.9590   -2.9699    0.0000 O   0  0  0  0  0  0  0  0  0  0  0  0
    9.1965   -3.6843    0.0000 O   0  0  0  0  0  0  0  0  0  0  0  0
    9.1965   -5.1133    0.0000 C   0  0  0  0  0  0  0  0  0  0  0  0
  1  2  1  0  0  0  0
  2  3  2  0  0  0  0
  3  4  1  0  0  0  0
  4  5  1  0  0  0  0
  5  6  1  0  0  0  0
  1  6  1  0  0  0  0
  4  7  2  0  0  0  0
  6  8  1  0  0  0  0
  6  9  1  0  0  0  0
  2 10  1  0  0  0  0
  1 11  1  1  0  0  0
  1 12  1  0  0  0  0
 12 13  2  0  0  0  0
 13 14  1  0  0  0  0
 14 15  2  0  0  0  0
 15 16  1  0  0  0  0
 16 17  1  0  0  0  0
 16 18  2  0  0  0  0
 14 19  1  0  0  0  0
M  END
>  <cdx:groupId>
83

>  <cdx:fragmentId>
84

$$$$
