5280862.cdx
  Mrv1902 05222410242D          

 22 24  0  0  0  0            999 V2000
    7.3835   -6.3415    0.0000 C   0  0  0  0  0  0  0  0  0  0  0  0
    7.3835   -7.1665    0.0000 C   0  0  0  0  0  0  0  0  0  0  0  0
    6.6690   -7.5790    0.0000 C   0  0  0  0  0  0  0  0  0  0  0  0
    6.6690   -8.4040    0.0000 O   0  0  0  0  0  0  0  0  0  0  0  0
    5.9546   -7.1665    0.0000 C   0  0  0  0  0  0  0  0  0  0  0  0
    5.2401   -7.5790    0.0000 C   0  0  0  0  0  0  0  0  0  0  0  0
    4.5256   -7.1665    0.0000 C   0  0  0  0  0  0  0  0  0  0  0  0
    4.5256   -6.3415    0.0000 C   0  0  0  0  0  0  0  0  0  0  0  0
    5.2401   -5.9290    0.0000 C   0  0  0  0  0  0  0  0  0  0  0  0
    5.9546   -6.3415    0.0000 C   0  0  0  0  0  0  0  0  0  0  0  0
    6.6690   -5.9290    0.0000 O   0  0  0  0  0  0  0  0  0  0  0  0
    8.0980   -5.9290    0.0000 C   0  0  0  0  0  0  0  0  0  0  0  0
    8.0980   -5.1040    0.0000 C   0  0  0  0  0  0  0  0  0  0  0  0
    8.8124   -4.6915    0.0000 C   0  0  0  0  0  0  0  0  0  0  0  0
    9.5269   -5.1040    0.0000 C   0  0  0  0  0  0  0  0  0  0  0  0
    9.5269   -5.9290    0.0000 C   0  0  0  0  0  0  0  0  0  0  0  0
    8.8124   -6.3415    0.0000 C   0  0  0  0  0  0  0  0  0  0  0  0
    8.0980   -7.5790    0.0000 O   0  0  0  0  0  0  0  0  0  0  0  0
    8.8124   -7.1665    0.0000 C   0  0  0  0  0  0  0  0  0  0  0  0
    3.8111   -5.9290    0.0000 O   0  0  0  0  0  0  0  0  0  0  0  0
    5.2401   -8.4040    0.0000 O   0  0  0  0  0  0  0  0  0  0  0  0
   10.2414   -4.6915    0.0000 O   0  0  0  0  0  0  0  0  0  0  0  0
  1  2  2  0  0  0  0
  2  3  1  0  0  0  0
  3  4  2  0  0  0  0
  3  5  1  0  0  0  0
  5  6  1  0  0  0  0
  6  7  2  0  0  0  0
  7  8  1  0  0  0  0
  8  9  2  0  0  0  0
  9 10  1  0  0  0  0
  5 10  2  0  0  0  0
 10 11  1  0  0  0  0
  1 11  1  0  0  0  0
  1 12  1  0  0  0  0
 12 13  1  0  0  0  0
 13 14  2  0  0  0  0
 14 15  1  0  0  0  0
 15 16  2  0  0  0  0
 16 17  1  0  0  0  0
 12 17  2  0  0  0  0
 18 19  1  0  0  0  0
  2 18  1  0  0  0  0
  8 20  1  0  0  0  0
  6 21  1  0  0  0  0
 15 22  1  0  0  0  0
M  END
>  <cdx:fragmentId>
11400

$$$$
