5280960.cdx
  Mrv1902 05222410272D          

 20 21  0  0  0  0            999 V2000
   14.7543   -8.0366    0.0000 C   0  0  0  0  0  0  0  0  0  0  0  0
   15.4688   -8.4491    0.0000 C   0  0  0  0  0  0  0  0  0  0  0  0
   16.1832   -8.0366    0.0000 C   0  0  0  0  0  0  0  0  0  0  0  0
   14.7543   -7.2116    0.0000 O   0  0  0  0  0  0  0  0  0  0  0  0
   14.0398   -8.4491    0.0000 C   0  0  0  0  0  0  0  0  0  0  0  0
   14.0398   -9.2741    0.0000 C   0  0  0  0  0  0  0  0  0  0  0  0
   13.3253   -9.6866    0.0000 C   0  0  0  0  0  0  0  0  0  0  0  0
   12.6109   -9.2741    0.0000 C   0  0  0  0  0  0  0  0  0  0  0  0
   12.6109   -8.4491    0.0000 C   0  0  0  0  0  0  0  0  0  0  0  0
   13.3253   -8.0366    0.0000 C   0  0  0  0  0  0  0  0  0  0  0  0
   13.3253   -7.2116    0.0000 O   0  0  0  0  0  0  0  0  0  0  0  0
   11.8964   -9.6866    0.0000 O   0  0  0  0  0  0  0  0  0  0  0  0
   14.7543   -9.6866    0.0000 O   0  0  0  0  0  0  0  0  0  0  0  0
   16.8977   -8.4491    0.0000 C   0  0  0  0  0  0  0  0  0  0  0  0
   17.6122   -8.0366    0.0000 C   0  0  0  0  0  0  0  0  0  0  0  0
   18.3266   -8.4491    0.0000 C   0  0  0  0  0  0  0  0  0  0  0  0
   18.3266   -9.2741    0.0000 C   0  0  0  0  0  0  0  0  0  0  0  0
   17.6122   -9.6866    0.0000 C   0  0  0  0  0  0  0  0  0  0  0  0
   16.8977   -9.2741    0.0000 C   0  0  0  0  0  0  0  0  0  0  0  0
   19.0411   -9.6866    0.0000 O   0  0  0  0  0  0  0  0  0  0  0  0
  1  2  1  0  0  0  0
  2  3  2  0  0  0  0
  1  4  2  0  0  0  0
  5  6  1  0  0  0  0
  6  7  2  0  0  0  0
  7  8  1  0  0  0  0
  8  9  2  0  0  0  0
  9 10  1  0  0  0  0
  5 10  2  0  0  0  0
 10 11  1  0  0  0  0
  8 12  1  0  0  0  0
  6 13  1  0  0  0  0
  1  5  1  0  0  0  0
 14 15  1  0  0  0  0
 15 16  2  0  0  0  0
 16 17  1  0  0  0  0
 17 18  2  0  0  0  0
 18 19  1  0  0  0  0
 14 19  2  0  0  0  0
 17 20  1  0  0  0  0
  3 14  1  0  0  0  0
M  END
>  <cdx:groupId>
11898

>  <cdx:fragmentId>
11848

$$$$
