5280954.cdx
  Mrv1902 05222410182D          

 46 51  0  0  0  0            999 V2000
   15.8134   -6.8745    0.0000 C   0  0  0  0  0  0  0  0  0  0  0  0
   15.0724   -6.4915    0.0000 O   0  0  0  0  0  0  0  0  0  0  0  0
   16.5028   -6.4092    0.0000 O   0  0  0  0  0  0  0  0  0  0  0  0
   15.8134   -7.6991    0.0000 C   0  0  0  0  0  0  0  0  0  0  0  0
   16.5280   -8.1114    0.0000 C   0  0  0  0  0  0  0  0  0  0  0  0
   15.0987   -8.1114    0.0000 C   0  0  0  0  0  0  0  0  0  0  0  0
   17.2426   -7.6991    0.0000 C   0  0  0  0  0  0  0  0  0  0  0  0
   16.5280   -8.9359    0.0000 C   0  0  0  0  0  0  0  0  0  0  0  0
   14.3862   -7.6996    0.0000 O   0  0  0  0  0  0  0  0  0  0  0  0
   15.0987   -8.9359    0.0000 C   0  0  0  0  0  0  0  0  0  0  0  0
   17.9571   -8.1114    0.0000 C   0  0  0  0  0  0  0  0  0  0  0  0
   17.2426   -9.3482    0.0000 C   0  0  0  0  0  0  0  0  0  0  0  0
   15.8134   -9.3482    0.0000 C   0  0  0  0  0  0  0  0  0  0  0  0
   14.3862   -6.8745    0.0000 C   0  0  0  0  0  0  0  0  0  0  0  0
   14.3862   -9.3496    0.0000 O   0  0  0  0  0  0  0  0  0  0  0  0
   18.6718   -7.6991    0.0000 C   0  0  0  0  0  0  0  0  0  0  0  0
   17.9580   -8.9378    0.0000 N   0  0  0  0  0  0  0  0  0  0  0  0
   13.6717   -8.9371    0.0000 C   0  0  0  0  0  0  0  0  0  0  0  0
   19.3865   -8.1114    0.0000 C   0  0  0  0  0  0  0  0  0  0  0  0
   18.8391   -6.8759    0.0000 N   0  0  0  0  0  0  0  0  0  0  0  0
   18.6718   -9.3482    0.0000 C   0  0  0  0  0  0  0  0  0  0  0  0
   12.9573   -9.3496    0.0000 C   0  0  0  0  0  0  0  0  0  0  0  0
   13.6717   -8.1121    0.0000 O   0  0  0  0  0  0  0  0  0  0  0  0
   19.9911   -7.5616    0.0000 C   0  0  0  0  0  0  0  0  0  0  0  0
   19.3865   -8.9359    0.0000 C   0  0  0  0  0  0  0  0  0  0  0  0
   19.6613   -6.7921    0.0000 C   0  0  0  0  0  0  0  0  0  0  0  0
   12.2428   -8.9371    0.0000 C   0  0  0  0  0  0  0  0  0  0  0  0
   20.8156   -7.6441    0.0000 C   0  0  0  0  0  0  0  0  0  0  0  0
   20.1286   -6.1325    0.0000 C   0  0  0  0  0  0  0  0  0  0  0  0
   11.5283   -9.3496    0.0000 C   0  0  0  0  0  0  0  0  0  0  0  0
   21.2829   -6.9570    0.0000 C   0  0  0  0  0  0  0  0  0  0  0  0
   20.9530   -6.2149    0.0000 C   0  0  0  0  0  0  0  0  0  0  0  0
   11.5283  -10.1746    0.0000 C   0  0  0  0  0  0  0  0  0  0  0  0
   10.8138   -8.9371    0.0000 C   0  0  0  0  0  0  0  0  0  0  0  0
   21.4503   -5.5552    0.0000 O   0  0  0  0  0  0  0  0  0  0  0  0
   10.8138  -10.5871    0.0000 C   0  0  0  0  0  0  0  0  0  0  0  0
   10.0994   -9.3496    0.0000 C   0  0  0  0  0  0  0  0  0  0  0  0
   22.2739   -5.6403    0.0000 C   0  0  0  0  0  0  0  0  0  0  0  0
   10.8138  -11.4121    0.0000 O   0  0  0  0  0  0  0  0  0  0  0  0
   10.0994  -10.1746    0.0000 C   0  0  0  0  0  0  0  0  0  0  0  0
    9.3849   -8.9371    0.0000 O   0  0  0  0  0  0  0  0  0  0  0  0
   10.0994  -11.8246    0.0000 C   0  0  0  0  0  0  0  0  0  0  0  0
    9.3849  -10.5871    0.0000 O   0  0  0  0  0  0  0  0  0  0  0  0
    9.3849   -8.1121    0.0000 C   0  0  0  0  0  0  0  0  0  0  0  0
    8.6704  -10.1746    0.0000 C   0  0  0  0  0  0  0  0  0  0  0  0
   17.2444   -6.7705    0.0000 C   0  0  0  0  0  0  0  0  0  0  0  0
  1  2  2  0  0  0  0
  1  3  1  0  0  0  0
  1  4  1  0  0  0  0
  4  5  1  0  0  0  0
  4  6  1  0  0  0  0
  5  7  1  0  0  0  0
  5  8  1  0  0  0  0
  6  9  1  0  0  0  0
  6 10  1  0  0  0  0
  7 11  1  0  0  0  0
  8 12  1  0  0  0  0
  8 13  1  0  0  0  0
  9 14  1  0  0  0  0
 10 13  1  0  0  0  0
 10 15  1  0  0  0  0
 11 16  1  0  0  0  0
 11 17  1  0  0  0  0
 12 17  1  0  0  0  0
 15 18  1  0  0  0  0
 16 19  2  0  0  0  0
 16 20  1  0  0  0  0
 17 21  1  0  0  0  0
 18 22  1  0  0  0  0
 18 23  2  0  0  0  0
 19 24  1  0  0  0  0
 19 25  1  0  0  0  0
 20 26  1  0  0  0  0
 21 25  1  0  0  0  0
 22 27  2  0  0  0  0
 24 26  1  0  0  0  0
 24 28  2  0  0  0  0
 26 29  2  0  0  0  0
 27 30  1  0  0  0  0
 28 31  1  0  0  0  0
 29 32  1  0  0  0  0
 30 33  1  0  0  0  0
 30 34  2  0  0  0  0
 31 32  2  0  0  0  0
 32 35  1  0  0  0  0
 33 36  2  0  0  0  0
 34 37  1  0  0  0  0
 35 38  1  0  0  0  0
 36 39  1  0  0  0  0
 36 40  1  0  0  0  0
 37 40  2  0  0  0  0
 37 41  1  0  0  0  0
 39 42  1  0  0  0  0
 40 43  1  0  0  0  0
 41 44  1  0  0  0  0
 43 45  1  0  0  0  0
  3 46  1  0  0  0  0
M  END
>  <cdx:fragmentId>
11723

$$$$
