280943.cdx
  Mrv1902 05222410182D          

 10  9  0  0  0  0            999 V2000
    8.5668   -3.9026    0.0000 C   0  0  0  0  0  0  0  0  0  0  0  0
    9.2805   -4.3181    0.0000 C   0  0  0  0  0  0  0  0  0  0  0  0
    5.7066   -3.8991    0.0000 C   0  0  0  0  0  0  0  0  0  0  0  0
    4.9921   -4.3116    0.0000 C   0  0  0  0  0  0  0  0  0  0  0  0
    7.8514   -4.3186    0.0000 C   0  0  1  0  0  0  0  0  0  0  0  0
    9.9954   -3.9086    0.0000 C   0  0  0  0  0  0  0  0  0  0  0  0
    9.2754   -5.1441    0.0000 C   0  0  0  0  0  0  0  0  0  0  0  0
    6.4216   -4.3106    0.0000 C   0  0  0  0  0  0  0  0  0  0  0  0
    7.1366   -3.8991    0.0000 C   0  0  0  0  0  0  0  0  0  0  0  0
    7.8503   -5.1436    0.0000 C   0  0  0  0  0  0  0  0  0  0  0  0
  2  1  2  0  0  0  0
  3  8  1  0  0  0  0
  4  3  2  0  0  0  0
  5  1  1  0  0  0  0
  6  2  1  0  0  0  0
  7  2  1  0  0  0  0
  8  9  1  0  0  0  0
  9  5  1  0  0  0  0
  5 10  1  6  0  0  0
M  END
>  <cdx:fragmentId>
3

$$$$
