281119.cdx
  Mrv1902 05222410202D          

 16 15  0  0  0  0            999 V2000
    2.2620   -7.6103    0.0000 O   0  0  0  0  0  0  0  0  0  0  0  0
    2.9765   -8.8478    0.0000 O   0  0  0  0  0  0  0  0  0  0  0  0
    8.6922   -8.0228    0.0000 C   0  0  0  0  0  0  0  0  0  0  0  0
    7.9778   -7.6103    0.0000 C   0  0  0  0  0  0  0  0  0  0  0  0
    7.2633   -8.0228    0.0000 C   0  0  0  0  0  0  0  0  0  0  0  0
    6.5488   -7.6103    0.0000 C   0  0  0  0  0  0  0  0  0  0  0  0
    5.8343   -8.0228    0.0000 C   0  0  0  0  0  0  0  0  0  0  0  0
    5.1199   -7.6103    0.0000 C   0  0  0  0  0  0  0  0  0  0  0  0
    4.4054   -8.0228    0.0000 C   0  0  0  0  0  0  0  0  0  0  0  0
    3.6909   -7.6103    0.0000 C   0  0  0  0  0  0  0  0  0  0  0  0
    2.9765   -8.0228    0.0000 C   0  0  0  0  0  0  0  0  0  0  0  0
    9.4067   -7.6103    0.0000 C   0  0  0  0  0  0  0  0  0  0  0  0
    9.4067   -6.7853    0.0000 C   0  0  0  0  0  0  0  0  0  0  0  0
   10.1212   -6.3728    0.0000 C   0  0  0  0  0  0  0  0  0  0  0  0
   10.1212   -5.5478    0.0000 C   0  0  0  0  0  0  0  0  0  0  0  0
   10.8356   -5.1353    0.0000 C   0  0  0  0  0  0  0  0  0  0  0  0
 11  1  1  0  0  0  0
 11  2  2  0  0  0  0
  4  3  1  0  0  0  0
  5  4  1  0  0  0  0
  6  5  1  0  0  0  0
  7  6  1  0  0  0  0
  8  7  1  0  0  0  0
  9  8  1  0  0  0  0
 10  9  1  0  0  0  0
 11 10  1  0  0  0  0
  3 12  2  0  0  0  0
 12 13  1  0  0  0  0
 13 14  1  0  0  0  0
 14 15  1  0  0  0  0
 15 16  1  0  0  0  0
M  END
>  <cdx:fragmentId>
12056

$$$$
