281123.cdx
  Mrv1902 05222410182D          

 19 19  0  0  0  0            999 V2000
    6.8083   -8.7565    0.0000 O   0  0  0  0  0  0  0  0  0  0  0  0
    7.5229   -9.1687    0.0000 C   0  0  2  0  0  0  0  0  0  0  0  0
    7.5232   -9.9937    0.0000 C   0  0  1  0  0  0  0  0  0  0  0  0
    6.8088  -10.4065    0.0000 C   0  0  2  0  0  0  0  0  0  0  0  0
    6.0942   -9.9942    0.0000 C   0  0  1  0  0  0  0  0  0  0  0  0
    6.0940   -9.1692    0.0000 C   0  0  1  0  0  0  0  0  0  0  0  0
    5.3794   -8.7569    0.0000 C   0  0  0  0  0  0  0  0  0  0  0  0
    4.7513   -9.1195    0.0000 O   0  0  0  0  0  0  0  0  0  0  0  0
    5.3799  -10.4069    0.0000 O   0  0  0  0  0  0  0  0  0  0  0  0
    6.8091  -11.2315    0.0000 O   0  0  0  0  0  0  0  0  0  0  0  0
    8.2378  -10.4060    0.0000 O   0  0  0  0  0  0  0  0  0  0  0  0
    9.6652   -5.4556    0.0000 O   0  0  0  0  0  0  0  0  0  0  0  0
    9.6655   -6.2806    0.0000 C   0  0  0  0  0  0  0  0  0  0  0  0
    8.2373   -8.7560    0.0000 O   0  0  0  0  0  0  0  0  0  0  0  0
    7.5219   -5.8688    0.0000 N   0  0  0  0  0  0  0  0  0  0  0  0
    8.2370   -7.9310    0.0000 C   0  0  0  0  0  0  0  0  0  0  0  0
    8.9514   -7.5183    0.0000 C   0  0  0  0  0  0  0  0  0  0  0  0
    8.9511   -6.6933    0.0000 C   0  0  0  0  0  0  0  0  0  0  0  0
    8.2365   -6.2810    0.0000 C   0  0  0  0  0  0  0  0  0  0  0  0
 18 13  1  0  0  0  0
 13 12  1  0  0  0  0
 16 14  1  0  0  0  0
 19 15  3  0  0  0  0
 17 16  1  0  0  0  0
 18 17  2  0  0  0  0
 19 18  1  0  0  0  0
  1  2  1  0  0  0  0
  2  3  1  0  0  0  0
  3  4  1  0  0  0  0
  4  5  1  0  0  0  0
  5  6  1  0  0  0  0
  1  6  1  0  0  0  0
  7  8  1  0  0  0  0
  6  7  1  1  0  0  0
  5  9  1  6  0  0  0
  4 10  1  1  0  0  0
  3 11  1  6  0  0  0
  2 14  1  1  0  0  0
M  END
>  <cdx:fragmentId>
17

$$$$
