281125.cdx
  Mrv1902 05222410202D          

 20 19  0  0  0  0            999 V2000
    3.0605  -10.1403    0.0000 O   0  0  0  0  0  0  0  0  0  0  0  0
    3.7750   -8.9028    0.0000 O   0  0  0  0  0  0  0  0  0  0  0  0
    7.3474  -10.1403    0.0000 C   0  0  0  0  0  0  0  0  0  0  0  0
    6.6329   -9.7278    0.0000 C   0  0  0  0  0  0  0  0  0  0  0  0
    5.9184  -10.1403    0.0000 C   0  0  0  0  0  0  0  0  0  0  0  0
    5.2040   -9.7278    0.0000 C   0  0  0  0  0  0  0  0  0  0  0  0
    4.4895  -10.1403    0.0000 C   0  0  0  0  0  0  0  0  0  0  0  0
    3.7750   -9.7278    0.0000 C   0  0  0  0  0  0  0  0  0  0  0  0
    8.0618   -9.7278    0.0000 C   0  0  0  0  0  0  0  0  0  0  0  0
    8.0618   -8.9028    0.0000 C   0  0  0  0  0  0  0  0  0  0  0  0
    8.7763   -8.4903    0.0000 C   0  0  0  0  0  0  0  0  0  0  0  0
    8.7763   -7.6653    0.0000 C   0  0  0  0  0  0  0  0  0  0  0  0
    9.4908   -7.2528    0.0000 C   0  0  0  0  0  0  0  0  0  0  0  0
    9.4908   -6.4278    0.0000 C   0  0  0  0  0  0  0  0  0  0  0  0
   10.2053   -6.0153    0.0000 C   0  0  0  0  0  0  0  0  0  0  0  0
   10.2053   -5.1903    0.0000 C   0  0  0  0  0  0  0  0  0  0  0  0
   10.9197   -4.7778    0.0000 C   0  0  0  0  0  0  0  0  0  0  0  0
   10.9197   -3.9528    0.0000 C   0  0  0  0  0  0  0  0  0  0  0  0
   11.6342   -3.5403    0.0000 C   0  0  0  0  0  0  0  0  0  0  0  0
   11.6342   -2.7153    0.0000 C   0  0  0  0  0  0  0  0  0  0  0  0
  8  1  1  0  0  0  0
  8  2  2  0  0  0  0
  4  3  1  0  0  0  0
  5  4  1  0  0  0  0
  6  5  1  0  0  0  0
  7  6  1  0  0  0  0
  8  7  1  0  0  0  0
  3  9  2  0  0  0  0
  9 10  1  0  0  0  0
 10 11  1  0  0  0  0
 11 12  1  0  0  0  0
 12 13  1  0  0  0  0
 13 14  1  0  0  0  0
 14 15  1  0  0  0  0
 15 16  1  0  0  0  0
 16 17  1  0  0  0  0
 17 18  1  0  0  0  0
 18 19  1  0  0  0  0
 19 20  1  0  0  0  0
M  END
>  <cdx:fragmentId>
12191

$$$$
