281166.cdx
  Mrv1902 05222410242D          

 15 15  0  0  0  0            999 V2000
    4.8652   -8.4743    0.0000 C   0  0  0  0  0  0  0  0  0  0  0  0
    5.4783   -7.9222    0.0000 C   0  0  0  0  0  0  0  0  0  0  0  0
    4.9942   -9.2891    0.0000 O   0  0  0  0  0  0  0  0  0  0  0  0
    4.0950   -8.1786    0.0000 O   0  0  0  0  0  0  0  0  0  0  0  0
    6.9303   -4.3923    0.0000 C   0  0  0  0  0  0  0  0  0  0  0  0
    6.9303   -5.2173    0.0000 C   0  0  0  0  0  0  0  0  0  0  0  0
    7.6448   -5.6298    0.0000 C   0  0  0  0  0  0  0  0  0  0  0  0
    7.6448   -6.4548    0.0000 C   0  0  0  0  0  0  0  0  0  0  0  0
    6.9303   -6.8673    0.0000 C   0  0  0  0  0  0  0  0  0  0  0  0
    6.9303   -7.6923    0.0000 C   0  0  0  0  0  0  0  0  0  0  0  0
    6.2629   -8.1772    0.0000 C   0  0  0  0  0  0  0  0  0  0  0  0
    6.5178   -8.9618    0.0000 C   0  0  0  0  0  0  0  0  0  0  0  0
    7.3428   -8.9618    0.0000 C   0  0  0  0  0  0  0  0  0  0  0  0
    8.3824   -7.9222    0.0000 O   0  0  0  0  0  0  0  0  0  0  0  0
    7.5978   -8.1772    0.0000 C   0  0  0  0  0  0  0  0  0  0  0  0
  6  5  1  0  0  0  0
  7  6  1  0  0  0  0
  8  7  2  0  0  0  0
  9  8  1  0  0  0  0
 10  9  1  0  0  0  0
 15 10  1  0  0  0  0
 11 10  1  0  0  0  0
  2 11  1  0  0  0  0
 12 11  1  0  0  0  0
 13 12  1  0  0  0  0
 15 13  1  0  0  0  0
 15 14  2  0  0  0  0
  1  2  1  0  0  0  0
  1  3  2  0  0  0  0
  1  4  1  0  0  0  0
M  END
>  <cdx:groupId>
12532

>  <cdx:fragmentId>
12494

$$$$
