5281116.cdx
  Mrv1902 05222410262D          

 24 23  0  0  0  0            999 V2000
   22.3544   -8.6553    0.0000 C   0  0  0  0  0  0  0  0  0  0  0  0
   21.6400   -9.0678    0.0000 C   0  0  0  0  0  0  0  0  0  0  0  0
   20.9255   -8.6553    0.0000 C   0  0  0  0  0  0  0  0  0  0  0  0
   20.2110   -9.0678    0.0000 C   0  0  0  0  0  0  0  0  0  0  0  0
   19.4966   -8.6553    0.0000 C   0  0  0  0  0  0  0  0  0  0  0  0
   18.7821   -9.0678    0.0000 C   0  0  0  0  0  0  0  0  0  0  0  0
   18.0676   -8.6553    0.0000 C   0  0  0  0  0  0  0  0  0  0  0  0
   17.3531   -9.0678    0.0000 C   0  0  0  0  0  0  0  0  0  0  0  0
   16.6387   -8.6553    0.0000 C   0  0  0  0  0  0  0  0  0  0  0  0
   15.9242   -9.0678    0.0000 C   0  0  0  0  0  0  0  0  0  0  0  0
   15.2097   -8.6553    0.0000 C   0  0  0  0  0  0  0  0  0  0  0  0
   14.4953   -9.0678    0.0000 C   0  0  0  0  0  0  0  0  0  0  0  0
   13.7808   -8.6553    0.0000 C   0  0  0  0  0  0  0  0  0  0  0  0
   12.9558   -8.6553    0.0000 C   0  0  0  0  0  0  0  0  0  0  0  0
   12.2413   -9.0678    0.0000 C   0  0  0  0  0  0  0  0  0  0  0  0
   11.5268   -8.6553    0.0000 C   0  0  0  0  0  0  0  0  0  0  0  0
   10.8124   -9.0678    0.0000 C   0  0  0  0  0  0  0  0  0  0  0  0
   10.0979   -8.6553    0.0000 C   0  0  0  0  0  0  0  0  0  0  0  0
    9.3834   -9.0678    0.0000 C   0  0  0  0  0  0  0  0  0  0  0  0
    8.6690   -8.6553    0.0000 C   0  0  0  0  0  0  0  0  0  0  0  0
    7.9545   -9.0678    0.0000 C   0  0  0  0  0  0  0  0  0  0  0  0
    7.2400   -8.6553    0.0000 C   0  0  0  0  0  0  0  0  0  0  0  0
   22.3544   -7.8303    0.0000 O   0  0  0  0  0  0  0  0  0  0  0  0
   23.0689   -9.0678    0.0000 O   0  0  0  0  0  0  0  0  0  0  0  0
  1  2  1  0  0  0  0
  2  3  1  0  0  0  0
  3  4  1  0  0  0  0
  4  5  1  0  0  0  0
  5  6  1  0  0  0  0
  6  7  1  0  0  0  0
  7  8  1  0  0  0  0
  8  9  1  0  0  0  0
  9 10  1  0  0  0  0
 10 11  1  0  0  0  0
 11 12  1  0  0  0  0
 12 13  1  0  0  0  0
 13 14  2  0  0  0  0
 14 15  1  0  0  0  0
 15 16  1  0  0  0  0
 16 17  1  0  0  0  0
 17 18  1  0  0  0  0
 18 19  1  0  0  0  0
 19 20  1  0  0  0  0
 20 21  1  0  0  0  0
 21 22  1  0  0  0  0
  1 23  2  0  0  0  0
  1 24  1  0  0  0  0
M  END
>  <cdx:groupId>
11976

>  <cdx:fragmentId>
11908

$$$$
