281117.cdx
  Mrv1902 05222410262D          

 21 20  0  0  0  0            999 V2000
    9.2839   -4.3397    0.0000 C   0  0  0  0  0  0  0  0  0  0  0  0
    8.5694   -4.7522    0.0000 C   0  0  0  0  0  0  0  0  0  0  0  0
    7.8549   -4.3397    0.0000 C   0  0  0  0  0  0  0  0  0  0  0  0
    7.1404   -4.7522    0.0000 C   0  0  0  0  0  0  0  0  0  0  0  0
    6.4260   -4.3397    0.0000 C   0  0  0  0  0  0  0  0  0  0  0  0
    5.7115   -4.7522    0.0000 C   0  0  0  0  0  0  0  0  0  0  0  0
    4.9970   -4.3397    0.0000 C   0  0  0  0  0  0  0  0  0  0  0  0
    4.2826   -4.7522    0.0000 C   0  0  2  0  0  0  0  0  0  0  0  0
    3.5681   -4.3397    0.0000 C   0  0  0  0  0  0  0  0  0  0  0  0
    2.8528   -4.7509    0.0000 C   0  0  0  0  0  0  0  0  0  0  0  0
    2.8503   -5.5759    0.0000 C   0  0  0  0  0  0  0  0  0  0  0  0
    2.1345   -5.9861    0.0000 C   0  0  0  0  0  0  0  0  0  0  0  0
    2.1327   -6.8111    0.0000 C   0  0  0  0  0  0  0  0  0  0  0  0
    2.8453   -7.2268    0.0000 C   0  0  0  0  0  0  0  0  0  0  0  0
    2.8416   -8.0518    0.0000 C   0  0  0  0  0  0  0  0  0  0  0  0
    3.5542   -8.4675    0.0000 C   0  0  0  0  0  0  0  0  0  0  0  0
    3.5505   -9.2925    0.0000 C   0  0  0  0  0  0  0  0  0  0  0  0
    4.2631   -9.7082    0.0000 C   0  0  0  0  0  0  0  0  0  0  0  0
    9.2839   -3.5147    0.0000 O   0  0  0  0  0  0  0  0  0  0  0  0
    9.9983   -4.7522    0.0000 O   0  0  0  0  0  0  0  0  0  0  0  0
    4.2826   -5.5772    0.0000 O   0  0  0  0  0  0  0  0  0  0  0  0
  1  2  1  0  0  0  0
  2  3  1  0  0  0  0
  3  4  1  0  0  0  0
  4  5  1  0  0  0  0
  5  6  1  0  0  0  0
  6  7  1  0  0  0  0
  7  8  1  0  0  0  0
  8  9  1  0  0  0  0
  9 10  2  0  0  0  0
 10 11  1  0  0  0  0
 11 12  1  0  0  0  0
 12 13  2  0  0  0  0
 13 14  1  0  0  0  0
 14 15  1  0  0  0  0
 15 16  1  0  0  0  0
 16 17  1  0  0  0  0
 17 18  1  0  0  0  0
  1 19  2  0  0  0  0
  1 20  1  0  0  0  0
  8 21  1  1  0  0  0
M  END
>  <cdx:fragmentId>
5

$$$$
