281138.cdx
  Mrv1902 05222410272D          

 26 26  0  0  0  0            999 V2000
    7.1903   -5.6137    0.0000 C   0  0  0  0  0  0  0  0  0  0  0  0
    7.9030   -5.1982    0.0000 C   0  0  0  0  0  0  0  0  0  0  0  0
    8.6193   -5.6076    0.0000 C   0  0  0  0  0  0  0  0  0  0  0  0
    9.3319   -5.1920    0.0000 C   0  0  0  0  0  0  0  0  0  0  0  0
   10.0482   -5.6014    0.0000 C   0  0  0  0  0  0  0  0  0  0  0  0
    7.1939   -6.4387    0.0000 S   0  0  0  0  0  0  0  0  0  0  0  0
    6.4741   -5.2043    0.0000 N   0  0  0  0  0  0  0  0  0  0  0  0
    5.7614   -5.6199    0.0000 O   0  0  0  0  0  0  0  0  0  0  0  0
    5.0452   -5.2105    0.0000 S   0  0  0  0  0  0  0  0  0  0  0  0
    5.4546   -4.4943    0.0000 O   0  0  0  0  0  0  0  0  0  0  0  0
    4.6358   -5.9268    0.0000 O   0  0  0  0  0  0  0  0  0  0  0  0
    4.3289   -4.8011    0.0000 O   0  0  0  0  0  0  0  0  0  0  0  0
   10.7609   -5.1858    0.0000 S   0  0  0  0  0  0  0  0  0  0  0  0
   10.7573   -4.3608    0.0000 O   0  0  0  0  0  0  0  0  0  0  0  0
   11.4771   -5.5952    0.0000 C   0  0  0  0  0  0  0  0  0  0  0  0
    5.7650   -6.4449    0.0000 O   0  0  0  0  0  0  0  0  0  0  0  0
    6.4812   -6.8543    0.0000 C   0  0  2  0  0  0  0  0  0  0  0  0
    6.4848   -7.6793    0.0000 C   0  0  1  0  0  0  0  0  0  0  0  0
    5.7721   -8.0949    0.0000 C   0  0  2  0  0  0  0  0  0  0  0  0
    5.0559   -7.6855    0.0000 C   0  0  1  0  0  0  0  0  0  0  0  0
    5.0523   -6.8605    0.0000 C   0  0  1  0  0  0  0  0  0  0  0  0
    4.3361   -6.4511    0.0000 C   0  0  0  0  0  0  0  0  0  0  0  0
    3.6234   -6.8667    0.0000 O   0  0  0  0  0  0  0  0  0  0  0  0
    4.3432   -8.1011    0.0000 O   0  0  0  0  0  0  0  0  0  0  0  0
    5.7757   -8.9199    0.0000 O   0  0  0  0  0  0  0  0  0  0  0  0
    7.2011   -8.0887    0.0000 O   0  0  0  0  0  0  0  0  0  0  0  0
  1  2  1  0  0  0  0
  2  3  1  0  0  0  0
  3  4  1  0  0  0  0
  4  5  2  0  0  0  0
  1  6  1  0  0  0  0
  1  7  2  0  0  0  0
  9 10  2  0  0  0  0
  9 11  2  0  0  0  0
  9 12  1  0  0  0  0
  8  9  1  0  0  0  0
  7  8  1  0  0  0  0
 13 14  2  0  0  0  0
 13 15  1  0  0  0  0
  5 13  1  0  0  0  0
 16 17  1  0  0  0  0
 17 18  1  0  0  0  0
 18 19  1  0  0  0  0
 19 20  1  0  0  0  0
 20 21  1  0  0  0  0
 16 21  1  0  0  0  0
 22 23  1  0  0  0  0
 21 22  1  1  0  0  0
 20 24  1  6  0  0  0
 19 25  1  1  0  0  0
 18 26  1  6  0  0  0
 17  6  1  1  0  0  0
M  END
>  <cdx:fragmentId>
5

$$$$
