5281126.cdx
  Mrv1902 05222410202D          

 20 19  0  0  0  0            999 V2000
   18.3740   -7.6562    0.0000 C   0  0  0  0  0  0  0  0  0  0  0  0
   17.6595   -8.0687    0.0000 C   0  0  0  0  0  0  0  0  0  0  0  0
   16.9450   -7.6562    0.0000 C   0  0  0  0  0  0  0  0  0  0  0  0
   16.2305   -8.0687    0.0000 C   0  0  0  0  0  0  0  0  0  0  0  0
   15.5160   -7.6562    0.0000 C   0  0  0  0  0  0  0  0  0  0  0  0
   14.8015   -8.0687    0.0000 C   0  0  0  0  0  0  0  0  0  0  0  0
   14.0871   -7.6562    0.0000 C   0  0  0  0  0  0  0  0  0  0  0  0
   13.3726   -8.0687    0.0000 C   0  0  0  0  0  0  0  0  0  0  0  0
   12.6581   -7.6562    0.0000 C   0  0  0  0  0  0  0  0  0  0  0  0
   11.9436   -8.0687    0.0000 C   0  0  0  0  0  0  0  0  0  0  0  0
   11.9436   -8.8937    0.0000 C   0  0  0  0  0  0  0  0  0  0  0  0
   11.2291   -9.3062    0.0000 C   0  0  0  0  0  0  0  0  0  0  0  0
   11.2291  -10.1312    0.0000 C   0  0  0  0  0  0  0  0  0  0  0  0
   11.9436  -10.5437    0.0000 C   0  0  0  0  0  0  0  0  0  0  0  0
   18.3740   -6.8312    0.0000 O   0  0  0  0  0  0  0  0  0  0  0  0
   19.0884   -8.0687    0.0000 O   0  0  0  0  0  0  0  0  0  0  0  0
   12.6581  -10.1312    0.0000 C   0  0  0  0  0  0  0  0  0  0  0  0
   13.3725  -10.5437    0.0000 C   0  0  0  0  0  0  0  0  0  0  0  0
   14.0870  -10.1312    0.0000 C   0  0  0  0  0  0  0  0  0  0  0  0
   14.8015  -10.5437    0.0000 C   0  0  0  0  0  0  0  0  0  0  0  0
  1  2  1  0  0  0  0
  2  3  1  0  0  0  0
  3  4  1  0  0  0  0
  4  5  1  0  0  0  0
  5  6  1  0  0  0  0
  6  7  1  0  0  0  0
  7  8  1  0  0  0  0
  8  9  1  0  0  0  0
  9 10  2  0  0  0  0
 10 11  1  0  0  0  0
 11 12  2  0  0  0  0
 12 13  1  0  0  0  0
 13 14  2  0  0  0  0
  1 15  2  0  0  0  0
  1 16  1  0  0  0  0
 14 17  1  0  0  0  0
 17 18  1  0  0  0  0
 18 19  1  0  0  0  0
 19 20  1  0  0  0  0
M  END
>  <cdx:fragmentId>
12253

$$$$
