281127.cdx
  Mrv1902 05222410202D          

 20 19  0  0  0  0            999 V2000
    0.8883   -8.3528    0.0000 O   0  0  0  0  0  0  0  0  0  0  0  0
    1.6028   -9.5903    0.0000 O   0  0  0  0  0  0  0  0  0  0  0  0
   13.7488   -8.3528    0.0000 C   0  0  0  0  0  0  0  0  0  0  0  0
   13.0343   -8.7653    0.0000 C   0  0  0  0  0  0  0  0  0  0  0  0
   12.3198   -8.3528    0.0000 C   0  0  0  0  0  0  0  0  0  0  0  0
   11.6054   -8.7653    0.0000 C   0  0  0  0  0  0  0  0  0  0  0  0
   10.8909   -8.3528    0.0000 C   0  0  0  0  0  0  0  0  0  0  0  0
   10.1764   -8.7653    0.0000 C   0  0  0  0  0  0  0  0  0  0  0  0
    9.4620   -8.3528    0.0000 C   0  0  0  0  0  0  0  0  0  0  0  0
    8.7475   -8.7653    0.0000 C   0  0  0  0  0  0  0  0  0  0  0  0
    8.0330   -8.3528    0.0000 C   0  0  0  0  0  0  0  0  0  0  0  0
    7.3185   -8.7653    0.0000 C   0  0  0  0  0  0  0  0  0  0  0  0
    6.6041   -8.3528    0.0000 C   0  0  0  0  0  0  0  0  0  0  0  0
    5.8896   -8.7653    0.0000 C   0  0  0  0  0  0  0  0  0  0  0  0
    5.1751   -8.3528    0.0000 C   0  0  0  0  0  0  0  0  0  0  0  0
    4.4607   -8.7653    0.0000 C   0  0  0  0  0  0  0  0  0  0  0  0
    3.7462   -8.3528    0.0000 C   0  0  0  0  0  0  0  0  0  0  0  0
    3.0317   -8.7653    0.0000 C   0  0  0  0  0  0  0  0  0  0  0  0
    2.3173   -8.3528    0.0000 C   0  0  0  0  0  0  0  0  0  0  0  0
    1.6028   -8.7653    0.0000 C   0  0  0  0  0  0  0  0  0  0  0  0
 20  1  1  0  0  0  0
 20  2  2  0  0  0  0
  4  3  1  0  0  0  0
  5  4  1  0  0  0  0
  6  5  1  0  0  0  0
  7  6  1  0  0  0  0
  8  7  1  0  0  0  0
  9  8  1  0  0  0  0
 10  9  2  0  0  0  0
 11 10  1  0  0  0  0
 12 11  1  0  0  0  0
 13 12  1  0  0  0  0
 14 13  1  0  0  0  0
 15 14  1  0  0  0  0
 16 15  1  0  0  0  0
 17 16  1  0  0  0  0
 18 17  1  0  0  0  0
 19 18  1  0  0  0  0
 20 19  1  0  0  0  0
M  END
>  <cdx:groupId>
12357

>  <cdx:fragmentId>
12301

$$$$
