281297.cdx
  Mrv1902 05222410182D          

 28 30  0  0  0  0            999 V2000
    8.0760   -7.5542    0.0000 C   0  0  0  0  0  0  0  0  0  0  0  0
    8.4711   -6.8299    0.0000 C   0  0  0  0  0  0  0  0  0  0  0  0
    8.0413   -6.1257    0.0000 C   0  0  0  0  0  0  0  0  0  0  0  0
    8.4364   -5.4014    0.0000 C   0  0  0  0  0  0  0  0  0  0  0  0
    8.0066   -4.6972    0.0000 C   0  0  0  0  0  0  0  0  0  0  0  0
    8.4017   -3.9729    0.0000 C   0  0  0  0  0  0  0  0  0  0  0  0
    7.9719   -3.2687    0.0000 C   0  0  0  0  0  0  0  0  0  0  0  0
    6.8174   -9.6818    0.0000 O   0  0  0  0  0  0  0  0  0  0  0  0
    7.2860   -9.0028    0.0000 C   0  0  0  0  0  0  0  0  0  0  0  0
    6.7850   -8.3473    0.0000 C   0  0  0  0  0  0  0  0  0  0  0  0
    6.0068   -8.6212    0.0000 C   0  0  0  0  0  0  0  0  0  0  0  0
    5.2825   -8.2262    0.0000 C   0  0  0  0  0  0  0  0  0  0  0  0
    4.5783   -8.6559    0.0000 C   0  0  0  0  0  0  0  0  0  0  0  0
    4.5983   -9.4807    0.0000 C   0  0  0  0  0  0  0  0  0  0  0  0
    5.3226   -9.8757    0.0000 C   0  0  0  0  0  0  0  0  0  0  0  0
    6.0268   -9.4460    0.0000 C   0  0  0  0  0  0  0  0  0  0  0  0
    3.8941   -9.9104    0.0000 O   0  0  0  0  0  0  0  0  0  0  0  0
    7.1472   -3.2887    0.0000 C   0  0  0  0  0  0  0  0  0  0  0  0
    8.3669   -2.5444    0.0000 C   0  0  0  0  0  0  0  0  0  0  0  0
    7.2166   -6.1457    0.0000 C   0  0  0  0  0  0  0  0  0  0  0  0
    9.7256   -7.5141    0.0000 O   0  0  0  0  0  0  0  0  0  0  0  0
    9.7950  -10.3712    0.0000 O   0  0  0  0  0  0  0  0  0  0  0  0
    8.5405   -9.6870    0.0000 C   0  0  0  0  0  0  0  0  0  0  0  0
    8.1108   -8.9827    0.0000 C   0  0  0  0  0  0  0  0  0  0  0  0
    8.5058   -8.2585    0.0000 C   0  0  0  0  0  0  0  0  0  0  0  0
    9.3305   -8.2384    0.0000 C   0  0  0  0  0  0  0  0  0  0  0  0
    9.7603   -8.9427    0.0000 C   0  0  0  0  0  0  0  0  0  0  0  0
    9.3652   -9.6669    0.0000 C   0  0  0  0  0  0  0  0  0  0  0  0
 25  1  1  0  0  0  0
 26 21  1  0  0  0  0
 28 22  1  0  0  0  0
 28 23  2  0  0  0  0
 24 23  1  0  0  0  0
 25 24  2  0  0  0  0
 26 25  1  0  0  0  0
 27 26  2  0  0  0  0
 28 27  1  0  0  0  0
  1  2  1  0  0  0  0
  2  3  2  0  0  0  0
  3  4  1  0  0  0  0
  4  5  1  0  0  0  0
  5  6  1  0  0  0  0
  6  7  2  0  0  0  0
  7 18  1  0  0  0  0
  8  9  1  0  0  0  0
  9 10  2  0  0  0  0
 10 11  1  0  0  0  0
 11 12  1  0  0  0  0
 12 13  2  0  0  0  0
 13 14  1  0  0  0  0
 14 15  2  0  0  0  0
 15 16  1  0  0  0  0
 11 16  2  0  0  0  0
  8 16  1  0  0  0  0
 14 17  1  0  0  0  0
 24  9  1  0  0  0  0
  7 19  1  0  0  0  0
  3 20  1  0  0  0  0
M  END
>  <cdx:fragmentId>
14040

$$$$
