281222.cdx
  Mrv1902 05222410212D          

 20 21  0  0  0  0            999 V2000
    3.6592   -8.9124    0.0000 O   0  0  0  0  0  0  0  0  0  0  0  0
    5.0886   -6.4386    0.0000 O   0  0  0  0  0  0  0  0  0  0  0  0
    5.0886   -7.2632    0.0000 C   0  0  0  0  0  0  0  0  0  0  0  0
    4.3741   -7.6755    0.0000 C   0  0  0  0  0  0  0  0  0  0  0  0
    4.3741   -8.5001    0.0000 C   0  0  0  0  0  0  0  0  0  0  0  0
    5.0886   -8.9124    0.0000 C   0  0  0  0  0  0  0  0  0  0  0  0
    5.8033   -8.5001    0.0000 C   0  0  0  0  0  0  0  0  0  0  0  0
    6.5179   -6.4386    0.0000 O   0  0  0  0  0  0  0  0  0  0  0  0
    5.8033   -7.6755    0.0000 C   0  0  0  0  0  0  0  0  0  0  0  0
    6.5179   -7.2632    0.0000 C   0  0  0  0  0  0  0  0  0  0  0  0
    7.2326   -7.6755    0.0000 C   0  0  0  0  0  0  0  0  0  0  0  0
    9.3765   -9.7369    0.0000 O   0  0  0  0  0  0  0  0  0  0  0  0
   10.7783   -8.9124    0.0000 O   0  0  0  0  0  0  0  0  0  0  0  0
    9.3765   -7.2632    0.0000 C   0  0  0  0  0  0  0  0  0  0  0  0
   10.0912   -7.6755    0.0000 C   0  0  0  0  0  0  0  0  0  0  0  0
   10.0912   -8.5001    0.0000 C   0  0  0  0  0  0  0  0  0  0  0  0
    9.3765   -8.9124    0.0000 C   0  0  0  0  0  0  0  0  0  0  0  0
    8.6619   -8.5001    0.0000 C   0  0  0  0  0  0  0  0  0  0  0  0
    8.6619   -7.6755    0.0000 C   0  0  0  0  0  0  0  0  0  0  0  0
    7.9472   -7.2632    0.0000 C   0  0  0  0  0  0  0  0  0  0  0  0
  5  1  1  0  0  0  0
  3  2  1  0  0  0  0
  9  3  1  0  0  0  0
  4  3  2  0  0  0  0
  5  4  1  0  0  0  0
  6  5  2  0  0  0  0
  7  6  1  0  0  0  0
  9  7  2  0  0  0  0
 10  8  2  0  0  0  0
 10  9  1  0  0  0  0
 11 10  1  0  0  0  0
 20 11  2  0  0  0  0
 17 12  1  0  0  0  0
 16 13  1  0  0  0  0
 19 14  2  0  0  0  0
 15 14  1  0  0  0  0
 16 15  2  0  0  0  0
 17 16  1  0  0  0  0
 18 17  2  0  0  0  0
 19 18  1  0  0  0  0
 20 19  1  0  0  0  0
M  END
>  <cdx:fragmentId>
12577

$$$$
