281228.cdx
  Mrv1902 05222410242D          

 43 44  0  0  0  0            999 V2000
   16.5204   -8.9682    0.0000 C   0  0  0  0  0  0  0  0  0  0  0  0
   15.8059   -8.5557    0.0000 C   0  0  0  0  0  0  0  0  0  0  0  0
   15.0914   -8.9682    0.0000 C   0  0  0  0  0  0  0  0  0  0  0  0
   14.3769   -8.5557    0.0000 C   0  0  0  0  0  0  0  0  0  0  0  0
   13.6625   -8.9682    0.0000 C   0  0  0  0  0  0  0  0  0  0  0  0
   12.9480   -8.5557    0.0000 C   0  0  0  0  0  0  0  0  0  0  0  0
   12.2335   -8.9682    0.0000 C   0  0  0  0  0  0  0  0  0  0  0  0
   11.5191   -8.5557    0.0000 C   0  0  0  0  0  0  0  0  0  0  0  0
   10.8046   -8.9682    0.0000 C   0  0  0  0  0  0  0  0  0  0  0  0
   10.0901   -8.5557    0.0000 C   0  0  0  0  0  0  0  0  0  0  0  0
    9.3756   -8.9682    0.0000 C   0  0  0  0  0  0  0  0  0  0  0  0
    8.6612   -8.5557    0.0000 C   0  0  0  0  0  0  0  0  0  0  0  0
    7.9467   -8.9682    0.0000 C   0  0  0  0  0  0  0  0  0  0  0  0
    7.2322   -8.5557    0.0000 C   0  0  0  0  0  0  0  0  0  0  0  0
    6.5178   -8.9682    0.0000 C   0  0  0  0  0  0  0  0  0  0  0  0
    5.8033   -8.5557    0.0000 C   0  0  0  0  0  0  0  0  0  0  0  0
    5.0888   -8.9682    0.0000 C   0  0  0  0  0  0  0  0  0  0  0  0
    4.3743   -8.5557    0.0000 C   0  0  0  0  0  0  0  0  0  0  0  0
    3.6599   -8.9682    0.0000 C   0  0  0  0  0  0  0  0  0  0  0  0
   16.5204   -9.7932    0.0000 O   0  0  0  0  0  0  0  0  0  0  0  0
    5.0888   -9.7932    0.0000 C   0  0  0  0  0  0  0  0  0  0  0  0
    7.9467   -9.7932    0.0000 C   0  0  0  0  0  0  0  0  0  0  0  0
   11.5191   -7.7307    0.0000 C   0  0  0  0  0  0  0  0  0  0  0  0
   14.3769   -7.7307    0.0000 C   0  0  0  0  0  0  0  0  0  0  0  0
   17.2348   -8.5557    0.0000 C   0  0  1  0  0  0  0  0  0  0  0  0
   17.7197   -7.8882    0.0000 C   0  0  0  0  0  0  0  0  0  0  0  0
   18.5044   -8.1432    0.0000 C   0  0  0  0  0  0  0  0  0  0  0  0
   18.5044   -8.9682    0.0000 C   0  0  1  0  0  0  0  0  0  0  0  0
   17.7197   -9.2231    0.0000 C   0  0  0  0  0  0  0  0  0  0  0  0
   17.1067   -7.3362    0.0000 C   0  0  0  0  0  0  0  0  0  0  0  0
   17.8913   -7.0813    0.0000 C   0  0  0  0  0  0  0  0  0  0  0  0
   16.5204   -8.1432    0.0000 C   0  0  0  0  0  0  0  0  0  0  0  0
   19.1718   -9.4531    0.0000 O   0  0  0  0  0  0  0  0  0  0  0  0
    2.9454   -8.5557    0.0000 C   0  0  0  0  0  0  0  0  0  0  0  0
    2.2309   -8.9682    0.0000 C   0  0  0  0  0  0  0  0  0  0  0  0
    1.5165   -8.5557    0.0000 C   0  0  0  0  0  0  0  0  0  0  0  0
    1.5165   -7.7307    0.0000 C   0  0  2  0  0  0  0  0  0  0  0  0
    2.2309   -7.3182    0.0000 C   0  0  0  0  0  0  0  0  0  0  0  0
    2.9454   -7.7307    0.0000 C   0  0  0  0  0  0  0  0  0  0  0  0
    3.3579   -7.0162    0.0000 C   0  0  0  0  0  0  0  0  0  0  0  0
    3.7704   -7.7307    0.0000 C   0  0  0  0  0  0  0  0  0  0  0  0
    2.2309   -9.7932    0.0000 C   0  0  0  0  0  0  0  0  0  0  0  0
    0.8020   -7.3182    0.0000 O   0  0  0  0  0  0  0  0  0  0  0  0
  1  2  1  0  0  0  0
  2  3  2  0  0  0  0
  3  4  1  0  0  0  0
  4  5  2  0  0  0  0
  5  6  1  0  0  0  0
  6  7  2  0  0  0  0
  7  8  1  0  0  0  0
  8  9  2  0  0  0  0
  9 10  1  0  0  0  0
 10 11  2  0  0  0  0
 11 12  1  0  0  0  0
 12 13  2  0  0  0  0
 13 14  1  0  0  0  0
 14 15  2  0  0  0  0
 15 16  1  0  0  0  0
 16 17  2  0  0  0  0
 17 18  1  0  0  0  0
 18 19  2  0  0  0  0
  1 20  2  0  0  0  0
 17 21  1  0  0  0  0
 13 22  1  0  0  0  0
  8 23  1  0  0  0  0
  4 24  1  0  0  0  0
 25 26  1  0  0  0  0
 26 27  1  0  0  0  0
 27 28  1  0  0  0  0
 28 29  1  0  0  0  0
 25 29  1  0  0  0  0
 26 30  1  0  0  0  0
 26 31  1  0  0  0  0
 25 32  1  6  0  0  0
 28 33  1  6  0  0  0
 25  1  1  1  0  0  0
 34 35  2  0  0  0  0
 35 36  1  0  0  0  0
 36 37  1  0  0  0  0
 37 38  1  0  0  0  0
 38 39  1  0  0  0  0
 34 39  1  0  0  0  0
 39 40  1  0  0  0  0
 39 41  1  0  0  0  0
 35 42  1  0  0  0  0
 37 43  1  1  0  0  0
 19 34  1  0  0  0  0
M  END
>  <cdx:fragmentId>
5

$$$$
