281295.cdx
  Mrv1902 05222410192D          

 20 22  0  0  0  0            999 V2000
    4.6351   -8.0602    0.0000 C   0  0  0  0  0  0  0  0  0  0  0  0
    4.6351   -8.8847    0.0000 C   0  0  0  0  0  0  0  0  0  0  0  0
    5.3497   -9.2970    0.0000 C   0  0  0  0  0  0  0  0  0  0  0  0
    6.0644   -8.8847    0.0000 C   0  0  0  0  0  0  0  0  0  0  0  0
    6.0644   -8.0602    0.0000 C   0  0  0  0  0  0  0  0  0  0  0  0
    5.3497   -7.6479    0.0000 C   0  0  0  0  0  0  0  0  0  0  0  0
    6.8615   -9.1321    0.0000 C   0  0  0  0  0  0  0  0  0  0  0  0
    7.3288   -8.4725    0.0000 C   0  0  0  0  0  0  0  0  0  0  0  0
    6.8615   -7.7853    0.0000 O   0  0  0  0  0  0  0  0  0  0  0  0
    3.9205   -7.6479    0.0000 O   0  0  0  0  0  0  0  0  0  0  0  0
    7.1088   -9.9017    0.0000 O   0  0  0  0  0  0  0  0  0  0  0  0
    8.1533   -8.4725    0.0000 C   0  0  0  0  0  0  0  0  0  0  0  0
    8.5656   -7.7303    0.0000 C   0  0  0  0  0  0  0  0  0  0  0  0
    9.3901   -7.7303    0.0000 C   0  0  0  0  0  0  0  0  0  0  0  0
    9.8024   -7.0432    0.0000 C   0  0  0  0  0  0  0  0  0  0  0  0
    9.3901   -6.3285    0.0000 C   0  0  0  0  0  0  0  0  0  0  0  0
    8.5656   -6.3285    0.0000 C   0  0  0  0  0  0  0  0  0  0  0  0
    8.1533   -7.0432    0.0000 C   0  0  0  0  0  0  0  0  0  0  0  0
   10.6270   -7.0432    0.0000 O   0  0  0  0  0  0  0  0  0  0  0  0
    9.8024   -5.6139    0.0000 O   0  0  0  0  0  0  0  0  0  0  0  0
  1  2  2  0  0  0  0
  2  3  1  0  0  0  0
  3  4  2  0  0  0  0
  4  5  1  0  0  0  0
  5  6  2  0  0  0  0
  1  6  1  0  0  0  0
  4  7  1  0  0  0  0
  7  8  1  0  0  0  0
  8  9  1  0  0  0  0
  5  9  1  0  0  0  0
  1 10  1  0  0  0  0
  7 11  2  0  0  0  0
  8 12  2  0  0  0  0
 12 13  1  0  0  0  0
 13 14  2  0  0  0  0
 14 15  1  0  0  0  0
 15 16  2  0  0  0  0
 16 17  1  0  0  0  0
 17 18  2  0  0  0  0
 13 18  1  0  0  0  0
 15 19  1  0  0  0  0
 16 20  1  0  0  0  0
M  END
>  <cdx:fragmentId>
13971

$$$$
