5281255.cdx
  Mrv1902 05222410182D          

 24 25  0  0  0  0            999 V2000
   14.0828   -7.3453    0.0000 O   0  0  0  0  0  0  0  0  0  0  0  0
   14.0828   -8.1703    0.0000 C   0  0  0  0  0  0  0  0  0  0  0  0
   13.3683   -8.5828    0.0000 C   0  0  0  0  0  0  0  0  0  0  0  0
   12.6538   -8.1703    0.0000 C   0  0  0  0  0  0  0  0  0  0  0  0
   11.9393   -8.5828    0.0000 C   0  0  0  0  0  0  0  0  0  0  0  0
   11.2249   -8.1703    0.0000 C   0  0  0  0  0  0  0  0  0  0  0  0
   11.2249   -7.3453    0.0000 C   0  0  0  0  0  0  0  0  0  0  0  0
   10.5104   -8.5828    0.0000 C   0  0  0  0  0  0  0  0  0  0  0  0
   13.3683   -9.4078    0.0000 C   0  0  0  0  0  0  0  0  0  0  0  0
   12.6538   -9.8203    0.0000 O   0  0  0  0  0  0  0  0  0  0  0  0
   14.0828   -9.8203    0.0000 C   0  0  0  0  0  0  0  0  0  0  0  0
   14.7972   -9.4078    0.0000 C   0  0  0  0  0  0  0  0  0  0  0  0
   14.7972   -8.5828    0.0000 C   0  0  0  0  0  0  0  0  0  0  0  0
   15.5117   -8.1703    0.0000 C   0  0  0  0  0  0  0  0  0  0  0  0
   15.5117   -7.3453    0.0000 O   0  0  0  0  0  0  0  0  0  0  0  0
   16.2262   -8.5828    0.0000 C   0  0  0  0  0  0  0  0  0  0  0  0
   16.9406   -8.1703    0.0000 C   0  0  0  0  0  0  0  0  0  0  0  0
   17.6551   -8.5828    0.0000 C   0  0  0  0  0  0  0  0  0  0  0  0
   17.6551   -9.4078    0.0000 C   0  0  0  0  0  0  0  0  0  0  0  0
   18.3696   -9.8203    0.0000 C   0  0  0  0  0  0  0  0  0  0  0  0
   19.0841   -9.4078    0.0000 C   0  0  0  0  0  0  0  0  0  0  0  0
   19.7985   -9.8203    0.0000 O   0  0  0  0  0  0  0  0  0  0  0  0
   19.0841   -8.5828    0.0000 C   0  0  0  0  0  0  0  0  0  0  0  0
   18.3696   -8.1703    0.0000 C   0  0  0  0  0  0  0  0  0  0  0  0
  1  2  1  0  0  0  0
  2  3  1  0  0  0  0
  3  4  1  0  0  0  0
  4  5  1  0  0  0  0
  5  6  2  0  0  0  0
  6  7  1  0  0  0  0
  6  8  1  0  0  0  0
  3  9  2  0  0  0  0
  9 10  1  0  0  0  0
  9 11  1  0  0  0  0
 11 12  2  0  0  0  0
 12 13  1  0  0  0  0
  2 13  2  0  0  0  0
 13 14  1  0  0  0  0
 14 15  2  0  0  0  0
 14 16  1  0  0  0  0
 16 17  2  0  0  0  0
 17 18  1  0  0  0  0
 18 19  1  0  0  0  0
 19 20  2  0  0  0  0
 20 21  1  0  0  0  0
 21 22  1  0  0  0  0
 21 23  2  0  0  0  0
 23 24  1  0  0  0  0
 18 24  2  0  0  0  0
M  END
>  <cdx:fragmentId>
13915

$$$$
