281232.cdx
  Mrv1902 05222410222D          

 24 23  0  0  0  0            999 V2000
    1.1181   -7.7440    0.0000 O   0  0  0  0  0  0  0  0  0  0  0  0
    1.8326   -8.9815    0.0000 O   0  0  0  0  0  0  0  0  0  0  0  0
    2.5471   -6.9190    0.0000 C   0  0  0  0  0  0  0  0  0  0  0  0
    1.8326   -8.1565    0.0000 C   0  0  0  0  0  0  0  0  0  0  0  0
    2.5471   -7.7440    0.0000 C   0  0  0  0  0  0  0  0  0  0  0  0
    3.2615   -8.1565    0.0000 C   0  0  0  0  0  0  0  0  0  0  0  0
    3.9760   -7.7440    0.0000 C   0  0  0  0  0  0  0  0  0  0  0  0
    5.4050   -6.9190    0.0000 C   0  0  0  0  0  0  0  0  0  0  0  0
    4.6905   -8.1565    0.0000 C   0  0  0  0  0  0  0  0  0  0  0  0
    5.4050   -7.7440    0.0000 C   0  0  0  0  0  0  0  0  0  0  0  0
    6.1195   -8.1565    0.0000 C   0  0  0  0  0  0  0  0  0  0  0  0
    6.8339   -7.7440    0.0000 C   0  0  0  0  0  0  0  0  0  0  0  0
    7.5484   -8.1565    0.0000 C   0  0  0  0  0  0  0  0  0  0  0  0
    8.9774   -8.9815    0.0000 C   0  0  0  0  0  0  0  0  0  0  0  0
    8.2629   -7.7440    0.0000 C   0  0  0  0  0  0  0  0  0  0  0  0
    8.9774   -8.1565    0.0000 C   0  0  0  0  0  0  0  0  0  0  0  0
   13.2644   -8.1565    0.0000 O   0  0  0  0  0  0  0  0  0  0  0  0
   12.5499   -6.9190    0.0000 O   0  0  0  0  0  0  0  0  0  0  0  0
    9.6920   -7.7440    0.0000 C   0  0  0  0  0  0  0  0  0  0  0  0
   11.8354   -8.9815    0.0000 C   0  0  0  0  0  0  0  0  0  0  0  0
   12.5499   -7.7440    0.0000 C   0  0  0  0  0  0  0  0  0  0  0  0
   10.4065   -8.1565    0.0000 C   0  0  0  0  0  0  0  0  0  0  0  0
   11.1210   -7.7440    0.0000 C   0  0  0  0  0  0  0  0  0  0  0  0
   11.8354   -8.1565    0.0000 C   0  0  0  0  0  0  0  0  0  0  0  0
  1  4  1  0  0  0  0
  2  4  2  0  0  0  0
  3  5  1  0  0  0  0
  4  5  1  0  0  0  0
  5  6  2  0  0  0  0
  6  7  1  0  0  0  0
  7  9  2  0  0  0  0
  8 10  1  0  0  0  0
  9 10  1  0  0  0  0
 10 11  2  0  0  0  0
 11 12  1  0  0  0  0
 12 13  2  0  0  0  0
 13 15  1  0  0  0  0
 14 16  1  0  0  0  0
 15 16  2  0  0  0  0
 16 19  1  0  0  0  0
 17 21  1  0  0  0  0
 18 21  2  0  0  0  0
 19 22  2  0  0  0  0
 20 24  1  0  0  0  0
 21 24  1  0  0  0  0
 22 23  1  0  0  0  0
 24 23  2  0  0  0  0
M  END
>  <cdx:fragmentId>
12861

$$$$
