281316.cdx
  Mrv1902 05222410262D          

 43 46  0  0  0  0            999 V2000
   10.8078  -10.3427    0.0000 C   0  0  2  0  0  0  0  0  0  0  0  0
   10.8078  -11.1672    0.0000 C   0  0  0  0  0  0  0  0  0  0  0  0
   11.5224  -11.5796    0.0000 C   0  0  0  0  0  0  0  0  0  0  0  0
   12.2370  -11.1672    0.0000 C   0  0  0  0  0  0  0  0  0  0  0  0
   12.2370  -10.3427    0.0000 C   0  0  1  0  0  0  0  0  0  0  0  0
   11.5224   -9.9304    0.0000 C   0  0  0  0  0  0  0  0  0  0  0  0
   12.9517  -11.5796    0.0000 C   0  0  0  0  0  0  0  0  0  0  0  0
   13.6663  -11.1672    0.0000 C   0  0  0  0  0  0  0  0  0  0  0  0
   13.6663  -10.3427    0.0000 C   0  0  2  0  0  0  0  0  0  0  0  0
   12.9517   -9.9304    0.0000 C   0  0  1  0  0  0  0  0  0  0  0  0
   14.3810   -9.9304    0.0000 C   0  0  1  0  0  0  0  0  0  0  0  0
   14.3810   -9.1333    0.0000 C   0  0  2  0  0  0  0  0  0  0  0  0
   13.6663   -8.7210    0.0000 C   0  0  0  0  0  0  0  0  0  0  0  0
   12.9517   -9.1333    0.0000 C   0  0  0  0  0  0  0  0  0  0  0  0
   15.1505  -10.2053    0.0000 C   0  0  0  0  0  0  0  0  0  0  0  0
   15.6178   -9.5181    0.0000 C   0  0  2  0  0  0  0  0  0  0  0  0
   15.1505   -8.8585    0.0000 C   0  0  2  0  0  0  0  0  0  0  0  0
   10.1481  -11.5796    0.0000 O   0  0  0  0  0  0  0  0  0  0  0  0
   14.3810   -8.3087    0.0000 C   0  0  0  0  0  0  0  0  0  0  0  0
   13.6663   -9.5181    0.0000 H   0  0  0  0  0  0  0  0  0  0  0  0
   12.9517  -10.7550    0.0000 C   0  0  0  0  0  0  0  0  0  0  0  0
   10.1481   -9.9304    0.0000 O   0  0  0  0  0  0  0  0  0  0  0  0
   12.2370   -9.5181    0.0000 H   0  0  0  0  0  0  0  0  0  0  0  0
   14.3810  -10.7550    0.0000 C   0  0  0  0  0  0  0  0  0  0  0  0
   16.4424   -9.5181    0.0000 O   0  0  0  0  0  0  0  0  0  0  0  0
   11.1101  -12.2942    0.0000 C   0  0  0  0  0  0  0  0  0  0  0  0
   11.9347  -12.2942    0.0000 C   0  0  0  0  0  0  0  0  0  0  0  0
   12.2370   -8.7210    0.0000 O   0  0  0  0  0  0  0  0  0  0  0  0
   15.3988   -8.0717    0.0000 C   0  0  0  0  0  0  0  0  0  0  0  0
   14.6019   -7.8582    0.0000 C   0  0  0  0  0  0  0  0  0  0  0  0
   16.1957   -8.2852    0.0000 O   0  0  0  0  0  0  0  0  0  0  0  0
   15.6471   -7.2850    0.0000 C   0  0  0  0  0  0  0  0  0  0  0  0
   15.0899   -6.6766    0.0000 O   0  0  0  0  0  0  0  0  0  0  0  0
   16.4526   -7.1066    0.0000 C   0  0  0  0  0  0  0  0  0  0  0  0
   16.7009   -6.3199    0.0000 C   0  0  0  0  0  0  0  0  0  0  0  0
   17.5064   -6.1415    0.0000 C   0  0  0  0  0  0  0  0  0  0  0  0
   17.7199   -6.9384    0.0000 C   0  0  0  0  0  0  0  0  0  0  0  0
   17.2929   -5.3446    0.0000 C   0  0  0  0  0  0  0  0  0  0  0  0
   18.3119   -5.9632    0.0000 O   0  0  0  0  0  0  0  0  0  0  0  0
   18.5602   -5.1764    0.0000 C   0  0  0  0  0  0  0  0  0  0  0  0
   18.0030   -4.5680    0.0000 O   0  0  0  0  0  0  0  0  0  0  0  0
   19.3657   -4.9981    0.0000 C   0  0  0  0  0  0  0  0  0  0  0  0
   15.9474   -8.6449    0.0000 H   0  0  0  0  0  0  0  0  0  0  0  0
  1  2  1  0  0  0  0
  2  3  1  0  0  0  0
  3  4  1  0  0  0  0
  4  5  1  0  0  0  0
  5  6  1  0  0  0  0
  1  6  1  0  0  0  0
  4  7  2  0  0  0  0
  7  8  1  0  0  0  0
  8  9  1  0  0  0  0
  9 10  1  0  0  0  0
  5 10  1  0  0  0  0
  9 11  1  0  0  0  0
 11 12  1  0  0  0  0
 12 13  1  0  0  0  0
 13 14  1  0  0  0  0
 10 14  1  0  0  0  0
 11 15  1  0  0  0  0
 15 16  1  0  0  0  0
 16 17  1  0  0  0  0
 12 17  1  0  0  0  0
  2 18  2  0  0  0  0
 12 19  1  1  0  0  0
  9 20  1  1  0  0  0
 10 21  1  1  0  0  0
  1 22  1  1  0  0  0
  5 23  1  6  0  0  0
 11 24  1  6  0  0  0
 16 25  1  6  0  0  0
  3 26  1  0  0  0  0
  3 27  1  0  0  0  0
 14 28  2  0  0  0  0
 17 29  1  0  0  0  0
 29 30  1  0  0  0  0
 29 31  1  1  0  0  0
 29 32  1  0  0  0  0
 32 33  2  0  0  0  0
 32 34  1  0  0  0  0
 34 35  2  0  0  0  0
 35 36  1  0  0  0  0
 36 37  1  0  0  0  0
 36 38  1  0  0  0  0
 36 39  1  0  0  0  0
 39 40  1  0  0  0  0
 40 41  2  0  0  0  0
 40 42  1  0  0  0  0
 17 43  1  6  0  0  0
M  END
>  <cdx:fragmentId>
185526

$$$$
