281396.cdx
  Mrv1902 05222410212D          

 27 30  0  0  0  0            999 V2000
    7.7321  -10.3034    0.0000 O   0  0  0  0  0  0  0  0  0  0  0  0
    7.0647   -9.8185    0.0000 C   0  0  1  0  0  0  0  0  0  0  0  0
    7.3196   -9.0338    0.0000 C   0  0  1  0  0  0  0  0  0  0  0  0
    8.1446   -9.0338    0.0000 C   0  0  0  0  0  0  0  0  0  0  0  0
    8.3995   -9.8185    0.0000 C   0  0  0  0  0  0  0  0  0  0  0  0
    6.6522   -8.5489    0.0000 C   0  0  0  0  0  0  0  0  0  0  0  0
    5.9847   -9.0338    0.0000 C   0  0  0  0  0  0  0  0  0  0  0  0
    5.1777   -8.8623    0.0000 C   0  0  2  0  0  0  0  0  0  0  0  0
    4.6257   -9.4754    0.0000 C   0  0  0  0  0  0  0  0  0  0  0  0
    4.8807  -10.2600    0.0000 C   0  0  0  0  0  0  0  0  0  0  0  0
    5.6876  -10.4316    0.0000 C   0  0  0  0  0  0  0  0  0  0  0  0
    6.2397   -9.8185    0.0000 C   0  0  0  0  0  0  0  0  0  0  0  0
    9.1842  -10.0734    0.0000 O   0  0  0  0  0  0  0  0  0  0  0  0
    8.6295   -8.3664    0.0000 C   0  0  0  0  0  0  0  0  0  0  0  0
    8.2940   -7.6127    0.0000 O   0  0  0  0  0  0  0  0  0  0  0  0
    9.6039   -6.9453    0.0000 O   0  0  0  0  0  0  0  0  0  0  0  0
    8.7789   -6.9453    0.0000 C   0  0  2  0  0  0  0  0  0  0  0  0
    8.5239   -6.1607    0.0000 C   0  0  0  0  0  0  0  0  0  0  0  0
    9.1914   -5.6757    0.0000 C   0  0  0  0  0  0  0  0  0  0  0  0
    9.8588   -6.1607    0.0000 C   0  0  0  0  0  0  0  0  0  0  0  0
   10.6434   -5.9057    0.0000 O   0  0  0  0  0  0  0  0  0  0  0  0
    9.1914   -4.8507    0.0000 C   0  0  0  0  0  0  0  0  0  0  0  0
    6.3007  -10.9836    0.0000 C   0  0  0  0  0  0  0  0  0  0  0  0
    5.5161  -11.2385    0.0000 C   0  0  0  0  0  0  0  0  0  0  0  0
    4.9228   -8.0777    0.0000 O   0  0  0  0  0  0  0  0  0  0  0  0
    7.5745   -8.2492    0.0000 H   0  0  0  0  0  0  0  0  0  0  0  0
    6.8097  -10.6031    0.0000 H   0  0  0  0  0  0  0  0  0  0  0  0
  1  2  1  0  0  0  0
  2  3  1  0  0  0  0
  3  4  1  0  0  0  0
  4  5  1  0  0  0  0
  1  5  1  0  0  0  0
  6  7  1  0  0  0  0
  7  8  1  0  0  0  0
  8  9  1  0  0  0  0
  9 10  1  0  0  0  0
 10 11  1  0  0  0  0
 11 12  1  0  0  0  0
  7 12  2  0  0  0  0
 12  2  1  0  0  0  0
  6  3  1  0  0  0  0
  5 13  2  0  0  0  0
 16 17  1  0  0  0  0
 17 18  1  0  0  0  0
 18 19  2  0  0  0  0
 19 20  1  0  0  0  0
 16 20  1  0  0  0  0
 20 21  2  0  0  0  0
 19 22  1  0  0  0  0
 17 15  1  1  0  0  0
 14 15  1  0  0  0  0
  4 14  2  0  0  0  0
 11 23  1  0  0  0  0
 11 24  1  0  0  0  0
  8 25  1  6  0  0  0
  3 26  1  1  0  0  0
  2 27  1  1  0  0  0
M  END
>  <cdx:fragmentId>
14861

$$$$
