5281342.cdx
  Mrv1902 05222410212D          

 23 25  0  0  0  0            999 V2000
   12.6533   -7.7582    0.0000 C   0  0  0  0  0  0  0  0  0  0  0  0
   12.6533   -8.5827    0.0000 C   0  0  0  0  0  0  0  0  0  0  0  0
   13.3678   -8.9950    0.0000 C   0  0  0  0  0  0  0  0  0  0  0  0
   14.0825   -8.5827    0.0000 C   0  0  0  0  0  0  0  0  0  0  0  0
   14.0825   -7.7582    0.0000 C   0  0  0  0  0  0  0  0  0  0  0  0
   13.3678   -7.3460    0.0000 C   0  0  0  0  0  0  0  0  0  0  0  0
   14.7971   -8.9950    0.0000 C   0  0  0  0  0  0  0  0  0  0  0  0
   15.5117   -8.5827    0.0000 C   0  0  0  0  0  0  0  0  0  0  0  0
   15.5117   -7.7582    0.0000 C   0  0  0  0  0  0  0  0  0  0  0  0
   14.7971   -7.3460    0.0000 O   0  0  0  0  0  0  0  0  0  0  0  0
   11.9387   -7.3460    0.0000 O   0  0  0  0  0  0  0  0  0  0  0  0
   11.9387   -8.9950    0.0000 O   0  0  0  0  0  0  0  0  0  0  0  0
   11.2241   -8.5827    0.0000 C   0  0  0  0  0  0  0  0  0  0  0  0
   13.3678   -9.8196    0.0000 O   0  0  0  0  0  0  0  0  0  0  0  0
   14.7971   -9.8196    0.0000 O   0  0  0  0  0  0  0  0  0  0  0  0
   16.2263   -7.3460    0.0000 O   0  0  0  0  0  0  0  0  0  0  0  0
   16.9409   -7.7582    0.0000 C   0  0  0  0  0  0  0  0  0  0  0  0
   16.9409   -8.5827    0.0000 C   0  0  0  0  0  0  0  0  0  0  0  0
   17.6555   -8.9950    0.0000 C   0  0  0  0  0  0  0  0  0  0  0  0
   18.3702   -8.5827    0.0000 C   0  0  0  0  0  0  0  0  0  0  0  0
   18.3702   -7.7582    0.0000 C   0  0  0  0  0  0  0  0  0  0  0  0
   17.6555   -7.3460    0.0000 C   0  0  0  0  0  0  0  0  0  0  0  0
   19.0849   -8.9950    0.0000 O   0  0  0  0  0  0  0  0  0  0  0  0
  1  2  2  0  0  0  0
  2  3  1  0  0  0  0
  3  4  2  0  0  0  0
  4  5  1  0  0  0  0
  5  6  2  0  0  0  0
  1  6  1  0  0  0  0
  4  7  1  0  0  0  0
  7  8  1  0  0  0  0
  8  9  2  0  0  0  0
  9 10  1  0  0  0  0
  5 10  1  0  0  0  0
  1 11  1  0  0  0  0
  2 12  1  0  0  0  0
 12 13  1  0  0  0  0
  3 14  1  0  0  0  0
  7 15  2  0  0  0  0
  9 16  1  0  0  0  0
 16 17  1  0  0  0  0
 17 18  2  0  0  0  0
 18 19  1  0  0  0  0
 19 20  2  0  0  0  0
 20 21  1  0  0  0  0
 21 22  2  0  0  0  0
 17 22  1  0  0  0  0
 20 23  1  0  0  0  0
M  END
>  <cdx:fragmentId>
14610

$$$$
