281365.cdx
  Mrv1902 05222410252D          

 21 20  0  0  0  0            999 V2000
    3.8782   -8.0199    0.0000 C   0  0  0  0  0  0  0  0  0  0  0  0
    6.7361   -8.0199    0.0000 C   0  0  0  0  0  0  0  0  0  0  0  0
    9.5940   -8.0199    0.0000 C   0  0  0  0  0  0  0  0  0  0  0  0
   13.1663   -6.7824    0.0000 C   0  0  0  0  0  0  0  0  0  0  0  0
    1.7348   -6.7824    0.0000 O   0  0  0  0  0  0  0  0  0  0  0  0
   12.4518   -8.0199    0.0000 C   0  0  0  0  0  0  0  0  0  0  0  0
   12.4518   -7.1949    0.0000 C   0  0  0  0  0  0  0  0  0  0  0  0
   11.7374   -6.7824    0.0000 C   0  0  0  0  0  0  0  0  0  0  0  0
   11.0229   -7.1949    0.0000 C   0  0  0  0  0  0  0  0  0  0  0  0
   10.3084   -6.7824    0.0000 C   0  0  0  0  0  0  0  0  0  0  0  0
    9.5940   -7.1949    0.0000 C   0  0  0  0  0  0  0  0  0  0  0  0
    8.8795   -6.7824    0.0000 C   0  0  0  0  0  0  0  0  0  0  0  0
    8.1650   -7.1949    0.0000 C   0  0  0  0  0  0  0  0  0  0  0  0
    7.4505   -6.7824    0.0000 C   0  0  0  0  0  0  0  0  0  0  0  0
    6.7361   -7.1949    0.0000 C   0  0  0  0  0  0  0  0  0  0  0  0
    6.0216   -6.7824    0.0000 C   0  0  0  0  0  0  0  0  0  0  0  0
    5.3071   -7.1949    0.0000 C   0  0  0  0  0  0  0  0  0  0  0  0
    4.5927   -6.7824    0.0000 C   0  0  0  0  0  0  0  0  0  0  0  0
    3.8782   -7.1949    0.0000 C   0  0  0  0  0  0  0  0  0  0  0  0
    3.1637   -6.7824    0.0000 C   0  0  0  0  0  0  0  0  0  0  0  0
    2.4493   -7.1949    0.0000 C   0  0  0  0  0  0  0  0  0  0  0  0
 19  1  1  0  0  0  0
 15  2  1  0  0  0  0
 11  3  1  0  0  0  0
  7  4  1  0  0  0  0
 21  5  1  0  0  0  0
  7  6  1  0  0  0  0
  8  7  2  0  0  0  0
  9  8  1  0  0  0  0
 10  9  1  0  0  0  0
 11 10  1  0  0  0  0
 12 11  2  0  0  0  0
 13 12  1  0  0  0  0
 14 13  1  0  0  0  0
 15 14  1  0  0  0  0
 16 15  2  0  0  0  0
 17 16  1  0  0  0  0
 18 17  1  0  0  0  0
 19 18  1  0  0  0  0
 20 19  2  0  0  0  0
 21 20  1  0  0  0  0
M  END
>  <cdx:fragmentId>
14710

$$$$
