281420.cdx
  Mrv1902 05222410222D          

 22 23  0  0  0  0            999 V2000
    6.5883   -7.2532    0.0000 C   0  0  0  0  0  0  0  0  0  0  0  0
    6.5735   -8.0999    0.0000 C   0  0  0  0  0  0  0  0  0  0  0  0
    5.8736   -6.8214    0.0000 C   0  0  0  0  0  0  0  0  0  0  0  0
    4.5086   -4.3280    0.0000 C   0  0  0  0  0  0  0  0  0  0  0  0
    5.2150   -4.7541    0.0000 C   0  0  0  0  0  0  0  0  0  0  0  0
    5.1932   -5.5787    0.0000 C   0  0  0  0  0  0  0  0  0  0  0  0
    5.8997   -6.0047    0.0000 C   0  0  0  0  0  0  0  0  0  0  0  0
    5.1493   -7.2180    0.0000 C   0  0  0  0  0  0  0  0  0  0  0  0
    3.7843   -4.7245    0.0000 C   0  0  0  0  0  0  0  0  0  0  0  0
    4.5346   -3.5113    0.0000 C   0  0  0  0  0  0  0  0  0  0  0  0
    6.5735   -9.7919    0.0000 O   0  0  0  0  0  0  0  0  0  0  0  0
   10.8734   -9.7919    0.0000 O   0  0  0  0  0  0  0  0  0  0  0  0
    8.0083   -8.1178    0.0000 C   0  0  0  0  0  0  0  0  0  0  0  0
   10.1515   -8.5330    0.0000 C   0  0  0  0  0  0  0  0  0  0  0  0
    7.3044   -8.5330    0.0000 C   0  0  0  0  0  0  0  0  0  0  0  0
    7.3044   -9.3677    0.0000 C   0  0  0  0  0  0  0  0  0  0  0  0
    9.4340   -8.1178    0.0000 C   0  0  0  0  0  0  0  0  0  0  0  0
   10.1515   -9.3677    0.0000 C   0  0  0  0  0  0  0  0  0  0  0  0
    8.7212   -8.5330    0.0000 C   0  0  0  0  0  0  0  0  0  0  0  0
    8.0083   -9.7738    0.0000 C   0  0  0  0  0  0  0  0  0  0  0  0
    9.4340   -9.7738    0.0000 O   0  0  0  0  0  0  0  0  0  0  0  0
    8.7212   -9.3677    0.0000 C   0  0  0  0  0  0  0  0  0  0  0  0
 14 17  2  0  0  0  0
 15 13  1  0  0  0  0
 11 16  1  0  0  0  0
 12 18  2  0  0  0  0
  2 15  1  0  0  0  0
 13 19  2  0  0  0  0
 14 18  1  0  0  0  0
 15 16  2  0  0  0  0
 16 20  1  0  0  0  0
 17 19  1  0  0  0  0
 18 21  1  0  0  0  0
 19 22  1  0  0  0  0
 20 22  2  0  0  0  0
 21 22  1  0  0  0  0
  1  2  1  0  0  0  0
  3  1  2  0  0  0  0
  4  5  2  0  0  0  0
  5  6  1  0  0  0  0
  6  7  1  0  0  0  0
  7  3  1  0  0  0  0
  8  3  1  0  0  0  0
  9  4  1  0  0  0  0
 10  4  1  0  0  0  0
M  END
>  <cdx:fragmentId>
15148

$$$$
