281466.cdx
  Mrv1902 05222410262D          

 17 18  0  0  0  0            999 V2000
    8.6250   -8.5860    0.0000 O   0  0  0  0  0  0  0  0  0  0  0  0
    7.8404   -8.3310    0.0000 C   0  0  0  0  0  0  0  0  0  0  0  0
    7.8404   -7.5060    0.0000 C   0  0  0  0  0  0  0  0  0  0  0  0
    8.6250   -7.2511    0.0000 C   0  0  0  0  0  0  0  0  0  0  0  0
    9.1099   -7.9185    0.0000 C   0  0  0  0  0  0  0  0  0  0  0  0
    7.1954   -6.9917    0.0000 C   0  0  0  0  0  0  0  0  0  0  0  0
    6.3911   -7.1752    0.0000 C   0  0  0  0  0  0  0  0  0  0  0  0
    5.7948   -6.6051    0.0000 C   0  0  0  0  0  0  0  0  0  0  0  0
    5.0683   -6.9961    0.0000 C   0  0  0  0  0  0  0  0  0  0  0  0
    5.2156   -7.8078    0.0000 C   0  0  0  0  0  0  0  0  0  0  0  0
    6.0331   -7.9185    0.0000 C   0  0  0  0  0  0  0  0  0  0  0  0
    6.3911   -8.6618    0.0000 C   0  0  0  0  0  0  0  0  0  0  0  0
    7.1954   -8.8454    0.0000 C   0  0  0  0  0  0  0  0  0  0  0  0
    9.9349   -7.9185    0.0000 O   0  0  0  0  0  0  0  0  0  0  0  0
    5.8767   -9.3069    0.0000 C   0  0  0  0  0  0  0  0  0  0  0  0
    5.9055   -5.7876    0.0000 C   0  0  0  0  0  0  0  0  0  0  0  0
    8.8800   -6.4665    0.0000 C   0  0  0  0  0  0  0  0  0  0  0  0
  1  2  1  0  0  0  0
  2  3  1  0  0  0  0
  3  4  2  0  0  0  0
  4  5  1  0  0  0  0
  1  5  1  0  0  0  0
  6  7  1  0  0  0  0
  7  8  2  0  0  0  0
  8  9  1  0  0  0  0
  9 10  1  0  0  0  0
 10 11  1  0  0  0  0
 11 12  2  0  0  0  0
 12 13  1  0  0  0  0
 13  2  1  0  0  0  0
  6  3  1  0  0  0  0
  5 14  2  0  0  0  0
 12 15  1  0  0  0  0
  8 16  1  0  0  0  0
  4 17  1  0  0  0  0
M  END
>  <cdx:groupId>
15355

>  <cdx:fragmentId>
15316

$$$$
