5281417.cdx
  Mrv1902 05222410252D          

 24 26  0  0  0  0            999 V2000
   12.7347   -8.8715    0.0000 C   0  0  0  0  0  0  0  0  0  0  0  0
   12.1576   -9.9158    0.0000 C   0  0  2  0  0  0  0  0  0  0  0  0
   13.2843   -9.5859    0.0000 C   0  0  0  0  0  0  0  0  0  0  0  0
   15.0435   -8.8715    0.0000 C   0  0  1  0  0  0  0  0  0  0  0  0
   14.4663   -9.9158    0.0000 C   0  0  0  0  0  0  0  0  0  0  0  0
   13.8891   -9.2287    0.0000 O   0  0  0  0  0  0  0  0  0  0  0  0
   15.0435   -8.0468    0.0000 O   0  0  0  0  0  0  0  0  0  0  0  0
   14.4663  -10.7404    0.0000 O   0  0  0  0  0  0  0  0  0  0  0  0
   13.2843   -8.7616    0.0000 O   0  0  0  0  0  0  0  0  0  0  0  0
   12.1576  -10.7404    0.0000 O   0  0  0  0  0  0  0  0  0  0  0  0
   12.7347   -8.0468    0.0000 C   0  0  0  0  0  0  0  0  0  0  0  0
   15.7581   -7.6345    0.0000 C   0  0  0  0  0  0  0  0  0  0  0  0
   16.4727   -8.0742    0.0000 C   0  0  0  0  0  0  0  0  0  0  0  0
   17.1874   -7.6345    0.0000 C   0  0  0  0  0  0  0  0  0  0  0  0
   17.1874   -6.8374    0.0000 C   0  0  0  0  0  0  0  0  0  0  0  0
   16.4727   -6.4251    0.0000 C   0  0  0  0  0  0  0  0  0  0  0  0
   15.7581   -6.8374    0.0000 C   0  0  0  0  0  0  0  0  0  0  0  0
   17.9020   -8.0468    0.0000 C   0  0  0  0  0  0  0  0  0  0  0  0
   18.6166   -7.6345    0.0000 C   0  0  0  0  0  0  0  0  0  0  0  0
   18.6166   -6.8374    0.0000 C   0  0  0  0  0  0  0  0  0  0  0  0
   17.9020   -6.4251    0.0000 O   0  0  0  0  0  0  0  0  0  0  0  0
   12.0200   -7.6345    0.0000 O   0  0  0  0  0  0  0  0  0  0  0  0
   15.0435   -6.4251    0.0000 O   0  0  0  0  0  0  0  0  0  0  0  0
   19.3312   -6.4251    0.0000 O   0  0  0  0  0  0  0  0  0  0  0  0
  1  2  1  0  0  0  0
  2  3  1  1  0  0  0
  4  5  1  1  0  0  0
  4  6  1  0  0  0  0
  1  6  1  0  0  0  0
  4  7  1  0  0  0  0
  5  8  1  0  0  0  0
  3  9  1  0  0  0  0
  2 10  1  0  0  0  0
  1 11  1  0  0  0  0
  3  5  1  1  0  0  0
  7 12  1  0  0  0  0
 12 13  2  0  0  0  0
 13 14  1  0  0  0  0
 14 15  2  0  0  0  0
 15 16  1  0  0  0  0
 16 17  2  0  0  0  0
 12 17  1  0  0  0  0
 14 18  1  0  0  0  0
 18 19  2  0  0  0  0
 19 20  1  0  0  0  0
 20 21  1  0  0  0  0
 15 21  1  0  0  0  0
 11 22  1  0  0  0  0
 17 23  1  0  0  0  0
 20 24  2  0  0  0  0
M  END
>  <cdx:fragmentId>
15092

$$$$
