281406.cdx
  Mrv1902 05222410242D          

 26 29  0  0  0  0            999 V2000
    6.4823   -7.6067    0.0000 C   0  0  0  0  0  0  0  0  0  0  0  0
    6.4823   -8.4532    0.0000 C   0  0  0  0  0  0  0  0  0  0  0  0
    5.7702   -8.8518    0.0000 O   0  0  0  0  0  0  0  0  0  0  0  0
    5.0715   -8.4532    0.0000 C   0  0  0  0  0  0  0  0  0  0  0  0
    5.7702   -7.2081    0.0000 C   0  0  0  0  0  0  0  0  0  0  0  0
    5.0715   -7.6246    0.0000 C   0  0  0  0  0  0  0  0  0  0  0  0
   10.0474   -7.1812    0.0000 O   0  0  0  0  0  0  0  0  0  0  0  0
    9.3352   -7.5798    0.0000 C   0  0  0  0  0  0  0  0  0  0  0  0
    4.3549   -8.8518    0.0000 C   0  0  0  0  0  0  0  0  0  0  0  0
   10.7595   -7.5798    0.0000 C   0  0  0  0  0  0  0  0  0  0  0  0
    3.6427   -8.4532    0.0000 C   0  0  0  0  0  0  0  0  0  0  0  0
   10.0474   -8.8294    0.0000 C   0  0  0  0  0  0  0  0  0  0  0  0
    7.1989   -7.1812    0.0000 O   0  0  0  0  0  0  0  0  0  0  0  0
    4.3549   -7.2081    0.0000 C   0  0  0  0  0  0  0  0  0  0  0  0
    8.6053   -7.1812    0.0000 C   0  0  0  0  0  0  0  0  0  0  0  0
    3.6427   -7.6067    0.0000 C   0  0  0  0  0  0  0  0  0  0  0  0
   10.7595   -8.4352    0.0000 C   0  0  0  0  0  0  0  0  0  0  0  0
    9.3352   -8.4174    0.0000 C   0  0  0  0  0  0  0  0  0  0  0  0
    7.9110   -7.5978    0.0000 C   0  0  0  0  0  0  0  0  0  0  0  0
    7.1989   -8.8786    0.0000 O   0  0  0  0  0  0  0  0  0  0  0  0
   11.4761   -7.1319    0.0000 O   0  0  0  0  0  0  0  0  0  0  0  0
    8.6053   -8.8249    0.0000 C   0  0  0  0  0  0  0  0  0  0  0  0
    7.9110   -8.4174    0.0000 C   0  0  0  0  0  0  0  0  0  0  0  0
    2.9306   -8.8786    0.0000 O   0  0  0  0  0  0  0  0  0  0  0  0
    2.9306   -7.1812    0.0000 O   0  0  0  0  0  0  0  0  0  0  0  0
    2.1961   -7.5798    0.0000 C   0  0  0  0  0  0  0  0  0  0  0  0
  2  1  1  0  0  0  0
  3  2  1  0  0  0  0
  4  3  1  0  0  0  0
  5  1  2  0  0  0  0
  6  5  1  0  0  0  0
  7  8  1  0  0  0  0
  8 15  1  0  0  0  0
  9  4  1  0  0  0  0
 10  7  1  0  0  0  0
 11  9  2  0  0  0  0
 12 18  1  0  0  0  0
 13  1  1  0  0  0  0
 14  6  1  0  0  0  0
 15 19  2  0  0  0  0
 16 14  2  0  0  0  0
 17 12  2  0  0  0  0
 18 22  1  0  0  0  0
 19 13  1  0  0  0  0
 20  2  2  0  0  0  0
 21 10  2  0  0  0  0
 22 23  2  0  0  0  0
 23 19  1  0  0  0  0
 24 11  1  0  0  0  0
 25 16  1  0  0  0  0
 26 25  1  0  0  0  0
  4  6  2  0  0  0  0
 11 16  1  0  0  0  0
 18  8  2  0  0  0  0
 17 10  1  0  0  0  0
M  END
>  <cdx:fragmentId>
14986

$$$$
