281535.cdx
  Mrv1902 05222410192D          

 16 15  0  0  0  0            999 V2000
   10.2451   -7.2600    0.0000 C   0  0  0  0  0  0  0  0  0  0  0  0
    7.3872   -7.2600    0.0000 C   0  0  0  0  0  0  0  0  0  0  0  0
    4.5293   -7.2600    0.0000 C   0  0  0  0  0  0  0  0  0  0  0  0
   11.6740   -6.4350    0.0000 O   0  0  0  0  0  0  0  0  0  0  0  0
    3.1004   -6.4350    0.0000 C   0  0  0  0  0  0  0  0  0  0  0  0
    3.8148   -6.0225    0.0000 C   0  0  0  0  0  0  0  0  0  0  0  0
    4.5293   -6.4350    0.0000 C   0  0  0  0  0  0  0  0  0  0  0  0
    5.2438   -6.0225    0.0000 C   0  0  0  0  0  0  0  0  0  0  0  0
    5.9582   -6.4350    0.0000 C   0  0  0  0  0  0  0  0  0  0  0  0
    6.6727   -6.0225    0.0000 C   0  0  0  0  0  0  0  0  0  0  0  0
    7.3872   -6.4350    0.0000 C   0  0  0  0  0  0  0  0  0  0  0  0
    8.1017   -6.0225    0.0000 C   0  0  0  0  0  0  0  0  0  0  0  0
    8.8161   -6.4350    0.0000 C   0  0  0  0  0  0  0  0  0  0  0  0
    9.5306   -6.0225    0.0000 C   0  0  0  0  0  0  0  0  0  0  0  0
   10.2451   -6.4350    0.0000 C   0  0  0  0  0  0  0  0  0  0  0  0
   10.9595   -6.0225    0.0000 C   0  0  0  0  0  0  0  0  0  0  0  0
 15  1  1  0  0  0  0
 11  2  1  0  0  0  0
  7  3  2  0  0  0  0
 16  4  2  0  0  0  0
  6  5  2  0  0  0  0
  7  6  1  0  0  0  0
  8  7  1  0  0  0  0
  9  8  1  0  0  0  0
 10  9  1  0  0  0  0
 11 10  2  0  0  0  0
 12 11  1  0  0  0  0
 13 12  1  0  0  0  0
 14 13  1  0  0  0  0
 15 14  2  0  0  0  0
 16 15  1  0  0  0  0
M  END
>  <cdx:groupId>
49

>  <cdx:fragmentId>
5

$$$$
