281534.cdx
  Mrv1902 05222410192D          

 16 15  0  0  0  0            999 V2000
   10.0557   -7.3884    0.0000 C   0  0  0  0  0  0  0  0  0  0  0  0
    7.1985   -7.3231    0.0000 C   0  0  0  0  0  0  0  0  0  0  0  0
    4.3414   -7.2578    0.0000 C   0  0  0  0  0  0  0  0  0  0  0  0
   11.5031   -6.5963    0.0000 O   0  0  0  0  0  0  0  0  0  0  0  0
    2.9317   -6.4004    0.0000 C   0  0  0  0  0  0  0  0  0  0  0  0
    3.6554   -6.0043    0.0000 C   0  0  0  0  0  0  0  0  0  0  0  0
    4.3603   -6.4330    0.0000 C   0  0  0  0  0  0  0  0  0  0  0  0
    5.0840   -6.0369    0.0000 C   0  0  0  0  0  0  0  0  0  0  0  0
    5.7888   -6.4657    0.0000 C   0  0  0  0  0  0  0  0  0  0  0  0
    6.5125   -6.0696    0.0000 C   0  0  0  0  0  0  0  0  0  0  0  0
    7.2174   -6.4983    0.0000 C   0  0  0  0  0  0  0  0  0  0  0  0
    7.9411   -6.1023    0.0000 C   0  0  0  0  0  0  0  0  0  0  0  0
    8.6460   -6.5310    0.0000 C   0  0  0  0  0  0  0  0  0  0  0  0
    9.3697   -6.1349    0.0000 C   0  0  0  0  0  0  0  0  0  0  0  0
   10.0745   -6.5636    0.0000 C   0  0  0  0  0  0  0  0  0  0  0  0
   10.7983   -6.1676    0.0000 C   0  0  0  0  0  0  0  0  0  0  0  0
 15  1  1  0  0  0  0
 11  2  1  0  0  0  0
  7  3  1  0  0  0  0
 16  4  2  0  0  0  0
  6  5  2  0  0  0  0
  7  6  1  0  0  0  0
  8  7  2  0  0  0  0
  9  8  1  0  0  0  0
 10  9  1  0  0  0  0
 11 10  2  0  0  0  0
 12 11  1  0  0  0  0
 13 12  1  0  0  0  0
 14 13  1  0  0  0  0
 15 14  2  0  0  0  0
 16 15  1  0  0  0  0
M  END
>  <cdx:groupId>
15611

>  <cdx:fragmentId>
15567

$$$$
