281559.cdx
  Mrv1902 05222410232D          

 15 16  0  0  0  0            999 V2000
    8.3504   -8.9497    0.0000 O   0  0  0  0  0  0  0  0  0  0  0  0
    8.0954   -8.1651    0.0000 C   0  0  0  0  0  0  0  0  0  0  0  0
    8.5804   -7.4976    0.0000 O   0  0  0  0  0  0  0  0  0  0  0  0
    8.0954   -6.8302    0.0000 C   0  0  0  0  0  0  0  0  0  0  0  0
    7.3108   -7.0851    0.0000 C   0  0  0  0  0  0  0  0  0  0  0  0
    6.5963   -6.6726    0.0000 C   0  0  0  0  0  0  0  0  0  0  0  0
    5.8819   -7.0851    0.0000 C   0  0  0  0  0  0  0  0  0  0  0  0
    5.8819   -7.9101    0.0000 C   0  0  0  0  0  0  0  0  0  0  0  0
    6.5963   -8.3226    0.0000 C   0  0  0  0  0  0  0  0  0  0  0  0
    7.3108   -7.9101    0.0000 C   0  0  0  0  0  0  0  0  0  0  0  0
    6.5963   -9.1476    0.0000 O   0  0  0  0  0  0  0  0  0  0  0  0
    8.3504   -6.0456    0.0000 C   0  0  0  0  0  0  0  0  0  0  0  0
    9.1573   -5.8740    0.0000 C   0  0  0  0  0  0  0  0  0  0  0  0
    9.4123   -5.0894    0.0000 C   0  0  0  0  0  0  0  0  0  0  0  0
   10.2193   -4.9179    0.0000 C   0  0  0  0  0  0  0  0  0  0  0  0
  1  2  2  0  0  0  0
  2  3  1  0  0  0  0
  3  4  1  0  0  0  0
  4  5  1  0  0  0  0
  5  6  1  0  0  0  0
  6  7  2  0  0  0  0
  7  8  1  0  0  0  0
  8  9  2  0  0  0  0
  9 10  1  0  0  0  0
  2 10  1  0  0  0  0
  5 10  2  0  0  0  0
  9 11  1  0  0  0  0
 12 13  1  0  0  0  0
 13 14  1  0  0  0  0
 14 15  1  0  0  0  0
  4 12  2  0  0  0  0
M  END
>  <cdx:fragmentId>
15732

$$$$
