281524.cdx
  Mrv1902 05222410192D          

 33 34  0  0  0  0            999 V2000
    7.9813   -7.8084    0.0000 H   0  0  0  0  0  0  0  0  0  0  0  0
    8.4508   -8.0514    0.0000 O   0  0  0  0  0  0  0  0  0  0  0  0
    5.2938   -7.0265    0.0000 O   0  0  0  0  0  0  0  0  0  0  0  0
    5.2114   -6.4005    0.0000 C   0  0  0  0  0  0  0  0  0  0  0  0
    7.9441   -5.3602    0.0000 C   0  0  0  0  0  0  0  0  0  0  0  0
    7.6198   -3.2660    0.0000 C   0  0  0  0  0  0  0  0  0  0  0  0
    8.7255   -5.1593    0.0000 O   0  0  0  0  0  0  0  0  0  0  0  0
    9.6612   -4.0388    0.0000 C   0  0  0  0  0  0  0  0  0  0  0  0
    9.0277   -3.5103    0.0000 C   0  0  0  0  0  0  0  0  0  0  0  0
    8.2533   -3.7946    0.0000 C   0  0  0  0  0  0  0  0  0  0  0  0
    8.1122   -4.6074    0.0000 C   0  0  0  0  0  0  0  0  0  0  0  0
    7.3277   -4.8626    0.0000 O   0  0  0  0  0  0  0  0  0  0  0  0
    5.8308   -5.2283    0.0000 O   0  0  0  0  0  0  0  0  0  0  0  0
   10.0121   -7.5178    0.0000 C   0  0  0  0  0  0  0  0  0  0  0  0
    9.2315   -7.7846    0.0000 C   0  0  0  0  0  0  0  0  0  0  0  0
    9.0723   -8.5941    0.0000 C   0  0  0  0  0  0  0  0  0  0  0  0
    7.8091   -6.1741    0.0000 C   0  0  1  0  0  0  0  0  0  0  0  0
    7.1563   -5.6696    0.0000 C   0  0  1  0  0  0  0  0  0  0  0  0
    6.3549   -5.8654    0.0000 C   0  0  0  0  0  0  0  0  0  0  0  0
    6.0083   -6.6140    0.0000 C   0  0  1  0  0  0  0  0  0  0  0  0
    6.3775   -7.3518    0.0000 C   0  0  0  0  0  0  0  0  0  0  0  0
    7.1845   -7.5231    0.0000 C   0  0  1  0  0  0  0  0  0  0  0  0
    7.8217   -6.9990    0.0000 C   0  0  1  0  0  0  0  0  0  0  0  0
    8.6101   -7.2420    0.0000 C   0  0  2  0  0  0  0  0  0  0  0  0
    9.0848   -6.5672    0.0000 C   0  0  0  0  0  0  0  0  0  0  0  0
    8.5898   -5.9072    0.0000 C   0  0  0  0  0  0  0  0  0  0  0  0
    5.8357   -7.8260    0.0000 C   0  0  0  0  0  0  0  0  0  0  0  0
    7.3803   -8.3245    0.0000 O   0  0  0  0  0  0  0  0  0  0  0  0
    6.9499   -9.7030    0.0000 O   0  0  0  0  0  0  0  0  0  0  0  0
    5.5500   -9.9900    0.0000 C   0  0  0  0  0  0  0  0  0  0  0  0
    5.3844   -9.1818    0.0000 C   0  0  0  0  0  0  0  0  0  0  0  0
    6.0014   -8.6342    0.0000 C   0  0  0  0  0  0  0  0  0  0  0  0
    6.7842   -8.8948    0.0000 C   0  0  0  0  0  0  0  0  0  0  0  0
 23  1  1  1  0  0  0
 22 28  1  1  0  0  0
 24  2  1  6  0  0  0
 20  3  1  1  0  0  0
 20  4  1  0  0  0  0
 17  5  1  6  0  0  0
 18 12  1  1  0  0  0
 12 11  1  0  0  0  0
 10  6  1  0  0  0  0
 11  7  2  0  0  0  0
  9  8  1  0  0  0  0
 10  9  2  0  0  0  0
 11 10  1  0  0  0  0
 19 13  2  0  0  0  0
 24 15  1  0  0  0  0
 15 14  1  0  0  0  0
 16 15  1  0  0  0  0
 23 17  1  0  0  0  0
 26 17  1  0  0  0  0
 18 17  1  0  0  0  0
 19 18  1  0  0  0  0
 20 19  1  0  0  0  0
 21 20  1  0  0  0  0
 22 21  1  0  0  0  0
 23 22  1  0  0  0  0
 24 23  1  0  0  0  0
 25 24  1  0  0  0  0
 26 25  1  0  0  0  0
 32 27  1  0  0  0  0
 33 28  1  0  0  0  0
 33 29  2  0  0  0  0
 31 30  1  0  0  0  0
 32 31  2  0  0  0  0
 33 32  1  0  0  0  0
M  END
>  <cdx:fragmentId>
19

$$$$
