281665.cdx
  Mrv1902 05222410262D          

 21 23  0  0  0  0            999 V2000
    6.2480   -6.9735    0.0000 C   0  0  0  0  0  0  0  0  0  0  0  0
    6.2447   -6.1385    0.0000 C   0  0  0  0  0  0  0  0  0  0  0  0
    6.9717   -7.3828    0.0000 C   0  0  0  0  0  0  0  0  0  0  0  0
    5.5355   -7.3885    0.0000 C   0  0  0  0  0  0  0  0  0  0  0  0
    6.9650   -5.7233    0.0000 O   0  0  0  0  0  0  0  0  0  0  0  0
    5.5287   -5.7160    0.0000 C   0  0  0  0  0  0  0  0  0  0  0  0
    7.6790   -6.9677    0.0000 C   0  0  0  0  0  0  0  0  0  0  0  0
    6.9750   -8.2020    0.0000 O   0  0  0  0  0  0  0  0  0  0  0  0
    4.8276   -6.9792    0.0000 C   0  0  0  0  0  0  0  0  0  0  0  0
    5.5388   -8.2208    0.0000 O   0  0  0  0  0  0  0  0  0  0  0  0
    7.6756   -6.1328    0.0000 C   0  0  0  0  0  0  0  0  0  0  0  0
    4.8242   -6.1442    0.0000 C   0  0  0  0  0  0  0  0  0  0  0  0
    5.5255   -4.9099    0.0000 O   0  0  0  0  0  0  0  0  0  0  0  0
    8.3828   -5.7176    0.0000 C   0  0  0  0  0  0  0  0  0  0  0  0
    4.1006   -5.7480    0.0000 O   0  0  0  0  0  0  0  0  0  0  0  0
    8.3795   -4.8985    0.0000 C   0  0  0  0  0  0  0  0  0  0  0  0
    9.1092   -6.1270    0.0000 C   0  0  0  0  0  0  0  0  0  0  0  0
    9.1026   -4.4702    0.0000 C   0  0  0  0  0  0  0  0  0  0  0  0
    9.8296   -5.7118    0.0000 C   0  0  0  0  0  0  0  0  0  0  0  0
    9.8263   -4.8927    0.0000 C   0  0  0  0  0  0  0  0  0  0  0  0
   10.5467   -4.4907    0.0000 O   0  0  0  0  0  0  0  0  0  0  0  0
  1  2  2  0  0  0  0
  1  3  1  0  0  0  0
  1  4  1  0  0  0  0
  2  5  1  0  0  0  0
  2  6  1  0  0  0  0
  3  7  1  0  0  0  0
  3  8  2  0  0  0  0
  4  9  2  0  0  0  0
  4 10  1  0  0  0  0
  5 11  1  0  0  0  0
  6 12  2  0  0  0  0
  6 13  1  0  0  0  0
 11 14  1  0  0  0  0
 12 15  1  0  0  0  0
 14 16  2  0  0  0  0
 14 17  1  0  0  0  0
 16 18  1  0  0  0  0
 17 19  2  0  0  0  0
 18 20  2  0  0  0  0
 20 21  1  0  0  0  0
  7 11  2  0  0  0  0
  9 12  1  0  0  0  0
 19 20  1  0  0  0  0
M  END
>  <cdx:fragmentId>
17633

$$$$
