281649.cdx
  Mrv1902 05222410282D          

 22 24  0  0  0  0            999 V2000
    5.5645   -8.3785    0.0000 O   0  0  0  0  0  0  0  0  0  0  0  0
    4.1428   -5.8993    0.0000 O   0  0  0  0  0  0  0  0  0  0  0  0
    7.7188   -4.6722    0.0000 O   0  0  0  0  0  0  0  0  0  0  0  0
   10.5766   -4.6806    0.0000 O   0  0  0  0  0  0  0  0  0  0  0  0
   10.5718   -6.3306    0.0000 O   0  0  0  0  0  0  0  0  0  0  0  0
    9.1429   -6.3264    0.0000 C   0  0  0  0  0  0  0  0  0  0  0  0
    9.8586   -5.9160    0.0000 C   0  0  0  0  0  0  0  0  0  0  0  0
    9.8610   -5.0910    0.0000 C   0  0  0  0  0  0  0  0  0  0  0  0
    9.1477   -4.6764    0.0000 C   0  0  0  0  0  0  0  0  0  0  0  0
    8.4320   -5.0868    0.0000 C   0  0  0  0  0  0  0  0  0  0  0  0
    8.4296   -5.9118    0.0000 C   0  0  0  0  0  0  0  0  0  0  0  0
    6.9935   -8.3827    0.0000 O   0  0  0  0  0  0  0  0  0  0  0  0
    7.0007   -5.9077    0.0000 O   0  0  0  0  0  0  0  0  0  0  0  0
    6.2850   -6.3181    0.0000 C   0  0  0  0  0  0  0  0  0  0  0  0
    5.5717   -5.9035    0.0000 C   0  0  0  0  0  0  0  0  0  0  0  0
    4.8561   -6.3139    0.0000 C   0  0  0  0  0  0  0  0  0  0  0  0
    4.8537   -7.1389    0.0000 C   0  0  0  0  0  0  0  0  0  0  0  0
    5.5669   -7.5535    0.0000 C   0  0  0  0  0  0  0  0  0  0  0  0
    6.2826   -7.1431    0.0000 C   0  0  0  0  0  0  0  0  0  0  0  0
    6.9959   -7.5577    0.0000 C   0  0  0  0  0  0  0  0  0  0  0  0
    7.7115   -7.1472    0.0000 C   0  0  0  0  0  0  0  0  0  0  0  0
    7.7140   -6.3222    0.0000 C   0  0  0  0  0  0  0  0  0  0  0  0
 18  1  1  0  0  0  0
 16  2  1  0  0  0  0
 22 11  1  0  0  0  0
 10  3  1  0  0  0  0
  8  4  1  0  0  0  0
  7  5  1  0  0  0  0
 11  6  2  0  0  0  0
  7  6  1  0  0  0  0
  8  7  2  0  0  0  0
  9  8  1  0  0  0  0
 10  9  2  0  0  0  0
 11 10  1  0  0  0  0
 20 12  2  0  0  0  0
 22 13  1  0  0  0  0
 14 13  1  0  0  0  0
 19 14  2  0  0  0  0
 15 14  1  0  0  0  0
 16 15  2  0  0  0  0
 17 16  1  0  0  0  0
 18 17  2  0  0  0  0
 19 18  1  0  0  0  0
 20 19  1  0  0  0  0
 21 20  1  0  0  0  0
 22 21  2  0  0  0  0
M  END
>  <cdx:groupId>
17346

>  <cdx:fragmentId>
17281

$$$$
