281605.cdx
  Mrv1902 05222410242D          

 20 22  0  0  0  0            999 V2000
    8.4907   -7.0205    0.0000 C   0  0  0  0  0  0  0  0  0  0  0  0
    8.4907   -7.8455    0.0000 C   0  0  0  0  0  0  0  0  0  0  0  0
    7.7763   -8.2580    0.0000 C   0  0  0  0  0  0  0  0  0  0  0  0
    7.7763   -9.0830    0.0000 O   0  0  0  0  0  0  0  0  0  0  0  0
    7.0618   -7.8455    0.0000 C   0  0  0  0  0  0  0  0  0  0  0  0
    6.3473   -8.2580    0.0000 C   0  0  0  0  0  0  0  0  0  0  0  0
    5.6328   -7.8455    0.0000 C   0  0  0  0  0  0  0  0  0  0  0  0
    5.6328   -7.0205    0.0000 C   0  0  0  0  0  0  0  0  0  0  0  0
    6.3473   -6.6080    0.0000 C   0  0  0  0  0  0  0  0  0  0  0  0
    7.0618   -7.0205    0.0000 C   0  0  0  0  0  0  0  0  0  0  0  0
    7.7763   -6.6080    0.0000 O   0  0  0  0  0  0  0  0  0  0  0  0
    9.2052   -6.6080    0.0000 C   0  0  0  0  0  0  0  0  0  0  0  0
    9.2052   -5.7830    0.0000 C   0  0  0  0  0  0  0  0  0  0  0  0
    9.9197   -5.3705    0.0000 C   0  0  0  0  0  0  0  0  0  0  0  0
   10.6341   -5.7830    0.0000 C   0  0  0  0  0  0  0  0  0  0  0  0
   10.6341   -6.6080    0.0000 C   0  0  0  0  0  0  0  0  0  0  0  0
    9.9197   -7.0205    0.0000 C   0  0  0  0  0  0  0  0  0  0  0  0
    4.9184   -6.6080    0.0000 O   0  0  0  0  0  0  0  0  0  0  0  0
    4.9184   -8.2580    0.0000 O   0  0  0  0  0  0  0  0  0  0  0  0
    6.3473   -9.0830    0.0000 O   0  0  0  0  0  0  0  0  0  0  0  0
  1  2  2  0  0  0  0
  2  3  1  0  0  0  0
  3  4  2  0  0  0  0
  3  5  1  0  0  0  0
  5  6  1  0  0  0  0
  6  7  2  0  0  0  0
  7  8  1  0  0  0  0
  8  9  2  0  0  0  0
  9 10  1  0  0  0  0
  5 10  2  0  0  0  0
 10 11  1  0  0  0  0
  1 11  1  0  0  0  0
  1 12  1  0  0  0  0
 12 13  1  0  0  0  0
 13 14  2  0  0  0  0
 14 15  1  0  0  0  0
 15 16  2  0  0  0  0
 16 17  1  0  0  0  0
 12 17  2  0  0  0  0
  8 18  1  0  0  0  0
  7 19  1  0  0  0  0
  6 20  1  0  0  0  0
M  END
>  <cdx:fragmentId>
16100

$$$$
