281673.cdx
  Mrv1902 05222410272D          

 33 36  0  0  0  0            999 V2000
    5.4095  -10.3716    0.0000 O   0  0  0  0  0  0  0  0  0  0  0  0
    3.9805   -7.8966    0.0000 O   0  0  0  0  0  0  0  0  0  0  0  0
    9.6963  -10.3716    0.0000 O   0  0  0  0  0  0  0  0  0  0  0  0
    9.6963  -12.0216    0.0000 O   0  0  0  0  0  0  0  0  0  0  0  0
    8.2674  -12.8466    0.0000 O   0  0  0  0  0  0  0  0  0  0  0  0
    6.8384  -12.0216    0.0000 C   0  0  0  0  0  0  0  0  0  0  0  0
    7.5529  -11.6091    0.0000 C   0  0  1  0  0  0  0  0  0  0  0  0
    8.2674  -12.0216    0.0000 C   0  0  1  0  0  0  0  0  0  0  0  0
    8.9818  -11.6091    0.0000 C   0  0  2  0  0  0  0  0  0  0  0  0
    8.9818  -10.7841    0.0000 C   0  0  2  0  0  0  0  0  0  0  0  0
    8.2674  -10.3716    0.0000 C   0  0  1  0  0  0  0  0  0  0  0  0
    7.5529  -10.7841    0.0000 O   0  0  0  0  0  0  0  0  0  0  0  0
    8.2674   -9.5466    0.0000 O   0  0  0  0  0  0  0  0  0  0  0  0
   10.4108   -8.3091    0.0000 O   0  0  0  0  0  0  0  0  0  0  0  0
   10.4108   -6.6591    0.0000 O   0  0  0  0  0  0  0  0  0  0  0  0
    8.9818   -5.8341    0.0000 O   0  0  0  0  0  0  0  0  0  0  0  0
    8.2674   -7.0716    0.0000 C   0  0  0  0  0  0  0  0  0  0  0  0
    8.9818   -6.6591    0.0000 C   0  0  0  0  0  0  0  0  0  0  0  0
    9.6963   -7.0716    0.0000 C   0  0  0  0  0  0  0  0  0  0  0  0
    9.6963   -7.8966    0.0000 C   0  0  0  0  0  0  0  0  0  0  0  0
    8.9818   -8.3091    0.0000 C   0  0  0  0  0  0  0  0  0  0  0  0
    8.2674   -7.8966    0.0000 C   0  0  0  0  0  0  0  0  0  0  0  0
    6.8384  -10.3716    0.0000 O   0  0  0  0  0  0  0  0  0  0  0  0
    6.8384   -7.8966    0.0000 O   0  0  0  0  0  0  0  0  0  0  0  0
    6.1239   -8.3091    0.0000 C   0  0  0  0  0  0  0  0  0  0  0  0
    5.4095   -7.8966    0.0000 C   0  0  0  0  0  0  0  0  0  0  0  0
    4.6950   -8.3091    0.0000 C   0  0  0  0  0  0  0  0  0  0  0  0
    4.6950   -9.1341    0.0000 C   0  0  0  0  0  0  0  0  0  0  0  0
    5.4095   -9.5466    0.0000 C   0  0  0  0  0  0  0  0  0  0  0  0
    6.1239   -9.1341    0.0000 C   0  0  0  0  0  0  0  0  0  0  0  0
    6.8384   -9.5466    0.0000 C   0  0  0  0  0  0  0  0  0  0  0  0
    7.5529   -9.1341    0.0000 C   0  0  0  0  0  0  0  0  0  0  0  0
    7.5529   -8.3091    0.0000 C   0  0  0  0  0  0  0  0  0  0  0  0
 29  1  1  0  0  0  0
 27  2  1  0  0  0  0
 32 13  1  0  0  0  0
 11 13  1  1  0  0  0
 10  3  1  6  0  0  0
  9  4  1  6  0  0  0
  8  5  1  1  0  0  0
  7  6  1  6  0  0  0
 12  7  1  0  0  0  0
  8  7  1  0  0  0  0
  9  8  1  0  0  0  0
 10  9  1  0  0  0  0
 11 10  1  0  0  0  0
 12 11  1  0  0  0  0
 33 22  1  0  0  0  0
 20 14  1  0  0  0  0
 19 15  1  0  0  0  0
 18 16  1  0  0  0  0
 22 17  2  0  0  0  0
 18 17  1  0  0  0  0
 19 18  2  0  0  0  0
 20 19  1  0  0  0  0
 21 20  2  0  0  0  0
 22 21  1  0  0  0  0
 31 23  2  0  0  0  0
 33 24  1  0  0  0  0
 25 24  1  0  0  0  0
 30 25  2  0  0  0  0
 26 25  1  0  0  0  0
 27 26  2  0  0  0  0
 28 27  1  0  0  0  0
 29 28  2  0  0  0  0
 30 29  1  0  0  0  0
 31 30  1  0  0  0  0
 32 31  1  0  0  0  0
 33 32  2  0  0  0  0
M  END
>  <cdx:fragmentId>
5

$$$$
