281631.cdx
  Mrv1902 05222410222D          

 17 19  0  0  0  0            999 V2000
    7.8585   -5.5341    0.0000 C   0  0  0  0  0  0  0  0  0  0  0  0
    8.5730   -5.9466    0.0000 C   0  0  0  0  0  0  0  0  0  0  0  0
    9.2874   -5.5341    0.0000 C   0  0  0  0  0  0  0  0  0  0  0  0
   10.0019   -5.9466    0.0000 C   0  0  0  0  0  0  0  0  0  0  0  0
   10.0019   -6.7716    0.0000 C   0  0  0  0  0  0  0  0  0  0  0  0
    9.2874   -7.1841    0.0000 C   0  0  0  0  0  0  0  0  0  0  0  0
    8.5730   -6.7716    0.0000 C   0  0  0  0  0  0  0  0  0  0  0  0
    7.8585   -7.1841    0.0000 O   0  0  0  0  0  0  0  0  0  0  0  0
    7.1440   -6.7716    0.0000 C   0  0  0  0  0  0  0  0  0  0  0  0
    6.4295   -7.1841    0.0000 C   0  0  0  0  0  0  0  0  0  0  0  0
    5.7151   -6.7716    0.0000 C   0  0  0  0  0  0  0  0  0  0  0  0
    5.7151   -5.9466    0.0000 C   0  0  0  0  0  0  0  0  0  0  0  0
    6.4295   -5.5341    0.0000 C   0  0  0  0  0  0  0  0  0  0  0  0
    7.1440   -5.9466    0.0000 C   0  0  0  0  0  0  0  0  0  0  0  0
    7.8585   -4.7091    0.0000 O   0  0  0  0  0  0  0  0  0  0  0  0
    5.0006   -5.5341    0.0000 O   0  0  0  0  0  0  0  0  0  0  0  0
    9.2874   -4.7091    0.0000 O   0  0  0  0  0  0  0  0  0  0  0  0
  1  2  1  0  0  0  0
  2  3  1  0  0  0  0
  3  4  2  0  0  0  0
  4  5  1  0  0  0  0
  5  6  2  0  0  0  0
  6  7  1  0  0  0  0
  2  7  2  0  0  0  0
  7  8  1  0  0  0  0
  8  9  1  0  0  0  0
  9 10  1  0  0  0  0
 10 11  2  0  0  0  0
 11 12  1  0  0  0  0
 12 13  2  0  0  0  0
 13 14  1  0  0  0  0
  9 14  2  0  0  0  0
  1 14  1  0  0  0  0
  1 15  2  0  0  0  0
 12 16  1  0  0  0  0
  3 17  1  0  0  0  0
M  END
>  <cdx:fragmentId>
16889

$$$$
