281697.cdx
  Mrv1902 05222410202D          

 21 23  0  0  0  0            999 V2000
    5.7395   -9.9772    0.0000 O   0  0  0  0  0  0  0  0  0  0  0  0
    4.3105   -9.1522    0.0000 O   0  0  0  0  0  0  0  0  0  0  0  0
    4.3105   -7.5022    0.0000 O   0  0  0  0  0  0  0  0  0  0  0  0
   10.7408   -6.2647    0.0000 O   0  0  0  0  0  0  0  0  0  0  0  0
    8.5974   -6.6772    0.0000 C   0  0  0  0  0  0  0  0  0  0  0  0
    9.3118   -6.2647    0.0000 C   0  0  0  0  0  0  0  0  0  0  0  0
   10.0263   -6.6772    0.0000 C   0  0  0  0  0  0  0  0  0  0  0  0
   10.0263   -7.5022    0.0000 C   0  0  0  0  0  0  0  0  0  0  0  0
    9.3118   -7.9147    0.0000 C   0  0  0  0  0  0  0  0  0  0  0  0
    8.5974   -7.5022    0.0000 C   0  0  0  0  0  0  0  0  0  0  0  0
    7.1684   -9.9772    0.0000 O   0  0  0  0  0  0  0  0  0  0  0  0
    7.1684   -7.5022    0.0000 O   0  0  0  0  0  0  0  0  0  0  0  0
    6.4539   -7.9147    0.0000 C   0  0  0  0  0  0  0  0  0  0  0  0
    5.7395   -7.5022    0.0000 C   0  0  0  0  0  0  0  0  0  0  0  0
    5.0250   -7.9147    0.0000 C   0  0  0  0  0  0  0  0  0  0  0  0
    5.0250   -8.7397    0.0000 C   0  0  0  0  0  0  0  0  0  0  0  0
    5.7395   -9.1522    0.0000 C   0  0  0  0  0  0  0  0  0  0  0  0
    6.4539   -8.7397    0.0000 C   0  0  0  0  0  0  0  0  0  0  0  0
    7.1684   -9.1522    0.0000 C   0  0  0  0  0  0  0  0  0  0  0  0
    7.8829   -8.7397    0.0000 C   0  0  0  0  0  0  0  0  0  0  0  0
    7.8829   -7.9147    0.0000 C   0  0  0  0  0  0  0  0  0  0  0  0
 17  1  1  0  0  0  0
 16  2  1  0  0  0  0
 15  3  1  0  0  0  0
 21 10  1  0  0  0  0
  7  4  1  0  0  0  0
 10  5  2  0  0  0  0
  6  5  1  0  0  0  0
  7  6  2  0  0  0  0
  8  7  1  0  0  0  0
  9  8  2  0  0  0  0
 10  9  1  0  0  0  0
 19 11  2  0  0  0  0
 21 12  1  0  0  0  0
 13 12  1  0  0  0  0
 18 13  2  0  0  0  0
 14 13  1  0  0  0  0
 15 14  2  0  0  0  0
 16 15  1  0  0  0  0
 17 16  2  0  0  0  0
 18 17  1  0  0  0  0
 19 18  1  0  0  0  0
 20 19  1  0  0  0  0
 21 20  2  0  0  0  0
M  END
>  <cdx:fragmentId>
5

$$$$
