5281626.cdx
  Mrv1902 05222410212D          

 19 21  0  0  0  0            999 V2000
   14.8015   -7.6241    0.0000 C   0  0  0  0  0  0  0  0  0  0  0  0
   15.5160   -8.0366    0.0000 C   0  0  0  0  0  0  0  0  0  0  0  0
   16.2305   -7.6241    0.0000 C   0  0  0  0  0  0  0  0  0  0  0  0
   16.9449   -8.0366    0.0000 C   0  0  0  0  0  0  0  0  0  0  0  0
   16.9449   -8.8616    0.0000 C   0  0  0  0  0  0  0  0  0  0  0  0
   16.2305   -9.2741    0.0000 C   0  0  0  0  0  0  0  0  0  0  0  0
   15.5160   -8.8616    0.0000 C   0  0  0  0  0  0  0  0  0  0  0  0
   14.8015   -9.2741    0.0000 O   0  0  0  0  0  0  0  0  0  0  0  0
   14.0871   -8.8616    0.0000 C   0  0  0  0  0  0  0  0  0  0  0  0
   13.3726   -9.2741    0.0000 C   0  0  0  0  0  0  0  0  0  0  0  0
   12.6581   -8.8616    0.0000 C   0  0  0  0  0  0  0  0  0  0  0  0
   12.6581   -8.0366    0.0000 C   0  0  0  0  0  0  0  0  0  0  0  0
   13.3726   -7.6241    0.0000 C   0  0  0  0  0  0  0  0  0  0  0  0
   14.0871   -8.0366    0.0000 C   0  0  0  0  0  0  0  0  0  0  0  0
   14.8015   -6.7991    0.0000 O   0  0  0  0  0  0  0  0  0  0  0  0
   13.3726   -6.7991    0.0000 O   0  0  0  0  0  0  0  0  0  0  0  0
   13.3726  -10.0991    0.0000 O   0  0  0  0  0  0  0  0  0  0  0  0
   17.6594   -9.2741    0.0000 O   0  0  0  0  0  0  0  0  0  0  0  0
   16.2305   -6.7991    0.0000 O   0  0  0  0  0  0  0  0  0  0  0  0
  1  2  1  0  0  0  0
  2  3  1  0  0  0  0
  3  4  2  0  0  0  0
  4  5  1  0  0  0  0
  5  6  2  0  0  0  0
  6  7  1  0  0  0  0
  2  7  2  0  0  0  0
  7  8  1  0  0  0  0
  8  9  1  0  0  0  0
  9 10  1  0  0  0  0
 10 11  2  0  0  0  0
 11 12  1  0  0  0  0
 12 13  2  0  0  0  0
 13 14  1  0  0  0  0
  9 14  2  0  0  0  0
  1 14  1  0  0  0  0
  1 15  2  0  0  0  0
 13 16  1  0  0  0  0
 10 17  1  0  0  0  0
  5 18  1  0  0  0  0
  3 19  1  0  0  0  0
M  END
>  <cdx:groupId>
16734

>  <cdx:fragmentId>
16678

$$$$
