281645.cdx
  Mrv1902 05222410182D          

 30 33  0  0  0  0            999 V2000
    7.4250   -4.5782    0.0000 C   0  0  0  0  0  0  0  0  0  0  0  0
    8.1395   -4.9907    0.0000 C   0  0  0  0  0  0  0  0  0  0  0  0
    8.8539   -4.5782    0.0000 C   0  0  0  0  0  0  0  0  0  0  0  0
    9.5684   -4.9907    0.0000 C   0  0  0  0  0  0  0  0  0  0  0  0
    9.5684   -5.8157    0.0000 C   0  0  0  0  0  0  0  0  0  0  0  0
    8.8539   -6.2282    0.0000 C   0  0  0  0  0  0  0  0  0  0  0  0
    8.1395   -5.8157    0.0000 C   0  0  0  0  0  0  0  0  0  0  0  0
    7.4250   -6.2282    0.0000 O   0  0  0  0  0  0  0  0  0  0  0  0
    6.7105   -5.8157    0.0000 C   0  0  0  0  0  0  0  0  0  0  0  0
    5.9961   -6.2282    0.0000 C   0  0  0  0  0  0  0  0  0  0  0  0
    5.2816   -5.8157    0.0000 C   0  0  0  0  0  0  0  0  0  0  0  0
    5.2816   -4.9907    0.0000 C   0  0  0  0  0  0  0  0  0  0  0  0
    5.9961   -4.5782    0.0000 C   0  0  0  0  0  0  0  0  0  0  0  0
    6.7105   -4.9907    0.0000 C   0  0  0  0  0  0  0  0  0  0  0  0
    7.4250   -3.7532    0.0000 O   0  0  0  0  0  0  0  0  0  0  0  0
    8.1395   -7.4657    0.0000 O   0  0  0  0  0  0  0  0  0  0  0  0
    8.8539   -7.0532    0.0000 C   0  0  2  0  0  0  0  0  0  0  0  0
    9.5684   -7.4657    0.0000 C   0  0  1  0  0  0  0  0  0  0  0  0
    9.5684   -8.2907    0.0000 C   0  0  2  0  0  0  0  0  0  0  0  0
    8.8539   -8.7032    0.0000 C   0  0  1  0  0  0  0  0  0  0  0  0
    8.1395   -8.2907    0.0000 C   0  0  1  0  0  0  0  0  0  0  0  0
    7.4250   -8.7032    0.0000 C   0  0  0  0  0  0  0  0  0  0  0  0
    7.4250   -9.5282    0.0000 O   0  0  0  0  0  0  0  0  0  0  0  0
    8.8539   -9.5282    0.0000 O   0  0  0  0  0  0  0  0  0  0  0  0
   10.2829   -8.7032    0.0000 O   0  0  0  0  0  0  0  0  0  0  0  0
   10.2829   -7.0532    0.0000 O   0  0  0  0  0  0  0  0  0  0  0  0
    4.5671   -4.5782    0.0000 O   0  0  0  0  0  0  0  0  0  0  0  0
   10.2829   -6.2282    0.0000 O   0  0  0  0  0  0  0  0  0  0  0  0
    8.8539   -3.7532    0.0000 O   0  0  0  0  0  0  0  0  0  0  0  0
    8.1395   -6.6407    0.0000 H   0  0  0  0  0  0  0  0  0  0  0  0
  1  2  1  0  0  0  0
  2  3  1  0  0  0  0
  3  4  2  0  0  0  0
  4  5  1  0  0  0  0
  5  6  2  0  0  0  0
  6  7  1  0  0  0  0
  2  7  2  0  0  0  0
  7  8  1  0  0  0  0
  8  9  1  0  0  0  0
  9 10  1  0  0  0  0
 10 11  2  0  0  0  0
 11 12  1  0  0  0  0
 12 13  2  0  0  0  0
 13 14  1  0  0  0  0
  9 14  2  0  0  0  0
  1 14  1  0  0  0  0
  1 15  2  0  0  0  0
 16 17  1  0  0  0  0
 17 18  1  0  0  0  0
 18 19  1  0  0  0  0
 19 20  1  0  0  0  0
 20 21  1  0  0  0  0
 16 21  1  0  0  0  0
 22 23  1  0  0  0  0
 21 22  1  1  0  0  0
 20 24  1  6  0  0  0
 19 25  1  1  0  0  0
 18 26  1  6  0  0  0
 17  6  1  0  0  0  0
 12 27  1  0  0  0  0
  5 28  1  0  0  0  0
  3 29  1  0  0  0  0
 17 30  1  6  0  0  0
M  END
>  <cdx:fragmentId>
5

$$$$
