5281621.cdx
  Mrv1902 05222410222D          

 34 37  0  0  0  0            999 V2000
   16.8966   -9.4073    0.0000 C   0  0  0  0  0  0  0  0  0  0  0  0
   16.8966  -10.2319    0.0000 C   0  0  0  0  0  0  0  0  0  0  0  0
   16.1820  -10.6441    0.0000 C   0  0  0  0  0  0  0  0  0  0  0  0
   16.1820  -11.4687    0.0000 O   0  0  0  0  0  0  0  0  0  0  0  0
   15.4701  -10.2319    0.0000 C   0  0  0  0  0  0  0  0  0  0  0  0
   14.7555  -10.6441    0.0000 C   0  0  0  0  0  0  0  0  0  0  0  0
   14.0409  -10.2319    0.0000 C   0  0  0  0  0  0  0  0  0  0  0  0
   14.0409   -9.4073    0.0000 C   0  0  0  0  0  0  0  0  0  0  0  0
   14.7555   -8.9950    0.0000 C   0  0  0  0  0  0  0  0  0  0  0  0
   15.4701   -9.4073    0.0000 C   0  0  0  0  0  0  0  0  0  0  0  0
   16.1820   -8.9950    0.0000 O   0  0  0  0  0  0  0  0  0  0  0  0
   17.6112   -8.9950    0.0000 C   0  0  0  0  0  0  0  0  0  0  0  0
   18.3258   -9.4073    0.0000 C   0  0  0  0  0  0  0  0  0  0  0  0
   19.0404   -8.9950    0.0000 C   0  0  0  0  0  0  0  0  0  0  0  0
   19.0404   -8.1705    0.0000 C   0  0  0  0  0  0  0  0  0  0  0  0
   18.3258   -7.7582    0.0000 C   0  0  0  0  0  0  0  0  0  0  0  0
   17.6112   -8.1705    0.0000 C   0  0  0  0  0  0  0  0  0  0  0  0
   13.3263   -8.9950    0.0000 O   0  0  0  0  0  0  0  0  0  0  0  0
   14.7555  -11.4687    0.0000 O   0  0  0  0  0  0  0  0  0  0  0  0
   19.7523   -7.7582    0.0000 O   0  0  0  0  0  0  0  0  0  0  0  0
   19.7523   -9.4073    0.0000 O   0  0  0  0  0  0  0  0  0  0  0  0
   17.6112  -10.6441    0.0000 O   0  0  0  0  0  0  0  0  0  0  0  0
   14.7555   -8.1705    0.0000 O   0  0  0  0  0  0  0  0  0  0  0  0
   14.0409   -7.7582    0.0000 C   0  0  0  0  0  0  0  0  0  0  0  0
   14.0409   -6.9337    0.0000 C   0  0  2  0  0  0  0  0  0  0  0  0
   14.7555   -6.5214    0.0000 O   0  0  0  0  0  0  0  0  0  0  0  0
   13.3263   -6.5214    0.0000 C   0  0  1  0  0  0  0  0  0  0  0  0
   13.3263   -5.6969    0.0000 O   0  0  0  0  0  0  0  0  0  0  0  0
   12.6117   -6.9337    0.0000 C   0  0  2  0  0  0  0  0  0  0  0  0
   11.8999   -6.5214    0.0000 O   0  0  0  0  0  0  0  0  0  0  0  0
   12.6117   -7.7582    0.0000 C   0  0  2  0  0  0  0  0  0  0  0  0
   13.3263   -8.1705    0.0000 O   0  0  0  0  0  0  0  0  0  0  0  0
   11.8999   -8.1705    0.0000 C   0  0  0  0  0  0  0  0  0  0  0  0
   11.1853   -7.7582    0.0000 O   0  0  0  0  0  0  0  0  0  0  0  0
 33 34  1  0  0  0  0
 31 33  1  6  0  0  0
 31 32  1  0  0  0  0
 29 31  1  0  0  0  0
 29 30  1  1  0  0  0
 27 29  1  0  0  0  0
 27 28  1  6  0  0  0
 25 27  1  0  0  0  0
 25 26  1  1  0  0  0
 24 32  1  0  0  0  0
 24 25  1  0  0  0  0
 23 24  1  0  0  0  0
 16 17  1  0  0  0  0
 15 20  1  0  0  0  0
 15 16  2  0  0  0  0
 14 15  1  0  0  0  0
 14 21  1  0  0  0  0
 13 14  2  0  0  0  0
 12 17  2  0  0  0  0
 12 13  1  0  0  0  0
 10 11  1  0  0  0  0
  9 23  1  0  0  0  0
  9 10  1  0  0  0  0
  8 18  1  0  0  0  0
  8  9  2  0  0  0  0
  7  8  1  0  0  0  0
  6 19  1  0  0  0  0
  6  7  2  0  0  0  0
  5 10  2  0  0  0  0
  5  6  1  0  0  0  0
  3  5  1  0  0  0  0
  3  4  2  0  0  0  0
  2 22  1  0  0  0  0
  2  3  1  0  0  0  0
  1 12  1  0  0  0  0
  1 11  1  0  0  0  0
  1  2  2  0  0  0  0
M  END
>  <cdx:fragmentId>
16548

$$$$
