281672.cdx
  Mrv1902 05222410262D          

 32 35  0  0  0  0            999 V2000
    5.3827   -5.9057    0.0000 C   0  0  0  0  0  0  0  0  0  0  0  0
    5.3827   -6.7307    0.0000 C   0  0  0  0  0  0  0  0  0  0  0  0
    6.0971   -7.1432    0.0000 C   0  0  0  0  0  0  0  0  0  0  0  0
    6.8116   -6.7307    0.0000 C   0  0  0  0  0  0  0  0  0  0  0  0
    6.8116   -5.9057    0.0000 C   0  0  0  0  0  0  0  0  0  0  0  0
    6.0971   -5.4932    0.0000 C   0  0  0  0  0  0  0  0  0  0  0  0
    7.5260   -7.1432    0.0000 C   0  0  0  0  0  0  0  0  0  0  0  0
    8.2405   -6.7307    0.0000 C   0  0  0  0  0  0  0  0  0  0  0  0
    8.2405   -5.9057    0.0000 C   0  0  0  0  0  0  0  0  0  0  0  0
    7.5260   -5.4932    0.0000 O   0  0  0  0  0  0  0  0  0  0  0  0
    6.0971   -4.6682    0.0000 C   0  0  0  0  0  0  0  0  0  0  0  0
    5.3827   -4.2557    0.0000 C   0  0  0  0  0  0  0  0  0  0  0  0
    4.6682   -4.6682    0.0000 C   0  0  0  0  0  0  0  0  0  0  0  0
    4.6682   -5.4932    0.0000 O   0  0  0  0  0  0  0  0  0  0  0  0
    8.9550   -5.4932    0.0000 C   0  0  0  0  0  0  0  0  0  0  0  0
   10.3840   -8.7932    0.0000 O   0  0  0  0  0  0  0  0  0  0  0  0
    7.5260   -7.9682    0.0000 O   0  0  0  0  0  0  0  0  0  0  0  0
    6.0971   -7.9682    0.0000 O   0  0  0  0  0  0  0  0  0  0  0  0
    3.8713   -4.4547    0.0000 C   0  0  0  0  0  0  0  0  0  0  0  0
    4.4546   -3.8713    0.0000 C   0  0  0  0  0  0  0  0  0  0  0  0
    9.6695   -5.9057    0.0000 C   0  0  0  0  0  0  0  0  0  0  0  0
   10.3840   -5.4932    0.0000 C   0  0  0  0  0  0  0  0  0  0  0  0
   10.3840   -4.6682    0.0000 C   0  0  0  0  0  0  0  0  0  0  0  0
    9.6695   -4.2557    0.0000 C   0  0  0  0  0  0  0  0  0  0  0  0
    8.9550   -4.6682    0.0000 C   0  0  0  0  0  0  0  0  0  0  0  0
    8.2405   -4.2557    0.0000 O   0  0  0  0  0  0  0  0  0  0  0  0
   11.0984   -4.2557    0.0000 O   0  0  0  0  0  0  0  0  0  0  0  0
   10.0821   -7.6662    0.0000 C   0  0  0  0  0  0  0  0  0  0  0  0
    9.2571   -9.0952    0.0000 C   0  0  0  0  0  0  0  0  0  0  0  0
    9.6696   -8.3807    0.0000 C   0  0  0  0  0  0  0  0  0  0  0  0
    8.9551   -7.9682    0.0000 C   0  0  0  0  0  0  0  0  0  0  0  0
    8.9550   -7.1432    0.0000 C   0  0  0  0  0  0  0  0  0  0  0  0
 30 16  1  0  0  0  0
 30 28  1  0  0  0  0
 30 29  1  0  0  0  0
 31 30  1  0  0  0  0
  1  2  1  0  0  0  0
  2  3  2  0  0  0  0
  3  4  1  0  0  0  0
  4  5  2  0  0  0  0
  5  6  1  0  0  0  0
  6  1  2  0  0  0  0
  4  7  1  0  0  0  0
  7  8  1  0  0  0  0
  8  9  2  0  0  0  0
  9 10  1  0  0  0  0
 10  5  1  0  0  0  0
  6 11  1  0  0  0  0
 11 12  2  0  0  0  0
 12 13  1  0  0  0  0
 13 14  1  0  0  0  0
 14  1  1  0  0  0  0
  9 15  1  0  0  0  0
  8 32  1  0  0  0  0
 32 31  1  0  0  0  0
  7 17  2  0  0  0  0
  3 18  1  0  0  0  0
 13 19  1  0  0  0  0
 13 20  1  0  0  0  0
 15 21  1  0  0  0  0
 21 22  2  0  0  0  0
 22 23  1  0  0  0  0
 23 24  2  0  0  0  0
 24 25  1  0  0  0  0
 25 15  2  0  0  0  0
 25 26  1  0  0  0  0
 23 27  1  0  0  0  0
M  END
>  <cdx:fragmentId>
17754

$$$$
