281627.cdx
  Mrv1902 05222410202D          

 40 45  0  0  0  0            999 V2000
   10.1733   -9.6681    0.0000 C   0  0  0  0  0  0  0  0  0  0  0  0
   10.1733   -8.8436    0.0000 C   0  0  0  0  0  0  0  0  0  0  0  0
    9.4588  -10.1079    0.0000 C   0  0  0  0  0  0  0  0  0  0  0  0
    8.7441   -9.6681    0.0000 C   0  0  0  0  0  0  0  0  0  0  0  0
    8.7441   -8.8436    0.0000 C   0  0  0  0  0  0  0  0  0  0  0  0
    9.4588   -8.4313    0.0000 O   0  0  0  0  0  0  0  0  0  0  0  0
    8.0296   -8.4313    0.0000 C   0  0  0  0  0  0  0  0  0  0  0  0
    8.0296  -10.1079    0.0000 C   0  0  0  0  0  0  0  0  0  0  0  0
    7.3423   -9.6681    0.0000 C   0  0  0  0  0  0  0  0  0  0  0  0
    7.3423   -8.8436    0.0000 C   0  0  0  0  0  0  0  0  0  0  0  0
    9.4588  -10.9049    0.0000 O   0  0  0  0  0  0  0  0  0  0  0  0
   10.8879   -7.6068    0.0000 C   0  0  0  0  0  0  0  0  0  0  0  0
   10.8879   -8.4313    0.0000 C   0  0  0  0  0  0  0  0  0  0  0  0
   11.6025   -7.1945    0.0000 C   0  0  0  0  0  0  0  0  0  0  0  0
   12.3171   -7.6068    0.0000 C   0  0  0  0  0  0  0  0  0  0  0  0
   12.3171   -8.4313    0.0000 C   0  0  0  0  0  0  0  0  0  0  0  0
   11.6025   -8.8436    0.0000 C   0  0  0  0  0  0  0  0  0  0  0  0
   13.0317   -7.1945    0.0000 O   0  0  0  0  0  0  0  0  0  0  0  0
    6.6277   -8.4313    0.0000 O   0  0  0  0  0  0  0  0  0  0  0  0
    8.0296  -10.9049    0.0000 O   0  0  0  0  0  0  0  0  0  0  0  0
    5.1984  -10.1079    0.0000 C   0  0  0  0  0  0  0  0  0  0  0  0
    5.9130   -9.6681    0.0000 C   0  0  0  0  0  0  0  0  0  0  0  0
    4.4838   -9.6681    0.0000 C   0  0  0  0  0  0  0  0  0  0  0  0
    4.4838   -8.8436    0.0000 C   0  0  0  0  0  0  0  0  0  0  0  0
    5.1984   -8.4313    0.0000 C   0  0  0  0  0  0  0  0  0  0  0  0
    5.9130   -8.8436    0.0000 C   0  0  0  0  0  0  0  0  0  0  0  0
    6.6277  -10.1079    0.0000 O   0  0  0  0  0  0  0  0  0  0  0  0
    3.0545   -8.8436    0.0000 C   0  0  0  0  0  0  0  0  0  0  0  0
    3.7691   -8.4313    0.0000 C   0  0  0  0  0  0  0  0  0  0  0  0
    2.3400   -8.4313    0.0000 C   0  0  0  0  0  0  0  0  0  0  0  0
    2.3400   -7.6068    0.0000 C   0  0  0  0  0  0  0  0  0  0  0  0
    3.0545   -7.1945    0.0000 C   0  0  0  0  0  0  0  0  0  0  0  0
    3.7691   -7.6068    0.0000 O   0  0  0  0  0  0  0  0  0  0  0  0
    1.6253   -7.1945    0.0000 C   0  0  0  0  0  0  0  0  0  0  0  0
    3.0545   -6.3975    0.0000 C   0  0  0  0  0  0  0  0  0  0  0  0
    2.3400   -5.9852    0.0000 C   0  0  0  0  0  0  0  0  0  0  0  0
    1.6253   -6.3975    0.0000 C   0  0  0  0  0  0  0  0  0  0  0  0
    1.6253   -8.8436    0.0000 O   0  0  0  0  0  0  0  0  0  0  0  0
    2.3400   -5.1606    0.0000 O   0  0  0  0  0  0  0  0  0  0  0  0
    0.9108   -7.6068    0.0000 O   0  0  0  0  0  0  0  0  0  0  0  0
  1  2  2  0  0  0  0
  1  3  1  0  0  0  0
  3  4  1  0  0  0  0
  4  5  1  0  0  0  0
  5  6  1  0  0  0  0
  2  6  1  0  0  0  0
  5  7  2  0  0  0  0
  4  8  2  0  0  0  0
  8  9  1  0  0  0  0
  9 10  2  0  0  0  0
  7 10  1  0  0  0  0
  3 11  2  0  0  0  0
 12 13  1  0  0  0  0
 12 14  2  0  0  0  0
 14 15  1  0  0  0  0
 15 16  2  0  0  0  0
 16 17  1  0  0  0  0
 13 17  2  0  0  0  0
 15 18  1  0  0  0  0
  2 13  1  0  0  0  0
 10 19  1  0  0  0  0
  8 20  1  0  0  0  0
 21 22  1  0  0  0  0
 21 23  2  0  0  0  0
 23 24  1  0  0  0  0
 24 25  2  0  0  0  0
 25 26  1  0  0  0  0
 22 26  2  0  0  0  0
 22 27  1  0  0  0  0
 28 29  2  0  0  0  0
 28 30  1  0  0  0  0
 30 31  1  0  0  0  0
 31 32  1  0  0  0  0
 32 33  1  0  0  0  0
 29 33  1  0  0  0  0
 31 34  2  0  0  0  0
 32 35  2  0  0  0  0
 35 36  1  0  0  0  0
 36 37  2  0  0  0  0
 34 37  1  0  0  0  0
 30 38  2  0  0  0  0
 36 39  1  0  0  0  0
 34 40  1  0  0  0  0
 24 29  1  0  0  0  0
  9 27  1  0  0  0  0
M  END
>  <cdx:fragmentId>
16738

$$$$
