281671.cdx
  Mrv1902 05222410262D          

 31 34  0  0  0  0            999 V2000
    5.2952   -6.0737    0.0000 C   0  0  0  0  0  0  0  0  0  0  0  0
    5.2952   -6.8987    0.0000 C   0  0  0  0  0  0  0  0  0  0  0  0
    6.0097   -7.3112    0.0000 C   0  0  0  0  0  0  0  0  0  0  0  0
    6.7241   -6.8987    0.0000 C   0  0  0  0  0  0  0  0  0  0  0  0
    6.7241   -6.0737    0.0000 C   0  0  0  0  0  0  0  0  0  0  0  0
    6.0097   -5.6612    0.0000 C   0  0  0  0  0  0  0  0  0  0  0  0
    7.4386   -7.3112    0.0000 C   0  0  0  0  0  0  0  0  0  0  0  0
    8.1531   -6.8987    0.0000 C   0  0  0  0  0  0  0  0  0  0  0  0
    8.1531   -6.0737    0.0000 C   0  0  0  0  0  0  0  0  0  0  0  0
    7.4386   -5.6612    0.0000 O   0  0  0  0  0  0  0  0  0  0  0  0
    6.0097   -4.8362    0.0000 C   0  0  0  0  0  0  0  0  0  0  0  0
    5.2952   -4.4237    0.0000 C   0  0  0  0  0  0  0  0  0  0  0  0
    4.5807   -4.8362    0.0000 C   0  0  0  0  0  0  0  0  0  0  0  0
    4.5807   -5.6612    0.0000 O   0  0  0  0  0  0  0  0  0  0  0  0
    8.8676   -5.6612    0.0000 C   0  0  0  0  0  0  0  0  0  0  0  0
   10.2965   -8.1361    0.0000 C   0  0  0  0  0  0  0  0  0  0  0  0
    7.4386   -8.1362    0.0000 O   0  0  0  0  0  0  0  0  0  0  0  0
    6.0097   -8.1362    0.0000 O   0  0  0  0  0  0  0  0  0  0  0  0
    3.7838   -4.6227    0.0000 C   0  0  0  0  0  0  0  0  0  0  0  0
    4.3672   -4.0393    0.0000 C   0  0  0  0  0  0  0  0  0  0  0  0
    9.5820   -6.0737    0.0000 C   0  0  0  0  0  0  0  0  0  0  0  0
   10.2965   -5.6612    0.0000 C   0  0  0  0  0  0  0  0  0  0  0  0
   10.2965   -4.8362    0.0000 C   0  0  0  0  0  0  0  0  0  0  0  0
    9.5820   -4.4237    0.0000 C   0  0  0  0  0  0  0  0  0  0  0  0
    8.8676   -4.8362    0.0000 C   0  0  0  0  0  0  0  0  0  0  0  0
    8.1531   -4.4237    0.0000 O   0  0  0  0  0  0  0  0  0  0  0  0
   11.0109   -4.4237    0.0000 O   0  0  0  0  0  0  0  0  0  0  0  0
    9.5821   -9.3736    0.0000 C   0  0  0  0  0  0  0  0  0  0  0  0
    9.5821   -8.5487    0.0000 C   0  0  0  0  0  0  0  0  0  0  0  0
    8.8676   -8.1362    0.0000 C   0  0  0  0  0  0  0  0  0  0  0  0
    8.8676   -7.3112    0.0000 C   0  0  0  0  0  0  0  0  0  0  0  0
 29 16  1  0  0  0  0
 29 28  1  0  0  0  0
 30 29  2  0  0  0  0
 31 30  1  0  0  0  0
  1  2  1  0  0  0  0
  2  3  2  0  0  0  0
  3  4  1  0  0  0  0
  4  5  2  0  0  0  0
  5  6  1  0  0  0  0
  6  1  2  0  0  0  0
  4  7  1  0  0  0  0
  7  8  1  0  0  0  0
  8  9  2  0  0  0  0
  9 10  1  0  0  0  0
 10  5  1  0  0  0  0
  6 11  1  0  0  0  0
 11 12  2  0  0  0  0
 12 13  1  0  0  0  0
 13 14  1  0  0  0  0
 14  1  1  0  0  0  0
  9 15  1  0  0  0  0
  8 31  1  0  0  0  0
  7 17  2  0  0  0  0
  3 18  1  0  0  0  0
 13 19  1  0  0  0  0
 13 20  1  0  0  0  0
 15 21  1  0  0  0  0
 21 22  2  0  0  0  0
 22 23  1  0  0  0  0
 23 24  2  0  0  0  0
 24 25  1  0  0  0  0
 25 15  2  0  0  0  0
 25 26  1  0  0  0  0
 23 27  1  0  0  0  0
M  END
>  <cdx:fragmentId>
17754

$$$$
