5281604.cdx
  Mrv1902 05222410242D          

 23 25  0  0  0  0            999 V2000
   15.8260   -8.7368    0.0000 C   0  0  0  0  0  0  0  0  0  0  0  0
   15.8260   -7.9118    0.0000 C   0  0  0  0  0  0  0  0  0  0  0  0
   15.1115   -7.4993    0.0000 C   0  0  0  0  0  0  0  0  0  0  0  0
   14.3970   -7.9118    0.0000 C   0  0  0  0  0  0  0  0  0  0  0  0
   13.6826   -7.4993    0.0000 C   0  0  0  0  0  0  0  0  0  0  0  0
   12.9681   -7.9118    0.0000 C   0  0  0  0  0  0  0  0  0  0  0  0
   12.9681   -8.7368    0.0000 C   0  0  0  0  0  0  0  0  0  0  0  0
   13.6826   -9.1493    0.0000 C   0  0  0  0  0  0  0  0  0  0  0  0
   14.3970   -8.7368    0.0000 C   0  0  0  0  0  0  0  0  0  0  0  0
   15.1115   -9.1493    0.0000 O   0  0  0  0  0  0  0  0  0  0  0  0
   15.1115   -6.6743    0.0000 O   0  0  0  0  0  0  0  0  0  0  0  0
   13.6826   -6.6743    0.0000 O   0  0  0  0  0  0  0  0  0  0  0  0
   12.9681   -6.2618    0.0000 C   0  0  0  0  0  0  0  0  0  0  0  0
   12.2536   -9.1493    0.0000 O   0  0  0  0  0  0  0  0  0  0  0  0
   16.5405   -7.4993    0.0000 O   0  0  0  0  0  0  0  0  0  0  0  0
   16.5405   -9.1493    0.0000 C   0  0  0  0  0  0  0  0  0  0  0  0
   17.2549   -8.7368    0.0000 C   0  0  0  0  0  0  0  0  0  0  0  0
   17.9694   -9.1493    0.0000 C   0  0  0  0  0  0  0  0  0  0  0  0
   17.9694   -9.9743    0.0000 C   0  0  0  0  0  0  0  0  0  0  0  0
   17.2549  -10.3868    0.0000 C   0  0  0  0  0  0  0  0  0  0  0  0
   16.5405   -9.9743    0.0000 C   0  0  0  0  0  0  0  0  0  0  0  0
   18.6839  -10.3868    0.0000 O   0  0  0  0  0  0  0  0  0  0  0  0
   18.6839   -8.7368    0.0000 O   0  0  0  0  0  0  0  0  0  0  0  0
  1  2  2  0  0  0  0
  2  3  1  0  0  0  0
  3  4  1  0  0  0  0
  4  5  1  0  0  0  0
  5  6  2  0  0  0  0
  6  7  1  0  0  0  0
  7  8  2  0  0  0  0
  8  9  1  0  0  0  0
  4  9  2  0  0  0  0
  9 10  1  0  0  0  0
  1 10  1  0  0  0  0
  3 11  2  0  0  0  0
 12 13  1  0  0  0  0
  5 12  1  0  0  0  0
  7 14  1  0  0  0  0
  2 15  1  0  0  0  0
 16 17  1  0  0  0  0
 17 18  2  0  0  0  0
 18 19  1  0  0  0  0
 19 20  2  0  0  0  0
 20 21  1  0  0  0  0
 16 21  2  0  0  0  0
 19 22  1  0  0  0  0
 18 23  1  0  0  0  0
  1 16  1  0  0  0  0
M  END
>  <cdx:groupId>
16089

>  <cdx:fragmentId>
16021

$$$$
