281717.cdx
  Mrv1902 05222410272D          

 18 19  0  0  0  0            999 V2000
    7.6035   -5.8228    0.0000 O   0  0  0  0  0  0  0  0  0  0  0  0
   10.4614   -5.8228    0.0000 O   0  0  0  0  0  0  0  0  0  0  0  0
    4.0311   -7.0603    0.0000 O   0  0  0  0  0  0  0  0  0  0  0  0
    5.4601   -9.5353    0.0000 O   0  0  0  0  0  0  0  0  0  0  0  0
    6.1745   -8.2978    0.0000 C   0  0  0  0  0  0  0  0  0  0  0  0
    5.4601   -8.7103    0.0000 C   0  0  0  0  0  0  0  0  0  0  0  0
    4.7456   -8.2978    0.0000 C   0  0  0  0  0  0  0  0  0  0  0  0
    4.7456   -7.4728    0.0000 C   0  0  0  0  0  0  0  0  0  0  0  0
    5.4601   -7.0603    0.0000 C   0  0  0  0  0  0  0  0  0  0  0  0
    6.1745   -7.4728    0.0000 C   0  0  0  0  0  0  0  0  0  0  0  0
    9.0324   -7.4728    0.0000 C   0  0  0  0  0  0  0  0  0  0  0  0
    9.7469   -7.0603    0.0000 C   0  0  0  0  0  0  0  0  0  0  0  0
    9.7469   -6.2353    0.0000 C   0  0  0  0  0  0  0  0  0  0  0  0
    9.0324   -5.8228    0.0000 C   0  0  0  0  0  0  0  0  0  0  0  0
    8.3180   -6.2353    0.0000 C   0  0  0  0  0  0  0  0  0  0  0  0
    8.3180   -7.0603    0.0000 C   0  0  0  0  0  0  0  0  0  0  0  0
    7.6035   -7.4728    0.0000 C   0  0  0  0  0  0  0  0  0  0  0  0
    6.8890   -7.0603    0.0000 C   0  0  0  0  0  0  0  0  0  0  0  0
 15  1  1  0  0  0  0
 13  2  1  0  0  0  0
  8  3  1  0  0  0  0
  6  4  1  0  0  0  0
 10  5  2  0  0  0  0
  6  5  1  0  0  0  0
  7  6  2  0  0  0  0
  8  7  1  0  0  0  0
  9  8  2  0  0  0  0
 10  9  1  0  0  0  0
 18 10  1  0  0  0  0
 16 11  2  0  0  0  0
 12 11  1  0  0  0  0
 13 12  2  0  0  0  0
 14 13  1  0  0  0  0
 15 14  2  0  0  0  0
 16 15  1  0  0  0  0
 17 16  1  0  0  0  0
 18 17  2  0  0  0  0
M  END
>  <cdx:fragmentId>
19123

$$$$
