281773.cdx
  Mrv1902 05222410232D          

 44 47  0  0  0  0            999 V2000
    6.6727   -9.0903    0.0000 C   0  0  2  0  0  0  0  0  0  0  0  0
    6.6727   -9.9148    0.0000 C   0  0  2  0  0  0  0  0  0  0  0  0
    7.3868   -8.6729    0.0000 O   0  0  0  0  0  0  0  0  0  0  0  0
    5.9551   -8.6763    0.0000 C   0  0  0  0  0  0  0  0  0  0  0  0
    7.3902  -10.3288    0.0000 C   0  0  1  0  0  0  0  0  0  0  0  0
    5.9585  -10.3288    0.0000 O   0  0  0  0  0  0  0  0  0  0  0  0
    8.1043   -9.0869    0.0000 C   0  0  2  0  0  0  0  0  0  0  0  0
    8.1078   -9.9148    0.0000 C   0  0  2  0  0  0  0  0  0  0  0  0
    7.3902  -11.1534    0.0000 O   0  0  0  0  0  0  0  0  0  0  0  0
    5.2444   -9.9183    0.0000 C   0  0  0  0  0  0  0  0  0  0  0  0
    8.8185   -8.6798    0.0000 O   0  0  0  0  0  0  0  0  0  0  0  0
    8.8219  -10.3254    0.0000 O   0  0  0  0  0  0  0  0  0  0  0  0
    4.5268  -10.3288    0.0000 C   0  0  0  0  0  0  0  0  0  0  0  0
    5.2444   -9.0938    0.0000 O   0  0  0  0  0  0  0  0  0  0  0  0
    9.5291   -9.0903    0.0000 C   0  0  0  0  0  0  0  0  0  0  0  0
    3.8161   -9.9183    0.0000 C   0  0  0  0  0  0  0  0  0  0  0  0
   10.2433   -8.6833    0.0000 C   0  0  0  0  0  0  0  0  0  0  0  0
    3.1020  -10.3288    0.0000 C   0  0  0  0  0  0  0  0  0  0  0  0
   10.9574   -9.0938    0.0000 C   0  0  0  0  0  0  0  0  0  0  0  0
    2.3845   -9.9183    0.0000 C   0  0  0  0  0  0  0  0  0  0  0  0
    3.1055  -11.1568    0.0000 C   0  0  0  0  0  0  0  0  0  0  0  0
   11.6715   -8.6833    0.0000 C   0  0  0  0  0  0  0  0  0  0  0  0
   10.9574   -9.9217    0.0000 C   0  0  0  0  0  0  0  0  0  0  0  0
    1.6703  -10.3323    0.0000 C   0  0  0  0  0  0  0  0  0  0  0  0
    2.3879  -11.5708    0.0000 C   0  0  0  0  0  0  0  0  0  0  0  0
   12.3857   -9.0938    0.0000 C   0  0  0  0  0  0  0  0  0  0  0  0
   11.6715  -10.3323    0.0000 C   0  0  0  0  0  0  0  0  0  0  0  0
    1.6703  -11.1603    0.0000 C   0  0  0  0  0  0  0  0  0  0  0  0
    0.9527   -9.9183    0.0000 O   0  0  0  0  0  0  0  0  0  0  0  0
   12.3857   -9.9217    0.0000 C   0  0  0  0  0  0  0  0  0  0  0  0
   13.0998   -8.6833    0.0000 O   0  0  0  0  0  0  0  0  0  0  0  0
    0.9562  -11.5708    0.0000 O   0  0  0  0  0  0  0  0  0  0  0  0
   13.0998  -10.3323    0.0000 O   0  0  0  0  0  0  0  0  0  0  0  0
    3.1180   -6.1530    0.0000 O   0  0  0  0  0  0  0  0  0  0  0  0
    4.5610   -5.3547    0.0000 C   0  0  0  0  0  0  0  0  0  0  0  0
    3.0891   -7.8071    0.0000 O   0  0  0  0  0  0  0  0  0  0  0  0
    3.8242   -6.5794    0.0000 C   0  0  1  0  0  0  0  0  0  0  0  0
    4.5479   -6.1771    0.0000 C   0  0  1  0  0  0  0  0  0  0  0  0
    4.5060   -8.6536    0.0000 O   0  0  0  0  0  0  0  0  0  0  0  0
    3.8129   -7.4048    0.0000 C   0  0  2  0  0  0  0  0  0  0  0  0
    5.2542   -6.6035    0.0000 O   0  0  0  0  0  0  0  0  0  0  0  0
    4.5191   -7.8312    0.0000 C   0  0  2  0  0  0  0  0  0  0  0  0
    5.2428   -7.4289    0.0000 C   0  0  2  0  0  0  0  0  0  0  0  0
    5.9551   -7.8519    0.0000 O   0  0  0  0  0  0  0  0  0  0  0  0
 38 37  1  0  0  0  0
 37 34  1  1  0  0  0
 38 35  1  6  0  0  0
 40 36  1  6  0  0  0
 40 37  1  0  0  0  0
 41 38  1  0  0  0  0
 42 39  1  6  0  0  0
 42 40  1  0  0  0  0
 43 41  1  0  0  0  0
 43 42  1  0  0  0  0
 43 44  1  1  0  0  0
  1  2  1  0  0  0  0
  1  3  1  0  0  0  0
  1  4  1  1  0  0  0
  2  5  1  0  0  0  0
  2  6  1  6  0  0  0
  3  7  1  0  0  0  0
  4 44  1  0  0  0  0
  5  8  1  0  0  0  0
  5  9  1  1  0  0  0
  6 10  1  0  0  0  0
  7 11  1  1  0  0  0
  8 12  1  6  0  0  0
 10 13  1  0  0  0  0
 10 14  2  0  0  0  0
 11 15  1  0  0  0  0
 13 16  2  0  0  0  0
 15 17  1  0  0  0  0
 16 18  1  0  0  0  0
 17 19  1  0  0  0  0
 18 20  1  0  0  0  0
 18 21  2  0  0  0  0
 19 22  2  0  0  0  0
 19 23  1  0  0  0  0
 20 24  2  0  0  0  0
 21 25  1  0  0  0  0
 22 26  1  0  0  0  0
 23 27  2  0  0  0  0
 24 28  1  0  0  0  0
 24 29  1  0  0  0  0
 26 30  2  0  0  0  0
 26 31  1  0  0  0  0
 28 32  1  0  0  0  0
 30 33  1  0  0  0  0
  7  8  1  0  0  0  0
 25 28  2  0  0  0  0
 27 30  1  0  0  0  0
M  END
>  <cdx:fragmentId>
19836

$$$$
