5281797.cdx
  Mrv1902 05222410222D          

 26 28  0  0  0  0            999 V2000
    5.7780   -7.6615    0.0000 C   0  0  0  0  0  0  0  0  0  0  0  0
    5.7780   -8.4865    0.0000 C   0  0  0  0  0  0  0  0  0  0  0  0
    6.4925   -8.8990    0.0000 C   0  0  0  0  0  0  0  0  0  0  0  0
    7.2070   -8.4865    0.0000 C   0  0  0  0  0  0  0  0  0  0  0  0
    7.2070   -7.6615    0.0000 C   0  0  0  0  0  0  0  0  0  0  0  0
    6.4925   -7.2490    0.0000 C   0  0  0  0  0  0  0  0  0  0  0  0
    7.9214   -8.8990    0.0000 O   0  0  0  0  0  0  0  0  0  0  0  0
    8.6359   -8.4865    0.0000 C   0  0  0  0  0  0  0  0  0  0  0  0
    8.6359   -7.6615    0.0000 C   0  0  0  0  0  0  0  0  0  0  0  0
    7.9214   -7.2490    0.0000 C   0  0  0  0  0  0  0  0  0  0  0  0
    6.4925   -6.4240    0.0000 O   0  0  0  0  0  0  0  0  0  0  0  0
    5.0635   -7.2490    0.0000 C   0  0  0  0  0  0  0  0  0  0  0  0
    4.3491   -7.6615    0.0000 C   0  0  0  0  0  0  0  0  0  0  0  0
    3.6346   -7.2490    0.0000 C   0  0  0  0  0  0  0  0  0  0  0  0
    2.9201   -7.6615    0.0000 C   0  0  0  0  0  0  0  0  0  0  0  0
    3.6346   -6.4240    0.0000 C   0  0  0  0  0  0  0  0  0  0  0  0
    5.0635   -8.8990    0.0000 O   0  0  0  0  0  0  0  0  0  0  0  0
    7.9214   -6.4240    0.0000 O   0  0  0  0  0  0  0  0  0  0  0  0
    9.3504   -7.2490    0.0000 C   0  0  0  0  0  0  0  0  0  0  0  0
   10.0648   -7.6615    0.0000 C   0  0  0  0  0  0  0  0  0  0  0  0
   10.7793   -7.2490    0.0000 C   0  0  0  0  0  0  0  0  0  0  0  0
   10.7793   -6.4240    0.0000 C   0  0  0  0  0  0  0  0  0  0  0  0
   10.0648   -6.0115    0.0000 C   0  0  0  0  0  0  0  0  0  0  0  0
    9.3504   -6.4240    0.0000 C   0  0  0  0  0  0  0  0  0  0  0  0
   10.0648   -8.4865    0.0000 O   0  0  0  0  0  0  0  0  0  0  0  0
   11.4938   -6.0115    0.0000 O   0  0  0  0  0  0  0  0  0  0  0  0
  1  2  1  0  0  0  0
  2  3  2  0  0  0  0
  3  4  1  0  0  0  0
  4  5  2  0  0  0  0
  5  6  1  0  0  0  0
  6  1  2  0  0  0  0
  4  7  1  0  0  0  0
  7  8  1  0  0  0  0
  8  9  2  0  0  0  0
  9 10  1  0  0  0  0
 10  5  1  0  0  0  0
  6 11  1  0  0  0  0
  1 12  1  0  0  0  0
 12 13  1  0  0  0  0
 13 14  2  0  0  0  0
 14 15  1  0  0  0  0
 14 16  1  0  0  0  0
  2 17  1  0  0  0  0
 10 18  2  0  0  0  0
  9 19  1  0  0  0  0
 19 20  1  0  0  0  0
 20 21  2  0  0  0  0
 21 22  1  0  0  0  0
 22 23  2  0  0  0  0
 23 24  1  0  0  0  0
 24 19  2  0  0  0  0
 20 25  1  0  0  0  0
 22 26  1  0  0  0  0
M  END
>  <cdx:fragmentId>
21317

$$$$
