281764.cdx
  Mrv1902 05222410242D          

 34 35  0  0  0  0            999 V2000
    7.5529   -9.4960    0.0000 C   0  0  0  0  0  0  0  0  0  0  0  0
    7.5529   -8.6710    0.0000 C   0  0  1  0  0  0  0  0  0  0  0  0
    6.8384   -8.2585    0.0000 C   0  0  2  0  0  0  0  0  0  0  0  0
    6.8384   -7.4335    0.0000 C   0  0  0  0  0  0  0  0  0  0  0  0
    6.8384   -9.9085    0.0000 O   0  0  0  0  0  0  0  0  0  0  0  0
    8.2674   -9.9085    0.0000 O   0  0  0  0  0  0  0  0  0  0  0  0
    7.5529   -7.0210    0.0000 O   0  0  0  0  0  0  0  0  0  0  0  0
    6.1239   -7.0210    0.0000 O   0  0  0  0  0  0  0  0  0  0  0  0
    6.1239   -8.6710    0.0000 O   0  0  0  0  0  0  0  0  0  0  0  0
    5.4095   -8.2585    0.0000 C   0  0  0  0  0  0  0  0  0  0  0  0
    4.6950   -8.6710    0.0000 C   0  0  0  0  0  0  0  0  0  0  0  0
    3.9805   -8.2585    0.0000 C   0  0  0  0  0  0  0  0  0  0  0  0
    5.4095   -7.4335    0.0000 O   0  0  0  0  0  0  0  0  0  0  0  0
    3.2661   -8.6710    0.0000 C   0  0  0  0  0  0  0  0  0  0  0  0
    2.5516   -8.2585    0.0000 C   0  0  0  0  0  0  0  0  0  0  0  0
    1.8371   -8.6710    0.0000 C   0  0  0  0  0  0  0  0  0  0  0  0
    1.8371   -9.4960    0.0000 C   0  0  0  0  0  0  0  0  0  0  0  0
    2.5516   -9.9085    0.0000 C   0  0  0  0  0  0  0  0  0  0  0  0
    3.2661   -9.4960    0.0000 C   0  0  0  0  0  0  0  0  0  0  0  0
    1.1226   -9.9085    0.0000 O   0  0  0  0  0  0  0  0  0  0  0  0
    1.1226   -8.2585    0.0000 O   0  0  0  0  0  0  0  0  0  0  0  0
    8.2674   -8.2585    0.0000 O   0  0  0  0  0  0  0  0  0  0  0  0
    8.9818   -8.6710    0.0000 C   0  0  0  0  0  0  0  0  0  0  0  0
    9.6963   -8.2585    0.0000 C   0  0  0  0  0  0  0  0  0  0  0  0
   10.4108   -8.6710    0.0000 C   0  0  0  0  0  0  0  0  0  0  0  0
    8.9818   -9.4960    0.0000 O   0  0  0  0  0  0  0  0  0  0  0  0
   11.1252   -8.2585    0.0000 C   0  0  0  0  0  0  0  0  0  0  0  0
   11.8397   -8.6710    0.0000 C   0  0  0  0  0  0  0  0  0  0  0  0
   12.5542   -8.2585    0.0000 C   0  0  0  0  0  0  0  0  0  0  0  0
   12.5542   -7.4335    0.0000 C   0  0  0  0  0  0  0  0  0  0  0  0
   11.8397   -7.0210    0.0000 C   0  0  0  0  0  0  0  0  0  0  0  0
   11.1252   -7.4335    0.0000 C   0  0  0  0  0  0  0  0  0  0  0  0
   13.2687   -7.0210    0.0000 O   0  0  0  0  0  0  0  0  0  0  0  0
   13.2687   -8.6710    0.0000 O   0  0  0  0  0  0  0  0  0  0  0  0
  2  1  1  0  0  0  0
  2  3  1  0  0  0  0
  3  4  1  0  0  0  0
  1  5  2  0  0  0  0
  1  6  1  0  0  0  0
  4  7  2  0  0  0  0
  4  8  1  0  0  0  0
 10 11  1  0  0  0  0
 11 12  2  0  0  0  0
 10 13  2  0  0  0  0
 14 15  1  0  0  0  0
 15 16  2  0  0  0  0
 16 17  1  0  0  0  0
 17 18  2  0  0  0  0
 18 19  1  0  0  0  0
 14 19  2  0  0  0  0
 17 20  1  0  0  0  0
 16 21  1  0  0  0  0
 12 14  1  0  0  0  0
  9 10  1  0  0  0  0
  3  9  1  1  0  0  0
 23 24  1  0  0  0  0
 24 25  2  0  0  0  0
 23 26  2  0  0  0  0
 27 28  1  0  0  0  0
 28 29  2  0  0  0  0
 29 30  1  0  0  0  0
 30 31  2  0  0  0  0
 31 32  1  0  0  0  0
 27 32  2  0  0  0  0
 30 33  1  0  0  0  0
 29 34  1  0  0  0  0
 25 27  1  0  0  0  0
 22 23  1  0  0  0  0
  2 22  1  1  0  0  0
M  END
>  <cdx:fragmentId>
31

$$$$
