281777.cdx
  Mrv1902 05222410252D          

 37 40  0  0  0  0            999 V2000
    7.0421   -7.7030    0.0000 C   0  0  0  0  0  0  0  0  0  0  0  0
    7.0387   -8.5280    0.0000 C   0  0  0  0  0  0  0  0  0  0  0  0
    6.3316   -7.2939    0.0000 C   0  0  0  0  0  0  0  0  0  0  0  0
    7.7627   -7.3000    0.0000 O   0  0  0  0  0  0  0  0  0  0  0  0
    7.7493   -8.9475    0.0000 C   0  0  0  0  0  0  0  0  0  0  0  0
    6.3316   -8.9439    0.0000 C   0  0  0  0  0  0  0  0  0  0  0  0
    5.6141   -7.7030    0.0000 C   0  0  0  0  0  0  0  0  0  0  0  0
    8.4702   -7.7099    0.0000 C   0  0  0  0  0  0  0  0  0  0  0  0
    8.4668   -8.5349    0.0000 C   0  0  0  0  0  0  0  0  0  0  0  0
    7.7478   -9.7814    0.0000 O   0  0  0  0  0  0  0  0  0  0  0  0
    5.6141   -8.5280    0.0000 C   0  0  0  0  0  0  0  0  0  0  0  0
    6.3316   -9.7689    0.0000 O   0  0  0  0  0  0  0  0  0  0  0  0
    4.8914   -7.2143    0.0000 O   0  0  0  0  0  0  0  0  0  0  0  0
    4.9059   -8.9647    0.0000 O   0  0  0  0  0  0  0  0  0  0  0  0
    4.8907   -6.3893    0.0000 C   0  0  2  0  0  0  0  0  0  0  0  0
    4.8965   -9.7689    0.0000 C   0  0  0  0  0  0  0  0  0  0  0  0
    5.6048   -5.9762    0.0000 O   0  0  0  0  0  0  0  0  0  0  0  0
    5.6041   -5.1512    0.0000 C   0  0  1  0  0  0  0  0  0  0  0  0
    4.8893   -4.7393    0.0000 C   0  0  2  0  0  0  0  0  0  0  0  0
    4.1752   -5.1524    0.0000 C   0  0  1  0  0  0  0  0  0  0  0  0
    4.1759   -5.9774    0.0000 C   0  0  1  0  0  0  0  0  0  0  0  0
    6.3183   -4.7381    0.0000 C   0  0  0  0  0  0  0  0  0  0  0  0
    3.4604   -4.7405    0.0000 O   0  0  0  0  0  0  0  0  0  0  0  0
    4.8886   -3.9143    0.0000 O   0  0  0  0  0  0  0  0  0  0  0  0
    3.4618   -6.3905    0.0000 O   0  0  0  0  0  0  0  0  0  0  0  0
    6.3175   -3.9131    0.0000 O   0  0  0  0  0  0  0  0  0  0  0  0
   11.2737  -11.0508    0.0000 C   0  0  0  0  0  0  0  0  0  0  0  0
    9.1326  -11.4427    0.0000 C   0  0  0  0  0  0  0  0  0  0  0  0
   11.2933  -10.2386    0.0000 O   0  0  0  0  0  0  0  0  0  0  0  0
   11.3316   -8.5891    0.0000 O   0  0  0  0  0  0  0  0  0  0  0  0
    9.8471  -11.0302    0.0000 O   0  0  0  0  0  0  0  0  0  0  0  0
   10.5986   -9.8148    0.0000 C   0  0  0  0  0  0  0  0  0  0  0  0
   10.5975   -8.9896    0.0000 C   0  0  0  0  0  0  0  0  0  0  0  0
    9.8668  -10.2141    0.0000 C   0  0  0  0  0  0  0  0  0  0  0  0
    9.9005   -8.5645    0.0000 C   0  0  0  0  0  0  0  0  0  0  0  0
    9.1595   -9.7827    0.0000 C   0  0  0  0  0  0  0  0  0  0  0  0
    9.1794   -8.9579    0.0000 C   0  0  0  0  0  0  0  0  0  0  0  0
 33 32  2  0  0  0  0
 29 27  1  0  0  0  0
 31 28  1  0  0  0  0
 32 29  1  0  0  0  0
 33 30  1  0  0  0  0
 34 31  1  0  0  0  0
 34 32  1  0  0  0  0
 35 33  1  0  0  0  0
 36 34  2  0  0  0  0
 37 35  2  0  0  0  0
 37 36  1  0  0  0  0
  1  2  2  0  0  0  0
  1  3  1  0  0  0  0
  1  4  1  0  0  0  0
  2  5  1  0  0  0  0
  2  6  1  0  0  0  0
  3  7  2  0  0  0  0
  4  8  1  0  0  0  0
  5  9  1  0  0  0  0
  5 10  2  0  0  0  0
  6 11  2  0  0  0  0
  6 12  1  0  0  0  0
  7 13  1  0  0  0  0
  9 37  1  0  0  0  0
 11 14  1  0  0  0  0
 15 13  1  1  0  0  0
 14 16  1  0  0  0  0
  7 11  1  0  0  0  0
  8  9  2  0  0  0  0
 15 17  1  0  0  0  0
 17 18  1  0  0  0  0
 18 19  1  0  0  0  0
 19 20  1  0  0  0  0
 20 21  1  0  0  0  0
 21 15  1  0  0  0  0
 18 22  1  1  0  0  0
 20 23  1  1  0  0  0
 19 24  1  6  0  0  0
 21 25  1  6  0  0  0
 22 26  1  0  0  0  0
M  END
>  <cdx:fragmentId>
20021

$$$$
