281782.cdx
  Mrv1902 05222410222D          

 57 61  0  0  0  0            999 V2000
    5.3501   -8.4216    0.0000 C   0  0  0  0  0  0  0  0  0  0  0  0
    4.6356   -8.8341    0.0000 C   0  0  0  0  0  0  0  0  0  0  0  0
    3.9211   -8.4216    0.0000 C   0  0  0  0  0  0  0  0  0  0  0  0
    5.3501   -7.5966    0.0000 O   0  0  0  0  0  0  0  0  0  0  0  0
    6.0645   -8.8341    0.0000 O   0  0  0  0  0  0  0  0  0  0  0  0
    3.2067   -8.8341    0.0000 C   0  0  0  0  0  0  0  0  0  0  0  0
    2.4922   -8.4216    0.0000 C   0  0  0  0  0  0  0  0  0  0  0  0
    1.7777   -8.8341    0.0000 C   0  0  0  0  0  0  0  0  0  0  0  0
    1.7777   -9.6591    0.0000 C   0  0  0  0  0  0  0  0  0  0  0  0
    2.4922  -10.0716    0.0000 C   0  0  0  0  0  0  0  0  0  0  0  0
    3.2067   -9.6591    0.0000 C   0  0  0  0  0  0  0  0  0  0  0  0
    1.0633   -8.4216    0.0000 O   0  0  0  0  0  0  0  0  0  0  0  0
    0.3488   -8.8341    0.0000 C   0  0  0  0  0  0  0  0  0  0  0  0
    1.0633  -10.0716    0.0000 O   0  0  0  0  0  0  0  0  0  0  0  0
    7.4935   -7.1841    0.0000 O   0  0  0  0  0  0  0  0  0  0  0  0
    6.7790   -7.5966    0.0000 C   0  0  1  0  0  0  0  0  0  0  0  0
    6.7790   -8.4216    0.0000 C   0  0  2  0  0  0  0  0  0  0  0  0
    7.4935   -8.8341    0.0000 C   0  0  1  0  0  0  0  0  0  0  0  0
    8.2080   -8.4216    0.0000 C   0  0  2  0  0  0  0  0  0  0  0  0
    8.2080   -7.5966    0.0000 C   0  0  2  0  0  0  0  0  0  0  0  0
    7.4935   -9.6591    0.0000 O   0  0  0  0  0  0  0  0  0  0  0  0
    6.0645   -9.6591    0.0000 O   0  0  0  0  0  0  0  0  0  0  0  0
    6.7790  -10.0716    0.0000 C   0  0  2  0  0  0  0  0  0  0  0  0
    6.7790  -10.8966    0.0000 C   0  0  1  0  0  0  0  0  0  0  0  0
    6.0645  -11.3091    0.0000 C   0  0  1  0  0  0  0  0  0  0  0  0
    5.3501  -10.8966    0.0000 C   0  0  2  0  0  0  0  0  0  0  0  0
    5.3501  -10.0716    0.0000 C   0  0  2  0  0  0  0  0  0  0  0  0
    4.6356   -9.6591    0.0000 C   0  0  0  0  0  0  0  0  0  0  0  0
    4.6356  -11.3091    0.0000 O   0  0  0  0  0  0  0  0  0  0  0  0
    6.0645  -12.1341    0.0000 O   0  0  0  0  0  0  0  0  0  0  0  0
    7.4935  -11.3091    0.0000 O   0  0  0  0  0  0  0  0  0  0  0  0
    6.0645   -7.1841    0.0000 C   0  0  0  0  0  0  0  0  0  0  0  0
    8.9224   -7.1841    0.0000 O   0  0  0  0  0  0  0  0  0  0  0  0
    9.6369   -7.5966    0.0000 C   0  0  0  0  0  0  0  0  0  0  0  0
   10.3514   -7.1841    0.0000 C   0  0  0  0  0  0  0  0  0  0  0  0
   11.0658   -7.5966    0.0000 C   0  0  0  0  0  0  0  0  0  0  0  0
   11.7803   -7.1841    0.0000 C   0  0  0  0  0  0  0  0  0  0  0  0
   12.4948   -7.5966    0.0000 C   0  0  0  0  0  0  0  0  0  0  0  0
   12.4948   -8.4216    0.0000 C   0  0  0  0  0  0  0  0  0  0  0  0
   11.7803   -8.8341    0.0000 C   0  0  0  0  0  0  0  0  0  0  0  0
   11.0658   -8.4216    0.0000 C   0  0  0  0  0  0  0  0  0  0  0  0
   13.2093   -8.8341    0.0000 O   0  0  0  0  0  0  0  0  0  0  0  0
   13.9237   -8.4216    0.0000 C   0  0  0  0  0  0  0  0  0  0  0  0
   13.2093   -7.1841    0.0000 O   0  0  0  0  0  0  0  0  0  0  0  0
    8.9224   -8.8341    0.0000 O   0  0  0  0  0  0  0  0  0  0  0  0
    4.4148   -6.3886    0.0000 O   0  0  0  0  0  0  0  0  0  0  0  0
    3.5644   -4.9746    0.0000 O   0  0  0  0  0  0  0  0  0  0  0  0
    4.3637   -3.5312    0.0000 O   0  0  0  0  0  0  0  0  0  0  0  0
    5.5882   -2.7947    0.0000 O   0  0  0  0  0  0  0  0  0  0  0  0
    6.0134   -3.5017    0.0000 C   0  0  0  0  0  0  0  0  0  0  0  0
    5.6138   -4.2234    0.0000 C   0  0  2  0  0  0  0  0  0  0  0  0
    4.7889   -4.2382    0.0000 C   0  0  1  0  0  0  0  0  0  0  0  0
    4.3893   -4.9599    0.0000 C   0  0  1  0  0  0  0  0  0  0  0  0
    4.8145   -5.6669    0.0000 C   0  0  2  0  0  0  0  0  0  0  0  0
    5.6393   -5.6521    0.0000 C   0  0  1  0  0  0  0  0  0  0  0  0
    6.0390   -4.9304    0.0000 O   0  0  0  0  0  0  0  0  0  0  0  0
    6.0645   -6.3591    0.0000 O   0  0  0  0  0  0  0  0  0  0  0  0
 55 57  1  1  0  0  0
 54 46  1  6  0  0  0
 53 47  1  1  0  0  0
 52 48  1  1  0  0  0
 51 50  1  1  0  0  0
 50 49  1  0  0  0  0
 56 51  1  0  0  0  0
 52 51  1  0  0  0  0
 53 52  1  0  0  0  0
 54 53  1  0  0  0  0
 55 54  1  0  0  0  0
 56 55  1  0  0  0  0
  1  2  1  0  0  0  0
  2  3  2  0  0  0  0
  1  4  2  0  0  0  0
  1  5  1  0  0  0  0
  6  7  1  0  0  0  0
  7  8  2  0  0  0  0
  8  9  1  0  0  0  0
  9 10  2  0  0  0  0
 10 11  1  0  0  0  0
  6 11  2  0  0  0  0
 12 13  1  0  0  0  0
  8 12  1  0  0  0  0
  9 14  1  0  0  0  0
  3  6  1  0  0  0  0
 15 16  1  0  0  0  0
 16 17  1  0  0  0  0
 17 18  1  0  0  0  0
 18 19  1  0  0  0  0
 19 20  1  0  0  0  0
 15 20  1  0  0  0  0
 22 23  1  0  0  0  0
 23 24  1  0  0  0  0
 24 25  1  0  0  0  0
 25 26  1  0  0  0  0
 26 27  1  0  0  0  0
 22 27  1  0  0  0  0
 27 28  1  6  0  0  0
 26 29  1  1  0  0  0
 25 30  1  6  0  0  0
 24 31  1  6  0  0  0
 23 21  1  1  0  0  0
 18 21  1  1  0  0  0
 32 57  1  0  0  0  0
 16 32  1  1  0  0  0
 34 35  1  0  0  0  0
 33 34  1  0  0  0  0
 36 37  1  0  0  0  0
 37 38  2  0  0  0  0
 38 39  1  0  0  0  0
 39 40  2  0  0  0  0
 40 41  1  0  0  0  0
 36 41  2  0  0  0  0
 42 43  1  0  0  0  0
 39 42  1  0  0  0  0
 38 44  1  0  0  0  0
 35 36  1  0  0  0  0
 20 33  1  1  0  0  0
 19 45  1  6  0  0  0
 17  5  1  6  0  0  0
M  END
>  <cdx:fragmentId>
20652

$$$$
