281727.cdx
  Mrv1902 05222410192D          

 19 20  0  0  0  0            999 V2000
    4.6788   -7.1681    0.0000 C   0  0  0  0  0  0  0  0  0  0  0  0
    4.6735   -7.9975    0.0000 C   0  0  0  0  0  0  0  0  0  0  0  0
    5.3856   -8.4136    0.0000 C   0  0  0  0  0  0  0  0  0  0  0  0
    6.1060   -8.0027    0.0000 C   0  0  0  0  0  0  0  0  0  0  0  0
    6.1065   -7.1716    0.0000 C   0  0  0  0  0  0  0  0  0  0  0  0
    5.3920   -6.7593    0.0000 C   0  0  0  0  0  0  0  0  0  0  0  0
    6.8209   -6.7591    0.0000 C   0  0  0  0  0  0  0  0  0  0  0  0
    7.5354   -7.1716    0.0000 C   0  0  0  0  0  0  0  0  0  0  0  0
    8.2498   -6.7591    0.0000 C   0  0  0  0  0  0  0  0  0  0  0  0
    8.9631   -7.1739    0.0000 C   0  0  0  0  0  0  0  0  0  0  0  0
    9.6760   -6.7667    0.0000 C   0  0  0  0  0  0  0  0  0  0  0  0
    9.6784   -5.9413    0.0000 C   0  0  0  0  0  0  0  0  0  0  0  0
    8.9613   -5.5281    0.0000 C   0  0  0  0  0  0  0  0  0  0  0  0
    8.2500   -5.9398    0.0000 C   0  0  0  0  0  0  0  0  0  0  0  0
   10.3929   -5.5288    0.0000 O   0  0  0  0  0  0  0  0  0  0  0  0
    5.3856   -9.2385    0.0000 O   0  0  0  0  0  0  0  0  0  0  0  0
    4.6712   -9.6510    0.0000 C   0  0  0  0  0  0  0  0  0  0  0  0
    3.9643   -6.7557    0.0000 O   0  0  0  0  0  0  0  0  0  0  0  0
    3.2511   -7.1674    0.0000 C   0  0  0  0  0  0  0  0  0  0  0  0
  4  5  1  0  0  0  0
  9 10  2  0  0  0  0
  2  3  1  0  0  0  0
 10 11  1  0  0  0  0
  5  6  2  0  0  0  0
 11 12  2  0  0  0  0
  6  1  1  0  0  0  0
 12 13  1  0  0  0  0
  1  2  2  0  0  0  0
 13 14  2  0  0  0  0
 14  9  1  0  0  0  0
  1 18  1  0  0  0  0
  3 16  1  0  0  0  0
  5  7  1  0  0  0  0
 12 15  1  0  0  0  0
  3  4  2  0  0  0  0
  7  8  2  0  0  0  0
 16 17  1  0  0  0  0
  8  9  1  0  0  0  0
 18 19  1  0  0  0  0
M  END
>  <cdx:fragmentId>
19276

$$$$
