281703.cdx
  Mrv1902 05222410272D          

 21 23  0  0  0  0            999 V2000
    8.3257   -7.0480    0.0000 C   0  0  0  0  0  0  0  0  0  0  0  0
    8.3257   -7.8730    0.0000 C   0  0  0  0  0  0  0  0  0  0  0  0
    7.6113   -8.2855    0.0000 C   0  0  0  0  0  0  0  0  0  0  0  0
    7.6113   -9.1105    0.0000 O   0  0  0  0  0  0  0  0  0  0  0  0
    6.8968   -7.8730    0.0000 C   0  0  0  0  0  0  0  0  0  0  0  0
    6.1823   -8.2855    0.0000 C   0  0  0  0  0  0  0  0  0  0  0  0
    5.4678   -7.8730    0.0000 C   0  0  0  0  0  0  0  0  0  0  0  0
    5.4678   -7.0480    0.0000 C   0  0  0  0  0  0  0  0  0  0  0  0
    6.1823   -6.6355    0.0000 C   0  0  0  0  0  0  0  0  0  0  0  0
    6.8968   -7.0480    0.0000 C   0  0  0  0  0  0  0  0  0  0  0  0
    7.6113   -6.6355    0.0000 O   0  0  0  0  0  0  0  0  0  0  0  0
    9.0402   -6.6355    0.0000 C   0  0  0  0  0  0  0  0  0  0  0  0
    9.0402   -5.8105    0.0000 C   0  0  0  0  0  0  0  0  0  0  0  0
    9.7547   -5.3980    0.0000 C   0  0  0  0  0  0  0  0  0  0  0  0
   10.4691   -5.8105    0.0000 C   0  0  0  0  0  0  0  0  0  0  0  0
   10.4691   -6.6355    0.0000 C   0  0  0  0  0  0  0  0  0  0  0  0
    9.7547   -7.0480    0.0000 C   0  0  0  0  0  0  0  0  0  0  0  0
    6.1823   -5.8105    0.0000 O   0  0  0  0  0  0  0  0  0  0  0  0
    5.4678   -5.3980    0.0000 C   0  0  0  0  0  0  0  0  0  0  0  0
    4.7534   -6.6355    0.0000 O   0  0  0  0  0  0  0  0  0  0  0  0
    6.1823   -9.1105    0.0000 O   0  0  0  0  0  0  0  0  0  0  0  0
  1  2  2  0  0  0  0
  2  3  1  0  0  0  0
  3  4  2  0  0  0  0
  3  5  1  0  0  0  0
  5  6  1  0  0  0  0
  6  7  2  0  0  0  0
  7  8  1  0  0  0  0
  8  9  2  0  0  0  0
  9 10  1  0  0  0  0
  5 10  2  0  0  0  0
 10 11  1  0  0  0  0
  1 11  1  0  0  0  0
  1 12  1  0  0  0  0
 12 13  1  0  0  0  0
 13 14  2  0  0  0  0
 14 15  1  0  0  0  0
 15 16  2  0  0  0  0
 16 17  1  0  0  0  0
 12 17  2  0  0  0  0
 18 19  1  0  0  0  0
  9 18  1  0  0  0  0
  8 20  1  0  0  0  0
  6 21  1  0  0  0  0
M  END
>  <cdx:fragmentId>
18844

$$$$
