281781.cdx
  Mrv1902 05222410232D          

 23 25  0  0  0  0            999 V2000
    7.9335   -6.5928    0.0000 C   0  0  0  0  0  0  0  0  0  0  0  0
    7.9335   -7.4178    0.0000 C   0  0  0  0  0  0  0  0  0  0  0  0
    7.2190   -7.8303    0.0000 C   0  0  0  0  0  0  0  0  0  0  0  0
    6.5045   -7.4178    0.0000 C   0  0  0  0  0  0  0  0  0  0  0  0
    5.7901   -7.8303    0.0000 C   0  0  0  0  0  0  0  0  0  0  0  0
    5.0756   -7.4178    0.0000 C   0  0  0  0  0  0  0  0  0  0  0  0
    5.0756   -6.5928    0.0000 C   0  0  0  0  0  0  0  0  0  0  0  0
    5.7901   -6.1803    0.0000 C   0  0  0  0  0  0  0  0  0  0  0  0
    6.5045   -6.5928    0.0000 C   0  0  0  0  0  0  0  0  0  0  0  0
    7.2190   -6.1803    0.0000 O   0  0  0  0  0  0  0  0  0  0  0  0
    7.2190   -8.6553    0.0000 O   0  0  0  0  0  0  0  0  0  0  0  0
    8.6480   -7.8303    0.0000 C   0  0  0  0  0  0  0  0  0  0  0  0
    8.6480   -8.6553    0.0000 C   0  0  0  0  0  0  0  0  0  0  0  0
    9.3624   -9.0678    0.0000 C   0  0  0  0  0  0  0  0  0  0  0  0
   10.0769   -8.6553    0.0000 C   0  0  0  0  0  0  0  0  0  0  0  0
   10.0769   -7.8303    0.0000 C   0  0  0  0  0  0  0  0  0  0  0  0
    9.3624   -7.4178    0.0000 C   0  0  0  0  0  0  0  0  0  0  0  0
   10.7914   -9.0678    0.0000 O   0  0  0  0  0  0  0  0  0  0  0  0
   11.5058   -8.6553    0.0000 C   0  0  0  0  0  0  0  0  0  0  0  0
    4.3611   -7.8303    0.0000 O   0  0  0  0  0  0  0  0  0  0  0  0
    3.6467   -7.4178    0.0000 C   0  0  0  0  0  0  0  0  0  0  0  0
    4.3611   -6.1803    0.0000 O   0  0  0  0  0  0  0  0  0  0  0  0
    5.7901   -8.6553    0.0000 O   0  0  0  0  0  0  0  0  0  0  0  0
  1  2  2  0  0  0  0
  2  3  1  0  0  0  0
  3  4  1  0  0  0  0
  4  5  1  0  0  0  0
  5  6  2  0  0  0  0
  6  7  1  0  0  0  0
  7  8  2  0  0  0  0
  8  9  1  0  0  0  0
  4  9  2  0  0  0  0
  9 10  1  0  0  0  0
  1 10  1  0  0  0  0
  3 11  2  0  0  0  0
 12 13  1  0  0  0  0
 13 14  2  0  0  0  0
 14 15  1  0  0  0  0
 15 16  2  0  0  0  0
 16 17  1  0  0  0  0
 12 17  2  0  0  0  0
 18 19  1  0  0  0  0
 15 18  1  0  0  0  0
  2 12  1  0  0  0  0
 20 21  1  0  0  0  0
  6 20  1  0  0  0  0
  7 22  1  0  0  0  0
  5 23  1  0  0  0  0
M  END
>  <cdx:groupId>
20468

>  <cdx:fragmentId>
20400

$$$$
