281788.cdx
  Mrv1902 05222410252D          

 45 48  0  0  0  0            999 V2000
    5.8721   -5.3663    0.0000 O   0  0  0  0  0  0  0  0  0  0  0  0
    5.8721   -6.1913    0.0000 C   0  0  0  0  0  0  0  0  0  0  0  0
    7.2968  -10.3163    0.0000 O   0  0  0  0  0  0  0  0  0  0  0  0
    5.8657  -11.1377    0.0000 O   0  0  0  0  0  0  0  0  0  0  0  0
    4.4389  -10.3090    0.0000 O   0  0  0  0  0  0  0  0  0  0  0  0
    3.7276   -9.0697    0.0000 O   0  0  0  0  0  0  0  0  0  0  0  0
    4.4431   -8.6590    0.0000 C   0  0  0  0  0  0  0  0  0  0  0  0
    5.8721   -8.6627    0.0000 O   0  0  0  0  0  0  0  0  0  0  0  0
    5.1565   -9.0733    0.0000 C   0  0  1  0  0  0  0  0  0  0  0  0
    5.1544   -9.8983    0.0000 C   0  0  2  0  0  0  0  0  0  0  0  0
    5.8678  -10.3127    0.0000 C   0  0  1  0  0  0  0  0  0  0  0  0
    6.5834   -9.9020    0.0000 C   0  0  2  0  0  0  0  0  0  0  0  0
    6.5855   -9.0770    0.0000 C   0  0  2  0  0  0  0  0  0  0  0  0
   13.0168   -7.8413    0.0000 O   0  0  0  0  0  0  0  0  0  0  0  0
   13.0168   -6.1913    0.0000 O   0  0  0  0  0  0  0  0  0  0  0  0
   10.8733   -7.4288    0.0000 C   0  0  0  0  0  0  0  0  0  0  0  0
   11.5878   -7.8413    0.0000 C   0  0  0  0  0  0  0  0  0  0  0  0
   12.3023   -7.4288    0.0000 C   0  0  0  0  0  0  0  0  0  0  0  0
   12.3023   -6.6038    0.0000 C   0  0  0  0  0  0  0  0  0  0  0  0
   11.5878   -6.1913    0.0000 C   0  0  0  0  0  0  0  0  0  0  0  0
   10.8733   -6.6038    0.0000 C   0  0  0  0  0  0  0  0  0  0  0  0
   10.1589   -6.1913    0.0000 C   0  0  0  0  0  0  0  0  0  0  0  0
    9.4444   -6.6038    0.0000 C   0  0  0  0  0  0  0  0  0  0  0  0
    8.7299   -6.1913    0.0000 O   0  0  0  0  0  0  0  0  0  0  0  0
    8.7299   -7.8413    0.0000 O   0  0  0  0  0  0  0  0  0  0  0  0
    7.3010   -8.6663    0.0000 O   0  0  0  0  0  0  0  0  0  0  0  0
    0.8708   -7.4288    0.0000 O   0  0  0  0  0  0  0  0  0  0  0  0
    0.8708   -9.0788    0.0000 O   0  0  0  0  0  0  0  0  0  0  0  0
    2.2997   -7.4288    0.0000 C   0  0  0  0  0  0  0  0  0  0  0  0
    1.5852   -7.8413    0.0000 C   0  0  0  0  0  0  0  0  0  0  0  0
    1.5852   -8.6663    0.0000 C   0  0  0  0  0  0  0  0  0  0  0  0
    2.2997   -9.0788    0.0000 C   0  0  0  0  0  0  0  0  0  0  0  0
    3.0142   -8.6663    0.0000 C   0  0  0  0  0  0  0  0  0  0  0  0
    3.0142   -7.8413    0.0000 C   0  0  0  0  0  0  0  0  0  0  0  0
    3.7286   -7.4288    0.0000 C   0  0  0  0  0  0  0  0  0  0  0  0
    5.1576   -6.6038    0.0000 O   0  0  0  0  0  0  0  0  0  0  0  0
    4.4431   -7.8413    0.0000 C   0  0  0  0  0  0  0  0  0  0  0  0
    5.1576   -7.4288    0.0000 C   0  0  0  0  0  0  0  0  0  0  0  0
    5.8721   -7.8413    0.0000 O   0  0  0  0  0  0  0  0  0  0  0  0
    7.3010   -6.1913    0.0000 O   0  0  0  0  0  0  0  0  0  0  0  0
    6.5865   -6.6038    0.0000 C   0  0  1  0  0  0  0  0  0  0  0  0
    6.5865   -7.4288    0.0000 C   0  0  2  0  0  0  0  0  0  0  0  0
    7.3010   -7.8413    0.0000 C   0  0  1  0  0  0  0  0  0  0  0  0
    8.0155   -7.4288    0.0000 C   0  0  2  0  0  0  0  0  0  0  0  0
    8.0155   -6.6038    0.0000 C   0  0  2  0  0  0  0  0  0  0  0  0
  2  1  1  0  0  0  0
 41  2  1  1  0  0  0
 12  3  1  6  0  0  0
 11  4  1  1  0  0  0
 10  5  1  6  0  0  0
  7  6  1  0  0  0  0
  9  7  1  1  0  0  0
  8 13  1  0  0  0  0
  9  8  1  0  0  0  0
 10  9  1  0  0  0  0
 11 10  1  0  0  0  0
 12 11  1  0  0  0  0
 13 12  1  0  0  0  0
 13 26  1  1  0  0  0
 18 14  1  0  0  0  0
 19 15  1  0  0  0  0
 16 21  1  0  0  0  0
 17 16  2  0  0  0  0
 18 17  1  0  0  0  0
 19 18  2  0  0  0  0
 20 19  1  0  0  0  0
 21 20  2  0  0  0  0
 22 21  1  0  0  0  0
 23 22  1  0  0  0  0
 24 23  1  0  0  0  0
 45 24  1  1  0  0  0
 44 25  1  6  0  0  0
 43 26  1  1  0  0  0
 30 27  1  0  0  0  0
 31 28  1  0  0  0  0
 29 34  1  0  0  0  0
 30 29  2  0  0  0  0
 31 30  1  0  0  0  0
 32 31  2  0  0  0  0
 33 32  1  0  0  0  0
 34 33  2  0  0  0  0
 35 34  1  0  0  0  0
 37 35  2  0  0  0  0
 38 36  2  0  0  0  0
 38 37  1  0  0  0  0
 39 38  1  0  0  0  0
 42 39  1  6  0  0  0
 40 45  1  0  0  0  0
 41 40  1  0  0  0  0
 42 41  1  0  0  0  0
 43 42  1  0  0  0  0
 44 43  1  0  0  0  0
 45 44  1  0  0  0  0
M  END
>  <cdx:fragmentId>
20921

$$$$
