281762.cdx
  Mrv1902 05222410252D          

 24 25  0  0  0  0            999 V2000
    8.5655   -5.7541    0.0000 O   0  0  0  0  0  0  0  0  0  0  0  0
    7.8510   -5.3416    0.0000 C   0  0  0  0  0  0  0  0  0  0  0  0
    7.1365   -5.7541    0.0000 C   0  0  0  0  0  0  0  0  0  0  0  0
    6.4220   -5.3416    0.0000 C   0  0  0  0  0  0  0  0  0  0  0  0
    5.7076   -5.7541    0.0000 C   0  0  0  0  0  0  0  0  0  0  0  0
    4.9931   -5.3416    0.0000 C   0  0  0  0  0  0  0  0  0  0  0  0
    4.2786   -5.7541    0.0000 C   0  0  0  0  0  0  0  0  0  0  0  0
    3.5642   -5.3416    0.0000 O   0  0  0  0  0  0  0  0  0  0  0  0
    4.2786   -6.5791    0.0000 C   0  0  0  0  0  0  0  0  0  0  0  0
    3.5642   -6.9916    0.0000 O   0  0  0  0  0  0  0  0  0  0  0  0
    4.9931   -6.9916    0.0000 C   0  0  0  0  0  0  0  0  0  0  0  0
    5.7076   -6.5791    0.0000 C   0  0  0  0  0  0  0  0  0  0  0  0
    7.8510   -4.5166    0.0000 O   0  0  0  0  0  0  0  0  0  0  0  0
    9.2799   -5.3416    0.0000 C   0  0  1  0  0  0  0  0  0  0  0  0
    9.9944   -5.7541    0.0000 C   0  0  1  0  0  0  0  0  0  0  0  0
   10.7089   -5.3416    0.0000 C   0  0  1  0  0  0  0  0  0  0  0  0
   10.7089   -4.5166    0.0000 C   0  0  0  0  0  0  0  0  0  0  0  0
    9.9944   -4.1041    0.0000 C   0  0  0  0  0  0  0  0  0  0  0  0
    9.2799   -4.5166    0.0000 C   0  0  0  0  0  0  0  0  0  0  0  0
    9.9944   -6.5791    0.0000 O   0  0  0  0  0  0  0  0  0  0  0  0
   11.4233   -5.7541    0.0000 O   0  0  0  0  0  0  0  0  0  0  0  0
    9.9944   -3.2791    0.0000 C   0  0  0  0  0  0  0  0  0  0  0  0
    9.2799   -2.8666    0.0000 O   0  0  0  0  0  0  0  0  0  0  0  0
   10.7089   -2.8666    0.0000 O   0  0  0  0  0  0  0  0  0  0  0  0
  2  3  1  0  0  0  0
  3  4  2  0  0  0  0
  4  5  1  0  0  0  0
  5  6  1  0  0  0  0
  6  7  2  0  0  0  0
  7  8  1  0  0  0  0
  7  9  1  0  0  0  0
  9 10  1  0  0  0  0
  9 11  2  0  0  0  0
 11 12  1  0  0  0  0
  5 12  2  0  0  0  0
  2 13  2  0  0  0  0
  1  2  1  0  0  0  0
 14  1  1  6  0  0  0
 14 15  1  0  0  0  0
 15 16  1  0  0  0  0
 16 17  1  0  0  0  0
 17 18  2  0  0  0  0
 18 19  1  0  0  0  0
 19 14  1  0  0  0  0
 15 20  1  1  0  0  0
 16 21  1  1  0  0  0
 18 22  1  0  0  0  0
 22 23  1  0  0  0  0
 22 24  2  0  0  0  0
M  END
>  <cdx:fragmentId>
19463

$$$$
