5281779.cdx
  Mrv1902 05222410212D          

 22 25  0  0  0  0            999 V2000
   15.7956   -7.5515    0.0000 C   0  0  0  0  0  0  0  0  0  0  0  0
   15.7956   -8.3765    0.0000 C   0  0  0  0  0  0  0  0  0  0  0  0
   15.0811   -8.7890    0.0000 C   0  0  0  0  0  0  0  0  0  0  0  0
   15.0811   -9.6140    0.0000 O   0  0  0  0  0  0  0  0  0  0  0  0
   14.3666   -8.3765    0.0000 C   0  0  0  0  0  0  0  0  0  0  0  0
   13.6522   -8.7890    0.0000 C   0  0  0  0  0  0  0  0  0  0  0  0
   12.9376   -8.3765    0.0000 C   0  0  0  0  0  0  0  0  0  0  0  0
   12.9376   -7.5515    0.0000 C   0  0  0  0  0  0  0  0  0  0  0  0
   13.6522   -7.1390    0.0000 C   0  0  0  0  0  0  0  0  0  0  0  0
   14.3666   -7.5515    0.0000 C   0  0  0  0  0  0  0  0  0  0  0  0
   15.0811   -7.1390    0.0000 O   0  0  0  0  0  0  0  0  0  0  0  0
   16.5100   -8.7890    0.0000 C   0  0  0  0  0  0  0  0  0  0  0  0
   17.2245   -8.3765    0.0000 C   0  0  0  0  0  0  0  0  0  0  0  0
   17.9390   -8.7890    0.0000 C   0  0  0  0  0  0  0  0  0  0  0  0
   17.9390   -9.6140    0.0000 C   0  0  0  0  0  0  0  0  0  0  0  0
   17.2245  -10.0265    0.0000 C   0  0  0  0  0  0  0  0  0  0  0  0
   16.5100   -9.6140    0.0000 C   0  0  0  0  0  0  0  0  0  0  0  0
   11.6682   -7.9640    0.0000 C   0  0  0  0  0  0  0  0  0  0  0  0
   12.1530   -8.6314    0.0000 O   0  0  0  0  0  0  0  0  0  0  0  0
   12.1530   -7.2966    0.0000 O   0  0  0  0  0  0  0  0  0  0  0  0
   13.6522   -9.6140    0.0000 O   0  0  0  0  0  0  0  0  0  0  0  0
   18.6534  -10.0265    0.0000 O   0  0  0  0  0  0  0  0  0  0  0  0
  1  2  2  0  0  0  0
  2  3  1  0  0  0  0
  3  4  2  0  0  0  0
  3  5  1  0  0  0  0
  5  6  1  0  0  0  0
  6  7  2  0  0  0  0
  7  8  1  0  0  0  0
  8  9  2  0  0  0  0
  9 10  1  0  0  0  0
  5 10  2  0  0  0  0
 10 11  1  0  0  0  0
  1 11  1  0  0  0  0
  2 12  1  0  0  0  0
 12 13  1  0  0  0  0
 13 14  2  0  0  0  0
 14 15  1  0  0  0  0
 15 16  2  0  0  0  0
 16 17  1  0  0  0  0
 12 17  2  0  0  0  0
 18 19  1  0  0  0  0
 18 20  1  0  0  0  0
  7 19  1  0  0  0  0
  8 20  1  0  0  0  0
  6 21  1  0  0  0  0
 15 22  1  0  0  0  0
M  END
>  <cdx:fragmentId>
20260

$$$$
