281778.cdx
  Mrv1902 05222410212D          

 46 49  0  0  0  0            999 V2000
   13.0360   -5.9526    0.0000 O   0  0  0  0  0  0  0  0  0  0  0  0
   13.0204   -7.6025    0.0000 O   0  0  0  0  0  0  0  0  0  0  0  0
   10.8809   -7.1697    0.0000 C   0  0  0  0  0  0  0  0  0  0  0  0
   11.5915   -7.5890    0.0000 C   0  0  0  0  0  0  0  0  0  0  0  0
   12.3098   -7.1833    0.0000 C   0  0  0  0  0  0  0  0  0  0  0  0
   12.3176   -6.3583    0.0000 C   0  0  0  0  0  0  0  0  0  0  0  0
   11.6071   -5.9391    0.0000 C   0  0  0  0  0  0  0  0  0  0  0  0
   10.8888   -6.3448    0.0000 C   0  0  0  0  0  0  0  0  0  0  0  0
   10.1860   -5.1006    0.0000 O   0  0  0  0  0  0  0  0  0  0  0  0
   10.1782   -5.9255    0.0000 C   0  0  2  0  0  0  0  0  0  0  0  0
    9.4599   -6.3313    0.0000 C   0  0  0  0  0  0  0  0  0  0  0  0
    8.7493   -5.9120    0.0000 O   0  0  0  0  0  0  0  0  0  0  0  0
    8.7337   -7.5619    0.0000 O   0  0  0  0  0  0  0  0  0  0  0  0
    5.8994   -5.0600    0.0000 O   0  0  0  0  0  0  0  0  0  0  0  0
    5.8916   -5.8850    0.0000 C   0  0  0  0  0  0  0  0  0  0  0  0
    7.2814  -10.0233    0.0000 O   0  0  0  0  0  0  0  0  0  0  0  0
    5.8448  -10.8348    0.0000 O   0  0  0  0  0  0  0  0  0  0  0  0
    4.4237   -9.9963    0.0000 O   0  0  0  0  0  0  0  0  0  0  0  0
    3.7210   -8.7521    0.0000 O   0  0  0  0  0  0  0  0  0  0  0  0
    4.4393   -8.3464    0.0000 C   0  0  0  0  0  0  0  0  0  0  0  0
    5.1498   -8.7656    0.0000 C   0  0  2  0  0  0  0  0  0  0  0  0
    5.1420   -9.5906    0.0000 C   0  0  2  0  0  0  0  0  0  0  0  0
    5.8526  -10.0098    0.0000 C   0  0  1  0  0  0  0  0  0  0  0  0
    6.5709   -9.6041    0.0000 C   0  0  2  0  0  0  0  0  0  0  0  0
    6.5787   -8.7791    0.0000 C   0  0  1  0  0  0  0  0  0  0  0  0
    5.8682   -8.3599    0.0000 O   0  0  0  0  0  0  0  0  0  0  0  0
    7.2970   -8.3734    0.0000 O   0  0  0  0  0  0  0  0  0  0  0  0
    8.0310   -6.3177    0.0000 C   0  0  1  0  0  0  0  0  0  0  0  0
    8.0232   -7.1427    0.0000 C   0  0  1  0  0  0  0  0  0  0  0  0
    7.3049   -7.5484    0.0000 C   0  0  2  0  0  0  0  0  0  0  0  0
    6.5943   -7.1292    0.0000 C   0  0  1  0  0  0  0  0  0  0  0  0
    6.6021   -6.3042    0.0000 C   0  0  2  0  0  0  0  0  0  0  0  0
    7.3205   -5.8985    0.0000 O   0  0  0  0  0  0  0  0  0  0  0  0
    0.8788   -7.0751    0.0000 O   0  0  0  0  0  0  0  0  0  0  0  0
    0.8632   -8.7251    0.0000 O   0  0  0  0  0  0  0  0  0  0  0  0
    3.0104   -8.3328    0.0000 C   0  0  0  0  0  0  0  0  0  0  0  0
    2.2921   -8.7386    0.0000 C   0  0  0  0  0  0  0  0  0  0  0  0
    1.5815   -8.3193    0.0000 C   0  0  0  0  0  0  0  0  0  0  0  0
    1.5893   -7.4944    0.0000 C   0  0  0  0  0  0  0  0  0  0  0  0
    2.3077   -7.0886    0.0000 C   0  0  0  0  0  0  0  0  0  0  0  0
    3.0182   -7.5079    0.0000 C   0  0  0  0  0  0  0  0  0  0  0  0
    5.8760   -7.5349    0.0000 O   0  0  0  0  0  0  0  0  0  0  0  0
    5.1732   -6.2907    0.0000 O   0  0  0  0  0  0  0  0  0  0  0  0
    3.7366   -7.1022    0.0000 C   0  0  0  0  0  0  0  0  0  0  0  0
    4.4471   -7.5214    0.0000 C   0  0  0  0  0  0  0  0  0  0  0  0
    5.1654   -7.1157    0.0000 C   0  0  0  0  0  0  0  0  0  0  0  0
 31 42  1  6  0  0  0
 28 12  1  1  0  0  0
 10  8  1  0  0  0  0
  6  1  1  0  0  0  0
  5  2  1  0  0  0  0
  8  3  2  0  0  0  0
  4  3  1  0  0  0  0
  5  4  2  0  0  0  0
  6  5  1  0  0  0  0
  7  6  2  0  0  0  0
  8  7  1  0  0  0  0
 10  9  1  1  0  0  0
 12 11  1  0  0  0  0
 11 10  1  0  0  0  0
 29 13  1  6  0  0  0
 32 15  1  1  0  0  0
 15 14  1  0  0  0  0
 30 27  1  1  0  0  0
 25 27  1  1  0  0  0
 24 16  1  6  0  0  0
 23 17  1  1  0  0  0
 22 18  1  6  0  0  0
 21 20  1  1  0  0  0
 20 19  1  0  0  0  0
 26 21  1  0  0  0  0
 22 21  1  0  0  0  0
 23 22  1  0  0  0  0
 24 23  1  0  0  0  0
 25 24  1  0  0  0  0
 26 25  1  0  0  0  0
 33 28  1  0  0  0  0
 29 28  1  0  0  0  0
 30 29  1  0  0  0  0
 31 30  1  0  0  0  0
 32 31  1  0  0  0  0
 33 32  1  0  0  0  0
 44 41  1  0  0  0  0
 39 34  1  0  0  0  0
 38 35  1  0  0  0  0
 41 36  2  0  0  0  0
 37 36  1  0  0  0  0
 38 37  2  0  0  0  0
 39 38  1  0  0  0  0
 40 39  2  0  0  0  0
 41 40  1  0  0  0  0
 46 42  1  0  0  0  0
 46 43  2  0  0  0  0
 45 44  2  0  0  0  0
 46 45  1  0  0  0  0
M  END
>  <cdx:groupId>
20249

>  <cdx:fragmentId>
20151

$$$$
