5281812.cdx
  Mrv1902 05222410222D          

 24 26  0  0  0  0            999 V2000
   15.8689   -9.4803    0.0000 C   0  0  0  0  0  0  0  0  0  0  0  0
   15.8689   -8.6553    0.0000 C   0  0  0  0  0  0  0  0  0  0  0  0
   15.1545   -8.2428    0.0000 C   0  0  0  0  0  0  0  0  0  0  0  0
   14.4400   -8.6553    0.0000 C   0  0  0  0  0  0  0  0  0  0  0  0
   14.4400   -9.4803    0.0000 C   0  0  0  0  0  0  0  0  0  0  0  0
   15.1545   -9.8928    0.0000 O   0  0  0  0  0  0  0  0  0  0  0  0
   13.7255   -9.8928    0.0000 C   0  0  0  0  0  0  0  0  0  0  0  0
   13.0111   -9.4803    0.0000 C   0  0  0  0  0  0  0  0  0  0  0  0
   13.0111   -8.6553    0.0000 C   0  0  0  0  0  0  0  0  0  0  0  0
   13.7255   -8.2428    0.0000 C   0  0  0  0  0  0  0  0  0  0  0  0
   15.1545   -7.4178    0.0000 O   0  0  0  0  0  0  0  0  0  0  0  0
   12.2966   -8.2428    0.0000 O   0  0  0  0  0  0  0  0  0  0  0  0
   11.5821   -8.6553    0.0000 C   0  0  0  0  0  0  0  0  0  0  0  0
   16.5834   -8.2428    0.0000 C   0  0  0  0  0  0  0  0  0  0  0  0
   16.5834   -7.4178    0.0000 C   0  0  0  0  0  0  0  0  0  0  0  0
   17.2979   -7.0053    0.0000 C   0  0  0  0  0  0  0  0  0  0  0  0
   18.0123   -7.4178    0.0000 C   0  0  0  0  0  0  0  0  0  0  0  0
   18.0123   -8.2428    0.0000 C   0  0  0  0  0  0  0  0  0  0  0  0
   17.2979   -8.6553    0.0000 C   0  0  0  0  0  0  0  0  0  0  0  0
   18.7268   -7.0053    0.0000 O   0  0  0  0  0  0  0  0  0  0  0  0
   12.2966   -9.8928    0.0000 O   0  0  0  0  0  0  0  0  0  0  0  0
   13.7255   -7.4178    0.0000 O   0  0  0  0  0  0  0  0  0  0  0  0
   19.4413   -7.4178    0.0000 C   0  0  0  0  0  0  0  0  0  0  0  0
   11.5821   -9.4803    0.0000 C   0  0  0  0  0  0  0  0  0  0  0  0
  1  2  2  0  0  0  0
  2  3  1  0  0  0  0
  3  4  1  0  0  0  0
  4  5  1  0  0  0  0
  5  6  1  0  0  0  0
  1  6  1  0  0  0  0
  7  8  1  0  0  0  0
  8  9  2  0  0  0  0
  9 10  1  0  0  0  0
 10  4  2  0  0  0  0
  7  5  2  0  0  0  0
  3 11  2  0  0  0  0
 12 13  1  0  0  0  0
  9 12  1  0  0  0  0
 14 15  1  0  0  0  0
 15 16  2  0  0  0  0
 16 17  1  0  0  0  0
 17 18  2  0  0  0  0
 18 19  1  0  0  0  0
 14 19  2  0  0  0  0
 17 20  1  0  0  0  0
  2 14  1  0  0  0  0
  8 21  1  0  0  0  0
 10 22  1  0  0  0  0
 20 23  1  0  0  0  0
 21 24  1  0  0  0  0
M  END
>  <cdx:fragmentId>
21964

$$$$
