281807.cdx
  Mrv1902 05222410222D          

 31 34  0  0  0  0            999 V2000
    6.7469   -6.4649    0.0000 O   0  0  0  0  0  0  0  0  0  0  0  0
    6.0306   -6.8742    0.0000 C   0  0  2  0  0  0  0  0  0  0  0  0
    5.3180   -6.4585    0.0000 C   0  0  1  0  0  0  0  0  0  0  0  0
    5.3217   -5.6335    0.0000 C   0  0  2  0  0  0  0  0  0  0  0  0
    6.0380   -5.2242    0.0000 C   0  0  1  0  0  0  0  0  0  0  0  0
    6.7506   -5.6399    0.0000 C   0  0  1  0  0  0  0  0  0  0  0  0
    7.4669   -5.2306    0.0000 C   0  0  0  0  0  0  0  0  0  0  0  0
    7.4669   -4.4056    0.0000 O   0  0  0  0  0  0  0  0  0  0  0  0
    6.0417   -4.3992    0.0000 O   0  0  0  0  0  0  0  0  0  0  0  0
    4.6091   -5.2178    0.0000 O   0  0  0  0  0  0  0  0  0  0  0  0
    4.6017   -6.8678    0.0000 O   0  0  0  0  0  0  0  0  0  0  0  0
    4.5980   -7.6928    0.0000 O   0  0  0  0  0  0  0  0  0  0  0  0
   11.0153  -10.6089    0.0000 O   0  0  0  0  0  0  0  0  0  0  0  0
    9.5938   -8.9526    0.0000 C   0  0  0  0  0  0  0  0  0  0  0  0
   10.3064   -9.3683    0.0000 C   0  0  0  0  0  0  0  0  0  0  0  0
   10.3027  -10.1933    0.0000 C   0  0  0  0  0  0  0  0  0  0  0  0
    9.5864  -10.6026    0.0000 C   0  0  0  0  0  0  0  0  0  0  0  0
    8.8738  -10.1869    0.0000 C   0  0  0  0  0  0  0  0  0  0  0  0
    8.8774   -9.3619    0.0000 C   0  0  0  0  0  0  0  0  0  0  0  0
    6.7433   -7.2898    0.0000 H   0  0  0  0  0  0  0  0  0  0  0  0
    7.4448  -10.1805    0.0000 O   0  0  0  0  0  0  0  0  0  0  0  0
    7.4559   -7.7055    0.0000 O   0  0  0  0  0  0  0  0  0  0  0  0
    6.7396   -8.1148    0.0000 C   0  0  0  0  0  0  0  0  0  0  0  0
    6.0270   -7.6992    0.0000 C   0  0  0  0  0  0  0  0  0  0  0  0
    5.3106   -8.1085    0.0000 C   0  0  0  0  0  0  0  0  0  0  0  0
    5.3070   -8.9335    0.0000 C   0  0  0  0  0  0  0  0  0  0  0  0
    6.0196   -9.3491    0.0000 C   0  0  0  0  0  0  0  0  0  0  0  0
    6.7359   -8.9398    0.0000 C   0  0  0  0  0  0  0  0  0  0  0  0
    7.4485   -9.3555    0.0000 C   0  0  0  0  0  0  0  0  0  0  0  0
    8.1648   -8.9462    0.0000 C   0  0  0  0  0  0  0  0  0  0  0  0
    8.1685   -8.1212    0.0000 C   0  0  0  0  0  0  0  0  0  0  0  0
 25 12  1  0  0  0  0
 30 19  1  0  0  0  0
 16 13  1  0  0  0  0
 19 14  2  0  0  0  0
 15 14  1  0  0  0  0
 16 15  2  0  0  0  0
 17 16  1  0  0  0  0
 18 17  2  0  0  0  0
 19 18  1  0  0  0  0
  2 24  1  0  0  0  0
  1  2  1  0  0  0  0
  2  3  1  0  0  0  0
 29 21  2  0  0  0  0
 31 22  1  0  0  0  0
 23 22  1  0  0  0  0
 28 23  2  0  0  0  0
 24 23  1  0  0  0  0
 25 24  2  0  0  0  0
 26 25  1  0  0  0  0
 27 26  2  0  0  0  0
 28 27  1  0  0  0  0
 29 28  1  0  0  0  0
 30 29  1  0  0  0  0
 31 30  2  0  0  0  0
  3  4  1  0  0  0  0
  4  5  1  0  0  0  0
  5  6  1  0  0  0  0
  1  6  1  0  0  0  0
  7  8  1  0  0  0  0
  6  7  1  1  0  0  0
  5  9  1  6  0  0  0
  4 10  1  1  0  0  0
  3 11  1  6  0  0  0
  2 20  1  6  0  0  0
M  END
>  <cdx:fragmentId>
43

$$$$
