5281814.cdx
  Mrv1902 05222410202D          

 25 27  0  0  0  0            999 V2000
    7.6189   -8.3490    0.0000 O   0  0  0  0  0  0  0  0  0  0  0  0
    7.6189   -7.5240    0.0000 C   0  0  0  0  0  0  0  0  0  0  0  0
    6.9044   -7.1115    0.0000 C   0  0  0  0  0  0  0  0  0  0  0  0
    6.1900   -7.5240    0.0000 C   0  0  0  0  0  0  0  0  0  0  0  0
    6.1900   -8.3490    0.0000 O   0  0  0  0  0  0  0  0  0  0  0  0
    5.4755   -7.1115    0.0000 C   0  0  0  0  0  0  0  0  0  0  0  0
    5.4755   -6.2865    0.0000 C   0  0  0  0  0  0  0  0  0  0  0  0
    4.7610   -5.8740    0.0000 O   0  0  0  0  0  0  0  0  0  0  0  0
    6.1900   -5.8740    0.0000 C   0  0  0  0  0  0  0  0  0  0  0  0
    6.9044   -6.2865    0.0000 C   0  0  0  0  0  0  0  0  0  0  0  0
    7.6189   -5.8740    0.0000 O   0  0  0  0  0  0  0  0  0  0  0  0
    8.3334   -6.2865    0.0000 C   0  0  0  0  0  0  0  0  0  0  0  0
    8.3334   -7.1115    0.0000 C   0  0  0  0  0  0  0  0  0  0  0  0
    9.0479   -7.5240    0.0000 C   0  0  0  0  0  0  0  0  0  0  0  0
    9.7623   -7.1115    0.0000 C   0  0  0  0  0  0  0  0  0  0  0  0
   10.4768   -7.5240    0.0000 C   0  0  0  0  0  0  0  0  0  0  0  0
   10.4768   -8.3490    0.0000 C   0  0  0  0  0  0  0  0  0  0  0  0
   11.1913   -8.7615    0.0000 O   0  0  0  0  0  0  0  0  0  0  0  0
    9.7623   -8.7615    0.0000 C   0  0  0  0  0  0  0  0  0  0  0  0
    9.0479   -8.3490    0.0000 C   0  0  0  0  0  0  0  0  0  0  0  0
    4.7610   -7.5240    0.0000 C   0  0  0  0  0  0  0  0  0  0  0  0
    4.0466   -7.1115    0.0000 C   0  0  0  0  0  0  0  0  0  0  0  0
    3.3321   -7.5240    0.0000 C   0  0  0  0  0  0  0  0  0  0  0  0
    3.3321   -8.3490    0.0000 C   0  0  0  0  0  0  0  0  0  0  0  0
    2.6176   -7.1115    0.0000 C   0  0  0  0  0  0  0  0  0  0  0  0
  1  2  2  0  0  0  0
  2  3  1  0  0  0  0
  3  4  1  0  0  0  0
  4  5  1  0  0  0  0
  4  6  2  0  0  0  0
  6  7  1  0  0  0  0
  7  8  1  0  0  0  0
  7  9  2  0  0  0  0
  9 10  1  0  0  0  0
  3 10  2  0  0  0  0
 10 11  1  0  0  0  0
 11 12  1  0  0  0  0
 12 13  2  0  0  0  0
  2 13  1  0  0  0  0
 13 14  1  0  0  0  0
 14 15  1  0  0  0  0
 15 16  2  0  0  0  0
 16 17  1  0  0  0  0
 17 18  1  0  0  0  0
 17 19  2  0  0  0  0
 19 20  1  0  0  0  0
 14 20  2  0  0  0  0
  6 21  1  0  0  0  0
 21 22  1  0  0  0  0
 22 23  2  0  0  0  0
 23 24  1  0  0  0  0
 23 25  1  0  0  0  0
M  END
>  <cdx:fragmentId>
22089

$$$$
