281848.cdx
  Mrv1902 05222410182D          

 26 26  0  0  0  0            999 V2000
   10.4551   -9.2343    0.0000 C   0  0  0  0  0  0  0  0  0  0  0  0
   11.2801   -9.2343    0.0000 C   0  0  0  0  0  0  0  0  0  0  0  0
   11.9946   -8.8218    0.0000 C   0  0  0  0  0  0  0  0  0  0  0  0
   12.7090   -9.2343    0.0000 C   0  0  0  0  0  0  0  0  0  0  0  0
   13.4235   -8.8218    0.0000 C   0  0  0  0  0  0  0  0  0  0  0  0
   14.1380   -9.2343    0.0000 C   0  0  0  0  0  0  0  0  0  0  0  0
   14.8524   -8.8218    0.0000 C   0  0  0  0  0  0  0  0  0  0  0  0
   15.5669   -9.2343    0.0000 C   0  0  0  0  0  0  0  0  0  0  0  0
    7.5956   -9.2343    0.0000 C   0  0  0  0  0  0  0  0  0  0  0  0
    6.8811   -8.8218    0.0000 C   0  0  0  0  0  0  0  0  0  0  0  0
    6.1667   -9.2343    0.0000 C   0  0  0  0  0  0  0  0  0  0  0  0
    5.4522   -8.8218    0.0000 C   0  0  0  0  0  0  0  0  0  0  0  0
    4.7377   -9.2343    0.0000 C   0  0  0  0  0  0  0  0  0  0  0  0
    4.0233   -8.8218    0.0000 C   0  0  0  0  0  0  0  0  0  0  0  0
    3.3088   -9.2343    0.0000 C   0  0  0  0  0  0  0  0  0  0  0  0
    0.4509   -9.2343    0.0000 O   0  0  0  0  0  0  0  0  0  0  0  0
    1.1654   -7.9968    0.0000 C   0  0  0  0  0  0  0  0  0  0  0  0
    1.8798   -7.5843    0.0000 C   0  0  0  0  0  0  0  0  0  0  0  0
    2.5943   -7.9968    0.0000 C   0  0  0  0  0  0  0  0  0  0  0  0
    2.5943   -8.8218    0.0000 C   0  0  0  0  0  0  0  0  0  0  0  0
    1.8798   -9.2343    0.0000 C   0  0  0  0  0  0  0  0  0  0  0  0
    1.1654   -8.8218    0.0000 C   0  0  0  0  0  0  0  0  0  0  0  0
    3.3088  -10.0593    0.0000 O   0  0  0  0  0  0  0  0  0  0  0  0
    8.3101   -8.8218    0.0000 C   0  0  0  0  0  0  0  0  0  0  0  0
    9.0246   -9.2343    0.0000 C   0  0  0  0  0  0  0  0  0  0  0  0
    9.7390   -8.8218    0.0000 C   0  0  0  0  0  0  0  0  0  0  0  0
 20 15  1  0  0  0  0
 10  9  1  0  0  0  0
 11 10  1  0  0  0  0
 12 11  1  0  0  0  0
 13 12  1  0  0  0  0
 14 13  1  0  0  0  0
 15 14  1  0  0  0  0
 22 16  1  0  0  0  0
 22 17  2  0  0  0  0
 18 17  1  0  0  0  0
 19 18  2  0  0  0  0
 20 19  1  0  0  0  0
 21 20  2  0  0  0  0
 22 21  1  0  0  0  0
  1  2  2  0  0  0  0
  2  3  1  0  0  0  0
  3  4  1  0  0  0  0
  4  5  1  0  0  0  0
  5  6  1  0  0  0  0
  6  7  1  0  0  0  0
 15 23  1  0  0  0  0
  7  8  1  0  0  0  0
  9 24  1  0  0  0  0
 24 25  1  0  0  0  0
 25 26  1  0  0  0  0
  1 26  1  0  0  0  0
M  END
>  <cdx:fragmentId>
22288

$$$$
