281813.cdx
  Mrv1902 05222410222D          

 23 26  0  0  0  0            999 V2000
    6.2330   -6.7099    0.0000 C   0  0  0  0  0  0  0  0  0  0  0  0
    6.2330   -7.5349    0.0000 C   0  0  0  0  0  0  0  0  0  0  0  0
    6.9474   -7.9474    0.0000 C   0  0  0  0  0  0  0  0  0  0  0  0
    7.6619   -7.5349    0.0000 C   0  0  0  0  0  0  0  0  0  0  0  0
    7.6619   -6.7099    0.0000 C   0  0  0  0  0  0  0  0  0  0  0  0
    6.9474   -6.2974    0.0000 O   0  0  0  0  0  0  0  0  0  0  0  0
    5.5185   -6.2974    0.0000 C   0  0  0  0  0  0  0  0  0  0  0  0
    4.8040   -6.7099    0.0000 C   0  0  0  0  0  0  0  0  0  0  0  0
    4.8040   -7.5349    0.0000 C   0  0  0  0  0  0  0  0  0  0  0  0
    5.5185   -7.9474    0.0000 C   0  0  0  0  0  0  0  0  0  0  0  0
    7.1190   -8.7544    0.0000 O   0  0  0  0  0  0  0  0  0  0  0  0
    7.9395   -8.8406    0.0000 C   0  0  0  0  0  0  0  0  0  0  0  0
    8.2750   -8.0869    0.0000 C   0  0  0  0  0  0  0  0  0  0  0  0
    8.4244   -9.5080    0.0000 C   0  0  0  0  0  0  0  0  0  0  0  0
    9.2449   -9.4218    0.0000 C   0  0  0  0  0  0  0  0  0  0  0  0
    9.5804   -8.6681    0.0000 C   0  0  0  0  0  0  0  0  0  0  0  0
    9.0955   -8.0007    0.0000 C   0  0  0  0  0  0  0  0  0  0  0  0
    4.0896   -6.2974    0.0000 O   0  0  0  0  0  0  0  0  0  0  0  0
    3.3751   -6.7099    0.0000 C   0  0  0  0  0  0  0  0  0  0  0  0
    5.5185   -8.7724    0.0000 O   0  0  0  0  0  0  0  0  0  0  0  0
    8.3764   -6.2974    0.0000 O   0  0  0  0  0  0  0  0  0  0  0  0
   10.4009   -8.5819    0.0000 O   0  0  0  0  0  0  0  0  0  0  0  0
    9.7298  -10.0892    0.0000 O   0  0  0  0  0  0  0  0  0  0  0  0
  1  2  1  0  0  0  0
  2  3  1  0  0  0  0
  3  4  2  0  0  0  0
  4  5  1  0  0  0  0
  5  6  1  0  0  0  0
  6  1  1  0  0  0  0
  1  7  2  0  0  0  0
  7  8  1  0  0  0  0
  8  9  2  0  0  0  0
  9 10  1  0  0  0  0
 10  2  2  0  0  0  0
  3 11  1  0  0  0  0
 11 12  1  0  0  0  0
 12 13  2  0  0  0  0
 13  4  1  0  0  0  0
 12 14  1  0  0  0  0
 14 15  2  0  0  0  0
 15 16  1  0  0  0  0
 16 17  2  0  0  0  0
 17 13  1  0  0  0  0
  8 18  1  0  0  0  0
 18 19  1  0  0  0  0
 10 20  1  0  0  0  0
  5 21  2  0  0  0  0
 16 22  1  0  0  0  0
 15 23  1  0  0  0  0
M  END
>  <cdx:fragmentId>
22034

$$$$
