281868.cdx
  Mrv1902 05222410272D          

 28 29  0  0  0  0            999 V2000
    6.3849   -7.1805    0.0000 C   0  0  2  0  0  0  0  0  0  0  0  0
    7.0929   -6.7571    0.0000 C   0  0  1  0  0  0  0  0  0  0  0  0
    7.8137   -7.1585    0.0000 C   0  0  0  0  0  0  0  0  0  0  0  0
    5.6641   -6.7790    0.0000 O   0  0  0  0  0  0  0  0  0  0  0  0
    6.3976   -8.0054    0.0000 C   0  0  0  0  0  0  0  0  0  0  0  0
    7.1183   -8.4069    0.0000 C   0  0  0  0  0  0  0  0  0  0  0  0
    7.1310   -9.2318    0.0000 C   0  0  0  0  0  0  0  0  0  0  0  0
    6.4229   -9.6552    0.0000 C   0  0  0  0  0  0  0  0  0  0  0  0
    5.7022   -9.2537    0.0000 C   0  0  0  0  0  0  0  0  0  0  0  0
    5.6895   -8.4288    0.0000 C   0  0  0  0  0  0  0  0  0  0  0  0
    4.9942   -9.6772    0.0000 O   0  0  0  0  0  0  0  0  0  0  0  0
    4.2797   -9.2647    0.0000 C   0  0  0  0  0  0  0  0  0  0  0  0
    6.4356  -10.4801    0.0000 O   0  0  0  0  0  0  0  0  0  0  0  0
    5.7276  -10.9036    0.0000 C   0  0  0  0  0  0  0  0  0  0  0  0
    7.8517   -9.6332    0.0000 O   0  0  0  0  0  0  0  0  0  0  0  0
    7.8644  -10.4581    0.0000 C   0  0  0  0  0  0  0  0  0  0  0  0
    7.0802   -5.9322    0.0000 O   0  0  0  0  0  0  0  0  0  0  0  0
    7.7883   -5.5087    0.0000 C   0  0  0  0  0  0  0  0  0  0  0  0
    8.5090   -5.9102    0.0000 C   0  0  0  0  0  0  0  0  0  0  0  0
    9.2170   -5.4867    0.0000 C   0  0  0  0  0  0  0  0  0  0  0  0
    9.2044   -4.6618    0.0000 C   0  0  0  0  0  0  0  0  0  0  0  0
    8.4836   -4.2604    0.0000 C   0  0  0  0  0  0  0  0  0  0  0  0
    7.7756   -4.6838    0.0000 C   0  0  0  0  0  0  0  0  0  0  0  0
    9.9124   -4.2384    0.0000 C   0  0  0  0  0  0  0  0  0  0  0  0
    9.8997   -3.4135    0.0000 C   0  0  0  0  0  0  0  0  0  0  0  0
   10.6078   -2.9901    0.0000 C   0  0  0  0  0  0  0  0  0  0  0  0
    8.5217   -6.7351    0.0000 O   0  0  0  0  0  0  0  0  0  0  0  0
    9.2424   -7.1366    0.0000 C   0  0  0  0  0  0  0  0  0  0  0  0
  1  2  1  0  0  0  0
  2  3  1  0  0  0  0
  1  4  1  1  0  0  0
  5  6  1  0  0  0  0
  6  7  2  0  0  0  0
  7  8  1  0  0  0  0
  8  9  2  0  0  0  0
  9 10  1  0  0  0  0
  5 10  2  0  0  0  0
 11 12  1  0  0  0  0
  9 11  1  0  0  0  0
 13 14  1  0  0  0  0
  8 13  1  0  0  0  0
 15 16  1  0  0  0  0
  7 15  1  0  0  0  0
  1  5  1  0  0  0  0
 18 19  1  0  0  0  0
 19 20  2  0  0  0  0
 20 21  1  0  0  0  0
 21 22  2  0  0  0  0
 22 23  1  0  0  0  0
 18 23  2  0  0  0  0
 17 18  1  0  0  0  0
 24 25  2  0  0  0  0
 25 26  1  0  0  0  0
 21 24  1  0  0  0  0
 27 28  1  0  0  0  0
 19 27  1  0  0  0  0
  2 17  1  6  0  0  0
M  END
>  <cdx:fragmentId>
22429

$$$$
