281806.cdx
  Mrv1902 05222410222D          

 25 28  0  0  0  0            999 V2000
    5.4580   -6.9893    0.0000 C   0  0  0  0  0  0  0  0  0  0  0  0
    5.4580   -7.8143    0.0000 C   0  0  0  0  0  0  0  0  0  0  0  0
    6.1725   -8.2268    0.0000 C   0  0  0  0  0  0  0  0  0  0  0  0
    6.8870   -7.8143    0.0000 C   0  0  0  0  0  0  0  0  0  0  0  0
    6.8870   -6.9893    0.0000 C   0  0  0  0  0  0  0  0  0  0  0  0
    6.1725   -6.5768    0.0000 C   0  0  0  0  0  0  0  0  0  0  0  0
    7.6015   -8.2268    0.0000 C   0  0  0  0  0  0  0  0  0  0  0  0
    8.3159   -7.8143    0.0000 C   0  0  0  0  0  0  0  0  0  0  0  0
    8.3159   -6.9893    0.0000 C   0  0  0  0  0  0  0  0  0  0  0  0
    7.6015   -6.5768    0.0000 O   0  0  0  0  0  0  0  0  0  0  0  0
    7.7730   -9.0338    0.0000 O   0  0  0  0  0  0  0  0  0  0  0  0
    8.5935   -9.1200    0.0000 C   0  0  0  0  0  0  0  0  0  0  0  0
    8.9290   -8.3664    0.0000 C   0  0  0  0  0  0  0  0  0  0  0  0
    9.0784   -9.7875    0.0000 C   0  0  0  0  0  0  0  0  0  0  0  0
    9.8988   -9.7012    0.0000 C   0  0  0  0  0  0  0  0  0  0  0  0
   10.2344   -8.9476    0.0000 C   0  0  0  0  0  0  0  0  0  0  0  0
    9.7495   -8.2801    0.0000 C   0  0  0  0  0  0  0  0  0  0  0  0
    4.7435   -8.2268    0.0000 C   0  0  0  0  0  0  0  0  0  0  0  0
    4.0291   -7.8143    0.0000 C   0  0  0  0  0  0  0  0  0  0  0  0
    3.3146   -8.2268    0.0000 C   0  0  0  0  0  0  0  0  0  0  0  0
    2.6002   -7.8143    0.0000 C   0  0  0  0  0  0  0  0  0  0  0  0
    3.3146   -9.0518    0.0000 C   0  0  0  0  0  0  0  0  0  0  0  0
    4.7435   -6.5768    0.0000 O   0  0  0  0  0  0  0  0  0  0  0  0
    9.0304   -6.5768    0.0000 O   0  0  0  0  0  0  0  0  0  0  0  0
   10.3838  -10.3687    0.0000 O   0  0  0  0  0  0  0  0  0  0  0  0
  1  2  1  0  0  0  0
  2  3  2  0  0  0  0
  3  4  1  0  0  0  0
  4  5  2  0  0  0  0
  5  6  1  0  0  0  0
  6  1  2  0  0  0  0
  4  7  1  0  0  0  0
  7  8  2  0  0  0  0
  8  9  1  0  0  0  0
  9 10  1  0  0  0  0
 10  5  1  0  0  0  0
  7 11  1  0  0  0  0
 11 12  1  0  0  0  0
 12 13  2  0  0  0  0
 13  8  1  0  0  0  0
 12 14  1  0  0  0  0
 14 15  2  0  0  0  0
 15 16  1  0  0  0  0
 16 17  2  0  0  0  0
 17 13  1  0  0  0  0
  2 18  1  0  0  0  0
 18 19  1  0  0  0  0
 19 20  2  0  0  0  0
 20 21  1  0  0  0  0
 20 22  1  0  0  0  0
  1 23  1  0  0  0  0
  9 24  2  0  0  0  0
 15 25  1  0  0  0  0
M  END
>  <cdx:fragmentId>
21725

$$$$
