5281854.cdx
  Mrv1902 05222410282D          

 22 22  0  0  0  0            999 V2000
   22.2219   -8.7393    0.0000 C   0  0  0  0  0  0  0  0  0  0  0  0
   21.5074   -9.1518    0.0000 C   0  0  0  0  0  0  0  0  0  0  0  0
   20.7930   -8.7393    0.0000 C   0  0  0  0  0  0  0  0  0  0  0  0
   20.0785   -9.1518    0.0000 C   0  0  0  0  0  0  0  0  0  0  0  0
   19.3640   -8.7393    0.0000 C   0  0  0  0  0  0  0  0  0  0  0  0
   18.6496   -9.1518    0.0000 C   0  0  0  0  0  0  0  0  0  0  0  0
   17.9351   -8.7393    0.0000 C   0  0  0  0  0  0  0  0  0  0  0  0
   17.1101   -8.7393    0.0000 C   0  0  0  0  0  0  0  0  0  0  0  0
   16.3956   -9.1518    0.0000 C   0  0  0  0  0  0  0  0  0  0  0  0
   15.6811   -8.7393    0.0000 C   0  0  0  0  0  0  0  0  0  0  0  0
   14.9667   -9.1518    0.0000 C   0  0  0  0  0  0  0  0  0  0  0  0
   14.2522   -8.7393    0.0000 C   0  0  0  0  0  0  0  0  0  0  0  0
   13.5377   -9.1518    0.0000 C   0  0  0  0  0  0  0  0  0  0  0  0
   12.8233   -8.7393    0.0000 C   0  0  0  0  0  0  0  0  0  0  0  0
   12.1088   -9.1518    0.0000 C   0  0  0  0  0  0  0  0  0  0  0  0
    9.2509   -9.1518    0.0000 O   0  0  0  0  0  0  0  0  0  0  0  0
    9.9654   -7.9143    0.0000 C   0  0  0  0  0  0  0  0  0  0  0  0
   10.6798   -7.5018    0.0000 C   0  0  0  0  0  0  0  0  0  0  0  0
   11.3943   -7.9143    0.0000 C   0  0  0  0  0  0  0  0  0  0  0  0
   11.3943   -8.7393    0.0000 C   0  0  0  0  0  0  0  0  0  0  0  0
   10.6798   -9.1518    0.0000 C   0  0  0  0  0  0  0  0  0  0  0  0
    9.9654   -8.7393    0.0000 C   0  0  0  0  0  0  0  0  0  0  0  0
 20 15  1  0  0  0  0
  2  1  1  0  0  0  0
  3  2  1  0  0  0  0
  4  3  1  0  0  0  0
  5  4  1  0  0  0  0
  6  5  1  0  0  0  0
  7  6  1  0  0  0  0
  8  7  2  0  0  0  0
  9  8  1  0  0  0  0
 10  9  1  0  0  0  0
 11 10  1  0  0  0  0
 12 11  1  0  0  0  0
 13 12  1  0  0  0  0
 14 13  1  0  0  0  0
 15 14  1  0  0  0  0
 22 16  1  0  0  0  0
 22 17  2  0  0  0  0
 18 17  1  0  0  0  0
 19 18  2  0  0  0  0
 20 19  1  0  0  0  0
 21 20  2  0  0  0  0
 22 21  1  0  0  0  0
M  END
>  <cdx:groupId>
22337

>  <cdx:fragmentId>
22288

$$$$
