281800.cdx
  Mrv1902 05222410202D          

 44 47  0  0  0  0            999 V2000
    6.2659   -5.8839    0.0000 O   0  0  0  0  0  0  0  0  0  0  0  0
   13.4106   -8.3589    0.0000 O   0  0  0  0  0  0  0  0  0  0  0  0
   13.4106   -6.7089    0.0000 O   0  0  0  0  0  0  0  0  0  0  0  0
    7.6949   -9.1839    0.0000 O   0  0  0  0  0  0  0  0  0  0  0  0
    6.2659   -6.7089    0.0000 C   0  0  0  0  0  0  0  0  0  0  0  0
    3.4081   -8.3583    0.0000 C   0  0  0  0  0  0  0  0  0  0  0  0
    7.6949   -6.7089    0.0000 O   0  0  0  0  0  0  0  0  0  0  0  0
    6.9804   -7.1214    0.0000 C   0  0  1  0  0  0  0  0  0  0  0  0
    6.9804   -7.9464    0.0000 C   0  0  2  0  0  0  0  0  0  0  0  0
    7.6949   -8.3589    0.0000 C   0  0  1  0  0  0  0  0  0  0  0  0
    9.1238   -6.7089    0.0000 O   0  0  0  0  0  0  0  0  0  0  0  0
    8.4094   -7.1214    0.0000 C   0  0  1  0  0  0  0  0  0  0  0  0
    8.4094   -7.9464    0.0000 C   0  0  2  0  0  0  0  0  0  0  0  0
    9.1238   -8.3589    0.0000 O   0  0  0  0  0  0  0  0  0  0  0  0
   10.5528   -6.7089    0.0000 C   0  0  0  0  0  0  0  0  0  0  0  0
    9.8383   -7.1214    0.0000 C   0  0  0  0  0  0  0  0  0  0  0  0
   11.9817   -6.7089    0.0000 C   0  0  0  0  0  0  0  0  0  0  0  0
   11.2672   -7.1214    0.0000 C   0  0  0  0  0  0  0  0  0  0  0  0
   11.2672   -7.9464    0.0000 C   0  0  0  0  0  0  0  0  0  0  0  0
   11.9817   -8.3589    0.0000 C   0  0  0  0  0  0  0  0  0  0  0  0
   12.6962   -7.9464    0.0000 C   0  0  0  0  0  0  0  0  0  0  0  0
   12.6962   -7.1214    0.0000 C   0  0  0  0  0  0  0  0  0  0  0  0
    2.6937   -7.9456    0.0000 C   0  0  0  0  0  0  0  0  0  0  0  0
    1.9791   -8.3579    0.0000 C   0  0  0  0  0  0  0  0  0  0  0  0
    1.9789   -9.1829    0.0000 C   0  0  0  0  0  0  0  0  0  0  0  0
    2.6933   -9.5956    0.0000 C   0  0  0  0  0  0  0  0  0  0  0  0
    3.4079   -9.1833    0.0000 C   0  0  0  0  0  0  0  0  0  0  0  0
    1.2644   -9.5953    0.0000 O   0  0  0  0  0  0  0  0  0  0  0  0
    1.2647   -7.9453    0.0000 O   0  0  0  0  0  0  0  0  0  0  0  0
    4.1226   -7.9459    0.0000 C   0  0  0  0  0  0  0  0  0  0  0  0
    5.5517   -7.1212    0.0000 O   0  0  0  0  0  0  0  0  0  0  0  0
    4.8370   -8.3586    0.0000 C   0  0  0  0  0  0  0  0  0  0  0  0
    5.5516   -7.9462    0.0000 C   0  0  0  0  0  0  0  0  0  0  0  0
    6.2659   -8.3589    0.0000 O   0  0  0  0  0  0  0  0  0  0  0  0
    6.9742   -9.5854    0.0000 C   0  0  2  0  0  0  0  0  0  0  0  0
    6.2661   -9.1620    0.0000 O   0  0  0  0  0  0  0  0  0  0  0  0
    5.5454   -9.5635    0.0000 C   0  0  2  0  0  0  0  0  0  0  0  0
    5.5328  -10.3884    0.0000 C   0  0  1  0  0  0  0  0  0  0  0  0
    6.2408  -10.8118    0.0000 C   0  0  2  0  0  0  0  0  0  0  0  0
    6.9615  -10.4103    0.0000 C   0  0  1  0  0  0  0  0  0  0  0  0
    4.8121  -10.7899    0.0000 O   0  0  0  0  0  0  0  0  0  0  0  0
    4.8373   -9.1401    0.0000 C   0  0  0  0  0  0  0  0  0  0  0  0
    6.2282  -11.6367    0.0000 O   0  0  0  0  0  0  0  0  0  0  0  0
    7.6696  -10.8337    0.0000 O   0  0  0  0  0  0  0  0  0  0  0  0
  5  1  1  0  0  0  0
 21  2  1  0  0  0  0
 22  3  1  0  0  0  0
 10  4  1  1  0  0  0
  8  5  1  1  0  0  0
  9 34  1  6  0  0  0
  7 12  1  0  0  0  0
  8  7  1  0  0  0  0
  9  8  1  0  0  0  0
 10  9  1  0  0  0  0
 13 10  1  0  0  0  0
 11 16  1  0  0  0  0
 12 11  1  1  0  0  0
 13 12  1  0  0  0  0
 13 14  1  6  0  0  0
 15 18  1  0  0  0  0
 16 15  1  0  0  0  0
 17 22  1  0  0  0  0
 18 17  2  0  0  0  0
 19 18  1  0  0  0  0
 20 19  2  0  0  0  0
 21 20  1  0  0  0  0
 22 21  2  0  0  0  0
  6 23  2  0  0  0  0
 23 24  1  0  0  0  0
 24 25  2  0  0  0  0
 25 26  1  0  0  0  0
 26 27  2  0  0  0  0
 27  6  1  0  0  0  0
 25 28  1  0  0  0  0
 30  6  1  0  0  0  0
 24 29  1  0  0  0  0
 32 30  2  0  0  0  0
 33 31  2  0  0  0  0
 33 32  1  0  0  0  0
 34 33  1  0  0  0  0
 35  4  1  1  0  0  0
 35 36  1  0  0  0  0
 36 37  1  0  0  0  0
 37 38  1  0  0  0  0
 38 39  1  0  0  0  0
 39 40  1  0  0  0  0
 40 35  1  0  0  0  0
 38 41  1  1  0  0  0
 37 42  1  6  0  0  0
 39 43  1  6  0  0  0
 40 44  1  6  0  0  0
M  END
>  <cdx:fragmentId>
423

$$$$
