281859.cdx
  Mrv1902 05222410192D          

 27 27  0  0  0  0            999 V2000
    2.1730   -9.5150    0.0000 C   0  0  0  0  0  0  0  0  0  0  0  0
    2.1730  -10.3400    0.0000 C   0  0  0  0  0  0  0  0  0  0  0  0
    2.8875  -10.7525    0.0000 C   0  0  0  0  0  0  0  0  0  0  0  0
    3.6020  -10.3400    0.0000 C   0  0  0  0  0  0  0  0  0  0  0  0
    3.6020   -9.5150    0.0000 C   0  0  0  0  0  0  0  0  0  0  0  0
    2.8875   -9.1025    0.0000 C   0  0  0  0  0  0  0  0  0  0  0  0
    1.4586   -9.1025    0.0000 O   0  0  0  0  0  0  0  0  0  0  0  0
    2.8875   -8.2775    0.0000 C   0  0  0  0  0  0  0  0  0  0  0  0
    2.1730   -7.8650    0.0000 O   0  0  0  0  0  0  0  0  0  0  0  0
    3.6020   -7.8650    0.0000 O   0  0  0  0  0  0  0  0  0  0  0  0
    4.3164   -9.1025    0.0000 C   0  0  0  0  0  0  0  0  0  0  0  0
    5.0309   -9.5150    0.0000 C   0  0  0  0  0  0  0  0  0  0  0  0
    5.7454   -9.1025    0.0000 C   0  0  0  0  0  0  0  0  0  0  0  0
    6.4599   -9.5150    0.0000 C   0  0  0  0  0  0  0  0  0  0  0  0
    7.1743   -9.1025    0.0000 C   0  0  0  0  0  0  0  0  0  0  0  0
    7.8888   -9.5150    0.0000 C   0  0  0  0  0  0  0  0  0  0  0  0
    8.6033   -9.1025    0.0000 C   0  0  0  0  0  0  0  0  0  0  0  0
   10.8302   -9.5425    0.0000 C   0  0  0  0  0  0  0  0  0  0  0  0
   11.5447   -9.1300    0.0000 C   0  0  0  0  0  0  0  0  0  0  0  0
   11.5447   -8.3050    0.0000 C   0  0  0  0  0  0  0  0  0  0  0  0
   12.2592   -7.8925    0.0000 C   0  0  0  0  0  0  0  0  0  0  0  0
   12.2592   -7.0675    0.0000 C   0  0  0  0  0  0  0  0  0  0  0  0
   12.9737   -6.6550    0.0000 C   0  0  0  0  0  0  0  0  0  0  0  0
   12.9737   -5.8300    0.0000 C   0  0  0  0  0  0  0  0  0  0  0  0
   13.6881   -5.4175    0.0000 C   0  0  0  0  0  0  0  0  0  0  0  0
    9.3177   -9.5150    0.0000 C   0  0  0  0  0  0  0  0  0  0  0  0
   10.0322   -9.1025    0.0000 C   0  0  0  0  0  0  0  0  0  0  0  0
  1  2  2  0  0  0  0
  2  3  1  0  0  0  0
  3  4  2  0  0  0  0
  4  5  1  0  0  0  0
  5  6  2  0  0  0  0
  6  1  1  0  0  0  0
  1  7  1  0  0  0  0
  6  8  1  0  0  0  0
  8  9  2  0  0  0  0
  8 10  1  0  0  0  0
  5 11  1  0  0  0  0
 11 12  1  0  0  0  0
 12 13  1  0  0  0  0
 13 14  1  0  0  0  0
 14 15  1  0  0  0  0
 15 16  1  0  0  0  0
 16 17  1  0  0  0  0
 18 19  2  0  0  0  0
 19 20  1  0  0  0  0
 20 21  1  0  0  0  0
 21 22  1  0  0  0  0
 22 23  1  0  0  0  0
 23 24  1  0  0  0  0
 24 25  1  0  0  0  0
 17 26  1  0  0  0  0
 26 27  1  0  0  0  0
 27 18  1  0  0  0  0
M  END
>  <cdx:fragmentId>
316

$$$$
