281860.cdx
  Mrv1902 05222410182D          

 27 27  0  0  0  0            999 V2000
    1.9530   -8.1675    0.0000 C   0  0  0  0  0  0  0  0  0  0  0  0
    1.9530   -8.9925    0.0000 C   0  0  0  0  0  0  0  0  0  0  0  0
    2.6675   -9.4050    0.0000 C   0  0  0  0  0  0  0  0  0  0  0  0
    3.3820   -8.9925    0.0000 C   0  0  0  0  0  0  0  0  0  0  0  0
    3.3820   -8.1675    0.0000 C   0  0  0  0  0  0  0  0  0  0  0  0
    2.6675   -7.7550    0.0000 C   0  0  0  0  0  0  0  0  0  0  0  0
    1.2386   -7.7550    0.0000 O   0  0  0  0  0  0  0  0  0  0  0  0
    2.6675   -6.9300    0.0000 C   0  0  0  0  0  0  0  0  0  0  0  0
    1.9530   -6.5175    0.0000 O   0  0  0  0  0  0  0  0  0  0  0  0
    3.3820   -6.5175    0.0000 O   0  0  0  0  0  0  0  0  0  0  0  0
    4.0964   -7.7550    0.0000 C   0  0  0  0  0  0  0  0  0  0  0  0
    4.8109   -8.1675    0.0000 C   0  0  0  0  0  0  0  0  0  0  0  0
    5.5254   -7.7550    0.0000 C   0  0  0  0  0  0  0  0  0  0  0  0
    6.2399   -8.1675    0.0000 C   0  0  0  0  0  0  0  0  0  0  0  0
    6.9543   -7.7550    0.0000 C   0  0  0  0  0  0  0  0  0  0  0  0
    7.6688   -8.1675    0.0000 C   0  0  0  0  0  0  0  0  0  0  0  0
    8.3833   -7.7550    0.0000 C   0  0  0  0  0  0  0  0  0  0  0  0
    9.0977   -8.1675    0.0000 C   0  0  0  0  0  0  0  0  0  0  0  0
    9.8122   -7.7550    0.0000 C   0  0  0  0  0  0  0  0  0  0  0  0
    9.8122   -6.9300    0.0000 C   0  0  0  0  0  0  0  0  0  0  0  0
   10.5267   -6.5175    0.0000 C   0  0  0  0  0  0  0  0  0  0  0  0
   10.5267   -5.6925    0.0000 C   0  0  0  0  0  0  0  0  0  0  0  0
    9.8122   -5.2800    0.0000 C   0  0  0  0  0  0  0  0  0  0  0  0
    9.8122   -4.4550    0.0000 C   0  0  0  0  0  0  0  0  0  0  0  0
    9.0977   -4.0425    0.0000 C   0  0  0  0  0  0  0  0  0  0  0  0
    9.0977   -3.2175    0.0000 C   0  0  0  0  0  0  0  0  0  0  0  0
    8.3833   -2.8050    0.0000 C   0  0  0  0  0  0  0  0  0  0  0  0
  1  2  2  0  0  0  0
  2  3  1  0  0  0  0
  3  4  2  0  0  0  0
  4  5  1  0  0  0  0
  5  6  2  0  0  0  0
  6  1  1  0  0  0  0
  1  7  1  0  0  0  0
  6  8  1  0  0  0  0
  8  9  2  0  0  0  0
  8 10  1  0  0  0  0
  5 11  1  0  0  0  0
 11 12  1  0  0  0  0
 12 13  1  0  0  0  0
 13 14  1  0  0  0  0
 14 15  1  0  0  0  0
 15 16  1  0  0  0  0
 16 17  1  0  0  0  0
 17 18  1  0  0  0  0
 18 19  2  0  0  0  0
 19 20  1  0  0  0  0
 20 21  1  0  0  0  0
 21 22  2  0  0  0  0
 22 23  1  0  0  0  0
 23 24  1  0  0  0  0
 24 25  1  0  0  0  0
 25 26  1  0  0  0  0
 26 27  1  0  0  0  0
M  END
>  <cdx:fragmentId>
356

$$$$
