5281855.cdx
  Mrv1902 05222410262D          

 22 25  0  0  0  0            999 V2000
    7.7122   -9.6178    0.0000 O   0  0  0  0  0  0  0  0  0  0  0  0
    7.7122   -8.7928    0.0000 C   0  0  0  0  0  0  0  0  0  0  0  0
    8.4266   -8.3803    0.0000 O   0  0  0  0  0  0  0  0  0  0  0  0
    8.4280   -7.5553    0.0000 C   0  0  0  0  0  0  0  0  0  0  0  0
    9.1424   -7.1428    0.0000 C   0  0  0  0  0  0  0  0  0  0  0  0
    9.8569   -7.5553    0.0000 O   0  0  0  0  0  0  0  0  0  0  0  0
    9.1424   -6.3178    0.0000 C   0  0  0  0  0  0  0  0  0  0  0  0
    9.8569   -5.9053    0.0000 O   0  0  0  0  0  0  0  0  0  0  0  0
    8.4280   -5.9053    0.0000 C   0  0  0  0  0  0  0  0  0  0  0  0
    7.7135   -6.3178    0.0000 C   0  0  0  0  0  0  0  0  0  0  0  0
    7.7135   -7.1428    0.0000 C   0  0  0  0  0  0  0  0  0  0  0  0
    6.9990   -7.5553    0.0000 C   0  0  0  0  0  0  0  0  0  0  0  0
    6.2845   -7.1428    0.0000 C   0  0  0  0  0  0  0  0  0  0  0  0
    6.2845   -6.3178    0.0000 O   0  0  0  0  0  0  0  0  0  0  0  0
    6.9990   -5.9053    0.0000 C   0  0  0  0  0  0  0  0  0  0  0  0
    6.9990   -5.0803    0.0000 O   0  0  0  0  0  0  0  0  0  0  0  0
    5.5701   -7.5553    0.0000 C   0  0  0  0  0  0  0  0  0  0  0  0
    4.8556   -7.1428    0.0000 O   0  0  0  0  0  0  0  0  0  0  0  0
    5.5701   -8.3803    0.0000 C   0  0  0  0  0  0  0  0  0  0  0  0
    4.8556   -8.7928    0.0000 O   0  0  0  0  0  0  0  0  0  0  0  0
    6.2845   -8.7928    0.0000 C   0  0  0  0  0  0  0  0  0  0  0  0
    6.9990   -8.3803    0.0000 C   0  0  0  0  0  0  0  0  0  0  0  0
  1  2  2  0  0  0  0
  2  3  1  0  0  0  0
  3  4  1  0  0  0  0
  4  5  1  0  0  0  0
  5  6  1  0  0  0  0
  5  7  2  0  0  0  0
  7  8  1  0  0  0  0
  7  9  1  0  0  0  0
  9 10  2  0  0  0  0
 10 11  1  0  0  0  0
  4 11  2  0  0  0  0
 11 12  1  0  0  0  0
 12 13  1  0  0  0  0
 13 14  1  0  0  0  0
 14 15  1  0  0  0  0
 10 15  1  0  0  0  0
 15 16  2  0  0  0  0
 13 17  2  0  0  0  0
 17 18  1  0  0  0  0
 17 19  1  0  0  0  0
 19 20  1  0  0  0  0
 19 21  2  0  0  0  0
 21 22  1  0  0  0  0
 12 22  2  0  0  0  0
  2 22  1  0  0  0  0
M  END
>  <cdx:fragmentId>
22346

$$$$
