5281858.cdx
  Mrv1902 05222410202D          

 25 25  0  0  0  0            999 V2000
    1.2380   -9.5150    0.0000 C   0  0  0  0  0  0  0  0  0  0  0  0
    1.2380  -10.3400    0.0000 C   0  0  0  0  0  0  0  0  0  0  0  0
    1.9525  -10.7525    0.0000 C   0  0  0  0  0  0  0  0  0  0  0  0
    2.6670  -10.3400    0.0000 C   0  0  0  0  0  0  0  0  0  0  0  0
    2.6670   -9.5150    0.0000 C   0  0  0  0  0  0  0  0  0  0  0  0
    1.9525   -9.1025    0.0000 C   0  0  0  0  0  0  0  0  0  0  0  0
    0.5236   -9.1025    0.0000 O   0  0  0  0  0  0  0  0  0  0  0  0
    1.9525   -8.2775    0.0000 C   0  0  0  0  0  0  0  0  0  0  0  0
    1.2380   -7.8650    0.0000 O   0  0  0  0  0  0  0  0  0  0  0  0
    2.6670   -7.8650    0.0000 O   0  0  0  0  0  0  0  0  0  0  0  0
    3.3814   -9.1025    0.0000 C   0  0  0  0  0  0  0  0  0  0  0  0
    4.0959   -9.5150    0.0000 C   0  0  0  0  0  0  0  0  0  0  0  0
    4.8104   -9.1025    0.0000 C   0  0  0  0  0  0  0  0  0  0  0  0
    5.5249   -9.5150    0.0000 C   0  0  0  0  0  0  0  0  0  0  0  0
    6.2393   -9.1025    0.0000 C   0  0  0  0  0  0  0  0  0  0  0  0
    6.9538   -9.5150    0.0000 C   0  0  0  0  0  0  0  0  0  0  0  0
    7.6683   -9.1025    0.0000 C   0  0  0  0  0  0  0  0  0  0  0  0
    8.3827   -9.5150    0.0000 C   0  0  0  0  0  0  0  0  0  0  0  0
    9.0972   -9.1025    0.0000 C   0  0  0  0  0  0  0  0  0  0  0  0
    9.0972   -8.2775    0.0000 C   0  0  0  0  0  0  0  0  0  0  0  0
    9.8117   -7.8650    0.0000 C   0  0  0  0  0  0  0  0  0  0  0  0
    9.8117   -7.0400    0.0000 C   0  0  0  0  0  0  0  0  0  0  0  0
   10.5262   -6.6275    0.0000 C   0  0  0  0  0  0  0  0  0  0  0  0
   10.5262   -5.8025    0.0000 C   0  0  0  0  0  0  0  0  0  0  0  0
   11.2406   -5.3900    0.0000 C   0  0  0  0  0  0  0  0  0  0  0  0
  1  2  2  0  0  0  0
  2  3  1  0  0  0  0
  3  4  2  0  0  0  0
  4  5  1  0  0  0  0
  5  6  2  0  0  0  0
  6  1  1  0  0  0  0
  1  7  1  0  0  0  0
  6  8  1  0  0  0  0
  8  9  2  0  0  0  0
  8 10  1  0  0  0  0
  5 11  1  0  0  0  0
 11 12  1  0  0  0  0
 12 13  1  0  0  0  0
 13 14  1  0  0  0  0
 14 15  1  0  0  0  0
 15 16  1  0  0  0  0
 16 17  1  0  0  0  0
 17 18  1  0  0  0  0
 18 19  2  0  0  0  0
 19 20  1  0  0  0  0
 20 21  1  0  0  0  0
 21 22  1  0  0  0  0
 22 23  1  0  0  0  0
 23 24  1  0  0  0  0
 24 25  1  0  0  0  0
M  END
>  <cdx:fragmentId>
179

$$$$
