281854.cdx
  Mrv1902 05222410272D          

 24 24  0  0  0  0            999 V2000
   16.0894   -7.9968    0.0000 C   0  0  0  0  0  0  0  0  0  0  0  0
   15.3749   -8.4093    0.0000 C   0  0  0  0  0  0  0  0  0  0  0  0
   14.6605   -7.9968    0.0000 C   0  0  0  0  0  0  0  0  0  0  0  0
   13.9460   -8.4093    0.0000 C   0  0  0  0  0  0  0  0  0  0  0  0
   13.2315   -7.9968    0.0000 C   0  0  0  0  0  0  0  0  0  0  0  0
   12.5171   -8.4093    0.0000 C   0  0  0  0  0  0  0  0  0  0  0  0
   11.8026   -7.9968    0.0000 C   0  0  0  0  0  0  0  0  0  0  0  0
   10.9776   -7.9968    0.0000 C   0  0  0  0  0  0  0  0  0  0  0  0
    8.8331   -8.3818    0.0000 C   0  0  0  0  0  0  0  0  0  0  0  0
    8.1186   -7.9693    0.0000 C   0  0  0  0  0  0  0  0  0  0  0  0
    7.4042   -8.3818    0.0000 C   0  0  0  0  0  0  0  0  0  0  0  0
    6.6897   -7.9693    0.0000 C   0  0  0  0  0  0  0  0  0  0  0  0
    5.9752   -8.3818    0.0000 C   0  0  0  0  0  0  0  0  0  0  0  0
    5.2608   -7.9693    0.0000 C   0  0  0  0  0  0  0  0  0  0  0  0
    4.5463   -8.3818    0.0000 C   0  0  0  0  0  0  0  0  0  0  0  0
    1.6884   -8.3818    0.0000 O   0  0  0  0  0  0  0  0  0  0  0  0
    2.4029   -7.1443    0.0000 C   0  0  0  0  0  0  0  0  0  0  0  0
    3.1173   -6.7318    0.0000 C   0  0  0  0  0  0  0  0  0  0  0  0
    3.8318   -7.1443    0.0000 C   0  0  0  0  0  0  0  0  0  0  0  0
    3.8318   -7.9693    0.0000 C   0  0  0  0  0  0  0  0  0  0  0  0
    3.1173   -8.3818    0.0000 C   0  0  0  0  0  0  0  0  0  0  0  0
    2.4029   -7.9693    0.0000 C   0  0  0  0  0  0  0  0  0  0  0  0
    9.5476   -7.9693    0.0000 C   0  0  0  0  0  0  0  0  0  0  0  0
   10.2621   -8.3818    0.0000 C   0  0  0  0  0  0  0  0  0  0  0  0
 20 15  1  0  0  0  0
  2  1  1  0  0  0  0
  3  2  1  0  0  0  0
  4  3  1  0  0  0  0
  5  4  1  0  0  0  0
  6  5  1  0  0  0  0
  7  6  1  0  0  0  0
  8  7  2  0  0  0  0
 10  9  1  0  0  0  0
 11 10  1  0  0  0  0
 12 11  1  0  0  0  0
 13 12  1  0  0  0  0
 14 13  1  0  0  0  0
 15 14  1  0  0  0  0
 22 16  1  0  0  0  0
 22 17  2  0  0  0  0
 18 17  1  0  0  0  0
 19 18  2  0  0  0  0
 20 19  1  0  0  0  0
 21 20  2  0  0  0  0
 22 21  1  0  0  0  0
  9 23  1  0  0  0  0
 23 24  1  0  0  0  0
  8 24  1  0  0  0  0
M  END
>  <cdx:fragmentId>
22288

$$$$
