5281817.cdx
  Mrv1902 05222410212D          

 26 28  0  0  0  0            999 V2000
   17.4197   -7.6237    0.0000 C   0  0  0  0  0  0  0  0  0  0  0  0
   16.5947   -7.6237    0.0000 C   0  0  0  0  0  0  0  0  0  0  0  0
   16.1822   -8.3382    0.0000 C   0  0  0  0  0  0  0  0  0  0  0  0
   15.3572   -8.3382    0.0000 C   0  0  0  0  0  0  0  0  0  0  0  0
   14.9447   -7.6237    0.0000 C   0  0  0  0  0  0  0  0  0  0  0  0
   14.1197   -7.6237    0.0000 C   0  0  0  0  0  0  0  0  0  0  0  0
   13.7072   -8.3382    0.0000 C   0  0  0  0  0  0  0  0  0  0  0  0
   12.8822   -8.3382    0.0000 O   0  0  0  0  0  0  0  0  0  0  0  0
   12.4697   -7.6237    0.0000 C   0  0  0  0  0  0  0  0  0  0  0  0
   15.3572   -6.9092    0.0000 O   0  0  0  0  0  0  0  0  0  0  0  0
   14.9447   -9.0526    0.0000 C   0  0  0  0  0  0  0  0  0  0  0  0
   14.1197   -9.0526    0.0000 C   0  0  0  0  0  0  0  0  0  0  0  0
   13.4052   -9.4651    0.0000 O   0  0  0  0  0  0  0  0  0  0  0  0
   12.6908   -9.0526    0.0000 C   0  0  0  0  0  0  0  0  0  0  0  0
   14.1197   -9.8776    0.0000 C   0  0  0  0  0  0  0  0  0  0  0  0
   13.4052  -10.2901    0.0000 C   0  0  0  0  0  0  0  0  0  0  0  0
   15.0485  -10.4139    0.0000 C   0  0  0  0  0  0  0  0  0  0  0  0
   15.7630  -10.0014    0.0000 C   0  0  0  0  0  0  0  0  0  0  0  0
   16.4774  -10.4139    0.0000 C   0  0  0  0  0  0  0  0  0  0  0  0
   17.1919  -10.0014    0.0000 C   0  0  0  0  0  0  0  0  0  0  0  0
   17.1919   -9.1764    0.0000 C   0  0  0  0  0  0  0  0  0  0  0  0
   17.9765   -8.9215    0.0000 O   0  0  0  0  0  0  0  0  0  0  0  0
   18.4614   -9.5889    0.0000 C   0  0  0  0  0  0  0  0  0  0  0  0
   17.9765  -10.2563    0.0000 O   0  0  0  0  0  0  0  0  0  0  0  0
   16.4774   -8.7639    0.0000 C   0  0  0  0  0  0  0  0  0  0  0  0
   15.7630   -9.1764    0.0000 C   0  0  0  0  0  0  0  0  0  0  0  0
  1  2  2  0  0  0  0
  2  3  1  0  0  0  0
  3  4  1  0  0  0  0
  4  5  1  0  0  0  0
  5  6  1  0  0  0  0
  6  7  2  0  0  0  0
  7  8  1  0  0  0  0
  8  9  1  0  0  0  0
  5 10  2  0  0  0  0
  4 11  2  0  0  0  0
 11 12  1  0  0  0  0
  7 12  1  0  0  0  0
 12 13  1  0  0  0  0
 13 14  1  0  0  0  0
 12 15  1  0  0  0  0
 15 16  1  0  0  0  0
 15 17  2  0  0  0  0
 17 18  1  0  0  0  0
 18 19  2  0  0  0  0
 19 20  1  0  0  0  0
 20 21  2  0  0  0  0
 21 22  1  0  0  0  0
 22 23  1  0  0  0  0
 23 24  1  0  0  0  0
 20 24  1  0  0  0  0
 21 25  1  0  0  0  0
 25 26  2  0  0  0  0
 18 26  1  0  0  0  0
M  END
>  <cdx:fragmentId>
22146

$$$$
