281811.cdx
  Mrv1902 05222410222D          

 22 24  0  0  0  0            999 V2000
    5.6174  -10.0705    0.0000 O   0  0  0  0  0  0  0  0  0  0  0  0
    4.1884   -7.5955    0.0000 O   0  0  0  0  0  0  0  0  0  0  0  0
   10.6187  -10.4830    0.0000 O   0  0  0  0  0  0  0  0  0  0  0  0
    9.1897   -8.8330    0.0000 C   0  0  0  0  0  0  0  0  0  0  0  0
    9.9042   -9.2455    0.0000 C   0  0  0  0  0  0  0  0  0  0  0  0
    9.9042  -10.0705    0.0000 C   0  0  0  0  0  0  0  0  0  0  0  0
    9.1897  -10.4830    0.0000 C   0  0  0  0  0  0  0  0  0  0  0  0
    8.4753  -10.0705    0.0000 C   0  0  0  0  0  0  0  0  0  0  0  0
    8.4753   -9.2455    0.0000 C   0  0  0  0  0  0  0  0  0  0  0  0
    3.4740   -8.8330    0.0000 C   0  0  0  0  0  0  0  0  0  0  0  0
    4.1884   -9.2455    0.0000 O   0  0  0  0  0  0  0  0  0  0  0  0
    7.0463  -10.0705    0.0000 O   0  0  0  0  0  0  0  0  0  0  0  0
    7.0463   -7.5955    0.0000 O   0  0  0  0  0  0  0  0  0  0  0  0
    6.3318   -8.0080    0.0000 C   0  0  0  0  0  0  0  0  0  0  0  0
    5.6174   -7.5955    0.0000 C   0  0  0  0  0  0  0  0  0  0  0  0
    4.9029   -8.0080    0.0000 C   0  0  0  0  0  0  0  0  0  0  0  0
    4.9029   -8.8330    0.0000 C   0  0  0  0  0  0  0  0  0  0  0  0
    5.6174   -9.2455    0.0000 C   0  0  0  0  0  0  0  0  0  0  0  0
    6.3318   -8.8330    0.0000 C   0  0  0  0  0  0  0  0  0  0  0  0
    7.0463   -9.2455    0.0000 C   0  0  0  0  0  0  0  0  0  0  0  0
    7.7608   -8.8330    0.0000 C   0  0  0  0  0  0  0  0  0  0  0  0
    7.7608   -8.0080    0.0000 C   0  0  0  0  0  0  0  0  0  0  0  0
 18  1  1  0  0  0  0
 16  2  1  0  0  0  0
 21  9  1  0  0  0  0
  6  3  1  0  0  0  0
  9  4  2  0  0  0  0
  5  4  1  0  0  0  0
  6  5  2  0  0  0  0
  7  6  1  0  0  0  0
  8  7  2  0  0  0  0
  9  8  1  0  0  0  0
 17 11  1  0  0  0  0
 11 10  1  0  0  0  0
 20 12  2  0  0  0  0
 22 13  1  0  0  0  0
 14 13  1  0  0  0  0
 19 14  2  0  0  0  0
 15 14  1  0  0  0  0
 16 15  2  0  0  0  0
 17 16  1  0  0  0  0
 18 17  2  0  0  0  0
 19 18  1  0  0  0  0
 20 19  1  0  0  0  0
 21 20  1  0  0  0  0
 22 21  2  0  0  0  0
M  END
>  <cdx:fragmentId>
5

$$$$
