5281846.cdx
  Mrv1902 05222410282D          

 24 24  0  0  0  0            999 V2000
   17.1101   -8.7393    0.0000 C   0  0  0  0  0  0  0  0  0  0  0  0
   16.3956   -9.1518    0.0000 C   0  0  0  0  0  0  0  0  0  0  0  0
   15.6811   -8.7393    0.0000 C   0  0  0  0  0  0  0  0  0  0  0  0
   14.9667   -9.1518    0.0000 C   0  0  0  0  0  0  0  0  0  0  0  0
   14.2522   -8.7393    0.0000 C   0  0  0  0  0  0  0  0  0  0  0  0
   13.5377   -9.1518    0.0000 C   0  0  0  0  0  0  0  0  0  0  0  0
   12.8233   -8.7393    0.0000 C   0  0  0  0  0  0  0  0  0  0  0  0
   12.1088   -9.1518    0.0000 C   0  0  0  0  0  0  0  0  0  0  0  0
    9.2509   -9.1518    0.0000 O   0  0  0  0  0  0  0  0  0  0  0  0
    9.9654   -7.9143    0.0000 C   0  0  0  0  0  0  0  0  0  0  0  0
   10.6798   -7.5018    0.0000 C   0  0  0  0  0  0  0  0  0  0  0  0
   11.3943   -7.9143    0.0000 C   0  0  0  0  0  0  0  0  0  0  0  0
   11.3943   -8.7393    0.0000 C   0  0  0  0  0  0  0  0  0  0  0  0
   10.6798   -9.1518    0.0000 C   0  0  0  0  0  0  0  0  0  0  0  0
    9.9654   -8.7393    0.0000 C   0  0  0  0  0  0  0  0  0  0  0  0
   17.8246   -9.1518    0.0000 C   0  0  0  0  0  0  0  0  0  0  0  0
   18.5390   -8.7393    0.0000 C   0  0  0  0  0  0  0  0  0  0  0  0
   19.2535   -9.1518    0.0000 C   0  0  0  0  0  0  0  0  0  0  0  0
   19.9680   -8.7393    0.0000 C   0  0  0  0  0  0  0  0  0  0  0  0
   20.6824   -9.1518    0.0000 C   0  0  0  0  0  0  0  0  0  0  0  0
   21.3969   -8.7393    0.0000 C   0  0  0  0  0  0  0  0  0  0  0  0
   22.1114   -9.1518    0.0000 C   0  0  0  0  0  0  0  0  0  0  0  0
   22.8259   -8.7393    0.0000 C   0  0  0  0  0  0  0  0  0  0  0  0
   12.1088   -9.9768    0.0000 O   0  0  0  0  0  0  0  0  0  0  0  0
 13  8  1  0  0  0  0
  2  1  1  0  0  0  0
  3  2  1  0  0  0  0
  4  3  1  0  0  0  0
  5  4  1  0  0  0  0
  6  5  1  0  0  0  0
  7  6  1  0  0  0  0
  8  7  1  0  0  0  0
 15  9  1  0  0  0  0
 15 10  2  0  0  0  0
 11 10  1  0  0  0  0
 12 11  2  0  0  0  0
 13 12  1  0  0  0  0
 14 13  2  0  0  0  0
 15 14  1  0  0  0  0
  1 16  1  0  0  0  0
 16 17  1  0  0  0  0
 17 18  1  0  0  0  0
 18 19  1  0  0  0  0
 19 20  1  0  0  0  0
 20 21  1  0  0  0  0
 21 22  1  0  0  0  0
 22 23  1  0  0  0  0
  8 24  1  0  0  0  0
M  END
>  <cdx:groupId>
22337

>  <cdx:fragmentId>
22288

$$$$
