281988.cdx
  Mrv1902 05222410212D          

 26 30  0  0  0  0            999 V2000
    4.6320   -4.1782    0.0000 H   0  0  0  0  0  0  0  0  0  0  0  0
    5.8515   -5.0642    0.0000 H   0  0  0  0  0  0  0  0  0  0  0  0
    8.8949   -4.7708    0.0000 O   0  0  0  0  0  0  0  0  0  0  0  0
    3.6626   -2.9811    0.0000 C   0  0  0  0  0  0  0  0  0  0  0  0
    8.7140   -3.2858    0.0000 C   0  0  0  0  0  0  0  0  0  0  0  0
    4.4962   -2.3449    0.0000 O   0  0  0  0  0  0  0  0  0  0  0  0
    5.1370   -1.8427    0.0000 O   0  0  0  0  0  0  0  0  0  0  0  0
    6.5660   -1.8427    0.0000 O   0  0  0  0  0  0  0  0  0  0  0  0
    5.8515   -2.2552    0.0000 C   0  0  0  0  0  0  0  0  0  0  0  0
    7.0412   -4.4999    0.0000 C   0  0  0  0  0  0  0  0  0  0  0  0
    4.7850   -2.9219    0.0000 C   0  0  0  0  0  0  0  0  0  0  0  0
    5.8712   -3.7056    0.0000 O   0  0  0  0  0  0  0  0  0  0  0  0
    4.8870   -4.9628    0.0000 C   0  0  0  0  0  0  0  0  0  0  0  0
    4.0800   -4.7913    0.0000 C   0  0  0  0  0  0  0  0  0  0  0  0
    3.8251   -4.0067    0.0000 C   0  0  0  0  0  0  0  0  0  0  0  0
    4.3771   -3.3936    0.0000 C   0  0  0  0  0  0  0  0  0  0  0  0
    5.1841   -3.5651    0.0000 C   0  0  1  0  0  0  0  0  0  0  0  0
    5.8515   -3.0802    0.0000 C   0  0  1  0  0  0  0  0  0  0  0  0
    6.5189   -3.5651    0.0000 C   0  0  1  0  0  0  0  0  0  0  0  0
    7.2913   -3.2752    0.0000 C   0  0  0  0  0  0  0  0  0  0  0  0
    7.9996   -3.6983    0.0000 C   0  0  0  0  0  0  0  0  0  0  0  0
    8.1103   -4.5159    0.0000 C   0  0  1  0  0  0  0  0  0  0  0  0
    7.5402   -5.1122    0.0000 C   0  0  0  0  0  0  0  0  0  0  0  0
    6.7185   -5.0382    0.0000 C   0  0  0  0  0  0  0  0  0  0  0  0
    6.2640   -4.3497    0.0000 C   0  0  1  0  0  0  0  0  0  0  0  0
    5.4390   -4.3497    0.0000 C   0  0  1  0  0  0  0  0  0  0  0  0
 17  1  1  6  0  0  0
 25  2  1  6  0  0  0
 22  3  1  1  0  0  0
 16  4  1  0  0  0  0
 21  5  2  0  0  0  0
 11  6  2  0  0  0  0
 18  9  1  6  0  0  0
  9  7  1  0  0  0  0
  9  8  2  0  0  0  0
 25 19  1  0  0  0  0
 22 10  1  0  0  0  0
 19 10  1  1  0  0  0
 26 17  1  0  0  0  0
 16 11  1  0  0  0  0
 26 12  1  1  0  0  0
 26 13  1  0  0  0  0
 12 11  1  0  0  0  0
 14 13  1  0  0  0  0
 15 14  2  0  0  0  0
 16 15  1  0  0  0  0
 17 16  1  0  0  0  0
 18 17  1  0  0  0  0
 19 18  1  0  0  0  0
 20 19  1  0  0  0  0
 21 20  1  0  0  0  0
 22 21  1  0  0  0  0
 23 22  1  0  0  0  0
 24 23  1  0  0  0  0
 25 24  1  0  0  0  0
 26 25  1  0  0  0  0
M  END
>  <cdx:groupId>
96

>  <cdx:fragmentId>
97

$$$$
