281929.cdx
  Mrv1902 05222410192D          

 16 16  0  0  0  0            999 V2000
    5.1439   -6.0692    0.0000 C   0  0  0  0  0  0  0  0  0  0  0  0
    9.1867   -7.9140    0.0000 O   0  0  0  0  0  0  0  0  0  0  0  0
    7.7136   -4.3927    0.0000 C   0  0  0  0  0  0  0  0  0  0  0  0
    7.7185   -5.2177    0.0000 C   0  0  0  0  0  0  0  0  0  0  0  0
    8.4355   -5.6259    0.0000 C   0  0  0  0  0  0  0  0  0  0  0  0
    8.4404   -6.4509    0.0000 C   0  0  0  0  0  0  0  0  0  0  0  0
    7.7284   -6.8677    0.0000 C   0  0  0  0  0  0  0  0  0  0  0  0
    7.3284   -8.9646    0.0000 C   0  0  0  0  0  0  0  0  0  0  0  0
    8.1534   -8.9597    0.0000 C   0  0  0  0  0  0  0  0  0  0  0  0
    8.4037   -8.1736    0.0000 C   0  0  0  0  0  0  0  0  0  0  0  0
    7.7333   -7.6926    0.0000 C   0  0  1  0  0  0  0  0  0  0  0  0
    7.0688   -8.1815    0.0000 C   0  0  1  0  0  0  0  0  0  0  0  0
    5.3202   -6.8751    0.0000 O   0  0  0  0  0  0  0  0  0  0  0  0
    6.7161   -6.5697    0.0000 O   0  0  0  0  0  0  0  0  0  0  0  0
    6.2827   -7.9313    0.0000 C   0  0  0  0  0  0  0  0  0  0  0  0
    6.1063   -7.1254    0.0000 C   0  0  0  0  0  0  0  0  0  0  0  0
 13  1  1  0  0  0  0
 12 15  1  6  0  0  0
 10  2  2  0  0  0  0
 11  7  1  1  0  0  0
  4  3  1  0  0  0  0
  5  4  1  0  0  0  0
  6  5  2  0  0  0  0
  7  6  1  0  0  0  0
 12  8  1  0  0  0  0
  9  8  1  0  0  0  0
 10  9  1  0  0  0  0
 11 10  1  0  0  0  0
 12 11  1  0  0  0  0
 16 13  1  0  0  0  0
 16 14  2  0  0  0  0
 16 15  1  0  0  0  0
M  END
>  <cdx:fragmentId>
13

$$$$
