5281953.cdx
  Mrv1902 05222410252D          

 25 27  0  0  0  0            999 V2000
   15.7830   -8.7368    0.0000 C   0  0  0  0  0  0  0  0  0  0  0  0
   15.7830   -9.5618    0.0000 C   0  0  0  0  0  0  0  0  0  0  0  0
   16.4975   -9.9743    0.0000 O   0  0  0  0  0  0  0  0  0  0  0  0
   15.0686   -9.9743    0.0000 C   0  0  0  0  0  0  0  0  0  0  0  0
   15.0686  -10.7993    0.0000 O   0  0  0  0  0  0  0  0  0  0  0  0
   14.3541   -9.5618    0.0000 C   0  0  0  0  0  0  0  0  0  0  0  0
   13.6396   -9.9743    0.0000 C   0  0  0  0  0  0  0  0  0  0  0  0
   13.6396  -10.7993    0.0000 O   0  0  0  0  0  0  0  0  0  0  0  0
   12.9252   -9.5618    0.0000 C   0  0  0  0  0  0  0  0  0  0  0  0
   12.9252   -8.7368    0.0000 C   0  0  0  0  0  0  0  0  0  0  0  0
   12.2107   -8.3243    0.0000 O   0  0  0  0  0  0  0  0  0  0  0  0
   13.6396   -8.3243    0.0000 C   0  0  0  0  0  0  0  0  0  0  0  0
   14.3541   -8.7368    0.0000 C   0  0  0  0  0  0  0  0  0  0  0  0
   15.0686   -8.3243    0.0000 O   0  0  0  0  0  0  0  0  0  0  0  0
   16.4975   -8.3243    0.0000 C   0  0  0  0  0  0  0  0  0  0  0  0
   17.2120   -8.7368    0.0000 C   0  0  0  0  0  0  0  0  0  0  0  0
   17.9265   -8.3243    0.0000 C   0  0  0  0  0  0  0  0  0  0  0  0
   18.6409   -8.7368    0.0000 O   0  0  0  0  0  0  0  0  0  0  0  0
   19.3554   -8.3243    0.0000 C   0  0  0  0  0  0  0  0  0  0  0  0
   17.9265   -7.4993    0.0000 C   0  0  0  0  0  0  0  0  0  0  0  0
   18.6409   -7.0868    0.0000 O   0  0  0  0  0  0  0  0  0  0  0  0
   17.2120   -7.0868    0.0000 C   0  0  0  0  0  0  0  0  0  0  0  0
   17.2120   -6.2618    0.0000 O   0  0  0  0  0  0  0  0  0  0  0  0
   17.9265   -5.8493    0.0000 C   0  0  0  0  0  0  0  0  0  0  0  0
   16.4975   -7.4993    0.0000 C   0  0  0  0  0  0  0  0  0  0  0  0
  1  2  2  0  0  0  0
  2  3  1  0  0  0  0
  2  4  1  0  0  0  0
  4  5  2  0  0  0  0
  4  6  1  0  0  0  0
  6  7  1  0  0  0  0
  7  8  1  0  0  0  0
  7  9  2  0  0  0  0
  9 10  1  0  0  0  0
 10 11  1  0  0  0  0
 10 12  2  0  0  0  0
 12 13  1  0  0  0  0
  6 13  2  0  0  0  0
 13 14  1  0  0  0  0
  1 14  1  0  0  0  0
  1 15  1  0  0  0  0
 15 16  1  0  0  0  0
 16 17  2  0  0  0  0
 17 18  1  0  0  0  0
 18 19  1  0  0  0  0
 17 20  1  0  0  0  0
 20 21  1  0  0  0  0
 20 22  2  0  0  0  0
 22 23  1  0  0  0  0
 23 24  1  0  0  0  0
 22 25  1  0  0  0  0
 15 25  2  0  0  0  0
M  END
>  <cdx:groupId>
22641

>  <cdx:fragmentId>
22567

$$$$
