281912.cdx
  Mrv1902 05222410202D          

 24 24  0  0  0  0            999 V2000
   10.9901   -9.3077    0.0000 C   0  0  0  0  0  0  0  0  0  0  0  0
   10.1899   -9.5158    0.0000 C   0  0  0  0  0  0  0  0  0  0  0  0
    9.6010   -8.9355    0.0000 C   0  0  0  0  0  0  0  0  0  0  0  0
    8.8008   -9.1436    0.0000 C   0  0  0  0  0  0  0  0  0  0  0  0
    8.2117   -8.5633    0.0000 C   0  0  0  0  0  0  0  0  0  0  0  0
    7.4252   -8.7951    0.0000 C   0  0  2  0  0  0  0  0  0  0  0  0
    7.2139   -9.5836    0.0000 O   0  0  0  0  0  0  0  0  0  0  0  0
    6.8124   -8.2285    0.0000 C   0  0  0  0  0  0  0  0  0  0  0  0
    6.0397   -8.4843    0.0000 C   0  0  0  0  0  0  0  0  0  0  0  0
    5.4031   -7.9314    0.0000 C   0  0  1  0  0  0  0  0  0  0  0  0
    4.6130   -8.1020    0.0000 C   0  0  0  0  0  0  0  0  0  0  0  0
    4.2007   -7.3879    0.0000 C   0  0  0  0  0  0  0  0  0  0  0  0
    4.7435   -6.7889    0.0000 C   0  0  0  0  0  0  0  0  0  0  0  0
    4.5830   -5.9611    0.0000 O   0  0  0  0  0  0  0  0  0  0  0  0
    5.5017   -7.1128    0.0000 C   0  0  2  0  0  0  0  0  0  0  0  0
    6.2158   -6.7005    0.0000 C   0  0  0  0  0  0  0  0  0  0  0  0
    6.9302   -7.1133    0.0000 C   0  0  0  0  0  0  0  0  0  0  0  0
    7.6443   -6.7010    0.0000 C   0  0  0  0  0  0  0  0  0  0  0  0
    8.3588   -7.1137    0.0000 C   0  0  0  0  0  0  0  0  0  0  0  0
    9.0728   -6.7015    0.0000 C   0  0  0  0  0  0  0  0  0  0  0  0
    9.7872   -7.1142    0.0000 C   0  0  0  0  0  0  0  0  0  0  0  0
   10.5013   -6.7019    0.0000 C   0  0  0  0  0  0  0  0  0  0  0  0
   11.2158   -7.1144    0.0000 O   0  0  0  0  0  0  0  0  0  0  0  0
   10.5013   -5.8769    0.0000 O   0  0  0  0  0  0  0  0  0  0  0  0
  1  2  1  0  0  0  0
  2  3  1  0  0  0  0
  3  4  1  0  0  0  0
  4  5  1  0  0  0  0
  5  6  1  0  0  0  0
  6  7  1  6  0  0  0
  6  8  1  0  0  0  0
  8  9  2  0  0  0  0
 10  9  1  1  0  0  0
 10 11  1  0  0  0  0
 11 12  2  0  0  0  0
 12 13  1  0  0  0  0
 13 14  2  0  0  0  0
 13 15  1  0  0  0  0
 10 15  1  0  0  0  0
 15 16  1  6  0  0  0
 16 17  1  0  0  0  0
 17 18  1  0  0  0  0
 18 19  1  0  0  0  0
 19 20  1  0  0  0  0
 20 21  1  0  0  0  0
 21 22  1  0  0  0  0
 22 23  1  0  0  0  0
 22 24  2  0  0  0  0
M  END
>  <cdx:fragmentId>
22512

$$$$
