282.cdx
  Mrv1902 05222410282D          

 24 27  0  0  0  0            999 V2000
    3.9167   -7.8436    0.0000 C   0  0  0  0  0  0  0  0  0  0  0  0
    3.9167   -8.6686    0.0000 C   0  0  0  0  0  0  0  0  0  0  0  0
    4.6312   -9.0811    0.0000 C   0  0  0  0  0  0  0  0  0  0  0  0
    5.3457   -8.6686    0.0000 C   0  0  0  0  0  0  0  0  0  0  0  0
    5.3457   -7.8436    0.0000 C   0  0  2  0  0  0  0  0  0  0  0  0
    4.6312   -7.4311    0.0000 C   0  0  0  0  0  0  0  0  0  0  0  0
    6.0601   -9.0811    0.0000 C   0  0  0  0  0  0  0  0  0  0  0  0
    6.7746   -8.6686    0.0000 C   0  0  0  0  0  0  0  0  0  0  0  0
    6.7746   -7.8436    0.0000 C   0  0  2  0  0  0  0  0  0  0  0  0
    6.0601   -7.4311    0.0000 C   0  0  2  0  0  0  0  0  0  0  0  0
    7.4891   -7.4311    0.0000 C   0  0  1  0  0  0  0  0  0  0  0  0
    7.4891   -6.6061    0.0000 C   0  0  2  0  0  0  0  0  0  0  0  0
    6.7746   -6.1936    0.0000 C   0  0  0  0  0  0  0  0  0  0  0  0
    6.0601   -6.6061    0.0000 C   0  0  0  0  0  0  0  0  0  0  0  0
    8.2737   -7.6860    0.0000 C   0  0  0  0  0  0  0  0  0  0  0  0
    8.7586   -7.0186    0.0000 C   0  0  0  0  0  0  0  0  0  0  0  0
    8.2737   -6.3512    0.0000 C   0  0  0  0  0  0  0  0  0  0  0  0
    5.3457   -7.0186    0.0000 C   0  0  0  0  0  0  0  0  0  0  0  0
    7.4891   -5.7811    0.0000 C   0  0  0  0  0  0  0  0  0  0  0  0
    3.2022   -9.0811    0.0000 O   0  0  0  0  0  0  0  0  0  0  0  0
    8.4872   -5.5543    0.0000 O   0  0  0  0  0  0  0  0  0  0  0  0
    6.0601   -8.2561    0.0000 H   0  0  0  0  0  0  0  0  0  0  0  0
    6.7746   -7.0186    0.0000 H   0  0  0  0  0  0  0  0  0  0  0  0
    7.4891   -8.2561    0.0000 H   0  0  0  0  0  0  0  0  0  0  0  0
  1  2  1  0  0  0  0
  2  3  1  0  0  0  0
  3  4  2  0  0  0  0
  4  5  1  0  0  0  0
  5  6  1  0  0  0  0
  6  1  1  0  0  0  0
  4  7  1  0  0  0  0
  7  8  1  0  0  0  0
  8  9  1  0  0  0  0
  9 10  1  0  0  0  0
 10  5  1  0  0  0  0
  9 11  1  0  0  0  0
 11 12  1  0  0  0  0
 12 13  1  0  0  0  0
 13 14  1  0  0  0  0
 14 10  1  0  0  0  0
 11 15  1  0  0  0  0
 15 16  1  0  0  0  0
 16 17  1  0  0  0  0
 17 12  1  0  0  0  0
  5 18  1  1  0  0  0
 12 19  1  1  0  0  0
  2 20  2  0  0  0  0
 17 21  2  0  0  0  0
 10 22  1  6  0  0  0
  9 23  1  1  0  0  0
 11 24  1  6  0  0  0
M  END
>  <cdx:fragmentId>
5

$$$$
