5282074.cdx
  Mrv1902 05222410232D          

 21 23  0  0  0  0            999 V2000
   15.8260   -7.4178    0.0000 C   0  0  0  0  0  0  0  0  0  0  0  0
   15.8260   -8.2428    0.0000 C   0  0  0  0  0  0  0  0  0  0  0  0
   15.1115   -8.6553    0.0000 C   0  0  0  0  0  0  0  0  0  0  0  0
   15.1115   -9.4803    0.0000 O   0  0  0  0  0  0  0  0  0  0  0  0
   14.3970   -8.2428    0.0000 C   0  0  0  0  0  0  0  0  0  0  0  0
   13.6826   -8.6553    0.0000 C   0  0  0  0  0  0  0  0  0  0  0  0
   13.6826   -9.4803    0.0000 O   0  0  0  0  0  0  0  0  0  0  0  0
   12.9681   -8.2428    0.0000 C   0  0  0  0  0  0  0  0  0  0  0  0
   12.9681   -7.4178    0.0000 C   0  0  0  0  0  0  0  0  0  0  0  0
   12.2536   -7.0053    0.0000 O   0  0  0  0  0  0  0  0  0  0  0  0
   13.6826   -7.0053    0.0000 C   0  0  0  0  0  0  0  0  0  0  0  0
   14.3970   -7.4178    0.0000 C   0  0  0  0  0  0  0  0  0  0  0  0
   15.1115   -7.0053    0.0000 O   0  0  0  0  0  0  0  0  0  0  0  0
   16.5405   -8.6553    0.0000 C   0  0  0  0  0  0  0  0  0  0  0  0
   16.5405   -9.4803    0.0000 C   0  0  0  0  0  0  0  0  0  0  0  0
   17.2549   -9.8928    0.0000 C   0  0  0  0  0  0  0  0  0  0  0  0
   17.9694   -9.4803    0.0000 C   0  0  0  0  0  0  0  0  0  0  0  0
   18.6839   -9.8928    0.0000 O   0  0  0  0  0  0  0  0  0  0  0  0
   17.9694   -8.6553    0.0000 C   0  0  0  0  0  0  0  0  0  0  0  0
   17.2549   -8.2428    0.0000 C   0  0  0  0  0  0  0  0  0  0  0  0
   15.8260   -9.8928    0.0000 O   0  0  0  0  0  0  0  0  0  0  0  0
  1  2  2  0  0  0  0
  2  3  1  0  0  0  0
  3  4  2  0  0  0  0
  3  5  1  0  0  0  0
  5  6  1  0  0  0  0
  6  7  1  0  0  0  0
  6  8  2  0  0  0  0
  8  9  1  0  0  0  0
  9 10  1  0  0  0  0
  9 11  2  0  0  0  0
 11 12  1  0  0  0  0
  5 12  2  0  0  0  0
 12 13  1  0  0  0  0
  1 13  1  0  0  0  0
  2 14  1  0  0  0  0
 14 15  1  0  0  0  0
 15 16  2  0  0  0  0
 16 17  1  0  0  0  0
 17 18  1  0  0  0  0
 17 19  2  0  0  0  0
 19 20  1  0  0  0  0
 14 20  2  0  0  0  0
 15 21  1  0  0  0  0
M  END
>  <cdx:groupId>
22843

>  <cdx:fragmentId>
22781

$$$$
