282096.cdx
  Mrv1902 05222410252D          

 12 12  0  0  0  0            999 V2000
    9.1699   -6.8541    0.0000 C   0  0  0  0  0  0  0  0  0  0  0  0
    8.4555   -6.4416    0.0000 C   0  0  0  0  0  0  0  0  0  0  0  0
    7.7410   -6.8541    0.0000 C   0  0  0  0  0  0  0  0  0  0  0  0
    7.0265   -6.4416    0.0000 C   0  0  0  0  0  0  0  0  0  0  0  0
    6.3120   -6.8541    0.0000 C   0  0  0  0  0  0  0  0  0  0  0  0
    5.5976   -6.4416    0.0000 C   0  0  0  0  0  0  0  0  0  0  0  0
    5.5976   -5.6166    0.0000 C   0  0  0  0  0  0  0  0  0  0  0  0
    6.3120   -5.2041    0.0000 C   0  0  0  0  0  0  0  0  0  0  0  0
    7.0265   -5.6166    0.0000 C   0  0  0  0  0  0  0  0  0  0  0  0
    4.8831   -5.2041    0.0000 O   0  0  0  0  0  0  0  0  0  0  0  0
    4.8831   -6.8541    0.0000 O   0  0  0  0  0  0  0  0  0  0  0  0
    9.8844   -6.4416    0.0000 O   0  0  0  0  0  0  0  0  0  0  0  0
  1  2  1  0  0  0  0
  2  3  2  0  0  0  0
  3  4  1  0  0  0  0
  4  5  1  0  0  0  0
  5  6  2  0  0  0  0
  6  7  1  0  0  0  0
  7  8  2  0  0  0  0
  8  9  1  0  0  0  0
  4  9  2  0  0  0  0
  7 10  1  0  0  0  0
  6 11  1  0  0  0  0
  1 12  1  0  0  0  0
M  END
>  <cdx:fragmentId>
22852

$$$$
