282069.cdx
  Mrv1902 05222410252D          

 54 59  0  0  0  0            999 V2000
    5.7135   -9.2994    0.0000 C   0  0  0  0  0  0  0  0  0  0  0  0
    5.7329  -10.1242    0.0000 C   0  0  0  0  0  0  0  0  0  0  0  0
    6.4569  -10.5198    0.0000 C   0  0  0  0  0  0  0  0  0  0  0  0
    6.4763  -11.3445    0.0000 C   0  0  0  0  0  0  0  0  0  0  0  0
    5.7717  -11.7737    0.0000 C   0  0  0  0  0  0  0  0  0  0  0  0
    5.0477  -11.3781    0.0000 C   0  0  0  0  0  0  0  0  0  0  0  0
    5.0283  -10.5534    0.0000 C   0  0  0  0  0  0  0  0  0  0  0  0
    5.7911  -12.5985    0.0000 O   0  0  0  0  0  0  0  0  0  0  0  0
    7.8533   -8.0117    0.0000 C   0  0  0  0  0  0  0  0  0  0  0  0
    8.5778   -6.7800    0.0000 O   0  0  0  0  0  0  0  0  0  0  0  0
    8.5711   -7.6050    0.0000 C   0  0  1  0  0  0  0  0  0  0  0  0
    9.2822   -8.0232    0.0000 C   0  0  2  0  0  0  0  0  0  0  0  0
   10.0000   -7.6166    0.0000 C   0  0  1  0  0  0  0  0  0  0  0  0
   10.0067   -6.7916    0.0000 C   0  0  2  0  0  0  0  0  0  0  0  0
    9.2956   -6.3733    0.0000 C   0  0  2  0  0  0  0  0  0  0  0  0
   10.7245   -6.3849    0.0000 O   0  0  0  0  0  0  0  0  0  0  0  0
   10.7111   -8.0348    0.0000 O   0  0  0  0  0  0  0  0  0  0  0  0
    9.2755   -8.8482    0.0000 O   0  0  0  0  0  0  0  0  0  0  0  0
    9.3023   -5.5483    0.0000 O   0  0  0  0  0  0  0  0  0  0  0  0
    8.5979   -4.3051    0.0000 C   0  0  0  0  0  0  0  0  0  0  0  0
    8.5912   -5.1300    0.0000 C   0  0  0  0  0  0  0  0  0  0  0  0
    7.8734   -5.5367    0.0000 C   0  0  0  0  0  0  0  0  0  0  0  0
    7.1623   -5.1185    0.0000 C   0  0  0  0  0  0  0  0  0  0  0  0
    6.4445   -5.5251    0.0000 C   0  0  0  0  0  0  0  0  0  0  0  0
    5.7334   -5.1069    0.0000 C   0  0  0  0  0  0  0  0  0  0  0  0
    5.7401   -4.2819    0.0000 C   0  0  0  0  0  0  0  0  0  0  0  0
    6.4579   -3.8752    0.0000 C   0  0  0  0  0  0  0  0  0  0  0  0
    7.1690   -4.2935    0.0000 C   0  0  0  0  0  0  0  0  0  0  0  0
    7.8868   -3.8868    0.0000 O   0  3  0  0  0  0  0  0  0  0  0  0
    5.0290   -3.8636    0.0000 O   0  0  0  0  0  0  0  0  0  0  0  0
    9.3157   -3.8984    0.0000 C   0  0  0  0  0  0  0  0  0  0  0  0
    9.3224   -3.0734    0.0000 C   0  0  0  0  0  0  0  0  0  0  0  0
   10.0402   -2.6667    0.0000 C   0  0  0  0  0  0  0  0  0  0  0  0
   10.7513   -3.0850    0.0000 C   0  0  0  0  0  0  0  0  0  0  0  0
   10.7446   -3.9100    0.0000 C   0  0  0  0  0  0  0  0  0  0  0  0
   10.0268   -4.3167    0.0000 C   0  0  0  0  0  0  0  0  0  0  0  0
   11.4691   -2.6783    0.0000 O   0  0  0  0  0  0  0  0  0  0  0  0
   10.0469   -1.8417    0.0000 O   0  0  0  0  0  0  0  0  0  0  0  0
    7.8466   -8.8366    0.0000 O   0  0  0  0  0  0  0  0  0  0  0  0
    7.1615  -10.0906    0.0000 O   0  0  0  0  0  0  0  0  0  0  0  0
    6.4181   -8.8702    0.0000 C   0  0  0  0  0  0  0  0  0  0  0  0
    7.1421   -9.2658    0.0000 C   0  0  0  0  0  0  0  0  0  0  0  0
    6.4345   -8.0001    0.0000 O   0  0  0  0  0  0  0  0  0  0  0  0
    5.0039   -8.8223    0.0000 O   0  0  0  0  0  0  0  0  0  0  0  0
    3.5766   -7.9944    0.0000 O   0  0  0  0  0  0  0  0  0  0  0  0
    2.8646   -6.7555    0.0000 O   0  0  0  0  0  0  0  0  0  0  0  0
    3.5799   -6.3444    0.0000 C   0  0  0  0  0  0  0  0  0  0  0  0
    4.2936   -6.7583    0.0000 C   0  0  2  0  0  0  0  0  0  0  0  0
    4.2919   -7.5833    0.0000 C   0  0  2  0  0  0  0  0  0  0  0  0
    5.0056   -7.9973    0.0000 C   0  0  1  0  0  0  0  0  0  0  0  0
    5.7209   -7.5862    0.0000 C   0  0  2  0  0  0  0  0  0  0  0  0
    5.7225   -6.7612    0.0000 C   0  0  1  0  0  0  0  0  0  0  0  0
    5.0089   -6.3473    0.0000 O   0  0  0  0  0  0  0  0  0  0  0  0
    6.4378   -6.3501    0.0000 O   0  0  0  0  0  0  0  0  0  0  0  0
 42 39  1  0  0  0  0
 42 40  2  0  0  0  0
 41  1  2  0  0  0  0
 42 41  1  0  0  0  0
 52 54  1  1  0  0  0
 51 43  1  6  0  0  0
 50 44  1  1  0  0  0
 49 45  1  6  0  0  0
 48 47  1  1  0  0  0
 47 46  1  0  0  0  0
 53 48  1  0  0  0  0
 49 48  1  0  0  0  0
 50 49  1  0  0  0  0
 51 50  1  0  0  0  0
 52 51  1  0  0  0  0
 53 52  1  0  0  0  0
  2  3  1  0  0  0  0
  3  4  2  0  0  0  0
  4  5  1  0  0  0  0
  5  6  2  0  0  0  0
  6  7  1  0  0  0  0
  2  7  2  0  0  0  0
  5  8  1  0  0  0  0
  1  2  1  0  0  0  0
 10 11  1  0  0  0  0
 11 12  1  0  0  0  0
 12 13  1  0  0  0  0
 13 14  1  0  0  0  0
 14 15  1  0  0  0  0
 10 15  1  0  0  0  0
 14 16  1  6  0  0  0
 13 17  1  1  0  0  0
 12 18  1  6  0  0  0
 20 21  1  0  0  0  0
 21 22  2  0  0  0  0
 22 23  1  0  0  0  0
 23 24  1  0  0  0  0
 24 25  2  0  0  0  0
 25 26  1  0  0  0  0
 26 27  2  0  0  0  0
 27 28  1  0  0  0  0
 23 28  2  0  0  0  0
 28 29  1  0  0  0  0
 20 29  2  0  0  0  0
 24 54  1  0  0  0  0
 26 30  1  0  0  0  0
 31 32  1  0  0  0  0
 32 33  2  0  0  0  0
 33 34  1  0  0  0  0
 34 35  2  0  0  0  0
 35 36  1  0  0  0  0
 31 36  2  0  0  0  0
 34 37  1  0  0  0  0
 33 38  1  0  0  0  0
 20 31  1  0  0  0  0
 19 21  1  0  0  0  0
 15 19  1  1  0  0  0
 11  9  1  1  0  0  0
 39  9  1  0  0  0  0
M  CHG  1  29   1
M  END
>  <cdx:fragmentId>
73

$$$$
