282068.cdx
  Mrv1902 05222410252D          

 54 59  0  0  0  0            999 V2000
    7.1431   -9.2675    0.0000 C   0  0  0  0  0  0  0  0  0  0  0  0
    7.1644  -10.0922    0.0000 C   0  0  0  0  0  0  0  0  0  0  0  0
    6.4609  -10.5230    0.0000 C   0  0  0  0  0  0  0  0  0  0  0  0
    6.4182   -8.8736    0.0000 O   0  0  0  0  0  0  0  0  0  0  0  0
    7.8466   -8.8366    0.0000 O   0  0  0  0  0  0  0  0  0  0  0  0
    6.4822  -11.3478    0.0000 C   0  0  0  0  0  0  0  0  0  0  0  0
    7.2071  -11.7416    0.0000 C   0  0  0  0  0  0  0  0  0  0  0  0
    7.2285  -12.5664    0.0000 C   0  0  0  0  0  0  0  0  0  0  0  0
    6.5249  -12.9972    0.0000 C   0  0  0  0  0  0  0  0  0  0  0  0
    5.8000  -12.6033    0.0000 C   0  0  0  0  0  0  0  0  0  0  0  0
    5.7786  -11.7786    0.0000 C   0  0  0  0  0  0  0  0  0  0  0  0
    6.5462  -13.8219    0.0000 O   0  0  0  0  0  0  0  0  0  0  0  0
    7.8533   -8.0117    0.0000 C   0  0  0  0  0  0  0  0  0  0  0  0
    8.5778   -6.7800    0.0000 O   0  0  0  0  0  0  0  0  0  0  0  0
    8.5711   -7.6050    0.0000 C   0  0  1  0  0  0  0  0  0  0  0  0
    9.2822   -8.0232    0.0000 C   0  0  2  0  0  0  0  0  0  0  0  0
   10.0000   -7.6166    0.0000 C   0  0  1  0  0  0  0  0  0  0  0  0
   10.0067   -6.7916    0.0000 C   0  0  2  0  0  0  0  0  0  0  0  0
    9.2956   -6.3733    0.0000 C   0  0  2  0  0  0  0  0  0  0  0  0
   10.7245   -6.3849    0.0000 O   0  0  0  0  0  0  0  0  0  0  0  0
   10.7111   -8.0348    0.0000 O   0  0  0  0  0  0  0  0  0  0  0  0
    9.2755   -8.8482    0.0000 O   0  0  0  0  0  0  0  0  0  0  0  0
    9.3023   -5.5483    0.0000 O   0  0  0  0  0  0  0  0  0  0  0  0
    8.5979   -4.3051    0.0000 C   0  0  0  0  0  0  0  0  0  0  0  0
    8.5912   -5.1300    0.0000 C   0  0  0  0  0  0  0  0  0  0  0  0
    7.8734   -5.5367    0.0000 C   0  0  0  0  0  0  0  0  0  0  0  0
    7.1623   -5.1185    0.0000 C   0  0  0  0  0  0  0  0  0  0  0  0
    6.4445   -5.5251    0.0000 C   0  0  0  0  0  0  0  0  0  0  0  0
    5.7334   -5.1069    0.0000 C   0  0  0  0  0  0  0  0  0  0  0  0
    5.7401   -4.2819    0.0000 C   0  0  0  0  0  0  0  0  0  0  0  0
    6.4579   -3.8752    0.0000 C   0  0  0  0  0  0  0  0  0  0  0  0
    7.1690   -4.2935    0.0000 C   0  0  0  0  0  0  0  0  0  0  0  0
    7.8868   -3.8868    0.0000 O   0  3  0  0  0  0  0  0  0  0  0  0
    5.0290   -3.8636    0.0000 O   0  0  0  0  0  0  0  0  0  0  0  0
    9.3157   -3.8984    0.0000 C   0  0  0  0  0  0  0  0  0  0  0  0
    9.3224   -3.0734    0.0000 C   0  0  0  0  0  0  0  0  0  0  0  0
   10.0402   -2.6667    0.0000 C   0  0  0  0  0  0  0  0  0  0  0  0
   10.7513   -3.0850    0.0000 C   0  0  0  0  0  0  0  0  0  0  0  0
   10.7446   -3.9100    0.0000 C   0  0  0  0  0  0  0  0  0  0  0  0
   10.0268   -4.3167    0.0000 C   0  0  0  0  0  0  0  0  0  0  0  0
   11.4691   -2.6783    0.0000 O   0  0  0  0  0  0  0  0  0  0  0  0
   10.0469   -1.8417    0.0000 O   0  0  0  0  0  0  0  0  0  0  0  0
    6.4345   -8.0001    0.0000 O   0  0  0  0  0  0  0  0  0  0  0  0
    5.0039   -8.8223    0.0000 O   0  0  0  0  0  0  0  0  0  0  0  0
    3.5766   -7.9944    0.0000 O   0  0  0  0  0  0  0  0  0  0  0  0
    2.8646   -6.7555    0.0000 O   0  0  0  0  0  0  0  0  0  0  0  0
    3.5799   -6.3444    0.0000 C   0  0  0  0  0  0  0  0  0  0  0  0
    4.2936   -6.7583    0.0000 C   0  0  2  0  0  0  0  0  0  0  0  0
    4.2919   -7.5833    0.0000 C   0  0  2  0  0  0  0  0  0  0  0  0
    5.0056   -7.9973    0.0000 C   0  0  1  0  0  0  0  0  0  0  0  0
    5.7209   -7.5862    0.0000 C   0  0  2  0  0  0  0  0  0  0  0  0
    5.7225   -6.7612    0.0000 C   0  0  1  0  0  0  0  0  0  0  0  0
    5.0089   -6.3473    0.0000 O   0  0  0  0  0  0  0  0  0  0  0  0
    6.4378   -6.3501    0.0000 O   0  0  0  0  0  0  0  0  0  0  0  0
 52 54  1  1  0  0  0
 51 43  1  6  0  0  0
 50 44  1  1  0  0  0
 49 45  1  6  0  0  0
 48 47  1  1  0  0  0
 47 46  1  0  0  0  0
 53 48  1  0  0  0  0
 49 48  1  0  0  0  0
 50 49  1  0  0  0  0
 51 50  1  0  0  0  0
 52 51  1  0  0  0  0
 53 52  1  0  0  0  0
  1  2  1  0  0  0  0
  2  3  2  0  0  0  0
  1  4  2  0  0  0  0
  1  5  1  0  0  0  0
  6  7  1  0  0  0  0
  7  8  2  0  0  0  0
  8  9  1  0  0  0  0
  9 10  2  0  0  0  0
 10 11  1  0  0  0  0
  6 11  2  0  0  0  0
  9 12  1  0  0  0  0
  3  6  1  0  0  0  0
 14 15  1  0  0  0  0
 15 16  1  0  0  0  0
 16 17  1  0  0  0  0
 17 18  1  0  0  0  0
 18 19  1  0  0  0  0
 14 19  1  0  0  0  0
 18 20  1  6  0  0  0
 17 21  1  1  0  0  0
 16 22  1  6  0  0  0
 24 25  1  0  0  0  0
 25 26  2  0  0  0  0
 26 27  1  0  0  0  0
 27 28  1  0  0  0  0
 28 29  2  0  0  0  0
 29 30  1  0  0  0  0
 30 31  2  0  0  0  0
 31 32  1  0  0  0  0
 27 32  2  0  0  0  0
 32 33  1  0  0  0  0
 24 33  2  0  0  0  0
 28 54  1  0  0  0  0
 30 34  1  0  0  0  0
 35 36  1  0  0  0  0
 36 37  2  0  0  0  0
 37 38  1  0  0  0  0
 38 39  2  0  0  0  0
 39 40  1  0  0  0  0
 35 40  2  0  0  0  0
 38 41  1  0  0  0  0
 37 42  1  0  0  0  0
 24 35  1  0  0  0  0
 23 25  1  0  0  0  0
 19 23  1  1  0  0  0
 15 13  1  1  0  0  0
  5 13  1  0  0  0  0
M  CHG  1  33   1
M  END
>  <cdx:fragmentId>
73

$$$$
