282217.cdx
  Mrv1902 05222410192D          

 44 46  0  0  0  0            999 V2000
    7.0991   -6.5502    0.0000 C   0  0  0  0  0  0  0  0  0  0  0  0
    7.1093   -7.3752    0.0000 C   0  0  0  0  0  0  0  0  0  0  0  0
    6.4000   -7.7965    0.0000 C   0  0  0  0  0  0  0  0  0  0  0  0
    6.3795   -6.1466    0.0000 C   0  0  0  0  0  0  0  0  0  0  0  0
    6.4102   -8.6214    0.0000 C   0  0  2  0  0  0  0  0  0  0  0  0
    5.5852   -8.6316    0.0000 C   0  0  0  0  0  0  0  0  0  0  0  0
    5.1816   -9.3511    0.0000 C   0  0  0  0  0  0  0  0  0  0  0  0
    5.6029  -10.0604    0.0000 C   0  0  1  0  0  0  0  0  0  0  0  0
    6.4279  -10.0502    0.0000 C   0  0  0  0  0  0  0  0  0  0  0  0
    6.8315   -9.3307    0.0000 C   0  0  1  0  0  0  0  0  0  0  0  0
    7.2351   -8.6112    0.0000 O   0  0  0  0  0  0  0  0  0  0  0  0
    7.5510   -9.7343    0.0000 C   0  0  0  0  0  0  0  0  0  0  0  0
    4.8657   -8.2280    0.0000 C   0  0  0  0  0  0  0  0  0  0  0  0
    5.5750   -7.8067    0.0000 C   0  0  0  0  0  0  0  0  0  0  0  0
    5.1993  -10.7800    0.0000 O   0  0  0  0  0  0  0  0  0  0  0  0
   16.3712   -5.1978    0.0000 C   0  0  0  0  0  0  0  0  0  0  0  0
   13.5135   -5.2332    0.0000 C   0  0  0  0  0  0  0  0  0  0  0  0
    9.9669   -7.3398    0.0000 C   0  0  0  0  0  0  0  0  0  0  0  0
    7.8084   -6.1289    0.0000 C   0  0  0  0  0  0  0  0  0  0  0  0
    8.5279   -6.5325    0.0000 C   0  0  0  0  0  0  0  0  0  0  0  0
    9.2372   -6.1112    0.0000 C   0  0  0  0  0  0  0  0  0  0  0  0
    9.9567   -6.5148    0.0000 C   0  0  0  0  0  0  0  0  0  0  0  0
   10.6660   -6.0935    0.0000 C   0  0  0  0  0  0  0  0  0  0  0  0
   11.3856   -6.4971    0.0000 C   0  0  0  0  0  0  0  0  0  0  0  0
   12.0949   -6.0758    0.0000 C   0  0  0  0  0  0  0  0  0  0  0  0
   12.8144   -6.4795    0.0000 C   0  0  0  0  0  0  0  0  0  0  0  0
   13.5237   -6.0581    0.0000 C   0  0  0  0  0  0  0  0  0  0  0  0
   14.2432   -6.4618    0.0000 C   0  0  0  0  0  0  0  0  0  0  0  0
   14.9525   -6.0405    0.0000 C   0  0  0  0  0  0  0  0  0  0  0  0
   15.6721   -6.4441    0.0000 C   0  0  0  0  0  0  0  0  0  0  0  0
   16.3814   -6.0228    0.0000 C   0  0  0  0  0  0  0  0  0  0  0  0
   17.1009   -6.4264    0.0000 C   0  0  0  0  0  0  0  0  0  0  0  0
   17.8102   -6.0051    0.0000 C   0  0  0  0  0  0  0  0  0  0  0  0
   18.8278   -6.7026    0.0000 C   0  0  0  0  0  0  0  0  0  0  0  0
   17.6844   -4.7690    0.0000 C   0  0  0  0  0  0  0  0  0  0  0  0
   18.0880   -4.0495    0.0000 C   0  0  0  0  0  0  0  0  0  0  0  0
   20.6474   -4.3198    0.0000 O   0  0  0  0  0  0  0  0  0  0  0  0
   19.6528   -6.7011    0.0000 O   0  0  0  0  0  0  0  0  0  0  0  0
   18.5195   -5.5838    0.0000 C   0  0  0  0  0  0  0  0  0  0  0  0
   18.5093   -4.7588    0.0000 C   0  0  0  0  0  0  0  0  0  0  0  0
   19.2186   -4.3375    0.0000 C   0  0  0  0  0  0  0  0  0  0  0  0
   19.9381   -4.7411    0.0000 C   0  0  1  0  0  0  0  0  0  0  0  0
   19.9483   -5.5661    0.0000 C   0  0  0  0  0  0  0  0  0  0  0  0
   19.2390   -5.9874    0.0000 C   0  0  2  0  0  0  0  0  0  0  0  0
 39 33  2  0  0  0  0
 31 16  1  0  0  0  0
 27 17  1  0  0  0  0
 22 18  1  0  0  0  0
  1  2  1  0  0  0  0
 19  1  2  0  0  0  0
 20 19  1  0  0  0  0
 21 20  2  0  0  0  0
 22 21  1  0  0  0  0
 23 22  2  0  0  0  0
 24 23  1  0  0  0  0
 25 24  2  0  0  0  0
 26 25  1  0  0  0  0
 27 26  2  0  0  0  0
 28 27  1  0  0  0  0
 29 28  2  0  0  0  0
 30 29  1  0  0  0  0
 31 30  2  0  0  0  0
 32 31  1  0  0  0  0
 33 32  2  0  0  0  0
 44 34  1  6  0  0  0
 40 35  1  0  0  0  0
 40 36  1  0  0  0  0
 42 37  1  6  0  0  0
 44 38  1  1  0  0  0
 44 39  1  0  0  0  0
 40 39  1  0  0  0  0
 41 40  1  0  0  0  0
 42 41  1  0  0  0  0
 43 42  1  0  0  0  0
 44 43  1  0  0  0  0
  2  3  2  0  0  0  0
  1  4  1  0  0  0  0
  5  6  1  0  0  0  0
  6  7  1  0  0  0  0
  7  8  1  0  0  0  0
  8  9  1  0  0  0  0
  9 10  1  0  0  0  0
 10 11  1  0  0  0  0
  5 11  1  0  0  0  0
  5 10  1  0  0  0  0
 10 12  1  1  0  0  0
  6 13  1  0  0  0  0
  6 14  1  0  0  0  0
  8 15  1  1  0  0  0
  5  3  1  1  0  0  0
M  END
>  <cdx:fragmentId>
23681

$$$$
