11282492.cdx
  Mrv1902 05222410262D          

 34 37  0  0  0  0            999 V2000
    6.5290  -16.7607    0.0000 C   0  0  0  0  0  0  0  0  0  0  0  0
    6.5290  -15.9357    0.0000 C   0  0  0  0  0  0  0  0  0  0  0  0
    7.2435  -15.5232    0.0000 C   0  0  0  0  0  0  0  0  0  0  0  0
    7.9580  -15.9357    0.0000 C   0  0  0  0  0  0  0  0  0  0  0  0
    7.9580  -16.7607    0.0000 C   0  0  0  0  0  0  0  0  0  0  0  0
    7.2435  -17.1732    0.0000 C   0  0  0  0  0  0  0  0  0  0  0  0
    5.8146  -17.1732    0.0000 O   0  0  0  0  0  0  0  0  0  0  0  0
    8.6724  -17.1732    0.0000 O   0  0  0  0  0  0  0  0  0  0  0  0
    8.6724  -17.9982    0.0000 C   0  0  0  0  0  0  0  0  0  0  0  0
    8.6724  -15.5232    0.0000 C   0  0  0  0  0  0  0  0  0  0  0  0
    9.3869  -15.9357    0.0000 C   0  0  0  0  0  0  0  0  0  0  0  0
   10.1014  -15.5232    0.0000 C   0  0  0  0  0  0  0  0  0  0  0  0
   10.8159  -15.9357    0.0000 C   0  0  0  0  0  0  0  0  0  0  0  0
   10.8159  -16.7607    0.0000 C   0  0  0  0  0  0  0  0  0  0  0  0
   10.1014  -17.1732    0.0000 C   0  0  0  0  0  0  0  0  0  0  0  0
    9.3869  -16.7607    0.0000 C   0  0  0  0  0  0  0  0  0  0  0  0
   11.5303  -17.1732    0.0000 O   0  0  0  0  0  0  0  0  0  0  0  0
    5.8146  -15.5232    0.0000 C   0  0  0  0  0  0  0  0  0  0  0  0
    5.1001  -15.9357    0.0000 C   0  0  0  0  0  0  0  0  0  0  0  0
    5.1001  -16.7607    0.0000 C   0  0  0  0  0  0  0  0  0  0  0  0
    4.3856  -17.1732    0.0000 C   0  0  0  0  0  0  0  0  0  0  0  0
    3.6711  -16.7607    0.0000 C   0  0  0  0  0  0  0  0  0  0  0  0
    3.6711  -15.9357    0.0000 C   0  0  0  0  0  0  0  0  0  0  0  0
    4.3856  -15.5232    0.0000 C   0  0  0  0  0  0  0  0  0  0  0  0
    2.9567  -17.1732    0.0000 O   0  0  0  0  0  0  0  0  0  0  0  0
    7.2435  -14.6982    0.0000 C   0  0  0  0  0  0  0  0  0  0  0  0
    7.9580  -14.2857    0.0000 C   0  0  0  0  0  0  0  0  0  0  0  0
    7.9580  -13.4607    0.0000 C   0  0  0  0  0  0  0  0  0  0  0  0
    7.2435  -13.0482    0.0000 C   0  0  0  0  0  0  0  0  0  0  0  0
    7.2435  -12.2232    0.0000 C   0  0  0  0  0  0  0  0  0  0  0  0
    7.9580  -11.8107    0.0000 C   0  0  0  0  0  0  0  0  0  0  0  0
    8.6724  -12.2232    0.0000 C   0  0  0  0  0  0  0  0  0  0  0  0
    8.6724  -13.0482    0.0000 C   0  0  0  0  0  0  0  0  0  0  0  0
    6.5290  -11.8107    0.0000 O   0  0  0  0  0  0  0  0  0  0  0  0
  1  2  1  0  0  0  0
  2  3  2  0  0  0  0
  3  4  1  0  0  0  0
  4  5  2  0  0  0  0
  5  6  1  0  0  0  0
  1  6  2  0  0  0  0
  1  7  1  0  0  0  0
  8  9  1  0  0  0  0
  5  8  1  0  0  0  0
 11 12  1  0  0  0  0
 12 13  2  0  0  0  0
 13 14  1  0  0  0  0
 14 15  2  0  0  0  0
 15 16  1  0  0  0  0
 11 16  2  0  0  0  0
 14 17  1  0  0  0  0
 10 11  1  0  0  0  0
  4 10  1  0  0  0  0
 19 20  1  0  0  0  0
 20 21  2  0  0  0  0
 21 22  1  0  0  0  0
 22 23  2  0  0  0  0
 23 24  1  0  0  0  0
 19 24  2  0  0  0  0
 22 25  1  0  0  0  0
 18 19  1  0  0  0  0
  2 18  1  0  0  0  0
 26 27  1  0  0  0  0
 28 29  1  0  0  0  0
 29 30  2  0  0  0  0
 30 31  1  0  0  0  0
 31 32  2  0  0  0  0
 32 33  1  0  0  0  0
 28 33  2  0  0  0  0
 30 34  1  0  0  0  0
 27 28  1  0  0  0  0
  3 26  1  0  0  0  0
M  END
>  <cdx:groupId>
69445

>  <cdx:fragmentId>
69343

$$$$
