282465.cdx
  Mrv1902 05222410222D          

 26 29  0  0  0  0            999 V2000
    7.1063  -10.4202    0.0000 C   0  0  0  0  0  0  0  0  0  0  0  0
    7.8207  -10.0077    0.0000 N   0  0  0  0  0  0  0  0  0  0  0  0
    7.8207   -9.1827    0.0000 C   0  0  1  0  0  0  0  0  0  0  0  0
    7.1063   -8.7702    0.0000 C   0  0  0  0  0  0  0  0  0  0  0  0
    6.3918   -9.1827    0.0000 C   0  0  0  0  0  0  0  0  0  0  0  0
    5.6773   -8.7702    0.0000 C   0  0  0  0  0  0  0  0  0  0  0  0
    4.9629   -9.1827    0.0000 C   0  0  0  0  0  0  0  0  0  0  0  0
    4.9629  -10.0077    0.0000 C   0  0  0  0  0  0  0  0  0  0  0  0
    5.6773  -10.4202    0.0000 C   0  0  0  0  0  0  0  0  0  0  0  0
    6.3918  -10.0077    0.0000 C   0  0  0  0  0  0  0  0  0  0  0  0
    8.5352  -10.4202    0.0000 C   0  0  0  0  0  0  0  0  0  0  0  0
    9.2497  -10.0077    0.0000 C   0  0  0  0  0  0  0  0  0  0  0  0
    9.2497   -9.1827    0.0000 C   0  0  0  0  0  0  0  0  0  0  0  0
    9.9641   -8.7702    0.0000 C   0  0  0  0  0  0  0  0  0  0  0  0
    9.9641   -7.9452    0.0000 C   0  0  0  0  0  0  0  0  0  0  0  0
    9.2497   -7.5327    0.0000 C   0  0  0  0  0  0  0  0  0  0  0  0
    8.5352   -7.9452    0.0000 C   0  0  0  0  0  0  0  0  0  0  0  0
    8.5352   -8.7702    0.0000 C   0  0  0  0  0  0  0  0  0  0  0  0
    5.6773  -11.2452    0.0000 O   0  0  0  0  0  0  0  0  0  0  0  0
    4.2484  -10.4202    0.0000 O   0  0  0  0  0  0  0  0  0  0  0  0
    3.5339  -10.0077    0.0000 C   0  0  0  0  0  0  0  0  0  0  0  0
   10.6786   -7.5327    0.0000 O   0  0  0  0  0  0  0  0  0  0  0  0
   11.3931   -7.9452    0.0000 C   0  0  0  0  0  0  0  0  0  0  0  0
    9.2497   -6.7077    0.0000 O   0  0  0  0  0  0  0  0  0  0  0  0
    9.9641   -6.2952    0.0000 C   0  0  0  0  0  0  0  0  0  0  0  0
    7.8207   -8.3577    0.0000 H   0  0  0  0  0  0  0  0  0  0  0  0
  1  2  1  0  0  0  0
  2  3  1  0  0  0  0
  3  4  1  0  0  0  0
  4  5  1  0  0  0  0
  5  6  1  0  0  0  0
  6  7  2  0  0  0  0
  7  8  1  0  0  0  0
  8  9  2  0  0  0  0
  9 10  1  0  0  0  0
  1 10  1  0  0  0  0
  5 10  2  0  0  0  0
 11 12  1  0  0  0  0
 12 13  1  0  0  0  0
 13 14  1  0  0  0  0
 14 15  2  0  0  0  0
 15 16  1  0  0  0  0
 16 17  2  0  0  0  0
 17 18  1  0  0  0  0
 13 18  2  0  0  0  0
 11  2  1  0  0  0  0
 18  3  1  0  0  0  0
  9 19  1  0  0  0  0
 20 21  1  0  0  0  0
  8 20  1  0  0  0  0
 22 23  1  0  0  0  0
 15 22  1  0  0  0  0
 24 25  1  0  0  0  0
 16 24  1  0  0  0  0
  3 26  1  6  0  0  0
M  END
>  <cdx:fragmentId>
69254

$$$$
