5282597.cdx
  Mrv1902 05222410272D          

 39 38  0  0  0  0            999 V2000
   27.6577   -9.1328    0.0000 C   0  0  0  0  0  0  0  0  0  0  0  0
   26.9432   -9.5453    0.0000 C   0  0  0  0  0  0  0  0  0  0  0  0
   26.2288   -9.1328    0.0000 C   0  0  0  0  0  0  0  0  0  0  0  0
   25.5143   -9.5453    0.0000 C   0  0  0  0  0  0  0  0  0  0  0  0
   24.7998   -9.1328    0.0000 C   0  0  0  0  0  0  0  0  0  0  0  0
   24.0853   -9.5453    0.0000 C   0  0  0  0  0  0  0  0  0  0  0  0
   23.3709   -9.1328    0.0000 C   0  0  0  0  0  0  0  0  0  0  0  0
   22.6564   -9.5453    0.0000 C   0  0  0  0  0  0  0  0  0  0  0  0
   21.9419   -9.1328    0.0000 C   0  0  0  0  0  0  0  0  0  0  0  0
   21.2275   -9.5453    0.0000 C   0  0  0  0  0  0  0  0  0  0  0  0
   20.5130   -9.1328    0.0000 C   0  0  0  0  0  0  0  0  0  0  0  0
   19.7985   -9.5453    0.0000 C   0  0  0  0  0  0  0  0  0  0  0  0
   19.0841   -9.1328    0.0000 C   0  0  0  0  0  0  0  0  0  0  0  0
   18.3696   -9.5453    0.0000 C   0  0  0  0  0  0  0  0  0  0  0  0
   17.6551   -9.1328    0.0000 C   0  0  0  0  0  0  0  0  0  0  0  0
   16.9406   -9.5453    0.0000 C   0  0  0  0  0  0  0  0  0  0  0  0
   16.2262   -9.1328    0.0000 C   0  0  0  0  0  0  0  0  0  0  0  0
   15.5117   -9.5453    0.0000 C   0  0  0  0  0  0  0  0  0  0  0  0
   14.7972   -9.1328    0.0000 C   0  0  0  0  0  0  0  0  0  0  0  0
   14.0828   -9.5453    0.0000 C   0  0  0  0  0  0  0  0  0  0  0  0
   13.3683   -9.1328    0.0000 C   0  0  0  0  0  0  0  0  0  0  0  0
   12.6538   -9.5453    0.0000 C   0  0  0  0  0  0  0  0  0  0  0  0
   11.9393   -9.1328    0.0000 C   0  0  0  0  0  0  0  0  0  0  0  0
   11.2249   -9.5453    0.0000 C   0  0  0  0  0  0  0  0  0  0  0  0
   10.5104   -9.1328    0.0000 C   0  0  0  0  0  0  0  0  0  0  0  0
    9.7959   -9.5453    0.0000 C   0  0  0  0  0  0  0  0  0  0  0  0
    9.0815   -9.1328    0.0000 C   0  0  0  0  0  0  0  0  0  0  0  0
    8.3670   -9.5453    0.0000 C   0  0  0  0  0  0  0  0  0  0  0  0
    7.6525   -9.1328    0.0000 C   0  0  0  0  0  0  0  0  0  0  0  0
    6.9380   -9.5453    0.0000 C   0  0  0  0  0  0  0  0  0  0  0  0
    6.2236   -9.1328    0.0000 C   0  0  0  0  0  0  0  0  0  0  0  0
    5.5091   -9.5453    0.0000 C   0  0  0  0  0  0  0  0  0  0  0  0
    4.7946   -9.1328    0.0000 C   0  0  0  0  0  0  0  0  0  0  0  0
    4.0802   -9.5453    0.0000 C   0  0  0  0  0  0  0  0  0  0  0  0
    3.3657   -9.1328    0.0000 C   0  0  0  0  0  0  0  0  0  0  0  0
    2.6512   -9.5453    0.0000 C   0  0  0  0  0  0  0  0  0  0  0  0
    1.9368   -9.1328    0.0000 C   0  0  0  0  0  0  0  0  0  0  0  0
   27.6577   -8.3078    0.0000 O   0  0  0  0  0  0  0  0  0  0  0  0
   28.3722   -9.5453    0.0000 O   0  0  0  0  0  0  0  0  0  0  0  0
  1  2  1  0  0  0  0
  2  3  1  0  0  0  0
  3  4  1  0  0  0  0
  4  5  1  0  0  0  0
  5  6  1  0  0  0  0
  6  7  1  0  0  0  0
  7  8  1  0  0  0  0
  8  9  1  0  0  0  0
  9 10  1  0  0  0  0
 10 11  1  0  0  0  0
 11 12  1  0  0  0  0
 12 13  1  0  0  0  0
 13 14  1  0  0  0  0
 14 15  1  0  0  0  0
 15 16  1  0  0  0  0
 16 17  1  0  0  0  0
 17 18  1  0  0  0  0
 18 19  1  0  0  0  0
 19 20  1  0  0  0  0
 20 21  1  0  0  0  0
 21 22  1  0  0  0  0
 22 23  1  0  0  0  0
 23 24  1  0  0  0  0
 24 25  1  0  0  0  0
 25 26  1  0  0  0  0
 26 27  1  0  0  0  0
 27 28  1  0  0  0  0
 28 29  1  0  0  0  0
 29 30  1  0  0  0  0
 30 31  1  0  0  0  0
 31 32  1  0  0  0  0
 32 33  1  0  0  0  0
 33 34  1  0  0  0  0
 34 35  1  0  0  0  0
 35 36  1  0  0  0  0
 36 37  1  0  0  0  0
  1 38  2  0  0  0  0
  1 39  1  0  0  0  0
M  END
>  <cdx:groupId>
24059

>  <cdx:fragmentId>
23946

$$$$
