282768.cdx
  Mrv1902 05222410262D          

 22 21  0  0  0  0            999 V2000
    1.5125   -8.4425    0.0000 C   0  0  0  0  0  0  0  0  0  0  0  0
    2.2270   -8.0300    0.0000 C   0  0  0  0  0  0  0  0  0  0  0  0
    0.7980   -8.0300    0.0000 O   0  0  0  0  0  0  0  0  0  0  0  0
    1.5125   -9.2675    0.0000 O   0  0  0  0  0  0  0  0  0  0  0  0
    2.9414   -8.4425    0.0000 C   0  0  0  0  0  0  0  0  0  0  0  0
    3.6559   -8.0300    0.0000 C   0  0  0  0  0  0  0  0  0  0  0  0
    4.3704   -8.4425    0.0000 C   0  0  0  0  0  0  0  0  0  0  0  0
    5.0849   -8.0300    0.0000 C   0  0  0  0  0  0  0  0  0  0  0  0
    5.7993   -8.4425    0.0000 C   0  0  0  0  0  0  0  0  0  0  0  0
    6.5138   -8.0300    0.0000 C   0  0  0  0  0  0  0  0  0  0  0  0
    7.2283   -8.4425    0.0000 C   0  0  0  0  0  0  0  0  0  0  0  0
    7.9427   -8.0300    0.0000 C   0  0  0  0  0  0  0  0  0  0  0  0
    8.6572   -8.4425    0.0000 C   0  0  0  0  0  0  0  0  0  0  0  0
    9.3717   -8.0300    0.0000 C   0  0  0  0  0  0  0  0  0  0  0  0
    9.3717   -7.2050    0.0000 C   0  0  0  0  0  0  0  0  0  0  0  0
   10.0862   -6.7925    0.0000 C   0  0  0  0  0  0  0  0  0  0  0  0
   10.0862   -5.9675    0.0000 C   0  0  0  0  0  0  0  0  0  0  0  0
   10.8006   -5.5550    0.0000 C   0  0  0  0  0  0  0  0  0  0  0  0
   10.8006   -4.7300    0.0000 C   0  0  0  0  0  0  0  0  0  0  0  0
   11.5151   -4.3175    0.0000 C   0  0  0  0  0  0  0  0  0  0  0  0
   11.5151   -3.4925    0.0000 C   0  0  0  0  0  0  0  0  0  0  0  0
   12.2296   -3.0800    0.0000 C   0  0  0  0  0  0  0  0  0  0  0  0
  1  2  1  0  0  0  0
  1  3  1  0  0  0  0
  1  4  2  0  0  0  0
  2  5  1  0  0  0  0
  5  6  1  0  0  0  0
  6  7  1  0  0  0  0
  7  8  1  0  0  0  0
  8  9  1  0  0  0  0
  9 10  1  0  0  0  0
 10 11  1  0  0  0  0
 11 12  1  0  0  0  0
 12 13  1  0  0  0  0
 13 14  2  0  0  0  0
 14 15  1  0  0  0  0
 15 16  1  0  0  0  0
 16 17  1  0  0  0  0
 17 18  1  0  0  0  0
 18 19  1  0  0  0  0
 19 20  1  0  0  0  0
 20 21  1  0  0  0  0
 21 22  1  0  0  0  0
M  END
>  <cdx:fragmentId>
24573

$$$$
