282767.cdx
  Mrv1902 05222410192D          

 22 21  0  0  0  0            999 V2000
    1.9800   -9.0738    0.0000 O   0  0  0  0  0  0  0  0  0  0  0  0
    2.6944  -10.3113    0.0000 O   0  0  0  0  0  0  0  0  0  0  0  0
    8.4102   -9.4863    0.0000 C   0  0  0  0  0  0  0  0  0  0  0  0
    7.6957   -9.0738    0.0000 C   0  0  0  0  0  0  0  0  0  0  0  0
    6.9813   -9.4863    0.0000 C   0  0  0  0  0  0  0  0  0  0  0  0
    6.2668   -9.0738    0.0000 C   0  0  0  0  0  0  0  0  0  0  0  0
    5.5523   -9.4863    0.0000 C   0  0  0  0  0  0  0  0  0  0  0  0
    4.8378   -9.0738    0.0000 C   0  0  0  0  0  0  0  0  0  0  0  0
    4.1234   -9.4863    0.0000 C   0  0  0  0  0  0  0  0  0  0  0  0
    3.4089   -9.0738    0.0000 C   0  0  0  0  0  0  0  0  0  0  0  0
    2.6944   -9.4863    0.0000 C   0  0  0  0  0  0  0  0  0  0  0  0
    9.1247   -9.0738    0.0000 C   0  0  0  0  0  0  0  0  0  0  0  0
    9.1247   -8.2488    0.0000 C   0  0  0  0  0  0  0  0  0  0  0  0
    9.8391   -7.8363    0.0000 C   0  0  0  0  0  0  0  0  0  0  0  0
    9.8391   -7.0113    0.0000 C   0  0  0  0  0  0  0  0  0  0  0  0
   10.5536   -6.5988    0.0000 C   0  0  0  0  0  0  0  0  0  0  0  0
   10.5536   -5.7738    0.0000 C   0  0  0  0  0  0  0  0  0  0  0  0
   11.2681   -5.3613    0.0000 C   0  0  0  0  0  0  0  0  0  0  0  0
   11.2681   -4.5363    0.0000 C   0  0  0  0  0  0  0  0  0  0  0  0
   11.9826   -4.1238    0.0000 C   0  0  0  0  0  0  0  0  0  0  0  0
   11.9826   -3.2988    0.0000 C   0  0  0  0  0  0  0  0  0  0  0  0
   12.6970   -2.8863    0.0000 C   0  0  0  0  0  0  0  0  0  0  0  0
 11  1  1  0  0  0  0
 11  2  2  0  0  0  0
  4  3  1  0  0  0  0
  5  4  1  0  0  0  0
  6  5  1  0  0  0  0
  7  6  1  0  0  0  0
  8  7  1  0  0  0  0
  9  8  1  0  0  0  0
 10  9  1  0  0  0  0
 11 10  1  0  0  0  0
  3 12  2  0  0  0  0
 12 13  1  0  0  0  0
 13 14  1  0  0  0  0
 14 15  1  0  0  0  0
 15 16  1  0  0  0  0
 16 17  1  0  0  0  0
 17 18  1  0  0  0  0
 18 19  1  0  0  0  0
 19 20  1  0  0  0  0
 20 21  1  0  0  0  0
 21 22  1  0  0  0  0
M  END
>  <cdx:fragmentId>
24385

$$$$
