5282766.cdx
  Mrv1902 05222410192D          

 21 20  0  0  0  0            999 V2000
   13.3485   -6.8469    0.0000 C   0  0  0  0  0  0  0  0  0  0  0  0
   12.6340   -7.2594    0.0000 C   0  0  0  0  0  0  0  0  0  0  0  0
   11.9196   -6.8469    0.0000 C   0  0  0  0  0  0  0  0  0  0  0  0
   11.2051   -7.2594    0.0000 C   0  0  0  0  0  0  0  0  0  0  0  0
   10.4906   -6.8469    0.0000 C   0  0  0  0  0  0  0  0  0  0  0  0
    9.7762   -7.2594    0.0000 C   0  0  0  0  0  0  0  0  0  0  0  0
    9.0617   -6.8469    0.0000 C   0  0  0  0  0  0  0  0  0  0  0  0
    8.3472   -7.2594    0.0000 C   0  0  0  0  0  0  0  0  0  0  0  0
    7.6327   -6.8469    0.0000 C   0  0  0  0  0  0  0  0  0  0  0  0
    6.9183   -7.2594    0.0000 C   0  0  0  0  0  0  0  0  0  0  0  0
    6.2038   -6.8469    0.0000 C   0  0  0  0  0  0  0  0  0  0  0  0
    5.4893   -7.2594    0.0000 C   0  0  0  0  0  0  0  0  0  0  0  0
    4.7749   -6.8469    0.0000 C   0  0  0  0  0  0  0  0  0  0  0  0
    4.0604   -7.2594    0.0000 C   0  0  0  0  0  0  0  0  0  0  0  0
    3.3459   -6.8469    0.0000 C   0  0  0  0  0  0  0  0  0  0  0  0
    2.6315   -7.2594    0.0000 C   0  0  0  0  0  0  0  0  0  0  0  0
    1.9170   -6.8469    0.0000 C   0  0  0  0  0  0  0  0  0  0  0  0
    1.2025   -7.2594    0.0000 C   0  0  0  0  0  0  0  0  0  0  0  0
    0.4880   -6.8469    0.0000 C   0  0  0  0  0  0  0  0  0  0  0  0
   13.3485   -6.0219    0.0000 O   0  0  0  0  0  0  0  0  0  0  0  0
   14.0630   -7.2594    0.0000 O   0  0  0  0  0  0  0  0  0  0  0  0
  1  2  1  0  0  0  0
  2  3  2  0  0  0  0
  3  4  1  0  0  0  0
  4  5  1  0  0  0  0
  5  6  1  0  0  0  0
  6  7  1  0  0  0  0
  7  8  1  0  0  0  0
  8  9  1  0  0  0  0
  9 10  1  0  0  0  0
 10 11  1  0  0  0  0
 11 12  1  0  0  0  0
 12 13  1  0  0  0  0
 13 14  1  0  0  0  0
 14 15  1  0  0  0  0
 15 16  1  0  0  0  0
 16 17  1  0  0  0  0
 17 18  1  0  0  0  0
 18 19  1  0  0  0  0
  1 20  2  0  0  0  0
  1 21  1  0  0  0  0
M  END
>  <cdx:groupId>
64

>  <cdx:fragmentId>
5

$$$$
