5282743.cdx
  Mrv1902 05222410262D          

 18 17  0  0  0  0            999 V2000
   20.1558   -9.1328    0.0000 C   0  0  0  0  0  0  0  0  0  0  0  0
   19.4413   -9.5453    0.0000 C   0  0  0  0  0  0  0  0  0  0  0  0
   18.7268   -9.1328    0.0000 C   0  0  0  0  0  0  0  0  0  0  0  0
   18.0123   -9.5453    0.0000 C   0  0  0  0  0  0  0  0  0  0  0  0
   17.2979   -9.1328    0.0000 C   0  0  0  0  0  0  0  0  0  0  0  0
   16.5834   -9.5453    0.0000 C   0  0  0  0  0  0  0  0  0  0  0  0
   15.8689   -9.1328    0.0000 C   0  0  0  0  0  0  0  0  0  0  0  0
   15.1545   -9.5453    0.0000 C   0  0  0  0  0  0  0  0  0  0  0  0
   14.4400   -9.1328    0.0000 C   0  0  0  0  0  0  0  0  0  0  0  0
   13.7255   -9.5453    0.0000 C   0  0  0  0  0  0  0  0  0  0  0  0
   13.0111   -9.1328    0.0000 C   0  0  0  0  0  0  0  0  0  0  0  0
   12.2966   -9.5453    0.0000 C   0  0  0  0  0  0  0  0  0  0  0  0
   11.5821   -9.1328    0.0000 C   0  0  0  0  0  0  0  0  0  0  0  0
   10.8676   -9.5453    0.0000 C   0  0  0  0  0  0  0  0  0  0  0  0
   10.1532   -9.1328    0.0000 C   0  0  0  0  0  0  0  0  0  0  0  0
    9.4387   -9.5453    0.0000 C   0  0  0  0  0  0  0  0  0  0  0  0
   20.1558   -8.3078    0.0000 O   0  0  0  0  0  0  0  0  0  0  0  0
   20.8702   -9.5453    0.0000 O   0  0  0  0  0  0  0  0  0  0  0  0
  1  2  1  0  0  0  0
  2  3  2  0  0  0  0
  3  4  1  0  0  0  0
  4  5  1  0  0  0  0
  5  6  1  0  0  0  0
  6  7  1  0  0  0  0
  7  8  1  0  0  0  0
  8  9  1  0  0  0  0
  9 10  1  0  0  0  0
 10 11  1  0  0  0  0
 11 12  1  0  0  0  0
 12 13  1  0  0  0  0
 13 14  1  0  0  0  0
 14 15  1  0  0  0  0
 15 16  1  0  0  0  0
  1 17  2  0  0  0  0
  1 18  1  0  0  0  0
M  END
>  <cdx:groupId>
24122

>  <cdx:fragmentId>
24072

$$$$
