282797.cdx
  Mrv1902 05222410262D          

 20 19  0  0  0  0            999 V2000
    2.4005  -11.1603    0.0000 O   0  0  0  0  0  0  0  0  0  0  0  0
    3.1150  -12.3978    0.0000 O   0  0  0  0  0  0  0  0  0  0  0  0
    8.8308  -11.5728    0.0000 C   0  0  0  0  0  0  0  0  0  0  0  0
    8.1163  -11.1603    0.0000 C   0  0  0  0  0  0  0  0  0  0  0  0
    7.4018  -11.5728    0.0000 C   0  0  0  0  0  0  0  0  0  0  0  0
    6.6874  -11.1603    0.0000 C   0  0  0  0  0  0  0  0  0  0  0  0
    5.9729  -11.5728    0.0000 C   0  0  0  0  0  0  0  0  0  0  0  0
    5.2584  -11.1603    0.0000 C   0  0  0  0  0  0  0  0  0  0  0  0
    4.5440  -11.5728    0.0000 C   0  0  0  0  0  0  0  0  0  0  0  0
    3.8295  -11.1603    0.0000 C   0  0  0  0  0  0  0  0  0  0  0  0
    3.1150  -11.5728    0.0000 C   0  0  0  0  0  0  0  0  0  0  0  0
    9.5453  -11.1603    0.0000 C   0  0  0  0  0  0  0  0  0  0  0  0
    9.5453  -10.3353    0.0000 C   0  0  0  0  0  0  0  0  0  0  0  0
   10.2597   -9.9228    0.0000 C   0  0  0  0  0  0  0  0  0  0  0  0
   10.2597   -9.0978    0.0000 C   0  0  0  0  0  0  0  0  0  0  0  0
   10.9742   -8.6853    0.0000 C   0  0  0  0  0  0  0  0  0  0  0  0
   10.9742   -7.8603    0.0000 C   0  0  0  0  0  0  0  0  0  0  0  0
   11.6887   -7.4478    0.0000 C   0  0  0  0  0  0  0  0  0  0  0  0
   11.6887   -6.6228    0.0000 C   0  0  0  0  0  0  0  0  0  0  0  0
   12.4031   -6.2103    0.0000 C   0  0  0  0  0  0  0  0  0  0  0  0
 11  1  1  0  0  0  0
 11  2  2  0  0  0  0
  4  3  1  0  0  0  0
  5  4  1  0  0  0  0
  6  5  1  0  0  0  0
  7  6  1  0  0  0  0
  8  7  1  0  0  0  0
  9  8  1  0  0  0  0
 10  9  1  0  0  0  0
 11 10  1  0  0  0  0
  3 12  2  0  0  0  0
 12 13  1  0  0  0  0
 13 14  1  0  0  0  0
 14 15  2  0  0  0  0
 15 16  1  0  0  0  0
 16 17  1  0  0  0  0
 17 18  1  0  0  0  0
 18 19  1  0  0  0  0
 19 20  1  0  0  0  0
M  END
>  <cdx:fragmentId>
24505

$$$$
