282762.cdx
  Mrv1902 05222410182D          

 20 19  0  0  0  0            999 V2000
    1.1358   -7.8678    0.0000 O   0  0  0  0  0  0  0  0  0  0  0  0
    1.8503   -9.1053    0.0000 O   0  0  0  0  0  0  0  0  0  0  0  0
   13.9963   -7.8678    0.0000 C   0  0  0  0  0  0  0  0  0  0  0  0
   13.2818   -8.2803    0.0000 C   0  0  0  0  0  0  0  0  0  0  0  0
   12.5673   -7.8678    0.0000 C   0  0  0  0  0  0  0  0  0  0  0  0
   11.8529   -8.2803    0.0000 C   0  0  0  0  0  0  0  0  0  0  0  0
   11.1384   -7.8678    0.0000 C   0  0  0  0  0  0  0  0  0  0  0  0
   10.4239   -8.2803    0.0000 C   0  0  0  0  0  0  0  0  0  0  0  0
    9.7095   -7.8678    0.0000 C   0  0  0  0  0  0  0  0  0  0  0  0
    8.9950   -8.2803    0.0000 C   0  0  0  0  0  0  0  0  0  0  0  0
    8.2805   -7.8678    0.0000 C   0  0  0  0  0  0  0  0  0  0  0  0
    7.5660   -8.2803    0.0000 C   0  0  0  0  0  0  0  0  0  0  0  0
    6.8516   -7.8678    0.0000 C   0  0  0  0  0  0  0  0  0  0  0  0
    6.1371   -8.2803    0.0000 C   0  0  0  0  0  0  0  0  0  0  0  0
    5.4226   -7.8678    0.0000 C   0  0  0  0  0  0  0  0  0  0  0  0
    4.7082   -8.2803    0.0000 C   0  0  0  0  0  0  0  0  0  0  0  0
    3.9937   -7.8678    0.0000 C   0  0  0  0  0  0  0  0  0  0  0  0
    3.2792   -8.2803    0.0000 C   0  0  0  0  0  0  0  0  0  0  0  0
    2.5648   -7.8678    0.0000 C   0  0  0  0  0  0  0  0  0  0  0  0
    1.8503   -8.2803    0.0000 C   0  0  0  0  0  0  0  0  0  0  0  0
 20  1  1  0  0  0  0
 20  2  2  0  0  0  0
  4  3  1  0  0  0  0
  5  4  1  0  0  0  0
  6  5  1  0  0  0  0
  7  6  1  0  0  0  0
  8  7  1  0  0  0  0
  9  8  2  0  0  0  0
 10  9  1  0  0  0  0
 11 10  1  0  0  0  0
 12 11  1  0  0  0  0
 13 12  1  0  0  0  0
 14 13  1  0  0  0  0
 15 14  1  0  0  0  0
 16 15  1  0  0  0  0
 17 16  1  0  0  0  0
 18 17  1  0  0  0  0
 19 18  1  0  0  0  0
 20 19  1  0  0  0  0
M  END
>  <cdx:fragmentId>
24320

$$$$
