282761.cdx
  Mrv1902 05222410182D          

 20 19  0  0  0  0            999 V2000
    2.0695   -8.0110    0.0000 O   0  0  0  0  0  0  0  0  0  0  0  0
    2.7840   -6.7735    0.0000 O   0  0  0  0  0  0  0  0  0  0  0  0
   12.7942  -11.7178    0.0000 C   0  0  0  0  0  0  0  0  0  0  0  0
   12.0790  -11.3066    0.0000 C   0  0  0  0  0  0  0  0  0  0  0  0
   12.0775  -10.4816    0.0000 C   0  0  0  0  0  0  0  0  0  0  0  0
   11.3623  -10.0703    0.0000 C   0  0  0  0  0  0  0  0  0  0  0  0
   11.3609   -9.2453    0.0000 C   0  0  0  0  0  0  0  0  0  0  0  0
   10.6457   -8.8341    0.0000 C   0  0  0  0  0  0  0  0  0  0  0  0
   10.6442   -8.0091    0.0000 C   0  0  0  0  0  0  0  0  0  0  0  0
    9.9287   -7.5985    0.0000 C   0  0  0  0  0  0  0  0  0  0  0  0
    9.2142   -8.0110    0.0000 C   0  0  0  0  0  0  0  0  0  0  0  0
    8.4997   -7.5985    0.0000 C   0  0  0  0  0  0  0  0  0  0  0  0
    7.7853   -8.0110    0.0000 C   0  0  0  0  0  0  0  0  0  0  0  0
    7.0708   -7.5985    0.0000 C   0  0  0  0  0  0  0  0  0  0  0  0
    6.3563   -8.0110    0.0000 C   0  0  0  0  0  0  0  0  0  0  0  0
    5.6418   -7.5985    0.0000 C   0  0  0  0  0  0  0  0  0  0  0  0
    4.9274   -8.0110    0.0000 C   0  0  0  0  0  0  0  0  0  0  0  0
    4.2129   -7.5985    0.0000 C   0  0  0  0  0  0  0  0  0  0  0  0
    3.4984   -8.0110    0.0000 C   0  0  0  0  0  0  0  0  0  0  0  0
    2.7840   -7.5985    0.0000 C   0  0  0  0  0  0  0  0  0  0  0  0
 20  1  1  0  0  0  0
 20  2  2  0  0  0  0
  4  3  1  0  0  0  0
  5  4  1  0  0  0  0
  6  5  1  0  0  0  0
  7  6  1  0  0  0  0
  8  7  1  0  0  0  0
  9  8  1  0  0  0  0
 10  9  2  0  0  0  0
 11 10  1  0  0  0  0
 12 11  1  0  0  0  0
 13 12  1  0  0  0  0
 14 13  1  0  0  0  0
 15 14  1  0  0  0  0
 16 15  1  0  0  0  0
 17 16  1  0  0  0  0
 18 17  1  0  0  0  0
 19 18  1  0  0  0  0
 20 19  1  0  0  0  0
M  END
>  <cdx:fragmentId>
5

$$$$
