282803.cdx
  Mrv1902 05222410282D          

 16 19  0  0  0  0            999 V2000
    8.7028   -7.6473    0.0000 C   0  0  0  0  0  0  0  0  0  0  0  0
    8.6959   -8.4723    0.0000 C   0  0  0  0  0  0  0  0  0  0  0  0
    7.9780   -8.8788    0.0000 C   0  0  0  0  0  0  0  0  0  0  0  0
    7.2670   -8.4603    0.0000 C   0  0  0  0  0  0  0  0  0  0  0  0
    6.5491   -8.8667    0.0000 C   0  0  0  0  0  0  0  0  0  0  0  0
    5.8381   -8.4482    0.0000 C   0  0  0  0  0  0  0  0  0  0  0  0
    5.8451   -7.6233    0.0000 C   0  0  0  0  0  0  0  0  0  0  0  0
    6.5630   -7.2168    0.0000 C   0  0  0  0  0  0  0  0  0  0  0  0
    6.8727   -6.4511    0.0000 C   0  0  0  0  0  0  0  0  0  0  0  0
    6.4662   -5.7332    0.0000 C   0  0  0  0  0  0  0  0  0  0  0  0
    6.8847   -5.0222    0.0000 C   0  0  0  0  0  0  0  0  0  0  0  0
    7.7097   -5.0292    0.0000 C   0  0  0  0  0  0  0  0  0  0  0  0
    8.1162   -5.7471    0.0000 C   0  0  0  0  0  0  0  0  0  0  0  0
    7.6977   -6.4581    0.0000 C   0  0  0  0  0  0  0  0  0  0  0  0
    7.9919   -7.2288    0.0000 C   0  0  0  0  0  0  0  0  0  0  0  0
    7.2739   -7.6353    0.0000 C   0  0  0  0  0  0  0  0  0  0  0  0
  1  2  1  0  0  0  0
  2  3  1  0  0  0  0
  3  4  1  0  0  0  0
  4  5  1  0  0  0  0
  5  6  1  0  0  0  0
  6  7  1  0  0  0  0
  7  8  1  0  0  0  0
  8  9  1  0  0  0  0
  9 10  1  0  0  0  0
 10 11  1  0  0  0  0
 11 12  1  0  0  0  0
 12 13  1  0  0  0  0
 13 14  1  0  0  0  0
  9 14  1  0  0  0  0
 14 15  1  0  0  0  0
  1 15  1  0  0  0  0
 15 16  1  0  0  0  0
  4 16  1  0  0  0  0
  8 16  1  0  0  0  0
M  END
>  <cdx:fragmentId>
29

$$$$
