282944.cdx
  Mrv1902 05222410192D          

 21 20  0  0  0  0            999 V2000
    5.4763   -7.0015    0.0000 C   0  0  0  0  0  0  0  0  0  0  0  0
    7.6197   -8.2390    0.0000 O   0  0  0  0  0  0  0  0  0  0  0  0
   14.0500   -7.0015    0.0000 O   0  0  0  0  0  0  0  0  0  0  0  0
   13.3355   -8.2390    0.0000 O   0  0  0  0  0  0  0  0  0  0  0  0
    6.1908   -7.4140    0.0000 C   0  0  0  0  0  0  0  0  0  0  0  0
    6.9053   -7.0015    0.0000 C   0  0  0  0  0  0  0  0  0  0  0  0
    7.6197   -7.4140    0.0000 C   0  0  0  0  0  0  0  0  0  0  0  0
    8.3342   -7.0015    0.0000 C   0  0  0  0  0  0  0  0  0  0  0  0
    9.0487   -7.4140    0.0000 C   0  0  0  0  0  0  0  0  0  0  0  0
    9.7631   -7.0015    0.0000 C   0  0  0  0  0  0  0  0  0  0  0  0
   10.4776   -7.4140    0.0000 C   0  0  0  0  0  0  0  0  0  0  0  0
   11.1921   -7.0015    0.0000 C   0  0  0  0  0  0  0  0  0  0  0  0
   11.9066   -7.4140    0.0000 C   0  0  0  0  0  0  0  0  0  0  0  0
   12.6210   -7.0015    0.0000 C   0  0  0  0  0  0  0  0  0  0  0  0
   13.3355   -7.4140    0.0000 C   0  0  0  0  0  0  0  0  0  0  0  0
    4.7618   -7.4140    0.0000 C   0  0  0  0  0  0  0  0  0  0  0  0
    4.7618   -8.2390    0.0000 C   0  0  0  0  0  0  0  0  0  0  0  0
    4.0474   -8.6515    0.0000 C   0  0  0  0  0  0  0  0  0  0  0  0
    4.0474   -9.4765    0.0000 C   0  0  0  0  0  0  0  0  0  0  0  0
    3.3329   -9.8890    0.0000 C   0  0  0  0  0  0  0  0  0  0  0  0
    3.3329  -10.7140    0.0000 C   0  0  0  0  0  0  0  0  0  0  0  0
  7  2  1  0  0  0  0
 15  3  1  0  0  0  0
 15  4  2  0  0  0  0
  5  1  1  0  0  0  0
  6  5  2  0  0  0  0
  7  6  1  0  0  0  0
  8  7  1  0  0  0  0
  9  8  1  0  0  0  0
 10  9  1  0  0  0  0
 11 10  1  0  0  0  0
 12 11  1  0  0  0  0
 13 12  1  0  0  0  0
 14 13  1  0  0  0  0
 15 14  1  0  0  0  0
  1 16  2  0  0  0  0
 16 17  1  0  0  0  0
 17 18  1  0  0  0  0
 18 19  1  0  0  0  0
 19 20  1  0  0  0  0
 20 21  1  0  0  0  0
M  END
>  <cdx:groupId>
24629

>  <cdx:fragmentId>
24570

$$$$
