5283280.cdx
  Mrv1902 05222410192D          

 19 19  0  0  0  0            999 V2000
   19.0964   -8.9586    0.0000 C   0  0  0  0  0  0  0  0  0  0  0  0
   18.3819   -9.3711    0.0000 C   0  0  0  0  0  0  0  0  0  0  0  0
   17.6674   -9.7836    0.0000 C   0  0  0  0  0  0  0  0  0  0  0  0
   16.9530  -10.1961    0.0000 C   0  0  0  0  0  0  0  0  0  0  0  0
   16.2385  -10.6086    0.0000 C   0  0  0  0  0  0  0  0  0  0  0  0
   15.5240  -10.1961    0.0000 C   0  0  2  0  0  0  0  0  0  0  0  0
   14.6990  -10.1961    0.0000 C   0  0  1  0  0  0  0  0  0  0  0  0
   15.1115   -9.4816    0.0000 O   0  0  0  0  0  0  0  0  0  0  0  0
   13.9845  -10.6086    0.0000 C   0  0  0  0  0  0  0  0  0  0  0  0
   13.2701  -10.1961    0.0000 C   0  0  0  0  0  0  0  0  0  0  0  0
   12.5556  -10.6086    0.0000 C   0  0  0  0  0  0  0  0  0  0  0  0
   11.8411  -10.1961    0.0000 C   0  0  0  0  0  0  0  0  0  0  0  0
   11.1267  -10.6086    0.0000 C   0  0  0  0  0  0  0  0  0  0  0  0
   10.4122  -10.1961    0.0000 C   0  0  0  0  0  0  0  0  0  0  0  0
    9.6977  -10.6086    0.0000 C   0  0  0  0  0  0  0  0  0  0  0  0
   19.8108   -8.5461    0.0000 C   0  0  2  0  0  0  0  0  0  0  0  0
   19.8108   -7.7211    0.0000 O   0  0  0  0  0  0  0  0  0  0  0  0
   20.5253   -8.9586    0.0000 C   0  0  0  0  0  0  0  0  0  0  0  0
   21.2398   -8.5461    0.0000 C   0  0  0  0  0  0  0  0  0  0  0  0
  1  2  3  0  0  0  0
  2  3  1  0  0  0  0
  3  4  3  0  0  0  0
  4  5  1  0  0  0  0
  6  5  1  6  0  0  0
  6  7  1  0  0  0  0
  7  8  1  0  0  0  0
  8  6  1  0  0  0  0
  7  9  1  6  0  0  0
  9 10  1  0  0  0  0
 10 11  1  0  0  0  0
 11 12  1  0  0  0  0
 12 13  1  0  0  0  0
 13 14  1  0  0  0  0
 14 15  1  0  0  0  0
  1 16  1  0  0  0  0
 16 17  1  6  0  0  0
 16 18  1  0  0  0  0
 18 19  2  0  0  0  0
M  END
>  <cdx:fragmentId>
24852

$$$$
