283282.cdx
  Mrv1902 05222410202D          

 17 16  0  0  0  0            999 V2000
    2.5732   -6.4206    0.0000 C   0  0  0  0  0  0  0  0  0  0  0  0
    3.2877   -6.8331    0.0000 C   0  0  0  0  0  0  0  0  0  0  0  0
    4.0021   -6.4206    0.0000 C   0  0  0  0  0  0  0  0  0  0  0  0
    4.7166   -6.8331    0.0000 C   0  0  0  0  0  0  0  0  0  0  0  0
    5.4311   -6.4206    0.0000 C   0  0  0  0  0  0  0  0  0  0  0  0
    6.1455   -6.8331    0.0000 C   0  0  0  0  0  0  0  0  0  0  0  0
    6.8600   -6.4206    0.0000 C   0  0  0  0  0  0  0  0  0  0  0  0
    7.5745   -6.8331    0.0000 C   0  0  0  0  0  0  0  0  0  0  0  0
    8.2890   -6.4206    0.0000 C   0  0  0  0  0  0  0  0  0  0  0  0
    9.0034   -6.8331    0.0000 C   0  0  0  0  0  0  0  0  0  0  0  0
    1.8587   -6.8331    0.0000 O   0  0  0  0  0  0  0  0  0  0  0  0
    9.0034   -7.6581    0.0000 C   0  0  0  0  0  0  0  0  0  0  0  0
    9.7179   -8.0706    0.0000 C   0  0  0  0  0  0  0  0  0  0  0  0
    9.7179   -8.8956    0.0000 C   0  0  0  0  0  0  0  0  0  0  0  0
   10.4324   -9.3081    0.0000 C   0  0  0  0  0  0  0  0  0  0  0  0
   10.4324  -10.1331    0.0000 C   0  0  0  0  0  0  0  0  0  0  0  0
   11.1468  -10.5456    0.0000 C   0  0  0  0  0  0  0  0  0  0  0  0
  1  2  1  0  0  0  0
  2  3  1  0  0  0  0
  3  4  1  0  0  0  0
  4  5  1  0  0  0  0
  5  6  1  0  0  0  0
  6  7  1  0  0  0  0
  7  8  1  0  0  0  0
  8  9  1  0  0  0  0
  9 10  2  0  0  0  0
  1 11  1  0  0  0  0
 10 12  1  0  0  0  0
 12 13  1  0  0  0  0
 13 14  1  0  0  0  0
 14 15  1  0  0  0  0
 15 16  1  0  0  0  0
 16 17  1  0  0  0  0
M  END
>  <cdx:fragmentId>
5

$$$$
