283355.cdx
  Mrv1902 05222410222D          

 49 52  0  0  0  0            999 V2000
    7.0971   -7.1030    0.0000 C   0  0  2  0  0  0  0  0  0  0  0  0
    6.3820   -7.5144    0.0000 C   0  0  0  0  0  0  0  0  0  0  0  0
    6.3807   -8.3394    0.0000 C   0  0  2  0  0  0  0  0  0  0  0  0
    7.0945   -8.7530    0.0000 C   0  0  1  0  0  0  0  0  0  0  0  0
    7.8097   -8.3416    0.0000 C   0  0  1  0  0  0  0  0  0  0  0  0
    7.8109   -7.5166    0.0000 C   0  0  0  0  0  0  0  0  0  0  0  0
    7.0933   -9.5780    0.0000 O   0  0  0  0  0  0  0  0  0  0  0  0
    5.6656   -8.7508    0.0000 O   0  0  0  0  0  0  0  0  0  0  0  0
    6.6846   -6.3885    0.0000 O   0  0  0  0  0  0  0  0  0  0  0  0
    7.5096   -6.3885    0.0000 C   0  0  0  0  0  0  0  0  0  0  0  0
    7.0971   -5.6741    0.0000 O   0  0  0  0  0  0  0  0  0  0  0  0
    8.3346   -6.3885    0.0000 O   0  0  0  0  0  0  0  0  0  0  0  0
    5.8530   -6.3642    0.0000 C   0  0  0  0  0  0  0  0  0  0  0  0
    5.4470   -5.6461    0.0000 C   0  0  0  0  0  0  0  0  0  0  0  0
    4.6220   -5.6387    0.0000 C   0  0  0  0  0  0  0  0  0  0  0  0
    5.4341   -7.0750    0.0000 O   0  0  0  0  0  0  0  0  0  0  0  0
    4.2159   -4.9205    0.0000 C   0  0  0  0  0  0  0  0  0  0  0  0
    4.6348   -4.2098    0.0000 C   0  0  0  0  0  0  0  0  0  0  0  0
    4.2288   -3.4917    0.0000 C   0  0  0  0  0  0  0  0  0  0  0  0
    3.4038   -3.4842    0.0000 C   0  0  0  0  0  0  0  0  0  0  0  0
    2.9849   -4.1950    0.0000 C   0  0  0  0  0  0  0  0  0  0  0  0
    3.3910   -4.9131    0.0000 C   0  0  0  0  0  0  0  0  0  0  0  0
    2.9977   -2.7661    0.0000 O   0  0  0  0  0  0  0  0  0  0  0  0
    4.6477   -2.7809    0.0000 O   0  0  0  0  0  0  0  0  0  0  0  0
    9.2357   -8.3415    0.0000 C   0  0  0  0  0  0  0  0  0  0  0  0
    9.9499   -8.7544    0.0000 C   0  0  0  0  0  0  0  0  0  0  0  0
   10.6646   -8.3424    0.0000 C   0  0  0  0  0  0  0  0  0  0  0  0
    9.2362   -7.5165    0.0000 O   0  0  0  0  0  0  0  0  0  0  0  0
   11.3788   -8.7554    0.0000 C   0  0  0  0  0  0  0  0  0  0  0  0
   11.3783   -9.5804    0.0000 C   0  0  0  0  0  0  0  0  0  0  0  0
   12.0925   -9.9934    0.0000 C   0  0  0  0  0  0  0  0  0  0  0  0
   12.8072   -9.5813    0.0000 C   0  0  0  0  0  0  0  0  0  0  0  0
   12.8078   -8.7563    0.0000 C   0  0  0  0  0  0  0  0  0  0  0  0
   12.0936   -8.3434    0.0000 C   0  0  0  0  0  0  0  0  0  0  0  0
   13.5214   -9.9943    0.0000 O   0  0  0  0  0  0  0  0  0  0  0  0
   12.0919  -10.8184    0.0000 O   0  0  0  0  0  0  0  0  0  0  0  0
    8.5235   -8.7552    0.0000 O   0  0  0  0  0  0  0  0  0  0  0  0
    6.3782   -9.9894    0.0000 C   0  0  0  0  0  0  0  0  0  0  0  0
    5.6643   -9.5758    0.0000 O   0  0  0  0  0  0  0  0  0  0  0  0
    6.3769  -10.8144    0.0000 C   0  0  0  0  0  0  0  0  0  0  0  0
    5.6618  -11.2258    0.0000 C   0  0  0  0  0  0  0  0  0  0  0  0
    5.6605  -12.0508    0.0000 C   0  0  0  0  0  0  0  0  0  0  0  0
    4.9463  -12.4638    0.0000 C   0  0  0  0  0  0  0  0  0  0  0  0
    4.9463  -13.2888    0.0000 C   0  0  0  0  0  0  0  0  0  0  0  0
    5.6605  -13.7008    0.0000 C   0  0  0  0  0  0  0  0  0  0  0  0
    6.3746  -13.2888    0.0000 C   0  0  0  0  0  0  0  0  0  0  0  0
    6.3746  -12.4638    0.0000 C   0  0  0  0  0  0  0  0  0  0  0  0
    5.6605  -14.5258    0.0000 O   0  0  0  0  0  0  0  0  0  0  0  0
    4.2319  -13.7015    0.0000 O   0  0  0  0  0  0  0  0  0  0  0  0
 25 37  1  0  0  0  0
  1  2  1  0  0  0  0
  2  3  1  0  0  0  0
  3  4  1  0  0  0  0
  4  5  1  0  0  0  0
  5  6  1  0  0  0  0
  1  6  1  0  0  0  0
  5 37  1  1  0  0  0
  4  7  1  1  0  0  0
  3  8  1  6  0  0  0
  1  9  1  1  0  0  0
  1 10  1  0  0  0  0
 10 11  2  0  0  0  0
 10 12  1  0  0  0  0
 13 14  1  0  0  0  0
 14 15  2  0  0  0  0
 13 16  2  0  0  0  0
 17 18  1  0  0  0  0
 18 19  2  0  0  0  0
 19 20  1  0  0  0  0
 20 21  2  0  0  0  0
 21 22  1  0  0  0  0
 17 22  2  0  0  0  0
 20 23  1  0  0  0  0
 19 24  1  0  0  0  0
 15 17  1  0  0  0  0
 13  9  1  0  0  0  0
 25 26  1  0  0  0  0
 26 27  2  0  0  0  0
 25 28  2  0  0  0  0
 29 30  1  0  0  0  0
 30 31  2  0  0  0  0
 31 32  1  0  0  0  0
 32 33  2  0  0  0  0
 33 34  1  0  0  0  0
 29 34  2  0  0  0  0
 32 35  1  0  0  0  0
 31 36  1  0  0  0  0
 27 29  1  0  0  0  0
  7 38  1  0  0  0  0
 38 39  2  0  0  0  0
 38 40  1  0  0  0  0
 40 41  2  0  0  0  0
 41 42  1  0  0  0  0
 42 43  2  0  0  0  0
 43 44  1  0  0  0  0
 44 45  2  0  0  0  0
 45 46  1  0  0  0  0
 46 47  2  0  0  0  0
 47 42  1  0  0  0  0
 45 48  1  0  0  0  0
 44 49  1  0  0  0  0
M  END
>  <cdx:fragmentId>
37

$$$$
