5283349.cdx
  Mrv1902 05222410252D          

 12 11  0  0  0  0            999 V2000
    4.5322   -6.7156    0.0000 C   0  0  0  0  0  0  0  0  0  0  0  0
    5.2467   -6.3031    0.0000 C   0  0  0  0  0  0  0  0  0  0  0  0
    5.9612   -6.7156    0.0000 C   0  0  0  0  0  0  0  0  0  0  0  0
    6.6756   -6.3031    0.0000 C   0  0  0  0  0  0  0  0  0  0  0  0
    7.3901   -6.7156    0.0000 C   0  0  0  0  0  0  0  0  0  0  0  0
    8.1046   -6.3031    0.0000 C   0  0  0  0  0  0  0  0  0  0  0  0
    8.8191   -6.7156    0.0000 C   0  0  0  0  0  0  0  0  0  0  0  0
    9.5335   -6.3031    0.0000 C   0  0  0  0  0  0  0  0  0  0  0  0
   10.2480   -6.7156    0.0000 C   0  0  0  0  0  0  0  0  0  0  0  0
   10.9625   -6.3031    0.0000 C   0  0  0  0  0  0  0  0  0  0  0  0
    3.8178   -6.3031    0.0000 O   0  0  0  0  0  0  0  0  0  0  0  0
    4.5322   -7.5406    0.0000 H   0  0  0  0  0  0  0  0  0  0  0  0
  1  2  1  0  0  0  0
  2  3  2  3  0  0  0
  3  4  1  0  0  0  0
  4  5  2  3  0  0  0
  5  6  1  0  0  0  0
  6  7  1  0  0  0  0
  7  8  1  0  0  0  0
  8  9  1  0  0  0  0
  9 10  1  0  0  0  0
  1 11  2  0  0  0  0
  1 12  1  0  0  0  0
M  END
>  <cdx:fragmentId>
194

$$$$
