283317.cdx
  Mrv1902 05222410272D          

  8  7  0  0  0  0            999 V2000
    8.4216   -5.0278    0.0000 C   0  0  0  0  0  0  0  0  0  0  0  0
    7.7071   -5.4403    0.0000 C   0  0  0  0  0  0  0  0  0  0  0  0
    6.9927   -5.0278    0.0000 C   0  0  0  0  0  0  0  0  0  0  0  0
    6.2782   -5.4403    0.0000 C   0  0  0  0  0  0  0  0  0  0  0  0
    5.5637   -5.0278    0.0000 C   0  0  0  0  0  0  0  0  0  0  0  0
    4.8492   -5.4403    0.0000 C   0  0  0  0  0  0  0  0  0  0  0  0
    8.4216   -4.2028    0.0000 C   0  0  0  0  0  0  0  0  0  0  0  0
    9.1361   -3.7903    0.0000 O   0  0  0  0  0  0  0  0  0  0  0  0
  1  2  2  0  0  0  0
  2  3  1  0  0  0  0
  3  4  1  0  0  0  0
  4  5  1  0  0  0  0
  5  6  1  0  0  0  0
  1  7  1  0  0  0  0
  7  8  2  0  0  0  0
M  END
>  <cdx:groupId>
24921

>  <cdx:fragmentId>
24901

$$$$
