5283305.cdx
  Mrv1902 05222410262D          

 17 16  0  0  0  0            999 V2000
   12.3321   -6.5805    0.0000 C   0  0  0  0  0  0  0  0  0  0  0  0
   11.6176   -6.1680    0.0000 C   0  0  0  0  0  0  0  0  0  0  0  0
   10.9031   -6.5805    0.0000 C   0  0  0  0  0  0  0  0  0  0  0  0
   10.1887   -6.1680    0.0000 C   0  0  0  0  0  0  0  0  0  0  0  0
    9.4742   -6.5805    0.0000 C   0  0  0  0  0  0  0  0  0  0  0  0
    8.7597   -6.1680    0.0000 C   0  0  0  0  0  0  0  0  0  0  0  0
    8.0452   -6.5805    0.0000 C   0  0  0  0  0  0  0  0  0  0  0  0
    7.3308   -6.1680    0.0000 C   0  0  0  0  0  0  0  0  0  0  0  0
    6.6163   -6.5805    0.0000 C   0  0  0  0  0  0  0  0  0  0  0  0
    5.9018   -6.1680    0.0000 C   0  0  0  0  0  0  0  0  0  0  0  0
    5.1874   -6.5805    0.0000 C   0  0  0  0  0  0  0  0  0  0  0  0
    4.3624   -6.5805    0.0000 C   0  0  0  0  0  0  0  0  0  0  0  0
    3.6479   -6.1680    0.0000 C   0  0  0  0  0  0  0  0  0  0  0  0
    2.9334   -6.5805    0.0000 C   0  0  0  0  0  0  0  0  0  0  0  0
    2.2190   -6.1680    0.0000 C   0  0  0  0  0  0  0  0  0  0  0  0
    1.5045   -6.5805    0.0000 C   0  0  0  0  0  0  0  0  0  0  0  0
   13.0465   -6.1680    0.0000 O   0  0  0  0  0  0  0  0  0  0  0  0
  1  2  1  0  0  0  0
  2  3  1  0  0  0  0
  3  4  1  0  0  0  0
  4  5  1  0  0  0  0
  5  6  1  0  0  0  0
  6  7  1  0  0  0  0
  7  8  1  0  0  0  0
  8  9  1  0  0  0  0
  9 10  1  0  0  0  0
 10 11  1  0  0  0  0
 11 12  2  0  0  0  0
 12 13  1  0  0  0  0
 13 14  1  0  0  0  0
 14 15  1  0  0  0  0
 15 16  1  0  0  0  0
  1 17  1  0  0  0  0
M  END
>  <cdx:groupId>
584

>  <cdx:fragmentId>
537

$$$$
