5283384.cdx
  Mrv1902 05222410212D          

 19 18  0  0  0  0            999 V2000
    9.8418  -20.3533    0.0000 C   0  0  0  0  0  0  0  0  0  0  0  0
   10.5563  -20.7658    0.0000 C   0  0  0  0  0  0  0  0  0  0  0  0
   11.2708  -20.3533    0.0000 C   0  0  0  0  0  0  0  0  0  0  0  0
   11.9853  -20.7658    0.0000 C   0  0  0  0  0  0  0  0  0  0  0  0
   12.6997  -20.3533    0.0000 C   0  0  0  0  0  0  0  0  0  0  0  0
   13.4142  -20.7658    0.0000 C   0  0  0  0  0  0  0  0  0  0  0  0
   14.1287  -20.3533    0.0000 C   0  0  0  0  0  0  0  0  0  0  0  0
   14.8431  -20.7658    0.0000 C   0  0  0  0  0  0  0  0  0  0  0  0
   15.5576  -20.3533    0.0000 C   0  0  0  0  0  0  0  0  0  0  0  0
   16.2721  -20.7658    0.0000 C   0  0  0  0  0  0  0  0  0  0  0  0
   16.9866  -20.3533    0.0000 C   0  0  0  0  0  0  0  0  0  0  0  0
   17.7010  -20.7658    0.0000 C   0  0  0  0  0  0  0  0  0  0  0  0
   18.4155  -20.3533    0.0000 C   0  0  0  0  0  0  0  0  0  0  0  0
   19.1300  -20.7658    0.0000 C   0  0  0  0  0  0  0  0  0  0  0  0
   19.8444  -20.3533    0.0000 C   0  0  0  0  0  0  0  0  0  0  0  0
   20.5589  -20.7658    0.0000 C   0  0  0  0  0  0  0  0  0  0  0  0
   21.2734  -20.3533    0.0000 C   0  0  0  0  0  0  0  0  0  0  0  0
   21.9879  -20.7658    0.0000 C   0  0  0  0  0  0  0  0  0  0  0  0
    9.1274  -20.7658    0.0000 O   0  0  0  0  0  0  0  0  0  0  0  0
  1  2  1  0  0  0  0
  2  3  1  0  0  0  0
  3  4  1  0  0  0  0
  4  5  1  0  0  0  0
  5  6  1  0  0  0  0
  6  7  1  0  0  0  0
  7  8  1  0  0  0  0
  8  9  1  0  0  0  0
  9 10  2  0  0  0  0
 10 11  1  0  0  0  0
 11 12  1  0  0  0  0
 12 13  2  0  0  0  0
 13 14  1  0  0  0  0
 14 15  1  0  0  0  0
 15 16  2  0  0  0  0
 16 17  1  0  0  0  0
 17 18  1  0  0  0  0
  1 19  2  0  0  0  0
M  END
>  <cdx:groupId>
434

>  <cdx:fragmentId>
381

$$$$
