5283318.cdx
  Mrv1902 05222410182D          

  8  7  0  0  0  0            999 V2000
   17.1661   -9.2078    0.0000 C   0  0  0  0  0  0  0  0  0  0  0  0
   16.4516   -8.7953    0.0000 C   0  0  0  0  0  0  0  0  0  0  0  0
   15.7371   -9.2078    0.0000 C   0  0  0  0  0  0  0  0  0  0  0  0
   15.0227   -8.7953    0.0000 C   0  0  0  0  0  0  0  0  0  0  0  0
   14.3082   -9.2078    0.0000 C   0  0  0  0  0  0  0  0  0  0  0  0
   13.5937   -8.7953    0.0000 C   0  0  0  0  0  0  0  0  0  0  0  0
   12.8792   -9.2078    0.0000 C   0  0  0  0  0  0  0  0  0  0  0  0
   17.8805   -8.7953    0.0000 O   0  0  0  0  0  0  0  0  0  0  0  0
  1  2  1  0  0  0  0
  2  3  1  0  0  0  0
  3  4  1  0  0  0  0
  4  5  2  0  0  0  0
  5  6  1  0  0  0  0
  6  7  1  0  0  0  0
  1  8  2  0  0  0  0
M  END
>  <cdx:groupId>
24947

>  <cdx:fragmentId>
24927

$$$$
