5283375.cdx
  Mrv1902 05222410242D          

 17 16  0  0  0  0            999 V2000
    2.4615   -6.3991    0.0000 C   0  0  0  0  0  0  0  0  0  0  0  0
    3.1760   -6.8116    0.0000 C   0  0  0  0  0  0  0  0  0  0  0  0
    3.8905   -6.3991    0.0000 C   0  0  0  0  0  0  0  0  0  0  0  0
    4.6049   -6.8116    0.0000 C   0  0  0  0  0  0  0  0  0  0  0  0
    5.3194   -6.3991    0.0000 C   0  0  0  0  0  0  0  0  0  0  0  0
    6.0339   -6.8116    0.0000 C   0  0  0  0  0  0  0  0  0  0  0  0
    6.7483   -6.3991    0.0000 C   0  0  0  0  0  0  0  0  0  0  0  0
    7.4628   -6.8116    0.0000 C   0  0  0  0  0  0  0  0  0  0  0  0
    8.1773   -6.3991    0.0000 C   0  0  0  0  0  0  0  0  0  0  0  0
    8.8918   -6.8116    0.0000 C   0  0  0  0  0  0  0  0  0  0  0  0
    9.6062   -6.3991    0.0000 C   0  0  0  0  0  0  0  0  0  0  0  0
   10.3207   -6.8116    0.0000 C   0  0  0  0  0  0  0  0  0  0  0  0
   11.0352   -6.3991    0.0000 C   0  0  0  0  0  0  0  0  0  0  0  0
   11.7496   -6.8116    0.0000 C   0  0  0  0  0  0  0  0  0  0  0  0
   12.4641   -6.3991    0.0000 C   0  0  0  0  0  0  0  0  0  0  0  0
   13.1786   -6.8116    0.0000 C   0  0  0  0  0  0  0  0  0  0  0  0
    1.7470   -6.8116    0.0000 O   0  0  0  0  0  0  0  0  0  0  0  0
  1  2  1  0  0  0  0
  2  3  1  0  0  0  0
  3  4  1  0  0  0  0
  4  5  1  0  0  0  0
  5  6  1  0  0  0  0
  6  7  1  0  0  0  0
  7  8  1  0  0  0  0
  8  9  1  0  0  0  0
  9 10  2  0  0  0  0
 10 11  1  0  0  0  0
 11 12  1  0  0  0  0
 12 13  1  0  0  0  0
 13 14  1  0  0  0  0
 14 15  1  0  0  0  0
 15 16  1  0  0  0  0
  1 17  2  0  0  0  0
M  END
>  <cdx:groupId>
52

>  <cdx:fragmentId>
5

$$$$
