283658.cdx
  Mrv1902 05222410282D          

 32 35  0  0  0  0            999 V2000
    4.8768   -7.7477    0.0000 C   0  0  0  0  0  0  0  0  0  0  0  0
    4.1624   -8.1602    0.0000 C   0  0  0  0  0  0  0  0  0  0  0  0
    4.1624   -8.9852    0.0000 C   0  0  1  0  0  0  0  0  0  0  0  0
    4.8768   -9.3977    0.0000 C   0  0  0  0  0  0  0  0  0  0  0  0
    5.5913   -8.9852    0.0000 C   0  0  2  0  0  0  0  0  0  0  0  0
    6.3058   -9.3977    0.0000 C   0  0  0  0  0  0  0  0  0  0  0  0
    7.0203   -8.9852    0.0000 C   0  0  0  0  0  0  0  0  0  0  0  0
    7.0203   -8.1602    0.0000 C   0  0  0  0  0  0  0  0  0  0  0  0
    7.7347   -7.7477    0.0000 C   0  0  0  0  0  0  0  0  0  0  0  0
    8.5194   -8.0026    0.0000 C   0  0  0  0  0  0  0  0  0  0  0  0
    9.0043   -7.3352    0.0000 C   0  0  0  0  0  0  0  0  0  0  0  0
    8.5194   -6.6678    0.0000 C   0  0  1  0  0  0  0  0  0  0  0  0
    7.7347   -6.9227    0.0000 C   0  0  1  0  0  0  0  0  0  0  0  0
    7.0203   -6.5102    0.0000 C   0  0  0  0  0  0  0  0  0  0  0  0
    6.3058   -6.9227    0.0000 C   0  0  0  0  0  0  0  0  0  0  0  0
    6.3058   -7.7477    0.0000 C   0  0  2  0  0  0  0  0  0  0  0  0
    5.5913   -8.1602    0.0000 C   0  0  1  0  0  0  0  0  0  0  0  0
    3.4479   -9.3977    0.0000 O   0  0  0  0  0  0  0  0  0  0  0  0
    7.7347   -6.0977    0.0000 C   0  0  0  0  0  0  0  0  0  0  0  0
    5.5913   -7.3352    0.0000 C   0  0  0  0  0  0  0  0  0  0  0  0
    8.2223   -5.2700    0.0000 C   0  0  0  0  0  0  0  0  0  0  0  0
    8.7743   -5.8831    0.0000 C   0  0  2  0  0  0  0  0  0  0  0  0
    9.5813   -5.7116    0.0000 C   0  0  0  0  0  0  0  0  0  0  0  0
    9.8362   -4.9270    0.0000 C   0  0  0  0  0  0  0  0  0  0  0  0
   10.6432   -4.7555    0.0000 C   0  0  1  0  0  0  0  0  0  0  0  0
   10.8981   -3.9708    0.0000 C   0  0  0  0  0  0  0  0  0  0  0  0
   10.3461   -3.3577    0.0000 C   0  0  0  0  0  0  0  0  0  0  0  0
   11.7051   -3.7993    0.0000 C   0  0  0  0  0  0  0  0  0  0  0  0
   11.1952   -5.3686    0.0000 C   0  0  0  0  0  0  0  0  0  0  0  0
    5.5913   -9.8102    0.0000 H   0  0  0  0  0  0  0  0  0  0  0  0
    6.3058   -8.5727    0.0000 H   0  0  0  0  0  0  0  0  0  0  0  0
    9.3162   -6.4542    0.0000 H   0  0  0  0  0  0  0  0  0  0  0  0
  1  2  1  0  0  0  0
  2  3  1  0  0  0  0
  3  4  1  0  0  0  0
  4  5  1  0  0  0  0
  5  6  1  0  0  0  0
  6  7  1  0  0  0  0
  7  8  1  0  0  0  0
  8  9  2  0  0  0  0
  9 10  1  0  0  0  0
 10 11  1  0  0  0  0
 12 11  1  0  0  0  0
 12 13  1  0  0  0  0
  9 13  1  0  0  0  0
 13 14  1  0  0  0  0
 14 15  1  0  0  0  0
 15 16  1  0  0  0  0
  8 16  1  0  0  0  0
 16 17  1  0  0  0  0
  5 17  1  0  0  0  0
  1 17  1  0  0  0  0
  3 18  1  1  0  0  0
 13 19  1  1  0  0  0
 17 20  1  1  0  0  0
 22 21  1  6  0  0  0
 22 23  1  0  0  0  0
 23 24  1  0  0  0  0
 24 25  1  0  0  0  0
 25 26  1  0  0  0  0
 26 27  1  0  0  0  0
 26 28  1  0  0  0  0
 25 29  1  1  0  0  0
 12 22  1  0  0  0  0
  5 30  1  6  0  0  0
 16 31  1  6  0  0  0
 12 32  1  6  0  0  0
M  END
>  <cdx:fragmentId>
5

$$$$
