283638.cdx
  Mrv1902 05222410252D          

 34 37  0  0  0  0            999 V2000
    9.7292   -5.3505    0.0000 C   0  0  0  0  0  0  0  0  0  0  0  0
    9.4743   -6.1352    0.0000 C   0  0  0  0  0  0  0  0  0  0  0  0
    8.6673   -6.3067    0.0000 C   0  0  1  0  0  0  0  0  0  0  0  0
    8.1153   -5.6936    0.0000 C   0  0  0  0  0  0  0  0  0  0  0  0
    8.4123   -7.0913    0.0000 C   0  0  1  0  0  0  0  0  0  0  0  0
    8.8973   -7.7587    0.0000 C   0  0  0  0  0  0  0  0  0  0  0  0
    8.4123   -8.4262    0.0000 C   0  0  0  0  0  0  0  0  0  0  0  0
    7.6278   -8.1712    0.0000 C   0  0  1  0  0  0  0  0  0  0  0  0
    6.9133   -8.5837    0.0000 C   0  0  2  0  0  0  0  0  0  0  0  0
    6.9133   -9.4087    0.0000 C   0  0  0  0  0  0  0  0  0  0  0  0
    6.1988   -9.8212    0.0000 C   0  0  0  0  0  0  0  0  0  0  0  0
    5.4843   -9.4087    0.0000 C   0  0  0  0  0  0  0  0  0  0  0  0
    4.7699   -9.8212    0.0000 C   0  0  0  0  0  0  0  0  0  0  0  0
    4.0554   -9.4087    0.0000 C   0  0  1  0  0  0  0  0  0  0  0  0
    3.3409   -9.8212    0.0000 O   0  0  0  0  0  0  0  0  0  0  0  0
    4.0554   -8.5837    0.0000 C   0  0  0  0  0  0  0  0  0  0  0  0
    4.7699   -8.1712    0.0000 C   0  0  0  0  0  0  0  0  0  0  0  0
    5.4843   -8.5837    0.0000 C   0  0  1  0  0  0  0  0  0  0  0  0
    5.4843   -7.7587    0.0000 C   0  0  0  0  0  0  0  0  0  0  0  0
    6.1988   -8.1712    0.0000 C   0  0  1  0  0  0  0  0  0  0  0  0
    6.1988   -7.3462    0.0000 C   0  0  0  0  0  0  0  0  0  0  0  0
    6.9133   -6.9337    0.0000 C   0  0  0  0  0  0  0  0  0  0  0  0
    7.6278   -7.3462    0.0000 C   0  0  2  0  0  0  0  0  0  0  0  0
    7.6278   -6.5212    0.0000 C   0  0  0  0  0  0  0  0  0  0  0  0
   10.2392   -3.7813    0.0000 C   0  0  0  0  0  0  0  0  0  0  0  0
   11.5982   -4.2229    0.0000 C   0  0  0  0  0  0  0  0  0  0  0  0
   10.7912   -4.3944    0.0000 C   0  0  0  0  0  0  0  0  0  0  0  0
   10.5362   -5.1790    0.0000 C   0  0  1  0  0  0  0  0  0  0  0  0
   11.0882   -5.7922    0.0000 C   0  0  0  0  0  0  0  0  0  0  0  0
   11.8952   -5.6207    0.0000 C   0  0  0  0  0  0  0  0  0  0  0  0
    9.1969   -6.8364    0.0000 H   0  0  0  0  0  0  0  0  0  0  0  0
    7.6278   -8.9962    0.0000 H   0  0  0  0  0  0  0  0  0  0  0  0
    6.9133   -7.7587    0.0000 H   0  0  0  0  0  0  0  0  0  0  0  0
    6.1988   -8.9962    0.0000 H   0  0  0  0  0  0  0  0  0  0  0  0
 27 25  2  0  0  0  0
 27 26  1  0  0  0  0
 28 27  1  0  0  0  0
 29 28  1  0  0  0  0
 30 29  1  0  0  0  0
 28  1  1  1  0  0  0
  1  2  1  0  0  0  0
  2  3  1  0  0  0  0
  3  4  1  6  0  0  0
  3  5  1  0  0  0  0
  5  6  1  0  0  0  0
  6  7  1  0  0  0  0
  7  8  1  0  0  0  0
  8  9  1  0  0  0  0
  9 10  1  0  0  0  0
 10 11  1  0  0  0  0
 11 12  2  0  0  0  0
 12 13  1  0  0  0  0
 13 14  1  0  0  0  0
 14 15  1  1  0  0  0
 14 16  1  0  0  0  0
 16 17  1  0  0  0  0
 17 18  1  0  0  0  0
 12 18  1  0  0  0  0
 18 19  1  1  0  0  0
 18 20  1  0  0  0  0
  9 20  1  0  0  0  0
 20 21  1  0  0  0  0
 21 22  1  0  0  0  0
 22 23  1  0  0  0  0
  5 23  1  0  0  0  0
  8 23  1  0  0  0  0
 23 24  1  1  0  0  0
  5 31  1  6  0  0  0
  8 32  1  6  0  0  0
  9 33  1  1  0  0  0
 20 34  1  6  0  0  0
M  END
>  <cdx:fragmentId>
3

$$$$
