283660.cdx
  Mrv1902 05222410262D          

 33 36  0  0  0  0            999 V2000
    4.6473   -9.7758    0.0000 C   0  0  0  0  0  0  0  0  0  0  0  0
    3.9329  -10.1883    0.0000 C   0  0  0  0  0  0  0  0  0  0  0  0
    3.9329  -11.0133    0.0000 C   0  0  1  0  0  0  0  0  0  0  0  0
    4.6473  -11.4258    0.0000 C   0  0  0  0  0  0  0  0  0  0  0  0
    5.3618  -11.0133    0.0000 C   0  0  0  0  0  0  0  0  0  0  0  0
    6.0763  -11.4258    0.0000 C   0  0  0  0  0  0  0  0  0  0  0  0
    6.7908  -11.0133    0.0000 C   0  0  0  0  0  0  0  0  0  0  0  0
    6.7908  -10.1883    0.0000 C   0  0  1  0  0  0  0  0  0  0  0  0
    7.5052   -9.7758    0.0000 C   0  0  2  0  0  0  0  0  0  0  0  0
    8.2899  -10.0308    0.0000 C   0  0  0  0  0  0  0  0  0  0  0  0
    8.7748   -9.3633    0.0000 C   0  0  0  0  0  0  0  0  0  0  0  0
    8.2899   -8.6959    0.0000 C   0  0  1  0  0  0  0  0  0  0  0  0
    7.5052   -8.9508    0.0000 C   0  0  1  0  0  0  0  0  0  0  0  0
    6.7908   -8.5383    0.0000 C   0  0  0  0  0  0  0  0  0  0  0  0
    6.0763   -8.9508    0.0000 C   0  0  0  0  0  0  0  0  0  0  0  0
    6.0763   -9.7758    0.0000 C   0  0  2  0  0  0  0  0  0  0  0  0
    5.3618  -10.1883    0.0000 C   0  0  1  0  0  0  0  0  0  0  0  0
    3.2184  -11.4258    0.0000 O   0  0  0  0  0  0  0  0  0  0  0  0
    7.5915   -8.1303    0.0000 C   0  0  0  0  0  0  0  0  0  0  0  0
    5.3618   -9.3633    0.0000 C   0  0  0  0  0  0  0  0  0  0  0  0
    7.9928   -7.2982    0.0000 C   0  0  0  0  0  0  0  0  0  0  0  0
    8.5448   -7.9113    0.0000 C   0  0  2  0  0  0  0  0  0  0  0  0
    9.3518   -7.7397    0.0000 C   0  0  0  0  0  0  0  0  0  0  0  0
    9.6067   -6.9551    0.0000 C   0  0  0  0  0  0  0  0  0  0  0  0
   10.4137   -6.7836    0.0000 C   0  0  2  0  0  0  0  0  0  0  0  0
   10.6686   -5.9990    0.0000 C   0  0  0  0  0  0  0  0  0  0  0  0
   10.1166   -5.3859    0.0000 C   0  0  0  0  0  0  0  0  0  0  0  0
   11.4756   -5.8274    0.0000 C   0  0  0  0  0  0  0  0  0  0  0  0
   10.9657   -7.3967    0.0000 C   0  0  0  0  0  0  0  0  0  0  0  0
    6.7908   -9.3633    0.0000 H   0  0  0  0  0  0  0  0  0  0  0  0
    6.0763  -10.6008    0.0000 H   0  0  0  0  0  0  0  0  0  0  0  0
    7.5052  -10.6008    0.0000 H   0  0  0  0  0  0  0  0  0  0  0  0
    9.1047   -8.5668    0.0000 H   0  0  0  0  0  0  0  0  0  0  0  0
  1  2  1  0  0  0  0
  2  3  1  0  0  0  0
  3  4  1  0  0  0  0
  4  5  1  0  0  0  0
  5  6  2  0  0  0  0
  6  7  1  0  0  0  0
  7  8  1  0  0  0  0
  8  9  1  0  0  0  0
  9 10  1  0  0  0  0
 10 11  1  0  0  0  0
 12 11  1  0  0  0  0
 12 13  1  0  0  0  0
  9 13  1  0  0  0  0
 13 14  1  0  0  0  0
 14 15  1  0  0  0  0
 15 16  1  0  0  0  0
  8 16  1  0  0  0  0
 16 17  1  0  0  0  0
  5 17  1  0  0  0  0
  1 17  1  0  0  0  0
  3 18  1  1  0  0  0
 13 19  1  1  0  0  0
 17 20  1  1  0  0  0
 22 21  1  6  0  0  0
 22 23  1  0  0  0  0
 23 24  2  0  0  0  0
 24 25  1  0  0  0  0
 25 26  1  0  0  0  0
 26 27  1  0  0  0  0
 26 28  1  0  0  0  0
 25 29  1  6  0  0  0
 12 22  1  0  0  0  0
  8 30  1  1  0  0  0
 16 31  1  6  0  0  0
  9 32  1  6  0  0  0
 12 33  1  6  0  0  0
M  END
>  <cdx:fragmentId>
5

$$$$
