284.cdx
  Mrv1902 05222410272D          

 24 27  0  0  0  0            999 V2000
    4.7247   -8.2890    0.0000 C   0  0  0  0  0  0  0  0  0  0  0  0
    4.7247   -9.1140    0.0000 C   0  0  1  0  0  0  0  0  0  0  0  0
    5.4391   -9.5265    0.0000 C   0  0  0  0  0  0  0  0  0  0  0  0
    6.1536   -9.1140    0.0000 C   0  0  0  0  0  0  0  0  0  0  0  0
    6.1536   -8.2890    0.0000 C   0  0  2  0  0  0  0  0  0  0  0  0
    5.4391   -7.8765    0.0000 C   0  0  0  0  0  0  0  0  0  0  0  0
    6.8681   -9.5265    0.0000 C   0  0  0  0  0  0  0  0  0  0  0  0
    7.5825   -9.1140    0.0000 C   0  0  0  0  0  0  0  0  0  0  0  0
    7.5825   -8.2890    0.0000 C   0  0  2  0  0  0  0  0  0  0  0  0
    6.8681   -7.8765    0.0000 C   0  0  2  0  0  0  0  0  0  0  0  0
    8.2970   -7.8765    0.0000 C   0  0  1  0  0  0  0  0  0  0  0  0
    8.2970   -7.0515    0.0000 C   0  0  2  0  0  0  0  0  0  0  0  0
    7.5825   -6.6390    0.0000 C   0  0  0  0  0  0  0  0  0  0  0  0
    6.8681   -7.0515    0.0000 C   0  0  0  0  0  0  0  0  0  0  0  0
    9.0816   -8.1315    0.0000 C   0  0  0  0  0  0  0  0  0  0  0  0
    9.5666   -7.4640    0.0000 C   0  0  0  0  0  0  0  0  0  0  0  0
    9.0816   -6.7966    0.0000 C   0  0  0  0  0  0  0  0  0  0  0  0
    6.1536   -7.4640    0.0000 C   0  0  0  0  0  0  0  0  0  0  0  0
    8.2970   -6.2265    0.0000 C   0  0  0  0  0  0  0  0  0  0  0  0
    4.0102   -9.5265    0.0000 O   0  0  0  0  0  0  0  0  0  0  0  0
    9.2952   -5.9997    0.0000 O   0  0  0  0  0  0  0  0  0  0  0  0
    6.8681   -8.7015    0.0000 H   0  0  0  0  0  0  0  0  0  0  0  0
    7.5825   -7.4640    0.0000 H   0  0  0  0  0  0  0  0  0  0  0  0
    8.2970   -8.7015    0.0000 H   0  0  0  0  0  0  0  0  0  0  0  0
  1  2  1  0  0  0  0
  2  3  1  0  0  0  0
  3  4  1  0  0  0  0
  4  5  1  0  0  0  0
  5  6  1  0  0  0  0
  6  1  1  0  0  0  0
  4  7  2  0  0  0  0
  7  8  1  0  0  0  0
  8  9  1  0  0  0  0
  9 10  1  0  0  0  0
 10  5  1  0  0  0  0
  9 11  1  0  0  0  0
 11 12  1  0  0  0  0
 12 13  1  0  0  0  0
 13 14  1  0  0  0  0
 14 10  1  0  0  0  0
 11 15  1  0  0  0  0
 15 16  1  0  0  0  0
 16 17  1  0  0  0  0
 17 12  1  0  0  0  0
  5 18  1  1  0  0  0
 12 19  1  1  0  0  0
  2 20  1  1  0  0  0
 17 21  2  0  0  0  0
 10 22  1  6  0  0  0
  9 23  1  1  0  0  0
 11 24  1  6  0  0  0
M  END
>  <cdx:fragmentId>
5

$$$$
