5284499.cdx
  Mrv1902 05222410202D          

 19 18  0  0  0  0            999 V2000
   20.9255  -13.5916    0.0000 C   0  0  0  0  0  0  0  0  0  0  0  0
   20.2110  -13.1791    0.0000 C   0  0  0  0  0  0  0  0  0  0  0  0
   19.4966  -13.5916    0.0000 C   0  0  0  0  0  0  0  0  0  0  0  0
   18.7821  -13.1791    0.0000 C   0  0  0  0  0  0  0  0  0  0  0  0
   18.0676  -13.5916    0.0000 C   0  0  0  0  0  0  0  0  0  0  0  0
   17.3531  -13.1791    0.0000 C   0  0  0  0  0  0  0  0  0  0  0  0
   16.6387  -13.5916    0.0000 C   0  0  0  0  0  0  0  0  0  0  0  0
   15.9242  -13.1791    0.0000 C   0  0  0  0  0  0  0  0  0  0  0  0
   15.2097  -13.5916    0.0000 C   0  0  0  0  0  0  0  0  0  0  0  0
   14.3847  -13.5916    0.0000 C   0  0  0  0  0  0  0  0  0  0  0  0
   13.6703  -13.1791    0.0000 C   0  0  0  0  0  0  0  0  0  0  0  0
   12.9558  -13.5916    0.0000 C   0  0  0  0  0  0  0  0  0  0  0  0
   12.2413  -13.1791    0.0000 C   0  0  0  0  0  0  0  0  0  0  0  0
   11.5268  -13.5916    0.0000 C   0  0  0  0  0  0  0  0  0  0  0  0
   10.8124  -13.1791    0.0000 C   0  0  0  0  0  0  0  0  0  0  0  0
   10.0979  -13.5916    0.0000 C   0  0  0  0  0  0  0  0  0  0  0  0
    9.3834  -13.1791    0.0000 C   0  0  0  0  0  0  0  0  0  0  0  0
    8.6690  -13.5916    0.0000 C   0  0  0  0  0  0  0  0  0  0  0  0
   21.6400  -13.1791    0.0000 O   0  0  0  0  0  0  0  0  0  0  0  0
  1  2  1  0  0  0  0
  2  3  1  0  0  0  0
  3  4  1  0  0  0  0
  4  5  1  0  0  0  0
  5  6  1  0  0  0  0
  6  7  1  0  0  0  0
  7  8  1  0  0  0  0
  8  9  1  0  0  0  0
  9 10  2  0  0  0  0
 10 11  1  0  0  0  0
 11 12  1  0  0  0  0
 12 13  1  0  0  0  0
 13 14  1  0  0  0  0
 14 15  1  0  0  0  0
 15 16  1  0  0  0  0
 16 17  1  0  0  0  0
 17 18  1  0  0  0  0
  1 19  1  0  0  0  0
M  END
>  <cdx:groupId>
490

>  <cdx:fragmentId>
437

$$$$
