284444.cdx
  Mrv1902 05222410272D          

 22 23  0  0  0  0            999 V2000
    7.7642   -7.2321    0.0000 C   0  0  0  0  0  0  0  0  0  0  0  0
    7.0497   -7.6446    0.0000 C   0  0  0  0  0  0  0  0  0  0  0  0
    6.3353   -7.2321    0.0000 C   0  0  0  0  0  0  0  0  0  0  0  0
    5.6208   -7.6446    0.0000 C   0  0  0  0  0  0  0  0  0  0  0  0
    4.9063   -7.2321    0.0000 C   0  0  0  0  0  0  0  0  0  0  0  0
    4.1918   -7.6446    0.0000 C   0  0  0  0  0  0  0  0  0  0  0  0
    3.4774   -7.2321    0.0000 O   0  0  0  0  0  0  0  0  0  0  0  0
    2.7629   -7.6446    0.0000 C   0  0  0  0  0  0  0  0  0  0  0  0
    4.1918   -8.4696    0.0000 C   0  0  0  0  0  0  0  0  0  0  0  0
    3.4774   -8.8821    0.0000 O   0  0  0  0  0  0  0  0  0  0  0  0
    4.9063   -8.8821    0.0000 C   0  0  0  0  0  0  0  0  0  0  0  0
    5.6208   -8.4696    0.0000 C   0  0  0  0  0  0  0  0  0  0  0  0
    7.7642   -6.4071    0.0000 O   0  0  0  0  0  0  0  0  0  0  0  0
    8.4787   -7.6446    0.0000 O   0  0  0  0  0  0  0  0  0  0  0  0
    9.1931   -7.2321    0.0000 C   0  0  0  0  0  0  0  0  0  0  0  0
    9.9076   -7.6446    0.0000 C   0  0  0  0  0  0  0  0  0  0  0  0
   10.6221   -7.2321    0.0000 C   0  0  0  0  0  0  0  0  0  0  0  0
   10.6221   -6.4071    0.0000 C   0  0  0  0  0  0  0  0  0  0  0  0
   11.3365   -5.9946    0.0000 C   0  0  0  0  0  0  0  0  0  0  0  0
   12.0510   -6.4071    0.0000 C   0  0  0  0  0  0  0  0  0  0  0  0
   12.0510   -7.2321    0.0000 C   0  0  0  0  0  0  0  0  0  0  0  0
   11.3365   -7.6446    0.0000 C   0  0  0  0  0  0  0  0  0  0  0  0
  1  2  1  0  0  0  0
  2  3  2  0  0  0  0
  3  4  1  0  0  0  0
  4  5  1  0  0  0  0
  5  6  2  0  0  0  0
  6  7  1  0  0  0  0
  7  8  1  0  0  0  0
  6  9  1  0  0  0  0
  9 10  1  0  0  0  0
  9 11  2  0  0  0  0
 11 12  1  0  0  0  0
  4 12  2  0  0  0  0
  1 13  2  0  0  0  0
  1 14  1  0  0  0  0
 15 16  1  0  0  0  0
 16 17  1  0  0  0  0
 17 18  1  0  0  0  0
 18 19  2  0  0  0  0
 19 20  1  0  0  0  0
 20 21  2  0  0  0  0
 21 22  1  0  0  0  0
 17 22  2  0  0  0  0
 14 15  1  0  0  0  0
M  END
>  <cdx:fragmentId>
366

$$$$
