284512.cdx
  Mrv1902 05222410202D          

 60 67  0  0  0  0            999 V2000
    2.9758   -9.7188    0.0000 C   0  0  0  0  0  0  0  0  0  0  0  0
    2.2613  -10.1313    0.0000 C   0  0  0  0  0  0  0  0  0  0  0  0
    2.9758   -8.8938    0.0000 O   0  0  0  0  0  0  0  0  0  0  0  0
    3.6903  -10.1313    0.0000 O   0  0  0  0  0  0  0  0  0  0  0  0
    5.8337   -8.8938    0.0000 O   0  0  0  0  0  0  0  0  0  0  0  0
    5.1192   -8.4813    0.0000 C   0  0  1  0  0  0  0  0  0  0  0  0
    4.4048   -8.8938    0.0000 C   0  0  2  0  0  0  0  0  0  0  0  0
    4.4048   -9.7188    0.0000 C   0  0  2  0  0  0  0  0  0  0  0  0
    5.1192  -10.1313    0.0000 C   0  0  0  0  0  0  0  0  0  0  0  0
    5.8337   -9.7188    0.0000 C   0  0  2  0  0  0  0  0  0  0  0  0
    5.1192   -7.6563    0.0000 C   0  0  0  0  0  0  0  0  0  0  0  0
    6.5482  -10.1313    0.0000 O   0  0  0  0  0  0  0  0  0  0  0  0
    8.6916   -9.7188    0.0000 O   0  0  0  0  0  0  0  0  0  0  0  0
    7.9771  -10.1313    0.0000 C   0  0  1  0  0  0  0  0  0  0  0  0
    7.2626   -9.7188    0.0000 C   0  0  2  0  0  0  0  0  0  0  0  0
    7.2626   -8.8938    0.0000 C   0  0  2  0  0  0  0  0  0  0  0  0
    7.9771   -8.4813    0.0000 C   0  0  0  0  0  0  0  0  0  0  0  0
    8.6916   -8.8938    0.0000 C   0  0  2  0  0  0  0  0  0  0  0  0
    7.9771  -10.9563    0.0000 C   0  0  0  0  0  0  0  0  0  0  0  0
    9.4061   -8.4813    0.0000 O   0  0  0  0  0  0  0  0  0  0  0  0
   10.8350  -10.1313    0.0000 O   0  0  0  0  0  0  0  0  0  0  0  0
   10.1205   -9.7188    0.0000 C   0  0  1  0  0  0  0  0  0  0  0  0
   10.1205   -8.8938    0.0000 C   0  0  2  0  0  0  0  0  0  0  0  0
   10.8350   -8.4813    0.0000 C   0  0  2  0  0  0  0  0  0  0  0  0
   11.5495   -8.8938    0.0000 C   0  0  0  0  0  0  0  0  0  0  0  0
   11.5495   -9.7188    0.0000 C   0  0  2  0  0  0  0  0  0  0  0  0
    9.4061  -10.1313    0.0000 C   0  0  0  0  0  0  0  0  0  0  0  0
   12.2639  -10.1313    0.0000 O   0  0  0  0  0  0  0  0  0  0  0  0
   13.6929   -8.4813    0.0000 C   0  0  0  0  0  0  0  0  0  0  0  0
   12.9784   -8.8938    0.0000 C   0  0  0  0  0  0  0  0  0  0  0  0
   12.9784   -9.7188    0.0000 C   0  0  1  0  0  0  0  0  0  0  0  0
   13.6929  -10.1313    0.0000 C   0  0  0  0  0  0  0  0  0  0  0  0
   14.4073   -9.7188    0.0000 C   0  0  1  0  0  0  0  0  0  0  0  0
   15.1218  -10.1313    0.0000 C   0  0  0  0  0  0  0  0  0  0  0  0
   15.8363   -9.7188    0.0000 C   0  0  0  0  0  0  0  0  0  0  0  0
   15.8363   -8.8938    0.0000 C   0  0  1  0  0  0  0  0  0  0  0  0
   16.5508   -8.4813    0.0000 C   0  0  1  0  0  0  0  0  0  0  0  0
   17.3354   -8.7363    0.0000 C   0  0  0  0  0  0  0  0  0  0  0  0
   17.8203   -8.0688    0.0000 C   0  0  0  0  0  0  0  0  0  0  0  0
   17.3354   -7.4014    0.0000 C   0  0  1  0  0  0  0  0  0  0  0  0
   16.5508   -7.6563    0.0000 C   0  0  1  0  0  0  0  0  0  0  0  0
   15.8363   -7.2438    0.0000 C   0  0  0  0  0  0  0  0  0  0  0  0
   15.1218   -7.6563    0.0000 C   0  0  0  0  0  0  0  0  0  0  0  0
   15.1218   -8.4813    0.0000 C   0  0  2  0  0  0  0  0  0  0  0  0
   14.4073   -8.8938    0.0000 C   0  0  1  0  0  0  0  0  0  0  0  0
   17.5903   -5.2819    0.0000 O   0  0  0  0  0  0  0  0  0  0  0  0
   17.1054   -5.9493    0.0000 C   0  0  0  0  0  0  0  0  0  0  0  0
   17.5903   -6.6168    0.0000 C   0  0  0  0  0  0  0  0  0  0  0  0
   18.3749   -6.3618    0.0000 C   0  0  0  0  0  0  0  0  0  0  0  0
   18.3749   -5.5368    0.0000 C   0  0  0  0  0  0  0  0  0  0  0  0
   19.0424   -5.0519    0.0000 O   0  0  0  0  0  0  0  0  0  0  0  0
   16.6370   -6.8358    0.0000 C   0  0  0  0  0  0  0  0  0  0  0  0
   14.4073   -8.0688    0.0000 C   0  0  0  0  0  0  0  0  0  0  0  0
   16.5508   -9.3063    0.0000 O   0  0  0  0  0  0  0  0  0  0  0  0
   10.8350   -7.6563    0.0000 O   0  0  0  0  0  0  0  0  0  0  0  0
    6.5482   -8.4813    0.0000 O   0  0  0  0  0  0  0  0  0  0  0  0
    3.6903   -8.4813    0.0000 O   0  0  0  0  0  0  0  0  0  0  0  0
   14.4073  -10.5438    0.0000 H   0  0  0  0  0  0  0  0  0  0  0  0
   15.8363   -8.0688    0.0000 H   0  0  0  0  0  0  0  0  0  0  0  0
   15.1218   -9.3063    0.0000 H   0  0  0  0  0  0  0  0  0  0  0  0
  1  2  1  0  0  0  0
  1  3  2  0  0  0  0
  1  4  1  0  0  0  0
  5  6  1  0  0  0  0
  6  7  1  0  0  0  0
  7  8  1  0  0  0  0
  8  9  1  0  0  0  0
  9 10  1  0  0  0  0
  5 10  1  0  0  0  0
  6 11  1  1  0  0  0
 13 14  1  0  0  0  0
 14 15  1  0  0  0  0
 15 16  1  0  0  0  0
 16 17  1  0  0  0  0
 17 18  1  0  0  0  0
 13 18  1  0  0  0  0
 14 19  1  6  0  0  0
 21 22  1  0  0  0  0
 22 23  1  0  0  0  0
 23 24  1  0  0  0  0
 24 25  1  0  0  0  0
 25 26  1  0  0  0  0
 21 26  1  0  0  0  0
 22 27  1  6  0  0  0
 29 30  1  0  0  0  0
 30 31  1  0  0  0  0
 31 32  1  0  0  0  0
 32 33  1  0  0  0  0
 33 34  1  0  0  0  0
 34 35  1  0  0  0  0
 35 36  1  0  0  0  0
 36 37  1  0  0  0  0
 37 38  1  0  0  0  0
 38 39  1  0  0  0  0
 39 40  1  0  0  0  0
 40 41  1  0  0  0  0
 37 41  1  0  0  0  0
 41 42  1  0  0  0  0
 42 43  1  0  0  0  0
 43 44  1  0  0  0  0
 36 44  1  0  0  0  0
 44 45  1  0  0  0  0
 33 45  1  0  0  0  0
 29 45  1  0  0  0  0
 46 47  1  0  0  0  0
 47 48  1  0  0  0  0
 48 49  2  0  0  0  0
 49 50  1  0  0  0  0
 46 50  1  0  0  0  0
 50 51  2  0  0  0  0
 40 48  1  1  0  0  0
 41 52  1  1  0  0  0
 45 53  1  1  0  0  0
 37 54  1  1  0  0  0
 31 28  1  1  0  0  0
 26 28  1  6  0  0  0
 24 55  1  1  0  0  0
 23 20  1  1  0  0  0
 18 20  1  6  0  0  0
 16 56  1  1  0  0  0
 15 12  1  1  0  0  0
 10 12  1  1  0  0  0
  7 57  1  6  0  0  0
  8  4  1  6  0  0  0
 33 58  1  1  0  0  0
 36 59  1  1  0  0  0
 44 60  1  6  0  0  0
M  END
>  <cdx:fragmentId>
61

$$$$
