28457.cdx
  Mrv1902 05222410222D          

 11 10  0  0  0  0            999 V2000
    5.7899   -4.4883    0.0000 C   0  0  0  0  0  0  0  0  0  0  0  0
    5.7899   -5.3133    0.0000 C   0  0  0  0  0  0  0  0  0  0  0  0
    5.0754   -5.7258    0.0000 C   0  0  0  0  0  0  0  0  0  0  0  0
    4.3610   -5.3133    0.0000 C   0  0  0  0  0  0  0  0  0  0  0  0
    3.6465   -5.7258    0.0000 C   0  0  0  0  0  0  0  0  0  0  0  0
    2.9320   -5.3133    0.0000 C   0  0  0  0  0  0  0  0  0  0  0  0
    2.2176   -5.7258    0.0000 C   0  0  0  0  0  0  0  0  0  0  0  0
    1.5031   -5.3133    0.0000 C   0  0  0  0  0  0  0  0  0  0  0  0
    0.7886   -5.7258    0.0000 C   0  0  0  0  0  0  0  0  0  0  0  0
    2.9320   -4.4883    0.0000 C   0  0  0  0  0  0  0  0  0  0  0  0
    6.5044   -5.7258    0.0000 C   0  0  0  0  0  0  0  0  0  0  0  0
  1  2  1  0  0  0  0
  2  3  1  0  0  0  0
  3  4  1  0  0  0  0
  4  5  1  0  0  0  0
  5  6  1  0  0  0  0
  6  7  1  0  0  0  0
  7  8  1  0  0  0  0
  8  9  1  0  0  0  0
  6 10  1  0  0  0  0
  2 11  1  0  0  0  0
M  END
>  <cdx:groupId>
34

>  <cdx:fragmentId>
5

$$$$
