28458.cdx
  Mrv1902 05222410232D          

 11 10  0  0  0  0            999 V2000
    8.6700   -3.8283    0.0000 C   0  0  0  0  0  0  0  0  0  0  0  0
    7.9555   -4.2408    0.0000 C   0  0  0  0  0  0  0  0  0  0  0  0
    7.2411   -3.8283    0.0000 C   0  0  0  0  0  0  0  0  0  0  0  0
    6.5266   -4.2408    0.0000 C   0  0  0  0  0  0  0  0  0  0  0  0
    5.8121   -3.8283    0.0000 C   0  0  0  0  0  0  0  0  0  0  0  0
    5.0977   -4.2408    0.0000 C   0  0  0  0  0  0  0  0  0  0  0  0
    4.3832   -3.8283    0.0000 C   0  0  0  0  0  0  0  0  0  0  0  0
    3.6687   -4.2408    0.0000 C   0  0  0  0  0  0  0  0  0  0  0  0
    2.9542   -3.8283    0.0000 C   0  0  0  0  0  0  0  0  0  0  0  0
    4.3832   -3.0033    0.0000 C   0  0  0  0  0  0  0  0  0  0  0  0
    7.2411   -3.0033    0.0000 C   0  0  0  0  0  0  0  0  0  0  0  0
  1  2  1  0  0  0  0
  2  3  1  0  0  0  0
  3  4  1  0  0  0  0
  4  5  1  0  0  0  0
  5  6  1  0  0  0  0
  6  7  1  0  0  0  0
  7  8  1  0  0  0  0
  8  9  1  0  0  0  0
  7 10  1  0  0  0  0
  3 11  1  0  0  0  0
M  END
>  <cdx:groupId>
34

>  <cdx:fragmentId>
5

$$$$
