28455.cdx
  Mrv1902 05222410232D          

 10  9  0  0  0  0            999 V2000
    2.1705   -3.9521    0.0000 C   0  0  0  0  0  0  0  0  0  0  0  0
    2.8850   -3.5396    0.0000 C   0  0  0  0  0  0  0  0  0  0  0  0
    3.5994   -3.9521    0.0000 C   0  0  0  0  0  0  0  0  0  0  0  0
    4.3139   -3.5396    0.0000 C   0  0  0  0  0  0  0  0  0  0  0  0
    5.0284   -3.9521    0.0000 C   0  0  0  0  0  0  0  0  0  0  0  0
    5.7428   -3.5396    0.0000 C   0  0  0  0  0  0  0  0  0  0  0  0
    6.4573   -3.9521    0.0000 C   0  0  0  0  0  0  0  0  0  0  0  0
    7.1718   -3.5396    0.0000 C   0  0  0  0  0  0  0  0  0  0  0  0
    7.8863   -3.9521    0.0000 C   0  0  0  0  0  0  0  0  0  0  0  0
    4.3139   -2.7146    0.0000 C   0  0  0  0  0  0  0  0  0  0  0  0
  1  2  1  0  0  0  0
  2  3  1  0  0  0  0
  3  4  1  0  0  0  0
  4  5  1  0  0  0  0
  5  6  1  0  0  0  0
  6  7  1  0  0  0  0
  7  8  1  0  0  0  0
  8  9  1  0  0  0  0
  4 10  1  0  0  0  0
M  END
>  <cdx:groupId>
31

>  <cdx:fragmentId>
5

$$$$
