286.cdx
  Mrv1902 05222410262D          

 32 35  0  0  0  0            999 V2000
    3.8655   -8.3989    0.0000 C   0  0  0  0  0  0  0  0  0  0  0  0
    3.8655   -9.2239    0.0000 C   0  0  1  0  0  0  0  0  0  0  0  0
    4.5799   -9.6364    0.0000 C   0  0  0  0  0  0  0  0  0  0  0  0
    5.2944   -9.2239    0.0000 C   0  0  1  0  0  0  0  0  0  0  0  0
    5.2944   -8.3989    0.0000 C   0  0  2  0  0  0  0  0  0  0  0  0
    4.5799   -7.9864    0.0000 C   0  0  0  0  0  0  0  0  0  0  0  0
    6.0089   -9.6364    0.0000 C   0  0  0  0  0  0  0  0  0  0  0  0
    6.7233   -9.2239    0.0000 C   0  0  0  0  0  0  0  0  0  0  0  0
    6.7233   -8.3989    0.0000 C   0  0  0  0  0  0  0  0  0  0  0  0
    6.0089   -7.9864    0.0000 C   0  0  2  0  0  0  0  0  0  0  0  0
    7.4378   -7.9864    0.0000 C   0  0  1  0  0  0  0  0  0  0  0  0
    7.4378   -7.1614    0.0000 C   0  0  2  0  0  0  0  0  0  0  0  0
    6.7233   -6.7489    0.0000 C   0  0  0  0  0  0  0  0  0  0  0  0
    6.0089   -7.1614    0.0000 C   0  0  0  0  0  0  0  0  0  0  0  0
    8.2224   -8.2413    0.0000 C   0  0  0  0  0  0  0  0  0  0  0  0
    8.7074   -7.5739    0.0000 C   0  0  0  0  0  0  0  0  0  0  0  0
    8.2224   -6.9065    0.0000 C   0  0  2  0  0  0  0  0  0  0  0  0
    5.2944   -7.5739    0.0000 C   0  0  0  0  0  0  0  0  0  0  0  0
    7.4378   -6.3364    0.0000 C   0  0  0  0  0  0  0  0  0  0  0  0
    3.1510   -9.6364    0.0000 O   0  0  0  0  0  0  0  0  0  0  0  0
    6.0089   -8.8114    0.0000 H   0  0  0  0  0  0  0  0  0  0  0  0
    7.4378   -8.8114    0.0000 H   0  0  0  0  0  0  0  0  0  0  0  0
    5.2944  -10.0489    0.0000 H   0  0  0  0  0  0  0  0  0  0  0  0
    8.4774   -6.1218    0.0000 C   0  0  2  0  0  0  0  0  0  0  0  0
    7.9253   -5.5087    0.0000 C   0  0  0  0  0  0  0  0  0  0  0  0
    9.2843   -5.9503    0.0000 C   0  0  0  0  0  0  0  0  0  0  0  0
    9.5393   -5.1657    0.0000 C   0  0  0  0  0  0  0  0  0  0  0  0
   10.3463   -4.9942    0.0000 C   0  0  0  0  0  0  0  0  0  0  0  0
   10.6012   -4.2095    0.0000 C   0  0  0  0  0  0  0  0  0  0  0  0
   10.0492   -3.5964    0.0000 C   0  0  0  0  0  0  0  0  0  0  0  0
   11.4082   -4.0380    0.0000 C   0  0  0  0  0  0  0  0  0  0  0  0
    9.0474   -6.9065    0.0000 H   0  0  0  0  0  0  0  0  0  0  0  0
  1  2  1  0  0  0  0
  2  3  1  0  0  0  0
  3  4  1  0  0  0  0
  4  5  1  0  0  0  0
  5  6  1  0  0  0  0
  6  1  1  0  0  0  0
  4  7  1  0  0  0  0
  7  8  1  0  0  0  0
  8  9  2  0  0  0  0
  9 10  1  0  0  0  0
 10  5  1  0  0  0  0
  9 11  1  0  0  0  0
 11 12  1  0  0  0  0
 12 13  1  0  0  0  0
 13 14  1  0  0  0  0
 14 10  1  0  0  0  0
 11 15  1  0  0  0  0
 15 16  1  0  0  0  0
 16 17  1  0  0  0  0
 17 12  1  0  0  0  0
  5 18  1  1  0  0  0
 12 19  1  1  0  0  0
 10 21  1  6  0  0  0
 11 22  1  6  0  0  0
  2 20  1  1  0  0  0
  4 23  1  6  0  0  0
 17 24  1  0  0  0  0
 24 25  1  6  0  0  0
 24 26  1  0  0  0  0
 26 27  1  0  0  0  0
 27 28  1  0  0  0  0
 28 29  1  0  0  0  0
 29 30  1  0  0  0  0
 29 31  1  0  0  0  0
 17 32  1  6  0  0  0
M  END
>  <cdx:fragmentId>
5

$$$$
