28619.cdx
  Mrv1902 05222410182D          

 14 15  0  0  0  0            999 V2000
    6.2677   -2.8896    0.0000 C   0  0  0  0  0  0  0  0  0  0  0  0
    6.2677   -3.7146    0.0000 C   0  0  0  0  0  0  0  0  0  0  0  0
    5.5533   -4.1271    0.0000 C   0  0  0  0  0  0  0  0  0  0  0  0
    4.8388   -3.7146    0.0000 C   0  0  0  0  0  0  0  0  0  0  0  0
    4.1243   -4.1271    0.0000 C   0  0  0  0  0  0  0  0  0  0  0  0
    3.4098   -3.7146    0.0000 C   0  0  0  0  0  0  0  0  0  0  0  0
    3.4098   -2.8896    0.0000 C   0  0  0  0  0  0  0  0  0  0  0  0
    4.1243   -2.4771    0.0000 C   0  0  0  0  0  0  0  0  0  0  0  0
    4.8388   -2.8896    0.0000 C   0  0  0  0  0  0  0  0  0  0  0  0
    5.5533   -2.4771    0.0000 O   0  0  0  0  0  0  0  0  0  0  0  0
    6.6802   -2.1751    0.0000 C   0  0  0  0  0  0  0  0  0  0  0  0
    7.0927   -2.8896    0.0000 C   0  0  0  0  0  0  0  0  0  0  0  0
    2.6954   -2.4771    0.0000 O   0  0  0  0  0  0  0  0  0  0  0  0
    1.9809   -2.8896    0.0000 C   0  0  0  0  0  0  0  0  0  0  0  0
  1  2  1  0  0  0  0
  2  3  2  0  0  0  0
  3  4  1  0  0  0  0
  4  5  1  0  0  0  0
  5  6  2  0  0  0  0
  6  7  1  0  0  0  0
  7  8  2  0  0  0  0
  8  9  1  0  0  0  0
  4  9  2  0  0  0  0
  9 10  1  0  0  0  0
  1 10  1  0  0  0  0
  1 11  1  0  0  0  0
  1 12  1  0  0  0  0
 13 14  1  0  0  0  0
  7 13  1  0  0  0  0
M  END
>  <cdx:groupId>
45

>  <cdx:fragmentId>
5

$$$$
