286251.cdx
  Mrv1902 05222410282D          

 59 65  0  0  0  0            999 V2000
    3.1517  -10.7614    0.0000 C   0  0  0  0  0  0  0  0  0  0  0  0
    2.4362  -11.1722    0.0000 C   0  0  2  0  0  0  0  0  0  0  0  0
    1.7227  -10.7580    0.0000 C   0  0  1  0  0  0  0  0  0  0  0  0
    1.0073  -11.1688    0.0000 C   0  0  0  0  0  0  0  0  0  0  0  0
    3.1536   -9.9364    0.0000 O   0  0  0  0  0  0  0  0  0  0  0  0
    3.8652  -11.1756    0.0000 O   0  0  0  0  0  0  0  0  0  0  0  0
    2.0220  -11.8857    0.0000 C   0  0  0  0  0  0  0  0  0  0  0  0
    1.7247   -9.9330    0.0000 O   0  0  0  0  0  0  0  0  0  0  0  0
    6.0076  -11.5932    0.0000 H   0  0  0  0  0  0  0  0  0  0  0  0
    8.0238  -10.5300    0.0000 H   0  0  0  0  0  0  0  0  0  0  0  0
    9.8482   -8.1517    0.0000 H   0  0  0  0  0  0  0  0  0  0  0  0
   10.0009   -6.7310    0.0000 H   0  0  0  0  0  0  0  0  0  0  0  0
    7.4107   -7.7618    0.0000 H   0  0  0  0  0  0  0  0  0  0  0  0
    7.1377   -8.0582    0.0000 H   0  0  0  0  0  0  0  0  0  0  0  0
    7.4345  -12.4216    0.0000 C   0  0  0  0  0  0  0  0  0  0  0  0
    8.8635  -12.4250    0.0000 O   0  0  0  0  0  0  0  0  0  0  0  0
    8.1500  -12.0108    0.0000 C   0  0  0  0  0  0  0  0  0  0  0  0
    8.1520  -11.1858    0.0000 O   0  0  0  0  0  0  0  0  0  0  0  0
   10.1807   -7.8838    0.0000 O   0  0  0  0  0  0  0  0  0  0  0  0
   10.1819   -8.9062    0.0000 O   0  0  0  0  0  0  0  0  0  0  0  0
    8.4674  -10.1105    0.0000 O   0  0  0  0  0  0  0  0  0  0  0  0
    5.2921  -12.0040    0.0000 O   0  0  0  0  0  0  0  0  0  0  0  0
    8.1794   -4.3793    0.0000 C   0  0  0  0  0  0  0  0  0  0  0  0
   10.2689   -7.0635    0.0000 C   0  0  0  0  0  0  0  0  0  0  0  0
    6.7250  -10.3574    0.0000 C   0  0  0  0  0  0  0  0  0  0  0  0
    9.8764  -11.7477    0.0000 C   0  0  0  0  0  0  0  0  0  0  0  0
   10.5157   -9.6607    0.0000 O   0  0  0  0  0  0  0  0  0  0  0  0
   11.5170  -11.9241    0.0000 C   0  0  0  0  0  0  0  0  0  0  0  0
   11.1832  -11.1696    0.0000 C   0  0  0  0  0  0  0  0  0  0  0  0
   10.3629  -11.0814    0.0000 C   0  0  2  0  0  0  0  0  0  0  0  0
   10.0292  -10.3269    0.0000 C   0  0  0  0  0  0  0  0  0  0  0  0
    9.2089  -10.2387    0.0000 O   0  0  0  0  0  0  0  0  0  0  0  0
    6.9004   -8.7259    0.0000 C   0  0  0  0  0  0  0  0  0  0  0  0
    6.7270   -9.5324    0.0000 C   0  0  2  0  0  0  0  0  0  0  0  0
    5.5024   -9.9130    0.0000 O   0  0  0  0  0  0  0  0  0  0  0  0
    5.2941  -11.1790    0.0000 C   0  0  1  0  0  0  0  0  0  0  0  0
    4.5806  -10.7648    0.0000 C   0  0  2  0  0  0  0  0  0  0  0  0
    4.5826   -9.9398    0.0000 C   0  0  0  0  0  0  0  0  0  0  0  0
    5.2980   -9.5290    0.0000 C   0  0  0  0  0  0  0  0  0  0  0  0
    6.0115   -9.9432    0.0000 C   0  0  2  0  0  0  0  0  0  0  0  0
    6.0095  -10.7682    0.0000 C   0  0  2  0  0  0  0  0  0  0  0  0
    6.7230  -11.1824    0.0000 C   0  0  0  0  0  0  0  0  0  0  0  0
    7.4385  -10.7716    0.0000 C   0  0  2  0  0  0  0  0  0  0  0  0
    7.4405   -9.9466    0.0000 C   0  0  1  0  0  0  0  0  0  0  0  0
    8.0549   -9.3961    0.0000 C   0  0  1  0  0  0  0  0  0  0  0  0
    8.8751   -9.4843    0.0000 C   0  0  2  0  0  0  0  0  0  0  0  0
    9.3617   -8.8180    0.0000 C   0  0  1  0  0  0  0  0  0  0  0  0
    9.0279   -8.0635    0.0000 C   0  0  2  0  0  0  0  0  0  0  0  0
    9.5144   -7.3972    0.0000 C   0  0  0  0  0  0  0  0  0  0  0  0
    9.1807   -6.6428    0.0000 C   0  0  2  0  0  0  0  0  0  0  0  0
    9.6672   -5.9765    0.0000 C   0  0  0  0  0  0  0  0  0  0  0  0
    9.3334   -5.2220    0.0000 C   0  0  0  0  0  0  0  0  0  0  0  0
    8.5131   -5.1338    0.0000 C   0  0  1  0  0  0  0  0  0  0  0  0
    8.0266   -5.8001    0.0000 C   0  0  0  0  0  0  0  0  0  0  0  0
    8.3604   -6.5546    0.0000 N   0  0  0  0  0  0  0  0  0  0  0  0
    7.8739   -7.2209    0.0000 C   0  0  0  0  0  0  0  0  0  0  0  0
    8.2076   -7.9753    0.0000 C   0  0  1  0  0  0  0  0  0  0  0  0
    7.7211   -8.6416    0.0000 C   0  0  2  0  0  0  0  0  0  0  0  0
    2.8470  -11.8877    0.0000 O   0  0  0  0  0  0  0  0  0  0  0  0
 41  9  1  1  0  0  0
 44 10  1  1  0  0  0
 48 11  1  6  0  0  0
 50 12  1  6  0  0  0
 57 13  1  1  0  0  0
 58 14  1  6  0  0  0
 37  6  1  1  0  0  0
 43 18  1  6  0  0  0
 18 17  1  0  0  0  0
 17 15  1  0  0  0  0
 17 16  2  0  0  0  0
 49 19  1  0  0  0  0
 47 20  1  1  0  0  0
 45 21  1  6  0  0  0
 36 22  1  6  0  0  0
 53 23  1  1  0  0  0
 49 24  1  0  0  0  0
 40 25  1  1  0  0  0
 46 32  1  6  0  0  0
 32 31  1  0  0  0  0
 30 26  1  1  0  0  0
 31 27  2  0  0  0  0
 29 28  1  0  0  0  0
 30 29  1  0  0  0  0
 31 30  1  0  0  0  0
 55 50  1  0  0  0  0
 57 48  1  0  0  0  0
 41 36  1  0  0  0  0
 44 34  1  0  0  0  0
 40 34  1  0  0  0  0
 58 45  1  0  0  0  0
 58 33  1  0  0  0  0
 34 33  1  1  0  0  0
 34 35  1  0  0  0  0
 36 35  1  0  0  0  0
 37 36  1  0  0  0  0
 38 37  1  0  0  0  0
 39 38  1  0  0  0  0
 40 39  1  0  0  0  0
 41 40  1  0  0  0  0
 42 41  1  0  0  0  0
 43 42  1  0  0  0  0
 44 43  1  0  0  0  0
 45 44  1  0  0  0  0
 46 45  1  0  0  0  0
 47 46  1  0  0  0  0
 48 47  1  0  0  0  0
 49 48  1  0  0  0  0
 50 49  1  0  0  0  0
 51 50  1  0  0  0  0
 52 51  1  0  0  0  0
 53 52  1  0  0  0  0
 54 53  1  0  0  0  0
 55 54  1  0  0  0  0
 56 55  1  0  0  0  0
 57 56  1  0  0  0  0
 58 57  1  0  0  0  0
  1  2  1  0  0  0  0
  2  3  1  0  0  0  0
  3  4  1  0  0  0  0
  1  5  2  0  0  0  0
  1  6  1  0  0  0  0
  2  7  1  1  0  0  0
  3  8  1  1  0  0  0
  2 59  1  6  0  0  0
M  END
>  <cdx:groupId>
237805

>  <cdx:fragmentId>
237643

$$$$
