286230.cdx
  Mrv1902 05222410252D          

 27 30  0  0  0  0            999 V2000
    6.8333   -8.1262    0.0000 C   0  0  1  0  0  0  0  0  0  0  0  0
    7.2534   -8.8362    0.0000 C   0  0  0  0  0  0  0  0  0  0  0  0
    6.8486   -9.5551    0.0000 C   0  0  0  0  0  0  0  0  0  0  0  0
    6.0237   -9.5639    0.0000 C   0  0  0  0  0  0  0  0  0  0  0  0
    5.6035   -8.8538    0.0000 C   0  0  0  0  0  0  0  0  0  0  0  0
    6.0084   -8.1350    0.0000 C   0  0  1  0  0  0  0  0  0  0  0  0
    5.1150   -7.3975    0.0000 N   0  0  0  0  0  0  0  0  0  0  0  0
    5.6650   -6.8750    0.0000 C   0  0  0  0  0  0  0  0  0  0  0  0
    6.6275   -7.5625    0.0000 C   0  0  0  0  0  0  0  0  0  0  0  0
    7.0799   -7.3389    0.0000 C   0  0  2  0  0  0  0  0  0  0  0  0
    6.4073   -6.8611    0.0000 C   0  0  2  0  0  0  0  0  0  0  0  0
    5.7451   -7.3532    0.0000 C   0  0  0  0  0  0  0  0  0  0  0  0
    7.3264   -6.5516    0.0000 C   0  0  0  0  0  0  0  0  0  0  0  0
    8.1514   -6.5428    0.0000 C   0  0  0  0  0  0  0  0  0  0  0  0
    8.4147   -7.3246    0.0000 C   0  0  0  0  0  0  0  0  0  0  0  0
    7.7525   -7.8167    0.0000 C   0  0  1  0  0  0  0  0  0  0  0  0
    6.8344   -5.8894    0.0000 O   0  0  0  0  0  0  0  0  0  0  0  0
    7.2687  -10.2651    0.0000 O   0  0  0  0  0  0  0  0  0  0  0  0
    4.0425   -7.3975    0.0000 C   0  0  0  0  0  0  0  0  0  0  0  0
    4.7786   -8.8627    0.0000 O   0  0  0  0  0  0  0  0  0  0  0  0
    4.3737   -9.5815    0.0000 C   0  0  0  0  0  0  0  0  0  0  0  0
    5.6188  -10.2827    0.0000 O   0  0  0  0  0  0  0  0  0  0  0  0
    6.0389  -10.9927    0.0000 C   0  0  0  0  0  0  0  0  0  0  0  0
    9.2020   -7.5712    0.0000 O   0  0  0  0  0  0  0  0  0  0  0  0
    9.8589   -7.0721    0.0000 C   0  0  0  0  0  0  0  0  0  0  0  0
    7.7613   -8.6416    0.0000 O   0  0  0  0  0  0  0  0  0  0  0  0
    6.3985   -6.0362    0.0000 Cl  0  0  0  0  0  0  0  0  0  0  0  0
  1  2  1  0  0  0  0
  2  3  1  0  0  0  0
  3  4  1  0  0  0  0
  4  5  2  0  0  0  0
  5  6  1  0  0  0  0
  6  7  1  1  0  0  0
  7  8  1  0  0  0  0
  8  9  1  0  0  0  0
 10 11  1  0  0  0  0
 11 12  1  0  0  0  0
  1  9  1  1  0  0  0
  1 10  1  0  0  0  0
  6 12  1  0  0  0  0
  1  6  1  0  0  0  0
 13 14  1  0  0  0  0
 14 15  2  0  0  0  0
 15 16  1  0  0  0  0
 10 13  1  6  0  0  0
 16 10  1  0  0  0  0
 13 17  2  0  0  0  0
  3 18  2  0  0  0  0
  7 19  1  0  0  0  0
 20 21  1  0  0  0  0
  5 20  1  0  0  0  0
 22 23  1  0  0  0  0
  4 22  1  0  0  0  0
 24 25  1  0  0  0  0
 15 24  1  0  0  0  0
 16 26  1  1  0  0  0
 11 27  1  6  0  0  0
M  END
>  <cdx:fragmentId>
406

$$$$
