101286216.cdx
  Mrv1902 05222410202D          

 18 19  0  0  0  0            999 V2000
    5.8193  -15.3424    0.0000 C   0  0  2  0  0  0  0  0  0  0  0  0
    5.3344  -14.6750    0.0000 C   0  0  0  0  0  0  0  0  0  0  0  0
    5.8193  -14.0075    0.0000 C   0  0  0  0  0  0  0  0  0  0  0  0
    6.6039  -14.2625    0.0000 C   0  0  1  0  0  0  0  0  0  0  0  0
    7.2490  -13.7481    0.0000 C   0  0  0  0  0  0  0  0  0  0  0  0
    8.0533  -13.9317    0.0000 C   0  0  0  0  0  0  0  0  0  0  0  0
    8.4112  -14.6750    0.0000 C   0  0  0  0  0  0  0  0  0  0  0  0
    8.0533  -15.4183    0.0000 C   0  0  2  0  0  0  0  0  0  0  0  0
    7.2490  -15.6019    0.0000 C   0  0  0  0  0  0  0  0  0  0  0  0
    6.6039  -15.0875    0.0000 C   0  0  1  0  0  0  0  0  0  0  0  0
    5.9908  -16.1494    0.0000 O   0  0  0  0  0  0  0  0  0  0  0  0
    8.2662  -16.8313    0.0000 C   0  0  0  0  0  0  0  0  0  0  0  0
    8.5676  -16.0633    0.0000 C   0  0  0  0  0  0  0  0  0  0  0  0
    9.3834  -15.9403    0.0000 C   0  0  0  0  0  0  0  0  0  0  0  0
    7.0654  -12.9438    0.0000 C   0  0  0  0  0  0  0  0  0  0  0  0
    5.2062  -15.8945    0.0000 C   0  0  0  0  0  0  0  0  0  0  0  0
    6.4566  -13.4507    0.0000 H   0  0  0  0  0  0  0  0  0  0  0  0
    6.4566  -15.8992    0.0000 H   0  0  0  0  0  0  0  0  0  0  0  0
  1  2  1  0  0  0  0
  2  3  1  0  0  0  0
  3  4  1  0  0  0  0
  4  5  1  0  0  0  0
  5  6  1  0  0  0  0
  6  7  1  0  0  0  0
  7  8  1  0  0  0  0
  8  9  1  0  0  0  0
  9 10  1  0  0  0  0
  1 10  1  0  0  0  0
  4 10  1  0  0  0  0
  1 11  1  6  0  0  0
 12 13  1  0  0  0  0
 13 14  1  0  0  0  0
  8 13  1  1  0  0  0
  5 15  2  0  0  0  0
  1 16  1  1  0  0  0
  4 17  1  6  0  0  0
 10 18  1  6  0  0  0
M  END
>  <cdx:groupId>
237617

>  <cdx:fragmentId>
237565

$$$$
