286954.cdx
  Mrv1902 05222410212D          

 49 54  0  0  0  0            999 V2000
    7.4885   -4.6673    0.0000 C   0  0  1  0  0  0  0  0  0  0  0  0
    8.2030   -4.2548    0.0000 C   0  0  1  0  0  0  0  0  0  0  0  0
    8.9175   -4.6673    0.0000 C   0  0  0  0  0  0  0  0  0  0  0  0
    8.9175   -5.4923    0.0000 C   0  0  0  0  0  0  0  0  0  0  0  0
    8.2030   -5.9048    0.0000 C   0  0  2  0  0  0  0  0  0  0  0  0
    8.2030   -6.7298    0.0000 C   0  0  0  0  0  0  0  0  0  0  0  0
    7.4885   -7.1423    0.0000 C   0  0  0  0  0  0  0  0  0  0  0  0
    6.7740   -6.7298    0.0000 C   0  0  1  0  0  0  0  0  0  0  0  0
    6.0596   -7.1423    0.0000 C   0  0  2  0  0  0  0  0  0  0  0  0
    6.0596   -7.9673    0.0000 C   0  0  0  0  0  0  0  0  0  0  0  0
    5.3451   -8.3798    0.0000 C   0  0  0  0  0  0  0  0  0  0  0  0
    4.6306   -7.9673    0.0000 C   0  0  1  0  0  0  0  0  0  0  0  0
    3.9162   -8.3798    0.0000 C   0  0  2  0  0  0  0  0  0  0  0  0
    3.2017   -7.9673    0.0000 C   0  0  2  0  0  0  0  0  0  0  0  0
    3.2017   -7.1423    0.0000 C   0  0  0  0  0  0  0  0  0  0  0  0
    3.9162   -6.7298    0.0000 C   0  0  0  0  0  0  0  0  0  0  0  0
    4.6306   -7.1423    0.0000 C   0  0  2  0  0  0  0  0  0  0  0  0
    5.3451   -6.7298    0.0000 C   0  0  1  0  0  0  0  0  0  0  0  0
    5.3451   -5.9048    0.0000 C   0  0  0  0  0  0  0  0  0  0  0  0
    6.0596   -5.4923    0.0000 C   0  0  0  0  0  0  0  0  0  0  0  0
    6.7740   -5.9048    0.0000 C   0  0  0  0  0  0  0  0  0  0  0  0
    7.4885   -5.4923    0.0000 C   0  0  2  0  0  0  0  0  0  0  0  0
    8.9175   -6.3173    0.0000 C   0  0  0  0  0  0  0  0  0  0  0  0
    8.9175   -7.1423    0.0000 O   0  0  0  0  0  0  0  0  0  0  0  0
    3.5037   -9.0942    0.0000 C   0  0  0  0  0  0  0  0  0  0  0  0
    8.2030   -3.4298    0.0000 C   0  0  0  0  0  0  0  0  0  0  0  0
    7.0760   -3.9528    0.0000 C   0  0  0  0  0  0  0  0  0  0  0  0
    4.3287   -9.0942    0.0000 C   0  0  0  0  0  0  0  0  0  0  0  0
    3.9162   -9.8087    0.0000 O   0  0  0  0  0  0  0  0  0  0  0  0
    2.4872   -8.3798    0.0000 O   0  0  0  0  0  0  0  0  0  0  0  0
    6.6916   -4.4538    0.0000 O   0  0  0  0  0  0  0  0  0  0  0  0
    4.6306   -8.7923    0.0000 H   0  0  0  0  0  0  0  0  0  0  0  0
    7.4885   -6.3173    0.0000 H   0  0  0  0  0  0  0  0  0  0  0  0
   11.0621   -5.0819    0.0000 O   0  0  0  0  0  0  0  0  0  0  0  0
   12.4898   -5.9090    0.0000 O   0  0  0  0  0  0  0  0  0  0  0  0
   12.4874   -7.5590    0.0000 O   0  0  0  0  0  0  0  0  0  0  0  0
   11.7710   -8.7955    0.0000 O   0  0  0  0  0  0  0  0  0  0  0  0
   11.0572   -8.3819    0.0000 C   0  0  0  0  0  0  0  0  0  0  0  0
   11.0584   -7.5569    0.0000 C   0  0  2  0  0  0  0  0  0  0  0  0
   11.7735   -7.1455    0.0000 C   0  0  2  0  0  0  0  0  0  0  0  0
   11.7747   -6.3205    0.0000 C   0  0  1  0  0  0  0  0  0  0  0  0
   11.0609   -5.9069    0.0000 C   0  0  2  0  0  0  0  0  0  0  0  0
   10.3458   -6.3183    0.0000 C   0  0  1  0  0  0  0  0  0  0  0  0
   10.3446   -7.1433    0.0000 O   0  0  0  0  0  0  0  0  0  0  0  0
    9.6319   -5.9048    0.0000 O   0  0  0  0  0  0  0  0  0  0  0  0
    4.6306   -6.3173    0.0000 C   0  0  0  0  0  0  0  0  0  0  0  0
    6.0596   -6.3173    0.0000 C   0  0  0  0  0  0  0  0  0  0  0  0
    5.3451   -7.5548    0.0000 H   0  0  0  0  0  0  0  0  0  0  0  0
    6.7740   -7.5548    0.0000 C   0  0  0  0  0  0  0  0  0  0  0  0
 43 45  1  1  0  0  0
 42 34  1  6  0  0  0
 41 35  1  1  0  0  0
 40 36  1  6  0  0  0
 39 38  1  1  0  0  0
 38 37  1  0  0  0  0
 44 39  1  0  0  0  0
 40 39  1  0  0  0  0
 41 40  1  0  0  0  0
 42 41  1  0  0  0  0
 43 42  1  0  0  0  0
 44 43  1  0  0  0  0
  1  2  1  0  0  0  0
  2  3  1  0  0  0  0
  3  4  1  0  0  0  0
  4  5  1  0  0  0  0
  5  6  1  0  0  0  0
  6  7  1  0  0  0  0
  7  8  1  0  0  0  0
  8  9  1  0  0  0  0
  9 10  1  0  0  0  0
 10 11  1  0  0  0  0
 11 12  1  0  0  0  0
 12 13  1  0  0  0  0
 13 14  1  0  0  0  0
 14 15  1  0  0  0  0
 15 16  1  0  0  0  0
 16 17  1  0  0  0  0
 12 17  1  0  0  0  0
 17 18  1  0  0  0  0
  9 18  1  0  0  0  0
 18 19  1  0  0  0  0
 19 20  1  0  0  0  0
 20 21  2  0  0  0  0
  8 21  1  0  0  0  0
 21 22  1  0  0  0  0
  5 22  1  0  0  0  0
  1 22  1  0  0  0  0
 23 24  2  0  0  0  0
 23 45  1  0  0  0  0
  5 23  1  1  0  0  0
 13 25  1  1  0  0  0
  2 26  1  6  0  0  0
  1 27  1  1  0  0  0
 28 29  1  0  0  0  0
 13 28  1  6  0  0  0
 14 30  1  1  0  0  0
  1 31  1  6  0  0  0
 12 32  1  6  0  0  0
 22 33  1  1  0  0  0
 17 46  1  1  0  0  0
  9 47  1  1  0  0  0
 18 48  1  6  0  0  0
  8 49  1  6  0  0  0
M  END
>  <cdx:fragmentId>
104955

$$$$
