287.cdx
  Mrv1902 05222410262D          

 32 35  0  0  0  0            999 V2000
    3.7211   -7.4935    0.0000 C   0  0  0  0  0  0  0  0  0  0  0  0
    3.7211   -8.3185    0.0000 C   0  0  1  0  0  0  0  0  0  0  0  0
    4.4356   -8.7310    0.0000 C   0  0  2  0  0  0  0  0  0  0  0  0
    5.1500   -8.3185    0.0000 C   0  0  1  0  0  0  0  0  0  0  0  0
    5.1500   -7.4935    0.0000 C   0  0  2  0  0  0  0  0  0  0  0  0
    4.4356   -7.0810    0.0000 C   0  0  0  0  0  0  0  0  0  0  0  0
    5.8645   -8.7310    0.0000 C   0  0  0  0  0  0  0  0  0  0  0  0
    6.5790   -8.3185    0.0000 C   0  0  0  0  0  0  0  0  0  0  0  0
    6.5790   -7.4935    0.0000 C   0  0  0  0  0  0  0  0  0  0  0  0
    5.8645   -7.0810    0.0000 C   0  0  2  0  0  0  0  0  0  0  0  0
    7.2934   -7.0810    0.0000 C   0  0  0  0  0  0  0  0  0  0  0  0
    7.2934   -6.2560    0.0000 C   0  0  2  0  0  0  0  0  0  0  0  0
    6.5790   -5.8435    0.0000 C   0  0  0  0  0  0  0  0  0  0  0  0
    5.8645   -6.2560    0.0000 C   0  0  0  0  0  0  0  0  0  0  0  0
    8.0781   -7.3359    0.0000 C   0  0  0  0  0  0  0  0  0  0  0  0
    8.5630   -6.6685    0.0000 C   0  0  0  0  0  0  0  0  0  0  0  0
    8.0781   -6.0010    0.0000 C   0  0  2  0  0  0  0  0  0  0  0  0
    5.1500   -6.6685    0.0000 C   0  0  0  0  0  0  0  0  0  0  0  0
    7.2934   -5.4310    0.0000 C   0  0  0  0  0  0  0  0  0  0  0  0
    3.0066   -8.7310    0.0000 O   0  0  0  0  0  0  0  0  0  0  0  0
    5.1500   -9.1435    0.0000 H   0  0  0  0  0  0  0  0  0  0  0  0
    4.4356   -9.5560    0.0000 C   0  0  0  0  0  0  0  0  0  0  0  0
    5.8645   -7.9060    0.0000 H   0  0  0  0  0  0  0  0  0  0  0  0
    8.3330   -5.2164    0.0000 C   0  0  2  0  0  0  0  0  0  0  0  0
    7.7810   -4.6033    0.0000 C   0  0  0  0  0  0  0  0  0  0  0  0
    9.1400   -5.0449    0.0000 C   0  0  0  0  0  0  0  0  0  0  0  0
    9.3949   -4.2603    0.0000 C   0  0  0  0  0  0  0  0  0  0  0  0
   10.2019   -4.0887    0.0000 C   0  0  0  0  0  0  0  0  0  0  0  0
   10.4568   -3.3041    0.0000 C   0  0  0  0  0  0  0  0  0  0  0  0
    9.9048   -2.6910    0.0000 C   0  0  0  0  0  0  0  0  0  0  0  0
   11.2638   -3.1326    0.0000 C   0  0  0  0  0  0  0  0  0  0  0  0
    8.9031   -6.0010    0.0000 H   0  0  0  0  0  0  0  0  0  0  0  0
  1  2  1  0  0  0  0
  2  3  1  0  0  0  0
  3  4  1  0  0  0  0
  4  5  1  0  0  0  0
  5  6  1  0  0  0  0
  6  1  1  0  0  0  0
  4  7  1  0  0  0  0
  7  8  1  0  0  0  0
  8  9  1  0  0  0  0
  9 10  1  0  0  0  0
 10  5  1  0  0  0  0
  9 11  2  0  0  0  0
 11 12  1  0  0  0  0
 12 13  1  0  0  0  0
 13 14  1  0  0  0  0
 14 10  1  0  0  0  0
 11 15  1  0  0  0  0
 15 16  1  0  0  0  0
 16 17  1  0  0  0  0
 17 12  1  0  0  0  0
  5 18  1  1  0  0  0
 12 19  1  1  0  0  0
  2 20  1  1  0  0  0
  4 21  1  6  0  0  0
  3 22  1  6  0  0  0
 10 23  1  6  0  0  0
 17 24  1  0  0  0  0
 24 25  1  6  0  0  0
 24 26  1  0  0  0  0
 26 27  1  0  0  0  0
 27 28  1  0  0  0  0
 28 29  1  0  0  0  0
 29 30  1  0  0  0  0
 29 31  1  0  0  0  0
 17 32  1  6  0  0  0
M  END
>  <cdx:fragmentId>
5

$$$$
