287064.cdx
  Mrv1902 05222410252D          

 12 12  0  0  0  0            999 V2000
    8.2750   -5.9239    0.0000 C   0  0  0  0  0  0  0  0  0  0  0  0
    7.5605   -6.3364    0.0000 C   0  0  0  0  0  0  0  0  0  0  0  0
    6.8461   -5.9239    0.0000 C   0  0  0  0  0  0  0  0  0  0  0  0
    6.1316   -6.3364    0.0000 C   0  0  0  0  0  0  0  0  0  0  0  0
    6.1316   -7.1614    0.0000 C   0  0  0  0  0  0  0  0  0  0  0  0
    6.8461   -7.5739    0.0000 C   0  0  0  0  0  0  0  0  0  0  0  0
    7.5605   -7.1614    0.0000 C   0  0  0  0  0  0  0  0  0  0  0  0
    8.2750   -5.0989    0.0000 O   0  0  0  0  0  0  0  0  0  0  0  0
    8.9895   -6.3364    0.0000 O   0  0  0  0  0  0  0  0  0  0  0  0
    5.4171   -7.5739    0.0000 O   0  0  0  0  0  0  0  0  0  0  0  0
    5.4171   -5.9239    0.0000 O   0  0  0  0  0  0  0  0  0  0  0  0
    9.7040   -5.9239    0.0000 C   0  0  0  0  0  0  0  0  0  0  0  0
  1  2  1  0  0  0  0
  2  3  1  0  0  0  0
  3  4  2  0  0  0  0
  4  5  1  0  0  0  0
  5  6  2  0  0  0  0
  6  7  1  0  0  0  0
  2  7  2  0  0  0  0
  1  8  2  0  0  0  0
  1  9  1  0  0  0  0
  5 10  1  0  0  0  0
  4 11  1  0  0  0  0
  9 12  1  0  0  0  0
M  END
>  <cdx:fragmentId>
164

$$$$
