2878.cdx
  Mrv1902 05222410212D          

 24 27  0  0  0  0            999 V2000
    3.0970   -8.7037    0.0000 C   0  0  0  0  0  0  0  0  0  0  0  0
    3.0970   -9.5287    0.0000 C   0  0  0  0  0  0  0  0  0  0  0  0
    3.8115   -9.9413    0.0000 C   0  0  0  0  0  0  0  0  0  0  0  0
    4.5260   -9.5287    0.0000 C   0  0  0  0  0  0  0  0  0  0  0  0
    4.5260   -8.7037    0.0000 C   0  0  2  0  0  0  0  0  0  0  0  0
    3.8115   -8.2912    0.0000 C   0  0  0  0  0  0  0  0  0  0  0  0
    5.2404   -9.9413    0.0000 C   0  0  0  0  0  0  0  0  0  0  0  0
    5.9549   -9.5287    0.0000 C   0  0  0  0  0  0  0  0  0  0  0  0
    5.9549   -8.7037    0.0000 C   0  0  2  0  0  0  0  0  0  0  0  0
    5.2404   -8.2912    0.0000 C   0  0  2  0  0  0  0  0  0  0  0  0
    6.6694   -8.2912    0.0000 C   0  0  2  0  0  0  0  0  0  0  0  0
    6.6694   -7.4663    0.0000 C   0  0  2  0  0  0  0  0  0  0  0  0
    5.9549   -7.0537    0.0000 C   0  0  0  0  0  0  0  0  0  0  0  0
    5.2404   -7.4663    0.0000 C   0  0  0  0  0  0  0  0  0  0  0  0
    7.3839   -7.0537    0.0000 C   0  0  2  0  0  0  0  0  0  0  0  0
    8.0983   -7.4663    0.0000 C   0  0  0  0  0  0  0  0  0  0  0  0
    8.0983   -8.2912    0.0000 C   0  0  0  0  0  0  0  0  0  0  0  0
    7.3839   -6.2287    0.0000 C   0  0  0  0  0  0  0  0  0  0  0  0
    8.0983   -5.8163    0.0000 C   0  0  0  0  0  0  0  0  0  0  0  0
    4.5260   -7.8788    0.0000 C   0  0  0  0  0  0  0  0  0  0  0  0
    5.9549   -7.8788    0.0000 H   0  0  0  0  0  0  0  0  0  0  0  0
    6.6694   -9.1162    0.0000 H   0  0  0  0  0  0  0  0  0  0  0  0
    6.6694   -6.6413    0.0000 C   0  0  0  0  0  0  0  0  0  0  0  0
    5.2404   -9.1162    0.0000 H   0  0  0  0  0  0  0  0  0  0  0  0
  1  2  1  0  0  0  0
  2  3  1  0  0  0  0
  3  4  1  0  0  0  0
  4  5  1  0  0  0  0
  5  6  1  0  0  0  0
  6  1  1  0  0  0  0
  4  7  1  0  0  0  0
  7  8  1  0  0  0  0
  8  9  1  0  0  0  0
  9 10  1  0  0  0  0
 10  5  1  0  0  0  0
  9 11  1  0  0  0  0
 11 12  1  0  0  0  0
 12 13  1  0  0  0  0
 13 14  1  0  0  0  0
 14 10  1  0  0  0  0
 12 15  1  0  0  0  0
 15 16  1  0  0  0  0
 16 17  1  0  0  0  0
 11 17  1  0  0  0  0
 15 18  1  1  0  0  0
 18 19  1  0  0  0  0
  5 20  1  1  0  0  0
  9 21  1  1  0  0  0
 11 22  1  1  0  0  0
 12 23  1  1  0  0  0
 10 24  1  6  0  0  0
M  END
>  <cdx:fragmentId>
5

$$$$
