1,1-diethoxy-ethane (acetal).cdx
  Mrv1902 05222410192D          

  8  7  0  0  0  0            999 V2000
    9.3374   -8.3206    0.0000 C   0  0  0  0  0  0  0  0  0  0  0  0
    8.6200   -8.7278    0.0000 C   0  0  0  0  0  0  0  0  0  0  0  0
    7.9085   -8.3102    0.0000 O   0  0  0  0  0  0  0  0  0  0  0  0
    7.1911   -8.7175    0.0000 C   0  0  0  0  0  0  0  0  0  0  0  0
    6.4796   -8.2998    0.0000 O   0  0  0  0  0  0  0  0  0  0  0  0
    5.7622   -8.7071    0.0000 C   0  0  0  0  0  0  0  0  0  0  0  0
    5.0507   -8.2894    0.0000 C   0  0  0  0  0  0  0  0  0  0  0  0
    7.1911   -9.5425    0.0000 C   0  0  0  0  0  0  0  0  0  0  0  0
  1  2  1  0  0  0  0
  2  3  1  0  0  0  0
  3  4  1  0  0  0  0
  4  5  1  0  0  0  0
  5  6  1  0  0  0  0
  6  7  1  0  0  0  0
  4  8  1  0  0  0  0
M  END
>  <cdx:fragmentId>
3

$$$$
