28813.cdx
  Mrv1902 05222410202D          

 20 20  0  0  0  0            999 V2000
    8.0547   -4.7463    0.0000 C   0  0  0  0  0  0  0  0  0  0  0  0
    7.3402   -5.1588    0.0000 C   0  0  0  0  0  0  0  0  0  0  0  0
    6.6257   -4.7463    0.0000 C   0  0  0  0  0  0  0  0  0  0  0  0
    5.9113   -5.1588    0.0000 C   0  0  0  0  0  0  0  0  0  0  0  0
    5.1968   -4.7463    0.0000 O   0  0  0  0  0  0  0  0  0  0  0  0
    4.4823   -5.1588    0.0000 C   0  0  0  0  0  0  0  0  0  0  0  0
    4.4823   -5.9838    0.0000 O   0  0  0  0  0  0  0  0  0  0  0  0
    3.7679   -4.7463    0.0000 C   0  0  0  0  0  0  0  0  0  0  0  0
    3.0534   -5.1588    0.0000 C   0  0  0  0  0  0  0  0  0  0  0  0
    2.3389   -4.7463    0.0000 C   0  0  0  0  0  0  0  0  0  0  0  0
    2.3389   -3.9213    0.0000 C   0  0  0  0  0  0  0  0  0  0  0  0
    3.0534   -3.5088    0.0000 C   0  0  0  0  0  0  0  0  0  0  0  0
    3.7679   -3.9213    0.0000 C   0  0  0  0  0  0  0  0  0  0  0  0
    4.4823   -3.5088    0.0000 C   0  0  0  0  0  0  0  0  0  0  0  0
    5.1968   -3.9213    0.0000 O   0  0  0  0  0  0  0  0  0  0  0  0
    4.4823   -2.6838    0.0000 O   0  0  0  0  0  0  0  0  0  0  0  0
    5.1968   -2.2713    0.0000 C   0  0  0  0  0  0  0  0  0  0  0  0
    5.1968   -1.4463    0.0000 C   0  0  0  0  0  0  0  0  0  0  0  0
    5.9113   -1.0338    0.0000 C   0  0  0  0  0  0  0  0  0  0  0  0
    4.4823   -1.0338    0.0000 C   0  0  0  0  0  0  0  0  0  0  0  0
  1  2  1  0  0  0  0
  2  3  1  0  0  0  0
  3  4  1  0  0  0  0
  4  5  1  0  0  0  0
  5  6  1  0  0  0  0
  6  7  2  0  0  0  0
  6  8  1  0  0  0  0
  8 13  1  0  0  0  0
  8  9  2  0  0  0  0
  9 10  1  0  0  0  0
 10 11  2  0  0  0  0
 11 12  1  0  0  0  0
 12 13  2  0  0  0  0
 13 14  1  0  0  0  0
 14 15  2  0  0  0  0
 14 16  1  0  0  0  0
 16 17  1  0  0  0  0
 17 18  1  0  0  0  0
 18 19  1  0  0  0  0
 18 20  1  0  0  0  0
M  END
>  <cdx:fragmentId>
64

$$$$
