28812.cdx
  Mrv1902 05222410202D          

 11 11  0  0  0  0            999 V2000
    4.5194   -4.6819    0.0000 C   0  0  0  0  0  0  0  0  0  0  0  0
    4.5194   -3.8569    0.0000 C   0  0  0  0  0  0  0  0  0  0  0  0
    3.8049   -3.4444    0.0000 C   0  0  0  0  0  0  0  0  0  0  0  0
    3.0904   -3.8569    0.0000 C   0  0  0  0  0  0  0  0  0  0  0  0
    3.0904   -4.6819    0.0000 C   0  0  0  0  0  0  0  0  0  0  0  0
    3.8049   -5.0944    0.0000 C   0  0  0  0  0  0  0  0  0  0  0  0
    2.3759   -5.0944    0.0000 C   0  0  0  0  0  0  0  0  0  0  0  0
    2.3759   -3.4444    0.0000 C   0  0  0  0  0  0  0  0  0  0  0  0
    5.2338   -3.4444    0.0000 C   0  0  0  0  0  0  0  0  0  0  0  0
    5.2338   -5.0944    0.0000 C   0  0  0  0  0  0  0  0  0  0  0  0
    5.9483   -4.6819    0.0000 C   0  0  0  0  0  0  0  0  0  0  0  0
  1  2  1  0  0  0  0
  2  3  2  0  0  0  0
  3  4  1  0  0  0  0
  4  5  2  0  0  0  0
  5  6  1  0  0  0  0
  1  6  2  0  0  0  0
  5  7  1  0  0  0  0
  4  8  1  0  0  0  0
  2  9  1  0  0  0  0
 10 11  1  0  0  0  0
  1 10  1  0  0  0  0
M  END
>  <cdx:groupId>
35

>  <cdx:fragmentId>
5

$$$$
