288212.cdx
  Mrv1902 05222410212D          

 15 15  0  0  0  0            999 V2000
    5.8770   -7.1630    0.0000 C   0  0  2  0  0  0  0  0  0  0  0  0
    6.1170   -7.9523    0.0000 C   0  0  2  0  0  0  0  0  0  0  0  0
    6.9419   -7.9679    0.0000 C   0  0  1  0  0  0  0  0  0  0  0  0
    7.2116   -7.1883    0.0000 C   0  0  1  0  0  0  0  0  0  0  0  0
    6.5535   -6.6908    0.0000 O   0  0  0  0  0  0  0  0  0  0  0  0
    7.4141   -8.6444    0.0000 O   0  0  0  0  0  0  0  0  0  0  0  0
    8.0009   -6.9482    0.0000 C   0  0  0  0  0  0  0  0  0  0  0  0
    3.6855   -7.1139    0.0000 C   0  0  0  0  0  0  0  0  0  0  0  0
    4.4551   -7.4111    0.0000 O   0  0  0  0  0  0  0  0  0  0  0  0
    5.0973   -6.8933    0.0000 C   0  0  0  0  0  0  0  0  0  0  0  0
    5.8729   -9.3956    0.0000 C   0  0  0  0  0  0  0  0  0  0  0  0
    5.6196   -8.6105    0.0000 O   0  0  0  0  0  0  0  0  0  0  0  0
    7.1723   -9.4332    0.0000 C   0  0  0  0  0  0  0  0  0  0  0  0
    8.7002   -7.3860    0.0000 O   0  0  0  0  0  0  0  0  0  0  0  0
    9.4290   -6.9992    0.0000 C   0  0  0  0  0  0  0  0  0  0  0  0
  1  2  1  0  0  0  0
  2  3  1  0  0  0  0
  3  4  1  0  0  0  0
  4  5  1  0  0  0  0
  5  1  1  0  0  0  0
  9  8  1  0  0  0  0
  1 10  1  1  0  0  0
  3  6  1  1  0  0  0
 12 11  1  0  0  0  0
  2 12  1  6  0  0  0
  4  7  1  1  0  0  0
 10  9  1  0  0  0  0
  6 13  1  0  0  0  0
  7 14  1  0  0  0  0
 14 15  1  0  0  0  0
M  END
>  <cdx:fragmentId>
5

$$$$
