288827.cdx
  Mrv1902 05222410212D          

 31 36  0  0  0  0            999 V2000
    6.2591   -7.3216    0.0000 O   0  0  0  0  0  0  0  0  0  0  0  0
    6.2591  -11.4466    0.0000 O   0  0  0  0  0  0  0  0  0  0  0  0
    8.4025   -7.7341    0.0000 C   0  0  0  0  0  0  0  0  0  0  0  0
    7.6880   -7.3216    0.0000 C   0  0  0  0  0  0  0  0  0  0  0  0
    6.9736   -7.7341    0.0000 C   0  0  0  0  0  0  0  0  0  0  0  0
    6.9736   -8.5591    0.0000 C   0  0  0  0  0  0  0  0  0  0  0  0
    6.3525   -9.3775    0.0000 O   0  0  0  0  0  0  0  0  0  0  0  0
    7.6880   -8.9716    0.0000 C   0  0  0  0  0  0  0  0  0  0  0  0
    7.6880   -9.7966    0.0000 C   0  0  1  0  0  0  0  0  0  0  0  0
    6.9736  -10.2091    0.0000 C   0  0  2  0  0  0  0  0  0  0  0  0
    6.9736  -11.0341    0.0000 C   0  0  2  0  0  0  0  0  0  0  0  0
    7.6880  -11.4466    0.0000 C   0  0  0  0  0  0  0  0  0  0  0  0
    8.4025  -11.0341    0.0000 C   0  0  0  0  0  0  0  0  0  0  0  0
    8.4025  -10.2091    0.0000 C   0  0  1  0  0  0  0  0  0  0  0  0
    8.4025   -9.3841    0.0000 H   0  0  0  0  0  0  0  0  0  0  0  0
    9.1170   -9.7966    0.0000 C   0  0  2  0  0  0  0  0  0  0  0  0
    9.1025  -10.6975    0.0000 N   0  0  0  0  0  0  0  0  0  0  0  0
    9.8170  -11.1100    0.0000 C   0  0  0  0  0  0  0  0  0  0  0  0
    8.4016  -11.2074    0.0000 C   0  0  0  0  0  0  0  0  0  0  0  0
    7.7000  -10.6975    0.0000 C   0  0  0  0  0  0  0  0  0  0  0  0
    9.1170   -8.9716    0.0000 C   0  0  0  0  0  0  0  0  0  0  0  0
    8.4025   -8.5591    0.0000 C   0  0  0  0  0  0  0  0  0  0  0  0
    6.1767  -10.4226    0.0000 H   0  0  0  0  0  0  0  0  0  0  0  0
    6.2591   -6.4966    0.0000 C   0  0  0  0  0  0  0  0  0  0  0  0
    5.5446   -6.0841    0.0000 C   0  0  0  0  0  0  0  0  0  0  0  0
    5.5446   -5.2591    0.0000 N   0  0  0  0  0  0  0  0  0  0  0  0
    6.2591   -4.8466    0.0000 C   0  0  0  0  0  0  0  0  0  0  0  0
    6.2591   -4.0216    0.0000 C   0  0  0  0  0  0  0  0  0  0  0  0
    5.5446   -3.6091    0.0000 O   0  0  0  0  0  0  0  0  0  0  0  0
    4.8302   -4.0216    0.0000 C   0  0  0  0  0  0  0  0  0  0  0  0
    4.8302   -4.8466    0.0000 C   0  0  0  0  0  0  0  0  0  0  0  0
  3  4  2  0  0  0  0
  4  5  1  0  0  0  0
  1  5  1  0  0  0  0
  5  6  2  0  0  0  0
  6  7  1  0  0  0  0
  6  8  1  0  0  0  0
  8  9  1  0  0  0  0
  9 10  1  0  0  0  0
 10  7  1  0  0  0  0
 10 11  1  0  0  0  0
 11  2  1  6  0  0  0
 11 12  1  0  0  0  0
 12 13  2  0  0  0  0
 13 14  1  0  0  0  0
  9 14  1  0  0  0  0
 14 15  1  1  0  0  0
 14 16  1  0  0  0  0
 16 17  1  1  0  0  0
 17 18  1  0  0  0  0
 17 19  1  0  0  0  0
 19 20  1  0  0  0  0
  9 20  1  1  0  0  0
 16 21  1  0  0  0  0
 21 22  1  0  0  0  0
  8 22  2  0  0  0  0
  3 22  1  0  0  0  0
 10 23  1  1  0  0  0
  1 24  1  0  0  0  0
 24 25  1  0  0  0  0
 25 26  1  0  0  0  0
 26 27  1  0  0  0  0
 27 28  1  0  0  0  0
 28 29  1  0  0  0  0
 29 30  1  0  0  0  0
 30 31  1  0  0  0  0
 31 26  1  0  0  0  0
M  END
>  <cdx:fragmentId>
1183

$$$$
