m-cresol.cdx
  Mrv1902 05222410192D          

  8  8  0  0  0  0            999 V2000
    5.9762   -8.0961    0.0000 C   0  0  0  0  0  0  0  0  0  0  0  0
    5.9762   -8.9211    0.0000 C   0  0  0  0  0  0  0  0  0  0  0  0
    6.6907   -9.3336    0.0000 C   0  0  0  0  0  0  0  0  0  0  0  0
    7.4052   -8.9211    0.0000 C   0  0  0  0  0  0  0  0  0  0  0  0
    7.4052   -8.0961    0.0000 C   0  0  0  0  0  0  0  0  0  0  0  0
    6.6907   -7.6836    0.0000 C   0  0  0  0  0  0  0  0  0  0  0  0
    6.6907  -10.1586    0.0000 C   0  0  0  0  0  0  0  0  0  0  0  0
    8.1197   -7.6836    0.0000 O   0  0  0  0  0  0  0  0  0  0  0  0
  1  2  2  0  0  0  0
  2  3  1  0  0  0  0
  3  4  2  0  0  0  0
  4  5  1  0  0  0  0
  5  6  2  0  0  0  0
  6  1  1  0  0  0  0
  3  7  1  0  0  0  0
  5  8  1  0  0  0  0
M  END
>  <cdx:fragmentId>
5

$$$$
