28905.cdx
  Mrv1902 05222410222D          

 11 11  0  0  0  0            999 V2000
    7.6236   -4.8447    0.0000 C   0  0  0  0  0  0  0  0  0  0  0  0
    7.6301   -5.6697    0.0000 C   0  0  0  0  0  0  0  0  0  0  0  0
    6.9060   -4.4377    0.0000 N   0  0  0  0  0  0  0  0  0  0  0  0
    6.9188   -6.0877    0.0000 N   0  0  0  0  0  0  0  0  0  0  0  0
    6.2012   -5.6808    0.0000 C   0  0  0  0  0  0  0  0  0  0  0  0
    6.1947   -4.8558    0.0000 C   0  0  0  0  0  0  0  0  0  0  0  0
    5.4771   -4.4488    0.0000 C   0  0  0  0  0  0  0  0  0  0  0  0
    8.3477   -6.0766    0.0000 C   0  0  0  0  0  0  0  0  0  0  0  0
    9.0590   -5.6586    0.0000 C   0  0  0  0  0  0  0  0  0  0  0  0
    8.3349   -4.4267    0.0000 C   0  0  0  0  0  0  0  0  0  0  0  0
    9.0525   -4.8336    0.0000 C   0  0  0  0  0  0  0  0  0  0  0  0
  1  2  1  0  0  0  0
  1  3  2  0  0  0  0
  2  4  2  0  0  0  0
  4  5  1  0  0  0  0
  5  6  2  0  0  0  0
  3  6  1  0  0  0  0
  6  7  1  0  0  0  0
  8  9  1  0  0  0  0
  2  8  1  0  0  0  0
 10 11  1  0  0  0  0
  1 10  1  0  0  0  0
M  END
>  <cdx:fragmentId>
5

$$$$
