2892.cdx
  Mrv1902 05222410212D          

 36 39  0  0  0  0            999 V2000
   11.6058   -4.1489    0.0000 C   0  0  0  0  0  0  0  0  0  0  0  0
   10.5439   -5.1051    0.0000 C   0  0  0  0  0  0  0  0  0  0  0  0
    9.7369   -5.2766    0.0000 C   0  0  0  0  0  0  0  0  0  0  0  0
    9.4820   -6.0612    0.0000 C   0  0  0  0  0  0  0  0  0  0  0  0
    8.6750   -6.2327    0.0000 C   0  0  1  0  0  0  0  0  0  0  0  0
    8.1230   -5.6196    0.0000 C   0  0  0  0  0  0  0  0  0  0  0  0
   12.1578   -4.7620    0.0000 O   0  0  0  0  0  0  0  0  0  0  0  0
    4.7775   -8.0973    0.0000 C   0  0  0  0  0  0  0  0  0  0  0  0
    4.0631   -8.5098    0.0000 C   0  0  0  0  0  0  0  0  0  0  0  0
    4.0631   -9.3348    0.0000 C   0  0  0  0  0  0  0  0  0  0  0  0
    4.7775   -9.7473    0.0000 C   0  0  0  0  0  0  0  0  0  0  0  0
    5.4920   -9.3348    0.0000 C   0  0  2  0  0  0  0  0  0  0  0  0
    6.2065   -9.7473    0.0000 C   0  0  0  0  0  0  0  0  0  0  0  0
    6.9210   -9.3348    0.0000 C   0  0  0  0  0  0  0  0  0  0  0  0
    6.9210   -8.5098    0.0000 C   0  0  0  0  0  0  0  0  0  0  0  0
    7.6354   -8.0973    0.0000 C   0  0  2  0  0  0  0  0  0  0  0  0
    8.4201   -8.3522    0.0000 C   0  0  2  0  0  0  0  0  0  0  0  0
    8.9050   -7.6848    0.0000 C   0  0  0  0  0  0  0  0  0  0  0  0
    8.4201   -7.0174    0.0000 C   0  0  1  0  0  0  0  0  0  0  0  0
    7.6354   -7.2723    0.0000 C   0  0  1  0  0  0  0  0  0  0  0  0
    6.9210   -6.8598    0.0000 C   0  0  0  0  0  0  0  0  0  0  0  0
    6.2065   -7.2723    0.0000 C   0  0  0  0  0  0  0  0  0  0  0  0
    6.2065   -8.0973    0.0000 C   0  0  0  0  0  0  0  0  0  0  0  0
    5.4920   -8.5098    0.0000 C   0  0  1  0  0  0  0  0  0  0  0  0
    3.3486   -9.7473    0.0000 O   0  0  0  0  0  0  0  0  0  0  0  0
    7.6354   -8.9223    0.0000 C   0  0  0  0  0  0  0  0  0  0  0  0
    7.6354   -6.4473    0.0000 C   0  0  0  0  0  0  0  0  0  0  0  0
    5.4920   -7.6848    0.0000 C   0  0  0  0  0  0  0  0  0  0  0  0
    5.1900  -10.4618    0.0000 C   0  0  0  0  0  0  0  0  0  0  0  0
    4.3650  -10.4618    0.0000 C   0  0  0  0  0  0  0  0  0  0  0  0
   10.2468   -3.7073    0.0000 C   0  0  0  0  0  0  0  0  0  0  0  0
    5.4920  -10.1598    0.0000 H   0  0  0  0  0  0  0  0  0  0  0  0
   11.8607   -3.3643    0.0000 O   0  0  0  0  0  0  0  0  0  0  0  0
   10.7988   -4.3204    0.0000 C   0  0  0  0  0  0  0  0  0  0  0  0
    9.2047   -6.7624    0.0000 H   0  0  0  0  0  0  0  0  0  0  0  0
    8.6750   -9.1369    0.0000 O   0  0  0  0  0  0  0  0  0  0  0  0
 34 31  1  0  0  0  0
  1 34  1  0  0  0  0
 34  2  2  0  0  0  0
  2  3  1  0  0  0  0
  3  4  1  0  0  0  0
  4  5  1  0  0  0  0
  5  6  1  6  0  0  0
  1  7  2  0  0  0  0
  8  9  1  0  0  0  0
  9 10  1  0  0  0  0
 10 11  1  0  0  0  0
 11 12  1  0  0  0  0
 12 13  1  0  0  0  0
 13 14  1  0  0  0  0
 14 15  2  0  0  0  0
 15 16  1  0  0  0  0
 16 17  1  0  0  0  0
 17 18  1  0  0  0  0
 19 18  1  0  0  0  0
 19 20  1  0  0  0  0
 16 20  1  0  0  0  0
 20 21  1  0  0  0  0
 21 22  1  0  0  0  0
 22 23  2  0  0  0  0
 15 23  1  0  0  0  0
 23 24  1  0  0  0  0
 12 24  1  0  0  0  0
  8 24  1  0  0  0  0
 10 25  2  0  0  0  0
 16 26  1  6  0  0  0
 20 27  1  1  0  0  0
 24 28  1  1  0  0  0
 11 29  1  0  0  0  0
 11 30  1  0  0  0  0
  5 19  1  0  0  0  0
  1 33  1  0  0  0  0
 12 32  1  6  0  0  0
 19 35  1  6  0  0  0
 17 36  1  6  0  0  0
M  END
>  <cdx:fragmentId>
23

$$$$
