289628.cdx
  Mrv1902 05222410262D          

 22 24  0  0  0  0            999 V2000
    9.1897   -6.6880    0.0000 O   0  0  0  0  0  0  0  0  0  0  0  0
   10.6187   -9.1630    0.0000 O   0  0  0  0  0  0  0  0  0  0  0  0
    9.1897   -9.1630    0.0000 C   0  0  0  0  0  0  0  0  0  0  0  0
    9.9042   -8.7505    0.0000 C   0  0  0  0  0  0  0  0  0  0  0  0
    9.9042   -7.9255    0.0000 C   0  0  0  0  0  0  0  0  0  0  0  0
    9.1897   -7.5130    0.0000 C   0  0  0  0  0  0  0  0  0  0  0  0
    8.4753   -7.9255    0.0000 C   0  0  0  0  0  0  0  0  0  0  0  0
    8.4753   -8.7505    0.0000 C   0  0  0  0  0  0  0  0  0  0  0  0
    5.6174  -11.2255    0.0000 O   0  0  0  0  0  0  0  0  0  0  0  0
    3.4740   -9.1630    0.0000 C   0  0  0  0  0  0  0  0  0  0  0  0
    4.1884   -8.7505    0.0000 O   0  0  0  0  0  0  0  0  0  0  0  0
    7.0463  -11.2255    0.0000 O   0  0  0  0  0  0  0  0  0  0  0  0
    7.0463   -8.7505    0.0000 O   0  0  0  0  0  0  0  0  0  0  0  0
    6.3318   -9.1630    0.0000 C   0  0  0  0  0  0  0  0  0  0  0  0
    5.6174   -8.7505    0.0000 C   0  0  0  0  0  0  0  0  0  0  0  0
    4.9029   -9.1630    0.0000 C   0  0  0  0  0  0  0  0  0  0  0  0
    4.9029   -9.9880    0.0000 C   0  0  0  0  0  0  0  0  0  0  0  0
    5.6174  -10.4005    0.0000 C   0  0  0  0  0  0  0  0  0  0  0  0
    6.3318   -9.9880    0.0000 C   0  0  0  0  0  0  0  0  0  0  0  0
    7.0463  -10.4005    0.0000 C   0  0  0  0  0  0  0  0  0  0  0  0
    7.7608   -9.9880    0.0000 C   0  0  0  0  0  0  0  0  0  0  0  0
    7.7608   -9.1630    0.0000 C   0  0  1  0  0  0  0  0  0  0  0  0
 22  8  1  6  0  0  0
  6  1  1  0  0  0  0
  4  2  1  0  0  0  0
  8  3  2  0  0  0  0
  4  3  1  0  0  0  0
  5  4  2  0  0  0  0
  6  5  1  0  0  0  0
  7  6  2  0  0  0  0
  8  7  1  0  0  0  0
 18  9  1  0  0  0  0
 16 11  1  0  0  0  0
 11 10  1  0  0  0  0
 20 12  2  0  0  0  0
 22 13  1  0  0  0  0
 14 13  1  0  0  0  0
 19 14  2  0  0  0  0
 15 14  1  0  0  0  0
 16 15  2  0  0  0  0
 17 16  1  0  0  0  0
 18 17  2  0  0  0  0
 19 18  1  0  0  0  0
 20 19  1  0  0  0  0
 21 20  1  0  0  0  0
 22 21  1  0  0  0  0
M  END
>  <cdx:fragmentId>
5

$$$$
