289780.cdx
  Mrv1902 05222410182D          

 24 27  0  0  0  0            999 V2000
    8.1533   -6.0694    0.0000 C   0  0  0  0  0  0  0  0  0  0  0  0
    8.8618   -5.6466    0.0000 C   0  0  0  0  0  0  0  0  0  0  0  0
    8.8498   -4.8217    0.0000 C   0  0  0  0  0  0  0  0  0  0  0  0
    8.1295   -4.4196    0.0000 C   0  0  0  0  0  0  0  0  0  0  0  0
    7.4211   -4.8424    0.0000 C   0  0  0  0  0  0  0  0  0  0  0  0
    6.7007   -4.4403    0.0000 C   0  0  0  0  0  0  0  0  0  0  0  0
    5.9923   -4.8631    0.0000 C   0  0  2  0  0  0  0  0  0  0  0  0
    6.0042   -5.6880    0.0000 C   0  0  1  0  0  0  0  0  0  0  0  0
    6.7246   -6.0901    0.0000 C   0  0  2  0  0  0  0  0  0  0  0  0
    7.4330   -5.6673    0.0000 C   0  0  0  0  0  0  0  0  0  0  0  0
    9.5821   -6.0488    0.0000 O   0  0  0  0  0  0  0  0  0  0  0  0
    5.2958   -6.1108    0.0000 C   0  0  0  0  0  0  0  0  0  0  0  0
    5.2719   -4.4609    0.0000 C   0  0  0  0  0  0  0  0  0  0  0  0
    9.5583   -4.3989    0.0000 O   0  0  0  0  0  0  0  0  0  0  0  0
   10.2786   -4.8011    0.0000 C   0  0  0  0  0  0  0  0  0  0  0  0
    7.4688   -8.1421    0.0000 C   0  0  0  0  0  0  0  0  0  0  0  0
    7.4569   -7.3171    0.0000 C   0  0  0  0  0  0  0  0  0  0  0  0
    6.7365   -6.9150    0.0000 C   0  0  0  0  0  0  0  0  0  0  0  0
    6.0281   -7.3378    0.0000 C   0  0  0  0  0  0  0  0  0  0  0  0
    6.7604   -8.5648    0.0000 C   0  0  0  0  0  0  0  0  0  0  0  0
    6.0400   -8.1627    0.0000 C   0  0  0  0  0  0  0  0  0  0  0  0
    5.4350   -8.7236    0.0000 O   0  0  0  0  0  0  0  0  0  0  0  0
    5.7814   -9.4723    0.0000 C   0  0  0  0  0  0  0  0  0  0  0  0
    6.6005   -9.3742    0.0000 O   0  0  0  0  0  0  0  0  0  0  0  0
 19 21  2  0  0  0  0
 16 20  2  0  0  0  0
 17 16  1  0  0  0  0
 18 17  2  0  0  0  0
 19 18  1  0  0  0  0
 24 20  1  0  0  0  0
 21 20  1  0  0  0  0
 22 21  1  0  0  0  0
 23 22  1  0  0  0  0
  1  2  1  0  0  0  0
  2  3  2  0  0  0  0
  3  4  1  0  0  0  0
  4  5  2  0  0  0  0
  5  6  1  0  0  0  0
  6  7  1  0  0  0  0
  7  8  1  0  0  0  0
  8  9  1  0  0  0  0
  9 10  1  0  0  0  0
  1 10  2  0  0  0  0
  5 10  1  0  0  0  0
  2 11  1  0  0  0  0
  8 12  1  1  0  0  0
  7 13  1  6  0  0  0
 14 15  1  0  0  0  0
  3 14  1  0  0  0  0
 24 23  1  0  0  0  0
  9 18  1  6  0  0  0
M  END
>  <cdx:fragmentId>
237827

$$$$
