101289803.cdx
  Mrv1902 05222410202D          

 18 20  0  0  0  0            999 V2000
    8.0574  -15.1557    0.0000 C   0  0  2  0  0  0  0  0  0  0  0  0
    8.0574  -14.3307    0.0000 C   0  0  1  0  0  0  0  0  0  0  0  0
    7.3429  -13.9182    0.0000 C   0  0  0  0  0  0  0  0  0  0  0  0
    6.6284  -14.3307    0.0000 C   0  0  0  0  0  0  0  0  0  0  0  0
    6.6284  -15.1557    0.0000 C   0  0  2  0  0  0  0  0  0  0  0  0
    7.3429  -15.5682    0.0000 C   0  0  1  0  0  0  0  0  0  0  0  0
    8.4188  -15.1501    0.0000 C   0  0  2  0  0  0  0  0  0  0  0  0
    8.8420  -14.0757    0.0000 C   0  0  1  0  0  0  0  0  0  0  0  0
    9.3269  -14.7432    0.0000 C   0  0  0  0  0  0  0  0  0  0  0  0
    8.8420  -15.4106    0.0000 C   0  0  0  0  0  0  0  0  0  0  0  0
    9.0008  -15.7348    0.0000 O   0  0  0  0  0  0  0  0  0  0  0  0
    5.9139  -16.3932    0.0000 C   0  0  0  0  0  0  0  0  0  0  0  0
    5.9139  -15.5682    0.0000 C   0  0  0  0  0  0  0  0  0  0  0  0
    5.1995  -15.1557    0.0000 C   0  0  0  0  0  0  0  0  0  0  0  0
    9.0969  -13.2911    0.0000 C   0  0  0  0  0  0  0  0  0  0  0  0
    8.1436  -13.5102    0.0000 C   0  0  0  0  0  0  0  0  0  0  0  0
    7.3429  -14.7432    0.0000 H   0  0  0  0  0  0  0  0  0  0  0  0
    7.3429  -16.3932    0.0000 H   0  0  0  0  0  0  0  0  0  0  0  0
  1  2  1  0  0  0  0
  2  3  1  0  0  0  0
  3  4  1  0  0  0  0
  4  5  1  0  0  0  0
  5  6  1  0  0  0  0
  6  7  1  0  0  0  0
  7  8  1  0  0  0  0
  8  9  1  0  0  0  0
  9 10  1  0  0  0  0
  1 10  1  0  0  0  0
  1  6  1  0  0  0  0
  2  8  1  0  0  0  0
  7 11  1  6  0  0  0
 12 13  1  0  0  0  0
 13 14  1  0  0  0  0
  5 13  1  6  0  0  0
  8 15  1  1  0  0  0
  2 16  1  6  0  0  0
  1 17  1  6  0  0  0
  6 18  1  6  0  0  0
M  END
>  <cdx:groupId>
237964

>  <cdx:fragmentId>
237911

$$$$
