289949.cdx
  Mrv1902 05222410192D          

 23 24  0  0  0  0            999 V2000
    6.9290   -9.5007    0.0000 C   0  0  0  0  0  0  0  0  0  0  0  0
    6.2145   -9.9132    0.0000 C   0  0  0  0  0  0  0  0  0  0  0  0
    5.5001   -9.5007    0.0000 C   0  0  0  0  0  0  0  0  0  0  0  0
    6.9290   -8.6757    0.0000 O   0  0  0  0  0  0  0  0  0  0  0  0
    7.6435   -9.9132    0.0000 N   0  0  0  0  0  0  0  0  0  0  0  0
    8.3580   -9.5007    0.0000 C   0  0  0  0  0  0  0  0  0  0  0  0
    9.0724   -9.9132    0.0000 C   0  0  0  0  0  0  0  0  0  0  0  0
    9.7869   -9.5007    0.0000 C   0  0  0  0  0  0  0  0  0  0  0  0
    9.7869   -8.6757    0.0000 C   0  0  0  0  0  0  0  0  0  0  0  0
   10.5014   -8.2632    0.0000 C   0  0  0  0  0  0  0  0  0  0  0  0
   11.2158   -8.6757    0.0000 C   0  0  0  0  0  0  0  0  0  0  0  0
   11.2158   -9.5007    0.0000 C   0  0  0  0  0  0  0  0  0  0  0  0
   10.5014   -9.9132    0.0000 C   0  0  0  0  0  0  0  0  0  0  0  0
   11.9303   -8.2632    0.0000 O   0  0  0  0  0  0  0  0  0  0  0  0
    4.7856   -9.9132    0.0000 C   0  0  0  0  0  0  0  0  0  0  0  0
    4.0711   -9.5007    0.0000 C   0  0  0  0  0  0  0  0  0  0  0  0
    3.3567   -9.9132    0.0000 C   0  0  0  0  0  0  0  0  0  0  0  0
    3.3567  -10.7382    0.0000 C   0  0  0  0  0  0  0  0  0  0  0  0
    4.0711  -11.1507    0.0000 C   0  0  0  0  0  0  0  0  0  0  0  0
    4.7856  -10.7382    0.0000 C   0  0  0  0  0  0  0  0  0  0  0  0
    2.6422  -11.1507    0.0000 O   0  0  0  0  0  0  0  0  0  0  0  0
    1.9277  -10.7382    0.0000 C   0  0  0  0  0  0  0  0  0  0  0  0
    2.6422   -9.5007    0.0000 O   0  0  0  0  0  0  0  0  0  0  0  0
  1  2  1  0  0  0  0
  2  3  2  0  0  0  0
  1  4  2  0  0  0  0
  1  5  1  0  0  0  0
  6  7  1  0  0  0  0
  8  9  1  0  0  0  0
  9 10  2  0  0  0  0
 10 11  1  0  0  0  0
 11 12  2  0  0  0  0
 12 13  1  0  0  0  0
  8 13  2  0  0  0  0
 11 14  1  0  0  0  0
  7  8  1  0  0  0  0
  5  6  1  0  0  0  0
 15 16  1  0  0  0  0
 16 17  2  0  0  0  0
 17 18  1  0  0  0  0
 18 19  2  0  0  0  0
 19 20  1  0  0  0  0
 15 20  2  0  0  0  0
 21 22  1  0  0  0  0
 18 21  1  0  0  0  0
 17 23  1  0  0  0  0
  3 15  1  0  0  0  0
M  END
>  <cdx:groupId>
69524

>  <cdx:fragmentId>
69471

$$$$
