290.cdx
  Mrv1902 05222410272D          

 10 10  0  0  0  0            999 V2000
    6.7857   -9.3206    0.0000 C   0  0  0  0  0  0  0  0  0  0  0  0
    6.7915   -8.4956    0.0000 C   0  0  0  0  0  0  0  0  0  0  0  0
    6.0800   -8.0781    0.0000 C   0  0  0  0  0  0  0  0  0  0  0  0
    5.3626   -8.4855    0.0000 C   0  0  0  0  0  0  0  0  0  0  0  0
    5.3568   -9.3105    0.0000 C   0  0  0  0  0  0  0  0  0  0  0  0
    6.0683   -9.7280    0.0000 C   0  0  0  0  0  0  0  0  0  0  0  0
    7.5089   -8.0882    0.0000 C   0  0  0  0  0  0  0  0  0  0  0  0
    8.2146   -9.3307    0.0000 O   0  0  0  0  0  0  0  0  0  0  0  0
    8.9378   -8.0983    0.0000 O   0  0  0  0  0  0  0  0  0  0  0  0
    8.2204   -8.5058    0.0000 C   0  0  0  0  0  0  0  0  0  0  0  0
  1  2  1  0  0  0  0
  2  3  2  0  0  0  0
  3  4  1  0  0  0  0
  4  5  2  0  0  0  0
  5  6  1  0  0  0  0
  6  1  2  0  0  0  0
  2  7  1  0  0  0  0
 10  8  2  0  0  0  0
  7 10  1  0  0  0  0
 10  9  1  0  0  0  0
M  END
>  <cdx:fragmentId>
5

$$$$
