29008.cdx
  Mrv1902 05222410232D          

 23 22  0  0  0  0            999 V2000
    1.9196   -8.6977    0.0000 C   0  0  0  0  0  0  0  0  0  0  0  0
    2.6340   -8.2852    0.0000 C   0  0  0  0  0  0  0  0  0  0  0  0
    3.3485   -8.6977    0.0000 O   0  0  0  0  0  0  0  0  0  0  0  0
    4.0630   -7.4602    0.0000 O   0  0  0  0  0  0  0  0  0  0  0  0
   16.9234   -8.2852    0.0000 C   0  0  0  0  0  0  0  0  0  0  0  0
   16.2090   -8.6977    0.0000 C   0  0  0  0  0  0  0  0  0  0  0  0
   15.4945   -8.2852    0.0000 C   0  0  0  0  0  0  0  0  0  0  0  0
   14.7800   -8.6977    0.0000 C   0  0  0  0  0  0  0  0  0  0  0  0
   14.0656   -8.2852    0.0000 C   0  0  0  0  0  0  0  0  0  0  0  0
   13.3511   -8.6977    0.0000 C   0  0  0  0  0  0  0  0  0  0  0  0
   12.6366   -8.2852    0.0000 C   0  0  0  0  0  0  0  0  0  0  0  0
   11.9221   -8.6977    0.0000 C   0  0  0  0  0  0  0  0  0  0  0  0
   11.2077   -8.2852    0.0000 C   0  0  0  0  0  0  0  0  0  0  0  0
   10.4932   -8.6977    0.0000 C   0  0  0  0  0  0  0  0  0  0  0  0
    9.7787   -8.2852    0.0000 C   0  0  0  0  0  0  0  0  0  0  0  0
    9.0643   -8.6977    0.0000 C   0  0  0  0  0  0  0  0  0  0  0  0
    8.3498   -8.2852    0.0000 C   0  0  0  0  0  0  0  0  0  0  0  0
    7.6353   -8.6977    0.0000 C   0  0  0  0  0  0  0  0  0  0  0  0
    6.9209   -8.2852    0.0000 C   0  0  0  0  0  0  0  0  0  0  0  0
    6.2064   -8.6977    0.0000 C   0  0  0  0  0  0  0  0  0  0  0  0
    5.4919   -8.2852    0.0000 C   0  0  0  0  0  0  0  0  0  0  0  0
    4.7774   -8.6977    0.0000 C   0  0  0  0  0  0  0  0  0  0  0  0
    4.0630   -8.2852    0.0000 C   0  0  0  0  0  0  0  0  0  0  0  0
  3  2  1  0  0  0  0
  2  1  1  0  0  0  0
 23  3  1  0  0  0  0
 23  4  2  0  0  0  0
  6  5  1  0  0  0  0
  7  6  1  0  0  0  0
  8  7  1  0  0  0  0
  9  8  1  0  0  0  0
 10  9  1  0  0  0  0
 11 10  1  0  0  0  0
 12 11  1  0  0  0  0
 13 12  1  0  0  0  0
 14 13  1  0  0  0  0
 15 14  1  0  0  0  0
 16 15  1  0  0  0  0
 17 16  1  0  0  0  0
 18 17  1  0  0  0  0
 19 18  1  0  0  0  0
 20 19  1  0  0  0  0
 21 20  1  0  0  0  0
 22 21  1  0  0  0  0
 23 22  1  0  0  0  0
M  END
>  <cdx:groupId>
70

>  <cdx:fragmentId>
5

$$$$
