2901.cdx
  Mrv1902 05222410252D          

 22 23  0  0  0  0            999 V2000
    3.7983   -7.6725    0.0000 C   0  0  0  0  0  0  0  0  0  0  0  0
    3.7983   -8.4975    0.0000 C   0  0  0  0  0  0  0  0  0  0  0  0
    4.5127   -8.9100    0.0000 C   0  0  2  0  0  0  0  0  0  0  0  0
    5.2272   -8.4975    0.0000 C   0  0  0  0  0  0  0  0  0  0  0  0
    5.2272   -7.6725    0.0000 C   0  0  2  0  0  0  0  0  0  0  0  0
    4.5127   -7.2600    0.0000 C   0  0  0  0  0  0  0  0  0  0  0  0
    5.9417   -8.9100    0.0000 C   0  0  0  0  0  0  0  0  0  0  0  0
    6.6562   -8.4975    0.0000 C   0  0  0  0  0  0  0  0  0  0  0  0
    6.6562   -7.6725    0.0000 C   0  0  0  0  0  0  0  0  0  0  0  0
    5.9417   -7.2600    0.0000 C   0  0  2  0  0  0  0  0  0  0  0  0
    5.2272   -6.8475    0.0000 C   0  0  0  0  0  0  0  0  0  0  0  0
    5.9417   -6.4350    0.0000 C   0  0  0  0  0  0  0  0  0  0  0  0
    4.9252   -9.6245    0.0000 C   0  0  0  0  0  0  0  0  0  0  0  0
    3.2752   -9.6245    0.0000 O   0  0  0  0  0  0  0  0  0  0  0  0
    4.5127  -10.3389    0.0000 O   0  0  0  0  0  0  0  0  0  0  0  0
    4.1002   -9.6245    0.0000 C   0  0  0  0  0  0  0  0  0  0  0  0
    7.3706   -7.2600    0.0000 C   0  0  0  0  0  0  0  0  0  0  0  0
    6.6562   -6.0225    0.0000 C   0  0  0  0  0  0  0  0  0  0  0  0
    6.6562   -5.1975    0.0000 C   0  0  0  0  0  0  0  0  0  0  0  0
    5.9417   -4.7850    0.0000 C   0  0  0  0  0  0  0  0  0  0  0  0
    7.3706   -4.7850    0.0000 C   0  0  0  0  0  0  0  0  0  0  0  0
    7.3706   -3.9600    0.0000 O   0  0  0  0  0  0  0  0  0  0  0  0
  1  2  1  0  0  0  0
  2  3  1  0  0  0  0
  3  4  1  0  0  0  0
  4  5  1  0  0  0  0
  5  6  1  0  0  0  0
  6  1  1  0  0  0  0
  4  7  1  0  0  0  0
  7  8  1  0  0  0  0
  8  9  1  0  0  0  0
  9 10  1  0  0  0  0
 10  5  1  0  0  0  0
 16 14  2  0  0  0  0
  3 16  1  1  0  0  0
  5 11  1  1  0  0  0
 10 12  1  1  0  0  0
  3 13  1  6  0  0  0
 16 15  1  0  0  0  0
  9 17  2  0  0  0  0
 12 18  1  0  0  0  0
 18 19  2  0  0  0  0
 19 20  1  0  0  0  0
 19 21  1  0  0  0  0
 21 22  2  0  0  0  0
M  END
>  <cdx:fragmentId>
5

$$$$
