29036.cdx
  Mrv1902 05222410242D          

 21 20  0  0  0  0            999 V2000
   12.1994   -2.4877    0.0000 C   0  0  0  0  0  0  0  0  0  0  0  0
   12.1994   -3.3127    0.0000 C   0  0  0  0  0  0  0  0  0  0  0  0
   11.4850   -3.7252    0.0000 C   0  0  0  0  0  0  0  0  0  0  0  0
   10.7705   -3.3127    0.0000 C   0  0  0  0  0  0  0  0  0  0  0  0
   10.0560   -3.7252    0.0000 C   0  0  0  0  0  0  0  0  0  0  0  0
    9.3415   -3.3127    0.0000 C   0  0  0  0  0  0  0  0  0  0  0  0
    8.6271   -3.7252    0.0000 C   0  0  0  0  0  0  0  0  0  0  0  0
    7.9126   -3.3127    0.0000 C   0  0  0  0  0  0  0  0  0  0  0  0
    7.1981   -3.7252    0.0000 C   0  0  0  0  0  0  0  0  0  0  0  0
    6.4837   -3.3127    0.0000 C   0  0  0  0  0  0  0  0  0  0  0  0
    5.7692   -3.7252    0.0000 C   0  0  0  0  0  0  0  0  0  0  0  0
    5.0547   -3.3127    0.0000 C   0  0  0  0  0  0  0  0  0  0  0  0
    4.3402   -3.7252    0.0000 C   0  0  0  0  0  0  0  0  0  0  0  0
    3.6258   -3.3127    0.0000 C   0  0  0  0  0  0  0  0  0  0  0  0
    2.9113   -3.7252    0.0000 C   0  0  0  0  0  0  0  0  0  0  0  0
    2.1968   -3.3127    0.0000 C   0  0  0  0  0  0  0  0  0  0  0  0
    1.4824   -3.7252    0.0000 C   0  0  0  0  0  0  0  0  0  0  0  0
    3.6258   -2.4877    0.0000 C   0  0  0  0  0  0  0  0  0  0  0  0
    6.4837   -2.4877    0.0000 C   0  0  0  0  0  0  0  0  0  0  0  0
    9.3415   -2.4877    0.0000 C   0  0  0  0  0  0  0  0  0  0  0  0
   12.9139   -3.7252    0.0000 C   0  0  0  0  0  0  0  0  0  0  0  0
  1  2  1  0  0  0  0
  2  3  1  0  0  0  0
  3  4  1  0  0  0  0
  4  5  1  0  0  0  0
  5  6  1  0  0  0  0
  6  7  1  0  0  0  0
  7  8  1  0  0  0  0
  8  9  1  0  0  0  0
  9 10  1  0  0  0  0
 10 11  1  0  0  0  0
 11 12  1  0  0  0  0
 12 13  1  0  0  0  0
 13 14  1  0  0  0  0
 14 15  1  0  0  0  0
 15 16  1  0  0  0  0
 16 17  1  0  0  0  0
 14 18  1  0  0  0  0
 10 19  1  0  0  0  0
  6 20  1  0  0  0  0
  2 21  1  0  0  0  0
M  END
>  <cdx:groupId>
64

>  <cdx:fragmentId>
5

$$$$
