29096.cdx
  Mrv1902 05222410272D          

 11 10  0  0  0  0            999 V2000
    7.7765  -10.7361    0.0000 C   0  0  0  0  0  0  0  0  0  0  0  0
    8.1890  -11.4506    0.0000 C   0  0  0  0  0  0  0  0  0  0  0  0
    7.4746  -11.8631    0.0000 C   0  0  0  0  0  0  0  0  0  0  0  0
    6.7601  -11.4506    0.0000 C   0  0  0  0  0  0  0  0  0  0  0  0
    6.0456  -11.8631    0.0000 C   0  0  0  0  0  0  0  0  0  0  0  0
    5.3311  -11.4506    0.0000 C   0  0  0  0  0  0  0  0  0  0  0  0
    4.6167  -11.8631    0.0000 C   0  0  0  0  0  0  0  0  0  0  0  0
    3.9022  -11.4506    0.0000 C   0  0  0  0  0  0  0  0  0  0  0  0
    8.9035  -11.0381    0.0000 O   0  0  0  0  0  0  0  0  0  0  0  0
    5.3311  -10.6256    0.0000 C   0  0  0  0  0  0  0  0  0  0  0  0
    8.6015  -12.1651    0.0000 C   0  0  0  0  0  0  0  0  0  0  0  0
  1  2  1  0  0  0  0
  2  3  1  0  0  0  0
  3  4  1  0  0  0  0
  4  5  1  0  0  0  0
  5  6  1  0  0  0  0
  6  7  1  0  0  0  0
  7  8  2  0  0  0  0
  2  9  1  0  0  0  0
  6 10  1  0  0  0  0
  2 11  1  0  0  0  0
M  END
>  <cdx:fragmentId>
8552

$$$$
