291.cdx
  Mrv1902 05222410272D          

 10  9  0  0  0  0            999 V2000
    5.5573   -9.3459    0.0000 C   0  0  0  0  0  0  0  0  0  0  0  0
    6.2718   -8.9334    0.0000 C   0  0  0  0  0  0  0  0  0  0  0  0
    6.9863   -9.3459    0.0000 C   0  0  0  0  0  0  0  0  0  0  0  0
    7.7007   -8.9334    0.0000 C   0  0  0  0  0  0  0  0  0  0  0  0
    8.4152   -9.3459    0.0000 C   0  0  0  0  0  0  0  0  0  0  0  0
    9.1297   -8.9334    0.0000 C   0  0  0  0  0  0  0  0  0  0  0  0
    8.7172   -8.2189    0.0000 C   0  0  0  0  0  0  0  0  0  0  0  0
    4.8428   -8.9334    0.0000 O   0  0  0  0  0  0  0  0  0  0  0  0
    9.8441   -8.5209    0.0000 O   0  0  0  0  0  0  0  0  0  0  0  0
    9.5422   -9.6479    0.0000 C   0  0  0  0  0  0  0  0  0  0  0  0
  1  2  1  0  0  0  0
  2  3  1  0  0  0  0
  3  4  1  0  0  0  0
  4  5  1  0  0  0  0
  5  6  1  0  0  0  0
  6  7  1  0  0  0  0
  1  8  1  0  0  0  0
  6  9  1  0  0  0  0
  6 10  1  0  0  0  0
M  END
>  <cdx:fragmentId>
3

$$$$
