291003.cdx
  Mrv1902 05222410242D          

 25 27  0  0  0  0            999 V2000
    7.7376   -5.6307    0.0000 O   0  0  0  0  0  0  0  0  0  0  0  0
   10.5955   -5.6271    0.0000 O   0  0  0  0  0  0  0  0  0  0  0  0
    9.1686   -7.2789    0.0000 C   0  0  0  0  0  0  0  0  0  0  0  0
    9.8826   -6.8655    0.0000 C   0  0  0  0  0  0  0  0  0  0  0  0
    9.8816   -6.0405    0.0000 C   0  0  0  0  0  0  0  0  0  0  0  0
    9.1666   -5.6289    0.0000 C   0  0  0  0  0  0  0  0  0  0  0  0
    8.4526   -6.0423    0.0000 C   0  0  0  0  0  0  0  0  0  0  0  0
    8.4537   -6.8673    0.0000 C   0  0  0  0  0  0  0  0  0  0  0  0
    4.1668   -6.8727    0.0000 O   0  0  0  0  0  0  0  0  0  0  0  0
    4.1637   -4.3977    0.0000 C   0  0  0  0  0  0  0  0  0  0  0  0
    5.5927   -4.3959    0.0000 C   0  0  0  0  0  0  0  0  0  0  0  0
    4.8787   -4.8093    0.0000 C   0  0  0  0  0  0  0  0  0  0  0  0
    4.8797   -5.6343    0.0000 C   0  0  0  0  0  0  0  0  0  0  0  0
    5.5947   -6.0459    0.0000 C   0  0  0  0  0  0  0  0  0  0  0  0
    7.0278   -9.3441    0.0000 O   0  0  0  0  0  0  0  0  0  0  0  0
    7.0247   -6.8691    0.0000 O   0  0  0  0  0  0  0  0  0  0  0  0
    6.3108   -7.2825    0.0000 C   0  0  0  0  0  0  0  0  0  0  0  0
    5.5958   -6.8709    0.0000 C   0  0  0  0  0  0  0  0  0  0  0  0
    4.8818   -7.2843    0.0000 C   0  0  0  0  0  0  0  0  0  0  0  0
    4.8829   -8.1093    0.0000 C   0  0  0  0  0  0  0  0  0  0  0  0
    5.5979   -8.5209    0.0000 C   0  0  0  0  0  0  0  0  0  0  0  0
    6.3118   -8.1075    0.0000 C   0  0  0  0  0  0  0  0  0  0  0  0
    7.0268   -8.5191    0.0000 C   0  0  0  0  0  0  0  0  0  0  0  0
    7.7407   -8.1057    0.0000 C   0  0  0  0  0  0  0  0  0  0  0  0
    7.7397   -7.2807    0.0000 C   0  0  0  0  0  0  0  0  0  0  0  0
 25  8  1  0  0  0  0
  7  1  1  0  0  0  0
  5  2  1  0  0  0  0
  8  3  2  0  0  0  0
  4  3  1  0  0  0  0
  5  4  2  0  0  0  0
  6  5  1  0  0  0  0
  7  6  2  0  0  0  0
  8  7  1  0  0  0  0
 19  9  1  0  0  0  0
 18 14  1  0  0  0  0
 12 10  1  0  0  0  0
 12 11  1  0  0  0  0
 13 12  2  0  0  0  0
 14 13  1  0  0  0  0
 23 15  2  0  0  0  0
 25 16  1  0  0  0  0
 17 16  1  0  0  0  0
 22 17  2  0  0  0  0
 18 17  1  0  0  0  0
 19 18  2  0  0  0  0
 20 19  1  0  0  0  0
 21 20  2  0  0  0  0
 22 21  1  0  0  0  0
 23 22  1  0  0  0  0
 24 23  1  0  0  0  0
 25 24  1  0  0  0  0
M  END
>  <cdx:fragmentId>
44306

$$$$
