2913.cdx
  Mrv1902 05222410232D          

 43 46  0  0  0  0            999 V2000
   11.5322   -9.5695    0.0000 C   0  0  0  0  0  0  0  0  0  0  0  0
   10.8178   -9.9820    0.0000 C   0  0  0  0  0  0  0  0  0  0  0  0
   10.8178  -10.8070    0.0000 C   0  0  1  0  0  0  0  0  0  0  0  0
   11.5322  -11.2195    0.0000 C   0  0  2  0  0  0  0  0  0  0  0  0
   12.2467  -10.8070    0.0000 C   0  0  2  0  0  0  0  0  0  0  0  0
   12.9612  -11.2195    0.0000 C   0  0  0  0  0  0  0  0  0  0  0  0
   13.6756  -10.8070    0.0000 C   0  0  0  0  0  0  0  0  0  0  0  0
   13.6756   -9.9820    0.0000 C   0  0  0  0  0  0  0  0  0  0  0  0
   14.3901   -9.5695    0.0000 C   0  0  2  0  0  0  0  0  0  0  0  0
   15.1747   -9.8245    0.0000 C   0  0  0  0  0  0  0  0  0  0  0  0
   15.6597   -9.1570    0.0000 C   0  0  2  0  0  0  0  0  0  0  0  0
   15.1747   -8.4896    0.0000 C   0  0  1  0  0  0  0  0  0  0  0  0
   14.3901   -8.7445    0.0000 C   0  0  1  0  0  0  0  0  0  0  0  0
   13.6756   -8.3320    0.0000 C   0  0  0  0  0  0  0  0  0  0  0  0
   12.9612   -8.7445    0.0000 C   0  0  0  0  0  0  0  0  0  0  0  0
   12.9612   -9.5695    0.0000 C   0  0  0  0  0  0  0  0  0  0  0  0
   12.2467   -9.9820    0.0000 C   0  0  1  0  0  0  0  0  0  0  0  0
   14.3901  -10.3945    0.0000 C   0  0  0  0  0  0  0  0  0  0  0  0
   14.3901   -7.9195    0.0000 C   0  0  0  0  0  0  0  0  0  0  0  0
   12.2467   -9.1570    0.0000 C   0  0  0  0  0  0  0  0  0  0  0  0
   11.9447  -11.9340    0.0000 C   0  0  0  0  0  0  0  0  0  0  0  0
   11.1197  -11.9340    0.0000 C   0  0  0  0  0  0  0  0  0  0  0  0
   16.4847   -9.1570    0.0000 O   0  0  0  0  0  0  0  0  0  0  0  0
   10.1033  -11.2195    0.0000 O   0  0  0  0  0  0  0  0  0  0  0  0
    9.3888  -10.8070    0.0000 C   0  0  0  0  0  0  0  0  0  0  0  0
    9.3888   -9.9820    0.0000 O   0  0  0  0  0  0  0  0  0  0  0  0
    8.6743  -11.2195    0.0000 C   0  0  0  0  0  0  0  0  0  0  0  0
   12.2467  -11.6320    0.0000 H   0  0  0  0  0  0  0  0  0  0  0  0
   15.4297   -7.7050    0.0000 C   0  0  2  0  0  0  0  0  0  0  0  0
   14.8776   -7.0919    0.0000 C   0  0  0  0  0  0  0  0  0  0  0  0
   16.2366   -7.5334    0.0000 C   0  0  0  0  0  0  0  0  0  0  0  0
   16.4916   -6.7488    0.0000 C   0  0  0  0  0  0  0  0  0  0  0  0
   17.2986   -6.5773    0.0000 C   0  0  0  0  0  0  0  0  0  0  0  0
   17.5535   -5.7927    0.0000 C   0  0  0  0  0  0  0  0  0  0  0  0
   17.0015   -5.1796    0.0000 C   0  0  0  0  0  0  0  0  0  0  0  0
   18.3605   -5.6211    0.0000 C   0  0  0  0  0  0  0  0  0  0  0  0
   15.1326   -6.3072    0.0000 O   0  0  0  0  0  0  0  0  0  0  0  0
   14.0707   -7.2634    0.0000 O   0  0  0  0  0  0  0  0  0  0  0  0
   15.9594   -8.2346    0.0000 H   0  0  0  0  0  0  0  0  0  0  0  0
   17.8506   -7.1904    0.0000 C   0  0  0  0  0  0  0  0  0  0  0  0
   16.8972   -9.8715    0.0000 C   0  0  0  0  0  0  0  0  0  0  0  0
   16.4847  -10.5860    0.0000 O   0  0  0  0  0  0  0  0  0  0  0  0
   17.7222   -9.8715    0.0000 C   0  0  0  0  0  0  0  0  0  0  0  0
  1  2  1  0  0  0  0
  2  3  1  0  0  0  0
  3  4  1  0  0  0  0
  4  5  1  0  0  0  0
  5  6  1  0  0  0  0
  6  7  1  0  0  0  0
  7  8  1  0  0  0  0
  8  9  1  0  0  0  0
  9 10  1  0  0  0  0
 10 11  1  0  0  0  0
 12 11  1  0  0  0  0
 12 13  1  0  0  0  0
  9 13  1  0  0  0  0
 13 14  1  0  0  0  0
 14 15  1  0  0  0  0
 15 16  1  0  0  0  0
  8 16  2  0  0  0  0
 16 17  1  0  0  0  0
  5 17  1  0  0  0  0
  1 17  1  0  0  0  0
  9 18  1  6  0  0  0
 13 19  1  1  0  0  0
 17 20  1  1  0  0  0
  4 21  1  6  0  0  0
  4 22  1  1  0  0  0
 11 23  1  6  0  0  0
 25 26  2  0  0  0  0
 25 27  1  0  0  0  0
 24 25  1  0  0  0  0
  3 24  1  1  0  0  0
  5 28  1  6  0  0  0
 12 29  1  0  0  0  0
 29 30  1  0  0  0  0
 29 31  1  6  0  0  0
 31 32  1  0  0  0  0
 32 33  1  0  0  0  0
 33 34  1  0  0  0  0
 34 35  1  0  0  0  0
 34 36  1  0  0  0  0
 30 37  2  0  0  0  0
 30 38  1  0  0  0  0
 12 39  1  6  0  0  0
 33 40  2  0  0  0  0
 23 41  1  0  0  0  0
 41 42  2  0  0  0  0
 41 43  1  0  0  0  0
M  END
>  <cdx:groupId>
4699

>  <cdx:fragmentId>
4604

$$$$
