29140.cdx
  Mrv1902 05222410232D          

 59 62  0  0  0  0            999 V2000
    7.4075  -11.8810    0.0000 N   0  0  0  0  0  0  0  0  0  0  0  0
    7.8357  -11.1758    0.0000 C   0  0  0  0  0  0  0  0  0  0  0  0
    8.6605  -11.1941    0.0000 C   0  0  2  0  0  0  0  0  0  0  0  0
    9.1988  -11.8193    0.0000 C   0  0  0  0  0  0  0  0  0  0  0  0
    9.9598  -11.5005    0.0000 C   0  0  0  0  0  0  0  0  0  0  0  0
    9.8917  -10.6783    0.0000 C   0  0  0  0  0  0  0  0  0  0  0  0
    9.0888  -10.4889    0.0000 N   0  0  0  0  0  0  0  0  0  0  0  0
    8.6922   -9.7655    0.0000 C   0  0  0  0  0  0  0  0  0  0  0  0
    9.1204   -9.0603    0.0000 C   0  0  1  0  0  0  0  0  0  0  0  0
    8.7239   -8.3369    0.0000 N   0  0  0  0  0  0  0  0  0  0  0  0
    9.1521   -7.6318    0.0000 C   0  0  0  0  0  0  0  0  0  0  0  0
    8.7555   -6.9083    0.0000 C   0  0  1  0  0  0  0  0  0  0  0  0
    7.9307   -6.8900    0.0000 N   0  0  0  0  0  0  0  0  0  0  0  0
    7.5342   -6.1666    0.0000 C   0  0  0  0  0  0  0  0  0  0  0  0
    6.7094   -6.1483    0.0000 C   0  0  1  0  0  0  0  0  0  0  0  0
    6.2811   -6.8535    0.0000 N   0  0  0  0  0  0  0  0  0  0  0  0
    5.4563   -6.8352    0.0000 C   0  0  0  0  0  0  0  0  0  0  0  0
    5.0281   -7.5403    0.0000 C   0  0  0  0  0  0  0  0  0  0  0  0
    4.2033   -7.5220    0.0000 N   0  0  0  0  0  0  0  0  0  0  0  0
    3.7751   -8.2272    0.0000 C   0  0  0  0  0  0  0  0  0  0  0  0
    4.1716   -8.9506    0.0000 C   0  0  0  0  0  0  0  0  0  0  0  0
    4.9964   -8.9689    0.0000 N   0  0  0  0  0  0  0  0  0  0  0  0
    5.3930   -9.6924    0.0000 C   0  0  0  0  0  0  0  0  0  0  0  0
    4.9648  -10.3975    0.0000 C   0  0  1  0  0  0  0  0  0  0  0  0
    5.3613  -11.1210    0.0000 N   0  0  0  0  0  0  0  0  0  0  0  0
    6.1861  -11.1392    0.0000 C   0  0  0  0  0  0  0  0  0  0  0  0
    6.5827  -11.8627    0.0000 C   0  0  2  0  0  0  0  0  0  0  0  0
    6.3104  -12.6415    0.0000 C   0  0  0  0  0  0  0  0  0  0  0  0
    6.9670  -13.1410    0.0000 C   0  0  0  0  0  0  0  0  0  0  0  0
    7.6450  -12.6710    0.0000 C   0  0  0  0  0  0  0  0  0  0  0  0
    7.4392  -10.4524    0.0000 O   0  0  0  0  0  0  0  0  0  0  0  0
    7.8674   -9.7472    0.0000 O   0  0  0  0  0  0  0  0  0  0  0  0
    9.9769   -7.6500    0.0000 O   0  0  0  0  0  0  0  0  0  0  0  0
    7.9624   -5.4614    0.0000 O   0  0  0  0  0  0  0  0  0  0  0  0
    5.0598   -6.1117    0.0000 O   0  0  0  0  0  0  0  0  0  0  0  0
    2.9503   -8.2089    0.0000 O   0  0  0  0  0  0  0  0  0  0  0  0
    6.2178   -9.7106    0.0000 O   0  0  0  0  0  0  0  0  0  0  0  0
    6.6144  -10.4341    0.0000 O   0  0  0  0  0  0  0  0  0  0  0  0
    6.3128   -5.4249    0.0000 C   0  0  0  0  0  0  0  0  0  0  0  0
    6.7410   -4.7197    0.0000 C   0  0  0  0  0  0  0  0  0  0  0  0
    7.5658   -4.7380    0.0000 C   0  0  0  0  0  0  0  0  0  0  0  0
    6.3445   -3.9963    0.0000 C   0  0  0  0  0  0  0  0  0  0  0  0
    9.1838   -6.2032    0.0000 C   0  0  0  0  0  0  0  0  0  0  0  0
   10.0086   -6.2214    0.0000 C   0  0  0  0  0  0  0  0  0  0  0  0
   10.4051   -6.9449    0.0000 C   0  0  0  0  0  0  0  0  0  0  0  0
   10.4368   -5.5163    0.0000 C   0  0  0  0  0  0  0  0  0  0  0  0
   10.1927   -9.0841    0.0000 C   0  0  0  0  0  0  0  0  0  0  0  0
   10.7494   -8.1674    0.0000 C   0  0  0  0  0  0  0  0  0  0  0  0
   10.3528   -7.4440    0.0000 C   0  0  0  0  0  0  0  0  0  0  0  0
   11.5742   -8.1857    0.0000 C   0  0  0  0  0  0  0  0  0  0  0  0
    4.1400  -10.3792    0.0000 C   0  0  0  0  0  0  0  0  0  0  0  0
    3.7117  -11.0844    0.0000 C   0  0  0  0  0  0  0  0  0  0  0  0
    2.8869  -11.0661    0.0000 C   0  0  0  0  0  0  0  0  0  0  0  0
    2.4587  -11.7713    0.0000 C   0  0  0  0  0  0  0  0  0  0  0  0
    2.8553  -12.4947    0.0000 C   0  0  0  0  0  0  0  0  0  0  0  0
    3.6801  -12.5130    0.0000 C   0  0  0  0  0  0  0  0  0  0  0  0
    4.1083  -11.8078    0.0000 C   0  0  0  0  0  0  0  0  0  0  0  0
    8.3084  -11.9401    0.0000 H   0  0  0  0  0  0  0  0  0  0  0  0
    5.7605  -11.9307    0.0000 H   0  0  0  0  0  0  0  0  0  0  0  0
  1  2  1  0  0  0  0
  2  3  1  0  0  0  0
  3  4  1  0  0  0  0
  4  5  1  0  0  0  0
  5  6  1  0  0  0  0
  6  7  1  0  0  0  0
  7  8  1  0  0  0  0
  8  9  1  0  0  0  0
  9 10  1  0  0  0  0
 10 11  1  0  0  0  0
 11 12  1  0  0  0  0
 12 13  1  0  0  0  0
 13 14  1  0  0  0  0
 14 15  1  0  0  0  0
 15 16  1  0  0  0  0
 16 17  1  0  0  0  0
 17 18  1  0  0  0  0
 18 19  1  0  0  0  0
 19 20  1  0  0  0  0
 20 21  1  0  0  0  0
 21 22  1  0  0  0  0
 22 23  1  0  0  0  0
 23 24  1  0  0  0  0
 24 25  1  0  0  0  0
 25 26  1  0  0  0  0
 26 27  1  0  0  0  0
 27 28  1  0  0  0  0
 28 29  1  0  0  0  0
 29 30  1  0  0  0  0
  1 30  1  0  0  0  0
  1 27  1  0  0  0  0
  3  7  1  0  0  0  0
  2 31  2  0  0  0  0
  8 32  2  0  0  0  0
 11 33  2  0  0  0  0
 14 34  2  0  0  0  0
 17 35  2  0  0  0  0
 20 36  2  0  0  0  0
 23 37  2  0  0  0  0
 26 38  2  0  0  0  0
 39 40  1  0  0  0  0
 40 41  1  0  0  0  0
 40 42  1  0  0  0  0
 15 39  1  1  0  0  0
 43 44  1  0  0  0  0
 44 45  1  0  0  0  0
 44 46  1  0  0  0  0
 12 43  1  1  0  0  0
 47 48  1  0  0  0  0
 48 49  1  0  0  0  0
 48 50  1  0  0  0  0
  9 47  1  1  0  0  0
 51 52  1  0  0  0  0
 52 53  1  0  0  0  0
 53 54  2  0  0  0  0
 54 55  1  0  0  0  0
 55 56  2  0  0  0  0
 56 57  1  0  0  0  0
 52 57  2  0  0  0  0
 24 51  1  1  0  0  0
  3 58  1  6  0  0  0
 27 59  1  6  0  0  0
M  END
>  <cdx:fragmentId>
5

$$$$
