1,2,6-hexanetriol.cdx
  Mrv1902 05222410262D          

  9  8  0  0  0  0            999 V2000
    4.6934   -8.6599    0.0000 O   0  0  0  0  0  0  0  0  0  0  0  0
    5.4078   -8.2474    0.0000 C   0  0  0  0  0  0  0  0  0  0  0  0
    6.1223   -8.6599    0.0000 C   0  0  0  0  0  0  0  0  0  0  0  0
    6.8368   -8.2474    0.0000 C   0  0  0  0  0  0  0  0  0  0  0  0
    7.5512   -8.6599    0.0000 C   0  0  0  0  0  0  0  0  0  0  0  0
    8.2657   -8.2474    0.0000 C   0  0  0  0  0  0  0  0  0  0  0  0
    8.9802   -8.6599    0.0000 C   0  0  0  0  0  0  0  0  0  0  0  0
    9.6946   -8.2474    0.0000 O   0  0  0  0  0  0  0  0  0  0  0  0
    6.1223   -9.4849    0.0000 O   0  0  0  0  0  0  0  0  0  0  0  0
  1  2  1  0  0  0  0
  2  3  1  0  0  0  0
  3  4  1  0  0  0  0
  4  5  1  0  0  0  0
  5  6  1  0  0  0  0
  6  7  1  0  0  0  0
  7  8  1  0  0  0  0
  3  9  1  0  0  0  0
M  END
>  <cdx:fragmentId>
3

$$$$
