2921.cdx
  Mrv1902 05222410222D          

 38 41  0  0  0  0            999 V2000
    6.2980   -6.0775    0.0000 C   0  0  1  0  0  0  0  0  0  0  0  0
    6.2980   -6.9025    0.0000 C   0  0  1  0  0  0  0  0  0  0  0  0
    7.0125   -7.3150    0.0000 C   0  0  2  0  0  0  0  0  0  0  0  0
    7.7270   -6.9025    0.0000 C   0  0  1  0  0  0  0  0  0  0  0  0
    7.7270   -6.0775    0.0000 C   0  0  1  0  0  0  0  0  0  0  0  0
    7.0125   -5.6650    0.0000 C   0  0  0  0  0  0  0  0  0  0  0  0
    7.0125   -4.8400    0.0000 C   0  0  0  0  0  0  0  0  0  0  0  0
    5.5836   -5.6650    0.0000 O   0  0  0  0  0  0  0  0  0  0  0  0
    8.4414   -5.6650    0.0000 C   0  0  0  0  0  0  0  0  0  0  0  0
    5.5011   -7.1160    0.0000 C   0  0  0  0  0  0  0  0  0  0  0  0
    7.0125   -8.1400    0.0000 C   0  0  2  0  0  0  0  0  0  0  0  0
    7.7270   -8.5525    0.0000 O   0  0  0  0  0  0  0  0  0  0  0  0
    6.2980   -8.5525    0.0000 C   0  0  0  0  0  0  0  0  0  0  0  0
    5.5836   -8.1400    0.0000 C   0  0  0  0  0  0  0  0  0  0  0  0
    4.8691   -8.5525    0.0000 C   0  0  1  0  0  0  0  0  0  0  0  0
    4.0975   -8.2225    0.0000 C   0  0  0  0  0  0  0  0  0  0  0  0
    4.9225   -6.6550    0.0000 C   0  0  0  0  0  0  0  0  0  0  0  0
    4.0975   -6.9300    0.0000 C   0  0  0  0  0  0  0  0  0  0  0  0
    3.8587   -7.5421    0.0000 C   0  0  2  0  0  0  0  0  0  0  0  0
    3.0338   -7.5279    0.0000 C   0  0  0  0  0  0  0  0  0  0  0  0
    4.4566   -9.2670    0.0000 O   0  0  0  0  0  0  0  0  0  0  0  0
    5.2816   -9.2670    0.0000 C   0  0  0  0  0  0  0  0  0  0  0  0
    7.7270   -9.3775    0.0000 C   0  0  0  0  0  0  0  0  0  0  0  0
    8.4414   -9.7900    0.0000 C   0  0  0  0  0  0  0  0  0  0  0  0
    7.0125   -9.7900    0.0000 O   0  0  0  0  0  0  0  0  0  0  0  0
    7.5959   -7.8984    0.0000 C   0  0  0  0  0  0  0  0  0  0  0  0
    7.3823   -8.6953    0.0000 O   0  0  0  0  0  0  0  0  0  0  0  0
    8.3928   -7.6848    0.0000 N   0  0  0  0  0  0  0  0  0  0  0  0
    8.4414   -7.3150    0.0000 C   0  0  1  0  0  0  0  0  0  0  0  0
    9.1559   -6.9025    0.0000 C   0  0  0  0  0  0  0  0  0  0  0  0
    9.8704   -7.3150    0.0000 C   0  0  0  0  0  0  0  0  0  0  0  0
    9.8704   -8.1400    0.0000 C   0  0  0  0  0  0  0  0  0  0  0  0
   10.5849   -8.5525    0.0000 C   0  0  0  0  0  0  0  0  0  0  0  0
   11.2993   -8.1400    0.0000 C   0  0  0  0  0  0  0  0  0  0  0  0
   11.2993   -7.3150    0.0000 C   0  0  0  0  0  0  0  0  0  0  0  0
   10.5849   -6.9025    0.0000 C   0  0  0  0  0  0  0  0  0  0  0  0
    8.5239   -6.6890    0.0000 H   0  0  0  0  0  0  0  0  0  0  0  0
    5.6435   -6.4003    0.0000 H   0  0  0  0  0  0  0  0  0  0  0  0
  1  2  1  0  0  0  0
  2  3  1  0  0  0  0
  3  4  1  0  0  0  0
  4  5  1  0  0  0  0
  5  6  1  0  0  0  0
  6  1  1  0  0  0  0
  6  7  2  0  0  0  0
  1  8  1  6  0  0  0
  5  9  1  1  0  0  0
  2 10  1  0  0  0  0
  3 11  1  0  0  0  0
 11 12  1  6  0  0  0
 11 13  1  0  0  0  0
 13 14  2  0  0  0  0
 14 15  1  0  0  0  0
 15 16  1  0  0  0  0
 10 17  2  0  0  0  0
 17 18  1  0  0  0  0
 16 19  1  0  0  0  0
 18 19  1  0  0  0  0
 19 20  1  1  0  0  0
 15 21  1  6  0  0  0
 15 22  1  0  0  0  0
 12 23  1  0  0  0  0
 23 24  1  0  0  0  0
 23 25  2  0  0  0  0
  3 26  1  1  0  0  0
 26 27  2  0  0  0  0
 26 28  1  0  0  0  0
  4 29  1  0  0  0  0
 29 30  1  6  0  0  0
 28 29  1  0  0  0  0
 30 31  1  0  0  0  0
 31 32  2  0  0  0  0
 32 33  1  0  0  0  0
 33 34  2  0  0  0  0
 34 35  1  0  0  0  0
 35 36  2  0  0  0  0
 36 31  1  0  0  0  0
  4 37  1  6  0  0  0
  2 38  1  6  0  0  0
M  END
>  <cdx:fragmentId>
100

$$$$
