292285.cdx
  Mrv1902 05222410252D          

 26 25  0  0  0  0            999 V2000
   21.5418  -14.2918    0.0000 C   0  0  0  0  0  0  0  0  0  0  0  0
   20.8273  -14.7043    0.0000 C   0  0  0  0  0  0  0  0  0  0  0  0
   20.1128  -14.2918    0.0000 C   0  0  0  0  0  0  0  0  0  0  0  0
   19.3983  -14.7043    0.0000 C   0  0  0  0  0  0  0  0  0  0  0  0
   18.6839  -14.2918    0.0000 C   0  0  0  0  0  0  0  0  0  0  0  0
   17.9694  -14.7043    0.0000 C   0  0  0  0  0  0  0  0  0  0  0  0
   17.2549  -14.2918    0.0000 C   0  0  0  0  0  0  0  0  0  0  0  0
   16.5405  -14.7043    0.0000 C   0  0  0  0  0  0  0  0  0  0  0  0
   15.8260  -14.2918    0.0000 C   0  0  0  0  0  0  0  0  0  0  0  0
   15.1115  -14.7043    0.0000 C   0  0  0  0  0  0  0  0  0  0  0  0
   14.3970  -14.2918    0.0000 C   0  0  0  0  0  0  0  0  0  0  0  0
   13.6826  -14.7043    0.0000 C   0  0  0  0  0  0  0  0  0  0  0  0
   12.9681  -14.2918    0.0000 C   0  0  0  0  0  0  0  0  0  0  0  0
   12.2536  -14.7043    0.0000 C   0  0  0  0  0  0  0  0  0  0  0  0
   11.5392  -14.2918    0.0000 C   0  0  0  0  0  0  0  0  0  0  0  0
   10.8247  -14.7043    0.0000 C   0  0  0  0  0  0  0  0  0  0  0  0
   10.1102  -14.2918    0.0000 C   0  0  0  0  0  0  0  0  0  0  0  0
    9.3958  -14.7043    0.0000 C   0  0  0  0  0  0  0  0  0  0  0  0
   18.6839  -13.4668    0.0000 C   0  0  0  0  0  0  0  0  0  0  0  0
   17.9694  -13.0543    0.0000 C   0  0  0  0  0  0  0  0  0  0  0  0
   17.9694  -12.2293    0.0000 C   0  0  0  0  0  0  0  0  0  0  0  0
   17.2549  -11.8168    0.0000 C   0  0  0  0  0  0  0  0  0  0  0  0
   17.2549  -13.4668    0.0000 C   0  0  0  0  0  0  0  0  0  0  0  0
   16.5405  -13.0543    0.0000 C   0  0  0  0  0  0  0  0  0  0  0  0
   20.1128  -13.4668    0.0000 C   0  0  0  0  0  0  0  0  0  0  0  0
   20.8273  -13.0543    0.0000 C   0  0  0  0  0  0  0  0  0  0  0  0
  1  2  1  0  0  0  0
  2  3  1  0  0  0  0
  3  4  1  0  0  0  0
  4  5  1  0  0  0  0
  5  6  1  0  0  0  0
  6  7  1  0  0  0  0
  7  8  1  0  0  0  0
  8  9  1  0  0  0  0
  9 10  1  0  0  0  0
 10 11  1  0  0  0  0
 11 12  1  0  0  0  0
 12 13  1  0  0  0  0
 13 14  1  0  0  0  0
 14 15  1  0  0  0  0
 15 16  1  0  0  0  0
 16 17  1  0  0  0  0
 17 18  1  0  0  0  0
 19 20  1  0  0  0  0
 20 21  1  0  0  0  0
 21 22  1  0  0  0  0
 23 24  1  0  0  0  0
 20 23  1  0  0  0  0
  5 19  1  0  0  0  0
 25 26  1  0  0  0  0
  3 25  1  0  0  0  0
M  END
>  <cdx:groupId>
325

>  <cdx:fragmentId>
251

$$$$
