16ﾥ￡-hydro-ent-kauran-17,19-dioic acid.cdx
  Mrv1902 05222410232D          

 27 30  0  0  0  0            999 V2000
    3.0764   -7.0331    0.0000 C   0  0  0  0  0  0  0  0  0  0  0  0
    3.0764   -7.8581    0.0000 C   0  0  0  0  0  0  0  0  0  0  0  0
    3.7909   -8.2706    0.0000 C   0  0  2  0  0  0  0  0  0  0  0  0
    4.5053   -7.8581    0.0000 C   0  0  2  0  0  0  0  0  0  0  0  0
    4.5053   -7.0331    0.0000 C   0  0  1  0  0  0  0  0  0  0  0  0
    3.7909   -6.6206    0.0000 C   0  0  0  0  0  0  0  0  0  0  0  0
    5.2198   -8.2706    0.0000 C   0  0  0  0  0  0  0  0  0  0  0  0
    5.9343   -7.8581    0.0000 C   0  0  0  0  0  0  0  0  0  0  0  0
    5.9343   -7.0331    0.0000 C   0  0  0  0  0  0  0  0  0  0  0  0
    5.2198   -6.6206    0.0000 C   0  0  1  0  0  0  0  0  0  0  0  0
    6.6488   -6.6206    0.0000 C   0  0  0  0  0  0  0  0  0  0  0  0
    6.6488   -5.7956    0.0000 C   0  0  0  0  0  0  0  0  0  0  0  0
    5.9343   -5.3831    0.0000 C   0  0  0  0  0  0  0  0  0  0  0  0
    5.2198   -5.7956    0.0000 C   0  0  0  0  0  0  0  0  0  0  0  0
    4.2034   -8.9851    0.0000 C   0  0  0  0  0  0  0  0  0  0  0  0
    5.0284   -8.9851    0.0000 O   0  0  0  0  0  0  0  0  0  0  0  0
    3.7909   -9.6996    0.0000 O   0  0  0  0  0  0  0  0  0  0  0  0
    4.5053   -6.2081    0.0000 C   0  0  0  0  0  0  0  0  0  0  0  0
    3.3784   -8.9851    0.0000 C   0  0  0  0  0  0  0  0  0  0  0  0
    4.5053   -8.6831    0.0000 H   0  0  0  0  0  0  0  0  0  0  0  0
    5.2198   -7.4456    0.0000 H   0  0  0  0  0  0  0  0  0  0  0  0
    7.3632   -6.2081    0.0000 C   0  0  2  0  0  0  0  0  0  0  0  0
    6.6488   -7.4456    0.0000 C   0  0  0  0  0  0  0  0  0  0  0  0
    7.7757   -5.4937    0.0000 C   0  0  0  0  0  0  0  0  0  0  0  0
    8.0777   -6.6206    0.0000 H   0  0  0  0  0  0  0  0  0  0  0  0
    7.3632   -4.7792    0.0000 O   0  0  0  0  0  0  0  0  0  0  0  0
    8.6007   -5.4937    0.0000 O   0  0  0  0  0  0  0  0  0  0  0  0
  1  2  1  0  0  0  0
  2  3  1  0  0  0  0
  3  4  1  0  0  0  0
  4  5  1  0  0  0  0
  5  6  1  0  0  0  0
  6  1  1  0  0  0  0
  4  7  1  0  0  0  0
  7  8  1  0  0  0  0
  8  9  1  0  0  0  0
  9 10  1  0  0  0  0
 10  5  1  0  0  0  0
  9 11  1  0  0  0  0
 11 12  1  0  0  0  0
 12 13  1  0  0  0  0
 13 14  1  0  0  0  0
 14 10  1  0  0  0  0
  3 15  1  6  0  0  0
  5 18  1  6  0  0  0
  3 19  1  1  0  0  0
  4 20  1  1  0  0  0
 10 21  1  1  0  0  0
 12 22  1  0  0  0  0
  9 23  1  0  0  0  0
 22 23  1  0  0  0  0
 22 24  1  1  0  0  0
 22 25  1  6  0  0  0
 15 16  2  0  0  0  0
 15 17  1  0  0  0  0
 24 26  2  0  0  0  0
 24 27  1  0  0  0  0
M  STY  2   1 SUP   2 SUP
M  SAL   1  3  15  16  17
M  SBL   1  1  17
M  SMT   1 COOH
M  SAP   1  1  15   3  1
M  SAL   2  3  24  26  27
M  SBL   2  1  25
M  SMT   2 COOH
M  SAP   2  1  24  22  1
M  END
>  <cdx:fragmentId>
5

$$$$
