2926.cdx
  Mrv1902 05222410212D          

 37 40  0  0  0  0            999 V2000
   16.1179   -8.8072    0.0000 C   0  0  2  0  0  0  0  0  0  0  0  0
   12.2204  -10.6718    0.0000 C   0  0  0  0  0  0  0  0  0  0  0  0
   11.5060  -11.0843    0.0000 C   0  0  0  0  0  0  0  0  0  0  0  0
   11.5060  -11.9093    0.0000 C   0  0  0  0  0  0  0  0  0  0  0  0
   12.2204  -12.3218    0.0000 C   0  0  1  0  0  0  0  0  0  0  0  0
   12.9349  -11.9093    0.0000 C   0  0  2  0  0  0  0  0  0  0  0  0
   13.6494  -12.3218    0.0000 C   0  0  0  0  0  0  0  0  0  0  0  0
   14.3638  -11.9093    0.0000 C   0  0  0  0  0  0  0  0  0  0  0  0
   14.3638  -11.0843    0.0000 C   0  0  0  0  0  0  0  0  0  0  0  0
   15.0783  -10.6718    0.0000 C   0  0  2  0  0  0  0  0  0  0  0  0
   15.8629  -10.9267    0.0000 C   0  0  0  0  0  0  0  0  0  0  0  0
   16.3479  -10.2593    0.0000 C   0  0  2  0  0  0  0  0  0  0  0  0
   15.8629   -9.5919    0.0000 C   0  0  1  0  0  0  0  0  0  0  0  0
   15.0783   -9.8468    0.0000 C   0  0  1  0  0  0  0  0  0  0  0  0
   14.3638   -9.4343    0.0000 C   0  0  0  0  0  0  0  0  0  0  0  0
   13.6494   -9.8468    0.0000 C   0  0  0  0  0  0  0  0  0  0  0  0
   13.6494  -10.6718    0.0000 C   0  0  0  0  0  0  0  0  0  0  0  0
   12.9349  -11.0843    0.0000 C   0  0  1  0  0  0  0  0  0  0  0  0
   15.0783  -11.4968    0.0000 C   0  0  0  0  0  0  0  0  0  0  0  0
   12.9349  -10.2593    0.0000 C   0  0  0  0  0  0  0  0  0  0  0  0
   10.7915  -12.3218    0.0000 O   0  0  0  0  0  0  0  0  0  0  0  0
   15.0783   -9.0218    0.0000 C   0  0  0  0  0  0  0  0  0  0  0  0
   15.5658   -8.1942    0.0000 C   0  0  0  0  0  0  0  0  0  0  0  0
   16.9249   -8.6357    0.0000 C   0  0  0  0  0  0  0  0  0  0  0  0
   17.1798   -7.8511    0.0000 C   0  0  0  0  0  0  0  0  0  0  0  0
   17.9868   -7.6796    0.0000 C   0  0  0  0  0  0  0  0  0  0  0  0
   18.2417   -6.8950    0.0000 C   0  0  0  0  0  0  0  0  0  0  0  0
   17.6897   -6.2819    0.0000 C   0  0  0  0  0  0  0  0  0  0  0  0
   19.0487   -6.7234    0.0000 C   0  0  0  0  0  0  0  0  0  0  0  0
   16.6778   -9.4628    0.0000 H   0  0  0  0  0  0  0  0  0  0  0  0
   11.8079  -13.0363    0.0000 C   0  0  0  0  0  0  0  0  0  0  0  0
   12.6329  -13.0363    0.0000 C   0  0  0  0  0  0  0  0  0  0  0  0
   12.9349  -12.7343    0.0000 H   0  0  0  0  0  0  0  0  0  0  0  0
   15.8208   -7.4095    0.0000 O   0  0  0  0  0  0  0  0  0  0  0  0
   14.7589   -8.3657    0.0000 O   0  0  0  0  0  0  0  0  0  0  0  0
   18.5388   -8.2927    0.0000 C   0  0  0  0  0  0  0  0  0  0  0  0
   17.1729  -10.2593    0.0000 O   0  0  0  0  0  0  0  0  0  0  0  0
  2  3  1  0  0  0  0
  3  4  1  0  0  0  0
  4  5  1  0  0  0  0
  5  6  1  0  0  0  0
  6  7  1  0  0  0  0
  7  8  1  0  0  0  0
  8  9  1  0  0  0  0
  9 10  1  0  0  0  0
 10 11  1  0  0  0  0
 11 12  1  0  0  0  0
 13 12  1  0  0  0  0
 13 14  1  0  0  0  0
 10 14  1  0  0  0  0
 14 15  1  0  0  0  0
 15 16  1  0  0  0  0
 16 17  1  0  0  0  0
  9 17  2  0  0  0  0
 17 18  1  0  0  0  0
  6 18  1  0  0  0  0
  2 18  1  0  0  0  0
 10 19  1  6  0  0  0
 18 20  1  1  0  0  0
  4 21  2  0  0  0  0
  1 13  1  0  0  0  0
 14 22  1  1  0  0  0
  1 23  1  0  0  0  0
  1 24  1  6  0  0  0
 24 25  1  0  0  0  0
 25 26  1  0  0  0  0
 26 27  1  0  0  0  0
 27 28  1  0  0  0  0
 27 29  1  0  0  0  0
 13 30  1  6  0  0  0
  5 31  1  1  0  0  0
  5 32  1  6  0  0  0
  6 33  1  6  0  0  0
 23 34  2  0  0  0  0
 23 35  1  0  0  0  0
 26 36  2  0  0  0  0
 12 37  1  6  0  0  0
M  END
>  <cdx:fragmentId>
32433

$$$$
