15292600.cdx
  Mrv1902 05222410202D          

 21 23  0  0  0  0            999 V2000
    7.0605  -14.4369    0.0000 C   0  0  0  0  0  0  0  0  0  0  0  0
    7.7750  -14.8494    0.0000 C   0  0  0  0  0  0  0  0  0  0  0  0
    8.4894  -14.4369    0.0000 C   0  0  0  0  0  0  0  0  0  0  0  0
    9.2039  -14.8494    0.0000 C   0  0  0  0  0  0  0  0  0  0  0  0
    9.2039  -15.6744    0.0000 C   0  0  0  0  0  0  0  0  0  0  0  0
    8.4894  -16.0869    0.0000 C   0  0  0  0  0  0  0  0  0  0  0  0
    7.7750  -15.6744    0.0000 C   0  0  0  0  0  0  0  0  0  0  0  0
    7.0605  -16.0869    0.0000 O   0  0  0  0  0  0  0  0  0  0  0  0
    6.3460  -15.6744    0.0000 C   0  0  0  0  0  0  0  0  0  0  0  0
    5.6316  -16.0869    0.0000 C   0  0  0  0  0  0  0  0  0  0  0  0
    4.9171  -15.6744    0.0000 C   0  0  0  0  0  0  0  0  0  0  0  0
    4.9171  -14.8494    0.0000 C   0  0  0  0  0  0  0  0  0  0  0  0
    5.6316  -14.4369    0.0000 C   0  0  0  0  0  0  0  0  0  0  0  0
    6.3460  -14.8494    0.0000 C   0  0  0  0  0  0  0  0  0  0  0  0
    7.0605  -13.6119    0.0000 O   0  0  0  0  0  0  0  0  0  0  0  0
    9.9184  -14.4369    0.0000 O   0  0  0  0  0  0  0  0  0  0  0  0
   10.6329  -14.8494    0.0000 C   0  0  0  0  0  0  0  0  0  0  0  0
    5.6316  -13.6119    0.0000 O   0  0  0  0  0  0  0  0  0  0  0  0
    4.2026  -16.0869    0.0000 O   0  0  0  0  0  0  0  0  0  0  0  0
    9.9184  -16.0869    0.0000 O   0  0  0  0  0  0  0  0  0  0  0  0
    8.4894  -13.6119    0.0000 O   0  0  0  0  0  0  0  0  0  0  0  0
  1  2  1  0  0  0  0
  2  3  1  0  0  0  0
  3  4  2  0  0  0  0
  4  5  1  0  0  0  0
  5  6  2  0  0  0  0
  6  7  1  0  0  0  0
  2  7  2  0  0  0  0
  7  8  1  0  0  0  0
  8  9  1  0  0  0  0
  9 10  1  0  0  0  0
 10 11  2  0  0  0  0
 11 12  1  0  0  0  0
 12 13  2  0  0  0  0
 13 14  1  0  0  0  0
  9 14  2  0  0  0  0
  1 14  1  0  0  0  0
  1 15  2  0  0  0  0
 16 17  1  0  0  0  0
  4 16  1  0  0  0  0
 13 18  1  0  0  0  0
 11 19  1  0  0  0  0
  5 20  1  0  0  0  0
  3 21  1  0  0  0  0
M  END
>  <cdx:groupId>
112905

>  <cdx:fragmentId>
112843

$$$$
