292983.cdx
  Mrv1902 05222410192D          

 13 12  0  0  0  0            999 V2000
    9.5387   -8.5094    0.0000 C   0  0  0  0  0  0  0  0  0  0  0  0
    8.8242   -8.9219    0.0000 C   0  0  0  0  0  0  0  0  0  0  0  0
    8.1098   -8.5094    0.0000 C   0  0  0  0  0  0  0  0  0  0  0  0
    7.3953   -8.9219    0.0000 C   0  0  0  0  0  0  0  0  0  0  0  0
    6.6808   -8.5094    0.0000 C   0  0  0  0  0  0  0  0  0  0  0  0
    5.9663   -8.9219    0.0000 C   0  0  0  0  0  0  0  0  0  0  0  0
    5.2519   -8.5094    0.0000 C   0  0  0  0  0  0  0  0  0  0  0  0
    4.5374   -8.9219    0.0000 C   0  0  0  0  0  0  0  0  0  0  0  0
    3.8229   -8.5094    0.0000 C   0  0  0  0  0  0  0  0  0  0  0  0
    9.5387   -7.6844    0.0000 O   0  0  0  0  0  0  0  0  0  0  0  0
   10.2532   -8.9219    0.0000 O   0  0  0  0  0  0  0  0  0  0  0  0
    3.1085   -8.9219    0.0000 O   0  0  0  0  0  0  0  0  0  0  0  0
   10.9676   -8.5094    0.0000 C   0  0  0  0  0  0  0  0  0  0  0  0
  1  2  1  0  0  0  0
  2  3  1  0  0  0  0
  3  4  1  0  0  0  0
  4  5  1  0  0  0  0
  5  6  1  0  0  0  0
  6  7  1  0  0  0  0
  7  8  1  0  0  0  0
  8  9  1  0  0  0  0
  1 10  2  0  0  0  0
  1 11  1  0  0  0  0
  9 12  1  0  0  0  0
 11 13  1  0  0  0  0
M  END
>  <cdx:groupId>
430

>  <cdx:fragmentId>
395

$$$$
