293.cdx
  Mrv1902 05222410262D          

 19 18  0  0  0  0            999 V2000
    2.9206   -5.1177    0.0000 C   0  0  0  0  0  0  0  0  0  0  0  0
    3.6265   -5.5446    0.0000 C   0  0  0  0  0  0  0  0  0  0  0  0
    3.6097   -6.3695    0.0000 C   0  0  0  0  0  0  0  0  0  0  0  0
    4.3156   -6.7964    0.0000 C   0  0  0  0  0  0  0  0  0  0  0  0
    4.2988   -7.6213    0.0000 C   0  0  0  0  0  0  0  0  0  0  0  0
    5.0047   -8.0482    0.0000 C   0  0  0  0  0  0  0  0  0  0  0  0
    4.9879   -8.8731    0.0000 C   0  0  0  0  0  0  0  0  0  0  0  0
    5.6938   -9.3000    0.0000 C   0  0  0  0  0  0  0  0  0  0  0  0
    5.6770  -10.1249    0.0000 C   0  0  0  0  0  0  0  0  0  0  0  0
    6.3892  -10.5411    0.0000 C   0  0  0  0  0  0  0  0  0  0  0  0
    7.1182  -10.1326    0.0000 C   0  0  0  0  0  0  0  0  0  0  0  0
    7.8304  -10.5489    0.0000 C   0  0  0  0  0  0  0  0  0  0  0  0
    8.5471  -10.1402    0.0000 C   0  0  0  0  0  0  0  0  0  0  0  0
    9.2593  -10.5566    0.0000 C   0  0  0  0  0  0  0  0  0  0  0  0
    9.9760  -10.1479    0.0000 C   0  0  0  0  0  0  0  0  0  0  0  0
   10.6883  -10.5642    0.0000 C   0  0  0  0  0  0  0  0  0  0  0  0
   11.4049  -10.1556    0.0000 C   0  0  0  0  0  0  0  0  0  0  0  0
   12.1172  -10.5719    0.0000 C   0  0  0  0  0  0  0  0  0  0  0  0
   12.8339  -10.1632    0.0000 O   0  0  0  0  0  0  0  0  0  0  0  0
  1  2  1  0  0  0  0
  2  3  1  0  0  0  0
  3  4  1  0  0  0  0
  4  5  1  0  0  0  0
  5  6  1  0  0  0  0
  6  7  1  0  0  0  0
  7  8  1  0  0  0  0
  8  9  1  0  0  0  0
  9 10  2  0  0  0  0
 10 11  1  0  0  0  0
 11 12  1  0  0  0  0
 12 13  1  0  0  0  0
 13 14  1  0  0  0  0
 14 15  1  0  0  0  0
 15 16  1  0  0  0  0
 16 17  1  0  0  0  0
 17 18  1  0  0  0  0
 18 19  2  0  0  0  0
M  END
>  <cdx:fragmentId>
3

$$$$
