29339.cdx
  Mrv1902 05222410202D          

  6  5  0  0  0  0            999 V2000
    3.6381   -2.2061    0.0000 C   0  0  0  0  0  0  0  0  0  0  0  0
    4.3526   -2.6186    0.0000 C   0  0  0  0  0  0  0  0  0  0  0  0
    5.0670   -2.2061    0.0000 C   0  0  0  0  0  0  0  0  0  0  0  0
    5.7815   -2.6186    0.0000 C   0  0  0  0  0  0  0  0  0  0  0  0
    2.9236   -1.7936    0.0000 N   0  0  0  0  0  0  0  0  0  0  0  0
    4.3526   -3.4436    0.0000 C   0  0  0  0  0  0  0  0  0  0  0  0
  1  2  1  0  0  0  0
  2  3  1  0  0  0  0
  3  4  1  0  0  0  0
  1  5  3  0  0  0  0
  2  6  1  0  0  0  0
M  END
>  <cdx:groupId>
19

>  <cdx:fragmentId>
5

$$$$
