29373.cdx
  Mrv1902 05222410232D          

  9  8  0  0  0  0            999 V2000
    6.1082   -3.5524    0.0000 C   0  0  0  0  0  0  0  0  0  0  0  0
    5.3937   -3.9649    0.0000 C   0  0  0  0  0  0  0  0  0  0  0  0
    4.6792   -3.5524    0.0000 C   0  0  0  0  0  0  0  0  0  0  0  0
    3.9648   -3.9649    0.0000 C   0  0  0  0  0  0  0  0  0  0  0  0
    3.2503   -3.5524    0.0000 C   0  0  0  0  0  0  0  0  0  0  0  0
    2.5358   -3.9649    0.0000 C   0  0  0  0  0  0  0  0  0  0  0  0
    1.8214   -3.5524    0.0000 C   0  0  0  0  0  0  0  0  0  0  0  0
    6.1082   -2.7274    0.0000 O   0  0  0  0  0  0  0  0  0  0  0  0
    6.8227   -3.9649    0.0000 O   0  0  0  0  0  0  0  0  0  0  0  0
  1  2  1  0  0  0  0
  2  3  2  0  0  0  0
  3  4  1  0  0  0  0
  4  5  1  0  0  0  0
  5  6  1  0  0  0  0
  6  7  1  0  0  0  0
  1  8  2  0  0  0  0
  1  9  1  0  0  0  0
M  END
>  <cdx:groupId>
28

>  <cdx:fragmentId>
5

$$$$
