294.cdx
  Mrv1902 05222410272D          

 21 20  0  0  0  0            999 V2000
    6.6972   -7.4329    0.0000 C   0  0  0  0  0  0  0  0  0  0  0  0
    7.5222   -7.4329    0.0000 C   0  0  0  0  0  0  0  0  0  0  0  0
    8.7597   -6.7185    0.0000 C   0  0  0  0  0  0  0  0  0  0  0  0
    7.9347   -6.7185    0.0000 C   0  0  0  0  0  0  0  0  0  0  0  0
    9.1722   -6.0040    0.0000 C   0  0  0  0  0  0  0  0  0  0  0  0
   10.4097   -5.2895    0.0000 C   0  0  0  0  0  0  0  0  0  0  0  0
   11.2347   -5.2895    0.0000 C   0  0  0  0  0  0  0  0  0  0  0  0
    7.9347   -8.1474    0.0000 C   0  0  0  0  0  0  0  0  0  0  0  0
    7.5222   -8.8619    0.0000 C   0  0  0  0  0  0  0  0  0  0  0  0
    9.9972   -6.0040    0.0000 C   0  0  0  0  0  0  0  0  0  0  0  0
    7.5234  -11.7200    0.0000 C   0  0  0  0  0  0  0  0  0  0  0  0
    7.9347   -9.5763    0.0000 C   0  0  0  0  0  0  0  0  0  0  0  0
    7.5226  -10.2911    0.0000 C   0  0  0  0  0  0  0  0  0  0  0  0
    7.9355  -11.0053    0.0000 C   0  0  0  0  0  0  0  0  0  0  0  0
    6.2847   -8.1474    0.0000 C   0  0  0  0  0  0  0  0  0  0  0  0
    5.4597   -8.1474    0.0000 C   0  0  0  0  0  0  0  0  0  0  0  0
    5.0472   -8.8619    0.0000 C   0  0  0  0  0  0  0  0  0  0  0  0
    4.2222   -8.8619    0.0000 C   0  0  0  0  0  0  0  0  0  0  0  0
    3.8097   -9.5763    0.0000 C   0  0  0  0  0  0  0  0  0  0  0  0
    2.9847   -9.5763    0.0000 C   0  0  0  0  0  0  0  0  0  0  0  0
   11.6472   -4.5750    0.0000 C   0  0  0  0  0  0  0  0  0  0  0  0
  2  8  1  0  0  0  0
  1  2  1  0  0  0  0
  9  8  1  0  0  0  0
  3  4  1  0  0  0  0
  4  2  1  0  0  0  0
  3  5  1  0  0  0  0
  6  7  1  0  0  0  0
 10  5  1  0  0  0  0
  9 12  1  0  0  0  0
 13 12  1  0  0  0  0
  6 10  1  0  0  0  0
 14 13  1  0  0  0  0
 11 14  1  0  0  0  0
  1 15  1  0  0  0  0
 15 16  1  0  0  0  0
 16 17  1  0  0  0  0
 17 18  1  0  0  0  0
 18 19  1  0  0  0  0
 19 20  1  0  0  0  0
  7 21  1  0  0  0  0
M  END
>  <cdx:fragmentId>
5

$$$$
