101029447.cdx
  Mrv1902 05222410262D          

106116  0  0  0  0            999 V2000
    4.5951  -11.4191    0.0000 C   0  0  0  0  0  0  0  0  0  0  0  0
    3.8806  -11.8316    0.0000 C   0  0  0  0  0  0  0  0  0  0  0  0
    3.8806  -12.6566    0.0000 C   0  0  1  0  0  0  0  0  0  0  0  0
    4.5951  -13.0691    0.0000 C   0  0  2  0  0  0  0  0  0  0  0  0
    5.3096  -12.6566    0.0000 C   0  0  2  0  0  0  0  0  0  0  0  0
    6.0240  -13.0691    0.0000 C   0  0  0  0  0  0  0  0  0  0  0  0
    6.7385  -12.6566    0.0000 C   0  0  0  0  0  0  0  0  0  0  0  0
    6.7385  -11.8316    0.0000 C   0  0  1  0  0  0  0  0  0  0  0  0
    7.4530  -11.4191    0.0000 C   0  0  2  0  0  0  0  0  0  0  0  0
    8.1674  -11.8316    0.0000 C   0  0  0  0  0  0  0  0  0  0  0  0
    8.8819  -11.4191    0.0000 C   0  0  0  0  0  0  0  0  0  0  0  0
    8.8819  -10.5941    0.0000 C   0  0  1  0  0  0  0  0  0  0  0  0
    9.5964  -10.1816    0.0000 C   0  0  0  0  0  0  0  0  0  0  0  0
    9.5964   -9.3566    0.0000 C   0  0  0  0  0  0  0  0  0  0  0  0
    8.8819   -8.9441    0.0000 C   0  0  0  0  0  0  0  0  0  0  0  0
    8.1674   -9.3566    0.0000 C   0  0  0  0  0  0  0  0  0  0  0  0
    8.1674  -10.1816    0.0000 C   0  0  1  0  0  0  0  0  0  0  0  0
    7.4530  -10.5941    0.0000 C   0  0  0  0  0  0  0  0  0  0  0  0
    6.7385  -10.1816    0.0000 C   0  0  0  0  0  0  0  0  0  0  0  0
    6.0240  -10.5941    0.0000 C   0  0  0  0  0  0  0  0  0  0  0  0
    6.0240  -11.4191    0.0000 C   0  0  2  0  0  0  0  0  0  0  0  0
    5.3096  -11.8316    0.0000 C   0  0  1  0  0  0  0  0  0  0  0  0
    4.5951  -13.8941    0.0000 C   0  0  0  0  0  0  0  0  0  0  0  0
    5.3096  -14.3066    0.0000 O   0  0  0  0  0  0  0  0  0  0  0  0
    3.8806  -14.3066    0.0000 O   0  0  0  0  0  0  0  0  0  0  0  0
    3.1661  -13.0691    0.0000 O   0  0  0  0  0  0  0  0  0  0  0  0
    2.4517  -11.8316    0.0000 O   0  0  0  0  0  0  0  0  0  0  0  0
    2.4517  -12.6566    0.0000 C   0  0  2  0  0  0  0  0  0  0  0  0
    1.7372  -13.0691    0.0000 C   0  0  1  0  0  0  0  0  0  0  0  0
    1.0227  -12.6566    0.0000 C   0  0  2  0  0  0  0  0  0  0  0  0
    1.0227  -11.8316    0.0000 C   0  0  1  0  0  0  0  0  0  0  0  0
    1.7372  -11.4191    0.0000 C   0  0  1  0  0  0  0  0  0  0  0  0
    1.7372  -10.5941    0.0000 C   0  0  0  0  0  0  0  0  0  0  0  0
    1.0227  -10.1816    0.0000 O   0  0  0  0  0  0  0  0  0  0  0  0
    0.3083  -11.4191    0.0000 O   0  0  0  0  0  0  0  0  0  0  0  0
    0.3083  -13.0691    0.0000 O   0  0  0  0  0  0  0  0  0  0  0  0
    1.7372  -13.8941    0.0000 O   0  0  0  0  0  0  0  0  0  0  0  0
    5.3096  -11.0066    0.0000 C   0  0  0  0  0  0  0  0  0  0  0  0
    8.4694   -8.2296    0.0000 C   0  0  0  0  0  0  0  0  0  0  0  0
    9.2944   -8.2296    0.0000 C   0  0  0  0  0  0  0  0  0  0  0  0
    6.7385  -11.0066    0.0000 C   0  0  0  0  0  0  0  0  0  0  0  0
    3.8806  -13.4816    0.0000 C   0  0  0  0  0  0  0  0  0  0  0  0
    7.4530  -12.2441    0.0000 C   0  0  0  0  0  0  0  0  0  0  0  0
    8.1674  -12.6566    0.0000 O   0  0  0  0  0  0  0  0  0  0  0  0
    3.1661  -11.4191    0.0000 O   0  0  0  0  0  0  0  0  0  0  0  0
    9.5964  -11.0066    0.0000 C   0  0  0  0  0  0  0  0  0  0  0  0
    9.5964  -11.8316    0.0000 O   0  0  0  0  0  0  0  0  0  0  0  0
   10.3108  -10.5941    0.0000 O   0  0  0  0  0  0  0  0  0  0  0  0
   11.0253  -11.8316    0.0000 O   0  0  0  0  0  0  0  0  0  0  0  0
   11.0253  -11.0066    0.0000 C   0  0  2  0  0  0  0  0  0  0  0  0
   11.7398  -10.5941    0.0000 C   0  0  1  0  0  0  0  0  0  0  0  0
   12.4543  -11.0066    0.0000 C   0  0  2  0  0  0  0  0  0  0  0  0
   12.4543  -11.8316    0.0000 C   0  0  2  0  0  0  0  0  0  0  0  0
   11.7398  -12.2441    0.0000 C   0  0  1  0  0  0  0  0  0  0  0  0
   11.7398  -13.0691    0.0000 C   0  0  0  0  0  0  0  0  0  0  0  0
   12.4543  -13.4816    0.0000 O   0  0  0  0  0  0  0  0  0  0  0  0
   13.1687  -10.5941    0.0000 O   0  0  0  0  0  0  0  0  0  0  0  0
   13.1687  -12.2441    0.0000 O   0  0  0  0  0  0  0  0  0  0  0  0
   13.8832  -11.8316    0.0000 C   0  0  0  0  0  0  0  0  0  0  0  0
   14.5977  -12.2441    0.0000 C   0  0  0  0  0  0  0  0  0  0  0  0
   15.3121  -11.8316    0.0000 C   0  0  0  0  0  0  0  0  0  0  0  0
   13.8832  -11.0066    0.0000 O   0  0  0  0  0  0  0  0  0  0  0  0
   16.0266  -12.2441    0.0000 C   0  0  0  0  0  0  0  0  0  0  0  0
   16.7411  -11.8316    0.0000 C   0  0  0  0  0  0  0  0  0  0  0  0
   17.4556  -12.2441    0.0000 C   0  0  0  0  0  0  0  0  0  0  0  0
   17.4556  -13.0691    0.0000 C   0  0  0  0  0  0  0  0  0  0  0  0
   16.7411  -13.4816    0.0000 C   0  0  0  0  0  0  0  0  0  0  0  0
   16.0266  -13.0691    0.0000 C   0  0  0  0  0  0  0  0  0  0  0  0
   18.1700  -13.4816    0.0000 O   0  0  0  0  0  0  0  0  0  0  0  0
   18.8845  -13.0691    0.0000 C   0  0  0  0  0  0  0  0  0  0  0  0
   18.1700  -11.8316    0.0000 O   0  0  0  0  0  0  0  0  0  0  0  0
   18.8845  -12.2441    0.0000 C   0  0  0  0  0  0  0  0  0  0  0  0
   11.7398   -9.7691    0.0000 O   0  0  0  0  0  0  0  0  0  0  0  0
   13.1687   -9.7691    0.0000 O   0  0  0  0  0  0  0  0  0  0  0  0
   12.4543   -9.3566    0.0000 C   0  0  2  0  0  0  0  0  0  0  0  0
   12.4543   -8.5316    0.0000 C   0  0  1  0  0  0  0  0  0  0  0  0
   13.1687   -8.1191    0.0000 C   0  0  1  0  0  0  0  0  0  0  0  0
   13.8832   -8.5316    0.0000 C   0  0  2  0  0  0  0  0  0  0  0  0
   13.8832   -9.3566    0.0000 C   0  0  2  0  0  0  0  0  0  0  0  0
   14.5977   -9.7691    0.0000 C   0  0  0  0  0  0  0  0  0  0  0  0
   13.1687   -7.2941    0.0000 O   0  0  0  0  0  0  0  0  0  0  0  0
   11.7398   -8.1191    0.0000 O   0  0  0  0  0  0  0  0  0  0  0  0
   14.5977   -8.1191    0.0000 O   0  0  0  0  0  0  0  0  0  0  0  0
   15.3121   -9.3566    0.0000 O   0  0  0  0  0  0  0  0  0  0  0  0
   15.3121   -8.5316    0.0000 C   0  0  2  0  0  0  0  0  0  0  0  0
   16.0266   -8.1191    0.0000 C   0  0  1  0  0  0  0  0  0  0  0  0
   16.7411   -8.5316    0.0000 C   0  0  2  0  0  0  0  0  0  0  0  0
   16.7411   -9.3566    0.0000 C   0  0  1  0  0  0  0  0  0  0  0  0
   16.0266   -9.7691    0.0000 C   0  0  0  0  0  0  0  0  0  0  0  0
   17.4556   -9.7691    0.0000 O   0  0  0  0  0  0  0  0  0  0  0  0
   18.1700   -8.5316    0.0000 O   0  0  0  0  0  0  0  0  0  0  0  0
   18.1700   -9.3566    0.0000 C   0  0  2  0  0  0  0  0  0  0  0  0
   18.8845   -9.7691    0.0000 C   0  0  1  0  0  0  0  0  0  0  0  0
   19.5990   -9.3566    0.0000 C   0  0  2  0  0  0  0  0  0  0  0  0
   19.5990   -8.5316    0.0000 C   0  0  2  0  0  0  0  0  0  0  0  0
   18.8845   -8.1191    0.0000 C   0  0  1  0  0  0  0  0  0  0  0  0
   18.8845   -7.2941    0.0000 C   0  0  0  0  0  0  0  0  0  0  0  0
   19.5990   -6.8816    0.0000 O   0  0  0  0  0  0  0  0  0  0  0  0
   20.3134   -8.1191    0.0000 O   0  0  0  0  0  0  0  0  0  0  0  0
   20.3134   -9.7691    0.0000 O   0  0  0  0  0  0  0  0  0  0  0  0
   18.8845  -10.5941    0.0000 O   0  0  0  0  0  0  0  0  0  0  0  0
   17.4556   -8.1191    0.0000 O   0  0  0  0  0  0  0  0  0  0  0  0
   16.0266   -7.2941    0.0000 O   0  0  0  0  0  0  0  0  0  0  0  0
    5.3096  -13.4816    0.0000 H   0  0  0  0  0  0  0  0  0  0  0  0
    8.1674  -11.0066    0.0000 H   0  0  0  0  0  0  0  0  0  0  0  0
    6.0240  -12.2441    0.0000 H   0  0  0  0  0  0  0  0  0  0  0  0
  1  2  1  0  0  0  0
  2  3  1  0  0  0  0
  3  4  1  0  0  0  0
  4  5  1  0  0  0  0
  5  6  1  0  0  0  0
  6  7  1  0  0  0  0
  7  8  1  0  0  0  0
  8  9  1  0  0  0  0
  9 10  1  0  0  0  0
 10 11  1  0  0  0  0
 11 12  1  0  0  0  0
 12 13  1  0  0  0  0
 13 14  1  0  0  0  0
 14 15  1  0  0  0  0
 15 16  1  0  0  0  0
 16 17  1  0  0  0  0
 12 17  1  0  0  0  0
 17 18  1  0  0  0  0
  9 18  1  0  0  0  0
 18 19  2  0  0  0  0
 19 20  1  0  0  0  0
 20 21  1  0  0  0  0
  8 21  1  0  0  0  0
 21 22  1  0  0  0  0
  5 22  1  0  0  0  0
  1 22  1  0  0  0  0
 23 24  2  0  0  0  0
 23 25  1  0  0  0  0
  4 23  1  0  0  0  0
 27 28  1  0  0  0  0
 28 29  1  0  0  0  0
 29 30  1  0  0  0  0
 30 31  1  0  0  0  0
 31 32  1  0  0  0  0
 27 32  1  0  0  0  0
 33 34  1  0  0  0  0
 32 33  1  1  0  0  0
 31 35  1  6  0  0  0
 30 36  1  1  0  0  0
 29 37  1  6  0  0  0
 28 26  1  1  0  0  0
  3 26  1  1  0  0  0
 22 38  1  1  0  0  0
 15 39  1  0  0  0  0
 15 40  1  0  0  0  0
  8 41  1  1  0  0  0
  4 42  1  1  0  0  0
 43 44  1  0  0  0  0
  9 43  1  6  0  0  0
  2 45  1  0  0  0  0
 46 47  2  0  0  0  0
 49 50  1  0  0  0  0
 50 51  1  0  0  0  0
 51 52  1  0  0  0  0
 52 53  1  0  0  0  0
 53 54  1  0  0  0  0
 49 54  1  0  0  0  0
 55 56  1  0  0  0  0
 54 55  1  1  0  0  0
 52 57  1  1  0  0  0
 59 60  1  0  0  0  0
 60 61  2  0  0  0  0
 59 62  2  0  0  0  0
 63 64  1  0  0  0  0
 64 65  2  0  0  0  0
 65 66  1  0  0  0  0
 66 67  2  0  0  0  0
 67 68  1  0  0  0  0
 63 68  2  0  0  0  0
 69 70  1  0  0  0  0
 66 69  1  0  0  0  0
 71 72  1  0  0  0  0
 65 71  1  0  0  0  0
 61 63  1  0  0  0  0
 58 59  1  0  0  0  0
 53 58  1  1  0  0  0
 74 75  1  0  0  0  0
 75 76  1  0  0  0  0
 76 77  1  0  0  0  0
 77 78  1  0  0  0  0
 78 79  1  0  0  0  0
 74 79  1  0  0  0  0
 79 80  1  6  0  0  0
 77 81  1  6  0  0  0
 76 82  1  6  0  0  0
 84 85  1  0  0  0  0
 85 86  1  0  0  0  0
 86 87  1  0  0  0  0
 87 88  1  0  0  0  0
 88 89  1  0  0  0  0
 84 89  1  0  0  0  0
 91 92  1  0  0  0  0
 92 93  1  0  0  0  0
 93 94  1  0  0  0  0
 94 95  1  0  0  0  0
 95 96  1  0  0  0  0
 91 96  1  0  0  0  0
 97 98  1  0  0  0  0
 96 97  1  6  0  0  0
 95 99  1  6  0  0  0
 94100  1  6  0  0  0
 93101  1  1  0  0  0
 92 90  1  6  0  0  0
 88 90  1  6  0  0  0
 87102  1  1  0  0  0
 86103  1  6  0  0  0
 85 83  1  1  0  0  0
 78 83  1  1  0  0  0
 75 73  1  1  0  0  0
 51 73  1  6  0  0  0
 50 48  1  1  0  0  0
 46 48  1  0  0  0  0
 12 46  1  1  0  0  0
  5104  1  6  0  0  0
 17105  1  1  0  0  0
 21106  1  6  0  0  0
M  END
>  <cdx:groupId>
5625

>  <cdx:fragmentId>
5480

$$$$
