2944.cdx
  Mrv1902 05222410182D          

 38 42  0  0  0  0            999 V2000
    4.4445   -7.9131    0.0000 C   0  0  0  0  0  0  0  0  0  0  0  0
    4.4445   -8.7381    0.0000 C   0  0  1  0  0  0  0  0  0  0  0  0
    5.1590   -9.1506    0.0000 C   0  0  2  0  0  0  0  0  0  0  0  0
    5.8735   -8.7381    0.0000 C   0  0  1  0  0  0  0  0  0  0  0  0
    5.8735   -7.9131    0.0000 C   0  0  2  0  0  0  0  0  0  0  0  0
    5.1590   -7.5006    0.0000 C   0  0  0  0  0  0  0  0  0  0  0  0
    6.5879   -9.1506    0.0000 C   0  0  0  0  0  0  0  0  0  0  0  0
    7.3024   -8.7381    0.0000 C   0  0  0  0  0  0  0  0  0  0  0  0
    7.3024   -7.9131    0.0000 C   0  0  2  0  0  0  0  0  0  0  0  0
    6.5879   -7.5006    0.0000 C   0  0  2  0  0  0  0  0  0  0  0  0
    8.0169   -7.5006    0.0000 C   0  0  1  0  0  0  0  0  0  0  0  0
    8.0169   -6.6756    0.0000 C   0  0  0  0  0  0  0  0  0  0  0  0
    7.3024   -6.2631    0.0000 C   0  0  0  0  0  0  0  0  0  0  0  0
    6.5879   -6.6756    0.0000 C   0  0  0  0  0  0  0  0  0  0  0  0
    8.7314   -7.9131    0.0000 C   0  0  0  0  0  0  0  0  0  0  0  0
    9.4458   -7.5006    0.0000 C   0  0  0  0  0  0  0  0  0  0  0  0
    9.4458   -6.6756    0.0000 C   0  0  2  0  0  0  0  0  0  0  0  0
    8.7314   -6.2631    0.0000 C   0  0  2  0  0  0  0  0  0  0  0  0
   10.1603   -6.2631    0.0000 C   0  0  0  0  0  0  0  0  0  0  0  0
   10.1603   -5.4381    0.0000 C   0  0  0  0  0  0  0  0  0  0  0  0
    9.4458   -5.0256    0.0000 C   0  0  1  0  0  0  0  0  0  0  0  0
    8.7314   -5.4381    0.0000 C   0  0  0  0  0  0  0  0  0  0  0  0
    4.7465   -9.8651    0.0000 C   0  0  0  0  0  0  0  0  0  0  0  0
    5.5715   -9.8651    0.0000 C   0  0  0  0  0  0  0  0  0  0  0  0
    9.8583   -4.3112    0.0000 C   0  0  0  0  0  0  0  0  0  0  0  0
   10.6833   -4.3112    0.0000 O   0  0  0  0  0  0  0  0  0  0  0  0
    9.4458   -3.5967    0.0000 O   0  0  0  0  0  0  0  0  0  0  0  0
    3.7301   -9.1506    0.0000 O   0  0  0  0  0  0  0  0  0  0  0  0
    5.8735   -7.0881    0.0000 C   0  0  0  0  0  0  0  0  0  0  0  0
    7.3024   -7.0881    0.0000 C   0  0  0  0  0  0  0  0  0  0  0  0
    8.0169   -5.8506    0.0000 H   0  0  0  0  0  0  0  0  0  0  0  0
   10.1603   -7.0881    0.0000 C   0  0  0  0  0  0  0  0  0  0  0  0
    9.0333   -4.3112    0.0000 C   0  0  0  0  0  0  0  0  0  0  0  0
    8.0169   -8.3256    0.0000 C   0  0  0  0  0  0  0  0  0  0  0  0
    6.5879   -8.3256    0.0000 H   0  0  0  0  0  0  0  0  0  0  0  0
    5.8735   -9.5631    0.0000 H   0  0  0  0  0  0  0  0  0  0  0  0
    5.8735   -6.2631    0.0000 O   0  0  0  0  0  0  0  0  0  0  0  0
   11.2667   -3.7278    0.0000 C   0  0  0  0  0  0  0  0  0  0  0  0
  1  2  1  0  0  0  0
  2  3  1  0  0  0  0
  3  4  1  0  0  0  0
  4  5  1  0  0  0  0
  5  6  1  0  0  0  0
  6  1  1  0  0  0  0
  4  7  1  0  0  0  0
  7  8  1  0  0  0  0
  8  9  1  0  0  0  0
  9 10  1  0  0  0  0
 10  5  1  0  0  0  0
  9 11  1  0  0  0  0
 11 12  1  0  0  0  0
 12 13  2  0  0  0  0
 13 14  1  0  0  0  0
 14 10  1  0  0  0  0
 11 15  1  0  0  0  0
 15 16  1  0  0  0  0
 16 17  1  0  0  0  0
 17 18  1  0  0  0  0
 18 12  1  0  0  0  0
 17 19  1  0  0  0  0
 19 20  1  0  0  0  0
 20 21  1  0  0  0  0
 21 22  1  0  0  0  0
 22 18  1  0  0  0  0
  3 23  1  6  0  0  0
  3 24  1  1  0  0  0
 21 25  1  1  0  0  0
 25 26  1  0  0  0  0
 25 27  2  0  0  0  0
  2 28  1  1  0  0  0
  5 29  1  1  0  0  0
  9 30  1  1  0  0  0
 18 31  1  6  0  0  0
 17 32  1  1  0  0  0
 21 33  1  6  0  0  0
 11 34  1  6  0  0  0
 10 35  1  6  0  0  0
  4 36  1  6  0  0  0
 14 37  2  0  0  0  0
 26 38  1  0  0  0  0
M  END
>  <cdx:fragmentId>
4796

$$$$
