295.cdx
  Mrv1902 05222410272D          

 18 17  0  0  0  0            999 V2000
    2.6950   -6.2975    0.0000 C   0  0  0  0  0  0  0  0  0  0  0  0
    3.4095   -5.8850    0.0000 C   0  0  0  0  0  0  0  0  0  0  0  0
    4.1239   -6.2975    0.0000 C   0  0  0  0  0  0  0  0  0  0  0  0
    4.8384   -5.8850    0.0000 C   0  0  0  0  0  0  0  0  0  0  0  0
    4.1239   -7.1225    0.0000 C   0  0  0  0  0  0  0  0  0  0  0  0
    5.5529   -6.2975    0.0000 C   0  0  0  0  0  0  0  0  0  0  0  0
    6.2674   -5.8850    0.0000 C   0  0  0  0  0  0  0  0  0  0  0  0
    6.9818   -6.2975    0.0000 C   0  0  0  0  0  0  0  0  0  0  0  0
    7.6963   -5.8850    0.0000 C   0  0  0  0  0  0  0  0  0  0  0  0
    8.4108   -6.2975    0.0000 C   0  0  0  0  0  0  0  0  0  0  0  0
    8.4108   -7.1225    0.0000 C   0  0  0  0  0  0  0  0  0  0  0  0
    9.1252   -7.5350    0.0000 C   0  0  0  0  0  0  0  0  0  0  0  0
    9.1252   -8.3600    0.0000 C   0  0  0  0  0  0  0  0  0  0  0  0
    9.8397   -8.7725    0.0000 C   0  0  0  0  0  0  0  0  0  0  0  0
    9.8397   -9.5975    0.0000 C   0  0  0  0  0  0  0  0  0  0  0  0
   10.5542  -10.0100    0.0000 C   0  0  0  0  0  0  0  0  0  0  0  0
   10.5542  -10.8350    0.0000 C   0  0  0  0  0  0  0  0  0  0  0  0
   11.2687  -11.2475    0.0000 O   0  0  0  0  0  0  0  0  0  0  0  0
  1  2  1  0  0  0  0
  2  3  1  0  0  0  0
  3  4  1  0  0  0  0
  3  5  1  0  0  0  0
  4  6  1  0  0  0  0
  6  7  1  0  0  0  0
  7  8  1  0  0  0  0
  8  9  1  0  0  0  0
  9 10  2  0  0  0  0
 10 11  1  0  0  0  0
 11 12  1  0  0  0  0
 12 13  1  0  0  0  0
 13 14  1  0  0  0  0
 14 15  1  0  0  0  0
 15 16  1  0  0  0  0
 16 17  1  0  0  0  0
 17 18  2  0  0  0  0
M  END
>  <cdx:fragmentId>
94

$$$$
