2950.cdx
  Mrv1902 05222410182D          

 18 20  0  0  0  0            999 V2000
    8.5404   -5.1433    0.0000 C   0  0  0  0  0  0  0  0  0  0  0  0
    9.2549   -5.5558    0.0000 C   0  0  0  0  0  0  0  0  0  0  0  0
    9.2549   -6.3808    0.0000 C   0  0  0  0  0  0  0  0  0  0  0  0
    8.5404   -6.7933    0.0000 C   0  0  0  0  0  0  0  0  0  0  0  0
    7.8260   -6.3808    0.0000 C   0  0  0  0  0  0  0  0  0  0  0  0
    7.1115   -6.7933    0.0000 C   0  0  0  0  0  0  0  0  0  0  0  0
    6.3970   -6.3808    0.0000 C   0  0  0  0  0  0  0  0  0  0  0  0
    5.6826   -6.7933    0.0000 C   0  0  0  0  0  0  0  0  0  0  0  0
    4.9681   -6.3808    0.0000 C   0  0  0  0  0  0  0  0  0  0  0  0
    4.9681   -5.5558    0.0000 C   0  0  0  0  0  0  0  0  0  0  0  0
    5.6826   -5.1433    0.0000 C   0  0  0  0  0  0  0  0  0  0  0  0
    6.3970   -5.5558    0.0000 C   0  0  0  0  0  0  0  0  0  0  0  0
    7.1115   -5.1433    0.0000 C   0  0  0  0  0  0  0  0  0  0  0  0
    7.8260   -5.5558    0.0000 C   0  0  0  0  0  0  0  0  0  0  0  0
    7.1115   -4.3183    0.0000 O   0  0  0  0  0  0  0  0  0  0  0  0
    7.1115   -7.6183    0.0000 O   0  0  0  0  0  0  0  0  0  0  0  0
    5.6826   -4.3183    0.0000 O   0  0  0  0  0  0  0  0  0  0  0  0
    8.5404   -4.3183    0.0000 O   0  0  0  0  0  0  0  0  0  0  0  0
  1  2  1  0  0  0  0
  2  3  2  0  0  0  0
  3  4  1  0  0  0  0
  4  5  2  0  0  0  0
  5  6  1  0  0  0  0
  6  7  1  0  0  0  0
  7  8  1  0  0  0  0
  8  9  2  0  0  0  0
  9 10  1  0  0  0  0
 10 11  2  0  0  0  0
 11 12  1  0  0  0  0
  7 12  2  0  0  0  0
 12 13  1  0  0  0  0
 13 14  1  0  0  0  0
  5 14  1  0  0  0  0
  1 14  2  0  0  0  0
 13 15  2  0  0  0  0
  6 16  2  0  0  0  0
 11 17  1  0  0  0  0
  1 18  1  0  0  0  0
M  END
>  <cdx:groupId>
58

>  <cdx:fragmentId>
5

$$$$
