29589.cdx
  Mrv1902 05222410222D          

 30 33  0  0  0  0            999 V2000
    8.9269   -8.8157    0.0000 C   0  0  0  0  0  0  0  0  0  0  0  0
    8.2124   -8.4032    0.0000 C   0  0  0  0  0  0  0  0  0  0  0  0
    7.4979   -8.8157    0.0000 C   0  0  0  0  0  0  0  0  0  0  0  0
    6.7835   -8.4032    0.0000 C   0  0  0  0  0  0  0  0  0  0  0  0
    6.7835   -7.5782    0.0000 C   0  0  0  0  0  0  0  0  0  0  0  0
    7.4979   -7.1657    0.0000 C   0  0  0  0  0  0  0  0  0  0  0  0
    8.2124   -7.5782    0.0000 C   0  0  0  0  0  0  0  0  0  0  0  0
    8.9269   -7.1657    0.0000 O   0  0  0  0  0  0  0  0  0  0  0  0
    9.6414   -7.5782    0.0000 C   0  0  0  0  0  0  0  0  0  0  0  0
   10.3558   -7.1657    0.0000 C   0  0  0  0  0  0  0  0  0  0  0  0
   11.0703   -7.5782    0.0000 C   0  0  0  0  0  0  0  0  0  0  0  0
   11.0703   -8.4032    0.0000 C   0  0  0  0  0  0  0  0  0  0  0  0
   10.3558   -8.8157    0.0000 C   0  0  0  0  0  0  0  0  0  0  0  0
    9.6414   -8.4032    0.0000 C   0  0  0  0  0  0  0  0  0  0  0  0
    8.9269   -9.6407    0.0000 O   0  0  0  0  0  0  0  0  0  0  0  0
    5.3545   -8.4032    0.0000 O   0  0  0  0  0  0  0  0  0  0  0  0
    6.0690   -8.8157    0.0000 C   0  0  2  0  0  0  0  0  0  0  0  0
    6.0690   -9.6407    0.0000 C   0  0  1  0  0  0  0  0  0  0  0  0
    5.3545  -10.0532    0.0000 C   0  0  2  0  0  0  0  0  0  0  0  0
    4.6401   -9.6407    0.0000 C   0  0  1  0  0  0  0  0  0  0  0  0
    4.6401   -8.8157    0.0000 C   0  0  1  0  0  0  0  0  0  0  0  0
    3.9256   -8.4032    0.0000 C   0  0  0  0  0  0  0  0  0  0  0  0
    3.2111   -8.8157    0.0000 O   0  0  0  0  0  0  0  0  0  0  0  0
    3.9256  -10.0532    0.0000 O   0  0  0  0  0  0  0  0  0  0  0  0
    5.3545  -10.8782    0.0000 O   0  0  0  0  0  0  0  0  0  0  0  0
    6.7835  -10.0532    0.0000 O   0  0  0  0  0  0  0  0  0  0  0  0
   10.3558   -9.6407    0.0000 O   0  0  0  0  0  0  0  0  0  0  0  0
   10.3558   -6.3407    0.0000 O   0  0  0  0  0  0  0  0  0  0  0  0
    6.0690   -7.1657    0.0000 O   0  0  0  0  0  0  0  0  0  0  0  0
    7.4979   -9.6407    0.0000 O   0  0  0  0  0  0  0  0  0  0  0  0
  1  2  1  0  0  0  0
  2  3  1  0  0  0  0
  3  4  2  0  0  0  0
  4  5  1  0  0  0  0
  5  6  2  0  0  0  0
  6  7  1  0  0  0  0
  2  7  2  0  0  0  0
  7  8  1  0  0  0  0
  8  9  1  0  0  0  0
  9 10  1  0  0  0  0
 10 11  2  0  0  0  0
 11 12  1  0  0  0  0
 12 13  2  0  0  0  0
 13 14  1  0  0  0  0
  9 14  2  0  0  0  0
  1 14  1  0  0  0  0
  1 15  2  0  0  0  0
 16 17  1  0  0  0  0
 17 18  1  0  0  0  0
 18 19  1  0  0  0  0
 19 20  1  0  0  0  0
 20 21  1  0  0  0  0
 16 21  1  0  0  0  0
 22 23  1  0  0  0  0
 21 22  1  1  0  0  0
 20 24  1  6  0  0  0
 19 25  1  1  0  0  0
 18 26  1  6  0  0  0
 17  4  1  1  0  0  0
 13 27  1  0  0  0  0
 10 28  1  0  0  0  0
  5 29  1  0  0  0  0
  3 30  1  0  0  0  0
M  END
>  <cdx:fragmentId>
219298

$$$$
