296.cdx
  Mrv1902 05222410282D          

 21 20  0  0  0  0            999 V2000
    2.2275   -7.6175    0.0000 C   0  0  0  0  0  0  0  0  0  0  0  0
    2.9420   -7.2050    0.0000 C   0  0  0  0  0  0  0  0  0  0  0  0
    3.6564   -7.6175    0.0000 C   0  0  0  0  0  0  0  0  0  0  0  0
    1.5130   -7.2050    0.0000 C   0  0  0  0  0  0  0  0  0  0  0  0
    4.3709   -7.2050    0.0000 C   0  0  0  0  0  0  0  0  0  0  0  0
    5.0854   -7.6175    0.0000 C   0  0  0  0  0  0  0  0  0  0  0  0
    5.7999   -7.2050    0.0000 C   0  0  0  0  0  0  0  0  0  0  0  0
    6.5143   -7.6175    0.0000 C   0  0  0  0  0  0  0  0  0  0  0  0
    7.2288   -7.2050    0.0000 C   0  0  0  0  0  0  0  0  0  0  0  0
    7.9433   -7.6175    0.0000 C   0  0  0  0  0  0  0  0  0  0  0  0
    8.6577   -7.2050    0.0000 C   0  0  0  0  0  0  0  0  0  0  0  0
    9.3722   -7.6175    0.0000 C   0  0  0  0  0  0  0  0  0  0  0  0
   10.0867   -7.2050    0.0000 C   0  0  0  0  0  0  0  0  0  0  0  0
   10.8012   -7.6175    0.0000 C   0  0  0  0  0  0  0  0  0  0  0  0
   11.5156   -7.2050    0.0000 C   0  0  0  0  0  0  0  0  0  0  0  0
   12.2301   -7.6175    0.0000 C   0  0  0  0  0  0  0  0  0  0  0  0
   11.5156   -6.3800    0.0000 C   0  0  0  0  0  0  0  0  0  0  0  0
   12.9446   -7.2050    0.0000 C   0  0  0  0  0  0  0  0  0  0  0  0
    2.2275   -8.4425    0.0000 C   0  0  0  0  0  0  0  0  0  0  0  0
    5.0854   -8.4425    0.0000 C   0  0  0  0  0  0  0  0  0  0  0  0
    7.9433   -8.4425    0.0000 C   0  0  0  0  0  0  0  0  0  0  0  0
  1  2  1  0  0  0  0
  2  3  1  0  0  0  0
  1  4  1  0  0  0  0
  3  5  1  0  0  0  0
  5  6  1  0  0  0  0
  6  7  1  0  0  0  0
  7  8  1  0  0  0  0
  8  9  1  0  0  0  0
  9 10  1  0  0  0  0
 10 11  1  0  0  0  0
 11 12  1  0  0  0  0
 12 13  1  0  0  0  0
 13 14  1  0  0  0  0
 14 15  1  0  0  0  0
 15 16  1  0  0  0  0
 15 17  1  0  0  0  0
 16 18  1  0  0  0  0
  1 19  1  0  0  0  0
  6 20  1  0  0  0  0
 10 21  1  0  0  0  0
M  END
>  <cdx:fragmentId>
118

$$$$
