29656.cdx
  Mrv1902 05222410272D          

  7  6  0  0  0  0            999 V2000
    3.6384   -2.7019    0.0000 C   0  0  0  0  0  0  0  0  0  0  0  0
    4.3529   -3.1144    0.0000 C   0  0  0  0  0  0  0  0  0  0  0  0
    5.0673   -2.7019    0.0000 C   0  0  0  0  0  0  0  0  0  0  0  0
    5.0673   -1.8769    0.0000 C   0  0  0  0  0  0  0  0  0  0  0  0
    2.9239   -3.1144    0.0000 O   0  0  0  0  0  0  0  0  0  0  0  0
    5.7818   -3.1144    0.0000 C   0  0  0  0  0  0  0  0  0  0  0  0
    4.3529   -3.9394    0.0000 C   0  0  0  0  0  0  0  0  0  0  0  0
  1  2  1  0  0  0  0
  2  3  1  0  0  0  0
  3  4  1  0  0  0  0
  1  5  1  0  0  0  0
  3  6  1  0  0  0  0
  2  7  1  0  0  0  0
M  END
>  <cdx:groupId>
22

>  <cdx:fragmentId>
5

$$$$
