29678.cdx
  Mrv1902 05222410262D          

  9  9  0  0  0  0            999 V2000
    7.6166   -2.4874    0.0000 O   0  0  0  0  0  0  0  0  0  0  0  0
    6.7916   -2.4874    0.0000 C   0  0  0  0  0  0  0  0  0  0  0  0
    7.2041   -1.7730    0.0000 C   0  0  0  0  0  0  0  0  0  0  0  0
    6.0771   -2.8999    0.0000 C   0  0  0  0  0  0  0  0  0  0  0  0
    5.3627   -2.4874    0.0000 C   0  0  0  0  0  0  0  0  0  0  0  0
    4.6482   -2.8999    0.0000 C   0  0  0  0  0  0  0  0  0  0  0  0
    3.9337   -2.4874    0.0000 C   0  0  0  0  0  0  0  0  0  0  0  0
    3.2192   -2.8999    0.0000 C   0  0  0  0  0  0  0  0  0  0  0  0
    2.5048   -2.4874    0.0000 C   0  0  0  0  0  0  0  0  0  0  0  0
  1  2  1  0  0  0  0
  2  3  1  0  0  0  0
  1  3  1  0  0  0  0
  4  5  1  0  0  0  0
  5  6  1  0  0  0  0
  6  7  1  0  0  0  0
  7  8  1  0  0  0  0
  8  9  2  0  0  0  0
  2  4  1  0  0  0  0
M  END
>  <cdx:groupId>
29

>  <cdx:fragmentId>
11

$$$$
