2969.cdx
  Mrv1902 05222410202D          

 12 11  0  0  0  0            999 V2000
    7.4274   -2.5033    0.0000 C   0  0  0  0  0  0  0  0  0  0  0  0
    6.7129   -2.9158    0.0000 C   0  0  0  0  0  0  0  0  0  0  0  0
    5.9985   -2.5033    0.0000 C   0  0  0  0  0  0  0  0  0  0  0  0
    5.2840   -2.9158    0.0000 C   0  0  0  0  0  0  0  0  0  0  0  0
    4.5695   -2.5033    0.0000 C   0  0  0  0  0  0  0  0  0  0  0  0
    3.8550   -2.9158    0.0000 C   0  0  0  0  0  0  0  0  0  0  0  0
    3.1406   -2.5033    0.0000 C   0  0  0  0  0  0  0  0  0  0  0  0
    2.4261   -2.9158    0.0000 C   0  0  0  0  0  0  0  0  0  0  0  0
    1.7116   -2.5033    0.0000 C   0  0  0  0  0  0  0  0  0  0  0  0
    0.9972   -2.9158    0.0000 C   0  0  0  0  0  0  0  0  0  0  0  0
    7.4274   -1.6783    0.0000 O   0  0  0  0  0  0  0  0  0  0  0  0
    8.1419   -2.9158    0.0000 O   0  0  0  0  0  0  0  0  0  0  0  0
  1  2  1  0  0  0  0
  2  3  1  0  0  0  0
  3  4  1  0  0  0  0
  4  5  1  0  0  0  0
  5  6  1  0  0  0  0
  6  7  1  0  0  0  0
  7  8  1  0  0  0  0
  8  9  1  0  0  0  0
  9 10  1  0  0  0  0
  1 11  2  0  0  0  0
  1 12  1  0  0  0  0
M  END
>  <cdx:groupId>
37

>  <cdx:fragmentId>
5

$$$$
