297.cdx
  Mrv1902 05222410282D          

 20 19  0  0  0  0            999 V2000
    2.2847   -7.3219    0.0000 C   0  0  0  0  0  0  0  0  0  0  0  0
    3.7137   -7.3219    0.0000 C   0  0  0  0  0  0  0  0  0  0  0  0
    2.9992   -6.9094    0.0000 C   0  0  0  0  0  0  0  0  0  0  0  0
    4.4281   -6.9094    0.0000 C   0  0  0  0  0  0  0  0  0  0  0  0
    5.1426   -7.3219    0.0000 C   0  0  0  0  0  0  0  0  0  0  0  0
    5.8571   -6.9094    0.0000 C   0  0  0  0  0  0  0  0  0  0  0  0
    6.5715   -7.3219    0.0000 C   0  0  0  0  0  0  0  0  0  0  0  0
    7.2860   -6.9094    0.0000 C   0  0  0  0  0  0  0  0  0  0  0  0
    8.0005   -7.3219    0.0000 C   0  0  0  0  0  0  0  0  0  0  0  0
    8.7150   -6.9094    0.0000 C   0  0  0  0  0  0  0  0  0  0  0  0
    9.4294   -7.3219    0.0000 C   0  0  0  0  0  0  0  0  0  0  0  0
   10.1439   -6.9094    0.0000 C   0  0  0  0  0  0  0  0  0  0  0  0
   10.8584   -7.3219    0.0000 C   0  0  0  0  0  0  0  0  0  0  0  0
   11.5728   -6.9094    0.0000 C   0  0  0  0  0  0  0  0  0  0  0  0
   12.2873   -7.3219    0.0000 C   0  0  0  0  0  0  0  0  0  0  0  0
   13.0018   -6.9094    0.0000 C   0  0  0  0  0  0  0  0  0  0  0  0
   13.7163   -7.3219    0.0000 O   0  0  0  0  0  0  0  0  0  0  0  0
    5.1426   -8.1469    0.0000 C   0  0  0  0  0  0  0  0  0  0  0  0
    1.5702   -6.9094    0.0000 C   0  0  0  0  0  0  0  0  0  0  0  0
    0.8558   -7.3219    0.0000 C   0  0  0  0  0  0  0  0  0  0  0  0
  2  3  1  0  0  0  0
  3  1  1  0  0  0  0
  2  4  2  0  0  0  0
  4  5  1  0  0  0  0
  5  6  1  0  0  0  0
  6  7  1  0  0  0  0
  7  8  1  0  0  0  0
  8  9  1  0  0  0  0
  9 10  1  0  0  0  0
 10 11  1  0  0  0  0
 11 12  1  0  0  0  0
 12 13  1  0  0  0  0
 13 14  1  0  0  0  0
 14 15  2  0  0  0  0
 15 16  1  0  0  0  0
 16 17  1  0  0  0  0
  5 18  1  0  0  0  0
  1 19  1  0  0  0  0
 19 20  1  0  0  0  0
M  END
>  <cdx:fragmentId>
5

$$$$
