297360.cdx
  Mrv1902 05222410282D          

 12 12  0  0  0  0            999 V2000
   14.7113  -13.1484    0.0000 C   0  0  0  0  0  0  0  0  0  0  0  0
   15.4258  -12.7359    0.0000 C   0  0  0  0  0  0  0  0  0  0  0  0
   16.1403  -13.1484    0.0000 C   0  0  0  0  0  0  0  0  0  0  0  0
   16.1403  -13.9734    0.0000 C   0  0  0  0  0  0  0  0  0  0  0  0
   15.4258  -14.3859    0.0000 C   0  0  0  0  0  0  0  0  0  0  0  0
   14.7113  -13.9734    0.0000 C   0  0  0  0  0  0  0  0  0  0  0  0
   13.9969  -12.7359    0.0000 O   0  0  0  0  0  0  0  0  0  0  0  0
   13.9969  -14.3859    0.0000 C   0  0  0  0  0  0  0  0  0  0  0  0
   16.8548  -12.7359    0.0000 C   0  0  0  0  0  0  0  0  0  0  0  0
   15.4258  -11.9109    0.0000 C   0  0  0  0  0  0  0  0  0  0  0  0
   16.8548  -14.3859    0.0000 O   0  0  0  0  0  0  0  0  0  0  0  0
   17.5692  -13.9734    0.0000 C   0  0  0  0  0  0  0  0  0  0  0  0
  1  2  1  0  0  0  0
  2  3  2  0  0  0  0
  3  4  1  0  0  0  0
  4  5  2  0  0  0  0
  5  6  1  0  0  0  0
  1  6  2  0  0  0  0
  1  7  1  0  0  0  0
  6  8  1  0  0  0  0
  3  9  1  0  0  0  0
  2 10  1  0  0  0  0
 11 12  1  0  0  0  0
  4 11  1  0  0  0  0
M  END
>  <cdx:groupId>
545

>  <cdx:fragmentId>
512

$$$$
