297330.cdx
  Mrv1902 05222410212D          

 17 19  0  0  0  0            999 V2000
    6.2778   -9.1301    0.0000 C   0  0  2  0  0  0  0  0  0  0  0  0
    6.9923   -8.7176    0.0000 C   0  0  2  0  0  0  0  0  0  0  0  0
    7.7769   -8.9726    0.0000 C   0  0  0  0  0  0  0  0  0  0  0  0
    8.2618   -8.3051    0.0000 C   0  0  0  0  0  0  0  0  0  0  0  0
    7.7769   -7.6377    0.0000 C   0  0  0  0  0  0  0  0  0  0  0  0
    6.9923   -7.8926    0.0000 C   0  0  2  0  0  0  0  0  0  0  0  0
    6.2778   -7.4801    0.0000 C   0  0  1  0  0  0  0  0  0  0  0  0
    5.5634   -7.8926    0.0000 C   0  0  0  0  0  0  0  0  0  0  0  0
    5.5634   -8.7176    0.0000 C   0  0  0  0  0  0  0  0  0  0  0  0
    5.9422   -8.3048    0.0000 C   0  0  0  0  0  0  0  0  0  0  0  0
    7.4798  -10.3703    0.0000 C   0  0  0  0  0  0  0  0  0  0  0  0
    8.0319   -9.7572    0.0000 C   0  0  0  0  0  0  0  0  0  0  0  0
    8.8388   -9.9287    0.0000 C   0  0  0  0  0  0  0  0  0  0  0  0
    7.0785   -7.0722    0.0000 C   0  0  0  0  0  0  0  0  0  0  0  0
    7.0785   -9.5381    0.0000 C   0  0  0  0  0  0  0  0  0  0  0  0
    6.2778   -9.9551    0.0000 H   0  0  0  0  0  0  0  0  0  0  0  0
    6.2778   -6.6551    0.0000 H   0  0  0  0  0  0  0  0  0  0  0  0
  1  2  1  0  0  0  0
  2  3  1  0  0  0  0
  3  4  2  0  0  0  0
  4  5  1  0  0  0  0
  5  6  1  0  0  0  0
  6  7  1  0  0  0  0
  7  8  1  0  0  0  0
  8  9  1  0  0  0  0
  1  9  1  0  0  0  0
  1 10  1  1  0  0  0
  7 10  1  1  0  0  0
  2  6  1  0  0  0  0
 11 12  1  0  0  0  0
 12 13  1  0  0  0  0
  3 12  1  0  0  0  0
  6 14  1  6  0  0  0
  2 15  1  6  0  0  0
  1 16  1  0  0  0  0
  7 17  1  0  0  0  0
M  END
>  <cdx:fragmentId>
5

$$$$
