297531.cdx
  Mrv1902 05222410232D          

 10 11  0  0  0  0            999 V2000
    7.5350   -8.0850    0.0000 C   0  0  0  0  0  0  0  0  0  0  0  0
    6.6000   -8.5250    0.0000 C   0  0  0  0  0  0  0  0  0  0  0  0
    6.1050   -8.0300    0.0000 C   0  0  0  0  0  0  0  0  0  0  0  0
    6.3800   -7.4250    0.0000 C   0  0  0  0  0  0  0  0  0  0  0  0
    7.6646   -7.1624    0.0000 C   0  0  0  0  0  0  0  0  0  0  0  0
    8.7175   -7.5075    0.0000 C   0  0  0  0  0  0  0  0  0  0  0  0
    8.4150   -8.3325    0.0000 C   0  0  0  0  0  0  0  0  0  0  0  0
    7.1775   -6.2150    0.0000 N   0  0  0  0  0  0  0  0  0  0  0  0
    5.3081   -8.2435    0.0000 O   0  0  0  0  0  0  0  0  0  0  0  0
    8.8275   -9.0470    0.0000 O   0  0  0  0  0  0  0  0  0  0  0  0
  1  2  1  0  0  0  0
  2  3  1  0  0  0  0
  3  4  1  0  0  0  0
  4  5  1  0  0  0  0
  5  6  1  0  0  0  0
  6  7  1  0  0  0  0
  1  7  1  0  0  0  0
  1  8  1  0  0  0  0
  8  5  1  0  0  0  0
  3  9  1  0  0  0  0
  7 10  1  0  0  0  0
M  END
>  <cdx:fragmentId>
142608

$$$$
