2976.cdx
  Mrv1902 05222410272D          

 18 20  0  0  0  0            999 V2000
    7.1396   -8.6632    0.0000 C   0  0  0  0  0  0  0  0  0  0  0  0
    7.3139   -7.8568    0.0000 C   0  0  2  0  0  0  0  0  0  0  0  0
    6.7922   -7.2177    0.0000 C   0  0  1  0  0  0  0  0  0  0  0  0
    5.9672   -7.2272    0.0000 C   0  0  2  0  0  0  0  0  0  0  0  0
    5.4603   -7.8781    0.0000 C   0  0  0  0  0  0  0  0  0  0  0  0
    5.6531   -8.6802    0.0000 C   0  0  0  0  0  0  0  0  0  0  0  0
    6.4005   -9.0296    0.0000 C   0  0  0  0  0  0  0  0  0  0  0  0
    7.8526   -9.0782    0.0000 C   0  0  0  0  0  0  0  0  0  0  0  0
    8.4676   -8.5283    0.0000 C   0  0  0  0  0  0  0  0  0  0  0  0
    8.1347   -7.7734    0.0000 C   0  0  2  0  0  0  0  0  0  0  0  0
    6.4408   -9.8537    0.0000 C   0  0  0  0  0  0  0  0  0  0  0  0
    6.3453   -6.5243    0.0000 C   0  0  0  0  0  0  0  0  0  0  0  0
    6.8994   -5.9131    0.0000 C   0  0  0  0  0  0  0  0  0  0  0  0
    5.7341   -5.9701    0.0000 C   0  0  0  0  0  0  0  0  0  0  0  0
    7.3464   -6.6066    0.0000 H   0  0  0  0  0  0  0  0  0  0  0  0
    7.4883   -7.0504    0.0000 H   0  0  0  0  0  0  0  0  0  0  0  0
    5.2335   -6.8501    0.0000 H   0  0  0  0  0  0  0  0  0  0  0  0
    8.6889   -7.1623    0.0000 C   0  0  0  0  0  0  0  0  0  0  0  0
  1  2  1  0  0  0  0
  2  3  1  0  0  0  0
  3  4  1  0  0  0  0
  4  5  1  0  0  0  0
  5  6  1  0  0  0  0
  6  7  1  0  0  0  0
  7  1  2  0  0  0  0
  1  8  1  0  0  0  0
  8  9  1  0  0  0  0
  9 10  1  0  0  0  0
 10  2  1  0  0  0  0
  7 11  1  0  0  0  0
  3 12  1  0  0  0  0
  4 12  1  0  0  0  0
 12 13  1  0  0  0  0
 12 14  1  0  0  0  0
  3 15  1  6  0  0  0
  2 16  1  1  0  0  0
  4 17  1  1  0  0  0
 10 18  1  1  0  0  0
M  END
>  <cdx:fragmentId>
5

$$$$
