29777.cdx
  Mrv1902 05222410232D          

 23 23  0  0  0  0            999 V2000
   12.4088   -3.5269    0.0000 C   0  0  0  0  0  0  0  0  0  0  0  0
   12.4088   -2.7019    0.0000 C   0  0  0  0  0  0  0  0  0  0  0  0
   13.1233   -2.2894    0.0000 C   0  0  0  0  0  0  0  0  0  0  0  0
   13.8378   -2.7019    0.0000 C   0  0  0  0  0  0  0  0  0  0  0  0
   13.8378   -3.5269    0.0000 C   0  0  0  0  0  0  0  0  0  0  0  0
   13.1233   -3.9394    0.0000 C   0  0  0  0  0  0  0  0  0  0  0  0
   11.6944   -3.9394    0.0000 C   0  0  0  0  0  0  0  0  0  0  0  0
   10.9799   -3.5269    0.0000 C   0  0  0  0  0  0  0  0  0  0  0  0
   10.2654   -3.9394    0.0000 C   0  0  0  0  0  0  0  0  0  0  0  0
    9.5510   -3.5269    0.0000 C   0  0  0  0  0  0  0  0  0  0  0  0
    8.8365   -3.9394    0.0000 C   0  0  0  0  0  0  0  0  0  0  0  0
    8.1220   -3.5269    0.0000 C   0  0  0  0  0  0  0  0  0  0  0  0
    7.4075   -3.9394    0.0000 C   0  0  0  0  0  0  0  0  0  0  0  0
    6.6931   -3.5269    0.0000 C   0  0  0  0  0  0  0  0  0  0  0  0
    5.9786   -3.9394    0.0000 C   0  0  0  0  0  0  0  0  0  0  0  0
    5.2641   -3.5269    0.0000 C   0  0  0  0  0  0  0  0  0  0  0  0
    4.5497   -3.9394    0.0000 C   0  0  0  0  0  0  0  0  0  0  0  0
    3.8352   -3.5269    0.0000 C   0  0  0  0  0  0  0  0  0  0  0  0
    3.1207   -3.9394    0.0000 C   0  0  0  0  0  0  0  0  0  0  0  0
    2.4063   -3.5269    0.0000 C   0  0  0  0  0  0  0  0  0  0  0  0
    1.6918   -3.9394    0.0000 C   0  0  0  0  0  0  0  0  0  0  0  0
    0.9773   -3.5269    0.0000 C   0  0  0  0  0  0  0  0  0  0  0  0
    0.2628   -3.9394    0.0000 C   0  0  0  0  0  0  0  0  0  0  0  0
  1  2  1  0  0  0  0
  2  3  1  0  0  0  0
  3  4  1  0  0  0  0
  4  5  1  0  0  0  0
  5  6  1  0  0  0  0
  1  6  1  0  0  0  0
  7  8  1  0  0  0  0
  8  9  1  0  0  0  0
  9 10  1  0  0  0  0
 10 11  1  0  0  0  0
 11 12  1  0  0  0  0
 12 13  1  0  0  0  0
 13 14  1  0  0  0  0
 14 15  1  0  0  0  0
 15 16  1  0  0  0  0
 16 17  1  0  0  0  0
 17 18  1  0  0  0  0
 18 19  1  0  0  0  0
 19 20  1  0  0  0  0
 20 21  1  0  0  0  0
 21 22  1  0  0  0  0
 22 23  1  0  0  0  0
  1  7  1  0  0  0  0
M  END
>  <cdx:groupId>
71

>  <cdx:fragmentId>
17

$$$$
