298.cdx
  Mrv1902 05222410192D          

 15 14  0  0  0  0            999 V2000
    2.2505   -7.7138    0.0000 C   0  0  0  0  0  0  0  0  0  0  0  0
    1.5360   -7.3012    0.0000 C   0  0  0  0  0  0  0  0  0  0  0  0
    2.9650   -7.3012    0.0000 C   0  0  0  0  0  0  0  0  0  0  0  0
    3.6795   -7.7138    0.0000 C   0  0  0  0  0  0  0  0  0  0  0  0
    4.3939   -7.3012    0.0000 C   0  0  0  0  0  0  0  0  0  0  0  0
    5.1084   -7.7138    0.0000 C   0  0  0  0  0  0  0  0  0  0  0  0
    5.8229   -7.3012    0.0000 C   0  0  0  0  0  0  0  0  0  0  0  0
    6.5373   -7.7138    0.0000 C   0  0  0  0  0  0  0  0  0  0  0  0
    7.2518   -7.3012    0.0000 C   0  0  0  0  0  0  0  0  0  0  0  0
    7.9663   -7.7138    0.0000 C   0  0  0  0  0  0  0  0  0  0  0  0
    8.6808   -7.3012    0.0000 C   0  0  0  0  0  0  0  0  0  0  0  0
    9.3952   -7.7138    0.0000 C   0  0  0  0  0  0  0  0  0  0  0  0
   10.1097   -7.3012    0.0000 C   0  0  0  0  0  0  0  0  0  0  0  0
   10.8242   -7.7138    0.0000 C   0  0  0  0  0  0  0  0  0  0  0  0
   11.5386   -7.3012    0.0000 O   0  0  0  0  0  0  0  0  0  0  0  0
  1  2  2  0  0  0  0
  1  3  1  0  0  0  0
  3  4  1  0  0  0  0
  4  5  1  0  0  0  0
  5  6  1  0  0  0  0
  6  7  1  0  0  0  0
  7  8  1  0  0  0  0
  8  9  1  0  0  0  0
  9 10  1  0  0  0  0
 10 11  1  0  0  0  0
 11 12  1  0  0  0  0
 12 13  1  0  0  0  0
 13 14  1  0  0  0  0
 14 15  2  0  0  0  0
M  END
>  <cdx:fragmentId>
3

$$$$
