2980.cdx
  Mrv1902 05222410192D          

 13 14  0  0  0  0            999 V2000
    6.8321   -7.4869    0.0000 C   0  0  0  0  0  0  0  0  0  0  0  0
    6.8321   -8.6419    0.0000 C   0  0  0  0  0  0  0  0  0  0  0  0
    7.8324   -8.0644    0.0000 C   0  0  0  0  0  0  0  0  0  0  0  0
    8.6574   -8.0644    0.0000 C   0  0  0  0  0  0  0  0  0  0  0  0
    7.0456   -6.6900    0.0000 C   0  0  0  0  0  0  0  0  0  0  0  0
    6.0352   -7.2733    0.0000 C   0  0  0  0  0  0  0  0  0  0  0  0
    7.8425   -6.4765    0.0000 C   0  0  0  0  0  0  0  0  0  0  0  0
    8.0560   -5.6796    0.0000 C   0  0  0  0  0  0  0  0  0  0  0  0
    7.4727   -5.0962    0.0000 C   0  0  0  0  0  0  0  0  0  0  0  0
    6.6758   -5.3097    0.0000 C   0  0  0  0  0  0  0  0  0  0  0  0
    6.4623   -6.1066    0.0000 C   0  0  0  0  0  0  0  0  0  0  0  0
    5.4518   -7.8567    0.0000 C   0  0  0  0  0  0  0  0  0  0  0  0
    5.8217   -6.4765    0.0000 O   0  0  0  0  0  0  0  0  0  0  0  0
  1  2  1  0  0  0  0
  2  3  1  0  0  0  0
  3  1  1  0  0  0  0
  3  4  2  0  0  0  0
  1  5  1  0  0  0  0
  1  6  1  0  0  0  0
  5  7  2  0  0  0  0
  7  8  1  0  0  0  0
  8  9  2  0  0  0  0
  9 10  1  0  0  0  0
 10 11  2  0  0  0  0
 11  5  1  0  0  0  0
  6 12  1  0  0  0  0
  6 13  2  0  0  0  0
M  END
>  <cdx:fragmentId>
5

$$$$
