298189.cdx
  Mrv1902 05222410212D          

 22 22  0  0  0  0            999 V2000
    3.6982  -16.1000    0.0000 O   0  0  0  0  0  0  0  0  0  0  0  0
    2.9837  -14.8625    0.0000 C   0  0  0  0  0  0  0  0  0  0  0  0
    3.6982  -14.4500    0.0000 O   0  0  0  0  0  0  0  0  0  0  0  0
    5.8416  -15.6875    0.0000 C   0  0  0  0  0  0  0  0  0  0  0  0
    5.1272  -16.1000    0.0000 C   0  0  0  0  0  0  0  0  0  0  0  0
    4.4127  -15.6875    0.0000 C   0  0  0  0  0  0  0  0  0  0  0  0
    4.4127  -14.8625    0.0000 C   0  0  0  0  0  0  0  0  0  0  0  0
    5.1272  -14.4500    0.0000 C   0  0  0  0  0  0  0  0  0  0  0  0
    5.8416  -14.8625    0.0000 C   0  0  0  0  0  0  0  0  0  0  0  0
    7.9850  -13.6250    0.0000 O   0  0  0  0  0  0  0  0  0  0  0  0
    9.4140  -12.8000    0.0000 O   0  0  0  0  0  0  0  0  0  0  0  0
   10.2390  -13.6250    0.0000 O   0  0  0  0  0  0  0  0  0  0  0  0
    8.5890  -13.6250    0.0000 O   0  0  0  0  0  0  0  0  0  0  0  0
    9.4140  -13.6250    0.0000 S   0  0  0  0  0  0  0  0  0  0  0  0
    6.5561  -14.4500    0.0000 C   0  0  0  0  0  0  0  0  0  0  0  0
    7.2706  -14.8625    0.0000 C   0  0  0  0  0  0  0  0  0  0  0  0
    7.9850  -14.4500    0.0000 C   0  0  0  0  0  0  0  0  0  0  0  0
    8.6995  -14.8625    0.0000 C   0  0  0  0  0  0  0  0  0  0  0  0
    9.4140  -14.4500    0.0000 C   0  0  0  0  0  0  0  0  0  0  0  0
   10.1285  -14.8625    0.0000 C   0  0  0  0  0  0  0  0  0  0  0  0
   10.8429  -14.4500    0.0000 C   0  0  0  0  0  0  0  0  0  0  0  0
   11.5574  -14.8625    0.0000 C   0  0  0  0  0  0  0  0  0  0  0  0
 15  9  1  0  0  0  0
  6  1  1  0  0  0  0
  7  3  1  0  0  0  0
  3  2  1  0  0  0  0
  9  4  2  0  0  0  0
  5  4  1  0  0  0  0
  6  5  2  0  0  0  0
  7  6  1  0  0  0  0
  8  7  2  0  0  0  0
  9  8  1  0  0  0  0
 17 10  2  0  0  0  0
 19 14  1  0  0  0  0
 14 11  1  0  0  0  0
 14 12  2  0  0  0  0
 14 13  2  0  0  0  0
 16 15  1  0  0  0  0
 17 16  1  0  0  0  0
 18 17  1  0  0  0  0
 19 18  1  0  0  0  0
 20 19  1  0  0  0  0
 21 20  1  0  0  0  0
 22 21  1  0  0  0  0
M  END
>  <cdx:groupId>
142705

>  <cdx:fragmentId>
142642

$$$$
