298372.cdx
  Mrv1902 05222410232D          

 23 23  0  0  0  0            999 V2000
   10.5261   -7.3914    0.0000 C   0  0  0  0  0  0  0  0  0  0  0  0
    9.8116   -7.8039    0.0000 C   0  0  0  0  0  0  0  0  0  0  0  0
    9.0972   -7.3914    0.0000 C   0  0  0  0  0  0  0  0  0  0  0  0
    9.0972   -6.5664    0.0000 C   0  0  0  0  0  0  0  0  0  0  0  0
   10.5261   -6.5664    0.0000 O   0  0  0  0  0  0  0  0  0  0  0  0
   11.2406   -7.8039    0.0000 O   0  0  0  0  0  0  0  0  0  0  0  0
    8.3827   -6.1539    0.0000 O   0  0  0  0  0  0  0  0  0  0  0  0
    9.8116   -6.1539    0.0000 O   0  0  0  0  0  0  0  0  0  0  0  0
    8.3827   -7.8039    0.0000 O   0  0  0  0  0  0  0  0  0  0  0  0
    7.6682   -7.3914    0.0000 C   0  0  0  0  0  0  0  0  0  0  0  0
    6.9538   -7.8039    0.0000 C   0  0  0  0  0  0  0  0  0  0  0  0
    6.2393   -7.3914    0.0000 C   0  0  0  0  0  0  0  0  0  0  0  0
    7.6682   -6.5664    0.0000 O   0  0  0  0  0  0  0  0  0  0  0  0
    5.5248   -7.8039    0.0000 C   0  0  0  0  0  0  0  0  0  0  0  0
    4.8104   -7.3914    0.0000 C   0  0  0  0  0  0  0  0  0  0  0  0
    4.0959   -7.8039    0.0000 C   0  0  0  0  0  0  0  0  0  0  0  0
    4.0959   -8.6289    0.0000 C   0  0  0  0  0  0  0  0  0  0  0  0
    4.8104   -9.0414    0.0000 C   0  0  0  0  0  0  0  0  0  0  0  0
    5.5248   -8.6289    0.0000 C   0  0  0  0  0  0  0  0  0  0  0  0
    3.3814   -7.3914    0.0000 O   0  0  0  0  0  0  0  0  0  0  0  0
    2.6669   -7.8039    0.0000 C   0  0  0  0  0  0  0  0  0  0  0  0
    3.3814   -9.0414    0.0000 O   0  0  0  0  0  0  0  0  0  0  0  0
    9.8116   -8.6289    0.0000 O   0  0  0  0  0  0  0  0  0  0  0  0
  1  2  1  0  0  0  0
  2  3  1  0  0  0  0
  3  4  1  0  0  0  0
  1  5  2  0  0  0  0
  1  6  1  0  0  0  0
  4  7  2  0  0  0  0
  4  8  1  0  0  0  0
 10 11  1  0  0  0  0
 11 12  2  0  0  0  0
 10 13  2  0  0  0  0
 14 15  1  0  0  0  0
 15 16  2  0  0  0  0
 16 17  1  0  0  0  0
 17 18  2  0  0  0  0
 18 19  1  0  0  0  0
 14 19  2  0  0  0  0
 20 21  1  0  0  0  0
 16 20  1  0  0  0  0
 17 22  1  0  0  0  0
 12 14  1  0  0  0  0
  9 10  1  0  0  0  0
  3  9  1  0  0  0  0
  2 23  1  0  0  0  0
M  END
>  <cdx:groupId>
142779

>  <cdx:fragmentId>
142739

$$$$
