29862.cdx
  Mrv1902 05222410262D          

 22 21  0  0  0  0            999 V2000
    1.6225   -9.2125    0.0000 C   0  0  0  0  0  0  0  0  0  0  0  0
    2.3370   -8.8000    0.0000 C   0  0  0  0  0  0  0  0  0  0  0  0
    3.0514   -9.2125    0.0000 C   0  0  0  0  0  0  0  0  0  0  0  0
    3.7659   -8.8000    0.0000 C   0  0  0  0  0  0  0  0  0  0  0  0
    4.4804   -9.2125    0.0000 C   0  0  0  0  0  0  0  0  0  0  0  0
    5.1949   -8.8000    0.0000 C   0  0  0  0  0  0  0  0  0  0  0  0
    5.9093   -9.2125    0.0000 C   0  0  0  0  0  0  0  0  0  0  0  0
    6.6238   -8.8000    0.0000 C   0  0  0  0  0  0  0  0  0  0  0  0
    7.3383   -9.2125    0.0000 C   0  0  0  0  0  0  0  0  0  0  0  0
    8.0527   -8.8000    0.0000 C   0  0  0  0  0  0  0  0  0  0  0  0
    8.7672   -9.2125    0.0000 C   0  0  0  0  0  0  0  0  0  0  0  0
    9.4817   -8.8000    0.0000 C   0  0  0  0  0  0  0  0  0  0  0  0
   10.1962   -9.2125    0.0000 C   0  0  0  0  0  0  0  0  0  0  0  0
   10.9106   -8.8000    0.0000 C   0  0  0  0  0  0  0  0  0  0  0  0
   11.6251   -9.2125    0.0000 C   0  0  0  0  0  0  0  0  0  0  0  0
    0.9080   -8.8000    0.0000 C   0  0  0  0  0  0  0  0  0  0  0  0
   12.3396   -8.8000    0.0000 C   0  0  0  0  0  0  0  0  0  0  0  0
   11.6251  -10.0375    0.0000 O   0  0  0  0  0  0  0  0  0  0  0  0
   13.0540   -9.2125    0.0000 C   0  0  0  0  0  0  0  0  0  0  0  0
   12.3396   -7.9750    0.0000 O   0  0  0  0  0  0  0  0  0  0  0  0
   13.7685   -8.8000    0.0000 O   0  0  0  0  0  0  0  0  0  0  0  0
    0.1936   -9.2125    0.0000 C   0  0  0  0  0  0  0  0  0  0  0  0
  1  2  1  0  0  0  0
  2  3  1  0  0  0  0
  3  4  1  0  0  0  0
  4  5  1  0  0  0  0
  5  6  1  0  0  0  0
  6  7  1  0  0  0  0
  7  8  1  0  0  0  0
  8  9  1  0  0  0  0
  9 10  1  0  0  0  0
 10 11  1  0  0  0  0
 11 12  1  0  0  0  0
 12 13  1  0  0  0  0
 13 14  1  0  0  0  0
 14 15  1  0  0  0  0
  1 16  1  0  0  0  0
 15 17  1  0  0  0  0
 15 18  2  0  0  0  0
 17 19  1  0  0  0  0
 17 20  1  0  0  0  0
 19 21  1  0  0  0  0
 16 22  1  0  0  0  0
M  END
>  <cdx:fragmentId>
213134

$$$$
