29860.cdx
  Mrv1902 05222410272D          

 18 20  0  0  0  0            999 V2000
    4.1255   -8.1400    0.0000 C   0  0  0  0  0  0  0  0  0  0  0  0
    4.1255   -8.9650    0.0000 C   0  0  0  0  0  0  0  0  0  0  0  0
    4.8400   -9.3775    0.0000 C   0  0  0  0  0  0  0  0  0  0  0  0
    5.5545   -8.9650    0.0000 C   0  0  0  0  0  0  0  0  0  0  0  0
    5.5545   -8.1400    0.0000 C   0  0  0  0  0  0  0  0  0  0  0  0
    4.8400   -7.7275    0.0000 C   0  0  0  0  0  0  0  0  0  0  0  0
    6.2689   -9.3775    0.0000 C   0  0  2  0  0  0  0  0  0  0  0  0
    6.9834   -8.9650    0.0000 C   0  0  2  0  0  0  0  0  0  0  0  0
    6.9834   -8.1400    0.0000 C   0  0  2  0  0  0  0  0  0  0  0  0
    6.2689   -7.7275    0.0000 C   0  0  1  0  0  0  0  0  0  0  0  0
    7.6979   -8.5525    0.0000 O   0  0  0  0  0  0  0  0  0  0  0  0
    7.6979   -9.3775    0.0000 C   0  0  0  0  0  0  0  0  0  0  0  0
    7.6979   -7.7275    0.0000 C   0  0  0  0  0  0  0  0  0  0  0  0
    6.2689   -6.9025    0.0000 O   0  0  0  0  0  0  0  0  0  0  0  0
    6.2689  -10.2025    0.0000 O   0  0  0  0  0  0  0  0  0  0  0  0
    4.8400   -6.9025    0.0000 O   0  0  0  0  0  0  0  0  0  0  0  0
    8.4124   -8.1400    0.0000 C   0  0  0  0  0  0  0  0  0  0  0  0
    7.6979   -6.9025    0.0000 O   0  0  0  0  0  0  0  0  0  0  0  0
  1  2  2  0  0  0  0
  2  3  1  0  0  0  0
  3  4  2  0  0  0  0
  4  5  1  0  0  0  0
  5  6  2  0  0  0  0
  6  1  1  0  0  0  0
  4  7  1  0  0  0  0
  7  8  1  0  0  0  0
  8  9  1  0  0  0  0
  9 10  1  0  0  0  0
 10  5  1  0  0  0  0
  9 11  1  6  0  0  0
  8 12  1  1  0  0  0
  9 13  1  1  0  0  0
 10 14  1  6  0  0  0
  7 15  1  6  0  0  0
  6 16  1  0  0  0  0
  8 11  1  6  0  0  0
 13 17  1  0  0  0  0
 13 18  2  0  0  0  0
M  END
>  <cdx:fragmentId>
212985

$$$$
