2987.cdx
  Mrv1902 05222410182D          

 38 40  0  0  0  0            999 V2000
   12.2982  -11.7969    0.0000 C   0  0  0  0  0  0  0  0  0  0  0  0
   11.5712  -11.4069    0.0000 O   0  0  0  0  0  0  0  0  0  0  0  0
   11.6227  -13.0561    0.0000 O   0  0  0  0  0  0  0  0  0  0  0  0
    9.4674  -12.7107    0.0000 C   0  0  0  0  0  0  0  0  0  0  0  0
   10.1944  -13.1007    0.0000 C   0  0  0  0  0  0  0  0  0  0  0  0
   10.8957  -12.6661    0.0000 C   0  0  0  0  0  0  0  0  0  0  0  0
    3.8381   -3.3214    0.0000 C   0  0  0  0  0  0  0  0  0  0  0  0
    3.8381   -4.1464    0.0000 C   0  0  0  0  0  0  0  0  0  0  0  0
    4.5526   -4.5589    0.0000 C   0  0  0  0  0  0  0  0  0  0  0  0
    5.2671   -4.1464    0.0000 C   0  0  0  0  0  0  0  0  0  0  0  0
    5.2671   -3.3214    0.0000 C   0  0  0  0  0  0  0  0  0  0  0  0
    4.5526   -2.9089    0.0000 C   0  0  0  0  0  0  0  0  0  0  0  0
    4.5526   -2.0839    0.0000 O   0  0  0  0  0  0  0  0  0  0  0  0
    5.9815   -2.9089    0.0000 O   0  0  0  0  0  0  0  0  0  0  0  0
    4.5526   -5.3839    0.0000 C   0  0  0  0  0  0  0  0  0  0  0  0
    5.2671   -5.7964    0.0000 C   0  0  0  0  0  0  0  0  0  0  0  0
    5.2671   -6.6214    0.0000 C   0  0  0  0  0  0  0  0  0  0  0  0
    5.9815   -7.0339    0.0000 O   0  0  0  0  0  0  0  0  0  0  0  0
    4.5526   -7.0339    0.0000 O   0  0  0  0  0  0  0  0  0  0  0  0
   10.8699  -11.8415    0.0000 C   0  0  0  0  0  0  0  0  0  0  0  0
   10.1429  -11.4515    0.0000 C   0  0  0  0  0  0  0  0  0  0  0  0
    7.2607  -10.7161    0.0000 O   0  0  0  0  0  0  0  0  0  0  0  0
    9.4417  -11.8861    0.0000 C   0  0  0  0  0  0  0  0  0  0  0  0
    8.7147  -11.4961    0.0000 C   0  0  0  0  0  0  0  0  0  0  0  0
    8.6890  -10.6715    0.0000 C   0  0  0  0  0  0  0  0  0  0  0  0
    7.9620  -10.2815    0.0000 C   0  0  0  0  0  0  0  0  0  0  0  0
    7.9362   -9.4569    0.0000 O   0  0  0  0  0  0  0  0  0  0  0  0
    5.0704   -9.5104    0.0000 O   0  0  0  0  0  0  0  0  0  0  0  0
    6.5164  -10.3051    0.0000 O   0  0  0  0  0  0  0  0  0  0  0  0
    5.7586   -8.2581    0.0000 C   0  0  0  0  0  0  0  0  0  0  0  0
    5.7760   -9.0829    0.0000 C   0  0  2  0  0  0  0  0  0  0  0  0
    6.4990   -9.4803    0.0000 C   0  0  1  0  0  0  0  0  0  0  0  0
    7.2046   -9.0528    0.0000 C   0  0  1  0  0  0  0  0  0  0  0  0
    7.1872   -8.2280    0.0000 C   0  0  0  0  0  0  0  0  0  0  0  0
    6.4642   -7.8306    0.0000 C   0  0  2  0  0  0  0  0  0  0  0  0
    6.8767   -7.1162    0.0000 C   0  0  0  0  0  0  0  0  0  0  0  0
    6.4642   -6.4017    0.0000 O   0  0  0  0  0  0  0  0  0  0  0  0
    7.7017   -7.1162    0.0000 O   0  0  0  0  0  0  0  0  0  0  0  0
 33 27  1  1  0  0  0
  2  1  1  0  0  0  0
 20  2  1  0  0  0  0
  6  3  1  0  0  0  0
  4 23  1  0  0  0  0
  5  4  2  0  0  0  0
  6  5  1  0  0  0  0
 20  6  2  0  0  0  0
 21 20  1  0  0  0  0
 23 21  2  0  0  0  0
  7  8  2  0  0  0  0
  8  9  1  0  0  0  0
  9 10  2  0  0  0  0
 10 11  1  0  0  0  0
 11 12  2  0  0  0  0
 12  7  1  0  0  0  0
 12 13  1  0  0  0  0
 11 14  1  0  0  0  0
  9 15  1  0  0  0  0
 15 16  2  0  0  0  0
 16 17  1  0  0  0  0
 17 18  1  0  0  0  0
 17 19  2  0  0  0  0
 35 18  1  1  0  0  0
 26 22  2  0  0  0  0
 24 23  1  0  0  0  0
 25 24  2  0  0  0  0
 26 25  1  0  0  0  0
 27 26  1  0  0  0  0
 31 28  1  6  0  0  0
 32 29  1  1  0  0  0
 30 35  1  0  0  0  0
 31 30  1  0  0  0  0
 32 31  1  0  0  0  0
 33 32  1  0  0  0  0
 34 33  1  0  0  0  0
 35 34  1  0  0  0  0
 35 36  1  0  0  0  0
 36 37  2  0  0  0  0
 36 38  1  0  0  0  0
M  END
>  <cdx:fragmentId>
133

$$$$
