2988.cdx
  Mrv1902 05222410272D          

 38 40  0  0  0  0            999 V2000
    3.4954  -12.8648    0.0000 C   0  0  0  0  0  0  0  0  0  0  0  0
    4.2099  -12.4523    0.0000 O   0  0  0  0  0  0  0  0  0  0  0  0
    2.7810  -11.6273    0.0000 O   0  0  0  0  0  0  0  0  0  0  0  0
    4.2099   -9.9773    0.0000 C   0  0  0  0  0  0  0  0  0  0  0  0
    3.4954  -10.3898    0.0000 C   0  0  0  0  0  0  0  0  0  0  0  0
    3.4954  -11.2148    0.0000 C   0  0  0  0  0  0  0  0  0  0  0  0
    4.2099  -11.6273    0.0000 C   0  0  0  0  0  0  0  0  0  0  0  0
    4.9244  -11.2148    0.0000 C   0  0  0  0  0  0  0  0  0  0  0  0
    7.0678   -9.1523    0.0000 O   0  0  0  0  0  0  0  0  0  0  0  0
    4.9244  -10.3898    0.0000 C   0  0  0  0  0  0  0  0  0  0  0  0
    5.6388   -9.9773    0.0000 C   0  0  0  0  0  0  0  0  0  0  0  0
    6.3533  -10.3898    0.0000 C   0  0  0  0  0  0  0  0  0  0  0  0
    7.0678   -9.9773    0.0000 C   0  0  0  0  0  0  0  0  0  0  0  0
    9.1984   -8.7244    0.0000 C   0  0  2  0  0  0  0  0  0  0  0  0
    6.5723   -4.2152    0.0000 C   0  0  0  0  0  0  0  0  0  0  0  0
    6.5723   -5.0402    0.0000 C   0  0  0  0  0  0  0  0  0  0  0  0
    7.2868   -5.4527    0.0000 C   0  0  0  0  0  0  0  0  0  0  0  0
    8.0012   -5.0402    0.0000 C   0  0  0  0  0  0  0  0  0  0  0  0
    8.0012   -4.2152    0.0000 C   0  0  0  0  0  0  0  0  0  0  0  0
    7.2868   -3.8027    0.0000 C   0  0  0  0  0  0  0  0  0  0  0  0
    7.2868   -2.9777    0.0000 O   0  0  0  0  0  0  0  0  0  0  0  0
    8.7157   -3.8027    0.0000 O   0  0  0  0  0  0  0  0  0  0  0  0
    7.2868   -6.2777    0.0000 C   0  0  0  0  0  0  0  0  0  0  0  0
    8.0012   -6.6902    0.0000 C   0  0  0  0  0  0  0  0  0  0  0  0
   10.6273  -10.3744    0.0000 O   0  0  0  0  0  0  0  0  0  0  0  0
    7.7694  -10.3744    0.0000 O   0  0  0  0  0  0  0  0  0  0  0  0
    9.1984  -11.1994    0.0000 O   0  0  0  0  0  0  0  0  0  0  0  0
    8.0012   -7.5152    0.0000 C   0  0  0  0  0  0  0  0  0  0  0  0
    8.7157   -7.9277    0.0000 O   0  0  0  0  0  0  0  0  0  0  0  0
    7.2868   -7.9277    0.0000 O   0  0  0  0  0  0  0  0  0  0  0  0
    8.4839   -9.1369    0.0000 C   0  0  0  0  0  0  0  0  0  0  0  0
    8.4839   -9.9619    0.0000 C   0  0  2  0  0  0  0  0  0  0  0  0
    9.1984  -10.3744    0.0000 C   0  0  1  0  0  0  0  0  0  0  0  0
    9.9128   -9.9619    0.0000 C   0  0  1  0  0  0  0  0  0  0  0  0
    9.9128   -9.1369    0.0000 C   0  0  0  0  0  0  0  0  0  0  0  0
    9.6109   -8.0099    0.0000 C   0  0  0  0  0  0  0  0  0  0  0  0
    9.1984   -7.2954    0.0000 O   0  0  0  0  0  0  0  0  0  0  0  0
   10.4359   -8.0099    0.0000 O   0  0  0  0  0  0  0  0  0  0  0  0
 13 26  1  0  0  0  0
  2  1  1  0  0  0  0
  7  2  1  0  0  0  0
  6  3  1  0  0  0  0
  4 10  1  0  0  0  0
  5  4  2  0  0  0  0
  6  5  1  0  0  0  0
  7  6  2  0  0  0  0
  8  7  1  0  0  0  0
 10  8  2  0  0  0  0
 13  9  2  0  0  0  0
 11 10  1  0  0  0  0
 12 11  2  0  0  0  0
 13 12  1  0  0  0  0
 15 16  2  0  0  0  0
 16 17  1  0  0  0  0
 17 18  2  0  0  0  0
 18 19  1  0  0  0  0
 19 20  2  0  0  0  0
 20 15  1  0  0  0  0
 20 21  1  0  0  0  0
 19 22  1  0  0  0  0
 17 23  1  0  0  0  0
 23 24  2  0  0  0  0
 34 25  1  1  0  0  0
 32 26  1  6  0  0  0
 33 27  1  1  0  0  0
 24 28  1  0  0  0  0
 28 29  1  0  0  0  0
 28 30  2  0  0  0  0
 31 14  1  0  0  0  0
 32 31  1  0  0  0  0
 33 32  1  0  0  0  0
 34 33  1  0  0  0  0
 35 34  1  0  0  0  0
 14 35  1  0  0  0  0
 14 29  1  1  0  0  0
 14 36  1  0  0  0  0
 36 37  2  0  0  0  0
 36 38  1  0  0  0  0
M  END
>  <cdx:fragmentId>
133

$$$$
