3461.cdx
  Mrv1902 05222410192D          

 24 23  0  0  0  0            999 V2000
    3.7025   -9.6054    0.0000 C   0  0  0  0  0  0  0  0  0  0  0  0
    3.7025   -8.7804    0.0000 C   0  0  0  0  0  0  0  0  0  0  0  0
    4.4170   -8.3679    0.0000 C   0  0  0  0  0  0  0  0  0  0  0  0
    4.4170  -10.0179    0.0000 C   0  0  0  0  0  0  0  0  0  0  0  0
    4.4170  -10.8429    0.0000 C   0  0  0  0  0  0  0  0  0  0  0  0
    4.4170   -7.5429    0.0000 C   0  0  0  0  0  0  0  0  0  0  0  0
    5.1315   -7.1304    0.0000 C   0  0  0  0  0  0  0  0  0  0  0  0
    5.8459   -7.5429    0.0000 C   0  0  0  0  0  0  0  0  0  0  0  0
    5.8459   -8.3679    0.0000 C   0  0  0  0  0  0  0  0  0  0  0  0
    6.5604   -8.7804    0.0000 C   0  0  0  0  0  0  0  0  0  0  0  0
    7.2749   -8.3679    0.0000 C   0  0  0  0  0  0  0  0  0  0  0  0
    7.9893   -8.7804    0.0000 C   0  0  0  0  0  0  0  0  0  0  0  0
    8.7038   -8.3679    0.0000 C   0  0  0  0  0  0  0  0  0  0  0  0
    8.7038   -7.5429    0.0000 C   0  0  0  0  0  0  0  0  0  0  0  0
    9.4183   -7.1304    0.0000 C   0  0  0  0  0  0  0  0  0  0  0  0
    9.4183   -6.3054    0.0000 C   0  0  0  0  0  0  0  0  0  0  0  0
    8.7038   -5.8929    0.0000 C   0  0  0  0  0  0  0  0  0  0  0  0
    8.7038   -5.0679    0.0000 C   0  0  0  0  0  0  0  0  0  0  0  0
    7.9893   -4.6554    0.0000 C   0  0  0  0  0  0  0  0  0  0  0  0
    7.2749   -5.0679    0.0000 C   0  0  0  0  0  0  0  0  0  0  0  0
    6.5604   -4.6554    0.0000 C   0  0  0  0  0  0  0  0  0  0  0  0
    5.8459   -5.0679    0.0000 C   0  0  0  0  0  0  0  0  0  0  0  0
    5.1315   -4.6554    0.0000 O   0  0  0  0  0  0  0  0  0  0  0  0
    5.8459   -5.8929    0.0000 O   0  0  0  0  0  0  0  0  0  0  0  0
  1  2  2  0  0  0  0
  2  3  1  0  0  0  0
  1  4  1  0  0  0  0
  4  5  1  0  0  0  0
  3  6  1  0  0  0  0
  6  7  2  0  0  0  0
  7  8  1  0  0  0  0
  8  9  1  0  0  0  0
  9 10  2  0  0  0  0
 10 11  1  0  0  0  0
 11 12  1  0  0  0  0
 12 13  2  0  0  0  0
 13 14  1  0  0  0  0
 14 15  1  0  0  0  0
 15 16  2  0  0  0  0
 16 17  1  0  0  0  0
 17 18  1  0  0  0  0
 18 19  2  0  0  0  0
 19 20  1  0  0  0  0
 20 21  1  0  0  0  0
 21 22  1  0  0  0  0
 22 23  1  0  0  0  0
 22 24  2  0  0  0  0
M  END
>  <cdx:fragmentId>
3

$$$$
