15299003.cdx
  Mrv1902 05222410262D          

 45 49  0  0  0  0            999 V2000
   12.1352   -8.2935    0.0000 C   0  0  0  0  0  0  0  0  0  0  0  0
   12.1352   -9.1185    0.0000 C   0  0  0  0  0  0  0  0  0  0  0  0
   11.4207   -9.5310    0.0000 C   0  0  0  0  0  0  0  0  0  0  0  0
   11.4207  -10.3560    0.0000 C   0  0  0  0  0  0  0  0  0  0  0  0
   12.8496   -7.8810    0.0000 O   0  0  0  0  0  0  0  0  0  0  0  0
   12.8496   -9.5310    0.0000 C   0  0  0  0  0  0  0  0  0  0  0  0
    9.5068  -10.5135    0.0000 C   0  0  0  0  0  0  0  0  0  0  0  0
    9.9917  -11.1810    0.0000 C   0  0  0  0  0  0  0  0  0  0  0  0
    9.2773  -10.7685    0.0000 O   0  0  0  0  0  0  0  0  0  0  0  0
    8.5628  -11.1810    0.0000 C   0  0  0  0  0  0  0  0  0  0  0  0
    7.8483  -10.7685    0.0000 C   0  0  0  0  0  0  0  0  0  0  0  0
    7.1339  -11.1810    0.0000 C   0  0  0  0  0  0  0  0  0  0  0  0
    7.1339  -12.0060    0.0000 C   0  0  0  0  0  0  0  0  0  0  0  0
    7.8483  -12.4185    0.0000 C   0  0  0  0  0  0  0  0  0  0  0  0
    8.5628  -12.0060    0.0000 C   0  0  0  0  0  0  0  0  0  0  0  0
    9.2773  -12.4185    0.0000 C   0  0  0  0  0  0  0  0  0  0  0  0
    9.9917  -12.0060    0.0000 C   0  0  0  0  0  0  0  0  0  0  0  0
   10.7062  -12.4185    0.0000 C   0  0  0  0  0  0  0  0  0  0  0  0
   11.4207  -12.0060    0.0000 C   0  0  0  0  0  0  0  0  0  0  0  0
   11.4207  -11.1810    0.0000 C   0  0  0  0  0  0  0  0  0  0  0  0
   10.7062  -10.7685    0.0000 C   0  0  0  0  0  0  0  0  0  0  0  0
   10.6765   -9.9440    0.0000 O   0  0  0  0  0  0  0  0  0  0  0  0
    9.8696   -9.7725    0.0000 C   0  0  0  0  0  0  0  0  0  0  0  0
   10.3698  -10.4947    0.0000 C   0  0  0  0  0  0  0  0  0  0  0  0
   12.1352  -10.7685    0.0000 O   0  0  0  0  0  0  0  0  0  0  0  0
    9.2773  -13.2435    0.0000 O   0  0  0  0  0  0  0  0  0  0  0  0
    7.8483   -9.9435    0.0000 C   0  0  0  0  0  0  0  0  0  0  0  0
    7.1339   -9.5310    0.0000 C   0  0  0  0  0  0  0  0  0  0  0  0
    7.1339   -8.7060    0.0000 C   0  0  0  0  0  0  0  0  0  0  0  0
    7.8483   -8.2935    0.0000 C   0  0  0  0  0  0  0  0  0  0  0  0
    6.4194   -8.2935    0.0000 C   0  0  0  0  0  0  0  0  0  0  0  0
    9.1551   -9.3600    0.0000 C   0  0  0  0  0  0  0  0  0  0  0  0
    9.8696   -8.9475    0.0000 C   0  0  0  0  0  0  0  0  0  0  0  0
    7.8483  -13.2435    0.0000 O   0  0  0  0  0  0  0  0  0  0  0  0
    6.4194  -10.7685    0.0000 O   0  0  0  0  0  0  0  0  0  0  0  0
    6.4194  -12.4185    0.0000 C   0  0  0  0  0  0  0  0  0  0  0  0
    5.7049  -12.0060    0.0000 C   0  0  0  0  0  0  0  0  0  0  0  0
    4.9904  -12.4185    0.0000 C   0  0  0  0  0  0  0  0  0  0  0  0
    4.2760  -12.0060    0.0000 C   0  0  0  0  0  0  0  0  0  0  0  0
    3.5615  -12.4185    0.0000 C   0  0  0  0  0  0  0  0  0  0  0  0
    2.8470  -12.0060    0.0000 C   0  0  0  0  0  0  0  0  0  0  0  0
    2.1326  -12.4185    0.0000 C   0  0  0  0  0  0  0  0  0  0  0  0
    2.1326  -13.2435    0.0000 C   0  0  0  0  0  0  0  0  0  0  0  0
    1.4181  -12.0060    0.0000 C   0  0  0  0  0  0  0  0  0  0  0  0
    4.9904  -13.2435    0.0000 C   0  0  0  0  0  0  0  0  0  0  0  0
  1  2  1  0  0  0  0
  2  3  2  0  0  0  0
  3  4  1  0  0  0  0
  1  5  2  0  0  0  0
  2  6  1  0  0  0  0
  7  8  1  0  0  0  0
  8  9  1  0  0  0  0
  9 10  1  0  0  0  0
 10 11  2  0  0  0  0
 11 12  1  0  0  0  0
 12 13  2  0  0  0  0
 13 14  1  0  0  0  0
 14 15  2  0  0  0  0
 15 16  1  0  0  0  0
 16 17  1  0  0  0  0
 17 18  2  0  0  0  0
 18 19  1  0  0  0  0
 19 20  1  0  0  0  0
 20 21  1  0  0  0  0
 21 22  1  0  0  0  0
 22 23  1  0  0  0  0
  7 23  1  0  0  0  0
  7 24  1  0  0  0  0
 19 24  1  0  0  0  0
  8 17  1  0  0  0  0
  8 21  1  0  0  0  0
 10 15  1  0  0  0  0
 20 25  2  0  0  0  0
 16 26  2  0  0  0  0
 27 28  1  0  0  0  0
 28 29  2  0  0  0  0
 29 30  1  0  0  0  0
 29 31  1  0  0  0  0
 11 27  1  0  0  0  0
 23 32  1  0  0  0  0
 23 33  1  0  0  0  0
 14 34  1  0  0  0  0
 12 35  1  0  0  0  0
 36 37  1  0  0  0  0
 37 38  2  0  0  0  0
 38 39  1  0  0  0  0
 39 40  1  0  0  0  0
 40 41  1  0  0  0  0
 41 42  2  0  0  0  0
 42 43  1  0  0  0  0
 42 44  1  0  0  0  0
 38 45  1  0  0  0  0
 13 36  1  0  0  0  0
  4 21  1  0  0  0  0
M  END
>  <cdx:fragmentId>
210

$$$$
