15299002.cdx
  Mrv1902 05222410262D          

 46 50  0  0  0  0            999 V2000
    2.7215  -13.6032    0.0000 C   0  0  0  0  0  0  0  0  0  0  0  0
    2.7215  -12.7785    0.0000 C   0  0  0  0  0  0  0  0  0  0  0  0
    3.4360  -12.3660    0.0000 C   0  0  0  0  0  0  0  0  0  0  0  0
    4.1505  -12.7785    0.0000 C   0  0  0  0  0  0  0  0  0  0  0  0
    4.8648  -12.3660    0.0000 C   0  0  0  0  0  0  0  0  0  0  0  0
    5.5793  -12.7785    0.0000 C   0  0  0  0  0  0  0  0  0  0  0  0
    6.2938  -12.3660    0.0000 C   0  0  0  0  0  0  0  0  0  0  0  0
    7.0081  -12.7785    0.0000 C   0  0  0  0  0  0  0  0  0  0  0  0
    7.7226  -12.3660    0.0000 C   0  0  0  0  0  0  0  0  0  0  0  0
    8.4371  -12.7785    0.0000 C   0  0  0  0  0  0  0  0  0  0  0  0
    9.1515  -12.3660    0.0000 C   0  0  0  0  0  0  0  0  0  0  0  0
    9.1515  -11.5409    0.0000 C   0  0  0  0  0  0  0  0  0  0  0  0
    8.4371  -11.1284    0.0000 C   0  0  0  0  0  0  0  0  0  0  0  0
    7.7226  -11.5409    0.0000 C   0  0  0  0  0  0  0  0  0  0  0  0
    7.0081  -11.1284    0.0000 O   0  0  0  0  0  0  0  0  0  0  0  0
    8.4371   -9.8085    0.0000 C   0  0  0  0  0  0  0  0  0  0  0  0
    7.5083   -9.2723    0.0000 C   0  0  0  0  0  0  0  0  0  0  0  0
    7.5083   -8.4473    0.0000 C   0  0  0  0  0  0  0  0  0  0  0  0
    8.2228   -8.0349    0.0000 C   0  0  0  0  0  0  0  0  0  0  0  0
    6.7938   -8.0349    0.0000 C   0  0  0  0  0  0  0  0  0  0  0  0
    9.8660  -11.1284    0.0000 O   0  0  0  0  0  0  0  0  0  0  0  0
   10.5803  -11.5409    0.0000 C   0  0  2  0  0  0  0  0  0  0  0  0
   11.2948  -11.1284    0.0000 C   0  0  1  0  0  0  0  0  0  0  0  0
   12.0093  -11.5409    0.0000 C   0  0  0  0  0  0  0  0  0  0  0  0
   12.0093  -12.3660    0.0000 C   0  0  1  0  0  0  0  0  0  0  0  0
   11.2948  -12.7785    0.0000 C   0  0  0  0  0  0  0  0  0  0  0  0
   10.5803  -12.3660    0.0000 C   0  0  0  0  0  0  0  0  0  0  0  0
    9.8660  -12.7785    0.0000 C   0  0  0  0  0  0  0  0  0  0  0  0
    9.8660  -13.6032    0.0000 O   0  0  0  0  0  0  0  0  0  0  0  0
   10.3383  -11.7079    0.0000 C   0  0  0  0  0  0  0  0  0  0  0  0
    9.7291  -12.2638    0.0000 O   0  0  0  0  0  0  0  0  0  0  0  0
   10.0954  -10.8736    0.0000 C   0  0  2  0  0  0  0  0  0  0  0  0
   10.4578  -10.1326    0.0000 O   0  0  0  0  0  0  0  0  0  0  0  0
   11.2647  -10.3041    0.0000 C   0  0  0  0  0  0  0  0  0  0  0  0
   11.5464   -9.5287    0.0000 C   0  0  0  0  0  0  0  0  0  0  0  0
   12.0772  -10.1603    0.0000 C   0  0  0  0  0  0  0  0  0  0  0  0
    9.4636  -10.3432    0.0000 C   0  0  0  0  0  0  0  0  0  0  0  0
    9.6068   -9.5307    0.0000 C   0  0  0  0  0  0  0  0  0  0  0  0
   10.3819   -9.2488    0.0000 C   0  0  0  0  0  0  0  0  0  0  0  0
   11.0139   -9.7789    0.0000 C   0  0  0  0  0  0  0  0  0  0  0  0
   10.5251   -8.4363    0.0000 C   0  0  0  0  0  0  0  0  0  0  0  0
   11.3004   -8.1542    0.0000 O   0  0  0  0  0  0  0  0  0  0  0  0
    9.8933   -7.9062    0.0000 O   0  0  0  0  0  0  0  0  0  0  0  0
    8.4371  -13.6032    0.0000 O   0  0  0  0  0  0  0  0  0  0  0  0
    5.5793  -13.6032    0.0000 C   0  0  0  0  0  0  0  0  0  0  0  0
    2.0073  -12.3660    0.0000 C   0  0  0  0  0  0  0  0  0  0  0  0
  1  2  1  0  0  0  0
  2  3  2  0  0  0  0
  3  4  1  0  0  0  0
  4  5  1  0  0  0  0
  5  6  1  0  0  0  0
  6  7  2  0  0  0  0
  7  8  1  0  0  0  0
  8  9  1  0  0  0  0
  9 10  2  0  0  0  0
 10 11  1  0  0  0  0
 11 12  2  0  0  0  0
 12 13  1  0  0  0  0
 13 14  2  0  0  0  0
  9 14  1  0  0  0  0
 14 15  1  0  0  0  0
 13 16  1  0  0  0  0
 16 17  1  0  0  0  0
 17 18  2  0  0  0  0
 18 19  1  0  0  0  0
 18 20  1  0  0  0  0
 12 21  1  0  0  0  0
 22 21  1  6  0  0  0
 22 23  1  0  0  0  0
 23 24  1  6  0  0  0
 24 25  1  0  0  0  0
 25 26  1  0  0  0  0
 26 27  2  0  0  0  0
 22 27  1  0  0  0  0
 27 28  1  0  0  0  0
 11 28  1  0  0  0  0
 28 29  2  0  0  0  0
 25 30  1  6  0  0  0
 30 31  2  0  0  0  0
 32 30  1  6  0  0  0
 22 32  1  0  0  0  0
 32 33  1  0  0  0  0
 33 34  1  0  0  0  0
 23 34  1  0  0  0  0
 34 35  1  0  0  0  0
 34 36  1  0  0  0  0
 32 37  1  0  0  0  0
 37 38  1  0  0  0  0
 38 39  2  0  0  0  0
 39 40  1  0  0  0  0
 39 41  1  0  0  0  0
 41 42  2  0  0  0  0
 41 43  1  0  0  0  0
 10 44  1  0  0  0  0
  6 45  1  0  0  0  0
  2 46  1  0  0  0  0
M  END
>  <cdx:fragmentId>
2730

$$$$
