2994.cdx
  Mrv1902 05222410192D          

  8  8  0  0  0  0            999 V2000
    6.7752   -6.8062    0.0000 C   0  0  0  0  0  0  0  0  0  0  0  0
    6.7752   -7.6313    0.0000 C   0  0  0  0  0  0  0  0  0  0  0  0
    7.4896   -8.0437    0.0000 C   0  0  0  0  0  0  0  0  0  0  0  0
    8.2041   -7.6313    0.0000 C   0  0  0  0  0  0  0  0  0  0  0  0
    8.2041   -6.8062    0.0000 C   0  0  0  0  0  0  0  0  0  0  0  0
    7.4896   -6.3937    0.0000 C   0  0  0  0  0  0  0  0  0  0  0  0
    7.4896   -5.5687    0.0000 C   0  0  0  0  0  0  0  0  0  0  0  0
    8.2041   -5.1563    0.0000 O   0  0  0  0  0  0  0  0  0  0  0  0
  1  2  1  0  0  0  0
  2  3  1  0  0  0  0
  3  4  1  0  0  0  0
  4  5  1  0  0  0  0
  5  6  1  0  0  0  0
  6  1  1  0  0  0  0
  6  7  1  0  0  0  0
  7  8  2  0  0  0  0
M  END
>  <cdx:fragmentId>
5

$$$$
