2-tert-butyl-4,6-bis(3,5-di-tert-butyl-4-hydroxybenzyl)phenol.cdx
  Mrv1902 05222410202D          

 43 45  0  0  0  0            999 V2000
    7.3417   -8.8794    0.0000 C   0  0  0  0  0  0  0  0  0  0  0  0
    6.5167   -8.8734    0.0000 C   0  0  0  0  0  0  0  0  0  0  0  0
    6.0990   -9.5848    0.0000 C   0  0  0  0  0  0  0  0  0  0  0  0
    6.5063  -10.3023    0.0000 C   0  0  0  0  0  0  0  0  0  0  0  0
    7.3312  -10.3083    0.0000 C   0  0  0  0  0  0  0  0  0  0  0  0
    7.7489   -9.5969    0.0000 C   0  0  0  0  0  0  0  0  0  0  0  0
    7.7385  -11.0258    0.0000 O   0  0  0  0  0  0  0  0  0  0  0  0
    6.0886  -11.0137    0.0000 C   0  0  0  0  0  0  0  0  0  0  0  0
    6.8000  -11.4314    0.0000 C   0  0  0  0  0  0  0  0  0  0  0  0
    5.3771  -10.5960    0.0000 C   0  0  0  0  0  0  0  0  0  0  0  0
    5.6709  -11.7252    0.0000 C   0  0  0  0  0  0  0  0  0  0  0  0
    8.5739   -9.6029    0.0000 C   0  0  0  0  0  0  0  0  0  0  0  0
    8.9916   -8.8915    0.0000 C   0  0  0  0  0  0  0  0  0  0  0  0
    9.8166   -8.8975    0.0000 C   0  0  0  0  0  0  0  0  0  0  0  0
   10.2343   -8.1860    0.0000 C   0  0  0  0  0  0  0  0  0  0  0  0
    9.8270   -7.4686    0.0000 C   0  0  0  0  0  0  0  0  0  0  0  0
    9.0020   -7.4626    0.0000 C   0  0  0  0  0  0  0  0  0  0  0  0
    8.5843   -8.1740    0.0000 C   0  0  0  0  0  0  0  0  0  0  0  0
   10.2447   -6.7571    0.0000 O   0  0  0  0  0  0  0  0  0  0  0  0
   11.0593   -8.1921    0.0000 C   0  0  0  0  0  0  0  0  0  0  0  0
   11.8843   -8.1981    0.0000 C   0  0  0  0  0  0  0  0  0  0  0  0
   11.0533   -9.0170    0.0000 C   0  0  0  0  0  0  0  0  0  0  0  0
   11.0653   -7.3671    0.0000 C   0  0  0  0  0  0  0  0  0  0  0  0
    8.5948   -6.7451    0.0000 C   0  0  0  0  0  0  0  0  0  0  0  0
    8.1875   -6.0276    0.0000 C   0  0  0  0  0  0  0  0  0  0  0  0
    9.3122   -6.3378    0.0000 C   0  0  0  0  0  0  0  0  0  0  0  0
    7.8773   -7.1524    0.0000 C   0  0  0  0  0  0  0  0  0  0  0  0
    6.1094   -8.1559    0.0000 C   0  0  0  0  0  0  0  0  0  0  0  0
    5.2844   -8.1499    0.0000 C   0  0  0  0  0  0  0  0  0  0  0  0
    4.8772   -7.4325    0.0000 C   0  0  0  0  0  0  0  0  0  0  0  0
    4.0522   -7.4264    0.0000 C   0  0  0  0  0  0  0  0  0  0  0  0
    3.6345   -8.1379    0.0000 C   0  0  0  0  0  0  0  0  0  0  0  0
    4.0417   -8.8553    0.0000 C   0  0  0  0  0  0  0  0  0  0  0  0
    4.8667   -8.8614    0.0000 C   0  0  0  0  0  0  0  0  0  0  0  0
    2.8095   -8.1319    0.0000 O   0  0  0  0  0  0  0  0  0  0  0  0
    3.6240   -9.5668    0.0000 C   0  0  0  0  0  0  0  0  0  0  0  0
    3.2063  -10.2782    0.0000 C   0  0  0  0  0  0  0  0  0  0  0  0
    4.3355   -9.9845    0.0000 C   0  0  0  0  0  0  0  0  0  0  0  0
    2.9126   -9.1491    0.0000 C   0  0  0  0  0  0  0  0  0  0  0  0
    3.6449   -6.7090    0.0000 C   0  0  0  0  0  0  0  0  0  0  0  0
    3.2376   -5.9915    0.0000 C   0  0  0  0  0  0  0  0  0  0  0  0
    4.3624   -6.3017    0.0000 C   0  0  0  0  0  0  0  0  0  0  0  0
    2.9274   -7.1163    0.0000 C   0  0  0  0  0  0  0  0  0  0  0  0
  1  2  2  0  0  0  0
  2  3  1  0  0  0  0
  3  4  2  0  0  0  0
  4  5  1  0  0  0  0
  5  6  2  0  0  0  0
  6  1  1  0  0  0  0
  5  7  1  0  0  0  0
  4  8  1  0  0  0  0
  8  9  1  0  0  0  0
  8 10  1  0  0  0  0
  8 11  1  0  0  0  0
  6 12  1  0  0  0  0
 12 13  1  0  0  0  0
 13 14  2  0  0  0  0
 14 15  1  0  0  0  0
 15 16  2  0  0  0  0
 16 17  1  0  0  0  0
 17 18  2  0  0  0  0
 18 13  1  0  0  0  0
 16 19  1  0  0  0  0
 15 20  1  0  0  0  0
 20 21  1  0  0  0  0
 20 22  1  0  0  0  0
 20 23  1  0  0  0  0
 17 24  1  0  0  0  0
 24 25  1  0  0  0  0
 24 26  1  0  0  0  0
 24 27  1  0  0  0  0
  2 28  1  0  0  0  0
 28 29  1  0  0  0  0
 29 30  2  0  0  0  0
 30 31  1  0  0  0  0
 31 32  2  0  0  0  0
 32 33  1  0  0  0  0
 33 34  2  0  0  0  0
 34 29  1  0  0  0  0
 32 35  1  0  0  0  0
 33 36  1  0  0  0  0
 36 37  1  0  0  0  0
 36 38  1  0  0  0  0
 36 39  1  0  0  0  0
 31 40  1  0  0  0  0
 40 41  1  0  0  0  0
 40 42  1  0  0  0  0
 40 43  1  0  0  0  0
M  END
>  <cdx:fragmentId>
5

$$$$
