300099.cdx
  Mrv1902 05222410212D          

 17 16  0  0  0  0            999 V2000
    2.3051   -6.1958    0.0000 C   0  0  0  0  0  0  0  0  0  0  0  0
    3.0196   -6.6083    0.0000 C   0  0  0  0  0  0  0  0  0  0  0  0
    3.7341   -6.1958    0.0000 C   0  0  0  0  0  0  0  0  0  0  0  0
    4.4485   -6.6083    0.0000 C   0  0  0  0  0  0  0  0  0  0  0  0
    5.1630   -6.1958    0.0000 C   0  0  0  0  0  0  0  0  0  0  0  0
    5.8775   -6.6083    0.0000 C   0  0  0  0  0  0  0  0  0  0  0  0
    6.5920   -6.1958    0.0000 C   0  0  0  0  0  0  0  0  0  0  0  0
    7.3064   -6.6083    0.0000 C   0  0  0  0  0  0  0  0  0  0  0  0
    8.0209   -6.1958    0.0000 C   0  0  0  0  0  0  0  0  0  0  0  0
    8.7354   -6.6083    0.0000 C   0  0  0  0  0  0  0  0  0  0  0  0
    9.4498   -6.1958    0.0000 C   0  0  0  0  0  0  0  0  0  0  0  0
   10.1643   -6.6083    0.0000 C   0  0  0  0  0  0  0  0  0  0  0  0
   10.8788   -6.1958    0.0000 C   0  0  0  0  0  0  0  0  0  0  0  0
   11.5932   -6.6083    0.0000 C   0  0  0  0  0  0  0  0  0  0  0  0
   12.3077   -6.1958    0.0000 C   0  0  0  0  0  0  0  0  0  0  0  0
   13.0222   -6.6083    0.0000 C   0  0  0  0  0  0  0  0  0  0  0  0
    1.5907   -6.6083    0.0000 Cl  0  0  0  0  0  0  0  0  0  0  0  0
  1  2  1  0  0  0  0
  2  3  1  0  0  0  0
  3  4  1  0  0  0  0
  4  5  1  0  0  0  0
  5  6  1  0  0  0  0
  6  7  1  0  0  0  0
  7  8  1  0  0  0  0
  8  9  1  0  0  0  0
  9 10  1  0  0  0  0
 10 11  1  0  0  0  0
 11 12  1  0  0  0  0
 12 13  1  0  0  0  0
 13 14  1  0  0  0  0
 14 15  1  0  0  0  0
 15 16  1  0  0  0  0
  1 17  1  0  0  0  0
M  END
>  <cdx:fragmentId>
1172

$$$$
