300077.cdx
  Mrv1902 05222410232D          

 11 10  0  0  0  0            999 V2000
    9.9051  -11.5507    0.0000 C   0  0  0  0  0  0  0  0  0  0  0  0
    9.1906  -11.9632    0.0000 C   0  0  0  0  0  0  0  0  0  0  0  0
    9.1906  -12.7882    0.0000 C   0  0  0  0  0  0  0  0  0  0  0  0
    8.4762  -13.2007    0.0000 C   0  0  0  0  0  0  0  0  0  0  0  0
    7.7617  -12.7882    0.0000 C   0  0  0  0  0  0  0  0  0  0  0  0
    7.0472  -13.2007    0.0000 C   0  0  0  0  0  0  0  0  0  0  0  0
    6.3328  -12.7882    0.0000 C   0  0  0  0  0  0  0  0  0  0  0  0
    5.6183  -13.2007    0.0000 C   0  0  0  0  0  0  0  0  0  0  0  0
    4.9038  -12.7882    0.0000 C   0  0  0  0  0  0  0  0  0  0  0  0
    4.1894  -13.2007    0.0000 C   0  0  0  0  0  0  0  0  0  0  0  0
    9.9051  -10.7257    0.0000 O   0  0  0  0  0  0  0  0  0  0  0  0
  1  2  1  0  0  0  0
  2  3  1  0  0  0  0
  3  4  2  0  0  0  0
  4  5  1  0  0  0  0
  5  6  1  0  0  0  0
  6  7  1  0  0  0  0
  7  8  1  0  0  0  0
  8  9  1  0  0  0  0
  9 10  1  0  0  0  0
  1 11  1  0  0  0  0
M  END
>  <cdx:fragmentId>
5563

$$$$
