300032.cdx
  Mrv1902 05222410262D          

 16 19  0  0  0  0            999 V2000
    7.0545   -8.7449    0.0000 C   0  0  0  0  0  0  0  0  0  0  0  0
    7.7690   -9.1574    0.0000 C   0  0  0  0  0  0  0  0  0  0  0  0
    8.4835   -8.7449    0.0000 C   0  0  0  0  0  0  0  0  0  0  0  0
    8.4835   -7.9199    0.0000 C   0  0  0  0  0  0  0  0  0  0  0  0
    7.7690   -7.5074    0.0000 C   0  0  0  0  0  0  0  0  0  0  0  0
    7.0545   -7.9199    0.0000 C   0  0  0  0  0  0  0  0  0  0  0  0
    6.3401   -7.5074    0.0000 C   0  0  0  0  0  0  0  0  0  0  0  0
    5.6256   -7.9199    0.0000 C   0  0  0  0  0  0  0  0  0  0  0  0
    5.6256   -8.7449    0.0000 C   0  0  0  0  0  0  0  0  0  0  0  0
    4.9111   -8.3324    0.0000 C   0  0  0  0  0  0  0  0  0  0  0  0
    6.0626   -9.6331    0.0000 C   0  0  0  0  0  0  0  0  0  0  0  0
    6.3401   -9.1574    0.0000 C   0  0  0  0  0  0  0  0  0  0  0  0
    9.1979   -7.5074    0.0000 O   0  0  0  0  0  0  0  0  0  0  0  0
    5.2131   -9.4594    0.0000 C   0  0  0  0  0  0  0  0  0  0  0  0
    7.0545   -7.0949    0.0000 C   0  0  0  0  0  0  0  0  0  0  0  0
    7.7690   -6.6824    0.0000 C   0  0  0  0  0  0  0  0  0  0  0  0
  1  2  1  0  0  0  0
  2  3  1  0  0  0  0
  3  4  1  0  0  0  0
  4  5  1  0  0  0  0
  5  6  1  0  0  0  0
  6  7  1  0  0  0  0
  7  8  1  0  0  0  0
  8  9  1  0  0  0  0
  9 10  1  0  0  0  0
 10 11  1  0  0  0  0
  1 11  1  0  0  0  0
  1 12  1  0  0  0  0
  9 12  1  0  0  0  0
  1  6  1  0  0  0  0
  8 10  1  0  0  0  0
  4 13  1  0  0  0  0
  9 14  1  0  0  0  0
  6 15  1  0  0  0  0
  5 16  1  0  0  0  0
M  END
>  <cdx:fragmentId>
2334

$$$$
