300064.cdx
  Mrv1902 05222410212D          

 21 20  0  0  0  0            999 V2000
    7.9825   -5.7461    0.0000 C   0  0  0  0  0  0  0  0  0  0  0  0
    7.2680   -6.1586    0.0000 C   0  0  0  0  0  0  0  0  0  0  0  0
    6.5536   -5.7461    0.0000 C   0  0  0  0  0  0  0  0  0  0  0  0
    5.8391   -6.1586    0.0000 C   0  0  1  0  0  0  0  0  0  0  0  0
    5.1246   -5.7461    0.0000 C   0  0  0  0  0  0  0  0  0  0  0  0
    4.4101   -6.1586    0.0000 C   0  0  0  0  0  0  0  0  0  0  0  0
    3.6957   -5.7461    0.0000 C   0  0  0  0  0  0  0  0  0  0  0  0
    2.9812   -6.1586    0.0000 C   0  0  0  0  0  0  0  0  0  0  0  0
    2.2667   -5.7461    0.0000 C   0  0  0  0  0  0  0  0  0  0  0  0
    5.8391   -6.9836    0.0000 O   0  0  0  0  0  0  0  0  0  0  0  0
    8.6970   -6.1586    0.0000 C   0  0  0  0  0  0  0  0  0  0  0  0
    8.6970   -6.9836    0.0000 C   0  0  0  0  0  0  0  0  0  0  0  0
    9.4114   -7.3961    0.0000 C   0  0  0  0  0  0  0  0  0  0  0  0
    9.4114   -8.2211    0.0000 C   0  0  0  0  0  0  0  0  0  0  0  0
   10.1259   -8.6336    0.0000 C   0  0  0  0  0  0  0  0  0  0  0  0
   10.1259   -9.4586    0.0000 C   0  0  0  0  0  0  0  0  0  0  0  0
   10.8404   -9.8711    0.0000 C   0  0  0  0  0  0  0  0  0  0  0  0
   10.8404  -10.6961    0.0000 C   0  0  0  0  0  0  0  0  0  0  0  0
   11.5549  -11.1086    0.0000 C   0  0  0  0  0  0  0  0  0  0  0  0
   11.5549  -11.9336    0.0000 O   0  0  0  0  0  0  0  0  0  0  0  0
   12.2693  -10.6961    0.0000 O   0  0  0  0  0  0  0  0  0  0  0  0
  1  2  1  0  0  0  0
  2  3  2  0  0  0  0
  3  4  1  0  0  0  0
  4  5  1  0  0  0  0
  5  6  1  0  0  0  0
  6  7  1  0  0  0  0
  7  8  1  0  0  0  0
  8  9  1  0  0  0  0
  4 10  1  6  0  0  0
  1 11  2  0  0  0  0
 11 12  1  0  0  0  0
 12 13  1  0  0  0  0
 13 14  1  0  0  0  0
 14 15  1  0  0  0  0
 15 16  1  0  0  0  0
 16 17  1  0  0  0  0
 17 18  1  0  0  0  0
 18 19  1  0  0  0  0
 19 20  1  0  0  0  0
 19 21  2  0  0  0  0
M  END
>  <cdx:fragmentId>
4834

$$$$
