300079.cdx
  Mrv1902 05222410242D          

 15 16  0  0  0  0            999 V2000
    8.6992  -11.0660    0.0000 C   0  0  0  0  0  0  0  0  0  0  0  0
    7.9848  -10.6535    0.0000 N   0  0  0  0  0  0  0  0  0  0  0  0
    7.2703  -11.0660    0.0000 C   0  0  0  0  0  0  0  0  0  0  0  0
    7.2703  -11.8910    0.0000 C   0  0  0  0  0  0  0  0  0  0  0  0
    7.9848  -12.3035    0.0000 C   0  0  0  0  0  0  0  0  0  0  0  0
    8.6992  -11.8910    0.0000 N   0  0  0  0  0  0  0  0  0  0  0  0
    9.4839  -12.1459    0.0000 N   0  0  0  0  0  0  0  0  0  0  0  0
    9.9688  -11.4785    0.0000 C   0  0  0  0  0  0  0  0  0  0  0  0
    9.4839  -10.8111    0.0000 N   0  0  0  0  0  0  0  0  0  0  0  0
    6.5558  -12.3035    0.0000 C   0  0  0  0  0  0  0  0  0  0  0  0
    6.5558  -13.1285    0.0000 O   0  0  0  0  0  0  0  0  0  0  0  0
    5.8413  -11.8910    0.0000 O   0  0  0  0  0  0  0  0  0  0  0  0
    7.9848  -13.1285    0.0000 N   0  0  0  0  0  0  0  0  0  0  0  0
    5.1269  -12.3035    0.0000 C   0  0  0  0  0  0  0  0  0  0  0  0
    4.4124  -11.8910    0.0000 C   0  0  0  0  0  0  0  0  0  0  0  0
  1  2  1  0  0  0  0
  2  3  2  0  0  0  0
  3  4  1  0  0  0  0
  4  5  2  0  0  0  0
  5  6  1  0  0  0  0
  1  6  1  0  0  0  0
  7  8  2  0  0  0  0
  8  9  1  0  0  0  0
  6  7  1  0  0  0  0
  1  9  2  0  0  0  0
 10 11  2  0  0  0  0
 10 12  1  0  0  0  0
  4 10  1  0  0  0  0
  5 13  1  0  0  0  0
 14 15  1  0  0  0  0
 12 14  1  0  0  0  0
M  END
>  <cdx:fragmentId>
5629

$$$$
