300023.cdx
  Mrv1902 05222410272D          

 27 29  0  0  0  0            999 V2000
    5.4943   -5.6306    0.0000 C   0  0  0  0  0  0  0  0  0  0  0  0
    6.3158   -5.5543    0.0000 C   0  0  0  0  0  0  0  0  0  0  0  0
    6.7926   -6.2276    0.0000 C   0  0  0  0  0  0  0  0  0  0  0  0
    6.4479   -6.9772    0.0000 C   0  0  0  0  0  0  0  0  0  0  0  0
    5.6264   -7.0534    0.0000 C   0  0  0  0  0  0  0  0  0  0  0  0
    5.1496   -6.3802    0.0000 C   0  0  0  0  0  0  0  0  0  0  0  0
    5.0175   -4.9573    0.0000 O   0  0  0  0  0  0  0  0  0  0  0  0
    6.6605   -4.8048    0.0000 O   0  0  0  0  0  0  0  0  0  0  0  0
    6.1837   -4.1315    0.0000 C   0  0  0  0  0  0  0  0  0  0  0  0
    6.6602   -8.4319    0.0000 O   0  0  0  0  0  0  0  0  0  0  0  0
    6.9247   -7.6504    0.0000 C   0  0  2  0  0  0  0  0  0  0  0  0
    7.7496   -7.6605    0.0000 C   0  0  1  0  0  0  0  0  0  0  0  0
    7.9950   -8.4481    0.0000 C   0  0  2  0  0  0  0  0  0  0  0  0
    7.3217   -8.9249    0.0000 C   0  0  2  0  0  0  0  0  0  0  0  0
    8.7765   -8.7126    0.0000 C   0  0  0  0  0  0  0  0  0  0  0  0
    9.3598   -8.1292    0.0000 O   0  0  0  0  0  0  0  0  0  0  0  0
    8.2426   -6.9990    0.0000 C   0  0  0  0  0  0  0  0  0  0  0  0
    9.0676   -6.9990    0.0000 O   0  0  0  0  0  0  0  0  0  0  0  0
    7.3117   -9.7498    0.0000 C   0  0  0  0  0  0  0  0  0  0  0  0
    8.0211  -10.1710    0.0000 C   0  0  0  0  0  0  0  0  0  0  0  0
    8.0111  -10.9959    0.0000 C   0  0  0  0  0  0  0  0  0  0  0  0
    7.2917  -11.3997    0.0000 C   0  0  0  0  0  0  0  0  0  0  0  0
    6.5823  -10.9786    0.0000 C   0  0  0  0  0  0  0  0  0  0  0  0
    6.5923  -10.1536    0.0000 C   0  0  0  0  0  0  0  0  0  0  0  0
    8.7205  -11.4171    0.0000 O   0  0  0  0  0  0  0  0  0  0  0  0
    8.7105  -12.2420    0.0000 C   0  0  0  0  0  0  0  0  0  0  0  0
    7.2817  -12.2247    0.0000 O   0  0  0  0  0  0  0  0  0  0  0  0
  1  2  1  0  0  0  0
  2  3  2  0  0  0  0
  3  4  1  0  0  0  0
  4  5  2  0  0  0  0
  5  6  1  0  0  0  0
  1  6  2  0  0  0  0
  1  7  1  0  0  0  0
  8  9  1  0  0  0  0
  2  8  1  0  0  0  0
 10 11  1  0  0  0  0
 11 12  1  0  0  0  0
 12 13  1  0  0  0  0
 13 14  1  0  0  0  0
 10 14  1  0  0  0  0
 15 16  1  0  0  0  0
 13 15  1  1  0  0  0
 17 18  1  0  0  0  0
 12 17  1  6  0  0  0
 19 20  1  0  0  0  0
 20 21  2  0  0  0  0
 21 22  1  0  0  0  0
 22 23  2  0  0  0  0
 23 24  1  0  0  0  0
 19 24  2  0  0  0  0
 25 26  1  0  0  0  0
 21 25  1  0  0  0  0
 22 27  1  0  0  0  0
 14 19  1  6  0  0  0
 11  4  1  1  0  0  0
M  END
>  <cdx:fragmentId>
1790

$$$$
