300052.cdx
  Mrv1902 05222410232D          

 12 12  0  0  0  0            999 V2000
    7.2483   -9.1779    0.0000 C   0  0  0  0  0  0  0  0  0  0  0  0
    6.5339   -8.7654    0.0000 C   0  0  0  0  0  0  0  0  0  0  0  0
    6.5339   -7.9404    0.0000 C   0  0  2  0  0  0  0  0  0  0  0  0
    7.2483   -7.5279    0.0000 C   0  0  0  0  0  0  0  0  0  0  0  0
    7.9628   -7.9404    0.0000 C   0  0  0  0  0  0  0  0  0  0  0  0
    7.9628   -8.7654    0.0000 C   0  0  1  0  0  0  0  0  0  0  0  0
    8.6773  -10.0029    0.0000 C   0  0  0  0  0  0  0  0  0  0  0  0
    8.6773   -9.1779    0.0000 C   0  0  0  0  0  0  0  0  0  0  0  0
    9.3918   -8.7654    0.0000 C   0  0  0  0  0  0  0  0  0  0  0  0
    6.1214   -7.2259    0.0000 C   0  0  0  0  0  0  0  0  0  0  0  0
    5.7089   -7.9404    0.0000 O   0  0  0  0  0  0  0  0  0  0  0  0
    5.2964   -8.6548    0.0000 O   0  0  0  0  0  0  0  0  0  0  0  0
  1  2  2  0  0  0  0
  2  3  1  0  0  0  0
  3  4  1  0  0  0  0
  4  5  1  0  0  0  0
  5  6  1  0  0  0  0
  1  6  1  0  0  0  0
  7  8  2  0  0  0  0
  8  9  1  0  0  0  0
  6  8  1  1  0  0  0
  3 10  1  1  0  0  0
 11 12  1  0  0  0  0
  3 11  1  6  0  0  0
M  END
>  <cdx:fragmentId>
4135

$$$$
