300083.cdx
  Mrv1902 05222410252D          

 23 23  0  0  0  0            999 V2000
   11.5391   -6.3008    0.0000 C   0  0  0  0  0  0  0  0  0  0  0  0
   10.8246   -6.7133    0.0000 C   0  0  0  0  0  0  0  0  0  0  0  0
   10.1101   -6.3008    0.0000 C   0  0  0  0  0  0  0  0  0  0  0  0
    9.3957   -6.7133    0.0000 C   0  0  0  0  0  0  0  0  0  0  0  0
    8.6812   -6.3008    0.0000 C   0  0  0  0  0  0  0  0  0  0  0  0
    7.9667   -6.7133    0.0000 C   0  0  0  0  0  0  0  0  0  0  0  0
    7.2523   -6.3008    0.0000 C   0  0  0  0  0  0  0  0  0  0  0  0
    6.5378   -6.7133    0.0000 C   0  0  0  0  0  0  0  0  0  0  0  0
    5.8233   -6.3008    0.0000 C   0  0  0  0  0  0  0  0  0  0  0  0
    5.1088   -6.7133    0.0000 C   0  0  0  0  0  0  0  0  0  0  0  0
    4.3944   -6.3008    0.0000 C   0  0  0  0  0  0  0  0  0  0  0  0
    3.6799   -6.7133    0.0000 C   0  0  0  0  0  0  0  0  0  0  0  0
    2.9654   -6.3008    0.0000 C   0  0  0  0  0  0  0  0  0  0  0  0
    2.2510   -6.7133    0.0000 C   0  0  0  0  0  0  0  0  0  0  0  0
    1.5365   -6.3008    0.0000 C   0  0  0  0  0  0  0  0  0  0  0  0
    0.8220   -6.7133    0.0000 C   0  0  0  0  0  0  0  0  0  0  0  0
   11.5391   -5.4758    0.0000 O   0  0  0  0  0  0  0  0  0  0  0  0
   12.2535   -6.7133    0.0000 N   0  0  0  0  0  0  0  0  0  0  0  0
   12.3398   -7.5337    0.0000 C   0  0  0  0  0  0  0  0  0  0  0  0
   13.1468   -7.7053    0.0000 C   0  0  0  0  0  0  0  0  0  0  0  0
   13.5593   -6.9908    0.0000 C   0  0  0  0  0  0  0  0  0  0  0  0
   13.0072   -6.3777    0.0000 C   0  0  0  0  0  0  0  0  0  0  0  0
    2.2510   -7.5383    0.0000 C   0  0  0  0  0  0  0  0  0  0  0  0
  1  2  1  0  0  0  0
  2  3  1  0  0  0  0
  3  4  1  0  0  0  0
  4  5  1  0  0  0  0
  5  6  1  0  0  0  0
  6  7  1  0  0  0  0
  7  8  1  0  0  0  0
  8  9  1  0  0  0  0
  9 10  1  0  0  0  0
 10 11  1  0  0  0  0
 11 12  1  0  0  0  0
 12 13  1  0  0  0  0
 13 14  1  0  0  0  0
 14 15  1  0  0  0  0
 15 16  1  0  0  0  0
  1 17  2  0  0  0  0
 18 19  1  0  0  0  0
 19 20  1  0  0  0  0
 20 21  1  0  0  0  0
 21 22  1  0  0  0  0
 18 22  1  0  0  0  0
  1 18  1  0  0  0  0
 14 23  1  0  0  0  0
M  END
>  <cdx:fragmentId>
274

$$$$
