300028.cdx
  Mrv1902 05222410202D          

 22 23  0  0  0  0            999 V2000
    3.7515   -7.9180    0.0000 O   0  0  0  0  0  0  0  0  0  0  0  0
    4.4659   -7.5055    0.0000 C   0  0  0  0  0  0  0  0  0  0  0  0
   10.8962   -6.2680    0.0000 C   0  0  0  0  0  0  0  0  0  0  0  0
    8.7528   -6.6805    0.0000 C   0  0  0  0  0  0  0  0  0  0  0  0
    9.4672   -6.2680    0.0000 C   0  0  0  0  0  0  0  0  0  0  0  0
   10.1817   -6.6805    0.0000 C   0  0  0  0  0  0  0  0  0  0  0  0
   10.1817   -7.5055    0.0000 C   0  0  0  0  0  0  0  0  0  0  0  0
    9.4672   -7.9180    0.0000 C   0  0  0  0  0  0  0  0  0  0  0  0
    8.7528   -7.5055    0.0000 C   0  0  0  0  0  0  0  0  0  0  0  0
    8.4508   -8.6324    0.0000 C   0  0  0  0  0  0  0  0  0  0  0  0
    8.0383   -7.9180    0.0000 C   0  0  0  0  0  0  0  0  0  0  0  0
    7.6258   -8.6324    0.0000 C   0  0  0  0  0  0  0  0  0  0  0  0
    7.3238   -7.5055    0.0000 O   0  0  0  0  0  0  0  0  0  0  0  0
    7.3238   -9.1555    0.0000 O   0  0  0  0  0  0  0  0  0  0  0  0
    5.8949   -9.9805    0.0000 O   0  0  0  0  0  0  0  0  0  0  0  0
    4.4659   -9.1555    0.0000 O   0  0  0  0  0  0  0  0  0  0  0  0
    6.6093   -7.9180    0.0000 C   0  0  1  0  0  0  0  0  0  0  0  0
    6.6093   -8.7430    0.0000 C   0  0  1  0  0  0  0  0  0  0  0  0
    5.8949   -9.1555    0.0000 C   0  0  2  0  0  0  0  0  0  0  0  0
    5.1804   -8.7430    0.0000 C   0  0  1  0  0  0  0  0  0  0  0  0
    5.1804   -7.9180    0.0000 C   0  0  2  0  0  0  0  0  0  0  0  0
    5.8949   -7.5055    0.0000 O   0  0  0  0  0  0  0  0  0  0  0  0
 21  2  1  1  0  0  0
  2  1  1  0  0  0  0
 17 13  1  1  0  0  0
 11  9  1  0  0  0  0
  6  3  1  0  0  0  0
  9  4  1  0  0  0  0
  5  4  1  0  0  0  0
  6  5  2  0  0  0  0
  7  6  1  0  0  0  0
  8  7  1  0  0  0  0
  9  8  1  0  0  0  0
 13 11  1  0  0  0  0
 11 10  1  0  0  0  0
 12 11  1  0  0  0  0
 18 14  1  6  0  0  0
 19 15  1  1  0  0  0
 20 16  1  6  0  0  0
 22 17  1  0  0  0  0
 18 17  1  0  0  0  0
 19 18  1  0  0  0  0
 20 19  1  0  0  0  0
 21 20  1  0  0  0  0
 22 21  1  0  0  0  0
M  END
>  <cdx:fragmentId>
2146

$$$$
