300018.cdx
  Mrv1902 05222410262D          

 26 29  0  0  0  0            999 V2000
    6.3385   -9.2281    0.0000 C   0  0  0  0  0  0  0  0  0  0  0  0
    5.7864   -8.6150    0.0000 C   0  0  0  0  0  0  0  0  0  0  0  0
    6.0414   -7.8303    0.0000 C   0  0  0  0  0  0  0  0  0  0  0  0
    6.8484   -7.6588    0.0000 C   0  0  0  0  0  0  0  0  0  0  0  0
    7.4004   -8.2719    0.0000 C   0  0  0  0  0  0  0  0  0  0  0  0
    7.1454   -9.0565    0.0000 C   0  0  0  0  0  0  0  0  0  0  0  0
    6.0835  -10.0127    0.0000 O   0  0  0  0  0  0  0  0  0  0  0  0
    4.9795   -8.7865    0.0000 O   0  0  0  0  0  0  0  0  0  0  0  0
    4.3961   -8.2031    0.0000 C   0  0  0  0  0  0  0  0  0  0  0  0
    9.1575   -6.2067    0.0000 O   0  0  0  0  0  0  0  0  0  0  0  0
    8.6725   -6.8742    0.0000 C   0  0  0  0  0  0  0  0  0  0  0  0
    7.8879   -6.6192    0.0000 C   0  0  1  0  0  0  0  0  0  0  0  0
    7.8879   -5.7942    0.0000 C   0  0  1  0  0  0  0  0  0  0  0  0
    8.6725   -5.5393    0.0000 C   0  0  1  0  0  0  0  0  0  0  0  0
    6.6184   -6.2067    0.0000 O   0  0  0  0  0  0  0  0  0  0  0  0
    7.1033   -6.8742    0.0000 C   0  0  2  0  0  0  0  0  0  0  0  0
    7.1033   -5.5393    0.0000 C   0  0  0  0  0  0  0  0  0  0  0  0
    8.9275   -4.7547    0.0000 C   0  0  0  0  0  0  0  0  0  0  0  0
    8.3754   -4.1416    0.0000 C   0  0  0  0  0  0  0  0  0  0  0  0
    8.6304   -3.3570    0.0000 C   0  0  0  0  0  0  0  0  0  0  0  0
    9.4374   -3.1854    0.0000 C   0  0  0  0  0  0  0  0  0  0  0  0
    9.9894   -3.7985    0.0000 C   0  0  0  0  0  0  0  0  0  0  0  0
    9.7344   -4.5832    0.0000 C   0  0  0  0  0  0  0  0  0  0  0  0
    9.6923   -2.4008    0.0000 O   0  0  0  0  0  0  0  0  0  0  0  0
    7.8879   -4.9692    0.0000 H   0  0  0  0  0  0  0  0  0  0  0  0
    7.8879   -7.4442    0.0000 H   0  0  0  0  0  0  0  0  0  0  0  0
  1  2  1  0  0  0  0
  2  3  2  0  0  0  0
  3  4  1  0  0  0  0
  4  5  2  0  0  0  0
  5  6  1  0  0  0  0
  1  6  2  0  0  0  0
  1  7  1  0  0  0  0
  8  9  1  0  0  0  0
  2  8  1  0  0  0  0
 10 11  1  0  0  0  0
 11 12  1  0  0  0  0
 12 13  1  0  0  0  0
 13 14  1  0  0  0  0
 10 14  1  0  0  0  0
 15 16  1  0  0  0  0
 15 17  1  0  0  0  0
 12 16  1  0  0  0  0
 13 17  1  0  0  0  0
 18 19  1  0  0  0  0
 19 20  2  0  0  0  0
 20 21  1  0  0  0  0
 21 22  2  0  0  0  0
 22 23  1  0  0  0  0
 18 23  2  0  0  0  0
 21 24  1  0  0  0  0
 14 18  1  1  0  0  0
 16  4  1  1  0  0  0
 13 25  1  1  0  0  0
 12 26  1  1  0  0  0
M  END
>  <cdx:fragmentId>
1225

$$$$
