300017-1.cdx
  Mrv1902 05222410192D          

 16 19  0  0  0  0            999 V2000
    6.6874   -6.5176    0.0000 C   0  0  2  0  0  0  0  0  0  0  0  0
    5.9730   -6.9301    0.0000 C   0  0  0  0  0  0  0  0  0  0  0  0
    5.2585   -6.5176    0.0000 C   0  0  0  0  0  0  0  0  0  0  0  0
    5.2585   -5.6926    0.0000 C   0  0  0  0  0  0  0  0  0  0  0  0
    5.9730   -5.2801    0.0000 C   0  0  0  0  0  0  0  0  0  0  0  0
    6.6874   -5.6926    0.0000 C   0  0  1  0  0  0  0  0  0  0  0  0
    6.8590   -4.8856    0.0000 C   0  0  0  0  0  0  0  0  0  0  0  0
    7.6794   -4.7994    0.0000 C   0  0  0  0  0  0  0  0  0  0  0  0
    8.0150   -5.5530    0.0000 C   0  0  0  0  0  0  0  0  0  0  0  0
    7.4019   -6.1051    0.0000 C   0  0  0  0  0  0  0  0  0  0  0  0
    8.3293   -5.9645    0.0000 C   0  0  0  0  0  0  0  0  0  0  0  0
    5.9730   -7.7551    0.0000 O   0  0  0  0  0  0  0  0  0  0  0  0
    9.1444   -5.8370    0.0000 C   0  0  0  0  0  0  0  0  0  0  0  0
    8.8472   -6.6067    0.0000 C   0  0  0  0  0  0  0  0  0  0  0  0
    5.5605   -4.5656    0.0000 C   0  0  0  0  0  0  0  0  0  0  0  0
    6.3855   -4.5656    0.0000 C   0  0  0  0  0  0  0  0  0  0  0  0
  1  2  1  0  0  0  0
  2  3  1  0  0  0  0
  3  4  1  0  0  0  0
  4  5  1  0  0  0  0
  6  5  1  6  0  0  0
  6  7  1  1  0  0  0
  7  8  1  0  0  0  0
  8  9  1  0  0  0  0
  9 10  1  0  0  0  0
  1 10  1  0  0  0  0
  1 11  1  1  0  0  0
  8 11  1  0  0  0  0
  1  6  1  0  0  0  0
  6 10  1  0  0  0  0
  2 12  1  0  0  0  0
 11 13  1  0  0  0  0
 11 14  1  0  0  0  0
  5 15  1  0  0  0  0
  5 16  1  0  0  0  0
M  END
>  <cdx:fragmentId>
986

$$$$
