300013.cdx
  Mrv1902 05222410182D          

 30 32  0  0  0  0            999 V2000
    8.6212   -5.0723    0.0000 C   0  0  0  0  0  0  0  0  0  0  0  0
    7.9067   -5.4848    0.0000 C   0  0  0  0  0  0  0  0  0  0  0  0
    7.1922   -5.0723    0.0000 C   0  0  0  0  0  0  0  0  0  0  0  0
    6.4777   -5.4848    0.0000 C   0  0  0  0  0  0  0  0  0  0  0  0
    5.7633   -5.0723    0.0000 C   0  0  0  0  0  0  0  0  0  0  0  0
    5.0488   -5.4848    0.0000 C   0  0  0  0  0  0  0  0  0  0  0  0
    4.3343   -5.0723    0.0000 C   0  0  0  0  0  0  0  0  0  0  0  0
    3.6199   -5.4848    0.0000 C   0  0  0  0  0  0  0  0  0  0  0  0
    2.9054   -5.0723    0.0000 C   0  0  0  0  0  0  0  0  0  0  0  0
    2.1909   -5.4848    0.0000 C   0  0  0  0  0  0  0  0  0  0  0  0
    8.6212   -4.2473    0.0000 O   0  0  0  0  0  0  0  0  0  0  0  0
    9.3356   -5.4848    0.0000 O   0  0  0  0  0  0  0  0  0  0  0  0
    8.6212   -7.5473    0.0000 C   0  0  0  0  0  0  0  0  0  0  0  0
    8.6212   -6.7223    0.0000 C   0  0  1  0  0  0  0  0  0  0  0  0
    9.3356   -6.3098    0.0000 C   0  0  1  0  0  0  0  0  0  0  0  0
   10.0501   -6.7223    0.0000 C   0  0  0  0  0  0  0  0  0  0  0  0
   10.7646   -6.3098    0.0000 C   0  0  0  0  0  0  0  0  0  0  0  0
   11.4790   -6.7223    0.0000 C   0  0  0  0  0  0  0  0  0  0  0  0
   11.4790   -7.5473    0.0000 C   0  0  0  0  0  0  0  0  0  0  0  0
   10.7646   -7.9598    0.0000 C   0  0  0  0  0  0  0  0  0  0  0  0
   10.0501   -7.5473    0.0000 C   0  0  0  0  0  0  0  0  0  0  0  0
    9.3356   -7.9598    0.0000 O   0  0  0  0  0  0  0  0  0  0  0  0
   12.1935   -6.3098    0.0000 C   0  0  0  0  0  0  0  0  0  0  0  0
   12.1935   -5.4848    0.0000 C   0  0  0  0  0  0  0  0  0  0  0  0
   11.4790   -5.0723    0.0000 C   0  0  0  0  0  0  0  0  0  0  0  0
   10.7646   -5.4848    0.0000 O   0  0  0  0  0  0  0  0  0  0  0  0
   11.4790   -4.2473    0.0000 O   0  0  0  0  0  0  0  0  0  0  0  0
    8.2087   -8.2618    0.0000 C   0  0  0  0  0  0  0  0  0  0  0  0
    7.7962   -7.5473    0.0000 C   0  0  0  0  0  0  0  0  0  0  0  0
    7.9067   -6.3098    0.0000 O   0  0  0  0  0  0  0  0  0  0  0  0
  1  2  1  0  0  0  0
  2  3  1  0  0  0  0
  3  4  1  0  0  0  0
  4  5  1  0  0  0  0
  5  6  1  0  0  0  0
  6  7  1  0  0  0  0
  7  8  1  0  0  0  0
  8  9  1  0  0  0  0
  9 10  1  0  0  0  0
  1 11  2  0  0  0  0
  1 12  1  0  0  0  0
 13 14  1  0  0  0  0
 14 15  1  0  0  0  0
 15 16  1  0  0  0  0
 16 17  1  0  0  0  0
 17 18  2  0  0  0  0
 18 19  1  0  0  0  0
 19 20  2  0  0  0  0
 20 21  1  0  0  0  0
 16 21  2  0  0  0  0
 21 22  1  0  0  0  0
 13 22  1  0  0  0  0
 23 24  2  0  0  0  0
 24 25  1  0  0  0  0
 25 26  1  0  0  0  0
 17 26  1  0  0  0  0
 18 23  1  0  0  0  0
 25 27  2  0  0  0  0
 13 28  1  0  0  0  0
 13 29  1  0  0  0  0
 14 30  1  6  0  0  0
 15 12  1  6  0  0  0
M  END
>  <cdx:fragmentId>
495

$$$$
