300069.cdx
  Mrv1902 05222410252D          

 11 10  0  0  0  0            999 V2000
    3.5958   -6.6684    0.0000 C   0  0  0  0  0  0  0  0  0  0  0  0
    4.3103   -6.2559    0.0000 C   0  0  0  0  0  0  0  0  0  0  0  0
    5.0247   -6.6684    0.0000 C   0  0  0  0  0  0  0  0  0  0  0  0
    5.7392   -6.2559    0.0000 C   0  0  0  0  0  0  0  0  0  0  0  0
    6.4537   -6.6684    0.0000 C   0  0  0  0  0  0  0  0  0  0  0  0
    7.1681   -6.2559    0.0000 C   0  0  0  0  0  0  0  0  0  0  0  0
    7.8826   -6.6684    0.0000 C   0  0  0  0  0  0  0  0  0  0  0  0
    8.5971   -6.2559    0.0000 C   0  0  0  0  0  0  0  0  0  0  0  0
    9.3116   -6.6684    0.0000 C   0  0  0  0  0  0  0  0  0  0  0  0
   10.0260   -6.2559    0.0000 C   0  0  0  0  0  0  0  0  0  0  0  0
   10.7405   -6.6684    0.0000 C   0  0  0  0  0  0  0  0  0  0  0  0
  1  2  1  0  0  0  0
  2  3  1  0  0  0  0
  3  4  1  0  0  0  0
  4  5  2  0  0  0  0
  5  6  1  0  0  0  0
  6  7  1  0  0  0  0
  7  8  1  0  0  0  0
  8  9  1  0  0  0  0
  9 10  1  0  0  0  0
 10 11  1  0  0  0  0
M  END
>  <cdx:fragmentId>
5115

$$$$
