30003.cdx
  Mrv1902 05222410242D          

 15 15  0  0  0  0            999 V2000
    6.0338   -7.4107    0.0000 C   0  0  0  0  0  0  0  0  0  0  0  0
    5.6213   -8.1251    0.0000 C   0  0  0  0  0  0  0  0  0  0  0  0
    6.0338   -8.8396    0.0000 C   0  0  0  0  0  0  0  0  0  0  0  0
    6.8588   -8.8396    0.0000 C   0  0  0  0  0  0  0  0  0  0  0  0
    7.2713   -8.1251    0.0000 C   0  0  0  0  0  0  0  0  0  0  0  0
    6.8588   -7.4107    0.0000 C   0  0  0  0  0  0  0  0  0  0  0  0
    4.7963   -8.1251    0.0000 O   0  0  0  0  0  0  0  0  0  0  0  0
    4.3838   -8.8396    0.0000 C   0  0  0  0  0  0  0  0  0  0  0  0
    8.0963   -8.1251    0.0000 C   0  0  0  0  0  0  0  0  0  0  0  0
    8.5088   -7.4107    0.0000 C   0  0  0  0  0  0  0  0  0  0  0  0
    9.3338   -7.4107    0.0000 C   0  0  0  0  0  0  0  0  0  0  0  0
    9.7463   -6.6962    0.0000 O   0  0  0  0  0  0  0  0  0  0  0  0
    9.7463   -8.1251    0.0000 O   0  0  0  0  0  0  0  0  0  0  0  0
   10.5713   -6.6962    0.0000 C   0  0  0  0  0  0  0  0  0  0  0  0
   10.7848   -5.8993    0.0000 C   0  0  0  0  0  0  0  0  0  0  0  0
  1  2  2  0  0  0  0
  2  3  1  0  0  0  0
  3  4  2  0  0  0  0
  4  5  1  0  0  0  0
  5  6  2  0  0  0  0
  6  1  1  0  0  0  0
  2  7  1  0  0  0  0
  7  8  1  0  0  0  0
  5  9  1  0  0  0  0
  9 10  1  0  0  0  0
 10 11  1  0  0  0  0
 11 12  1  0  0  0  0
 11 13  2  0  0  0  0
 12 14  1  0  0  0  0
 14 15  1  0  0  0  0
M  END
>  <cdx:fragmentId>
5

$$$$
