300004.cdx
  Mrv1902 05222410182D          

 19 20  0  0  0  0            999 V2000
    6.4912   -9.3070    0.0000 H   0  0  0  0  0  0  0  0  0  0  0  0
    6.1908   -9.6106    0.0000 C   0  0  0  0  0  0  0  0  0  0  0  0
    6.4781   -6.8321    0.0000 C   0  0  0  0  0  0  0  0  0  0  0  0
    9.3447   -8.4670    0.0000 C   0  0  0  0  0  0  0  0  0  0  0  0
    8.6324   -8.8833    0.0000 C   0  0  0  0  0  0  0  0  0  0  0  0
    8.6367   -9.7082    0.0000 C   0  0  0  0  0  0  0  0  0  0  0  0
    7.2078   -9.7158    0.0000 O   0  0  0  0  0  0  0  0  0  0  0  0
    5.3658   -9.6150    0.0000 O   0  0  0  0  0  0  0  0  0  0  0  0
    5.7615   -6.4234    0.0000 O   0  0  0  0  0  0  0  0  0  0  0  0
    6.4825   -7.6571    0.0000 C   0  0  1  0  0  0  0  0  0  0  0  0
    7.1947   -7.2408    0.0000 C   0  0  0  0  0  0  0  0  0  0  0  0
    7.9114   -7.6495    0.0000 C   0  0  0  0  0  0  0  0  0  0  0  0
    7.9157   -8.4745    0.0000 C   0  0  2  0  0  0  0  0  0  0  0  0
    7.2034   -8.8908    0.0000 C   0  0  1  0  0  0  0  0  0  0  0  0
    6.4868   -8.4821    0.0000 C   0  0  1  0  0  0  0  0  0  0  0  0
    5.7745   -8.8983    0.0000 C   0  0  1  0  0  0  0  0  0  0  0  0
    5.0579   -8.4896    0.0000 C   0  0  0  0  0  0  0  0  0  0  0  0
    5.0535   -7.6646    0.0000 C   0  0  0  0  0  0  0  0  0  0  0  0
    5.7658   -7.2483    0.0000 C   0  0  1  0  0  0  0  0  0  0  0  0
 15  1  1  6  0  0  0
 16  2  1  6  0  0  0
 10  3  1  1  0  0  0
 13  5  1  1  0  0  0
  5  4  1  0  0  0  0
  6  5  1  0  0  0  0
 14  7  1  6  0  0  0
 16  8  1  1  0  0  0
 19  9  1  1  0  0  0
 15 10  1  0  0  0  0
 19 10  1  0  0  0  0
 11 10  1  0  0  0  0
 12 11  1  0  0  0  0
 13 12  1  0  0  0  0
 14 13  1  0  0  0  0
 15 14  1  0  0  0  0
 16 15  1  0  0  0  0
 17 16  1  0  0  0  0
 18 17  1  0  0  0  0
 19 18  1  0  0  0  0
M  END
>  <cdx:fragmentId>
246

$$$$
