300026.cdx
  Mrv1902 05222410262D          

 22 23  0  0  0  0            999 V2000
    7.8246   -9.9589    0.0000 O   0  0  0  0  0  0  0  0  0  0  0  0
    7.5696  -10.7435    0.0000 C   0  0  0  0  0  0  0  0  0  0  0  0
    6.7446  -10.7434    0.0000 C   0  0  0  0  0  0  0  0  0  0  0  0
    6.4897   -9.9588    0.0000 C   0  0  1  0  0  0  0  0  0  0  0  0
    7.1572   -9.4739    0.0000 C   0  0  1  0  0  0  0  0  0  0  0  0
    8.0545  -11.4109    0.0000 O   0  0  0  0  0  0  0  0  0  0  0  0
    4.1359   -9.1939    0.0000 O   0  0  0  0  0  0  0  0  0  0  0  0
    6.2597  -11.4108    0.0000 C   0  0  0  0  0  0  0  0  0  0  0  0
    7.1572   -8.6489    0.0000 C   0  0  1  0  0  0  0  0  0  0  0  0
    7.8247   -8.1640    0.0000 C   0  0  2  0  0  0  0  0  0  0  0  0
    7.5698   -7.3794    0.0000 C   0  0  0  0  0  0  0  0  0  0  0  0
    6.7448   -7.3793    0.0000 C   0  0  0  0  0  0  0  0  0  0  0  0
    6.4898   -8.1640    0.0000 C   0  0  0  0  0  0  0  0  0  0  0  0
    5.7052   -8.4188    0.0000 O   0  0  0  0  0  0  0  0  0  0  0  0
    8.6317   -7.9925    0.0000 C   0  0  0  0  0  0  0  0  0  0  0  0
    8.3767   -8.7772    0.0000 O   0  0  0  0  0  0  0  0  0  0  0  0
    3.6943  -10.5528    0.0000 C   0  0  0  0  0  0  0  0  0  0  0  0
    4.3074  -10.0008    0.0000 C   0  0  0  0  0  0  0  0  0  0  0  0
    5.0920  -10.2558    0.0000 C   0  0  0  0  0  0  0  0  0  0  0  0
    5.7051   -9.7038    0.0000 C   0  0  0  0  0  0  0  0  0  0  0  0
    6.4428   -9.0614    0.0000 H   0  0  0  0  0  0  0  0  0  0  0  0
    7.8923   -9.0994    0.0000 H   0  0  0  0  0  0  0  0  0  0  0  0
 18  7  2  0  0  0  0
 18 17  1  0  0  0  0
 19 18  1  0  0  0  0
 20 19  1  0  0  0  0
  1  2  1  0  0  0  0
  2  3  1  0  0  0  0
  3  4  1  0  0  0  0
  4  5  1  0  0  0  0
  5  1  1  0  0  0  0
  2  6  2  0  0  0  0
  4 20  1  6  0  0  0
  3  8  2  0  0  0  0
  9 10  1  0  0  0  0
 10 11  1  0  0  0  0
 11 12  2  0  0  0  0
 12 13  1  0  0  0  0
  9 13  1  0  0  0  0
 13 14  2  0  0  0  0
 10 15  1  0  0  0  0
 10 16  1  1  0  0  0
  5  9  1  0  0  0  0
  9 21  1  1  0  0  0
  5 22  1  6  0  0  0
M  END
>  <cdx:fragmentId>
5

$$$$
