300011.cdx
  Mrv1902 05222410182D          

 17 18  0  0  0  0            999 V2000
    6.1265   -8.4003    0.0000 C   0  0  0  0  0  0  0  0  0  0  0  0
    8.4444   -6.6507    0.0000 C   0  0  0  0  0  0  0  0  0  0  0  0
    9.0301   -8.3473    0.0000 C   0  0  0  0  0  0  0  0  0  0  0  0
    6.6499   -6.6835    0.0000 O   0  0  0  0  0  0  0  0  0  0  0  0
    8.2410   -8.1067    0.0000 C   0  0  0  0  0  0  0  0  0  0  0  0
    7.9718   -7.3269    0.0000 C   0  0  0  0  0  0  0  0  0  0  0  0
    7.1469   -7.3419    0.0000 C   0  0  0  0  0  0  0  0  0  0  0  0
    6.9063   -8.1311    0.0000 C   0  0  1  0  0  0  0  0  0  0  0  0
    7.5825   -8.6037    0.0000 C   0  0  1  0  0  0  0  0  0  0  0  0
    8.2587   -9.0764    0.0000 O   0  0  0  0  0  0  0  0  0  0  0  0
    8.0182   -9.8655    0.0000 C   0  0  0  0  0  0  0  0  0  0  0  0
    7.1933   -9.8806    0.0000 C   0  0  0  0  0  0  0  0  0  0  0  0
    6.9241   -9.1008    0.0000 C   0  0  0  0  0  0  0  0  0  0  0  0
    8.5152  -10.5240    0.0000 O   0  0  0  0  0  0  0  0  0  0  0  0
    5.5034   -7.8596    0.0000 C   0  0  0  0  0  0  0  0  0  0  0  0
    4.7236   -8.1288    0.0000 C   0  0  0  0  0  0  0  0  0  0  0  0
    4.1005   -7.5881    0.0000 C   0  0  0  0  0  0  0  0  0  0  0  0
  8  1  1  1  0  0  0
  6  2  1  0  0  0  0
  5  3  1  0  0  0  0
  7  4  2  0  0  0  0
  9  5  1  0  0  0  0
  9 13  1  1  0  0  0
  6  5  2  0  0  0  0
  7  6  1  0  0  0  0
  8  7  1  0  0  0  0
  9  8  1  0  0  0  0
 10  9  1  0  0  0  0
 11 10  1  0  0  0  0
 12 11  1  0  0  0  0
 13 12  1  0  0  0  0
 11 14  2  0  0  0  0
  1 15  1  0  0  0  0
 15 16  1  0  0  0  0
 16 17  1  0  0  0  0
M  END
>  <cdx:fragmentId>
320

$$$$
