300070.cdx
  Mrv1902 05222410212D          

 11 10  0  0  0  0            999 V2000
    4.3378  -12.4912    0.0000 C   0  0  0  0  0  0  0  0  0  0  0  0
    5.0522  -12.0787    0.0000 C   0  0  0  0  0  0  0  0  0  0  0  0
    5.7667  -12.4912    0.0000 C   0  0  0  0  0  0  0  0  0  0  0  0
    6.4812  -12.0787    0.0000 C   0  0  0  0  0  0  0  0  0  0  0  0
    7.1956  -12.4912    0.0000 C   0  0  0  0  0  0  0  0  0  0  0  0
    7.9101  -12.0787    0.0000 C   0  0  0  0  0  0  0  0  0  0  0  0
    8.6246  -12.4912    0.0000 C   0  0  0  0  0  0  0  0  0  0  0  0
    9.3391  -12.0787    0.0000 C   0  0  0  0  0  0  0  0  0  0  0  0
    9.3391  -11.2537    0.0000 C   0  0  0  0  0  0  0  0  0  0  0  0
   10.0535  -12.4912    0.0000 C   0  0  0  0  0  0  0  0  0  0  0  0
    6.4812  -11.2537    0.0000 C   0  0  0  0  0  0  0  0  0  0  0  0
  1  2  2  0  0  0  0
  2  3  1  0  0  0  0
  3  4  2  0  0  0  0
  4  5  1  0  0  0  0
  5  6  1  0  0  0  0
  6  7  1  0  0  0  0
  7  8  2  0  0  0  0
  8  9  1  0  0  0  0
  8 10  1  0  0  0  0
  4 11  1  0  0  0  0
M  END
>  <cdx:fragmentId>
5150

$$$$
