300094.cdx
  Mrv1902 05222410252D          

 13 15  0  0  0  0            999 V2000
    7.7107   -7.2150    0.0000 C   0  0  0  0  0  0  0  0  0  0  0  0
    8.5357   -7.2150    0.0000 C   0  0  0  0  0  0  0  0  0  0  0  0
    7.2982   -6.5005    0.0000 C   0  0  0  0  0  0  0  0  0  0  0  0
    7.9872   -6.0854    0.0000 C   0  0  0  0  0  0  0  0  0  0  0  0
    7.9822   -5.2811    0.0000 C   0  0  0  0  0  0  0  0  0  0  0  0
    7.2881   -4.8745    0.0000 C   0  0  0  0  0  0  0  0  0  0  0  0
    6.5838   -5.2630    0.0000 C   0  0  0  0  0  0  0  0  0  0  0  0
    5.8693   -5.6755    0.0000 C   0  0  0  0  0  0  0  0  0  0  0  0
    5.8693   -6.5005    0.0000 C   0  0  0  0  0  0  0  0  0  0  0  0
    6.5838   -6.9130    0.0000 C   0  0  0  0  0  0  0  0  0  0  0  0
    6.7272   -5.5476    0.0000 C   0  0  0  0  0  0  0  0  0  0  0  0
    7.2982   -5.6755    0.0000 C   0  0  0  0  0  0  0  0  0  0  0  0
    7.2982   -7.9295    0.0000 O   0  0  0  0  0  0  0  0  0  0  0  0
  1  2  1  0  0  0  0
  3  4  1  0  0  0  0
  4  5  1  0  0  0  0
  5  6  1  0  0  0  0
  6  7  1  0  0  0  0
  7  8  1  0  0  0  0
  8  9  1  0  0  0  0
  9 10  1  0  0  0  0
  3 10  1  0  0  0  0
  9 11  1  0  0  0  0
  5 11  1  0  0  0  0
  7 12  1  0  0  0  0
  3 12  1  0  0  0  0
  1  3  1  0  0  0  0
  1 13  1  0  0  0  0
M  END
>  <cdx:fragmentId>
946

$$$$
