300065.cdx
  Mrv1902 05222410212D          

 22 24  0  0  0  0            999 V2000
    3.7159   -5.4216    0.0000 O   0  0  0  0  0  0  0  0  0  0  0  0
    3.7159   -7.0716    0.0000 O   0  0  0  0  0  0  0  0  0  0  0  0
    5.8593   -6.6591    0.0000 C   0  0  0  0  0  0  0  0  0  0  0  0
    5.1448   -7.0716    0.0000 C   0  0  0  0  0  0  0  0  0  0  0  0
    4.4303   -6.6591    0.0000 C   0  0  0  0  0  0  0  0  0  0  0  0
    4.4303   -5.8341    0.0000 C   0  0  0  0  0  0  0  0  0  0  0  0
    5.1448   -5.4216    0.0000 C   0  0  0  0  0  0  0  0  0  0  0  0
    5.8593   -5.8341    0.0000 C   0  0  0  0  0  0  0  0  0  0  0  0
    6.6439   -5.5792    0.0000 C   0  0  0  0  0  0  0  0  0  0  0  0
    7.1288   -6.2466    0.0000 C   0  0  0  0  0  0  0  0  0  0  0  0
    6.6439   -6.9141    0.0000 N   0  0  0  0  0  0  0  0  0  0  0  0
   11.1886   -9.3410    0.0000 O   0  0  0  0  0  0  0  0  0  0  0  0
    9.3198   -8.2133    0.0000 C   0  0  0  0  0  0  0  0  0  0  0  0
   10.1267   -8.3848    0.0000 C   0  0  0  0  0  0  0  0  0  0  0  0
   10.3817   -9.1694    0.0000 C   0  0  0  0  0  0  0  0  0  0  0  0
    9.8296   -9.7825    0.0000 C   0  0  0  0  0  0  0  0  0  0  0  0
    9.0227   -9.6110    0.0000 C   0  0  0  0  0  0  0  0  0  0  0  0
    8.7677   -8.8264    0.0000 C   0  0  0  0  0  0  0  0  0  0  0  0
    6.3468   -8.3118    0.0000 O   0  0  0  0  0  0  0  0  0  0  0  0
    7.9608   -8.6549    0.0000 C   0  0  0  0  0  0  0  0  0  0  0  0
    7.7058   -7.8702    0.0000 C   0  0  0  0  0  0  0  0  0  0  0  0
    6.8988   -7.6987    0.0000 C   0  0  0  0  0  0  0  0  0  0  0  0
 22 11  1  0  0  0  0
  6  1  1  0  0  0  0
  5  2  1  0  0  0  0
  8  3  2  0  0  0  0
 11  3  1  0  0  0  0
  4  3  1  0  0  0  0
  5  4  2  0  0  0  0
  6  5  1  0  0  0  0
  7  6  2  0  0  0  0
  8  7  1  0  0  0  0
  9  8  1  0  0  0  0
 10  9  2  0  0  0  0
 11 10  1  0  0  0  0
 20 18  1  0  0  0  0
 15 12  1  0  0  0  0
 18 13  2  0  0  0  0
 14 13  1  0  0  0  0
 15 14  2  0  0  0  0
 16 15  1  0  0  0  0
 17 16  2  0  0  0  0
 18 17  1  0  0  0  0
 22 19  2  0  0  0  0
 21 20  2  0  0  0  0
 22 21  1  0  0  0  0
M  END
>  <cdx:fragmentId>
4921

$$$$
