300005.cdx
  Mrv1902 05222410182D          

 11 12  0  0  0  0            999 V2000
    6.6018   -7.5628    0.0000 C   0  0  0  0  0  0  0  0  0  0  0  0
    7.3163   -7.1503    0.0000 C   0  0  0  0  0  0  0  0  0  0  0  0
    7.3163   -6.3253    0.0000 C   0  0  0  0  0  0  0  0  0  0  0  0
    6.6018   -5.9128    0.0000 C   0  0  0  0  0  0  0  0  0  0  0  0
    5.8873   -6.3253    0.0000 C   0  0  0  0  0  0  0  0  0  0  0  0
    5.8873   -7.1503    0.0000 N   0  0  0  0  0  0  0  0  0  0  0  0
    8.1009   -6.0703    0.0000 C   0  0  0  0  0  0  0  0  0  0  0  0
    8.5858   -6.7378    0.0000 C   0  0  0  0  0  0  0  0  0  0  0  0
    8.1009   -7.4052    0.0000 C   0  0  2  0  0  0  0  0  0  0  0  0
    8.3558   -8.1898    0.0000 C   0  0  0  0  0  0  0  0  0  0  0  0
    6.6018   -5.0878    0.0000 C   0  0  0  0  0  0  0  0  0  0  0  0
  1  2  1  0  0  0  0
  2  3  2  0  0  0  0
  3  4  1  0  0  0  0
  4  5  2  0  0  0  0
  5  6  1  0  0  0  0
  1  6  2  0  0  0  0
  7  8  1  0  0  0  0
  8  9  1  0  0  0  0
  2  9  1  0  0  0  0
  3  7  1  0  0  0  0
  9 10  1  6  0  0  0
  4 11  1  0  0  0  0
M  END
>  <cdx:fragmentId>
126

$$$$
