300096.cdx
  Mrv1902 05222410252D          

 19 21  0  0  0  0            999 V2000
    7.6979   -6.8145    0.0000 C   0  0  0  0  0  0  0  0  0  0  0  0
    8.4123   -7.2270    0.0000 N   0  0  0  0  0  0  0  0  0  0  0  0
    8.4123   -8.0520    0.0000 C   0  0  0  0  0  0  0  0  0  0  0  0
    7.6979   -8.4645    0.0000 C   0  0  0  0  0  0  0  0  0  0  0  0
    6.9834   -8.0520    0.0000 C   0  0  0  0  0  0  0  0  0  0  0  0
    6.2689   -8.4645    0.0000 C   0  0  0  0  0  0  0  0  0  0  0  0
    5.5544   -8.0520    0.0000 C   0  0  0  0  0  0  0  0  0  0  0  0
    5.5544   -7.2270    0.0000 C   0  0  0  0  0  0  0  0  0  0  0  0
    6.2689   -6.8145    0.0000 C   0  0  0  0  0  0  0  0  0  0  0  0
    6.9834   -7.2270    0.0000 C   0  0  0  0  0  0  0  0  0  0  0  0
    4.8400   -8.4645    0.0000 O   0  0  0  0  0  0  0  0  0  0  0  0
    4.8400   -6.8145    0.0000 O   0  0  0  0  0  0  0  0  0  0  0  0
    7.6979   -5.9895    0.0000 C   0  0  0  0  0  0  0  0  0  0  0  0
    8.4123   -5.5770    0.0000 C   0  0  0  0  0  0  0  0  0  0  0  0
    8.4123   -4.7520    0.0000 C   0  0  0  0  0  0  0  0  0  0  0  0
    9.1268   -4.3395    0.0000 C   0  0  0  0  0  0  0  0  0  0  0  0
    9.8413   -4.7520    0.0000 C   0  0  0  0  0  0  0  0  0  0  0  0
    9.8413   -5.5770    0.0000 C   0  0  0  0  0  0  0  0  0  0  0  0
    9.1268   -5.9895    0.0000 C   0  0  0  0  0  0  0  0  0  0  0  0
  1  2  1  0  0  0  0
  2  3  1  0  0  0  0
  3  4  1  0  0  0  0
  4  5  1  0  0  0  0
  5  6  1  0  0  0  0
  6  7  2  0  0  0  0
  7  8  1  0  0  0  0
  8  9  2  0  0  0  0
  9 10  1  0  0  0  0
  1 10  1  0  0  0  0
  5 10  2  0  0  0  0
  7 11  1  0  0  0  0
  8 12  1  0  0  0  0
 13 14  1  0  0  0  0
 14 15  1  0  0  0  0
 15 16  2  0  0  0  0
 16 17  1  0  0  0  0
 17 18  2  0  0  0  0
 18 19  1  0  0  0  0
 14 19  2  0  0  0  0
  1 13  1  0  0  0  0
M  END
>  <cdx:fragmentId>
1046

$$$$
