300027.cdx
  Mrv1902 05222410272D          

 18 19  0  0  0  0            999 V2000
    6.4997   -4.1800    0.0000 C   0  0  0  0  0  0  0  0  0  0  0  0
    6.4997   -5.0050    0.0000 C   0  0  0  0  0  0  0  0  0  0  0  0
    7.2844   -5.2599    0.0000 C   0  0  1  0  0  0  0  0  0  0  0  0
    7.7693   -4.5925    0.0000 C   0  0  1  0  0  0  0  0  0  0  0  0
    7.2844   -3.9251    0.0000 C   0  0  0  0  0  0  0  0  0  0  0  0
    7.7693   -5.9274    0.0000 O   0  0  0  0  0  0  0  0  0  0  0  0
    8.5539   -5.6724    0.0000 C   0  0  0  0  0  0  0  0  0  0  0  0
    8.5539   -4.8474    0.0000 C   0  0  0  0  0  0  0  0  0  0  0  0
    5.8323   -3.6951    0.0000 C   0  0  0  0  0  0  0  0  0  0  0  0
    5.8323   -5.4899    0.0000 C   0  0  0  0  0  0  0  0  0  0  0  0
    7.5393   -3.1404    0.0000 O   0  0  0  0  0  0  0  0  0  0  0  0
    9.2213   -6.1574    0.0000 O   0  0  0  0  0  0  0  0  0  0  0  0
    6.7994   -5.9274    0.0000 C   0  0  0  0  0  0  0  0  0  0  0  0
    7.1350   -6.6811    0.0000 C   0  0  0  0  0  0  0  0  0  0  0  0
    6.6501   -7.3485    0.0000 C   0  0  0  0  0  0  0  0  0  0  0  0
    6.9856   -8.1022    0.0000 C   0  0  0  0  0  0  0  0  0  0  0  0
    6.5007   -8.7696    0.0000 C   0  0  0  0  0  0  0  0  0  0  0  0
    8.2542   -3.9251    0.0000 H   0  0  0  0  0  0  0  0  0  0  0  0
  1  2  2  0  0  0  0
  2  3  1  0  0  0  0
  3  4  1  0  0  0  0
  4  5  1  0  0  0  0
  5  1  1  0  0  0  0
  3  6  1  0  0  0  0
  6  7  1  0  0  0  0
  7  8  1  0  0  0  0
  8  4  1  0  0  0  0
  1  9  1  0  0  0  0
  2 10  1  0  0  0  0
  5 11  2  0  0  0  0
  7 12  2  0  0  0  0
  3 13  1  6  0  0  0
 13 14  1  0  0  0  0
 14 15  1  0  0  0  0
 15 16  1  0  0  0  0
 16 17  1  0  0  0  0
  4 18  1  6  0  0  0
M  END
>  <cdx:fragmentId>
2121

$$$$
