300036.cdx
  Mrv1902 05222410272D          

 12 13  0  0  0  0            999 V2000
    7.9750   -6.3530    0.0000 H   0  0  0  0  0  0  0  0  0  0  0  0
    7.2875   -8.7725    0.0000 H   0  0  0  0  0  0  0  0  0  0  0  0
    9.1844   -7.5415    0.0000 C   0  0  0  0  0  0  0  0  0  0  0  0
    8.8000   -8.4695    0.0000 C   0  0  0  0  0  0  0  0  0  0  0  0
    6.9575   -6.1050    0.0000 C   0  0  0  0  0  0  0  0  0  0  0  0
    8.3875   -7.7550    0.0000 C   0  0  0  0  0  0  0  0  0  0  0  0
    7.5625   -7.0675    0.0000 C   0  0  2  0  0  0  0  0  0  0  0  0
    6.1050   -7.1500    0.0000 C   0  0  0  0  0  0  0  0  0  0  0  0
    5.7200   -7.8100    0.0000 C   0  0  0  0  0  0  0  0  0  0  0  0
    6.2975   -8.2775    0.0000 C   0  0  2  0  0  0  0  0  0  0  0  0
    7.2875   -7.9475    0.0000 C   0  0  2  0  0  0  0  0  0  0  0  0
    6.0840   -9.0744    0.0000 C   0  0  0  0  0  0  0  0  0  0  0  0
  7  1  1  1  0  0  0
 11  2  1  1  0  0  0
  6  3  1  0  0  0  0
  6  4  1  0  0  0  0
  7  5  1  0  0  0  0
 11  5  1  0  0  0  0
 11  6  1  0  0  0  0
  7  6  1  0  0  0  0
  8  7  1  0  0  0  0
  9  8  1  0  0  0  0
 10  9  1  0  0  0  0
 11 10  1  0  0  0  0
 10 12  1  6  0  0  0
M  END
>  <cdx:fragmentId>
2529

$$$$
