300003.cdx
  Mrv1902 05222410192D          

 24 27  0  0  0  0            999 V2000
    7.1156   -7.4127    0.0000 C   0  0  1  0  0  0  0  0  0  0  0  0
    6.4012   -7.8252    0.0000 C   0  0  1  0  0  0  0  0  0  0  0  0
    5.6867   -7.4127    0.0000 C   0  0  1  0  0  0  0  0  0  0  0  0
    4.9722   -7.8252    0.0000 C   0  0  0  0  0  0  0  0  0  0  0  0
    4.9722   -8.6502    0.0000 C   0  0  0  0  0  0  0  0  0  0  0  0
    5.6867   -9.0627    0.0000 C   0  0  0  0  0  0  0  0  0  0  0  0
    6.4012   -8.6502    0.0000 N   0  0  0  0  0  0  0  0  0  0  0  0
    7.1156   -9.0627    0.0000 C   0  0  0  0  0  0  0  0  0  0  0  0
    7.8301   -8.6502    0.0000 C   0  0  2  0  0  0  0  0  0  0  0  0
    8.5440   -9.0636    0.0000 C   0  0  0  0  0  0  0  0  0  0  0  0
    9.2584   -8.6509    0.0000 C   0  0  0  0  0  0  0  0  0  0  0  0
    9.2586   -7.8259    0.0000 C   0  0  0  0  0  0  0  0  0  0  0  0
    8.5446   -7.4127    0.0000 N   0  3  0  0  0  0  0  0  0  0  0  0
    8.5446   -6.5877    0.0000 C   0  0  0  0  0  0  0  0  0  0  0  0
    7.8301   -6.1752    0.0000 C   0  0  0  0  0  0  0  0  0  0  0  0
    7.1156   -6.5877    0.0000 C   0  0  0  0  0  0  0  0  0  0  0  0
    7.8301   -7.8252    0.0000 C   0  0  2  0  0  0  0  0  0  0  0  0
    5.6867   -9.8877    0.0000 O   0  0  0  0  0  0  0  0  0  0  0  0
    9.2591   -7.0002    0.0000 O   0  5  0  0  0  0  0  0  0  0  0  0
    5.6867   -6.5877    0.0000 O   0  0  0  0  0  0  0  0  0  0  0  0
    7.1156   -8.2377    0.0000 H   0  0  0  0  0  0  0  0  0  0  0  0
    6.4012   -7.0002    0.0000 H   0  0  0  0  0  0  0  0  0  0  0  0
    7.8301   -9.4752    0.0000 H   0  0  0  0  0  0  0  0  0  0  0  0
    7.8301   -7.0002    0.0000 H   0  0  0  0  0  0  0  0  0  0  0  0
  1  2  1  0  0  0  0
  2  3  1  0  0  0  0
  3  4  1  0  0  0  0
  4  5  2  0  0  0  0
  5  6  1  0  0  0  0
  6  7  1  0  0  0  0
  7  8  1  0  0  0  0
  8  9  1  0  0  0  0
  9 10  1  0  0  0  0
 10 11  1  0  0  0  0
 11 12  1  0  0  0  0
 12 13  1  0  0  0  0
 13 14  1  0  0  0  0
 14 15  1  0  0  0  0
 15 16  1  0  0  0  0
  1 16  1  0  0  0  0
  1 17  1  0  0  0  0
  9 17  1  0  0  0  0
  2  7  1  0  0  0  0
 13 17  1  0  0  0  0
  6 18  2  0  0  0  0
 13 19  1  0  0  0  0
  3 20  1  1  0  0  0
  1 21  1  6  0  0  0
  2 22  1  1  0  0  0
  9 23  1  6  0  0  0
 17 24  1  6  0  0  0
M  CHG  2  13   1  19  -1
M  END
>  <cdx:fragmentId>
166

$$$$
