300095.cdx
  Mrv1902 05222410252D          

 19 20  0  0  0  0            999 V2000
    6.5285   -6.0956    0.0000 C   0  0  0  0  0  0  0  0  0  0  0  0
    5.8140   -6.5081    0.0000 C   0  0  0  0  0  0  0  0  0  0  0  0
    5.0996   -6.0956    0.0000 C   0  0  0  0  0  0  0  0  0  0  0  0
    5.0996   -5.2706    0.0000 C   0  0  0  0  0  0  0  0  0  0  0  0
    5.8140   -4.8581    0.0000 C   0  0  0  0  0  0  0  0  0  0  0  0
    6.5285   -5.2706    0.0000 C   0  0  0  0  0  0  0  0  0  0  0  0
    7.2430   -5.6831    0.0000 N   0  0  0  0  0  0  0  0  0  0  0  0
    8.0680   -5.6831    0.0000 C   0  0  0  0  0  0  0  0  0  0  0  0
    8.4805   -6.3975    0.0000 O   0  0  0  0  0  0  0  0  0  0  0  0
    8.4805   -4.9686    0.0000 O   0  0  0  0  0  0  0  0  0  0  0  0
    6.9410   -6.8100    0.0000 C   0  0  0  0  0  0  0  0  0  0  0  0
    7.7660   -6.8100    0.0000 C   0  0  0  0  0  0  0  0  0  0  0  0
    8.1785   -7.5245    0.0000 C   0  0  0  0  0  0  0  0  0  0  0  0
    9.0035   -7.5245    0.0000 C   0  0  0  0  0  0  0  0  0  0  0  0
    7.7660   -8.2390    0.0000 O   0  0  0  0  0  0  0  0  0  0  0  0
    6.9410   -4.5561    0.0000 C   0  0  0  0  0  0  0  0  0  0  0  0
    6.2265   -7.2225    0.0000 C   0  0  0  0  0  0  0  0  0  0  0  0
    5.4015   -7.2225    0.0000 C   0  0  0  0  0  0  0  0  0  0  0  0
    9.3055   -4.9686    0.0000 C   0  0  0  0  0  0  0  0  0  0  0  0
  1  2  1  0  0  0  0
  2  3  1  0  0  0  0
  3  4  1  0  0  0  0
  4  5  1  0  0  0  0
  5  6  1  0  0  0  0
  6  7  1  0  0  0  0
  1  7  1  0  0  0  0
  1  6  1  0  0  0  0
  8  9  2  0  0  0  0
  8 10  1  0  0  0  0
  7  8  1  0  0  0  0
 11 12  2  0  0  0  0
 12 13  1  0  0  0  0
 13 14  1  0  0  0  0
 13 15  2  0  0  0  0
  1 11  1  0  0  0  0
  6 16  1  0  0  0  0
  2 17  1  0  0  0  0
  2 18  1  0  0  0  0
 10 19  1  0  0  0  0
M  END
>  <cdx:fragmentId>
986

$$$$
