300034.cdx
  Mrv1902 05222410282D          

 11 11  0  0  0  0            999 V2000
    8.0808   -8.5600    0.0000 C   0  0  1  0  0  0  0  0  0  0  0  0
    7.5288   -7.9469    0.0000 C   0  0  2  0  0  0  0  0  0  0  0  0
    6.7751   -8.2825    0.0000 C   0  0  1  0  0  0  0  0  0  0  0  0
    6.8614   -9.1030    0.0000 C   0  0  0  0  0  0  0  0  0  0  0  0
    7.6683   -9.2745    0.0000 C   0  0  0  0  0  0  0  0  0  0  0  0
    8.7483   -8.0751    0.0000 O   0  0  0  0  0  0  0  0  0  0  0  0
    6.0607   -7.0450    0.0000 C   0  0  0  0  0  0  0  0  0  0  0  0
    6.0607   -7.8700    0.0000 C   0  0  0  0  0  0  0  0  0  0  0  0
    5.3462   -8.2825    0.0000 C   0  0  0  0  0  0  0  0  0  0  0  0
    7.7003   -7.1400    0.0000 C   0  0  0  0  0  0  0  0  0  0  0  0
    8.8345   -8.8956    0.0000 C   0  0  0  0  0  0  0  0  0  0  0  0
  1  2  1  0  0  0  0
  2  3  1  0  0  0  0
  3  4  1  0  0  0  0
  4  5  1  0  0  0  0
  1  5  1  0  0  0  0
  1  6  1  6  0  0  0
  7  8  2  0  0  0  0
  8  9  1  0  0  0  0
  3  8  1  1  0  0  0
  2 10  1  6  0  0  0
  1 11  1  1  0  0  0
M  END
>  <cdx:fragmentId>
2444

$$$$
