300073.cdx
  Mrv1902 05222410202D          

 10 10  0  0  0  0            999 V2000
    5.7524   -9.0887    0.0000 C   0  0  0  0  0  0  0  0  0  0  0  0
    5.7524   -9.9138    0.0000 C   0  0  0  0  0  0  0  0  0  0  0  0
    6.4669  -10.3262    0.0000 C   0  0  0  0  0  0  0  0  0  0  0  0
    7.1814   -9.9138    0.0000 C   0  0  0  0  0  0  0  0  0  0  0  0
    7.1814   -9.0887    0.0000 C   0  0  0  0  0  0  0  0  0  0  0  0
    6.4669   -8.6762    0.0000 C   0  0  0  0  0  0  0  0  0  0  0  0
    6.4669   -7.8513    0.0000 C   0  0  0  0  0  0  0  0  0  0  0  0
    7.1814   -7.4387    0.0000 C   0  0  2  0  0  0  0  0  0  0  0  0
    7.1814   -6.6137    0.0000 N   0  0  0  0  0  0  0  0  0  0  0  0
    7.8958   -7.8513    0.0000 C   0  0  0  0  0  0  0  0  0  0  0  0
  1  2  2  0  0  0  0
  2  3  1  0  0  0  0
  3  4  2  0  0  0  0
  4  5  1  0  0  0  0
  5  6  2  0  0  0  0
  6  1  1  0  0  0  0
  6  7  1  0  0  0  0
  7  8  1  0  0  0  0
  8  9  1  6  0  0  0
  8 10  1  0  0  0  0
M  END
>  <cdx:fragmentId>
5

$$$$
