300051.cdx
  Mrv1902 05222410242D          

 19 19  0  0  0  0            999 V2000
   10.7714   -8.6970    0.0000 C   0  0  0  0  0  0  0  0  0  0  0  0
   10.0570   -9.1095    0.0000 C   0  0  0  0  0  0  0  0  0  0  0  0
    9.3425   -8.6970    0.0000 C   0  0  0  0  0  0  0  0  0  0  0  0
    8.6280   -9.1095    0.0000 C   0  0  0  0  0  0  0  0  0  0  0  0
    7.9136   -8.6970    0.0000 C   0  0  0  0  0  0  0  0  0  0  0  0
    7.1991   -9.1095    0.0000 C   0  0  0  0  0  0  0  0  0  0  0  0
    6.4846   -8.6970    0.0000 C   0  0  0  0  0  0  0  0  0  0  0  0
    5.7701   -9.1095    0.0000 C   0  0  0  0  0  0  0  0  0  0  0  0
   10.0570   -9.9345    0.0000 O   0  0  0  0  0  0  0  0  0  0  0  0
    5.0557   -8.6970    0.0000 C   0  0  0  0  0  0  0  0  0  0  0  0
    4.3412   -9.1095    0.0000 C   0  0  0  0  0  0  0  0  0  0  0  0
    3.6267   -8.6970    0.0000 C   0  0  0  0  0  0  0  0  0  0  0  0
    3.6267   -7.8720    0.0000 C   0  0  0  0  0  0  0  0  0  0  0  0
    4.3412   -7.4595    0.0000 C   0  0  0  0  0  0  0  0  0  0  0  0
    5.0557   -7.8720    0.0000 C   0  0  0  0  0  0  0  0  0  0  0  0
    5.4682   -7.1575    0.0000 C   0  0  0  0  0  0  0  0  0  0  0  0
    5.8807   -7.8720    0.0000 C   0  0  0  0  0  0  0  0  0  0  0  0
    4.3412   -9.9345    0.0000 C   0  0  0  0  0  0  0  0  0  0  0  0
    7.1991   -9.9345    0.0000 C   0  0  0  0  0  0  0  0  0  0  0  0
  1  2  1  0  0  0  0
  2  3  1  0  0  0  0
  3  4  2  0  0  0  0
  4  5  1  0  0  0  0
  5  6  2  0  0  0  0
  6  7  1  0  0  0  0
  7  8  2  0  0  0  0
  2  9  2  0  0  0  0
 10 11  2  0  0  0  0
 11 12  1  0  0  0  0
 12 13  1  0  0  0  0
 13 14  1  0  0  0  0
 14 15  1  0  0  0  0
 10 15  1  0  0  0  0
 15 16  1  0  0  0  0
 15 17  1  0  0  0  0
 11 18  1  0  0  0  0
  8 10  1  0  0  0  0
  6 19  1  0  0  0  0
M  END
>  <cdx:fragmentId>
4092

$$$$
