300050.cdx
  Mrv1902 05222410242D          

  8  7  0  0  0  0            999 V2000
    6.8812   -8.5924    0.0000 C   0  0  0  0  0  0  0  0  0  0  0  0
    7.5956   -9.0049    0.0000 C   0  0  0  0  0  0  0  0  0  0  0  0
    8.3101   -8.5924    0.0000 C   0  0  0  0  0  0  0  0  0  0  0  0
    9.0246   -9.0049    0.0000 S   0  0  0  0  0  0  0  0  0  0  0  0
    9.7391   -8.5924    0.0000 C   0  0  0  0  0  0  0  0  0  0  0  0
    6.1667   -9.0049    0.0000 N   0  0  0  0  0  0  0  0  0  0  0  0
    5.4522   -8.5924    0.0000 C   0  0  0  0  0  0  0  0  0  0  0  0
    4.7378   -8.1799    0.0000 S   0  0  0  0  0  0  0  0  0  0  0  0
  1  2  1  0  0  0  0
  2  3  1  0  0  0  0
  4  5  1  0  0  0  0
  3  4  1  0  0  0  0
  6  7  2  0  0  0  0
  7  8  2  0  0  0  0
  1  6  1  0  0  0  0
M  END
>  <cdx:fragmentId>
4049

$$$$
