300098.cdx
  Mrv1902 05222410202D          

 11 11  0  0  0  0            999 V2000
    7.1922   -6.0747    0.0000 C   0  0  0  0  0  0  0  0  0  0  0  0
    6.4777   -6.4872    0.0000 C   0  0  0  0  0  0  0  0  0  0  0  0
    5.7633   -6.0747    0.0000 C   0  0  0  0  0  0  0  0  0  0  0  0
    5.0488   -6.4872    0.0000 C   0  0  0  0  0  0  0  0  0  0  0  0
    7.1922   -5.2497    0.0000 O   0  0  0  0  0  0  0  0  0  0  0  0
    7.9067   -7.3122    0.0000 C   0  0  0  0  0  0  0  0  0  0  0  0
    8.6212   -7.7247    0.0000 C   0  0  0  0  0  0  0  0  0  0  0  0
    9.3356   -7.3122    0.0000 C   0  0  0  0  0  0  0  0  0  0  0  0
    9.3356   -6.4872    0.0000 C   0  0  0  0  0  0  0  0  0  0  0  0
    8.6212   -6.0747    0.0000 C   0  0  0  0  0  0  0  0  0  0  0  0
    7.9067   -6.4872    0.0000 N   0  0  0  0  0  0  0  0  0  0  0  0
  1  2  1  0  0  0  0
  2  3  1  0  0  0  0
  3  4  1  0  0  0  0
  1  5  2  0  0  0  0
  6  7  1  0  0  0  0
  7  8  1  0  0  0  0
  8  9  2  0  0  0  0
  9 10  1  0  0  0  0
 10 11  1  0  0  0  0
  6 11  1  0  0  0  0
  1 11  1  0  0  0  0
M  END
>  <cdx:fragmentId>
1149

$$$$
