300076.cdx
  Mrv1902 05222410222D          

 50 53  0  0  0  0            999 V2000
   10.1652   -9.5044    0.0000 O   0  0  0  0  0  0  0  0  0  0  0  0
   10.1652  -10.3294    0.0000 C   0  0  0  0  0  0  0  0  0  0  0  0
   10.8797  -10.7419    0.0000 C   0  0  0  0  0  0  0  0  0  0  0  0
   11.5942  -10.3294    0.0000 C   0  0  0  0  0  0  0  0  0  0  0  0
   11.5942   -9.5044    0.0000 C   0  0  0  0  0  0  0  0  0  0  0  0
   10.8797   -9.0919    0.0000 C   0  0  0  0  0  0  0  0  0  0  0  0
   12.3086   -9.0919    0.0000 C   0  0  0  0  0  0  0  0  0  0  0  0
   12.3086   -8.2669    0.0000 C   0  0  0  0  0  0  0  0  0  0  0  0
   11.5942   -7.8544    0.0000 O   0  0  0  0  0  0  0  0  0  0  0  0
   10.8797   -8.2669    0.0000 O   0  0  0  0  0  0  0  0  0  0  0  0
   13.7376   -8.2669    0.0000 C   0  0  0  0  0  0  0  0  0  0  0  0
   13.0231   -7.8544    0.0000 O   0  0  0  0  0  0  0  0  0  0  0  0
   14.4520   -7.8544    0.0000 C   0  0  0  0  0  0  0  0  0  0  0  0
   14.4520   -7.0294    0.0000 C   0  0  0  0  0  0  0  0  0  0  0  0
   15.1665   -8.2669    0.0000 C   0  0  0  0  0  0  0  0  0  0  0  0
   15.8810   -7.8544    0.0000 C   0  0  0  0  0  0  0  0  0  0  0  0
   15.8810   -7.0294    0.0000 C   0  0  0  0  0  0  0  0  0  0  0  0
   15.1665   -6.6169    0.0000 C   0  0  0  0  0  0  0  0  0  0  0  0
    9.4507   -9.0919    0.0000 C   0  0  0  0  0  0  0  0  0  0  0  0
    8.7363   -9.5044    0.0000 C   0  0  0  0  0  0  0  0  0  0  0  0
    8.7363  -10.3294    0.0000 C   0  0  0  0  0  0  0  0  0  0  0  0
    8.0218   -9.0919    0.0000 C   0  0  0  0  0  0  0  0  0  0  0  0
    7.3073   -9.5044    0.0000 C   0  0  0  0  0  0  0  0  0  0  0  0
    7.3073  -10.3294    0.0000 C   0  0  0  0  0  0  0  0  0  0  0  0
    8.0218  -10.7419    0.0000 C   0  0  0  0  0  0  0  0  0  0  0  0
    6.5929  -10.7419    0.0000 O   0  0  0  0  0  0  0  0  0  0  0  0
    5.8784  -10.3294    0.0000 C   0  0  2  0  0  0  0  0  0  0  0  0
   10.8797  -11.5669    0.0000 C   0  0  0  0  0  0  0  0  0  0  0  0
   16.5955   -6.6169    0.0000 O   0  0  0  0  0  0  0  0  0  0  0  0
   17.3099   -7.0294    0.0000 C   0  0  2  0  0  0  0  0  0  0  0  0
    5.8784   -9.5044    0.0000 O   0  0  0  0  0  0  0  0  0  0  0  0
    5.1639   -9.0919    0.0000 C   0  0  1  0  0  0  0  0  0  0  0  0
    4.4494   -9.5044    0.0000 C   0  0  2  0  0  0  0  0  0  0  0  0
    4.4494  -10.3294    0.0000 C   0  0  1  0  0  0  0  0  0  0  0  0
    5.1639  -10.7419    0.0000 C   0  0  1  0  0  0  0  0  0  0  0  0
    5.1639   -8.2669    0.0000 C   0  0  0  0  0  0  0  0  0  0  0  0
    3.7350  -10.7419    0.0000 O   0  0  0  0  0  0  0  0  0  0  0  0
    3.7350   -9.0919    0.0000 O   0  0  0  0  0  0  0  0  0  0  0  0
    5.1639  -11.5669    0.0000 O   0  0  0  0  0  0  0  0  0  0  0  0
    4.4494   -7.8544    0.0000 O   0  0  0  0  0  0  0  0  0  0  0  0
   17.3099   -7.8544    0.0000 O   0  0  0  0  0  0  0  0  0  0  0  0
   18.0244   -8.2669    0.0000 C   0  0  1  0  0  0  0  0  0  0  0  0
   18.7389   -7.8544    0.0000 C   0  0  2  0  0  0  0  0  0  0  0  0
   18.7389   -7.0294    0.0000 C   0  0  1  0  0  0  0  0  0  0  0  0
   18.0244   -6.6169    0.0000 C   0  0  1  0  0  0  0  0  0  0  0  0
   19.4533   -6.6169    0.0000 O   0  0  0  0  0  0  0  0  0  0  0  0
   18.0244   -9.0919    0.0000 C   0  0  0  0  0  0  0  0  0  0  0  0
   18.0244   -5.7919    0.0000 O   0  0  0  0  0  0  0  0  0  0  0  0
   19.4533   -8.2669    0.0000 O   0  0  0  0  0  0  0  0  0  0  0  0
   18.7389   -9.5044    0.0000 O   0  0  0  0  0  0  0  0  0  0  0  0
  2  3  1  0  0  0  0
  3  4  1  0  0  0  0
  4  5  1  0  0  0  0
  5  6  1  0  0  0  0
  6  1  1  0  0  0  0
  5  7  2  0  0  0  0
  7  8  1  0  0  0  0
  8  9  2  0  0  0  0
 10  6  2  0  0  0  0
 11 12  1  0  0  0  0
 12  8  1  0  0  0  0
 11 13  1  0  0  0  0
 13 14  2  0  0  0  0
 13 15  1  0  0  0  0
 15 16  2  0  0  0  0
 16 17  1  0  0  0  0
 17 18  2  0  0  0  0
 18 14  1  0  0  0  0
  1 19  1  0  0  0  0
 19 20  1  0  0  0  0
 20 21  2  0  0  0  0
 20 22  1  0  0  0  0
 22 23  2  0  0  0  0
 23 24  1  0  0  0  0
 24 25  2  0  0  0  0
 25 21  1  0  0  0  0
 24 26  1  0  0  0  0
 27 26  1  1  0  0  0
  3 28  1  0  0  0  0
 17 29  1  0  0  0  0
 30 29  1  1  0  0  0
 27 31  1  0  0  0  0
 31 32  1  0  0  0  0
 32 33  1  0  0  0  0
 33 34  1  0  0  0  0
 34 35  1  0  0  0  0
 35 27  1  0  0  0  0
 32 36  1  1  0  0  0
 34 37  1  1  0  0  0
 33 38  1  6  0  0  0
 35 39  1  6  0  0  0
 36 40  1  0  0  0  0
 30 41  1  0  0  0  0
 41 42  1  0  0  0  0
 42 43  1  0  0  0  0
 43 44  1  0  0  0  0
 44 45  1  0  0  0  0
 45 30  1  0  0  0  0
 44 46  1  1  0  0  0
 42 47  1  1  0  0  0
 45 48  1  6  0  0  0
 43 49  1  6  0  0  0
 47 50  1  0  0  0  0
M  END
>  <cdx:fragmentId>
5

$$$$
