300063.cdx
  Mrv1902 05222410232D          

 18 18  0  0  0  0            999 V2000
    7.3734  -10.8988    0.0000 O   0  0  0  0  0  0  0  0  0  0  0  0
    7.7859  -10.1844    0.0000 C   0  0  0  0  0  0  0  0  0  0  0  0
    8.6109  -10.1844    0.0000 C   0  0  0  0  0  0  0  0  0  0  0  0
    9.0234  -10.8862    0.0000 C   0  0  0  0  0  0  0  0  0  0  0  0
    8.6109  -11.6007    0.0000 C   0  0  0  0  0  0  0  0  0  0  0  0
    9.0234  -12.3151    0.0000 C   0  0  0  0  0  0  0  0  0  0  0  0
    8.6109  -13.0296    0.0000 C   0  0  0  0  0  0  0  0  0  0  0  0
    9.0234  -13.7441    0.0000 C   0  0  0  0  0  0  0  0  0  0  0  0
    8.6109  -14.4585    0.0000 C   0  0  0  0  0  0  0  0  0  0  0  0
    7.7859  -14.4585    0.0000 C   0  0  0  0  0  0  0  0  0  0  0  0
    7.3734  -13.7441    0.0000 C   0  0  0  0  0  0  0  0  0  0  0  0
    6.5484  -13.7441    0.0000 C   0  0  0  0  0  0  0  0  0  0  0  0
    6.1359  -13.0296    0.0000 C   0  0  0  0  0  0  0  0  0  0  0  0
    5.3657  -12.7340    0.0000 C   0  0  0  0  0  0  0  0  0  0  0  0
    5.3657  -11.9090    0.0000 C   0  0  0  0  0  0  0  0  0  0  0  0
    6.1359  -11.6133    0.0000 C   0  0  0  0  0  0  0  0  0  0  0  0
    6.5484  -10.8988    0.0000 C   0  0  0  0  0  0  0  0  0  0  0  0
    7.3734   -9.4699    0.0000 O   0  0  0  0  0  0  0  0  0  0  0  0
  1  2  1  0  0  0  0
  2  3  1  0  0  0  0
  3  4  1  0  0  0  0
  4  5  1  0  0  0  0
  5  6  1  0  0  0  0
  6  7  1  0  0  0  0
  7  8  1  0  0  0  0
  8  9  2  0  0  0  0
  9 10  1  0  0  0  0
 10 11  1  0  0  0  0
 11 12  1  0  0  0  0
 12 13  1  0  0  0  0
 13 14  1  0  0  0  0
 14 15  1  0  0  0  0
 15 16  1  0  0  0  0
 16 17  1  0  0  0  0
  1 17  1  0  0  0  0
  2 18  2  0  0  0  0
M  END
>  <cdx:fragmentId>
4777

$$$$
