300039.cdx
  Mrv1902 05222410182D          

 16 17  0  0  0  0            999 V2000
    8.5150   -7.1881    0.0000 C   0  0  0  0  0  0  0  0  0  0  0  0
    9.2996   -7.4431    0.0000 C   0  0  0  0  0  0  0  0  0  0  0  0
    9.2996   -8.2681    0.0000 C   0  0  0  0  0  0  0  0  0  0  0  0
    8.5150   -8.5230    0.0000 C   0  0  0  0  0  0  0  0  0  0  0  0
    8.0300   -7.8556    0.0000 C   0  0  0  0  0  0  0  0  0  0  0  0
    7.6175   -8.5701    0.0000 C   0  0  0  0  0  0  0  0  0  0  0  0
    6.7925   -8.5701    0.0000 C   0  0  0  0  0  0  0  0  0  0  0  0
    6.3800   -7.8556    0.0000 C   0  0  0  0  0  0  0  0  0  0  0  0
    6.7925   -7.1411    0.0000 C   0  0  0  0  0  0  0  0  0  0  0  0
    7.6175   -7.1411    0.0000 C   0  0  0  0  0  0  0  0  0  0  0  0
    5.5550   -7.8556    0.0000 C   0  0  0  0  0  0  0  0  0  0  0  0
    5.1425   -8.5701    0.0000 O   0  0  0  0  0  0  0  0  0  0  0  0
    8.8434   -9.8910    0.0000 C   0  0  0  0  0  0  0  0  0  0  0  0
    8.2600   -9.3076    0.0000 C   0  0  0  0  0  0  0  0  0  0  0  0
    7.4530   -9.4792    0.0000 C   0  0  0  0  0  0  0  0  0  0  0  0
    8.2600   -6.4035    0.0000 C   0  0  0  0  0  0  0  0  0  0  0  0
  1  2  1  0  0  0  0
  2  3  1  0  0  0  0
  3  4  1  0  0  0  0
  4  5  1  0  0  0  0
  5  6  1  0  0  0  0
  6  7  1  0  0  0  0
  7  8  1  0  0  0  0
  8  9  2  0  0  0  0
  9 10  1  0  0  0  0
  1  5  1  0  0  0  0
  5 10  1  0  0  0  0
 11 12  2  0  0  0  0
  8 11  1  0  0  0  0
 13 14  2  0  0  0  0
 14 15  1  0  0  0  0
  4 14  1  0  0  0  0
  1 16  1  0  0  0  0
M  END
>  <cdx:fragmentId>
2716

$$$$
