300038.cdx
  Mrv1902 05222410182D          

 31 32  0  0  0  0            999 V2000
    6.4812   -9.1709    0.0000 C   0  0  0  0  0  0  0  0  0  0  0  0
    7.1956   -8.7584    0.0000 S   0  0  0  0  0  0  0  0  0  0  0  0
    7.9101   -7.5209    0.0000 C   0  0  1  0  0  0  0  0  0  0  0  0
    7.1956   -7.9334    0.0000 C   0  0  1  0  0  0  0  0  0  0  0  0
    6.4812   -7.5209    0.0000 C   0  0  0  0  0  0  0  0  0  0  0  0
    6.4812   -6.6959    0.0000 C   0  0  0  0  0  0  0  0  0  0  0  0
    7.1956   -6.2834    0.0000 C   0  0  0  0  0  0  0  0  0  0  0  0
    7.1956   -5.4584    0.0000 C   0  0  0  0  0  0  0  0  0  0  0  0
    7.9101   -5.0459    0.0000 C   0  0  0  0  0  0  0  0  0  0  0  0
    8.6246   -5.4584    0.0000 C   0  0  0  0  0  0  0  0  0  0  0  0
    8.6246   -6.2834    0.0000 C   0  0  0  0  0  0  0  0  0  0  0  0
    7.9101   -6.6959    0.0000 C   0  0  0  0  0  0  0  0  0  0  0  0
    8.6246   -7.9334    0.0000 O   0  0  0  0  0  0  0  0  0  0  0  0
   10.0535  -11.2334    0.0000 N   0  0  0  0  0  0  0  0  0  0  0  0
    2.9088  -10.4084    0.0000 O   0  0  0  0  0  0  0  0  0  0  0  0
    3.6233   -9.1709    0.0000 O   0  0  0  0  0  0  0  0  0  0  0  0
    3.6233   -9.9959    0.0000 C   0  0  0  0  0  0  0  0  0  0  0  0
    4.3378  -10.4084    0.0000 C   0  0  0  0  0  0  0  0  0  0  0  0
    5.0522   -9.9959    0.0000 N   0  0  0  0  0  0  0  0  0  0  0  0
    5.7667  -11.2334    0.0000 O   0  0  0  0  0  0  0  0  0  0  0  0
    6.4812   -9.9959    0.0000 C   0  0  1  0  0  0  0  0  0  0  0  0
    5.7667  -10.4084    0.0000 C   0  0  0  0  0  0  0  0  0  0  0  0
    7.1956  -10.4084    0.0000 N   0  0  0  0  0  0  0  0  0  0  0  0
    7.9101   -9.1709    0.0000 O   0  0  0  0  0  0  0  0  0  0  0  0
   11.4825  -10.4084    0.0000 O   0  0  0  0  0  0  0  0  0  0  0  0
   10.7680   -9.1709    0.0000 O   0  0  0  0  0  0  0  0  0  0  0  0
    7.9101   -9.9959    0.0000 C   0  0  0  0  0  0  0  0  0  0  0  0
    8.6246  -10.4084    0.0000 C   0  0  0  0  0  0  0  0  0  0  0  0
    9.3391   -9.9959    0.0000 C   0  0  0  0  0  0  0  0  0  0  0  0
   10.0535  -10.4084    0.0000 C   0  0  1  0  0  0  0  0  0  0  0  0
   10.7680   -9.9959    0.0000 C   0  0  0  0  0  0  0  0  0  0  0  0
 30 14  1  1  0  0  0
 27 23  1  0  0  0  0
 21 23  1  6  0  0  0
 22 19  1  0  0  0  0
 19 18  1  0  0  0  0
 18 17  1  0  0  0  0
 17 15  1  0  0  0  0
 17 16  2  0  0  0  0
  3  4  1  0  0  0  0
 22 20  2  0  0  0  0
 21  1  1  0  0  0  0
 22 21  1  0  0  0  0
 27 24  2  0  0  0  0
 31 25  1  0  0  0  0
 31 26  2  0  0  0  0
 28 27  1  0  0  0  0
 29 28  1  0  0  0  0
 30 29  1  0  0  0  0
 31 30  1  0  0  0  0
  4  5  1  0  0  0  0
  5  6  2  0  0  0  0
  6  7  1  0  0  0  0
  7  8  1  0  0  0  0
  8  9  2  0  0  0  0
  9 10  1  0  0  0  0
 10 11  2  0  0  0  0
 11 12  1  0  0  0  0
  3 12  1  0  0  0  0
  7 12  2  0  0  0  0
  3 13  1  1  0  0  0
  4  2  1  6  0  0  0
  1  2  1  0  0  0  0
M  END
>  <cdx:fragmentId>
33

$$$$
