300010.cdx
  Mrv1902 05222410182D          

 29 32  0  0  0  0            999 V2000
    7.2650   -6.4987    0.0000 O   0  0  0  0  0  0  0  0  0  0  0  0
    7.9248   -6.9940    0.0000 C   0  0  0  0  0  0  0  0  0  0  0  0
    7.6577   -7.7745    0.0000 C   0  0  1  0  0  0  0  0  0  0  0  0
    6.8328   -7.7617    0.0000 C   0  0  2  0  0  0  0  0  0  0  0  0
    6.5901   -6.9732    0.0000 C   0  0  0  0  0  0  0  0  0  0  0  0
    8.7133   -6.7513    0.0000 O   0  0  0  0  0  0  0  0  0  0  0  0
    8.1322   -8.4494    0.0000 C   0  0  0  0  0  0  0  0  0  0  0  0
    8.9539   -8.3760    0.0000 C   0  0  0  0  0  0  0  0  0  0  0  0
    9.3012   -7.6276    0.0000 C   0  0  0  0  0  0  0  0  0  0  0  0
   10.1229   -7.5542    0.0000 C   0  0  0  0  0  0  0  0  0  0  0  0
   10.5974   -8.2291    0.0000 C   0  0  0  0  0  0  0  0  0  0  0  0
   10.2501   -8.9775    0.0000 C   0  0  0  0  0  0  0  0  0  0  0  0
    9.4284   -9.0509    0.0000 C   0  0  0  0  0  0  0  0  0  0  0  0
   10.7246   -9.6524    0.0000 O   0  0  0  0  0  0  0  0  0  0  0  0
   10.3773  -10.4007    0.0000 C   0  0  0  0  0  0  0  0  0  0  0  0
   11.4191   -8.1557    0.0000 O   0  0  0  0  0  0  0  0  0  0  0  0
   11.7663   -7.4073    0.0000 C   0  0  0  0  0  0  0  0  0  0  0  0
   10.4701   -6.8058    0.0000 O   0  0  0  0  0  0  0  0  0  0  0  0
    9.9610   -6.1567    0.0000 C   0  0  0  0  0  0  0  0  0  0  0  0
    4.3757   -7.4646    0.0000 C   0  0  0  0  0  0  0  0  0  0  0  0
    5.1947   -7.5636    0.0000 C   0  0  0  0  0  0  0  0  0  0  0  0
    5.5185   -8.3224    0.0000 C   0  0  0  0  0  0  0  0  0  0  0  0
    5.0232   -8.9822    0.0000 C   0  0  0  0  0  0  0  0  0  0  0  0
    3.8804   -8.1244    0.0000 C   0  0  0  0  0  0  0  0  0  0  0  0
    4.2042   -8.8832    0.0000 C   0  0  0  0  0  0  0  0  0  0  0  0
    3.5826   -9.4256    0.0000 O   0  0  0  0  0  0  0  0  0  0  0  0
    2.8746   -9.0021    0.0000 C   0  0  0  0  0  0  0  0  0  0  0  0
    3.0587   -8.1979    0.0000 O   0  0  0  0  0  0  0  0  0  0  0  0
    6.3375   -8.4215    0.0000 C   0  0  0  0  0  0  0  0  0  0  0  0
 29 22  1  0  0  0  0
 23 25  2  0  0  0  0
 20 24  2  0  0  0  0
 21 20  1  0  0  0  0
 22 21  2  0  0  0  0
 23 22  1  0  0  0  0
 28 24  1  0  0  0  0
 25 24  1  0  0  0  0
 26 25  1  0  0  0  0
 27 26  1  0  0  0  0
  1  2  1  0  0  0  0
  2  3  1  0  0  0  0
  3  4  1  0  0  0  0
  4  5  1  0  0  0  0
  1  5  1  0  0  0  0
  2  6  2  0  0  0  0
  8  9  1  0  0  0  0
  9 10  2  0  0  0  0
 10 11  1  0  0  0  0
 11 12  2  0  0  0  0
 12 13  1  0  0  0  0
  8 13  2  0  0  0  0
 14 15  1  0  0  0  0
 12 14  1  0  0  0  0
 16 17  1  0  0  0  0
 11 16  1  0  0  0  0
 18 19  1  0  0  0  0
 10 18  1  0  0  0  0
  7  8  1  0  0  0  0
  3  7  1  6  0  0  0
 28 27  1  0  0  0  0
  4 29  1  1  0  0  0
M  END
>  <cdx:fragmentId>
19

$$$$
