300080.cdx
  Mrv1902 05222410252D          

 16 18  0  0  0  0            999 V2000
    8.2483  -10.9666    0.0000 C   0  0  0  0  0  0  0  0  0  0  0  0
    8.7332  -11.6340    0.0000 C   0  0  0  0  0  0  0  0  0  0  0  0
    8.2483  -12.3014    0.0000 C   0  0  0  0  0  0  0  0  0  0  0  0
    7.4637  -12.0465    0.0000 C   0  0  0  0  0  0  0  0  0  0  0  0
    6.8186  -12.5609    0.0000 C   0  0  0  0  0  0  0  0  0  0  0  0
    6.0143  -12.3773    0.0000 C   0  0  0  0  0  0  0  0  0  0  0  0
    5.6564  -11.6340    0.0000 C   0  0  0  0  0  0  0  0  0  0  0  0
    6.0143  -10.8907    0.0000 C   0  0  0  0  0  0  0  0  0  0  0  0
    6.8186  -10.7071    0.0000 C   0  0  2  0  0  0  0  0  0  0  0  0
    7.4637  -11.2215    0.0000 C   0  0  1  0  0  0  0  0  0  0  0  0
    6.2575  -13.1656    0.0000 C   0  0  0  0  0  0  0  0  0  0  0  0
    8.5032  -13.0861    0.0000 C   0  0  0  0  0  0  0  0  0  0  0  0
    7.0022   -9.9028    0.0000 C   0  0  0  0  0  0  0  0  0  0  0  0
    6.5007  -13.9540    0.0000 C   0  0  0  0  0  0  0  0  0  0  0  0
    5.6964  -13.7704    0.0000 C   0  0  0  0  0  0  0  0  0  0  0  0
    7.6110  -10.4098    0.0000 H   0  0  0  0  0  0  0  0  0  0  0  0
  1  2  1  0  0  0  0
  2  3  1  0  0  0  0
  3  4  2  0  0  0  0
  4  5  1  0  0  0  0
  5  6  1  0  0  0  0
  6  7  1  0  0  0  0
  7  8  1  0  0  0  0
  8  9  1  0  0  0  0
  9 10  1  0  0  0  0
  1 10  1  0  0  0  0
  4 10  1  0  0  0  0
  5 11  1  0  0  0  0
  6 11  1  0  0  0  0
  3 12  1  0  0  0  0
  9 13  1  1  0  0  0
 11 14  1  0  0  0  0
 11 15  1  0  0  0  0
 10 16  1  6  0  0  0
M  END
>  <cdx:fragmentId>
5677

$$$$
