300043.cdx
  Mrv1902 05222410252D          

 48 53  0  0  0  0            999 V2000
   16.1179   -8.8072    0.0000 C   0  0  2  0  0  0  0  0  0  0  0  0
   12.2204  -10.6718    0.0000 C   0  0  0  0  0  0  0  0  0  0  0  0
   11.5060  -11.0843    0.0000 C   0  0  0  0  0  0  0  0  0  0  0  0
   11.5060  -11.9093    0.0000 C   0  0  1  0  0  0  0  0  0  0  0  0
   12.2204  -12.3218    0.0000 C   0  0  0  0  0  0  0  0  0  0  0  0
   12.9349  -11.9093    0.0000 C   0  0  2  0  0  0  0  0  0  0  0  0
   13.6494  -12.3218    0.0000 C   0  0  0  0  0  0  0  0  0  0  0  0
   14.3638  -11.9093    0.0000 C   0  0  0  0  0  0  0  0  0  0  0  0
   14.3638  -11.0843    0.0000 C   0  0  1  0  0  0  0  0  0  0  0  0
   15.0783  -10.6718    0.0000 C   0  0  2  0  0  0  0  0  0  0  0  0
   15.8629  -10.9267    0.0000 C   0  0  0  0  0  0  0  0  0  0  0  0
   16.3479  -10.2593    0.0000 C   0  0  0  0  0  0  0  0  0  0  0  0
   15.8629   -9.5919    0.0000 C   0  0  0  0  0  0  0  0  0  0  0  0
   15.0783   -9.8468    0.0000 C   0  0  1  0  0  0  0  0  0  0  0  0
   14.3638   -9.4343    0.0000 C   0  0  1  0  0  0  0  0  0  0  0  0
   13.6494   -9.8468    0.0000 C   0  0  0  0  0  0  0  0  0  0  0  0
   13.6494  -10.6718    0.0000 C   0  0  2  0  0  0  0  0  0  0  0  0
   12.9349  -11.0843    0.0000 C   0  0  1  0  0  0  0  0  0  0  0  0
   15.0783  -11.4968    0.0000 C   0  0  0  0  0  0  0  0  0  0  0  0
   12.9349  -10.2593    0.0000 C   0  0  0  0  0  0  0  0  0  0  0  0
   14.3638  -10.2593    0.0000 C   0  0  0  0  0  0  0  0  0  0  0  0
   12.6329  -13.0363    0.0000 C   0  0  0  0  0  0  0  0  0  0  0  0
   11.8079  -13.0363    0.0000 C   0  0  0  0  0  0  0  0  0  0  0  0
   10.7915  -12.3218    0.0000 O   0  0  0  0  0  0  0  0  0  0  0  0
   12.9349  -12.7343    0.0000 H   0  0  0  0  0  0  0  0  0  0  0  0
   13.6494  -11.4968    0.0000 H   0  0  0  0  0  0  0  0  0  0  0  0
   15.1646   -9.0263    0.0000 H   0  0  0  0  0  0  0  0  0  0  0  0
   16.9025   -8.5523    0.0000 C   0  0  0  0  0  0  0  0  0  0  0  0
   16.9025   -7.7273    0.0000 C   0  0  0  0  0  0  0  0  0  0  0  0
   16.1179   -7.4724    0.0000 C   0  0  1  0  0  0  0  0  0  0  0  0
   15.6330   -8.1398    0.0000 O   0  0  0  0  0  0  0  0  0  0  0  0
   16.7012   -9.3906    0.0000 C   0  0  0  0  0  0  0  0  0  0  0  0
   15.8629   -6.6877    0.0000 C   0  0  0  0  0  0  0  0  0  0  0  0
   15.0560   -6.5162    0.0000 C   0  0  0  0  0  0  0  0  0  0  0  0
   16.4150   -6.0747    0.0000 C   0  0  0  0  0  0  0  0  0  0  0  0
   15.6080   -5.9031    0.0000 O   0  0  0  0  0  0  0  0  0  0  0  0
   10.0770  -11.9093    0.0000 C   0  0  2  0  0  0  0  0  0  0  0  0
   10.0770  -11.0843    0.0000 O   0  0  0  0  0  0  0  0  0  0  0  0
    9.3626  -10.6718    0.0000 C   0  0  1  0  0  0  0  0  0  0  0  0
    8.6481  -11.0843    0.0000 C   0  0  2  0  0  0  0  0  0  0  0  0
    8.6481  -11.9093    0.0000 C   0  0  1  0  0  0  0  0  0  0  0  0
    9.3626  -12.3218    0.0000 C   0  0  1  0  0  0  0  0  0  0  0  0
    9.3626   -9.8468    0.0000 C   0  0  0  0  0  0  0  0  0  0  0  0
    7.9336  -12.3218    0.0000 O   0  0  0  0  0  0  0  0  0  0  0  0
    9.3626  -13.1468    0.0000 O   0  0  0  0  0  0  0  0  0  0  0  0
    7.9336  -10.6718    0.0000 O   0  0  0  0  0  0  0  0  0  0  0  0
    8.6481   -9.4343    0.0000 O   0  0  0  0  0  0  0  0  0  0  0  0
   14.3638   -8.6093    0.0000 O   0  0  0  0  0  0  0  0  0  0  0  0
  2  3  1  0  0  0  0
  3  4  1  0  0  0  0
  4  5  1  0  0  0  0
  5  6  1  0  0  0  0
  6  7  1  0  0  0  0
  7  8  1  0  0  0  0
  8  9  1  0  0  0  0
  9 10  1  0  0  0  0
 10 11  1  0  0  0  0
 11 12  1  0  0  0  0
 13 12  1  0  0  0  0
 13 14  1  0  0  0  0
 10 14  1  0  0  0  0
 14 15  1  0  0  0  0
 15 16  1  0  0  0  0
 16 17  1  0  0  0  0
  9 17  1  0  0  0  0
 17 18  1  0  0  0  0
  6 18  1  0  0  0  0
  2 18  1  0  0  0  0
 10 19  1  6  0  0  0
 18 20  1  1  0  0  0
  9 21  1  1  0  0  0
  5 22  1  0  0  0  0
  5 23  1  0  0  0  0
  4 24  1  1  0  0  0
  1 13  1  0  0  0  0
  6 25  1  6  0  0  0
 17 26  1  6  0  0  0
 14 27  1  1  0  0  0
  1 28  1  0  0  0  0
 28 29  1  0  0  0  0
 29 30  1  0  0  0  0
 30 31  1  0  0  0  0
 31  1  1  0  0  0  0
  1 32  1  6  0  0  0
 30 33  1  1  0  0  0
 33 34  1  0  0  0  0
 33 35  1  0  0  0  0
 33 36  1  0  0  0  0
 37 24  1  1  0  0  0
 37 38  1  0  0  0  0
 38 39  1  0  0  0  0
 39 40  1  0  0  0  0
 40 41  1  0  0  0  0
 41 42  1  0  0  0  0
 42 37  1  0  0  0  0
 39 43  1  1  0  0  0
 41 44  1  1  0  0  0
 42 45  1  6  0  0  0
 40 46  1  6  0  0  0
 43 47  1  0  0  0  0
 15 48  1  1  0  0  0
M  END
>  <cdx:fragmentId>
31943

$$$$
