300055.cdx
  Mrv1902 05222410252D          

 19 20  0  0  0  0            999 V2000
    9.5448   -8.5250    0.0000 O   0  0  0  0  0  0  0  0  0  0  0  0
    8.8303   -8.9375    0.0000 C   0  0  0  0  0  0  0  0  0  0  0  0
    9.5448   -7.7000    0.0000 C   0  0  0  0  0  0  0  0  0  0  0  0
    8.8303   -8.1125    0.0000 C   0  0  0  0  0  0  0  0  0  0  0  0
    5.9724   -8.9375    0.0000 C   0  0  0  0  0  0  0  0  0  0  0  0
    4.5435   -8.1125    0.0000 O   0  0  0  0  0  0  0  0  0  0  0  0
    7.4014   -8.9375    0.0000 O   0  0  0  0  0  0  0  0  0  0  0  0
    6.6869   -8.5250    0.0000 O   0  0  0  0  0  0  0  0  0  0  0  0
    6.6869   -6.0500    0.0000 C   0  0  0  0  0  0  0  0  0  0  0  0
    5.9724   -6.4625    0.0000 C   0  0  0  0  0  0  0  0  0  0  0  0
    5.2580   -6.8750    0.0000 C   0  0  0  0  0  0  0  0  0  0  0  0
    5.2580   -7.7000    0.0000 C   0  0  1  0  0  0  0  0  0  0  0  0
    5.9724   -8.1125    0.0000 C   0  0  0  0  0  0  0  0  0  0  0  0
    7.4014   -6.4625    0.0000 C   0  0  0  0  0  0  0  0  0  0  0  0
    6.6869   -6.8750    0.0000 C   0  0  1  0  0  0  0  0  0  0  0  0
    6.6869   -7.7000    0.0000 C   0  0  2  0  0  0  0  0  0  0  0  0
    7.4014   -8.1125    0.0000 C   0  0  1  0  0  0  0  0  0  0  0  0
    8.1158   -7.7000    0.0000 C   0  0  1  0  0  0  0  0  0  0  0  0
    8.1158   -6.8750    0.0000 C   0  0  0  0  0  0  0  0  0  0  0  0
  4  1  1  0  0  0  0
  4  2  1  0  0  0  0
  4  3  1  0  0  0  0
 18  4  1  1  0  0  0
 13  5  2  0  0  0  0
 12  6  1  1  0  0  0
 17  7  1  1  0  0  0
 16  8  1  6  0  0  0
 15  9  1  1  0  0  0
 10 15  1  0  0  0  0
 11 10  1  0  0  0  0
 12 11  1  0  0  0  0
 13 12  1  0  0  0  0
 16 13  1  0  0  0  0
 14 19  1  0  0  0  0
 15 14  1  0  0  0  0
 16 15  1  0  0  0  0
 17 16  1  0  0  0  0
 18 17  1  0  0  0  0
 19 18  1  0  0  0  0
M  END
>  <cdx:fragmentId>
4291

$$$$
