300054.cdx
  Mrv1902 05222410252D          

 15 15  0  0  0  0            999 V2000
    6.4846   -7.6064    0.0000 C   0  0  0  0  0  0  0  0  0  0  0  0
    5.7701   -8.0189    0.0000 C   0  0  0  0  0  0  0  0  0  0  0  0
    5.7701   -8.8439    0.0000 C   0  0  0  0  0  0  0  0  0  0  0  0
    5.0557   -9.2564    0.0000 C   0  0  0  0  0  0  0  0  0  0  0  0
    4.3412   -8.8439    0.0000 C   0  0  0  0  0  0  0  0  0  0  0  0
    4.3412   -8.0189    0.0000 C   0  0  0  0  0  0  0  0  0  0  0  0
    5.0557   -7.6064    0.0000 C   0  0  0  0  0  0  0  0  0  0  0  0
    6.4846   -6.7814    0.0000 O   0  0  0  0  0  0  0  0  0  0  0  0
    7.1991   -8.0189    0.0000 O   0  0  0  0  0  0  0  0  0  0  0  0
    7.9136   -7.6064    0.0000 C   0  0  0  0  0  0  0  0  0  0  0  0
    8.6280   -8.0189    0.0000 C   0  0  0  0  0  0  0  0  0  0  0  0
    8.6280   -8.8439    0.0000 C   0  0  0  0  0  0  0  0  0  0  0  0
    9.3425   -9.2564    0.0000 C   0  0  0  0  0  0  0  0  0  0  0  0
    9.3425  -10.0814    0.0000 C   0  0  0  0  0  0  0  0  0  0  0  0
   10.0570  -10.4939    0.0000 C   0  0  0  0  0  0  0  0  0  0  0  0
  1  2  1  0  0  0  0
  2  3  1  0  0  0  0
  3  4  2  0  0  0  0
  4  5  1  0  0  0  0
  5  6  2  0  0  0  0
  6  7  1  0  0  0  0
  2  7  2  0  0  0  0
  1  8  2  0  0  0  0
  1  9  1  0  0  0  0
 10 11  2  0  0  0  0
 11 12  1  0  0  0  0
 12 13  1  0  0  0  0
 13 14  1  0  0  0  0
 14 15  1  0  0  0  0
  9 10  1  0  0  0  0
M  END
>  <cdx:fragmentId>
4243

$$$$
