300090.cdx
  Mrv1902 05222410232D          

 18 19  0  0  0  0            999 V2000
    7.1956   -5.6473    0.0000 C   0  0  0  0  0  0  0  0  0  0  0  0
    7.9101   -6.0598    0.0000 C   0  0  0  0  0  0  0  0  0  0  0  0
    8.6246   -5.6473    0.0000 C   0  0  0  0  0  0  0  0  0  0  0  0
    9.3391   -6.0598    0.0000 C   0  0  0  0  0  0  0  0  0  0  0  0
   10.0535   -5.6473    0.0000 C   0  0  0  0  0  0  0  0  0  0  0  0
    7.1956   -4.8223    0.0000 O   0  0  0  0  0  0  0  0  0  0  0  0
    7.9101   -6.8848    0.0000 N   0  0  0  0  0  0  0  0  0  0  0  0
    8.5776   -7.3697    0.0000 C   0  0  0  0  0  0  0  0  0  0  0  0
    8.3226   -8.1543    0.0000 C   0  0  0  0  0  0  0  0  0  0  0  0
    7.4976   -8.1543    0.0000 C   0  0  0  0  0  0  0  0  0  0  0  0
    7.2427   -7.3697    0.0000 C   0  0  0  0  0  0  0  0  0  0  0  0
    6.4812   -6.0598    0.0000 C   0  0  0  0  0  0  0  0  0  0  0  0
    6.4812   -6.8848    0.0000 C   0  0  0  0  0  0  0  0  0  0  0  0
    5.7667   -7.2973    0.0000 C   0  0  0  0  0  0  0  0  0  0  0  0
    5.0522   -6.8848    0.0000 C   0  0  0  0  0  0  0  0  0  0  0  0
    5.0522   -6.0598    0.0000 C   0  0  0  0  0  0  0  0  0  0  0  0
    5.7667   -5.6473    0.0000 C   0  0  0  0  0  0  0  0  0  0  0  0
    4.3378   -7.2973    0.0000 C   0  0  0  0  0  0  0  0  0  0  0  0
  1  2  1  0  0  0  0
  2  3  1  0  0  0  0
  3  4  1  0  0  0  0
  4  5  1  0  0  0  0
  1  6  2  0  0  0  0
  7  8  1  0  0  0  0
  8  9  1  0  0  0  0
  9 10  1  0  0  0  0
 10 11  1  0  0  0  0
  7 11  1  0  0  0  0
  2  7  1  0  0  0  0
 12 13  1  0  0  0  0
 13 14  2  0  0  0  0
 14 15  1  0  0  0  0
 15 16  2  0  0  0  0
 16 17  1  0  0  0  0
 12 17  2  0  0  0  0
 15 18  1  0  0  0  0
  1 12  1  0  0  0  0
M  END
>  <cdx:fragmentId>
706

$$$$
