300001.cdx
  Mrv1902 05222410202D          

 46 50  0  0  0  0            999 V2000
    5.2818  -10.3940    0.0000 C   0  0  2  0  0  0  0  0  0  0  0  0
    5.4953   -9.5971    0.0000 C   0  0  2  0  0  0  0  0  0  0  0  0
    4.9120   -9.0137    0.0000 C   0  0  0  0  0  0  0  0  0  0  0  0
    5.8652  -10.9773    0.0000 O   0  0  0  0  0  0  0  0  0  0  0  0
    4.1151   -9.2272    0.0000 O   0  0  0  0  0  0  0  0  0  0  0  0
    4.4849  -10.6075    0.0000 C   0  0  0  0  0  0  0  0  0  0  0  0
    4.2714  -11.4044    0.0000 C   0  0  0  0  0  0  0  0  0  0  0  0
    3.4745  -11.6179    0.0000 C   0  0  0  0  0  0  0  0  0  0  0  0
    2.8911  -11.0345    0.0000 C   0  0  0  0  0  0  0  0  0  0  0  0
    3.1047  -10.2377    0.0000 C   0  0  0  0  0  0  0  0  0  0  0  0
    3.9016  -10.0241    0.0000 C   0  0  0  0  0  0  0  0  0  0  0  0
    4.8548  -11.9877    0.0000 O   0  0  0  0  0  0  0  0  0  0  0  0
    5.6516  -11.7742    0.0000 C   0  0  0  0  0  0  0  0  0  0  0  0
    3.2610  -12.4148    0.0000 O   0  0  0  0  0  0  0  0  0  0  0  0
    6.3023   -9.4256    0.0000 O   0  0  0  0  0  0  0  0  0  0  0  0
    6.5572   -8.6409    0.0000 C   0  0  0  0  0  0  0  0  0  0  0  0
    6.0052   -8.0278    0.0000 C   0  0  0  0  0  0  0  0  0  0  0  0
    6.2601   -7.2432    0.0000 C   0  0  0  0  0  0  0  0  0  0  0  0
    7.0671   -7.0717    0.0000 C   0  0  0  0  0  0  0  0  0  0  0  0
    7.6192   -7.6848    0.0000 C   0  0  0  0  0  0  0  0  0  0  0  0
    7.3642   -8.4694    0.0000 C   0  0  0  0  0  0  0  0  0  0  0  0
    7.9162   -9.0825    0.0000 O   0  0  0  0  0  0  0  0  0  0  0  0
    8.7232   -8.9110    0.0000 C   0  0  0  0  0  0  0  0  0  0  0  0
    5.1982   -8.1994    0.0000 O   0  0  0  0  0  0  0  0  0  0  0  0
    4.6462   -7.5863    0.0000 C   0  0  0  0  0  0  0  0  0  0  0  0
    9.3762   -5.6196    0.0000 O   0  0  0  0  0  0  0  0  0  0  0  0
    8.8913   -6.2871    0.0000 C   0  0  0  0  0  0  0  0  0  0  0  0
    8.1067   -6.0321    0.0000 C   0  0  2  0  0  0  0  0  0  0  0  0
    8.1067   -5.2071    0.0000 C   0  0  2  0  0  0  0  0  0  0  0  0
    8.8913   -4.9522    0.0000 C   0  0  2  0  0  0  0  0  0  0  0  0
    6.8371   -5.6196    0.0000 O   0  0  0  0  0  0  0  0  0  0  0  0
    7.3221   -6.2871    0.0000 C   0  0  1  0  0  0  0  0  0  0  0  0
    7.3221   -4.9522    0.0000 C   0  0  0  0  0  0  0  0  0  0  0  0
    9.1462   -4.1676    0.0000 C   0  0  0  0  0  0  0  0  0  0  0  0
    8.5942   -3.5545    0.0000 C   0  0  0  0  0  0  0  0  0  0  0  0
    8.8491   -2.7699    0.0000 C   0  0  0  0  0  0  0  0  0  0  0  0
    9.6561   -2.5983    0.0000 C   0  0  0  0  0  0  0  0  0  0  0  0
   10.2082   -3.2114    0.0000 C   0  0  0  0  0  0  0  0  0  0  0  0
    9.9532   -3.9960    0.0000 C   0  0  0  0  0  0  0  0  0  0  0  0
   11.0151   -3.0399    0.0000 O   0  0  0  0  0  0  0  0  0  0  0  0
   11.5672   -3.6530    0.0000 C   0  0  0  0  0  0  0  0  0  0  0  0
    8.2971   -2.1568    0.0000 O   0  0  0  0  0  0  0  0  0  0  0  0
    7.4901   -2.3283    0.0000 C   0  0  0  0  0  0  0  0  0  0  0  0
    9.9111   -1.8137    0.0000 O   0  0  0  0  0  0  0  0  0  0  0  0
    8.1067   -4.3821    0.0000 H   0  0  0  0  0  0  0  0  0  0  0  0
    8.1067   -6.8571    0.0000 H   0  0  0  0  0  0  0  0  0  0  0  0
  1  2  1  0  0  0  0
  2  3  1  0  0  0  0
  1  4  1  6  0  0  0
  3  5  1  0  0  0  0
  6  7  1  0  0  0  0
  7  8  2  0  0  0  0
  8  9  1  0  0  0  0
  9 10  2  0  0  0  0
 10 11  1  0  0  0  0
  6 11  2  0  0  0  0
 12 13  1  0  0  0  0
  7 12  1  0  0  0  0
  8 14  1  0  0  0  0
  1  6  1  0  0  0  0
 16 17  1  0  0  0  0
 17 18  2  0  0  0  0
 18 19  1  0  0  0  0
 19 20  2  0  0  0  0
 20 21  1  0  0  0  0
 16 21  2  0  0  0  0
 15 16  1  0  0  0  0
 22 23  1  0  0  0  0
 21 22  1  0  0  0  0
 24 25  1  0  0  0  0
 17 24  1  0  0  0  0
 26 27  1  0  0  0  0
 27 28  1  0  0  0  0
 28 29  1  0  0  0  0
 29 30  1  0  0  0  0
 26 30  1  0  0  0  0
 31 32  1  0  0  0  0
 31 33  1  0  0  0  0
 28 32  1  0  0  0  0
 29 33  1  0  0  0  0
 34 35  1  0  0  0  0
 35 36  2  0  0  0  0
 36 37  1  0  0  0  0
 37 38  2  0  0  0  0
 38 39  1  0  0  0  0
 34 39  2  0  0  0  0
 40 41  1  0  0  0  0
 38 40  1  0  0  0  0
 42 43  1  0  0  0  0
 36 42  1  0  0  0  0
 37 44  1  0  0  0  0
 30 34  1  6  0  0  0
 32 19  1  6  0  0  0
  2 15  1  6  0  0  0
 29 45  1  6  0  0  0
 28 46  1  6  0  0  0
M  END
>  <cdx:fragmentId>
72

$$$$
