300016.cdx
  Mrv1902 05222410192D          

 11 12  0  0  0  0            999 V2000
    6.6018   -7.1193    0.0000 C   0  0  0  0  0  0  0  0  0  0  0  0
    7.3163   -6.7068    0.0000 C   0  0  0  0  0  0  0  0  0  0  0  0
    7.3163   -5.8818    0.0000 C   0  0  0  0  0  0  0  0  0  0  0  0
    6.6018   -5.4693    0.0000 C   0  0  0  0  0  0  0  0  0  0  0  0
    5.8873   -5.8818    0.0000 C   0  0  0  0  0  0  0  0  0  0  0  0
    5.8873   -6.7068    0.0000 N   0  0  0  0  0  0  0  0  0  0  0  0
    8.1009   -5.6269    0.0000 C   0  0  0  0  0  0  0  0  0  0  0  0
    8.5858   -6.2943    0.0000 C   0  0  0  0  0  0  0  0  0  0  0  0
    8.1009   -6.9618    0.0000 C   0  0  1  0  0  0  0  0  0  0  0  0
    8.3558   -7.7464    0.0000 C   0  0  0  0  0  0  0  0  0  0  0  0
    6.6018   -4.6443    0.0000 C   0  0  0  0  0  0  0  0  0  0  0  0
  1  2  1  0  0  0  0
  2  3  2  0  0  0  0
  3  4  1  0  0  0  0
  4  5  2  0  0  0  0
  5  6  1  0  0  0  0
  1  6  2  0  0  0  0
  7  8  1  0  0  0  0
  8  9  1  0  0  0  0
  2  9  1  0  0  0  0
  3  7  1  0  0  0  0
  9 10  1  1  0  0  0
  4 11  1  0  0  0  0
M  END
>  <cdx:fragmentId>
950

$$$$
