300029.cdx
  Mrv1902 05222410202D          

 14 14  0  0  0  0            999 V2000
    6.3362   -7.7969    0.0000 C   0  0  0  0  0  0  0  0  0  0  0  0
    5.6217   -8.2094    0.0000 C   0  0  0  0  0  0  0  0  0  0  0  0
    5.6217   -9.0344    0.0000 C   0  0  0  0  0  0  0  0  0  0  0  0
    4.9073   -9.4469    0.0000 C   0  0  0  0  0  0  0  0  0  0  0  0
    4.1928   -9.0344    0.0000 C   0  0  0  0  0  0  0  0  0  0  0  0
    4.1928   -8.2094    0.0000 C   0  0  0  0  0  0  0  0  0  0  0  0
    4.9073   -7.7969    0.0000 C   0  0  0  0  0  0  0  0  0  0  0  0
    6.3362   -6.9719    0.0000 O   0  0  0  0  0  0  0  0  0  0  0  0
    7.0507   -8.2094    0.0000 O   0  0  0  0  0  0  0  0  0  0  0  0
    7.7651   -7.7969    0.0000 C   0  0  0  0  0  0  0  0  0  0  0  0
    8.4796   -8.2094    0.0000 C   0  0  0  0  0  0  0  0  0  0  0  0
    9.1941   -7.7969    0.0000 C   0  0  0  0  0  0  0  0  0  0  0  0
    9.9086   -8.2094    0.0000 O   0  0  0  0  0  0  0  0  0  0  0  0
    8.4796   -9.0344    0.0000 O   0  0  0  0  0  0  0  0  0  0  0  0
  1  2  1  0  0  0  0
  2  3  1  0  0  0  0
  3  4  2  0  0  0  0
  4  5  1  0  0  0  0
  5  6  2  0  0  0  0
  6  7  1  0  0  0  0
  2  7  2  0  0  0  0
  1  8  2  0  0  0  0
  1  9  1  0  0  0  0
 10 11  1  0  0  0  0
 11 12  1  0  0  0  0
 12 13  1  0  0  0  0
 11 14  1  0  0  0  0
  9 10  1  0  0  0  0
M  END
>  <cdx:fragmentId>
2190

$$$$
