300075.cdx
  Mrv1902 05222410222D          

 12 11  0  0  0  0            999 V2000
    9.9051  -12.9072    0.0000 C   0  0  0  0  0  0  0  0  0  0  0  0
    9.1906  -12.4947    0.0000 C   0  0  0  0  0  0  0  0  0  0  0  0
    8.4762  -12.9072    0.0000 C   0  0  1  0  0  0  0  0  0  0  0  0
    7.7617  -12.4947    0.0000 C   0  0  0  0  0  0  0  0  0  0  0  0
    7.0472  -12.0822    0.0000 C   0  0  0  0  0  0  0  0  0  0  0  0
    6.3328  -11.6697    0.0000 C   0  0  0  0  0  0  0  0  0  0  0  0
    5.6183  -11.2572    0.0000 C   0  0  0  0  0  0  0  0  0  0  0  0
    4.9038  -10.8447    0.0000 C   0  0  0  0  0  0  0  0  0  0  0  0
    4.1894  -10.4322    0.0000 C   0  0  0  0  0  0  0  0  0  0  0  0
    3.4749  -10.0197    0.0000 C   0  0  0  0  0  0  0  0  0  0  0  0
   10.6196  -12.4947    0.0000 O   0  0  0  0  0  0  0  0  0  0  0  0
    8.4762  -13.7322    0.0000 O   0  0  0  0  0  0  0  0  0  0  0  0
  1  2  1  0  0  0  0
  2  3  1  0  0  0  0
  3  4  1  0  0  0  0
  4  5  3  0  0  0  0
  5  6  1  0  0  0  0
  6  7  3  0  0  0  0
  7  8  1  0  0  0  0
  8  9  3  0  0  0  0
  9 10  1  0  0  0  0
  1 11  1  0  0  0  0
  3 12  1  6  0  0  0
M  END
>  <cdx:fragmentId>
5363

$$$$
