300045.cdx
  Mrv1902 05222410242D          

 19 18  0  0  0  0            999 V2000
   10.0535   -6.6502    0.0000 C   0  0  0  0  0  0  0  0  0  0  0  0
    9.3391   -7.0627    0.0000 C   0  0  0  0  0  0  0  0  0  0  0  0
    8.6246   -6.6502    0.0000 C   0  0  0  0  0  0  0  0  0  0  0  0
    7.9101   -7.0627    0.0000 C   0  0  0  0  0  0  0  0  0  0  0  0
    7.1956   -6.6502    0.0000 C   0  0  0  0  0  0  0  0  0  0  0  0
    6.4812   -7.0627    0.0000 C   0  0  0  0  0  0  0  0  0  0  0  0
    5.7667   -6.6502    0.0000 C   0  0  0  0  0  0  0  0  0  0  0  0
    5.0522   -7.0627    0.0000 C   0  0  0  0  0  0  0  0  0  0  0  0
    4.3378   -6.6502    0.0000 C   0  0  0  0  0  0  0  0  0  0  0  0
    3.6233   -7.0627    0.0000 C   0  0  0  0  0  0  0  0  0  0  0  0
    2.9088   -6.6502    0.0000 C   0  0  0  0  0  0  0  0  0  0  0  0
    2.9088   -5.8252    0.0000 C   0  0  0  0  0  0  0  0  0  0  0  0
   10.0535   -5.8252    0.0000 O   0  0  0  0  0  0  0  0  0  0  0  0
   10.7680   -7.0627    0.0000 O   0  0  0  0  0  0  0  0  0  0  0  0
    2.1944   -7.0627    0.0000 C   0  0  0  0  0  0  0  0  0  0  0  0
    5.7667   -5.8252    0.0000 C   0  0  0  0  0  0  0  0  0  0  0  0
    8.6246   -5.8252    0.0000 C   0  0  0  0  0  0  0  0  0  0  0  0
   11.4825   -6.6502    0.0000 C   0  0  0  0  0  0  0  0  0  0  0  0
   12.1969   -7.0627    0.0000 C   0  0  0  0  0  0  0  0  0  0  0  0
  1  2  1  0  0  0  0
  2  3  2  0  0  0  0
  3  4  1  0  0  0  0
  4  5  2  0  0  0  0
  5  6  1  0  0  0  0
  6  7  1  0  0  0  0
  7  8  1  0  0  0  0
  8  9  1  0  0  0  0
  9 10  1  0  0  0  0
 10 11  1  0  0  0  0
 11 12  1  0  0  0  0
  1 13  2  0  0  0  0
  1 14  1  0  0  0  0
 11 15  1  0  0  0  0
  7 16  1  0  0  0  0
  3 17  1  0  0  0  0
 18 19  1  0  0  0  0
 14 18  1  0  0  0  0
M  END
>  <cdx:fragmentId>
3591

$$$$
