300014.cdx
  Mrv1902 05222410202D          

 23 26  0  0  0  0            999 V2000
    7.1156   -5.5461    0.0000 C   0  0  1  0  0  0  0  0  0  0  0  0
    6.4012   -5.9586    0.0000 C   0  0  1  0  0  0  0  0  0  0  0  0
    5.6867   -5.5461    0.0000 C   0  0  0  0  0  0  0  0  0  0  0  0
    4.9722   -5.9586    0.0000 C   0  0  0  0  0  0  0  0  0  0  0  0
    4.9722   -6.7836    0.0000 C   0  0  0  0  0  0  0  0  0  0  0  0
    5.6867   -7.1961    0.0000 C   0  0  0  0  0  0  0  0  0  0  0  0
    6.4012   -6.7836    0.0000 N   0  0  0  0  0  0  0  0  0  0  0  0
    7.1156   -7.1961    0.0000 C   0  0  0  0  0  0  0  0  0  0  0  0
    7.8301   -6.7836    0.0000 C   0  0  2  0  0  0  0  0  0  0  0  0
    8.5440   -7.1970    0.0000 C   0  0  0  0  0  0  0  0  0  0  0  0
    9.2584   -6.7843    0.0000 C   0  0  0  0  0  0  0  0  0  0  0  0
    9.2586   -5.9593    0.0000 C   0  0  0  0  0  0  0  0  0  0  0  0
    8.5446   -5.5461    0.0000 N   0  3  0  0  0  0  0  0  0  0  0  0
    8.5446   -4.7211    0.0000 C   0  0  0  0  0  0  0  0  0  0  0  0
    7.8301   -4.3086    0.0000 C   0  0  0  0  0  0  0  0  0  0  0  0
    7.1156   -4.7211    0.0000 C   0  0  0  0  0  0  0  0  0  0  0  0
    7.8301   -5.9586    0.0000 C   0  0  2  0  0  0  0  0  0  0  0  0
    5.6867   -8.0211    0.0000 O   0  0  0  0  0  0  0  0  0  0  0  0
    9.2591   -5.1336    0.0000 O   0  5  0  0  0  0  0  0  0  0  0  0
    7.8301   -7.6086    0.0000 O   0  0  0  0  0  0  0  0  0  0  0  0
    7.1156   -6.3711    0.0000 H   0  0  0  0  0  0  0  0  0  0  0  0
    6.4012   -5.1336    0.0000 H   0  0  0  0  0  0  0  0  0  0  0  0
    7.8301   -5.1336    0.0000 H   0  0  0  0  0  0  0  0  0  0  0  0
  1  2  1  0  0  0  0
  2  3  1  0  0  0  0
  3  4  1  0  0  0  0
  4  5  2  0  0  0  0
  5  6  1  0  0  0  0
  6  7  1  0  0  0  0
  7  8  1  0  0  0  0
  8  9  1  0  0  0  0
  9 10  1  0  0  0  0
 10 11  1  0  0  0  0
 11 12  1  0  0  0  0
 12 13  1  0  0  0  0
 13 14  1  0  0  0  0
 14 15  1  0  0  0  0
 15 16  1  0  0  0  0
  1 16  1  0  0  0  0
  1 17  1  0  0  0  0
  9 17  1  0  0  0  0
  2  7  1  0  0  0  0
 13 17  1  0  0  0  0
  6 18  2  0  0  0  0
 13 19  1  0  0  0  0
  9 20  1  6  0  0  0
  1 21  1  6  0  0  0
  2 22  1  1  0  0  0
 17 23  1  6  0  0  0
M  CHG  2  13   1  19  -1
M  END
>  <cdx:fragmentId>
571

$$$$
