300002.cdx
  Mrv1902 05222410192D          

 48 52  0  0  0  0            999 V2000
    5.9382  -10.0330    0.0000 C   0  0  2  0  0  0  0  0  0  0  0  0
    6.1517   -9.2361    0.0000 C   0  0  2  0  0  0  0  0  0  0  0  0
    5.5683   -8.6528    0.0000 C   0  0  0  0  0  0  0  0  0  0  0  0
    6.5215  -10.6164    0.0000 O   0  0  0  0  0  0  0  0  0  0  0  0
    4.7715   -8.8663    0.0000 O   0  0  0  0  0  0  0  0  0  0  0  0
    5.1413  -10.2466    0.0000 C   0  0  0  0  0  0  0  0  0  0  0  0
    4.9278  -11.0434    0.0000 C   0  0  0  0  0  0  0  0  0  0  0  0
    4.1309  -11.2570    0.0000 C   0  0  0  0  0  0  0  0  0  0  0  0
    3.5475  -10.6736    0.0000 C   0  0  0  0  0  0  0  0  0  0  0  0
    3.7610   -9.8767    0.0000 C   0  0  0  0  0  0  0  0  0  0  0  0
    4.5579   -9.6632    0.0000 C   0  0  0  0  0  0  0  0  0  0  0  0
    2.7506  -10.8871    0.0000 O   0  0  0  0  0  0  0  0  0  0  0  0
    2.1673  -10.3038    0.0000 C   0  0  0  0  0  0  0  0  0  0  0  0
    5.5111  -11.6268    0.0000 O   0  0  0  0  0  0  0  0  0  0  0  0
    6.3080  -11.4133    0.0000 C   0  0  0  0  0  0  0  0  0  0  0  0
    3.9174  -12.0539    0.0000 O   0  0  0  0  0  0  0  0  0  0  0  0
    6.9587   -9.0646    0.0000 O   0  0  0  0  0  0  0  0  0  0  0  0
    7.2136   -8.2800    0.0000 C   0  0  0  0  0  0  0  0  0  0  0  0
    6.6616   -7.6669    0.0000 C   0  0  0  0  0  0  0  0  0  0  0  0
    6.9165   -6.8823    0.0000 C   0  0  0  0  0  0  0  0  0  0  0  0
    7.7235   -6.7108    0.0000 C   0  0  0  0  0  0  0  0  0  0  0  0
    8.2755   -7.3238    0.0000 C   0  0  0  0  0  0  0  0  0  0  0  0
    8.0206   -8.1085    0.0000 C   0  0  0  0  0  0  0  0  0  0  0  0
    8.5726   -8.7216    0.0000 O   0  0  0  0  0  0  0  0  0  0  0  0
    9.3796   -8.5500    0.0000 C   0  0  0  0  0  0  0  0  0  0  0  0
    5.8546   -7.8384    0.0000 O   0  0  0  0  0  0  0  0  0  0  0  0
    5.3026   -7.2253    0.0000 C   0  0  0  0  0  0  0  0  0  0  0  0
   10.0326   -5.2587    0.0000 O   0  0  0  0  0  0  0  0  0  0  0  0
    9.5477   -5.9261    0.0000 C   0  0  0  0  0  0  0  0  0  0  0  0
    8.7631   -5.6712    0.0000 C   0  0  2  0  0  0  0  0  0  0  0  0
    8.7631   -4.8462    0.0000 C   0  0  2  0  0  0  0  0  0  0  0  0
    9.5477   -4.5913    0.0000 C   0  0  2  0  0  0  0  0  0  0  0  0
    7.4935   -5.2587    0.0000 O   0  0  0  0  0  0  0  0  0  0  0  0
    7.9784   -5.9261    0.0000 C   0  0  1  0  0  0  0  0  0  0  0  0
    7.9784   -4.5913    0.0000 C   0  0  0  0  0  0  0  0  0  0  0  0
    9.8026   -3.8066    0.0000 C   0  0  0  0  0  0  0  0  0  0  0  0
    9.2506   -3.1935    0.0000 C   0  0  0  0  0  0  0  0  0  0  0  0
    9.5055   -2.4089    0.0000 C   0  0  0  0  0  0  0  0  0  0  0  0
   10.3125   -2.2374    0.0000 C   0  0  0  0  0  0  0  0  0  0  0  0
   10.8645   -2.8505    0.0000 C   0  0  0  0  0  0  0  0  0  0  0  0
   10.6096   -3.6351    0.0000 C   0  0  0  0  0  0  0  0  0  0  0  0
   11.6715   -2.6790    0.0000 O   0  0  0  0  0  0  0  0  0  0  0  0
   12.2235   -3.2920    0.0000 C   0  0  0  0  0  0  0  0  0  0  0  0
    8.9535   -1.7958    0.0000 O   0  0  0  0  0  0  0  0  0  0  0  0
    8.1465   -1.9673    0.0000 C   0  0  0  0  0  0  0  0  0  0  0  0
   10.5674   -1.4528    0.0000 O   0  0  0  0  0  0  0  0  0  0  0  0
    8.7631   -4.0212    0.0000 H   0  0  0  0  0  0  0  0  0  0  0  0
    8.7631   -6.4962    0.0000 H   0  0  0  0  0  0  0  0  0  0  0  0
  1  2  1  0  0  0  0
  2  3  1  0  0  0  0
  1  4  1  6  0  0  0
  3  5  1  0  0  0  0
  6  7  1  0  0  0  0
  7  8  2  0  0  0  0
  8  9  1  0  0  0  0
  9 10  2  0  0  0  0
 10 11  1  0  0  0  0
  6 11  2  0  0  0  0
 12 13  1  0  0  0  0
  9 12  1  0  0  0  0
 14 15  1  0  0  0  0
  7 14  1  0  0  0  0
  8 16  1  0  0  0  0
  1  6  1  0  0  0  0
 18 19  1  0  0  0  0
 19 20  2  0  0  0  0
 20 21  1  0  0  0  0
 21 22  2  0  0  0  0
 22 23  1  0  0  0  0
 18 23  2  0  0  0  0
 17 18  1  0  0  0  0
 24 25  1  0  0  0  0
 23 24  1  0  0  0  0
 26 27  1  0  0  0  0
 19 26  1  0  0  0  0
 28 29  1  0  0  0  0
 29 30  1  0  0  0  0
 30 31  1  0  0  0  0
 31 32  1  0  0  0  0
 28 32  1  0  0  0  0
 33 34  1  0  0  0  0
 33 35  1  0  0  0  0
 30 34  1  0  0  0  0
 31 35  1  0  0  0  0
 36 37  1  0  0  0  0
 37 38  2  0  0  0  0
 38 39  1  0  0  0  0
 39 40  2  0  0  0  0
 40 41  1  0  0  0  0
 36 41  2  0  0  0  0
 42 43  1  0  0  0  0
 40 42  1  0  0  0  0
 44 45  1  0  0  0  0
 38 44  1  0  0  0  0
 39 46  1  0  0  0  0
 32 36  1  6  0  0  0
 34 21  1  6  0  0  0
  2 17  1  6  0  0  0
 31 47  1  6  0  0  0
 30 48  1  6  0  0  0
M  END
>  <cdx:fragmentId>
75

$$$$
