300072.cdx
  Mrv1902 05222410212D          

 18 17  0  0  0  0            999 V2000
   12.0485  -12.9446    0.0000 C   0  0  0  0  0  0  0  0  0  0  0  0
   11.3341  -12.5321    0.0000 C   0  0  0  0  0  0  0  0  0  0  0  0
   10.6196  -12.9446    0.0000 C   0  0  0  0  0  0  0  0  0  0  0  0
    9.9051  -12.5321    0.0000 C   0  0  0  0  0  0  0  0  0  0  0  0
    9.1906  -12.9446    0.0000 C   0  0  0  0  0  0  0  0  0  0  0  0
    8.4762  -12.5321    0.0000 C   0  0  0  0  0  0  0  0  0  0  0  0
    7.7617  -12.9446    0.0000 C   0  0  0  0  0  0  0  0  0  0  0  0
    7.0472  -12.5321    0.0000 C   0  0  0  0  0  0  0  0  0  0  0  0
    6.3328  -12.1196    0.0000 C   0  0  0  0  0  0  0  0  0  0  0  0
    5.6183  -11.7071    0.0000 C   0  0  0  0  0  0  0  0  0  0  0  0
    4.9038  -12.1196    0.0000 C   0  0  0  0  0  0  0  0  0  0  0  0
    4.1894  -11.7071    0.0000 C   0  0  0  0  0  0  0  0  0  0  0  0
    3.4749  -12.1196    0.0000 C   0  0  0  0  0  0  0  0  0  0  0  0
    2.7604  -11.7071    0.0000 C   0  0  1  0  0  0  0  0  0  0  0  0
    2.0459  -12.1196    0.0000 C   0  0  0  0  0  0  0  0  0  0  0  0
    1.3315  -11.7071    0.0000 C   0  0  0  0  0  0  0  0  0  0  0  0
   12.7630  -12.5321    0.0000 O   0  0  0  0  0  0  0  0  0  0  0  0
    2.7604  -10.8821    0.0000 C   0  0  0  0  0  0  0  0  0  0  0  0
  1  2  1  0  0  0  0
  2  3  1  0  0  0  0
  3  4  1  0  0  0  0
  4  5  1  0  0  0  0
  5  6  1  0  0  0  0
  6  7  1  0  0  0  0
  7  8  1  0  0  0  0
  8  9  3  0  0  0  0
  9 10  1  0  0  0  0
 10 11  1  0  0  0  0
 11 12  1  0  0  0  0
 12 13  1  0  0  0  0
 13 14  1  0  0  0  0
 14 15  1  0  0  0  0
 15 16  1  0  0  0  0
  1 17  1  0  0  0  0
 14 18  1  1  0  0  0
M  END
>  <cdx:fragmentId>
5236

$$$$
