300078.cdx
  Mrv1902 05222410242D          

 11 10  0  0  0  0            999 V2000
    4.3907  -10.8821    0.0000 C   0  0  0  0  0  0  0  0  0  0  0  0
    4.3907  -11.7071    0.0000 C   0  0  0  0  0  0  0  0  0  0  0  0
    4.3907  -12.5321    0.0000 C   0  0  0  0  0  0  0  0  0  0  0  0
    5.1052  -12.9446    0.0000 C   0  0  0  0  0  0  0  0  0  0  0  0
    5.8196  -12.5321    0.0000 C   0  0  0  0  0  0  0  0  0  0  0  0
    6.5341  -12.9446    0.0000 C   0  0  0  0  0  0  0  0  0  0  0  0
    7.2486  -12.5321    0.0000 C   0  0  0  0  0  0  0  0  0  0  0  0
    7.9631  -12.9446    0.0000 C   0  0  0  0  0  0  0  0  0  0  0  0
    8.6775  -12.5321    0.0000 C   0  0  0  0  0  0  0  0  0  0  0  0
    9.3920  -12.9446    0.0000 C   0  0  0  0  0  0  0  0  0  0  0  0
   10.1065  -12.5321    0.0000 C   0  0  0  0  0  0  0  0  0  0  0  0
  1  2  3  0  0  0  0
  2  3  1  0  0  0  0
  3  4  2  0  0  0  0
  4  5  1  0  0  0  0
  5  6  1  0  0  0  0
  6  7  1  0  0  0  0
  7  8  1  0  0  0  0
  8  9  1  0  0  0  0
  9 10  1  0  0  0  0
 10 11  1  0  0  0  0
M  END
>  <cdx:fragmentId>
5596

$$$$
