300020.cdx
  Mrv1902 05222410282D          

 18 20  0  0  0  0            999 V2000
    4.2172   -5.7956    0.0000 C   0  0  0  0  0  0  0  0  0  0  0  0
    4.2172   -6.6206    0.0000 C   0  0  1  0  0  0  0  0  0  0  0  0
    4.8622   -7.1350    0.0000 C   0  0  0  0  0  0  0  0  0  0  0  0
    5.6665   -6.9514    0.0000 C   0  0  0  0  0  0  0  0  0  0  0  0
    6.0245   -6.2081    0.0000 C   0  0  0  0  0  0  0  0  0  0  0  0
    5.6665   -5.4648    0.0000 C   0  0  0  0  0  0  0  0  0  0  0  0
    4.8622   -5.2812    0.0000 C   0  0  2  0  0  0  0  0  0  0  0  0
    4.6487   -4.4844    0.0000 C   0  0  0  0  0  0  0  0  0  0  0  0
    6.8420   -6.0974    0.0000 C   0  0  1  0  0  0  0  0  0  0  0  0
    6.9893   -5.2856    0.0000 C   0  0  0  0  0  0  0  0  0  0  0  0
    6.2628   -4.8947    0.0000 C   0  0  0  0  0  0  0  0  0  0  0  0
    3.5287   -7.0751    0.0000 O   0  0  0  0  0  0  0  0  0  0  0  0
    3.7481   -7.8704    0.0000 O   0  0  0  0  0  0  0  0  0  0  0  0
    4.5723   -7.9074    0.0000 C   0  0  0  0  0  0  0  0  0  0  0  0
    4.5723   -8.7324    0.0000 C   0  0  0  0  0  0  0  0  0  0  0  0
    5.2868   -8.3199    0.0000 C   0  0  0  0  0  0  0  0  0  0  0  0
    3.5027   -6.2081    0.0000 O   0  0  0  0  0  0  0  0  0  0  0  0
    7.4254   -6.6807    0.0000 C   0  0  0  0  0  0  0  0  0  0  0  0
  1  2  1  0  0  0  0
  2  3  1  0  0  0  0
  3  4  2  0  0  0  0
  4  5  1  0  0  0  0
  5  6  2  0  0  0  0
  6  7  1  0  0  0  0
  7  1  1  0  0  0  0
  7  8  1  1  0  0  0
  5  9  1  0  0  0  0
 10 11  1  0  0  0  0
 11  6  1  0  0  0  0
 10  9  1  0  0  0  0
  2 12  1  0  0  0  0
 12 13  1  0  0  0  0
 13 14  1  0  0  0  0
 14  3  1  0  0  0  0
 14 15  1  0  0  0  0
 14 16  1  0  0  0  0
  2 17  1  6  0  0  0
  9 18  1  1  0  0  0
M  END
>  <cdx:fragmentId>
5

$$$$
