300084.cdx
  Mrv1902 05222410232D          

 15 17  0  0  0  0            999 V2000
    8.0555   -6.4872    0.0000 N   0  0  0  0  0  0  0  0  0  0  0  0
    8.7700   -6.0747    0.0000 C   0  0  0  0  0  0  0  0  0  0  0  0
    8.7700   -5.2497    0.0000 O   0  0  0  0  0  0  0  0  0  0  0  0
    9.4844   -6.4872    0.0000 N   0  0  0  0  0  0  0  0  0  0  0  0
    7.3410   -6.0747    0.0000 N   0  0  0  0  0  0  0  0  0  0  0  0
    5.9121   -6.0747    0.0000 C   0  0  0  0  0  0  0  0  0  0  0  0
    6.6266   -6.4872    0.0000 C   0  0  0  0  0  0  0  0  0  0  0  0
    6.6266   -7.3122    0.0000 C   0  0  0  0  0  0  0  0  0  0  0  0
    5.9121   -7.7247    0.0000 C   0  0  0  0  0  0  0  0  0  0  0  0
    5.1976   -7.3122    0.0000 C   0  0  0  0  0  0  0  0  0  0  0  0
    4.5090   -6.8965    0.0000 C   0  0  0  0  0  0  0  0  0  0  0  0
    4.5140   -6.0921    0.0000 C   0  0  0  0  0  0  0  0  0  0  0  0
    5.2081   -5.6856    0.0000 C   0  0  0  0  0  0  0  0  0  0  0  0
    5.3724   -7.0457    0.0000 C   0  0  0  0  0  0  0  0  0  0  0  0
    5.1976   -6.4872    0.0000 C   0  0  0  0  0  0  0  0  0  0  0  0
  1  2  1  0  0  0  0
  2  3  2  0  0  0  0
  2  4  1  0  0  0  0
  6  7  1  0  0  0  0
  7  8  1  0  0  0  0
  8  9  1  0  0  0  0
  9 10  1  0  0  0  0
 10 11  1  0  0  0  0
 11 12  1  0  0  0  0
 12 13  1  0  0  0  0
  6 13  1  0  0  0  0
 12 14  1  0  0  0  0
  8 14  1  0  0  0  0
 10 15  1  0  0  0  0
  6 15  1  0  0  0  0
  5  7  2  0  0  0  0
  1  5  1  0  0  0  0
M  END
>  <cdx:fragmentId>
359

$$$$
