300008.cdx
  Mrv1902 05222410282D          

 27 31  0  0  0  0            999 V2000
    9.6230   -7.1897    0.0000 O   0  0  0  0  0  0  0  0  0  0  0  0
   10.1079   -7.8572    0.0000 C   0  0  0  0  0  0  0  0  0  0  0  0
    9.6230   -8.5246    0.0000 O   0  0  0  0  0  0  0  0  0  0  0  0
    8.8384   -8.2697    0.0000 C   0  0  0  0  0  0  0  0  0  0  0  0
    8.8384   -7.4447    0.0000 C   0  0  0  0  0  0  0  0  0  0  0  0
    8.1239   -8.6822    0.0000 C   0  0  0  0  0  0  0  0  0  0  0  0
    7.4094   -8.2697    0.0000 C   0  0  0  0  0  0  0  0  0  0  0  0
    7.4094   -7.4447    0.0000 C   0  0  0  0  0  0  0  0  0  0  0  0
    8.1239   -7.0322    0.0000 C   0  0  0  0  0  0  0  0  0  0  0  0
    6.6949   -8.6822    0.0000 C   0  0  0  0  0  0  0  0  0  0  0  0
    4.6748   -7.9921    0.0000 O   0  0  0  0  0  0  0  0  0  0  0  0
    5.2268   -8.6052    0.0000 C   0  0  0  0  0  0  0  0  0  0  0  0
    5.9805   -8.2697    0.0000 C   0  0  2  0  0  0  0  0  0  0  0  0
    5.8942   -7.4492    0.0000 C   0  0  1  0  0  0  0  0  0  0  0  0
    5.0873   -7.2777    0.0000 C   0  0  0  0  0  0  0  0  0  0  0  0
    5.0553   -9.4122    0.0000 O   0  0  0  0  0  0  0  0  0  0  0  0
    4.2707   -9.6672    0.0000 C   0  0  0  0  0  0  0  0  0  0  0  0
    6.5073   -6.8972    0.0000 C   0  0  0  0  0  0  0  0  0  0  0  0
    5.6572   -3.7226    0.0000 O   0  0  0  0  0  0  0  0  0  0  0  0
    4.8367   -3.8088    0.0000 C   0  0  0  0  0  0  0  0  0  0  0  0
    4.6652   -4.6158    0.0000 O   0  0  0  0  0  0  0  0  0  0  0  0
    5.3797   -5.0283    0.0000 C   0  0  0  0  0  0  0  0  0  0  0  0
    5.9928   -4.4763    0.0000 C   0  0  0  0  0  0  0  0  0  0  0  0
    5.5512   -5.8353    0.0000 C   0  0  0  0  0  0  0  0  0  0  0  0
    6.3358   -6.0902    0.0000 C   0  0  0  0  0  0  0  0  0  0  0  0
    6.9489   -5.5382    0.0000 C   0  0  0  0  0  0  0  0  0  0  0  0
    6.7774   -4.7312    0.0000 C   0  0  0  0  0  0  0  0  0  0  0  0
  1  2  1  0  0  0  0
  2  3  1  0  0  0  0
  3  4  1  0  0  0  0
  4  5  1  0  0  0  0
  1  5  1  0  0  0  0
  6  7  1  0  0  0  0
  7  8  2  0  0  0  0
  8  9  1  0  0  0  0
  5  9  2  0  0  0  0
  4  6  2  0  0  0  0
 11 12  1  0  0  0  0
 12 13  1  0  0  0  0
 13 14  1  0  0  0  0
 14 15  1  0  0  0  0
 11 15  1  0  0  0  0
 16 17  1  0  0  0  0
 12 16  1  0  0  0  0
 19 20  1  0  0  0  0
 20 21  1  0  0  0  0
 21 22  1  0  0  0  0
 22 23  1  0  0  0  0
 19 23  1  0  0  0  0
 24 25  1  0  0  0  0
 25 26  2  0  0  0  0
 26 27  1  0  0  0  0
 23 27  2  0  0  0  0
 22 24  2  0  0  0  0
 18 25  1  0  0  0  0
 14 18  1  1  0  0  0
 13 10  1  6  0  0  0
  7 10  1  0  0  0  0
M  END
>  <cdx:fragmentId>
343

$$$$
