300009.cdx
  Mrv1902 05222410282D          

 22 23  0  0  0  0            999 V2000
    7.8337   -9.9534    0.0000 O   0  0  0  0  0  0  0  0  0  0  0  0
    7.5855  -10.7402    0.0000 C   0  0  0  0  0  0  0  0  0  0  0  0
    6.7606  -10.7473    0.0000 C   0  0  0  0  0  0  0  0  0  0  0  0
    6.4989   -9.9648    0.0000 C   0  0  1  0  0  0  0  0  0  0  0  0
    7.1622   -9.4742    0.0000 C   0  0  1  0  0  0  0  0  0  0  0  0
    8.0761  -11.4034    0.0000 O   0  0  0  0  0  0  0  0  0  0  0  0
    4.1386   -9.2202    0.0000 O   0  0  0  0  0  0  0  0  0  0  0  0
    6.2814  -11.4188    0.0000 C   0  0  0  0  0  0  0  0  0  0  0  0
    7.1551   -8.6493    0.0000 C   0  0  1  0  0  0  0  0  0  0  0  0
    7.8183   -8.1586    0.0000 C   0  0  1  0  0  0  0  0  0  0  0  0
    7.5567   -7.3762    0.0000 C   0  0  0  0  0  0  0  0  0  0  0  0
    6.7317   -7.3833    0.0000 C   0  0  0  0  0  0  0  0  0  0  0  0
    6.4835   -8.1701    0.0000 C   0  0  0  0  0  0  0  0  0  0  0  0
    5.7011   -8.4317    0.0000 O   0  0  0  0  0  0  0  0  0  0  0  0
    8.6238   -7.9802    0.0000 C   0  0  0  0  0  0  0  0  0  0  0  0
    8.3756   -8.7670    0.0000 O   0  0  0  0  0  0  0  0  0  0  0  0
    3.7087  -10.5830    0.0000 C   0  0  0  0  0  0  0  0  0  0  0  0
    4.3170  -10.0257    0.0000 C   0  0  0  0  0  0  0  0  0  0  0  0
    5.1038  -10.2739    0.0000 C   0  0  0  0  0  0  0  0  0  0  0  0
    5.7121   -9.7166    0.0000 C   0  0  0  0  0  0  0  0  0  0  0  0
    6.4406   -9.0618    0.0000 H   0  0  0  0  0  0  0  0  0  0  0  0
    7.8766   -9.0617    0.0000 H   0  0  0  0  0  0  0  0  0  0  0  0
 18  7  2  0  0  0  0
 18 17  1  0  0  0  0
 19 18  1  0  0  0  0
 20 19  1  0  0  0  0
  1  2  1  0  0  0  0
  2  3  1  0  0  0  0
  3  4  1  0  0  0  0
  4  5  1  0  0  0  0
  5  1  1  0  0  0  0
  2  6  2  0  0  0  0
  4 20  1  6  0  0  0
  3  8  2  0  0  0  0
  9 10  1  0  0  0  0
 10 11  1  0  0  0  0
 11 12  2  0  0  0  0
 12 13  1  0  0  0  0
  9 13  1  0  0  0  0
 13 14  2  0  0  0  0
 10 15  1  0  0  0  0
 10 16  1  6  0  0  0
  5  9  1  0  0  0  0
  9 21  1  1  0  0  0
  5 22  1  6  0  0  0
M  END
>  <cdx:fragmentId>
5

$$$$
