300053.cdx
  Mrv1902 05222410232D          

 23 25  0  0  0  0            999 V2000
    7.3450   -7.4335    0.0000 C   0  0  0  0  0  0  0  0  0  0  0  0
    7.3450   -8.2585    0.0000 C   0  0  2  0  0  0  0  0  0  0  0  0
    6.6305   -8.6710    0.0000 C   0  0  0  0  0  0  0  0  0  0  0  0
    5.9160   -8.2585    0.0000 C   0  0  0  0  0  0  0  0  0  0  0  0
    5.2016   -8.6710    0.0000 C   0  0  0  0  0  0  0  0  0  0  0  0
    4.4871   -8.2585    0.0000 C   0  0  0  0  0  0  0  0  0  0  0  0
    4.4871   -7.4335    0.0000 C   0  0  0  0  0  0  0  0  0  0  0  0
    5.2016   -7.0210    0.0000 C   0  0  0  0  0  0  0  0  0  0  0  0
    5.9160   -7.4335    0.0000 C   0  0  0  0  0  0  0  0  0  0  0  0
    6.6305   -7.0210    0.0000 O   0  0  0  0  0  0  0  0  0  0  0  0
    3.7726   -7.0210    0.0000 O   0  0  0  0  0  0  0  0  0  0  0  0
    8.0595   -8.6710    0.0000 C   0  0  0  0  0  0  0  0  0  0  0  0
    8.0595   -9.4960    0.0000 C   0  0  0  0  0  0  0  0  0  0  0  0
    8.7739   -9.9085    0.0000 C   0  0  0  0  0  0  0  0  0  0  0  0
    9.4884   -9.4960    0.0000 C   0  0  0  0  0  0  0  0  0  0  0  0
    9.4884   -8.6710    0.0000 C   0  0  0  0  0  0  0  0  0  0  0  0
    8.7739   -8.2585    0.0000 C   0  0  0  0  0  0  0  0  0  0  0  0
   10.2029   -9.9085    0.0000 O   0  0  0  0  0  0  0  0  0  0  0  0
   10.9173   -9.4960    0.0000 C   0  0  0  0  0  0  0  0  0  0  0  0
    7.3450   -9.9085    0.0000 O   0  0  0  0  0  0  0  0  0  0  0  0
    5.2016   -6.1960    0.0000 O   0  0  0  0  0  0  0  0  0  0  0  0
    8.7739  -10.7335    0.0000 O   0  0  0  0  0  0  0  0  0  0  0  0
    8.0595   -7.8460    0.0000 H   0  0  0  0  0  0  0  0  0  0  0  0
  1  2  1  0  0  0  0
  2  3  1  0  0  0  0
  3  4  1  0  0  0  0
  4  5  1  0  0  0  0
  5  6  2  0  0  0  0
  6  7  1  0  0  0  0
  7  8  2  0  0  0  0
  8  9  1  0  0  0  0
  4  9  2  0  0  0  0
  9 10  1  0  0  0  0
  1 10  1  0  0  0  0
  7 11  1  0  0  0  0
 12 13  1  0  0  0  0
 13 14  2  0  0  0  0
 14 15  1  0  0  0  0
 15 16  2  0  0  0  0
 16 17  1  0  0  0  0
 12 17  2  0  0  0  0
 18 19  1  0  0  0  0
 15 18  1  0  0  0  0
 13 20  1  0  0  0  0
  2 12  1  0  0  0  0
  8 21  1  0  0  0  0
 14 22  1  0  0  0  0
  2 23  1  6  0  0  0
M  END
>  <cdx:fragmentId>
5

$$$$
