300086.cdx
  Mrv1902 05222410242D          

 14 14  0  0  0  0            999 V2000
    7.1991   -5.9282    0.0000 C   0  0  0  0  0  0  0  0  0  0  0  0
    7.9136   -6.3407    0.0000 C   0  0  0  0  0  0  0  0  0  0  0  0
    8.6280   -5.9282    0.0000 C   0  0  0  0  0  0  0  0  0  0  0  0
    9.3425   -6.3407    0.0000 C   0  0  0  0  0  0  0  0  0  0  0  0
    7.1991   -5.1032    0.0000 O   0  0  0  0  0  0  0  0  0  0  0  0
    6.4846   -6.3407    0.0000 C   0  0  0  0  0  0  0  0  0  0  0  0
    5.7701   -5.9282    0.0000 C   0  0  0  0  0  0  0  0  0  0  0  0
    5.0557   -6.3407    0.0000 C   0  0  0  0  0  0  0  0  0  0  0  0
    5.0557   -7.1657    0.0000 C   0  0  0  0  0  0  0  0  0  0  0  0
    5.7701   -7.5782    0.0000 C   0  0  0  0  0  0  0  0  0  0  0  0
    6.4846   -7.1657    0.0000 C   0  0  0  0  0  0  0  0  0  0  0  0
    7.3096   -7.1657    0.0000 C   0  0  0  0  0  0  0  0  0  0  0  0
    6.8971   -7.8802    0.0000 C   0  0  0  0  0  0  0  0  0  0  0  0
    5.7701   -5.1032    0.0000 C   0  0  0  0  0  0  0  0  0  0  0  0
  1  2  1  0  0  0  0
  2  3  2  0  0  0  0
  3  4  1  0  0  0  0
  1  5  2  0  0  0  0
  6  7  1  0  0  0  0
  7  8  1  0  0  0  0
  8  9  2  0  0  0  0
  9 10  1  0  0  0  0
 10 11  1  0  0  0  0
  6 11  1  0  0  0  0
 11 12  1  0  0  0  0
 11 13  1  0  0  0  0
  7 14  1  0  0  0  0
  1  6  1  0  0  0  0
M  END
>  <cdx:fragmentId>
518

$$$$
