300082.cdx
  Mrv1902 05222410252D          

 28 31  0  0  0  0            999 V2000
    4.0084   -6.1346    0.0000 C   0  0  0  0  0  0  0  0  0  0  0  0
    4.7229   -5.7221    0.0000 C   0  0  0  0  0  0  0  0  0  0  0  0
    4.0084   -6.9596    0.0000 O   0  0  0  0  0  0  0  0  0  0  0  0
    3.2939   -5.7221    0.0000 O   0  0  0  0  0  0  0  0  0  0  0  0
   10.5088   -5.8796    0.0000 N   0  0  0  0  0  0  0  0  0  0  0  0
   10.9937   -6.5471    0.0000 N   0  0  0  0  0  0  0  0  0  0  0  0
   10.5088   -7.2145    0.0000 C   0  0  0  0  0  0  0  0  0  0  0  0
    9.7242   -6.9596    0.0000 C   0  0  0  0  0  0  0  0  0  0  0  0
    9.0097   -7.3721    0.0000 C   0  0  0  0  0  0  0  0  0  0  0  0
    8.2952   -6.9596    0.0000 C   0  0  0  0  0  0  0  0  0  0  0  0
    8.2952   -6.1346    0.0000 C   0  0  0  0  0  0  0  0  0  0  0  0
    9.0097   -5.7221    0.0000 C   0  0  0  0  0  0  0  0  0  0  0  0
    9.7242   -6.1346    0.0000 C   0  0  0  0  0  0  0  0  0  0  0  0
    5.4373   -6.9596    0.0000 O   0  0  0  0  0  0  0  0  0  0  0  0
    5.4373   -6.1346    0.0000 C   0  0  0  0  0  0  0  0  0  0  0  0
    6.1518   -5.7221    0.0000 C   0  0  0  0  0  0  0  0  0  0  0  0
    6.8663   -6.1346    0.0000 C   0  0  0  0  0  0  0  0  0  0  0  0
    7.5808   -5.7221    0.0000 C   0  0  0  0  0  0  0  0  0  0  0  0
    7.5808   -7.3721    0.0000 C   0  0  0  0  0  0  0  0  0  0  0  0
    6.8663   -6.9596    0.0000 C   0  0  0  0  0  0  0  0  0  0  0  0
    6.1518   -7.3721    0.0000 C   0  0  0  0  0  0  0  0  0  0  0  0
    9.0097   -4.8971    0.0000 O   0  0  0  0  0  0  0  0  0  0  0  0
    9.0097   -8.1971    0.0000 O   0  0  0  0  0  0  0  0  0  0  0  0
    6.1518   -8.1971    0.0000 C   0  0  0  0  0  0  0  0  0  0  0  0
   11.8187   -6.5471    0.0000 C   0  0  0  0  0  0  0  0  0  0  0  0
    7.5808   -4.8971    0.0000 O   0  0  0  0  0  0  0  0  0  0  0  0
    7.5808   -8.1971    0.0000 O   0  0  0  0  0  0  0  0  0  0  0  0
    2.5795   -6.1346    0.0000 C   0  0  0  0  0  0  0  0  0  0  0  0
  1  2  1  0  0  0  0
  1  3  2  0  0  0  0
  1  4  1  0  0  0  0
  5  6  1  0  0  0  0
  6  7  1  0  0  0  0
  7  8  2  0  0  0  0
  8  9  1  0  0  0  0
  9 10  1  0  0  0  0
 10 11  1  0  0  0  0
 11 12  1  0  0  0  0
 12 13  1  0  0  0  0
  5 13  2  0  0  0  0
  8 13  1  0  0  0  0
 14 15  1  0  0  0  0
 15 16  1  0  0  0  0
 16 17  1  0  0  0  0
 17 18  1  0  0  0  0
 19 20  1  0  0  0  0
 17 20  2  0  0  0  0
 20 21  1  0  0  0  0
 14 21  1  0  0  0  0
 10 19  2  0  0  0  0
 11 18  2  0  0  0  0
 12 22  2  0  0  0  0
  9 23  2  0  0  0  0
 21 24  1  0  0  0  0
  6 25  1  0  0  0  0
 18 26  1  0  0  0  0
 19 27  1  0  0  0  0
  2 15  1  0  0  0  0
  4 28  1  0  0  0  0
M  END
>  <cdx:fragmentId>
98

$$$$
