300081.cdx
  Mrv1902 05222410252D          

 26 29  0  0  0  0            999 V2000
    6.7797   -5.1047    0.0000 C   0  0  0  0  0  0  0  0  0  0  0  0
    6.7797   -4.2797    0.0000 O   0  0  0  0  0  0  0  0  0  0  0  0
    7.9067   -6.2317    0.0000 O   0  0  0  0  0  0  0  0  0  0  0  0
    7.4942   -5.5172    0.0000 C   0  0  0  0  0  0  0  0  0  0  0  0
    8.3192   -5.5172    0.0000 C   0  0  0  0  0  0  0  0  0  0  0  0
    9.0337   -5.1047    0.0000 C   0  0  0  0  0  0  0  0  0  0  0  0
    9.0337   -4.2797    0.0000 C   0  0  0  0  0  0  0  0  0  0  0  0
    9.7481   -3.8672    0.0000 C   0  0  0  0  0  0  0  0  0  0  0  0
   10.4626   -4.2797    0.0000 C   0  0  0  0  0  0  0  0  0  0  0  0
   10.4626   -5.1047    0.0000 C   0  0  0  0  0  0  0  0  0  0  0  0
    9.7481   -5.5172    0.0000 C   0  0  0  0  0  0  0  0  0  0  0  0
    6.0652   -5.5172    0.0000 C   0  0  0  0  0  0  0  0  0  0  0  0
    6.0652   -6.3422    0.0000 C   0  0  0  0  0  0  0  0  0  0  0  0
    5.3508   -6.7547    0.0000 C   0  0  0  0  0  0  0  0  0  0  0  0
    4.6363   -6.3422    0.0000 C   0  0  0  0  0  0  0  0  0  0  0  0
    4.6363   -5.5172    0.0000 C   0  0  0  0  0  0  0  0  0  0  0  0
    5.3508   -5.1047    0.0000 C   0  0  0  0  0  0  0  0  0  0  0  0
    6.7797   -6.7547    0.0000 O   0  0  0  0  0  0  0  0  0  0  0  0
    6.7797   -7.5797    0.0000 C   0  0  0  0  0  0  0  0  0  0  0  0
    7.4942   -7.9922    0.0000 C   0  0  0  0  0  0  0  0  0  0  0  0
    7.4942   -8.8172    0.0000 C   0  0  0  0  0  0  0  0  0  0  0  0
    8.2087   -9.2297    0.0000 C   0  0  0  0  0  0  0  0  0  0  0  0
    8.9231   -8.8172    0.0000 C   0  0  0  0  0  0  0  0  0  0  0  0
    8.9231   -7.9922    0.0000 C   0  0  0  0  0  0  0  0  0  0  0  0
    8.2087   -7.5797    0.0000 C   0  0  0  0  0  0  0  0  0  0  0  0
    3.9218   -5.1047    0.0000 C   0  0  0  0  0  0  0  0  0  0  0  0
  1  2  2  0  0  0  0
  3  4  1  0  0  0  0
  4  5  1  0  0  0  0
  3  5  1  0  0  0  0
  6  7  1  0  0  0  0
  7  8  2  0  0  0  0
  8  9  1  0  0  0  0
  9 10  2  0  0  0  0
 10 11  1  0  0  0  0
  6 11  2  0  0  0  0
  5  6  1  0  0  0  0
  1  4  1  0  0  0  0
 12 13  1  0  0  0  0
 13 14  2  0  0  0  0
 14 15  1  0  0  0  0
 15 16  2  0  0  0  0
 16 17  1  0  0  0  0
 12 17  2  0  0  0  0
 18 19  1  0  0  0  0
 20 21  1  0  0  0  0
 21 22  2  0  0  0  0
 22 23  1  0  0  0  0
 23 24  2  0  0  0  0
 24 25  1  0  0  0  0
 20 25  2  0  0  0  0
 19 20  1  0  0  0  0
 13 18  1  0  0  0  0
 16 26  1  0  0  0  0
  1 12  1  0  0  0  0
M  END
>  <cdx:fragmentId>
43

$$$$
