300042.cdx
  Mrv1902 05222410252D          

 19 20  0  0  0  0            999 V2000
    6.8421   -6.6825    0.0000 C   0  0  0  0  0  0  0  0  0  0  0  0
    6.8421   -7.5075    0.0000 C   0  0  0  0  0  0  0  0  0  0  0  0
    7.5566   -7.9200    0.0000 C   0  0  0  0  0  0  0  0  0  0  0  0
    8.2711   -7.5075    0.0000 C   0  0  0  0  0  0  0  0  0  0  0  0
    8.2711   -6.6825    0.0000 C   0  0  0  0  0  0  0  0  0  0  0  0
    7.5566   -6.2700    0.0000 C   0  0  0  0  0  0  0  0  0  0  0  0
    6.1276   -7.9200    0.0000 S   0  0  0  0  0  0  0  0  0  0  0  0
    5.4132   -8.3325    0.0000 C   0  0  0  0  0  0  0  0  0  0  0  0
    5.4132   -9.1575    0.0000 C   0  0  0  0  0  0  0  0  0  0  0  0
    5.5443   -7.3366    0.0000 O   0  0  0  0  0  0  0  0  0  0  0  0
    6.5401   -8.6345    0.0000 O   0  0  0  0  0  0  0  0  0  0  0  0
    4.6987   -9.5700    0.0000 C   0  0  0  0  0  0  0  0  0  0  0  0
    4.6987  -10.3950    0.0000 C   0  0  0  0  0  0  0  0  0  0  0  0
    5.4132  -10.8075    0.0000 C   0  0  0  0  0  0  0  0  0  0  0  0
    6.1276  -10.3950    0.0000 C   0  0  0  0  0  0  0  0  0  0  0  0
    6.1276   -9.5700    0.0000 C   0  0  0  0  0  0  0  0  0  0  0  0
    3.9842   -9.1575    0.0000 C   0  0  0  0  0  0  0  0  0  0  0  0
    3.9018   -9.7835    0.0000 C   0  0  0  0  0  0  0  0  0  0  0  0
    6.9245   -9.3565    0.0000 C   0  0  0  0  0  0  0  0  0  0  0  0
  1  2  2  0  0  0  0
  2  3  1  0  0  0  0
  3  4  2  0  0  0  0
  4  5  1  0  0  0  0
  5  6  2  0  0  0  0
  6  1  1  0  0  0  0
  2  7  1  0  0  0  0
  7  8  1  0  0  0  0
  8  9  1  0  0  0  0
  7 10  2  0  0  0  0
  7 11  2  0  0  0  0
  9 12  1  0  0  0  0
 12 13  1  0  0  0  0
 13 14  1  0  0  0  0
 14 15  1  0  0  0  0
 15 16  1  0  0  0  0
 16  9  2  0  0  0  0
 12 17  1  0  0  0  0
 12 18  1  0  0  0  0
 16 19  1  0  0  0  0
M  END
>  <cdx:fragmentId>
2990

$$$$
