300062.cdx
  Mrv1902 05222410222D          

 44 48  0  0  0  0            999 V2000
    5.2465  -13.8655    0.0000 C   0  0  1  0  0  0  0  0  0  0  0  0
    5.4600  -13.0687    0.0000 C   0  0  2  0  0  0  0  0  0  0  0  0
    4.8766  -12.4853    0.0000 C   0  0  0  0  0  0  0  0  0  0  0  0
    5.8298  -14.4489    0.0000 O   0  0  0  0  0  0  0  0  0  0  0  0
    4.0797  -12.6988    0.0000 O   0  0  0  0  0  0  0  0  0  0  0  0
    4.4496  -14.0791    0.0000 C   0  0  0  0  0  0  0  0  0  0  0  0
    4.2361  -14.8760    0.0000 C   0  0  0  0  0  0  0  0  0  0  0  0
    3.4392  -15.0895    0.0000 C   0  0  0  0  0  0  0  0  0  0  0  0
    2.8558  -14.5061    0.0000 C   0  0  0  0  0  0  0  0  0  0  0  0
    3.0693  -13.7092    0.0000 C   0  0  0  0  0  0  0  0  0  0  0  0
    3.8662  -13.4957    0.0000 C   0  0  0  0  0  0  0  0  0  0  0  0
    4.8194  -15.4593    0.0000 O   0  0  0  0  0  0  0  0  0  0  0  0
    5.6163  -15.2458    0.0000 C   0  0  0  0  0  0  0  0  0  0  0  0
    3.2256  -15.8864    0.0000 O   0  0  0  0  0  0  0  0  0  0  0  0
    6.2670  -12.8971    0.0000 O   0  0  0  0  0  0  0  0  0  0  0  0
    6.5219  -12.1125    0.0000 C   0  0  0  0  0  0  0  0  0  0  0  0
    5.9699  -11.4994    0.0000 C   0  0  0  0  0  0  0  0  0  0  0  0
    6.2248  -10.7148    0.0000 C   0  0  0  0  0  0  0  0  0  0  0  0
    7.0318  -10.5433    0.0000 C   0  0  0  0  0  0  0  0  0  0  0  0
    7.5838  -11.1564    0.0000 C   0  0  0  0  0  0  0  0  0  0  0  0
    7.3289  -11.9410    0.0000 C   0  0  0  0  0  0  0  0  0  0  0  0
    7.8809  -12.5541    0.0000 O   0  0  0  0  0  0  0  0  0  0  0  0
    8.6879  -12.3825    0.0000 C   0  0  0  0  0  0  0  0  0  0  0  0
    5.1629  -11.6709    0.0000 O   0  0  0  0  0  0  0  0  0  0  0  0
    4.6109  -11.0578    0.0000 C   0  0  0  0  0  0  0  0  0  0  0  0
    9.3409   -9.0912    0.0000 O   0  0  0  0  0  0  0  0  0  0  0  0
    8.8560   -9.7586    0.0000 C   0  0  0  0  0  0  0  0  0  0  0  0
    8.0713   -9.5037    0.0000 C   0  0  2  0  0  0  0  0  0  0  0  0
    8.0713   -8.6787    0.0000 C   0  0  2  0  0  0  0  0  0  0  0  0
    8.8560   -8.4238    0.0000 C   0  0  2  0  0  0  0  0  0  0  0  0
    6.8018   -9.0912    0.0000 O   0  0  0  0  0  0  0  0  0  0  0  0
    7.2867   -9.7586    0.0000 C   0  0  1  0  0  0  0  0  0  0  0  0
    7.2867   -8.4238    0.0000 C   0  0  0  0  0  0  0  0  0  0  0  0
    9.1109   -7.6391    0.0000 C   0  0  0  0  0  0  0  0  0  0  0  0
    9.9179   -7.4676    0.0000 C   0  0  0  0  0  0  0  0  0  0  0  0
   10.1728   -6.6830    0.0000 C   0  0  0  0  0  0  0  0  0  0  0  0
    9.6208   -6.0699    0.0000 C   0  0  0  0  0  0  0  0  0  0  0  0
    8.8138   -6.2414    0.0000 C   0  0  0  0  0  0  0  0  0  0  0  0
    8.5589   -7.0260    0.0000 C   0  0  0  0  0  0  0  0  0  0  0  0
   10.9798   -6.5115    0.0000 O   0  0  0  0  0  0  0  0  0  0  0  0
   11.5318   -7.1246    0.0000 C   0  0  0  0  0  0  0  0  0  0  0  0
    9.8757   -5.2853    0.0000 O   0  0  0  0  0  0  0  0  0  0  0  0
    8.0713   -7.8537    0.0000 H   0  0  0  0  0  0  0  0  0  0  0  0
    8.0713  -10.3287    0.0000 H   0  0  0  0  0  0  0  0  0  0  0  0
  1  2  1  0  0  0  0
  2  3  1  0  0  0  0
  1  4  1  1  0  0  0
  3  5  1  0  0  0  0
  6  7  1  0  0  0  0
  7  8  2  0  0  0  0
  8  9  1  0  0  0  0
  9 10  2  0  0  0  0
 10 11  1  0  0  0  0
  6 11  2  0  0  0  0
 12 13  1  0  0  0  0
  7 12  1  0  0  0  0
  8 14  1  0  0  0  0
  1  6  1  0  0  0  0
 16 17  1  0  0  0  0
 17 18  2  0  0  0  0
 18 19  1  0  0  0  0
 19 20  2  0  0  0  0
 20 21  1  0  0  0  0
 16 21  2  0  0  0  0
 15 16  1  0  0  0  0
 22 23  1  0  0  0  0
 21 22  1  0  0  0  0
 24 25  1  0  0  0  0
 17 24  1  0  0  0  0
 26 27  1  0  0  0  0
 27 28  1  0  0  0  0
 28 29  1  0  0  0  0
 29 30  1  0  0  0  0
 26 30  1  0  0  0  0
 31 32  1  0  0  0  0
 31 33  1  0  0  0  0
 28 32  1  0  0  0  0
 29 33  1  0  0  0  0
 34 35  1  0  0  0  0
 35 36  2  0  0  0  0
 36 37  1  0  0  0  0
 37 38  2  0  0  0  0
 38 39  1  0  0  0  0
 34 39  2  0  0  0  0
 40 41  1  0  0  0  0
 36 40  1  0  0  0  0
 37 42  1  0  0  0  0
 30 34  1  6  0  0  0
 32 19  1  6  0  0  0
  2 15  1  6  0  0  0
 29 43  1  6  0  0  0
 28 44  1  6  0  0  0
M  END
>  <cdx:fragmentId>
4697

$$$$
