300041.cdx
  Mrv1902 05222410252D          

 10 10  0  0  0  0            999 V2000
    6.9960   -7.2565    0.0000 C   0  0  0  0  0  0  0  0  0  0  0  0
    7.5855   -7.8336    0.0000 C   0  0  0  0  0  0  0  0  0  0  0  0
    7.5943   -8.6586    0.0000 C   0  0  0  0  0  0  0  0  0  0  0  0
    7.0171   -9.2481    0.0000 C   0  0  0  0  0  0  0  0  0  0  0  0
    6.1922   -9.2569    0.0000 C   0  0  0  0  0  0  0  0  0  0  0  0
    5.6026   -8.6798    0.0000 C   0  0  0  0  0  0  0  0  0  0  0  0
    5.5939   -7.8548    0.0000 C   0  0  0  0  0  0  0  0  0  0  0  0
    6.1710   -7.2653    0.0000 C   0  0  0  0  0  0  0  0  0  0  0  0
    8.3598   -8.9662    0.0000 C   0  0  0  0  0  0  0  0  0  0  0  0
    9.0089   -8.4570    0.0000 C   0  0  0  0  0  0  0  0  0  0  0  0
  1  2  2  0  0  0  0
  2  3  1  0  0  0  0
  3  4  1  0  0  0  0
  4  5  1  0  0  0  0
  5  6  1  0  0  0  0
  6  7  1  0  0  0  0
  7  8  1  0  0  0  0
  1  8  1  0  0  0  0
  9 10  2  0  0  0  0
  3  9  1  0  0  0  0
M  END
>  <cdx:fragmentId>
2833

$$$$
