300021.cdx
  Mrv1902 05222410282D          

 14 15  0  0  0  0            999 V2000
    5.6174   -7.6519    0.0000 C   0  0  0  0  0  0  0  0  0  0  0  0
    5.6174   -8.4769    0.0000 C   0  0  2  0  0  0  0  0  0  0  0  0
    6.3319   -8.8894    0.0000 C   0  0  0  0  0  0  0  0  0  0  0  0
    7.0463   -8.4769    0.0000 C   0  0  2  0  0  0  0  0  0  0  0  0
    7.0463   -7.6519    0.0000 C   0  0  0  0  0  0  0  0  0  0  0  0
    6.3319   -7.2394    0.0000 C   0  0  0  0  0  0  0  0  0  0  0  0
    5.9194   -6.5249    0.0000 C   0  0  0  0  0  0  0  0  0  0  0  0
    6.7444   -6.5249    0.0000 C   0  0  0  0  0  0  0  0  0  0  0  0
    4.9029   -8.8894    0.0000 O   0  0  0  0  0  0  0  0  0  0  0  0
    7.8310   -8.7318    0.0000 O   0  0  0  0  0  0  0  0  0  0  0  0
    8.3159   -8.0644    0.0000 C   0  0  0  0  0  0  0  0  0  0  0  0
    7.8310   -7.3969    0.0000 C   0  0  0  0  0  0  0  0  0  0  0  0
    9.1409   -8.0644    0.0000 O   0  0  0  0  0  0  0  0  0  0  0  0
    7.0463   -9.3019    0.0000 C   0  0  0  0  0  0  0  0  0  0  0  0
  1  2  1  0  0  0  0
  2  3  1  0  0  0  0
  3  4  1  0  0  0  0
  4  5  1  0  0  0  0
  5  6  1  0  0  0  0
  6  1  1  0  0  0  0
  6  7  1  0  0  0  0
  6  8  1  0  0  0  0
  2  9  1  6  0  0  0
  4 10  1  0  0  0  0
 10 11  1  0  0  0  0
 11 12  1  0  0  0  0
 12  5  2  0  0  0  0
 11 13  2  0  0  0  0
  4 14  1  1  0  0  0
M  END
>  <cdx:fragmentId>
1578

$$$$
