300058.cdx
  Mrv1902 05222410212D          

 16 16  0  0  0  0            999 V2000
   10.9731   -6.0045    0.0000 C   0  0  0  0  0  0  0  0  0  0  0  0
    4.5429   -7.2420    0.0000 C   0  0  0  0  0  0  0  0  0  0  0  0
    5.9718   -5.5920    0.0000 C   0  0  0  0  0  0  0  0  0  0  0  0
    5.2574   -6.0045    0.0000 C   0  0  0  0  0  0  0  0  0  0  0  0
    5.2574   -6.8295    0.0000 C   0  0  0  0  0  0  0  0  0  0  0  0
    5.9718   -7.2420    0.0000 C   0  0  0  0  0  0  0  0  0  0  0  0
    6.6863   -6.8295    0.0000 C   0  0  0  0  0  0  0  0  0  0  0  0
    6.6863   -6.0045    0.0000 C   0  0  0  0  0  0  0  0  0  0  0  0
    8.8297   -4.7670    0.0000 O   0  0  0  0  0  0  0  0  0  0  0  0
    7.4008   -4.7670    0.0000 C   0  0  0  0  0  0  0  0  0  0  0  0
    7.4008   -5.5920    0.0000 C   0  0  0  0  0  0  0  0  0  0  0  0
    8.1153   -6.0045    0.0000 C   0  0  0  0  0  0  0  0  0  0  0  0
    8.8297   -5.5920    0.0000 C   0  0  0  0  0  0  0  0  0  0  0  0
    9.5442   -6.0045    0.0000 C   0  0  0  0  0  0  0  0  0  0  0  0
   10.2587   -5.5920    0.0000 C   0  0  0  0  0  0  0  0  0  0  0  0
   10.2587   -4.7670    0.0000 C   0  0  0  0  0  0  0  0  0  0  0  0
 15  1  1  0  0  0  0
 11  8  1  0  0  0  0
  5  2  2  0  0  0  0
  8  3  1  0  0  0  0
  4  3  1  0  0  0  0
  5  4  1  0  0  0  0
  6  5  1  0  0  0  0
  7  6  2  0  0  0  0
  8  7  1  0  0  0  0
 13  9  1  0  0  0  0
 11 10  1  0  0  0  0
 12 11  1  0  0  0  0
 13 12  1  0  0  0  0
 14 13  1  0  0  0  0
 15 14  2  0  0  0  0
 16 15  1  0  0  0  0
M  END
>  <cdx:fragmentId>
4440

$$$$
