300037.cdx
  Mrv1902 05222410272D          

 16 16  0  0  0  0            999 V2000
    7.4586   -7.2788    0.0000 C   0  0  0  0  0  0  0  0  0  0  0  0
    7.6781   -8.0740    0.0000 C   0  0  0  0  0  0  0  0  0  0  0  0
    8.4627   -8.3290    0.0000 C   0  0  0  0  0  0  0  0  0  0  0  0
    8.4627   -9.1540    0.0000 C   0  0  0  0  0  0  0  0  0  0  0  0
    7.6781   -9.4089    0.0000 C   0  0  0  0  0  0  0  0  0  0  0  0
    7.1931   -8.7415    0.0000 C   0  0  0  0  0  0  0  0  0  0  0  0
    6.3690   -8.7785    0.0000 C   0  0  0  0  0  0  0  0  0  0  0  0
    5.8262   -8.1572    0.0000 C   0  0  0  0  0  0  0  0  0  0  0  0
    5.9735   -7.3455    0.0000 C   0  0  0  0  0  0  0  0  0  0  0  0
    6.7000   -6.9545    0.0000 C   0  0  0  0  0  0  0  0  0  0  0  0
    8.0799   -6.7360    0.0000 O   0  0  0  0  0  0  0  0  0  0  0  0
    6.5396  -10.1972    0.0000 C   0  0  0  0  0  0  0  0  0  0  0  0
    6.0447   -9.5371    0.0000 C   0  0  0  0  0  0  0  0  0  0  0  0
    5.2256   -9.6356    0.0000 C   0  0  0  0  0  0  0  0  0  0  0  0
    6.7000   -6.1295    0.0000 C   0  0  0  0  0  0  0  0  0  0  0  0
    9.1301   -9.6389    0.0000 C   0  0  0  0  0  0  0  0  0  0  0  0
  1  2  1  0  0  0  0
  2  3  1  0  0  0  0
  3  4  1  0  0  0  0
  4  5  1  0  0  0  0
  5  6  2  0  0  0  0
  6  7  1  0  0  0  0
  7  8  1  0  0  0  0
  8  9  1  0  0  0  0
  9 10  1  0  0  0  0
  1 10  1  0  0  0  0
  1 11  1  0  0  0  0
 12 13  1  0  0  0  0
 13 14  1  0  0  0  0
  7 13  1  0  0  0  0
 10 15  2  0  0  0  0
  4 16  2  0  0  0  0
M  END
>  <cdx:fragmentId>
2567

$$$$
