300040.cdx
  Mrv1902 05222410242D          

 20 21  0  0  0  0            999 V2000
    8.6446   -9.0458    0.0000 C   0  0  0  0  0  0  0  0  0  0  0  0
    9.1295   -8.3784    0.0000 C   0  0  0  0  0  0  0  0  0  0  0  0
    8.6446   -7.7109    0.0000 C   0  0  2  0  0  0  0  0  0  0  0  0
    7.8600   -7.9659    0.0000 C   0  0  1  0  0  0  0  0  0  0  0  0
    7.2149   -7.4515    0.0000 C   0  0  0  0  0  0  0  0  0  0  0  0
    6.4106   -7.6351    0.0000 C   0  0  0  0  0  0  0  0  0  0  0  0
    6.0527   -8.3784    0.0000 C   0  0  0  0  0  0  0  0  0  0  0  0
    6.4106   -9.1217    0.0000 C   0  0  0  0  0  0  0  0  0  0  0  0
    7.2149   -9.3053    0.0000 C   0  0  1  0  0  0  0  0  0  0  0  0
    7.8600   -8.7909    0.0000 C   0  0  1  0  0  0  0  0  0  0  0  0
    5.2277   -8.3784    0.0000 O   0  0  0  0  0  0  0  0  0  0  0  0
    6.1977   -6.2221    0.0000 C   0  0  0  0  0  0  0  0  0  0  0  0
    5.8963   -6.9901    0.0000 C   0  0  0  0  0  0  0  0  0  0  0  0
    5.0805   -7.1130    0.0000 C   0  0  0  0  0  0  0  0  0  0  0  0
    6.9718  -10.0936    0.0000 C   0  0  0  0  0  0  0  0  0  0  0  0
    9.2577   -7.1589    0.0000 C   0  0  0  0  0  0  0  0  0  0  0  0
    7.7761   -9.9100    0.0000 O   0  0  0  0  0  0  0  0  0  0  0  0
    8.4731   -6.9040    0.0000 O   0  0  0  0  0  0  0  0  0  0  0  0
    8.0073   -7.1541    0.0000 H   0  0  0  0  0  0  0  0  0  0  0  0
    8.1460   -9.5647    0.0000 H   0  0  0  0  0  0  0  0  0  0  0  0
  1  2  1  0  0  0  0
  2  3  1  0  0  0  0
  3  4  1  0  0  0  0
  4  5  1  0  0  0  0
  5  6  1  0  0  0  0
  6  7  1  0  0  0  0
  7  8  1  0  0  0  0
  8  9  1  0  0  0  0
  9 10  1  0  0  0  0
  1 10  1  0  0  0  0
  4 10  1  0  0  0  0
  7 11  2  0  0  0  0
 12 13  1  0  0  0  0
 13 14  1  0  0  0  0
  6 13  2  0  0  0  0
  9 15  1  1  0  0  0
  3 16  1  6  0  0  0
  9 17  1  6  0  0  0
  3 18  1  1  0  0  0
  4 19  1  1  0  0  0
 10 20  1  1  0  0  0
M  END
>  <cdx:fragmentId>
2769

$$$$
