300097.cdx
  Mrv1902 05222410252D          

 10 10  0  0  0  0            999 V2000
    6.7855   -9.2908    0.0000 C   0  0  0  0  0  0  0  0  0  0  0  0
    6.7859  -10.1158    0.0000 C   0  0  0  0  0  0  0  0  0  0  0  0
    6.0716  -10.5286    0.0000 C   0  0  0  0  0  0  0  0  0  0  0  0
    5.3570  -10.1165    0.0000 C   0  0  0  0  0  0  0  0  0  0  0  0
    5.3565   -9.2915    0.0000 C   0  0  0  0  0  0  0  0  0  0  0  0
    6.0708   -8.8786    0.0000 C   0  0  0  0  0  0  0  0  0  0  0  0
    7.4997   -8.8779    0.0000 C   0  0  0  0  0  0  0  0  0  0  0  0
    8.2140   -8.4650    0.0000 C   0  0  0  0  0  0  0  0  0  0  0  0
    8.2136   -7.6400    0.0000 C   0  0  0  0  0  0  0  0  0  0  0  0
    8.9278   -7.2272    0.0000 C   0  0  0  0  0  0  0  0  0  0  0  0
  1  2  1  0  0  0  0
  2  3  1  0  0  0  0
  3  4  1  0  0  0  0
  4  5  1  0  0  0  0
  5  6  1  0  0  0  0
  1  6  1  0  0  0  0
  7  8  2  0  0  0  0
  8  9  1  0  0  0  0
  9 10  1  0  0  0  0
  1  7  2  0  0  0  0
M  END
>  <cdx:fragmentId>
5

$$$$
