300033.cdx
  Mrv1902 05222410272D          

 18 19  0  0  0  0            999 V2000
    8.4796   -6.5594    0.0000 C   0  0  0  0  0  0  0  0  0  0  0  0
    7.7651   -6.9719    0.0000 C   0  0  0  0  0  0  0  0  0  0  0  0
    7.7651   -7.7969    0.0000 C   0  0  0  0  0  0  0  0  0  0  0  0
    8.4796   -5.7344    0.0000 O   0  0  0  0  0  0  0  0  0  0  0  0
    9.1941   -6.9719    0.0000 O   0  0  0  0  0  0  0  0  0  0  0  0
    7.0507   -6.5594    0.0000 O   0  0  0  0  0  0  0  0  0  0  0  0
    7.0507   -8.2094    0.0000 S   0  0  0  0  0  0  0  0  0  0  0  0
    7.0507   -9.0344    0.0000 C   0  0  1  0  0  0  0  0  0  0  0  0
    7.7651   -9.4469    0.0000 C   0  0  1  0  0  0  0  0  0  0  0  0
    7.7651  -10.2719    0.0000 C   0  0  0  0  0  0  0  0  0  0  0  0
    7.0507  -10.6844    0.0000 C   0  0  0  0  0  0  0  0  0  0  0  0
    6.3362  -10.2719    0.0000 C   0  0  0  0  0  0  0  0  0  0  0  0
    5.6217  -10.6844    0.0000 C   0  0  0  0  0  0  0  0  0  0  0  0
    4.9073  -10.2719    0.0000 C   0  0  0  0  0  0  0  0  0  0  0  0
    4.9073   -9.4469    0.0000 C   0  0  0  0  0  0  0  0  0  0  0  0
    5.6217   -9.0344    0.0000 C   0  0  0  0  0  0  0  0  0  0  0  0
    6.3362   -9.4469    0.0000 C   0  0  0  0  0  0  0  0  0  0  0  0
    8.4796   -9.0344    0.0000 O   0  0  0  0  0  0  0  0  0  0  0  0
  1  2  1  0  0  0  0
  2  3  1  0  0  0  0
  1  4  2  0  0  0  0
  1  5  1  0  0  0  0
  2  6  2  0  0  0  0
  8  9  1  0  0  0  0
  9 10  1  0  0  0  0
 10 11  2  0  0  0  0
 11 12  1  0  0  0  0
 12 13  1  0  0  0  0
 13 14  2  0  0  0  0
 14 15  1  0  0  0  0
 15 16  2  0  0  0  0
 16 17  1  0  0  0  0
  8 17  1  0  0  0  0
 12 17  2  0  0  0  0
  9 18  1  6  0  0  0
  8  7  1  1  0  0  0
  3  7  1  0  0  0  0
M  END
>  <cdx:fragmentId>
2400

$$$$
