300031.cdx
  Mrv1902 05222410262D          

 17 17  0  0  0  0            999 V2000
   10.0501   -8.1754    0.0000 C   0  0  0  0  0  0  0  0  0  0  0  0
   10.0501   -7.3504    0.0000 C   0  0  0  0  0  0  0  0  0  0  0  0
   10.7646   -6.9379    0.0000 C   0  0  0  0  0  0  0  0  0  0  0  0
   11.4790   -7.3504    0.0000 C   0  0  0  0  0  0  0  0  0  0  0  0
   11.4790   -8.1754    0.0000 C   0  0  0  0  0  0  0  0  0  0  0  0
   10.7646   -8.5879    0.0000 C   0  0  0  0  0  0  0  0  0  0  0  0
    9.3356   -9.4129    0.0000 C   0  0  0  0  0  0  0  0  0  0  0  0
    9.3356   -8.5879    0.0000 C   0  0  0  0  0  0  0  0  0  0  0  0
    8.6212   -8.1754    0.0000 C   0  0  0  0  0  0  0  0  0  0  0  0
    7.9067   -8.5879    0.0000 C   0  0  0  0  0  0  0  0  0  0  0  0
    7.1922   -8.1754    0.0000 C   0  0  0  0  0  0  0  0  0  0  0  0
    6.4777   -8.5879    0.0000 C   0  0  0  0  0  0  0  0  0  0  0  0
    5.7633   -8.1754    0.0000 C   0  0  0  0  0  0  0  0  0  0  0  0
    5.0488   -8.5879    0.0000 C   0  0  0  0  0  0  0  0  0  0  0  0
    4.3343   -8.1754    0.0000 C   0  0  0  0  0  0  0  0  0  0  0  0
    3.6199   -8.5879    0.0000 C   0  0  0  0  0  0  0  0  0  0  0  0
    2.9054   -8.1754    0.0000 C   0  0  0  0  0  0  0  0  0  0  0  0
  1  2  1  0  0  0  0
  2  3  1  0  0  0  0
  3  4  1  0  0  0  0
  4  5  1  0  0  0  0
  5  6  1  0  0  0  0
  1  6  1  0  0  0  0
  7  8  1  0  0  0  0
  8  9  1  0  0  0  0
  9 10  1  0  0  0  0
 10 11  1  0  0  0  0
 11 12  1  0  0  0  0
 12 13  1  0  0  0  0
 13 14  1  0  0  0  0
 14 15  1  0  0  0  0
 15 16  1  0  0  0  0
 16 17  1  0  0  0  0
  1  8  1  0  0  0  0
M  END
>  <cdx:fragmentId>
2291

$$$$
