300006.cdx
  Mrv1902 05222410192D          

 11 11  0  0  0  0            999 V2000
    6.3533   -6.7443    0.0000 C   0  0  2  0  0  0  0  0  0  0  0  0
    6.3480   -7.5692    0.0000 C   0  0  0  0  0  0  0  0  0  0  0  0
    7.0597   -7.9864    0.0000 C   0  0  0  0  0  0  0  0  0  0  0  0
    7.7769   -7.5785    0.0000 C   0  0  0  0  0  0  0  0  0  0  0  0
    7.7822   -6.7536    0.0000 C   0  0  0  0  0  0  0  0  0  0  0  0
    7.0705   -6.3364    0.0000 C   0  0  2  0  0  0  0  0  0  0  0  0
    5.6416   -6.3271    0.0000 O   0  0  0  0  0  0  0  0  0  0  0  0
    7.7930   -5.1036    0.0000 C   0  0  0  0  0  0  0  0  0  0  0  0
    7.0758   -5.5114    0.0000 C   0  0  0  0  0  0  0  0  0  0  0  0
    6.3641   -5.0943    0.0000 C   0  0  0  0  0  0  0  0  0  0  0  0
    7.0544   -8.8114    0.0000 C   0  0  0  0  0  0  0  0  0  0  0  0
  1  2  1  0  0  0  0
  2  3  2  0  0  0  0
  3  4  1  0  0  0  0
  4  5  1  0  0  0  0
  5  6  1  0  0  0  0
  1  6  1  0  0  0  0
  1  7  1  1  0  0  0
  8  9  2  0  0  0  0
  9 10  1  0  0  0  0
  6  9  1  1  0  0  0
  3 11  1  0  0  0  0
M  END
>  <cdx:fragmentId>
161

$$$$
