30006.cdx
  Mrv1902 05222410252D          

 15 16  0  0  0  0            999 V2000
    7.2457   -7.0156    0.0000 C   0  0  0  0  0  0  0  0  0  0  0  0
    8.6746   -7.0261    0.0000 C   0  0  0  0  0  0  0  0  0  0  0  0
    7.9330  -10.7332    0.0000 C   0  0  0  0  0  0  0  0  0  0  0  0
    7.9571   -7.4333    0.0000 C   0  0  0  0  0  0  0  0  0  0  0  0
    5.0933   -8.2374    0.0000 C   0  0  0  0  0  0  0  0  0  0  0  0
    6.5222   -8.2479    0.0000 C   0  0  0  0  0  0  0  0  0  0  0  0
    5.8047   -8.6551    0.0000 C   0  0  0  0  0  0  0  0  0  0  0  0
    5.7987   -9.4801    0.0000 C   0  0  0  0  0  0  0  0  0  0  0  0
    6.5101   -9.8978    0.0000 C   0  0  0  0  0  0  0  0  0  0  0  0
    8.6625   -8.6760    0.0000 C   0  0  0  0  0  0  0  0  0  0  0  0
    7.9511   -8.2583    0.0000 C   0  0  2  0  0  0  0  0  0  0  0  0
    7.2336   -8.6656    0.0000 C   0  0  0  0  0  0  0  0  0  0  0  0
    7.2276   -9.4906    0.0000 C   0  0  0  0  0  0  0  0  0  0  0  0
    7.9390   -9.9083    0.0000 C   0  0  1  0  0  0  0  0  0  0  0  0
    8.6565   -9.5010    0.0000 C   0  0  0  0  0  0  0  0  0  0  0  0
  4  1  1  0  0  0  0
  4  2  1  0  0  0  0
 14  3  1  1  0  0  0
 11  4  1  6  0  0  0
  7  5  1  0  0  0  0
  6 12  2  0  0  0  0
  7  6  1  0  0  0  0
  8  7  2  0  0  0  0
  9  8  1  0  0  0  0
 13  9  1  0  0  0  0
 10 15  1  0  0  0  0
 11 10  1  0  0  0  0
 12 11  1  0  0  0  0
 13 12  1  0  0  0  0
 14 13  1  0  0  0  0
 15 14  1  0  0  0  0
M  END
>  <cdx:fragmentId>
5

$$$$
