300074.cdx
  Mrv1902 05222410222D          

 12 12  0  0  0  0            999 V2000
    8.2017   -6.1961    0.0000 C   0  0  0  0  0  0  0  0  0  0  0  0
    7.4872   -5.7836    0.0000 C   0  0  0  0  0  0  0  0  0  0  0  0
    6.7728   -6.1961    0.0000 C   0  0  0  0  0  0  0  0  0  0  0  0
    6.7728   -7.0211    0.0000 C   0  0  2  0  0  0  0  0  0  0  0  0
    7.4872   -7.4336    0.0000 C   0  0  0  0  0  0  0  0  0  0  0  0
    8.2017   -7.0211    0.0000 C   0  0  0  0  0  0  0  0  0  0  0  0
    8.9162   -5.7836    0.0000 C   0  0  0  0  0  0  0  0  0  0  0  0
    8.9162   -4.9586    0.0000 O   0  0  0  0  0  0  0  0  0  0  0  0
    9.6306   -6.1961    0.0000 O   0  0  0  0  0  0  0  0  0  0  0  0
    6.0583   -8.2586    0.0000 C   0  0  0  0  0  0  0  0  0  0  0  0
    6.0583   -7.4336    0.0000 C   0  0  0  0  0  0  0  0  0  0  0  0
    5.3438   -7.0211    0.0000 C   0  0  0  0  0  0  0  0  0  0  0  0
  1  2  2  0  0  0  0
  2  3  1  0  0  0  0
  3  4  1  0  0  0  0
  4  5  1  0  0  0  0
  5  6  1  0  0  0  0
  1  6  1  0  0  0  0
  7  8  2  0  0  0  0
  7  9  1  0  0  0  0
  1  7  1  0  0  0  0
 10 11  2  0  0  0  0
 11 12  1  0  0  0  0
  4 11  1  6  0  0  0
M  END
>  <cdx:fragmentId>
5324

$$$$
