300015.cdx
  Mrv1902 05222410202D          

 46 52  0  0  0  0            999 V2000
    7.8226  -10.6968    0.0000 C   0  0  0  0  0  0  0  0  0  0  0  0
    8.6443  -10.7708    0.0000 C   0  0  0  0  0  0  0  0  0  0  0  0
    7.3477  -11.3714    0.0000 O   0  0  0  0  0  0  0  0  0  0  0  0
    7.4758   -9.9482    0.0000 O   0  0  0  0  0  0  0  0  0  0  0  0
    5.5796   -8.0220    0.0000 O   0  0  0  0  0  0  0  0  0  0  0  0
    5.5796   -8.8470    0.0000 C   0  0  1  0  0  0  0  0  0  0  0  0
    6.3642   -9.1019    0.0000 C   0  0  2  0  0  0  0  0  0  0  0  0
    6.8492   -8.4345    0.0000 C   0  0  2  0  0  0  0  0  0  0  0  0
    6.3642   -7.7670    0.0000 C   0  0  0  0  0  0  0  0  0  0  0  0
    4.0128  -10.3067    0.0000 C   0  0  0  0  0  0  0  0  0  0  0  0
    3.5897   -9.5985    0.0000 C   0  0  0  0  0  0  0  0  0  0  0  0
    4.1325   -8.9772    0.0000 C   0  0  0  0  0  0  0  0  0  0  0  0
    4.8911   -9.3014    0.0000 C   0  0  1  0  0  0  0  0  0  0  0  0
    6.6541   -9.8743    0.0000 C   0  0  2  0  0  0  0  0  0  0  0  0
    6.2310  -10.5825    0.0000 C   0  0  0  0  0  0  0  0  0  0  0  0
    5.4135  -10.6933    0.0000 C   0  0  0  0  0  0  0  0  0  0  0  0
    4.8172  -10.1231    0.0000 C   0  0  0  0  0  0  0  0  0  0  0  0
    8.1187   -8.8470    0.0000 C   0  0  1  0  0  0  0  0  0  0  0  0
    8.7637   -9.3613    0.0000 C   0  0  2  0  0  0  0  0  0  0  0  0
    9.5680   -9.1778    0.0000 C   0  0  0  0  0  0  0  0  0  0  0  0
    9.9260   -8.4345    0.0000 C   0  0  0  0  0  0  0  0  0  0  0  0
    9.5680   -7.6912    0.0000 C   0  0  1  0  0  0  0  0  0  0  0  0
    9.9912   -6.9829    0.0000 C   0  0  0  0  0  0  0  0  0  0  0  0
    9.4484   -6.3617    0.0000 C   0  0  0  0  0  0  0  0  0  0  0  0
    8.6898   -6.6859    0.0000 O   0  0  0  0  0  0  0  0  0  0  0  0
    8.7637   -7.5076    0.0000 C   0  0  2  0  0  0  0  0  0  0  0  0
    8.1187   -8.0220    0.0000 C   0  0  1  0  0  0  0  0  0  0  0  0
    7.3341   -7.7670    0.0000 C   0  0  1  0  0  0  0  0  0  0  0  0
    7.1371   -8.3536    0.0000 C   0  0  0  0  0  0  0  0  0  0  0  0
    7.5008   -8.8542    0.0000 C   0  0  0  0  0  0  0  0  0  0  0  0
    7.3341   -9.1019    0.0000 C   0  0  0  0  0  0  0  0  0  0  0  0
    9.6320   -5.5573    0.0000 O   0  0  0  0  0  0  0  0  0  0  0  0
    3.6886  -11.0653    0.0000 O   0  0  0  0  0  0  0  0  0  0  0  0
    6.6192   -6.9824    0.0000 O   0  0  0  0  0  0  0  0  0  0  0  0
   10.8129   -6.9090    0.0000 C   0  0  0  0  0  0  0  0  0  0  0  0
    7.0792   -6.9824    0.0000 C   0  0  0  0  0  0  0  0  0  0  0  0
    3.9489   -8.1729    0.0000 C   0  0  0  0  0  0  0  0  0  0  0  0
    5.1585  -11.4779    0.0000 C   0  0  0  0  0  0  0  0  0  0  0  0
    8.2026   -9.9661    0.0000 C   0  0  0  0  0  0  0  0  0  0  0  0
    9.0069  -10.1497    0.0000 O   0  0  0  0  0  0  0  0  0  0  0  0
    5.7941   -9.6982    0.0000 H   0  0  0  0  0  0  0  0  0  0  0  0
   10.3930   -7.6912    0.0000 H   0  0  0  0  0  0  0  0  0  0  0  0
    8.7637   -8.3326    0.0000 H   0  0  0  0  0  0  0  0  0  0  0  0
    4.5406   -8.5546    0.0000 H   0  0  0  0  0  0  0  0  0  0  0  0
    5.0493   -8.2150    0.0000 H   0  0  0  0  0  0  0  0  0  0  0  0
    8.1187   -7.1970    0.0000 H   0  0  0  0  0  0  0  0  0  0  0  0
  1  2  1  0  0  0  0
  1  3  2  0  0  0  0
  1  4  1  0  0  0  0
  5  6  1  0  0  0  0
  6  7  1  0  0  0  0
  7  8  1  0  0  0  0
  8  9  1  1  0  0  0
  5  9  1  0  0  0  0
 10 11  1  0  0  0  0
 11 12  2  0  0  0  0
 12 13  1  0  0  0  0
 14 15  1  0  0  0  0
 15 16  1  0  0  0  0
 16 17  2  0  0  0  0
 10 17  1  0  0  0  0
 13 17  1  0  0  0  0
 13  6  1  0  0  0  0
 14  7  1  0  0  0  0
 18 19  1  0  0  0  0
 19 20  1  0  0  0  0
 20 21  1  0  0  0  0
 21 22  1  0  0  0  0
 22 23  1  0  0  0  0
 23 24  1  0  0  0  0
 24 25  1  0  0  0  0
 25 26  1  0  0  0  0
 26 27  1  0  0  0  0
 27 28  1  0  0  0  0
 28 29  1  6  0  0  0
 29 30  2  0  0  0  0
 18 30  1  6  0  0  0
 18 31  1  1  0  0  0
 18 27  1  0  0  0  0
 22 26  1  0  0  0  0
 28  8  1  0  0  0  0
 31  8  1  0  0  0  0
 24 32  2  0  0  0  0
 10 33  2  0  0  0  0
  9 34  2  0  0  0  0
 23 35  2  0  0  0  0
 28 36  1  0  0  0  0
 12 37  1  0  0  0  0
 16 38  1  0  0  0  0
 19 39  1  6  0  0  0
 19 40  1  1  0  0  0
 14  4  1  1  0  0  0
  7 41  1  1  0  0  0
 22 42  1  1  0  0  0
 26 43  1  6  0  0  0
 13 44  1  1  0  0  0
  6 45  1  6  0  0  0
 27 46  1  1  0  0  0
M  END
>  <cdx:fragmentId>
39

$$$$
