300046.cdx
  Mrv1902 05222410232D          

 21 20  0  0  0  0            999 V2000
    9.5479   -6.2377    0.0000 C   0  0  0  0  0  0  0  0  0  0  0  0
    8.8334   -6.6502    0.0000 C   0  0  0  0  0  0  0  0  0  0  0  0
    8.1189   -6.2377    0.0000 C   0  0  0  0  0  0  0  0  0  0  0  0
    7.4045   -6.6502    0.0000 C   0  0  0  0  0  0  0  0  0  0  0  0
    6.6900   -6.2377    0.0000 C   0  0  0  0  0  0  0  0  0  0  0  0
    5.9755   -6.6502    0.0000 C   0  0  0  0  0  0  0  0  0  0  0  0
    5.2611   -6.2377    0.0000 C   0  0  0  0  0  0  0  0  0  0  0  0
    4.5466   -6.6502    0.0000 C   0  0  0  0  0  0  0  0  0  0  0  0
    3.8321   -6.2377    0.0000 C   0  0  0  0  0  0  0  0  0  0  0  0
    3.1176   -6.6502    0.0000 C   0  0  0  0  0  0  0  0  0  0  0  0
    2.4032   -6.2377    0.0000 C   0  0  0  0  0  0  0  0  0  0  0  0
    1.6887   -6.6502    0.0000 C   0  0  0  0  0  0  0  0  0  0  0  0
    9.5479   -5.4127    0.0000 O   0  0  0  0  0  0  0  0  0  0  0  0
   10.2624   -6.6502    0.0000 N   0  0  0  0  0  0  0  0  0  0  0  0
    2.4032   -5.4127    0.0000 O   0  0  0  0  0  0  0  0  0  0  0  0
    5.9755   -7.4752    0.0000 O   0  0  0  0  0  0  0  0  0  0  0  0
   10.9768   -6.2377    0.0000 C   0  0  0  0  0  0  0  0  0  0  0  0
   11.6913   -6.6502    0.0000 C   0  0  0  0  0  0  0  0  0  0  0  0
   12.4058   -6.2377    0.0000 C   0  0  0  0  0  0  0  0  0  0  0  0
   11.6913   -7.4752    0.0000 C   0  0  0  0  0  0  0  0  0  0  0  0
   12.4058   -7.0627    0.0000 O   0  0  0  0  0  0  0  0  0  0  0  0
  1  2  1  0  0  0  0
  2  3  2  0  0  0  0
  3  4  1  0  0  0  0
  4  5  1  0  0  0  0
  5  6  1  0  0  0  0
  6  7  1  0  0  0  0
  7  8  2  0  0  0  0
  8  9  1  0  0  0  0
  9 10  2  0  0  0  0
 10 11  1  0  0  0  0
 11 12  1  0  0  0  0
  1 13  2  0  0  0  0
  1 14  1  0  0  0  0
 11 15  2  0  0  0  0
  6 16  2  0  0  0  0
 17 18  1  0  0  0  0
 18 19  1  0  0  0  0
 18 20  1  0  0  0  0
 18 21  1  0  0  0  0
 14 17  1  0  0  0  0
M  END
>  <cdx:fragmentId>
3650

$$$$
