300030.cdx
  Mrv1902 05222410262D          

 14 14  0  0  0  0            999 V2000
    7.9101   -7.9692    0.0000 C   0  0  0  0  0  0  0  0  0  0  0  0
    7.1956   -7.5567    0.0000 C   0  0  0  0  0  0  0  0  0  0  0  0
    7.1956   -6.7317    0.0000 C   0  0  0  0  0  0  0  0  0  0  0  0
    7.9101   -6.3192    0.0000 C   0  0  0  0  0  0  0  0  0  0  0  0
    8.6246   -6.7317    0.0000 C   0  0  0  0  0  0  0  0  0  0  0  0
    8.6246   -7.5567    0.0000 C   0  0  0  0  0  0  0  0  0  0  0  0
    7.9101   -8.7942    0.0000 C   0  0  0  0  0  0  0  0  0  0  0  0
    7.1956   -9.2067    0.0000 C   0  0  0  0  0  0  0  0  0  0  0  0
    6.4812   -8.7942    0.0000 C   0  0  0  0  0  0  0  0  0  0  0  0
    5.7667   -9.2067    0.0000 C   0  0  0  0  0  0  0  0  0  0  0  0
    5.7667  -10.0317    0.0000 C   0  0  0  0  0  0  0  0  0  0  0  0
    5.0522   -8.7942    0.0000 C   0  0  0  0  0  0  0  0  0  0  0  0
    8.6246   -9.2067    0.0000 O   0  0  0  0  0  0  0  0  0  0  0  0
    9.3391   -8.7942    0.0000 C   0  0  0  0  0  0  0  0  0  0  0  0
  1  2  1  0  0  0  0
  2  3  2  0  0  0  0
  3  4  1  0  0  0  0
  4  5  2  0  0  0  0
  5  6  1  0  0  0  0
  1  6  2  0  0  0  0
  7  8  1  0  0  0  0
  8  9  1  0  0  0  0
  9 10  2  0  0  0  0
 10 11  1  0  0  0  0
 10 12  1  0  0  0  0
 13 14  1  0  0  0  0
  7 13  1  0  0  0  0
  1  7  1  0  0  0  0
M  END
>  <cdx:fragmentId>
2247

$$$$
