300091.cdx
  Mrv1902 05222410232D          

 12 12  0  0  0  0            999 V2000
    6.7818   -6.1976    0.0000 C   0  0  0  0  0  0  0  0  0  0  0  0
    7.4963   -6.6101    0.0000 C   0  0  0  0  0  0  0  0  0  0  0  0
    8.2108   -6.1976    0.0000 C   0  0  0  0  0  0  0  0  0  0  0  0
    8.9252   -6.6101    0.0000 C   0  0  0  0  0  0  0  0  0  0  0  0
    9.6397   -6.1976    0.0000 C   0  0  0  0  0  0  0  0  0  0  0  0
    6.7818   -5.3726    0.0000 O   0  0  0  0  0  0  0  0  0  0  0  0
    8.9252   -7.4351    0.0000 C   0  0  0  0  0  0  0  0  0  0  0  0
    5.3137   -6.2746    0.0000 O   0  0  0  0  0  0  0  0  0  0  0  0
    6.0673   -6.6101    0.0000 C   0  0  0  0  0  0  0  0  0  0  0  0
    5.9811   -7.4306    0.0000 C   0  0  0  0  0  0  0  0  0  0  0  0
    5.1741   -7.6021    0.0000 C   0  0  0  0  0  0  0  0  0  0  0  0
    4.7616   -6.8877    0.0000 C   0  0  0  0  0  0  0  0  0  0  0  0
  1  2  1  0  0  0  0
  2  3  1  0  0  0  0
  3  4  1  0  0  0  0
  4  5  1  0  0  0  0
  1  6  2  0  0  0  0
  4  7  1  0  0  0  0
  8  9  1  0  0  0  0
  9 10  2  0  0  0  0
 10 11  1  0  0  0  0
 11 12  2  0  0  0  0
  8 12  1  0  0  0  0
  1  9  1  0  0  0  0
M  END
>  <cdx:fragmentId>
765

$$$$
