300035.cdx
  Mrv1902 05222410282D          

 16 17  0  0  0  0            999 V2000
    5.4129   -8.7862    0.0000 C   0  0  0  0  0  0  0  0  0  0  0  0
    6.1274   -8.3737    0.0000 O   0  0  0  0  0  0  0  0  0  0  0  0
    6.1274   -7.5488    0.0000 C   0  0  0  0  0  0  0  0  0  0  0  0
    5.4129   -7.1362    0.0000 C   0  0  0  0  0  0  0  0  0  0  0  0
    4.6984   -7.5488    0.0000 C   0  0  0  0  0  0  0  0  0  0  0  0
    4.6984   -8.3737    0.0000 C   0  0  0  0  0  0  0  0  0  0  0  0
    5.0717   -8.2701    0.0000 C   0  0  0  0  0  0  0  0  0  0  0  0
    5.0717   -7.6514    0.0000 C   0  0  0  0  0  0  0  0  0  0  0  0
    6.8419   -7.1362    0.0000 C   0  0  0  0  0  0  0  0  0  0  0  0
    7.5563   -7.5488    0.0000 C   0  0  0  0  0  0  0  0  0  0  0  0
    8.2708   -7.1362    0.0000 C   0  0  0  0  0  0  0  0  0  0  0  0
    8.9853   -7.5488    0.0000 C   0  0  0  0  0  0  0  0  0  0  0  0
    9.6997   -7.1362    0.0000 C   0  0  0  0  0  0  0  0  0  0  0  0
    8.9853   -8.3737    0.0000 C   0  0  0  0  0  0  0  0  0  0  0  0
    6.1274   -6.7237    0.0000 C   0  0  0  0  0  0  0  0  0  0  0  0
    5.4129   -9.6112    0.0000 C   0  0  0  0  0  0  0  0  0  0  0  0
  1  2  1  0  0  0  0
  2  3  1  0  0  0  0
  3  4  1  0  0  0  0
  4  5  1  0  0  0  0
  5  6  2  0  0  0  0
  7  8  1  0  0  0  0
  1  6  1  0  0  0  0
  1  7  1  0  0  0  0
  4  8  1  0  0  0  0
  9 10  1  0  0  0  0
 10 11  1  0  0  0  0
 11 12  2  0  0  0  0
 12 13  1  0  0  0  0
 12 14  1  0  0  0  0
  3  9  1  0  0  0  0
  3 15  1  0  0  0  0
  1 16  1  0  0  0  0
M  END
>  <cdx:fragmentId>
2477

$$$$
