300088.cdx
  Mrv1902 05222410232D          

 29 30  0  0  0  0            999 V2000
    4.6950   -6.6502    0.0000 C   0  0  0  0  0  0  0  0  0  0  0  0
    5.4095   -7.0627    0.0000 C   0  0  0  0  0  0  0  0  0  0  0  0
    6.1239   -6.6502    0.0000 C   0  0  0  0  0  0  0  0  0  0  0  0
    6.8384   -7.0627    0.0000 C   0  0  0  0  0  0  0  0  0  0  0  0
    3.9805   -7.0627    0.0000 O   0  0  0  0  0  0  0  0  0  0  0  0
    5.4095   -7.8877    0.0000 O   0  0  0  0  0  0  0  0  0  0  0  0
    6.1239   -5.8252    0.0000 O   0  0  0  0  0  0  0  0  0  0  0  0
    7.5529   -6.6502    0.0000 O   0  0  0  0  0  0  0  0  0  0  0  0
    8.2674   -7.0627    0.0000 C   0  0  0  0  0  0  0  0  0  0  0  0
    8.9818   -6.6502    0.0000 C   0  0  0  0  0  0  0  0  0  0  0  0
    9.6963   -7.0627    0.0000 C   0  0  0  0  0  0  0  0  0  0  0  0
    9.6963   -7.8877    0.0000 C   0  0  0  0  0  0  0  0  0  0  0  0
    8.9818   -8.3002    0.0000 C   0  0  0  0  0  0  0  0  0  0  0  0
    8.2674   -7.8877    0.0000 C   0  0  0  0  0  0  0  0  0  0  0  0
    7.5529   -8.3002    0.0000 C   0  0  0  0  0  0  0  0  0  0  0  0
    7.5529   -9.1252    0.0000 C   0  0  0  0  0  0  0  0  0  0  0  0
    6.8384   -9.5377    0.0000 C   0  0  0  0  0  0  0  0  0  0  0  0
    6.1239   -9.1252    0.0000 C   0  0  0  0  0  0  0  0  0  0  0  0
    6.1239   -8.3002    0.0000 C   0  0  0  0  0  0  0  0  0  0  0  0
    6.8384   -7.8877    0.0000 C   0  0  0  0  0  0  0  0  0  0  0  0
    5.4095   -9.5377    0.0000 O   0  0  0  0  0  0  0  0  0  0  0  0
    4.6950   -9.1252    0.0000 C   0  0  0  0  0  0  0  0  0  0  0  0
    3.9805   -9.5377    0.0000 O   0  0  0  0  0  0  0  0  0  0  0  0
    8.9818   -5.8252    0.0000 O   0  0  0  0  0  0  0  0  0  0  0  0
    9.6963   -5.4127    0.0000 C   0  0  0  0  0  0  0  0  0  0  0  0
    9.6963   -4.5877    0.0000 C   0  0  0  0  0  0  0  0  0  0  0  0
   10.4108   -4.1752    0.0000 C   0  0  0  0  0  0  0  0  0  0  0  0
   10.4108   -3.3502    0.0000 O   0  0  0  0  0  0  0  0  0  0  0  0
   10.4108   -5.8252    0.0000 O   0  0  0  0  0  0  0  0  0  0  0  0
  1  2  1  0  0  0  0
  2  3  1  0  0  0  0
  3  4  1  0  0  0  0
  1  5  1  0  0  0  0
  2  6  1  0  0  0  0
  3  7  1  0  0  0  0
  9 10  1  0  0  0  0
 10 11  2  0  0  0  0
 11 12  1  0  0  0  0
 12 13  2  0  0  0  0
 13 14  1  0  0  0  0
  9 14  2  0  0  0  0
  8  9  1  0  0  0  0
 15 16  1  0  0  0  0
 16 17  2  0  0  0  0
 17 18  1  0  0  0  0
 18 19  2  0  0  0  0
 19 20  1  0  0  0  0
 15 20  2  0  0  0  0
 21 22  1  0  0  0  0
 22 23  1  0  0  0  0
 18 21  1  0  0  0  0
 14 15  1  0  0  0  0
 25 26  1  0  0  0  0
 26 27  1  0  0  0  0
 24 25  1  0  0  0  0
 27 28  1  0  0  0  0
 25 29  1  0  0  0  0
 10 24  1  0  0  0  0
  4  8  1  0  0  0  0
M  END
>  <cdx:fragmentId>
640

$$$$
