300019-1.cdx
  Mrv1902 05222410262D          

 29 31  0  0  0  0            999 V2000
    7.6275   -5.9220    0.0000 C   0  0  0  0  0  0  0  0  0  0  0  0
    7.6275   -6.7470    0.0000 C   0  0  2  0  0  0  0  0  0  0  0  0
    6.9131   -7.1595    0.0000 C   0  0  1  0  0  0  0  0  0  0  0  0
    6.9131   -7.9845    0.0000 C   0  0  0  0  0  0  0  0  0  0  0  0
    6.9131   -5.5095    0.0000 O   0  0  0  0  0  0  0  0  0  0  0  0
    6.1986   -8.3970    0.0000 O   0  0  0  0  0  0  0  0  0  0  0  0
    6.1986   -6.7470    0.0000 C   0  0  0  0  0  0  0  0  0  0  0  0
    5.4841   -7.1595    0.0000 C   0  0  0  0  0  0  0  0  0  0  0  0
    4.7696   -6.7470    0.0000 C   0  0  0  0  0  0  0  0  0  0  0  0
    4.0552   -7.1595    0.0000 C   0  0  0  0  0  0  0  0  0  0  0  0
    4.0552   -7.9845    0.0000 C   0  0  0  0  0  0  0  0  0  0  0  0
    4.7696   -8.3970    0.0000 C   0  0  0  0  0  0  0  0  0  0  0  0
    5.4841   -7.9845    0.0000 C   0  0  0  0  0  0  0  0  0  0  0  0
    4.7696   -9.2220    0.0000 O   0  0  0  0  0  0  0  0  0  0  0  0
    4.0552   -9.6345    0.0000 C   0  0  0  0  0  0  0  0  0  0  0  0
    3.3407   -8.3970    0.0000 O   0  0  0  0  0  0  0  0  0  0  0  0
    2.6262   -7.9845    0.0000 C   0  0  0  0  0  0  0  0  0  0  0  0
    3.3407   -6.7470    0.0000 O   0  0  0  0  0  0  0  0  0  0  0  0
    2.6262   -7.1595    0.0000 C   0  0  0  0  0  0  0  0  0  0  0  0
    8.3420   -7.1595    0.0000 C   0  0  0  0  0  0  0  0  0  0  0  0
   11.2700   -5.6671    0.0000 O   0  0  0  0  0  0  0  0  0  0  0  0
   11.7550   -6.3345    0.0000 C   0  0  0  0  0  0  0  0  0  0  0  0
   11.2700   -7.0020    0.0000 O   0  0  0  0  0  0  0  0  0  0  0  0
   10.4854   -6.7470    0.0000 C   0  0  0  0  0  0  0  0  0  0  0  0
   10.4854   -5.9220    0.0000 C   0  0  0  0  0  0  0  0  0  0  0  0
    9.7709   -7.1595    0.0000 C   0  0  0  0  0  0  0  0  0  0  0  0
    9.0565   -6.7470    0.0000 C   0  0  0  0  0  0  0  0  0  0  0  0
    9.0565   -5.9220    0.0000 C   0  0  0  0  0  0  0  0  0  0  0  0
    9.7709   -5.5095    0.0000 C   0  0  0  0  0  0  0  0  0  0  0  0
  2  1  1  1  0  0  0
  2  3  1  0  0  0  0
  3  4  1  1  0  0  0
  1  5  1  0  0  0  0
  4  6  1  0  0  0  0
  8  9  1  0  0  0  0
  9 10  2  0  0  0  0
 10 11  1  0  0  0  0
 11 12  2  0  0  0  0
 12 13  1  0  0  0  0
  8 13  2  0  0  0  0
 14 15  1  0  0  0  0
 12 14  1  0  0  0  0
 16 17  1  0  0  0  0
 11 16  1  0  0  0  0
 18 19  1  0  0  0  0
 10 18  1  0  0  0  0
  7  8  1  0  0  0  0
  3  7  1  0  0  0  0
 21 22  1  0  0  0  0
 22 23  1  0  0  0  0
 23 24  1  0  0  0  0
 24 25  1  0  0  0  0
 21 25  1  0  0  0  0
 26 27  1  0  0  0  0
 27 28  2  0  0  0  0
 28 29  1  0  0  0  0
 25 29  2  0  0  0  0
 24 26  2  0  0  0  0
 20 27  1  0  0  0  0
  2 20  1  0  0  0  0
M  END
>  <cdx:fragmentId>
1305

$$$$
