300066.cdx
  Mrv1902 05222410212D          

 16 15  0  0  0  0            999 V2000
   11.6913  -11.7160    0.0000 C   0  0  0  0  0  0  0  0  0  0  0  0
   10.9768  -11.3035    0.0000 C   0  0  0  0  0  0  0  0  0  0  0  0
   10.2624  -11.7160    0.0000 C   0  0  0  0  0  0  0  0  0  0  0  0
    9.5479  -11.3035    0.0000 C   0  0  0  0  0  0  0  0  0  0  0  0
    8.8334  -11.7160    0.0000 C   0  0  0  0  0  0  0  0  0  0  0  0
    8.1189  -12.1285    0.0000 C   0  0  0  0  0  0  0  0  0  0  0  0
    7.4045  -12.5410    0.0000 C   0  0  0  0  0  0  0  0  0  0  0  0
    6.6900  -12.1285    0.0000 C   0  0  0  0  0  0  0  0  0  0  0  0
    5.9755  -12.5410    0.0000 C   0  0  0  0  0  0  0  0  0  0  0  0
    5.2611  -12.1285    0.0000 C   0  0  0  0  0  0  0  0  0  0  0  0
    4.5466  -12.5410    0.0000 C   0  0  0  0  0  0  0  0  0  0  0  0
    3.8321  -12.1285    0.0000 C   0  0  0  0  0  0  0  0  0  0  0  0
    3.1176  -12.5410    0.0000 C   0  0  0  0  0  0  0  0  0  0  0  0
    2.4032  -12.1285    0.0000 C   0  0  0  0  0  0  0  0  0  0  0  0
    1.6887  -12.5410    0.0000 C   0  0  0  0  0  0  0  0  0  0  0  0
   12.4058  -11.3035    0.0000 O   0  0  0  0  0  0  0  0  0  0  0  0
  1  2  1  0  0  0  0
  2  3  1  0  0  0  0
  3  4  1  0  0  0  0
  4  5  1  0  0  0  0
  5  6  3  0  0  0  0
  6  7  1  0  0  0  0
  7  8  1  0  0  0  0
  8  9  1  0  0  0  0
  9 10  1  0  0  0  0
 10 11  2  0  0  0  0
 11 12  1  0  0  0  0
 12 13  1  0  0  0  0
 13 14  1  0  0  0  0
 14 15  1  0  0  0  0
  1 16  1  0  0  0  0
M  END
>  <cdx:fragmentId>
4974

$$$$
