300136.cdx
  Mrv1902 05222410262D          

 10 10  0  0  0  0            999 V2000
    7.5740   -6.6560    0.0000 C   0  0  0  0  0  0  0  0  0  0  0  0
    6.9114   -7.1475    0.0000 C   0  0  0  0  0  0  0  0  0  0  0  0
    7.1741   -7.9296    0.0000 C   0  0  0  0  0  0  0  0  0  0  0  0
    7.9991   -7.9214    0.0000 C   0  0  0  0  0  0  0  0  0  0  0  0
    8.2462   -7.1342    0.0000 C   0  0  0  0  0  0  0  0  0  0  0  0
    7.1544   -5.9456    0.0000 C   0  0  0  0  0  0  0  0  0  0  0  0
    6.3294   -5.9538    0.0000 O   0  0  0  0  0  0  0  0  0  0  0  0
    7.5598   -5.2271    0.0000 O   0  0  0  0  0  0  0  0  0  0  0  0
    6.1243   -6.9004    0.0000 C   0  0  0  0  0  0  0  0  0  0  0  0
    7.9793   -5.9374    0.0000 C   0  0  0  0  0  0  0  0  0  0  0  0
  1  2  1  0  0  0  0
  2  3  2  0  0  0  0
  3  4  1  0  0  0  0
  4  5  1  0  0  0  0
  1  5  1  0  0  0  0
  6  7  2  0  0  0  0
  6  8  1  0  0  0  0
  1  6  1  0  0  0  0
  2  9  1  0  0  0  0
  1 10  1  0  0  0  0
M  END
>  <cdx:fragmentId>
3127

$$$$
