300117.cdx
  Mrv1902 05222410232D          

  3  2  0  0  0  0            999 V2000
    6.8519   -7.9681    0.0000 C   0  0  0  0  0  0  0  0  0  0  0  0
    7.5664   -8.3806    0.0000 C   0  0  0  0  0  0  0  0  0  0  0  0
    6.1374   -8.3806    0.0000 C   0  0  0  0  0  0  0  0  0  0  0  0
  1  2  2  0  0  0  0
  1  3  1  0  0  0  0
M  RAD  1   1   2
M  END
>  <cdx:fragmentId>
5

$$$$
