30011.cdx
  Mrv1902 05222410262D          

 32 33  0  0  0  0            999 V2000
    2.4868  -10.0501    0.0000 O   0  0  0  0  0  0  0  0  0  0  0  0
    3.9157  -10.8751    0.0000 C   0  0  0  0  0  0  0  0  0  0  0  0
    3.9157  -10.0501    0.0000 C   0  0  0  0  0  0  0  0  0  0  0  0
    3.2013   -9.6376    0.0000 C   0  0  0  0  0  0  0  0  0  0  0  0
    5.3447  -10.0501    0.0000 O   0  0  0  0  0  0  0  0  0  0  0  0
    4.6302   -9.6376    0.0000 C   0  0  0  0  0  0  0  0  0  0  0  0
    6.0592  -11.2876    0.0000 O   0  0  0  0  0  0  0  0  0  0  0  0
    6.7736  -10.8751    0.0000 C   0  0  2  0  0  0  0  0  0  0  0  0
    6.7736  -10.0501    0.0000 C   0  0  1  0  0  0  0  0  0  0  0  0
    6.0592   -9.6376    0.0000 C   0  0  0  0  0  0  0  0  0  0  0  0
    7.4881  -11.2876    0.0000 C   0  0  1  0  0  0  0  0  0  0  0  0
    8.2026  -10.8751    0.0000 C   0  0  2  0  0  0  0  0  0  0  0  0
    8.2026  -10.0501    0.0000 C   0  0  1  0  0  0  0  0  0  0  0  0
    7.4881   -9.6376    0.0000 O   0  0  0  0  0  0  0  0  0  0  0  0
    8.9170   -9.6376    0.0000 O   0  0  0  0  0  0  0  0  0  0  0  0
    8.9170   -8.8126    0.0000 C   0  0  0  0  0  0  0  0  0  0  0  0
    8.2026   -8.4001    0.0000 C   0  0  0  0  0  0  0  0  0  0  0  0
    9.6315   -8.4001    0.0000 C   0  0  0  0  0  0  0  0  0  0  0  0
    9.6315   -7.5751    0.0000 C   0  0  0  0  0  0  0  0  0  0  0  0
    8.9170   -7.1626    0.0000 C   0  0  0  0  0  0  0  0  0  0  0  0
    8.2026   -7.5751    0.0000 C   0  0  0  0  0  0  0  0  0  0  0  0
    9.9885   -6.1314    0.0000 H   0  0  0  0  0  0  0  0  0  0  0  0
    9.6315   -5.9251    0.0000 C   0  0  0  0  0  0  0  0  0  0  0  0
    8.9170   -6.3376    0.0000 C   0  0  0  0  0  0  0  0  0  0  0  0
   10.3460   -4.6876    0.0000 O   0  0  0  0  0  0  0  0  0  0  0  0
    9.6315   -5.1001    0.0000 C   0  0  0  0  0  0  0  0  0  0  0  0
    4.6302   -8.8126    0.0000 O   0  0  0  0  0  0  0  0  0  0  0  0
   10.3460   -8.8126    0.0000 O   0  0  0  0  0  0  0  0  0  0  0  0
   11.0605   -8.4001    0.0000 C   0  0  0  0  0  0  0  0  0  0  0  0
    8.5876   -6.1726    0.0000 H   0  0  0  0  0  0  0  0  0  0  0  0
    7.4881  -12.1126    0.0000 O   0  0  0  0  0  0  0  0  0  0  0  0
    8.9170  -11.2876    0.0000 O   0  0  0  0  0  0  0  0  0  0  0  0
  2  3  1  0  0  0  0
  3  4  1  0  0  0  0
  4  1  1  0  0  0  0
  5  6  1  0  0  0  0
  6  3  1  0  0  0  0
  8  7  1  6  0  0  0
  8  9  1  0  0  0  0
  9 10  1  1  0  0  0
 10  5  1  0  0  0  0
  8 11  1  0  0  0  0
 11 12  1  0  0  0  0
 12 13  1  0  0  0  0
 13 14  1  0  0  0  0
 14  9  1  0  0  0  0
 13 15  1  1  0  0  0
 15 16  1  0  0  0  0
 16 17  1  0  0  0  0
 16 18  2  0  0  0  0
 18 19  1  0  0  0  0
 19 20  2  0  0  0  0
 20 21  1  0  0  0  0
 21 17  2  0  0  0  0
 22 23  1  0  0  0  0
 23 24  2  0  0  0  0
 24 20  1  0  0  0  0
 25 26  1  0  0  0  0
 26 23  1  0  0  0  0
  6 27  2  0  0  0  0
 18 28  1  0  0  0  0
 28 29  1  0  0  0  0
 24 30  1  0  0  0  0
 11 31  1  1  0  0  0
 12 32  1  6  0  0  0
M  END
>  <cdx:fragmentId>
5

$$$$
