300197.cdx
  Mrv1902 05222410282D          

 39 44  0  0  0  0            999 V2000
    3.8009   -8.0754    0.0000 C   0  0  0  0  0  0  0  0  0  0  0  0
    3.0864   -7.6629    0.0000 C   0  0  0  0  0  0  0  0  0  0  0  0
    2.3720   -8.0754    0.0000 C   0  0  0  0  0  0  0  0  0  0  0  0
    1.6575   -7.6629    0.0000 C   0  0  0  0  0  0  0  0  0  0  0  0
    1.6575   -6.8379    0.0000 C   0  0  0  0  0  0  0  0  0  0  0  0
    2.3720   -6.4254    0.0000 C   0  0  0  0  0  0  0  0  0  0  0  0
    3.0864   -6.8379    0.0000 C   0  0  0  0  0  0  0  0  0  0  0  0
    3.8009   -8.9004    0.0000 O   0  0  0  0  0  0  0  0  0  0  0  0
    4.5154   -7.6629    0.0000 O   0  0  0  0  0  0  0  0  0  0  0  0
    6.3730   -9.5604    0.0000 C   0  0  2  0  0  0  0  0  0  0  0  0
    7.0875   -9.9729    0.0000 O   0  0  0  0  0  0  0  0  0  0  0  0
    7.0875   -9.1479    0.0000 C   0  0  1  0  0  0  0  0  0  0  0  0
    7.8721   -9.4028    0.0000 C   0  0  0  0  0  0  0  0  0  0  0  0
    8.3570   -8.7354    0.0000 C   0  0  0  0  0  0  0  0  0  0  0  0
    7.8721   -8.0679    0.0000 C   0  0  2  0  0  0  0  0  0  0  0  0
    7.0875   -8.3229    0.0000 C   0  0  1  0  0  0  0  0  0  0  0  0
    6.3730   -7.9104    0.0000 C   0  0  1  0  0  0  0  0  0  0  0  0
    5.6585   -8.3229    0.0000 C   0  0  2  0  0  0  0  0  0  0  0  0
    5.6585   -9.1479    0.0000 C   0  0  2  0  0  0  0  0  0  0  0  0
    4.9441   -9.5604    0.0000 C   0  0  1  0  0  0  0  0  0  0  0  0
    4.2296   -9.1479    0.0000 C   0  0  0  0  0  0  0  0  0  0  0  0
    3.5151   -9.5604    0.0000 C   0  0  0  0  0  0  0  0  0  0  0  0
    3.5151  -10.3854    0.0000 C   0  0  1  0  0  0  0  0  0  0  0  0
    4.2296  -10.7979    0.0000 C   0  0  0  0  0  0  0  0  0  0  0  0
    4.9441  -10.3854    0.0000 C   0  0  2  0  0  0  0  0  0  0  0  0
    5.6585  -10.7979    0.0000 C   0  0  0  0  0  0  0  0  0  0  0  0
    6.3730  -10.3854    0.0000 C   0  0  0  0  0  0  0  0  0  0  0  0
    4.9441   -8.7354    0.0000 C   0  0  0  0  0  0  0  0  0  0  0  0
    7.1737   -7.5024    0.0000 C   0  0  0  0  0  0  0  0  0  0  0  0
    2.8007  -10.7979    0.0000 O   0  0  0  0  0  0  0  0  0  0  0  0
    6.3730   -7.0854    0.0000 O   0  0  0  0  0  0  0  0  0  0  0  0
    5.6585   -6.6729    0.0000 C   0  0  0  0  0  0  0  0  0  0  0  0
    5.6585   -5.8479    0.0000 O   0  0  0  0  0  0  0  0  0  0  0  0
    4.9441   -7.0854    0.0000 C   0  0  0  0  0  0  0  0  0  0  0  0
    8.1270   -7.2833    0.0000 C   0  0  0  0  0  0  0  0  0  0  0  0
    7.5437   -6.7000    0.0000 O   0  0  0  0  0  0  0  0  0  0  0  0
    8.9340   -7.1118    0.0000 C   0  0  0  0  0  0  0  0  0  0  0  0
    5.6585   -9.9729    0.0000 H   0  0  0  0  0  0  0  0  0  0  0  0
    4.9441  -11.2104    0.0000 H   0  0  0  0  0  0  0  0  0  0  0  0
  1  2  1  0  0  0  0
  2  3  1  0  0  0  0
  3  4  2  0  0  0  0
  4  5  1  0  0  0  0
  5  6  2  0  0  0  0
  6  7  1  0  0  0  0
  2  7  2  0  0  0  0
  1  8  2  0  0  0  0
  1  9  1  0  0  0  0
 10 11  1  1  0  0  0
 12 11  1  1  0  0  0
 12 13  1  0  0  0  0
 13 14  1  0  0  0  0
 14 15  1  0  0  0  0
 15 16  1  0  0  0  0
 16 17  1  0  0  0  0
 17 18  1  0  0  0  0
 18 19  1  0  0  0  0
 19 20  1  0  0  0  0
 20 21  1  0  0  0  0
 21 22  1  0  0  0  0
 22 23  1  0  0  0  0
 23 24  1  0  0  0  0
 24 25  1  0  0  0  0
 25 26  1  0  0  0  0
 26 27  1  0  0  0  0
 10 27  1  0  0  0  0
 10 19  1  0  0  0  0
 10 12  1  0  0  0  0
 12 16  1  0  0  0  0
 20 25  1  0  0  0  0
 20 28  1  1  0  0  0
 16 29  1  1  0  0  0
 23 30  1  1  0  0  0
 32 33  2  0  0  0  0
 32 34  1  0  0  0  0
 31 32  1  0  0  0  0
 17 31  1  1  0  0  0
 35 36  2  0  0  0  0
 35 37  1  0  0  0  0
 15 35  1  6  0  0  0
 18  9  1  6  0  0  0
 19 38  1  6  0  0  0
 25 39  1  6  0  0  0
M  END
>  <cdx:fragmentId>
1249

$$$$
