300147.cdx
  Mrv1902 05222410272D          

 12 12  0  0  0  0            999 V2000
    5.6362   -8.0640    0.0000 C   0  0  0  0  0  0  0  0  0  0  0  0
    6.3001   -7.5742    0.0000 C   0  0  0  0  0  0  0  0  0  0  0  0
    6.9710   -8.0543    0.0000 C   0  0  0  0  0  0  0  0  0  0  0  0
    6.7218   -8.8408    0.0000 C   0  0  0  0  0  0  0  0  0  0  0  0
    5.8968   -8.8468    0.0000 C   0  0  0  0  0  0  0  0  0  0  0  0
    4.8497   -7.8148    0.0000 O   0  0  0  0  0  0  0  0  0  0  0  0
    6.2941   -6.7493    0.0000 O   0  0  0  0  0  0  0  0  0  0  0  0
    7.2116   -9.5046    0.0000 O   0  0  0  0  0  0  0  0  0  0  0  0
    7.7538   -7.7937    0.0000 C   0  0  0  0  0  0  0  0  0  0  0  0
    8.3709   -8.3412    0.0000 C   0  0  0  0  0  0  0  0  0  0  0  0
    9.1536   -8.0806    0.0000 C   0  0  0  0  0  0  0  0  0  0  0  0
    9.7707   -8.6281    0.0000 C   0  0  0  0  0  0  0  0  0  0  0  0
  1  2  1  0  0  0  0
  2  3  1  0  0  0  0
  3  4  1  0  0  0  0
  4  5  1  0  0  0  0
  1  5  1  0  0  0  0
  1  6  2  0  0  0  0
  2  7  2  0  0  0  0
  4  8  2  0  0  0  0
  9 10  1  0  0  0  0
 10 11  1  0  0  0  0
 11 12  1  0  0  0  0
  3  9  1  0  0  0  0
M  END
>  <cdx:fragmentId>
5

$$$$
