300150.cdx
  Mrv1902 05222410262D          

 14 14  0  0  0  0            999 V2000
    6.2465   -6.9530    0.0000 C   0  0  0  0  0  0  0  0  0  0  0  0
    6.9609   -6.5405    0.0000 C   0  0  0  0  0  0  0  0  0  0  0  0
    7.6754   -6.9530    0.0000 C   0  0  0  0  0  0  0  0  0  0  0  0
    7.6754   -7.7780    0.0000 C   0  0  0  0  0  0  0  0  0  0  0  0
    6.9609   -8.1905    0.0000 C   0  0  0  0  0  0  0  0  0  0  0  0
    6.2465   -7.7780    0.0000 C   0  0  0  0  0  0  0  0  0  0  0  0
    8.3899   -6.5405    0.0000 C   0  0  0  0  0  0  0  0  0  0  0  0
    7.9774   -5.8260    0.0000 C   0  0  0  0  0  0  0  0  0  0  0  0
    9.1044   -6.1280    0.0000 C   0  0  0  0  0  0  0  0  0  0  0  0
    8.8024   -7.2550    0.0000 C   0  0  0  0  0  0  0  0  0  0  0  0
    5.5320   -6.5405    0.0000 C   0  0  0  0  0  0  0  0  0  0  0  0
    4.8175   -6.1280    0.0000 C   0  0  0  0  0  0  0  0  0  0  0  0
    5.9445   -5.8260    0.0000 C   0  0  0  0  0  0  0  0  0  0  0  0
    5.1195   -7.2550    0.0000 C   0  0  0  0  0  0  0  0  0  0  0  0
  1  2  1  0  0  0  0
  2  3  2  0  0  0  0
  3  4  1  0  0  0  0
  4  5  2  0  0  0  0
  5  6  1  0  0  0  0
  1  6  2  0  0  0  0
  7  8  1  0  0  0  0
  7 10  1  0  0  0  0
  7  9  1  0  0  0  0
  3  7  1  0  0  0  0
 11 12  1  0  0  0  0
 11 14  1  0  0  0  0
 11 13  1  0  0  0  0
  1 11  1  0  0  0  0
M  END
>  <cdx:fragmentId>
3887

$$$$
