300176.cdx
  Mrv1902 05222410192D          

 38 41  0  0  0  0            999 V2000
    5.4993   -7.7347    0.0000 C   0  0  1  0  0  0  0  0  0  0  0  0
    6.2138   -7.3222    0.0000 C   0  0  1  0  0  0  0  0  0  0  0  0
    6.2138   -6.4972    0.0000 C   0  0  1  0  0  0  0  0  0  0  0  0
    5.4993   -6.0847    0.0000 C   0  0  0  0  0  0  0  0  0  0  0  0
    4.7849   -6.4972    0.0000 C   0  0  0  0  0  0  0  0  0  0  0  0
    4.7849   -7.3222    0.0000 O   0  0  0  0  0  0  0  0  0  0  0  0
    6.9984   -6.2423    0.0000 C   0  0  1  0  0  0  0  0  0  0  0  0
    7.4834   -6.9097    0.0000 C   0  0  0  0  0  0  0  0  0  0  0  0
    6.9984   -7.5772    0.0000 C   0  0  0  0  0  0  0  0  0  0  0  0
    5.4993   -5.2597    0.0000 C   0  0  0  0  0  0  0  0  0  0  0  0
    6.2138   -4.8472    0.0000 O   0  0  0  0  0  0  0  0  0  0  0  0
    4.7849   -4.8472    0.0000 O   0  0  0  0  0  0  0  0  0  0  0  0
    5.4993   -8.5597    0.0000 O   0  0  0  0  0  0  0  0  0  0  0  0
    4.0704   -8.5597    0.0000 O   0  0  0  0  0  0  0  0  0  0  0  0
    4.7849   -8.9722    0.0000 C   0  0  2  0  0  0  0  0  0  0  0  0
    4.7849   -9.7972    0.0000 C   0  0  1  0  0  0  0  0  0  0  0  0
    4.0704  -10.2097    0.0000 C   0  0  2  0  0  0  0  0  0  0  0  0
    3.3559   -9.7972    0.0000 C   0  0  1  0  0  0  0  0  0  0  0  0
    3.3559   -8.9722    0.0000 C   0  0  1  0  0  0  0  0  0  0  0  0
    2.6415   -8.5597    0.0000 C   0  0  0  0  0  0  0  0  0  0  0  0
    1.9270   -8.9722    0.0000 O   0  0  0  0  0  0  0  0  0  0  0  0
    2.6415  -10.2097    0.0000 O   0  0  0  0  0  0  0  0  0  0  0  0
    4.0704  -11.0347    0.0000 O   0  0  0  0  0  0  0  0  0  0  0  0
    5.4993  -10.2097    0.0000 O   0  0  0  0  0  0  0  0  0  0  0  0
    7.2534   -5.4577    0.0000 O   0  0  0  0  0  0  0  0  0  0  0  0
    7.2534   -8.3618    0.0000 C   0  0  0  0  0  0  0  0  0  0  0  0
    8.0603   -8.5333    0.0000 O   0  0  0  0  0  0  0  0  0  0  0  0
    8.3153   -9.3179    0.0000 C   0  0  0  0  0  0  0  0  0  0  0  0
    9.1222   -9.4895    0.0000 C   0  0  0  0  0  0  0  0  0  0  0  0
    9.6743   -8.8764    0.0000 C   0  0  0  0  0  0  0  0  0  0  0  0
   10.4813   -9.0479    0.0000 C   0  0  0  0  0  0  0  0  0  0  0  0
   10.7362   -9.8325    0.0000 C   0  0  0  0  0  0  0  0  0  0  0  0
   10.1842  -10.4456    0.0000 C   0  0  0  0  0  0  0  0  0  0  0  0
    9.3772  -10.2741    0.0000 C   0  0  0  0  0  0  0  0  0  0  0  0
    7.7632   -9.9310    0.0000 O   0  0  0  0  0  0  0  0  0  0  0  0
    6.3000   -5.6767    0.0000 H   0  0  0  0  0  0  0  0  0  0  0  0
    6.3000   -8.1427    0.0000 H   0  0  0  0  0  0  0  0  0  0  0  0
    4.7849   -4.0222    0.0000 C   0  0  0  0  0  0  0  0  0  0  0  0
  1  2  1  0  0  0  0
  2  3  1  0  0  0  0
  3  4  1  0  0  0  0
  4  5  2  0  0  0  0
  5  6  1  0  0  0  0
  1  6  1  0  0  0  0
  7  8  1  0  0  0  0
  8  9  2  0  0  0  0
  2  9  1  0  0  0  0
  3  7  1  0  0  0  0
 10 11  2  0  0  0  0
 10 12  1  0  0  0  0
  4 10  1  0  0  0  0
 14 15  1  0  0  0  0
 15 16  1  0  0  0  0
 16 17  1  0  0  0  0
 17 18  1  0  0  0  0
 18 19  1  0  0  0  0
 14 19  1  0  0  0  0
 20 21  1  0  0  0  0
 19 20  1  1  0  0  0
 18 22  1  6  0  0  0
 17 23  1  1  0  0  0
 16 24  1  6  0  0  0
 15 13  1  1  0  0  0
  1 13  1  6  0  0  0
  7 25  1  6  0  0  0
 28 29  1  0  0  0  0
 29 30  1  0  0  0  0
 30 31  2  0  0  0  0
 31 32  1  0  0  0  0
 32 33  2  0  0  0  0
 33 34  1  0  0  0  0
 29 34  2  0  0  0  0
 28 35  2  0  0  0  0
 27 28  1  0  0  0  0
 26 27  1  0  0  0  0
  9 26  1  0  0  0  0
  3 36  1  6  0  0  0
  2 37  1  6  0  0  0
 12 38  1  0  0  0  0
M  END
>  <cdx:fragmentId>
5386

$$$$
