300139.cdx
  Mrv1902 05222410212D          

  7  8  0  0  0  0            999 V2000
    7.5069   -6.8578    0.0000 C   0  0  0  0  0  0  0  0  0  0  0  0
    6.7924   -7.2703    0.0000 C   0  0  0  0  0  0  0  0  0  0  0  0
    6.0780   -6.8578    0.0000 C   0  0  0  0  0  0  0  0  0  0  0  0
    6.0780   -6.0328    0.0000 C   0  0  0  0  0  0  0  0  0  0  0  0
    6.7924   -5.6203    0.0000 C   0  0  0  0  0  0  0  0  0  0  0  0
    7.5069   -6.0328    0.0000 C   0  0  0  0  0  0  0  0  0  0  0  0
    8.2214   -6.4453    0.0000 O   0  0  0  0  0  0  0  0  0  0  0  0
  1  2  1  0  0  0  0
  2  3  1  0  0  0  0
  3  4  1  0  0  0  0
  4  5  1  0  0  0  0
  5  6  1  0  0  0  0
  6  7  1  0  0  0  0
  1  7  1  0  0  0  0
  1  6  1  0  0  0  0
M  END
>  <cdx:fragmentId>
3220

$$$$
