300161.cdx
  Mrv1902 05222410202D          

 16 17  0  0  0  0            999 V2000
    6.3688   -6.0328    0.0000 C   0  0  0  0  0  0  0  0  0  0  0  0
    6.3688   -6.8578    0.0000 C   0  0  0  0  0  0  0  0  0  0  0  0
    7.0138   -7.3722    0.0000 C   0  0  0  0  0  0  0  0  0  0  0  0
    7.8182   -7.1886    0.0000 C   0  0  0  0  0  0  0  0  0  0  0  0
    8.1761   -6.4453    0.0000 C   0  0  0  0  0  0  0  0  0  0  0  0
    7.8182   -5.7020    0.0000 C   0  0  0  0  0  0  0  0  0  0  0  0
    7.0138   -5.5184    0.0000 C   0  0  0  0  0  0  0  0  0  0  0  0
    5.6544   -7.2703    0.0000 C   0  0  0  0  0  0  0  0  0  0  0  0
    4.9399   -6.8578    0.0000 C   0  0  0  0  0  0  0  0  0  0  0  0
    4.9399   -6.0328    0.0000 C   0  0  0  0  0  0  0  0  0  0  0  0
    5.6544   -5.6203    0.0000 C   0  0  0  0  0  0  0  0  0  0  0  0
    6.8303   -4.7141    0.0000 O   0  0  0  0  0  0  0  0  0  0  0  0
    5.6544   -4.7953    0.0000 O   0  0  0  0  0  0  0  0  0  0  0  0
    4.9399   -4.3828    0.0000 C   0  0  0  0  0  0  0  0  0  0  0  0
    5.6544   -8.0953    0.0000 O   0  0  0  0  0  0  0  0  0  0  0  0
    4.9399   -8.5078    0.0000 C   0  0  0  0  0  0  0  0  0  0  0  0
  1  2  1  0  0  0  0
  2  3  1  0  0  0  0
  3  4  1  0  0  0  0
  4  5  1  0  0  0  0
  5  6  1  0  0  0  0
  6  7  1  0  0  0  0
  1  7  1  0  0  0  0
  8  9  1  0  0  0  0
  9 10  2  0  0  0  0
 10 11  1  0  0  0  0
  1 11  2  0  0  0  0
  2  8  2  0  0  0  0
  7 12  2  0  0  0  0
 13 14  1  0  0  0  0
 11 13  1  0  0  0  0
 15 16  1  0  0  0  0
  8 15  1  0  0  0  0
M  END
>  <cdx:fragmentId>
4493

$$$$
