30013.cdx
  Mrv1902 05222410242D          

 11 11  0  0  0  0            999 V2000
    6.5981   -8.2214    0.0000 C   0  0  0  0  0  0  0  0  0  0  0  0
    6.5981   -9.0464    0.0000 C   0  0  2  0  0  0  0  0  0  0  0  0
    7.3125   -9.4589    0.0000 O   0  0  0  0  0  0  0  0  0  0  0  0
    8.0270   -9.0464    0.0000 C   0  0  0  0  0  0  0  0  0  0  0  0
    8.0270   -8.2214    0.0000 C   0  0  0  0  0  0  0  0  0  0  0  0
    7.3125   -7.8089    0.0000 C   0  0  2  0  0  0  0  0  0  0  0  0
    5.8836   -9.4589    0.0000 C   0  0  0  0  0  0  0  0  0  0  0  0
    5.8836  -10.2839    0.0000 C   0  0  0  0  0  0  0  0  0  0  0  0
    5.1691  -10.6964    0.0000 C   0  0  0  0  0  0  0  0  0  0  0  0
    7.3125   -6.9839    0.0000 C   0  0  0  0  0  0  0  0  0  0  0  0
    6.5981  -10.6964    0.0000 C   0  0  0  0  0  0  0  0  0  0  0  0
  1  2  1  0  0  0  0
  2  3  1  0  0  0  0
  3  4  1  0  0  0  0
  4  5  1  0  0  0  0
  5  6  1  0  0  0  0
  6  1  1  0  0  0  0
  2  7  1  6  0  0  0
  7  8  2  0  0  0  0
  8  9  1  0  0  0  0
  6 10  1  1  0  0  0
  8 11  1  0  0  0  0
M  END
>  <cdx:fragmentId>
5

$$$$
