300134.cdx
  Mrv1902 05222410242D          

  5  5  0  0  0  0            999 V2000
    7.6081   -6.6041    0.0000 C   0  0  0  0  0  0  0  0  0  0  0  0
    6.7831   -6.6041    0.0000 C   0  0  0  0  0  0  0  0  0  0  0  0
    7.1956   -5.8896    0.0000 C   0  0  0  0  0  0  0  0  0  0  0  0
    6.0687   -7.0166    0.0000 C   0  0  0  0  0  0  0  0  0  0  0  0
    8.3226   -7.0166    0.0000 C   0  0  0  0  0  0  0  0  0  0  0  0
  1  2  2  0  0  0  0
  2  3  1  0  0  0  0
  1  3  1  0  0  0  0
  2  4  1  0  0  0  0
  1  5  1  0  0  0  0
M  END
>  <cdx:fragmentId>
3077

$$$$
