300146.cdx
  Mrv1902 05222410262D          

 29 29  0  0  0  0            999 V2000
    1.5955   -3.5475    0.0000 C   0  0  0  0  0  0  0  0  0  0  0  0
    1.5955   -4.3725    0.0000 C   0  0  0  0  0  0  0  0  0  0  0  0
    2.3100   -4.7850    0.0000 C   0  0  0  0  0  0  0  0  0  0  0  0
    3.0245   -4.3725    0.0000 C   0  0  0  0  0  0  0  0  0  0  0  0
    3.0245   -3.5475    0.0000 C   0  0  0  0  0  0  0  0  0  0  0  0
    2.3100   -3.1350    0.0000 C   0  0  0  0  0  0  0  0  0  0  0  0
    2.3100   -2.3100    0.0000 C   0  0  0  0  0  0  0  0  0  0  0  0
    2.8934   -1.7266    0.0000 O   0  0  0  0  0  0  0  0  0  0  0  0
    1.5131   -2.0965    0.0000 C   0  0  0  0  0  0  0  0  0  0  0  0
    0.7986   -3.3340    0.0000 C   0  0  0  0  0  0  0  0  0  0  0  0
    0.3861   -4.0484    0.0000 O   0  0  0  0  0  0  0  0  0  0  0  0
    0.5851   -2.5371    0.0000 C   0  0  0  0  0  0  0  0  0  0  0  0
    3.6078   -1.3141    0.0000 C   0  0  0  0  0  0  0  0  0  0  0  0
    0.5997   -4.8453    0.0000 C   0  0  0  0  0  0  0  0  0  0  0  0
    3.7389   -4.7850    0.0000 C   0  0  0  0  0  0  0  0  0  0  0  0
    3.7389   -5.6100    0.0000 O   0  0  0  0  0  0  0  0  0  0  0  0
    4.5639   -4.7850    0.0000 O   0  0  0  0  0  0  0  0  0  0  0  0
    4.4534   -6.0225    0.0000 C   0  0  0  0  0  0  0  0  0  0  0  0
    4.2399   -6.8194    0.0000 C   0  0  0  0  0  0  0  0  0  0  0  0
    4.9544   -7.2319    0.0000 C   0  0  0  0  0  0  0  0  0  0  0  0
    4.7408   -8.0288    0.0000 C   0  0  0  0  0  0  0  0  0  0  0  0
    5.4553   -8.4413    0.0000 C   0  0  0  0  0  0  0  0  0  0  0  0
    5.2418   -9.2382    0.0000 C   0  0  0  0  0  0  0  0  0  0  0  0
    5.8251   -9.8215    0.0000 C   0  0  0  0  0  0  0  0  0  0  0  0
    5.6116  -10.6184    0.0000 C   0  0  0  0  0  0  0  0  0  0  0  0
    6.3261  -11.0309    0.0000 C   0  0  0  0  0  0  0  0  0  0  0  0
    6.1126  -11.8278    0.0000 C   0  0  0  0  0  0  0  0  0  0  0  0
    6.8270  -12.2403    0.0000 C   0  0  0  0  0  0  0  0  0  0  0  0
    6.4145  -12.9548    0.0000 C   0  0  0  0  0  0  0  0  0  0  0  0
  1  2  2  0  0  0  0
  2  3  1  0  0  0  0
  3  4  2  0  0  0  0
  4  5  1  0  0  0  0
  5  6  2  0  0  0  0
  6  1  1  0  0  0  0
  6  7  1  0  0  0  0
  7  8  1  0  0  0  0
  7  9  2  0  0  0  0
  1 10  1  0  0  0  0
 10 11  1  0  0  0  0
 10 12  2  0  0  0  0
  8 13  1  0  0  0  0
 11 14  1  0  0  0  0
  4 15  1  0  0  0  0
 15 16  1  0  0  0  0
 15 17  2  0  0  0  0
 16 18  1  0  0  0  0
 18 19  1  0  0  0  0
 19 20  1  0  0  0  0
 20 21  1  0  0  0  0
 21 22  1  0  0  0  0
 22 23  1  0  0  0  0
 23 24  1  0  0  0  0
 24 25  1  0  0  0  0
 25 26  1  0  0  0  0
 26 27  1  0  0  0  0
 27 28  1  0  0  0  0
 28 29  1  0  0  0  0
M  END
>  <cdx:fragmentId>
3584

$$$$
