300128.cdx
  Mrv1902 05222410222D          

 12 11  0  0  0  0            999 V2000
    8.6246   -6.6003    0.0000 Si  0  0  0  0  0  0  0  0  0  0  0  0
    7.9101   -7.0128    0.0000 O   0  0  0  0  0  0  0  0  0  0  0  0
    7.1956   -6.6003    0.0000 Si  0  0  0  0  0  0  0  0  0  0  0  0
    6.4812   -7.0128    0.0000 O   0  0  0  0  0  0  0  0  0  0  0  0
    5.7667   -6.6003    0.0000 Si  0  0  0  0  0  0  0  0  0  0  0  0
    5.0522   -7.0128    0.0000 C   0  0  0  0  0  0  0  0  0  0  0  0
    5.7667   -5.7753    0.0000 C   0  0  0  0  0  0  0  0  0  0  0  0
    5.0522   -6.1878    0.0000 C   0  0  0  0  0  0  0  0  0  0  0  0
    7.1956   -5.7753    0.0000 C   0  0  0  0  0  0  0  0  0  0  0  0
    9.3391   -6.1878    0.0000 C   0  0  0  0  0  0  0  0  0  0  0  0
    8.6246   -5.7753    0.0000 C   0  0  0  0  0  0  0  0  0  0  0  0
    9.3391   -7.0128    0.0000 C   0  0  0  0  0  0  0  0  0  0  0  0
  5  6  1  0  0  0  0
  5  7  1  0  0  0  0
  5  8  1  0  0  0  0
  4  5  1  0  0  0  0
  3  4  1  0  0  0  0
  3  9  1  0  0  0  0
  2  3  1  0  0  0  0
  1  2  1  0  0  0  0
  1 10  1  0  0  0  0
  1 11  1  0  0  0  0
  1 12  1  0  0  0  0
M  END
>  <cdx:fragmentId>
2667

$$$$
