300126.cdx
  Mrv1902 05222410232D          

 10  9  0  0  0  0            999 V2000
    8.2674   -6.6502    0.0000 C   0  0  0  0  0  0  0  0  0  0  0  0
    8.9818   -6.2377    0.0000 C   0  0  0  0  0  0  0  0  0  0  0  0
    9.6963   -6.6502    0.0000 C   0  0  0  0  0  0  0  0  0  0  0  0
   10.4108   -6.2377    0.0000 C   0  0  0  0  0  0  0  0  0  0  0  0
    6.8384   -6.6502    0.0000 S   0  0  0  0  0  0  0  0  0  0  0  0
    7.5529   -6.2377    0.0000 S   0  0  0  0  0  0  0  0  0  0  0  0
    6.1239   -6.2377    0.0000 C   0  0  0  0  0  0  0  0  0  0  0  0
    5.4095   -6.6502    0.0000 C   0  0  0  0  0  0  0  0  0  0  0  0
    4.6950   -6.2377    0.0000 C   0  0  0  0  0  0  0  0  0  0  0  0
    3.9805   -6.6502    0.0000 C   0  0  0  0  0  0  0  0  0  0  0  0
  1  2  1  0  0  0  0
  2  3  2  0  0  0  0
  3  4  1  0  0  0  0
  5  6  1  0  0  0  0
  7  8  1  0  0  0  0
  8  9  2  0  0  0  0
  9 10  1  0  0  0  0
  5  7  1  0  0  0  0
  1  6  1  0  0  0  0
M  END
>  <cdx:fragmentId>
2629

$$$$
