300138.cdx
  Mrv1902 05222410212D          

 14 13  0  0  0  0            999 V2000
   10.6196   -7.1060    0.0000 C   0  0  0  0  0  0  0  0  0  0  0  0
    9.9051   -6.6935    0.0000 C   0  0  0  0  0  0  0  0  0  0  0  0
    9.1906   -7.1060    0.0000 C   0  0  0  0  0  0  0  0  0  0  0  0
    8.4762   -6.6935    0.0000 C   0  0  0  0  0  0  0  0  0  0  0  0
    7.7617   -7.1060    0.0000 C   0  0  0  0  0  0  0  0  0  0  0  0
    7.0472   -6.6935    0.0000 C   0  0  0  0  0  0  0  0  0  0  0  0
    6.3328   -7.1060    0.0000 C   0  0  0  0  0  0  0  0  0  0  0  0
    5.6183   -6.6935    0.0000 C   0  0  0  0  0  0  0  0  0  0  0  0
    4.9038   -7.1060    0.0000 C   0  0  0  0  0  0  0  0  0  0  0  0
    4.1894   -6.6935    0.0000 C   0  0  0  0  0  0  0  0  0  0  0  0
    3.4749   -7.1060    0.0000 C   0  0  0  0  0  0  0  0  0  0  0  0
    2.7604   -6.6935    0.0000 C   0  0  0  0  0  0  0  0  0  0  0  0
   11.3341   -6.6935    0.0000 O   0  0  0  0  0  0  0  0  0  0  0  0
    9.9051   -5.8685    0.0000 O   0  0  0  0  0  0  0  0  0  0  0  0
  1  2  1  0  0  0  0
  2  3  1  0  0  0  0
  3  4  1  0  0  0  0
  4  5  1  0  0  0  0
  5  6  1  0  0  0  0
  6  7  1  0  0  0  0
  7  8  1  0  0  0  0
  8  9  1  0  0  0  0
  9 10  1  0  0  0  0
 10 11  1  0  0  0  0
 11 12  1  0  0  0  0
  1 13  1  0  0  0  0
  2 14  1  0  0  0  0
M  END
>  <cdx:fragmentId>
3176

$$$$
