300118.cdx
  Mrv1902 05222410242D          

 16 17  0  0  0  0            999 V2000
    6.8419   -8.0441    0.0000 C   0  0  0  0  0  0  0  0  0  0  0  0
    6.1274   -7.6316    0.0000 C   0  0  0  0  0  0  0  0  0  0  0  0
    5.4129   -8.0441    0.0000 C   0  0  0  0  0  0  0  0  0  0  0  0
    6.1274   -8.4566    0.0000 O   0  0  0  0  0  0  0  0  0  0  0  0
    6.1274   -6.8066    0.0000 C   0  0  0  0  0  0  0  0  0  0  0  0
    5.4129   -6.3941    0.0000 C   0  0  0  0  0  0  0  0  0  0  0  0
    5.4129   -5.5691    0.0000 C   0  0  0  0  0  0  0  0  0  0  0  0
    6.1274   -5.1566    0.0000 C   0  0  0  0  0  0  0  0  0  0  0  0
    6.8419   -5.5691    0.0000 C   0  0  0  0  0  0  0  0  0  0  0  0
    7.5563   -5.1566    0.0000 C   0  0  0  0  0  0  0  0  0  0  0  0
    8.2708   -5.5691    0.0000 C   0  0  0  0  0  0  0  0  0  0  0  0
    8.2708   -6.3941    0.0000 C   0  0  0  0  0  0  0  0  0  0  0  0
    7.5563   -6.8066    0.0000 C   0  0  0  0  0  0  0  0  0  0  0  0
    6.8419   -6.3941    0.0000 C   0  0  0  0  0  0  0  0  0  0  0  0
    8.9853   -6.8066    0.0000 C   0  0  0  0  0  0  0  0  0  0  0  0
    6.1274   -4.3316    0.0000 C   0  0  0  0  0  0  0  0  0  0  0  0
  1  2  1  0  0  0  0
  2  3  1  0  0  0  0
  2  4  1  0  0  0  0
  5  6  1  0  0  0  0
  6  7  1  0  0  0  0
  7  8  1  0  0  0  0
  8  9  2  0  0  0  0
  9 10  1  0  0  0  0
 10 11  1  0  0  0  0
 11 12  1  0  0  0  0
 12 13  1  0  0  0  0
 13 14  1  0  0  0  0
  5 14  1  0  0  0  0
  9 14  1  0  0  0  0
 12 15  1  0  0  0  0
  8 16  1  0  0  0  0
  2  5  1  0  0  0  0
M  END
>  <cdx:fragmentId>
2270

$$$$
