300109.cdx
  Mrv1902 05222410252D          

 16 16  0  0  0  0            999 V2000
    9.9604   -6.7429    0.0000 C   0  0  0  0  0  0  0  0  0  0  0  0
    9.2459   -6.3304    0.0000 C   0  0  0  0  0  0  0  0  0  0  0  0
    8.5314   -6.7429    0.0000 C   0  0  0  0  0  0  0  0  0  0  0  0
    7.8170   -6.3304    0.0000 C   0  0  0  0  0  0  0  0  0  0  0  0
    7.1025   -6.7429    0.0000 C   0  0  0  0  0  0  0  0  0  0  0  0
    6.3880   -6.3304    0.0000 C   0  0  0  0  0  0  0  0  0  0  0  0
    5.9755   -5.6159    0.0000 C   0  0  0  0  0  0  0  0  0  0  0  0
    9.2459   -5.5054    0.0000 O   0  0  0  0  0  0  0  0  0  0  0  0
    5.6736   -6.7429    0.0000 C   0  0  0  0  0  0  0  0  0  0  0  0
    5.2611   -7.4574    0.0000 C   0  0  0  0  0  0  0  0  0  0  0  0
    4.8486   -6.7429    0.0000 C   0  0  0  0  0  0  0  0  0  0  0  0
    4.1341   -5.5054    0.0000 C   0  0  0  0  0  0  0  0  0  0  0  0
    4.1341   -6.3304    0.0000 C   0  0  0  0  0  0  0  0  0  0  0  0
    3.4196   -6.7429    0.0000 C   0  0  0  0  0  0  0  0  0  0  0  0
    6.8005   -5.6159    0.0000 C   0  0  0  0  0  0  0  0  0  0  0  0
   10.6749   -6.3304    0.0000 O   0  0  0  0  0  0  0  0  0  0  0  0
  1  2  1  0  0  0  0
  2  3  1  0  0  0  0
  3  4  1  0  0  0  0
  4  5  1  0  0  0  0
  5  6  1  0  0  0  0
  6  7  1  0  0  0  0
  2  8  2  0  0  0  0
  9 10  2  0  0  0  0
 10 11  1  0  0  0  0
  9 11  1  0  0  0  0
 12 13  2  0  0  0  0
 13 14  1  0  0  0  0
 11 13  1  0  0  0  0
  6  9  1  0  0  0  0
  6 15  1  0  0  0  0
  1 16  1  0  0  0  0
M  END
>  <cdx:fragmentId>
1801

$$$$
