300142.cdx
  Mrv1902 05222410272D          

 13 14  0  0  0  0            999 V2000
    8.2639   -5.6203    0.0000 C   0  0  0  0  0  0  0  0  0  0  0  0
    8.9784   -6.0328    0.0000 C   0  0  0  0  0  0  0  0  0  0  0  0
    8.9784   -6.8578    0.0000 C   0  0  0  0  0  0  0  0  0  0  0  0
    8.2639   -7.2703    0.0000 C   0  0  0  0  0  0  0  0  0  0  0  0
    7.5494   -6.8578    0.0000 C   0  0  0  0  0  0  0  0  0  0  0  0
    6.8350   -7.2703    0.0000 C   0  0  0  0  0  0  0  0  0  0  0  0
    6.1205   -6.8578    0.0000 C   0  0  0  0  0  0  0  0  0  0  0  0
    6.1205   -6.0328    0.0000 C   0  0  0  0  0  0  0  0  0  0  0  0
    6.8350   -5.6203    0.0000 C   0  0  0  0  0  0  0  0  0  0  0  0
    7.5494   -6.0328    0.0000 C   0  0  0  0  0  0  0  0  0  0  0  0
    5.4060   -5.6203    0.0000 C   0  0  0  0  0  0  0  0  0  0  0  0
    6.8350   -8.0953    0.0000 C   0  0  0  0  0  0  0  0  0  0  0  0
    8.2639   -4.7953    0.0000 C   0  0  0  0  0  0  0  0  0  0  0  0
  1  2  1  0  0  0  0
  2  3  1  0  0  0  0
  3  4  1  0  0  0  0
  4  5  1  0  0  0  0
  5  6  1  0  0  0  0
  6  7  2  0  0  0  0
  7  8  1  0  0  0  0
  8  9  2  0  0  0  0
  9 10  1  0  0  0  0
  1 10  1  0  0  0  0
  5 10  2  0  0  0  0
  8 11  1  0  0  0  0
  6 12  1  0  0  0  0
  1 13  1  0  0  0  0
M  END
>  <cdx:fragmentId>
3363

$$$$
