300148.cdx
  Mrv1902 05222410202D          

 12 12  0  0  0  0            999 V2000
    6.6443   -6.1359    0.0000 C   0  0  0  0  0  0  0  0  0  0  0  0
    7.3588   -6.5484    0.0000 C   0  0  0  0  0  0  0  0  0  0  0  0
    7.3588   -7.3734    0.0000 C   0  0  0  0  0  0  0  0  0  0  0  0
    6.6443   -7.7859    0.0000 C   0  0  0  0  0  0  0  0  0  0  0  0
    5.9298   -7.3734    0.0000 C   0  0  0  0  0  0  0  0  0  0  0  0
    5.9298   -6.5484    0.0000 C   0  0  0  0  0  0  0  0  0  0  0  0
    8.0732   -7.7859    0.0000 O   0  0  0  0  0  0  0  0  0  0  0  0
    8.7877   -7.3734    0.0000 C   0  0  0  0  0  0  0  0  0  0  0  0
    5.2154   -7.7859    0.0000 F   0  0  0  0  0  0  0  0  0  0  0  0
    6.6443   -8.6109    0.0000 F   0  0  0  0  0  0  0  0  0  0  0  0
    8.0732   -6.1359    0.0000 F   0  0  0  0  0  0  0  0  0  0  0  0
    6.6443   -5.3109    0.0000 F   0  0  0  0  0  0  0  0  0  0  0  0
  1  2  1  0  0  0  0
  2  3  2  0  0  0  0
  3  4  1  0  0  0  0
  4  5  2  0  0  0  0
  5  6  1  0  0  0  0
  1  6  2  0  0  0  0
  7  8  1  0  0  0  0
  3  7  1  0  0  0  0
  5  9  1  0  0  0  0
  4 10  1  0  0  0  0
  2 11  1  0  0  0  0
  1 12  1  0  0  0  0
M  END
>  <cdx:fragmentId>
3705

$$$$
