300127.cdx
  Mrv1902 05222410242D          

  4  3  0  0  0  0            999 V2000
    6.0616   -6.0737    0.0000 C   0  0  0  0  0  0  0  0  0  0  0  0
    6.7761   -6.4862    0.0000 C   0  0  0  0  0  0  0  0  0  0  0  0
    7.4905   -6.8987    0.0000 C   0  0  0  0  0  0  0  0  0  0  0  0
    8.2050   -6.4862    0.0000 Br  0  0  0  0  0  0  0  0  0  0  0  0
  1  2  3  0  0  0  0
  2  3  1  0  0  0  0
  3  4  1  0  0  0  0
M  END
>  <cdx:fragmentId>
2648

$$$$
