300189.cdx
  Mrv1902 05222410192D          

 17 16  0  0  0  0            999 V2000
    0.4374   -8.0314    0.0000 C   0  0  0  0  0  0  0  0  0  0  0  0
    1.1519   -8.4439    0.0000 C   0  0  0  0  0  0  0  0  0  0  0  0
    1.8664   -8.0314    0.0000 C   0  0  0  0  0  0  0  0  0  0  0  0
    2.5808   -8.4439    0.0000 C   0  0  0  0  0  0  0  0  0  0  0  0
    3.2953   -8.0314    0.0000 C   0  0  0  0  0  0  0  0  0  0  0  0
    4.0098   -8.4439    0.0000 C   0  0  0  0  0  0  0  0  0  0  0  0
    4.7243   -8.0314    0.0000 C   0  0  0  0  0  0  0  0  0  0  0  0
    5.4387   -8.4439    0.0000 C   0  0  0  0  0  0  0  0  0  0  0  0
    6.1532   -8.0314    0.0000 C   0  0  0  0  0  0  0  0  0  0  0  0
    6.8677   -8.4439    0.0000 C   0  0  0  0  0  0  0  0  0  0  0  0
    7.5821   -8.0314    0.0000 C   0  0  0  0  0  0  0  0  0  0  0  0
    8.2966   -7.6189    0.0000 C   0  0  0  0  0  0  0  0  0  0  0  0
    9.0111   -7.2064    0.0000 C   0  0  0  0  0  0  0  0  0  0  0  0
    9.7256   -7.6189    0.0000 C   0  0  0  0  0  0  0  0  0  0  0  0
   10.4400   -7.2064    0.0000 C   0  0  0  0  0  0  0  0  0  0  0  0
   11.1545   -7.6189    0.0000 C   0  0  0  0  0  0  0  0  0  0  0  0
   -0.2770   -8.4439    0.0000 O   0  0  0  0  0  0  0  0  0  0  0  0
  1  2  1  0  0  0  0
  2  3  1  0  0  0  0
  3  4  1  0  0  0  0
  4  5  1  0  0  0  0
  5  6  1  0  0  0  0
  6  7  1  0  0  0  0
  7  8  1  0  0  0  0
  8  9  1  0  0  0  0
  9 10  1  0  0  0  0
 10 11  1  0  0  0  0
 11 12  3  0  0  0  0
 12 13  1  0  0  0  0
 13 14  1  0  0  0  0
 14 15  1  0  0  0  0
 15 16  1  0  0  0  0
  1 17  1  0  0  0  0
M  END
>  <cdx:fragmentId>
556

$$$$
