300158.cdx
  Mrv1902 05222410182D          

 18 20  0  0  0  0            999 V2000
    6.9609   -6.5471    0.0000 C   0  0  0  0  0  0  0  0  0  0  0  0
    7.6754   -6.9596    0.0000 C   0  0  0  0  0  0  0  0  0  0  0  0
    8.3899   -6.5471    0.0000 C   0  0  0  0  0  0  0  0  0  0  0  0
    9.1044   -6.9596    0.0000 C   0  0  0  0  0  0  0  0  0  0  0  0
    9.1044   -7.7846    0.0000 C   0  0  0  0  0  0  0  0  0  0  0  0
    8.3899   -8.1971    0.0000 C   0  0  0  0  0  0  0  0  0  0  0  0
    7.6754   -7.7846    0.0000 C   0  0  0  0  0  0  0  0  0  0  0  0
    6.9609   -8.1971    0.0000 O   0  0  0  0  0  0  0  0  0  0  0  0
    6.2465   -7.7846    0.0000 C   0  0  0  0  0  0  0  0  0  0  0  0
    5.5320   -8.1971    0.0000 C   0  0  0  0  0  0  0  0  0  0  0  0
    4.8175   -7.7846    0.0000 C   0  0  0  0  0  0  0  0  0  0  0  0
    4.8175   -6.9596    0.0000 C   0  0  0  0  0  0  0  0  0  0  0  0
    5.5320   -6.5471    0.0000 C   0  0  0  0  0  0  0  0  0  0  0  0
    6.2465   -6.9596    0.0000 C   0  0  0  0  0  0  0  0  0  0  0  0
    6.9609   -5.7221    0.0000 O   0  0  0  0  0  0  0  0  0  0  0  0
    4.1031   -6.5471    0.0000 O   0  0  0  0  0  0  0  0  0  0  0  0
    9.8188   -8.1971    0.0000 O   0  0  0  0  0  0  0  0  0  0  0  0
    8.3899   -5.7221    0.0000 O   0  0  0  0  0  0  0  0  0  0  0  0
  1  2  1  0  0  0  0
  2  3  1  0  0  0  0
  3  4  2  0  0  0  0
  4  5  1  0  0  0  0
  5  6  2  0  0  0  0
  6  7  1  0  0  0  0
  2  7  2  0  0  0  0
  7  8  1  0  0  0  0
  8  9  1  0  0  0  0
  9 10  1  0  0  0  0
 10 11  2  0  0  0  0
 11 12  1  0  0  0  0
 12 13  2  0  0  0  0
 13 14  1  0  0  0  0
  9 14  2  0  0  0  0
  1 14  1  0  0  0  0
  1 15  2  0  0  0  0
 12 16  1  0  0  0  0
  5 17  1  0  0  0  0
  3 18  1  0  0  0  0
M  END
>  <cdx:fragmentId>
4328

$$$$
