300174.cdx
  Mrv1902 05222410202D          

 39 41  0  0  0  0            999 V2000
    4.9015   -5.1625    0.0000 C   0  0  0  0  0  0  0  0  0  0  0  0
    5.6159   -5.5750    0.0000 C   0  0  0  0  0  0  0  0  0  0  0  0
    5.6159   -6.4000    0.0000 C   0  0  2  0  0  0  0  0  0  0  0  0
    4.9015   -6.8125    0.0000 C   0  0  0  0  0  0  0  0  0  0  0  0
    4.1870   -6.4000    0.0000 C   0  0  1  0  0  0  0  0  0  0  0  0
    4.1870   -5.5750    0.0000 O   0  0  0  0  0  0  0  0  0  0  0  0
    6.3304   -5.1625    0.0000 C   0  0  0  0  0  0  0  0  0  0  0  0
    7.0449   -5.5750    0.0000 O   0  0  0  0  0  0  0  0  0  0  0  0
    6.3304   -4.3375    0.0000 O   0  0  0  0  0  0  0  0  0  0  0  0
    3.4725   -6.8125    0.0000 O   0  0  0  0  0  0  0  0  0  0  0  0
    2.0436   -6.8125    0.0000 O   0  0  0  0  0  0  0  0  0  0  0  0
    2.7580   -6.4000    0.0000 C   0  0  2  0  0  0  0  0  0  0  0  0
    2.7580   -5.5750    0.0000 C   0  0  1  0  0  0  0  0  0  0  0  0
    2.0436   -5.1625    0.0000 C   0  0  2  0  0  0  0  0  0  0  0  0
    1.3291   -5.5750    0.0000 C   0  0  1  0  0  0  0  0  0  0  0  0
    1.3291   -6.4000    0.0000 C   0  0  1  0  0  0  0  0  0  0  0  0
    0.6146   -6.8125    0.0000 C   0  0  0  0  0  0  0  0  0  0  0  0
   -0.0998   -6.4000    0.0000 O   0  0  0  0  0  0  0  0  0  0  0  0
    0.6146   -5.1625    0.0000 O   0  0  0  0  0  0  0  0  0  0  0  0
    2.0436   -4.3375    0.0000 O   0  0  0  0  0  0  0  0  0  0  0  0
    3.4725   -5.1625    0.0000 O   0  0  0  0  0  0  0  0  0  0  0  0
    4.9015   -7.6375    0.0000 C   0  0  0  0  0  0  0  0  0  0  0  0
    5.6159   -8.0500    0.0000 C   0  0  0  0  0  0  0  0  0  0  0  0
    5.6159   -8.8750    0.0000 O   0  0  0  0  0  0  0  0  0  0  0  0
    6.7591   -7.0600    0.0000 C   0  0  0  0  0  0  0  0  0  0  0  0
    7.4735   -6.6475    0.0000 C   0  0  0  0  0  0  0  0  0  0  0  0
    7.4735   -5.8225    0.0000 O   0  0  0  0  0  0  0  0  0  0  0  0
    8.1880   -7.0600    0.0000 O   0  0  0  0  0  0  0  0  0  0  0  0
    8.9025   -6.6475    0.0000 C   0  0  0  0  0  0  0  0  0  0  0  0
    9.6170   -7.0600    0.0000 C   0  0  0  0  0  0  0  0  0  0  0  0
   10.3314   -6.6475    0.0000 C   0  0  0  0  0  0  0  0  0  0  0  0
   11.0459   -7.0600    0.0000 C   0  0  0  0  0  0  0  0  0  0  0  0
   11.7604   -6.6475    0.0000 C   0  0  0  0  0  0  0  0  0  0  0  0
   11.7604   -5.8225    0.0000 C   0  0  0  0  0  0  0  0  0  0  0  0
   11.0459   -5.4100    0.0000 C   0  0  0  0  0  0  0  0  0  0  0  0
   10.3314   -5.8225    0.0000 C   0  0  0  0  0  0  0  0  0  0  0  0
   12.4748   -5.4100    0.0000 O   0  0  0  0  0  0  0  0  0  0  0  0
   12.4748   -7.0600    0.0000 O   0  0  0  0  0  0  0  0  0  0  0  0
    7.0449   -3.9250    0.0000 C   0  0  0  0  0  0  0  0  0  0  0  0
  1  2  2  0  0  0  0
  2  3  1  0  0  0  0
  3  4  1  0  0  0  0
  4  5  1  0  0  0  0
  5  6  1  0  0  0  0
  1  6  1  0  0  0  0
  7  8  2  0  0  0  0
  7  9  1  0  0  0  0
  2  7  1  0  0  0  0
 11 12  1  0  0  0  0
 12 13  1  0  0  0  0
 13 14  1  0  0  0  0
 14 15  1  0  0  0  0
 15 16  1  0  0  0  0
 11 16  1  0  0  0  0
 17 18  1  0  0  0  0
 16 17  1  6  0  0  0
 15 19  1  1  0  0  0
 14 20  1  6  0  0  0
 13 21  1  1  0  0  0
 12 10  1  6  0  0  0
  5 10  1  6  0  0  0
 22 23  1  0  0  0  0
 23 24  1  0  0  0  0
  4 22  2  0  0  0  0
 25 26  1  0  0  0  0
 26 27  2  0  0  0  0
 29 30  1  0  0  0  0
 28 29  1  0  0  0  0
 31 32  1  0  0  0  0
 32 33  2  0  0  0  0
 33 34  1  0  0  0  0
 34 35  2  0  0  0  0
 35 36  1  0  0  0  0
 31 36  2  0  0  0  0
 34 37  1  0  0  0  0
 33 38  1  0  0  0  0
 30 31  1  0  0  0  0
 26 28  1  0  0  0  0
  3 25  1  1  0  0  0
  9 39  1  0  0  0  0
M  END
>  <cdx:fragmentId>
5210

$$$$
