300111.cdx
  Mrv1902 05222410212D          

 15 17  0  0  0  0            999 V2000
    8.6246   -6.0335    0.0000 C   0  0  0  0  0  0  0  0  0  0  0  0
    9.3391   -6.4460    0.0000 C   0  0  0  0  0  0  0  0  0  0  0  0
    9.3391   -7.2710    0.0000 C   0  0  0  0  0  0  0  0  0  0  0  0
    8.6246   -7.6835    0.0000 C   0  0  0  0  0  0  0  0  0  0  0  0
    7.9101   -7.2710    0.0000 C   0  0  0  0  0  0  0  0  0  0  0  0
    7.1956   -7.6835    0.0000 N   0  0  0  0  0  0  0  0  0  0  0  0
    6.4812   -7.2710    0.0000 C   0  0  0  0  0  0  0  0  0  0  0  0
    5.7667   -7.6835    0.0000 C   0  0  0  0  0  0  0  0  0  0  0  0
    5.0522   -7.2710    0.0000 C   0  0  0  0  0  0  0  0  0  0  0  0
    5.0522   -6.4460    0.0000 C   0  0  0  0  0  0  0  0  0  0  0  0
    5.7667   -6.0335    0.0000 C   0  0  0  0  0  0  0  0  0  0  0  0
    6.4812   -6.4460    0.0000 C   0  0  0  0  0  0  0  0  0  0  0  0
    7.1956   -6.0335    0.0000 N   0  0  0  0  0  0  0  0  0  0  0  0
    7.9101   -6.4460    0.0000 C   0  0  0  0  0  0  0  0  0  0  0  0
    8.6246   -5.2085    0.0000 O   0  0  0  0  0  0  0  0  0  0  0  0
  1  2  2  0  0  0  0
  2  3  1  0  0  0  0
  3  4  2  0  0  0  0
  4  5  1  0  0  0  0
  5  6  2  0  0  0  0
  6  7  1  0  0  0  0
  7  8  2  0  0  0  0
  8  9  1  0  0  0  0
  9 10  2  0  0  0  0
 10 11  1  0  0  0  0
 11 12  2  0  0  0  0
  7 12  1  0  0  0  0
 12 13  1  0  0  0  0
 13 14  2  0  0  0  0
  5 14  1  0  0  0  0
  1 14  1  0  0  0  0
  1 15  1  0  0  0  0
M  END
>  <cdx:fragmentId>
1939

$$$$
