300119.cdx
  Mrv1902 05222410242D          

 12 13  0  0  0  0            999 V2000
    7.9101   -5.8764    0.0000 C   0  0  0  0  0  0  0  0  0  0  0  0
    8.6246   -6.2889    0.0000 C   0  0  0  0  0  0  0  0  0  0  0  0
    8.6246   -7.1139    0.0000 C   0  0  0  0  0  0  0  0  0  0  0  0
    7.9101   -7.5264    0.0000 C   0  0  0  0  0  0  0  0  0  0  0  0
    7.1956   -7.1139    0.0000 C   0  0  0  0  0  0  0  0  0  0  0  0
    6.4812   -7.5264    0.0000 C   0  0  0  0  0  0  0  0  0  0  0  0
    5.7667   -7.1139    0.0000 C   0  0  0  0  0  0  0  0  0  0  0  0
    5.7667   -6.2889    0.0000 C   0  0  0  0  0  0  0  0  0  0  0  0
    6.4812   -5.8764    0.0000 C   0  0  0  0  0  0  0  0  0  0  0  0
    7.1956   -6.2889    0.0000 C   0  0  0  0  0  0  0  0  0  0  0  0
    7.9101   -5.0514    0.0000 O   0  0  0  0  0  0  0  0  0  0  0  0
    7.1956   -7.9389    0.0000 C   0  0  0  0  0  0  0  0  0  0  0  0
  1  2  1  0  0  0  0
  2  3  1  0  0  0  0
  3  4  1  0  0  0  0
  4  5  1  0  0  0  0
  5  6  1  0  0  0  0
  6  7  1  0  0  0  0
  7  8  1  0  0  0  0
  8  9  1  0  0  0  0
  9 10  1  0  0  0  0
  1 10  1  0  0  0  0
  5 10  1  0  0  0  0
  1 11  1  0  0  0  0
  5 12  1  0  0  0  0
M  END
>  <cdx:fragmentId>
2313

$$$$
