300173.cdx
  Mrv1902 05222410182D          

 21 20  0  0  0  0            999 V2000
   -0.9572   -6.6924    0.0000 C   0  0  0  0  0  0  0  0  0  0  0  0
   -0.2427   -6.2799    0.0000 C   0  0  0  0  0  0  0  0  0  0  0  0
    0.4717   -6.6924    0.0000 C   0  0  0  0  0  0  0  0  0  0  0  0
    1.1862   -6.2799    0.0000 C   0  0  0  0  0  0  0  0  0  0  0  0
    1.9007   -6.6924    0.0000 C   0  0  0  0  0  0  0  0  0  0  0  0
    2.6151   -6.2799    0.0000 C   0  0  0  0  0  0  0  0  0  0  0  0
    3.3296   -6.6924    0.0000 C   0  0  0  0  0  0  0  0  0  0  0  0
    4.0441   -6.2799    0.0000 C   0  0  0  0  0  0  0  0  0  0  0  0
    4.7586   -6.6924    0.0000 C   0  0  0  0  0  0  0  0  0  0  0  0
    5.4730   -6.2799    0.0000 C   0  0  0  0  0  0  0  0  0  0  0  0
    6.1875   -6.6924    0.0000 C   0  0  0  0  0  0  0  0  0  0  0  0
    6.9020   -6.2799    0.0000 C   0  0  0  0  0  0  0  0  0  0  0  0
    7.6164   -6.6924    0.0000 C   0  0  0  0  0  0  0  0  0  0  0  0
    8.3309   -6.2799    0.0000 C   0  0  0  0  0  0  0  0  0  0  0  0
    9.0454   -6.6924    0.0000 C   0  0  0  0  0  0  0  0  0  0  0  0
    9.7599   -6.2799    0.0000 C   0  0  0  0  0  0  0  0  0  0  0  0
   10.4743   -6.6924    0.0000 C   0  0  0  0  0  0  0  0  0  0  0  0
   11.1888   -6.2799    0.0000 C   0  0  0  0  0  0  0  0  0  0  0  0
   11.9033   -6.6924    0.0000 C   0  0  0  0  0  0  0  0  0  0  0  0
   12.6177   -6.2799    0.0000 C   0  0  0  0  0  0  0  0  0  0  0  0
   13.3322   -6.6924    0.0000 C   0  0  0  0  0  0  0  0  0  0  0  0
  1  2  1  0  0  0  0
  2  3  1  0  0  0  0
  3  4  1  0  0  0  0
  4  5  1  0  0  0  0
  5  6  1  0  0  0  0
  6  7  1  0  0  0  0
  7  8  1  0  0  0  0
  8  9  1  0  0  0  0
  9 10  1  0  0  0  0
 10 11  2  0  0  0  0
 11 12  1  0  0  0  0
 12 13  1  0  0  0  0
 13 14  1  0  0  0  0
 14 15  1  0  0  0  0
 15 16  1  0  0  0  0
 16 17  1  0  0  0  0
 17 18  1  0  0  0  0
 18 19  1  0  0  0  0
 19 20  1  0  0  0  0
 20 21  1  0  0  0  0
M  END
>  <cdx:fragmentId>
5124

$$$$
