300107.cdx
  Mrv1902 05222410202D          

 19 21  0  0  0  0            999 V2000
    8.2708   -5.6189    0.0000 C   0  0  0  0  0  0  0  0  0  0  0  0
    8.9853   -6.0314    0.0000 C   0  0  0  0  0  0  0  0  0  0  0  0
    8.9853   -6.8564    0.0000 C   0  0  0  0  0  0  0  0  0  0  0  0
    8.2708   -7.2689    0.0000 C   0  0  0  0  0  0  0  0  0  0  0  0
    7.5563   -6.8564    0.0000 C   0  0  0  0  0  0  0  0  0  0  0  0
    6.8419   -7.2689    0.0000 C   0  0  0  0  0  0  0  0  0  0  0  0
    6.1274   -6.8564    0.0000 C   0  0  0  0  0  0  0  0  0  0  0  0
    5.4129   -7.2689    0.0000 C   0  0  0  0  0  0  0  0  0  0  0  0
    4.6984   -6.8564    0.0000 C   0  0  0  0  0  0  0  0  0  0  0  0
    4.6984   -6.0314    0.0000 C   0  0  0  0  0  0  0  0  0  0  0  0
    5.4129   -5.6189    0.0000 C   0  0  0  0  0  0  0  0  0  0  0  0
    6.1274   -6.0314    0.0000 C   0  0  0  0  0  0  0  0  0  0  0  0
    6.8419   -5.6189    0.0000 C   0  0  0  0  0  0  0  0  0  0  0  0
    7.5563   -6.0314    0.0000 C   0  0  0  0  0  0  0  0  0  0  0  0
    6.8419   -4.7939    0.0000 O   0  0  0  0  0  0  0  0  0  0  0  0
    6.8419   -8.0939    0.0000 O   0  0  0  0  0  0  0  0  0  0  0  0
    9.6997   -7.2689    0.0000 C   0  0  0  0  0  0  0  0  0  0  0  0
    9.6997   -5.6189    0.0000 C   0  0  0  0  0  0  0  0  0  0  0  0
    8.2708   -4.7939    0.0000 O   0  0  0  0  0  0  0  0  0  0  0  0
  1  2  1  0  0  0  0
  2  3  2  0  0  0  0
  3  4  1  0  0  0  0
  4  5  2  0  0  0  0
  5  6  1  0  0  0  0
  6  7  1  0  0  0  0
  7  8  1  0  0  0  0
  8  9  2  0  0  0  0
  9 10  1  0  0  0  0
 10 11  2  0  0  0  0
 11 12  1  0  0  0  0
  7 12  2  0  0  0  0
 12 13  1  0  0  0  0
 13 14  1  0  0  0  0
  5 14  1  0  0  0  0
  1 14  2  0  0  0  0
 13 15  2  0  0  0  0
  6 16  2  0  0  0  0
  3 17  1  0  0  0  0
  2 18  1  0  0  0  0
  1 19  1  0  0  0  0
M  END
>  <cdx:fragmentId>
1674

$$$$
