300144.cdx
  Mrv1902 05222410262D          

 23 25  0  0  0  0            999 V2000
    9.3397   -7.9387    0.0000 C   0  0  0  0  0  0  0  0  0  0  0  0
    8.6257   -7.5255    0.0000 O   0  0  0  0  0  0  0  0  0  0  0  0
   10.7703   -6.2901    0.0000 C   0  0  0  0  0  0  0  0  0  0  0  0
   10.0554   -6.7019    0.0000 O   0  0  0  0  0  0  0  0  0  0  0  0
   10.7711   -5.4651    0.0000 C   0  0  0  0  0  0  0  0  0  0  0  0
   10.0571   -5.0519    0.0000 O   0  0  0  0  0  0  0  0  0  0  0  0
    3.6256   -6.2830    0.0000 C   0  0  0  0  0  0  0  0  0  0  0  0
    4.3397   -6.6962    0.0000 O   0  0  0  0  0  0  0  0  0  0  0  0
    7.1967   -7.5241    0.0000 O   0  0  0  0  0  0  0  0  0  0  0  0
    6.4835   -6.2859    0.0000 C   0  0  0  0  0  0  0  0  0  0  0  0
    5.7686   -6.6977    0.0000 C   0  0  0  0  0  0  0  0  0  0  0  0
    5.0545   -6.2844    0.0000 C   0  0  0  0  0  0  0  0  0  0  0  0
    5.0554   -5.4594    0.0000 C   0  0  0  0  0  0  0  0  0  0  0  0
    5.7702   -5.0477    0.0000 C   0  0  0  0  0  0  0  0  0  0  0  0
    6.4843   -5.4609    0.0000 C   0  0  0  0  0  0  0  0  0  0  0  0
    7.1992   -5.0491    0.0000 O   0  0  0  0  0  0  0  0  0  0  0  0
    7.9132   -5.4623    0.0000 C   0  0  0  0  0  0  0  0  0  0  0  0
    8.6281   -5.0505    0.0000 C   0  0  0  0  0  0  0  0  0  0  0  0
    9.3422   -5.4637    0.0000 C   0  0  0  0  0  0  0  0  0  0  0  0
    9.3414   -6.2887    0.0000 C   0  0  0  0  0  0  0  0  0  0  0  0
    8.6265   -6.7005    0.0000 C   0  0  0  0  0  0  0  0  0  0  0  0
    7.9124   -6.2873    0.0000 C   0  0  0  0  0  0  0  0  0  0  0  0
    7.1975   -6.6991    0.0000 C   0  0  0  0  0  0  0  0  0  0  0  0
 21  2  1  0  0  0  0
  2  1  1  0  0  0  0
 20  4  1  0  0  0  0
  4  3  1  0  0  0  0
 19  6  1  0  0  0  0
  6  5  1  0  0  0  0
 12  8  1  0  0  0  0
  8  7  1  0  0  0  0
 23  9  2  0  0  0  0
 23 10  1  0  0  0  0
 15 10  2  0  0  0  0
 11 10  1  0  0  0  0
 12 11  2  0  0  0  0
 13 12  1  0  0  0  0
 14 13  2  0  0  0  0
 15 14  1  0  0  0  0
 16 15  1  0  0  0  0
 17 16  1  0  0  0  0
 22 17  2  0  0  0  0
 18 17  1  0  0  0  0
 19 18  2  0  0  0  0
 20 19  1  0  0  0  0
 21 20  2  0  0  0  0
 22 21  1  0  0  0  0
 23 22  1  0  0  0  0
M  END
>  <cdx:fragmentId>
3447

$$$$
