300192.cdx
  Mrv1902 05222410262D          

 36 39  0  0  0  0            999 V2000
    8.1180   -6.8147    0.0000 C   0  0  0  0  0  0  0  0  0  0  0  0
    8.8325   -6.4022    0.0000 C   0  0  0  0  0  0  0  0  0  0  0  0
    8.8325   -5.5772    0.0000 C   0  0  0  0  0  0  0  0  0  0  0  0
    9.5470   -5.1647    0.0000 C   0  0  0  0  0  0  0  0  0  0  0  0
   10.2614   -5.5772    0.0000 C   0  0  0  0  0  0  0  0  0  0  0  0
   10.2614   -6.4022    0.0000 C   0  0  0  0  0  0  0  0  0  0  0  0
    9.5470   -6.8147    0.0000 C   0  0  0  0  0  0  0  0  0  0  0  0
    7.4035   -6.4022    0.0000 O   0  0  0  0  0  0  0  0  0  0  0  0
    8.1180   -7.6397    0.0000 O   0  0  0  0  0  0  0  0  0  0  0  0
   10.9759   -6.8147    0.0000 O   0  0  0  0  0  0  0  0  0  0  0  0
   10.9759   -5.1647    0.0000 O   0  0  0  0  0  0  0  0  0  0  0  0
    9.5470   -4.3397    0.0000 O   0  0  0  0  0  0  0  0  0  0  0  0
    7.4035   -8.0522    0.0000 C   0  0  0  0  0  0  0  0  0  0  0  0
    7.4035  -11.3522    0.0000 O   0  0  0  0  0  0  0  0  0  0  0  0
    7.4035  -10.5272    0.0000 C   0  0  1  0  0  0  0  0  0  0  0  0
    6.6891  -10.1147    0.0000 C   0  0  2  0  0  0  0  0  0  0  0  0
    5.9746  -10.5272    0.0000 C   0  0  0  0  0  0  0  0  0  0  0  0
    5.2601  -10.1147    0.0000 C   0  0  0  0  0  0  0  0  0  0  0  0
    4.5457  -10.5272    0.0000 C   0  0  0  0  0  0  0  0  0  0  0  0
    4.5457  -11.3522    0.0000 C   0  0  0  0  0  0  0  0  0  0  0  0
    5.2601  -11.7647    0.0000 C   0  0  0  0  0  0  0  0  0  0  0  0
    5.9746  -11.3522    0.0000 C   0  0  0  0  0  0  0  0  0  0  0  0
    6.6891  -11.7647    0.0000 C   0  0  0  0  0  0  0  0  0  0  0  0
    8.1180  -10.1147    0.0000 C   0  0  2  0  0  0  0  0  0  0  0  0
    8.1180   -9.2897    0.0000 C   0  0  1  0  0  0  0  0  0  0  0  0
    7.4035   -8.8772    0.0000 C   0  0  2  0  0  0  0  0  0  0  0  0
    6.6891   -9.2897    0.0000 O   0  0  0  0  0  0  0  0  0  0  0  0
    6.6891  -12.5897    0.0000 O   0  0  0  0  0  0  0  0  0  0  0  0
    3.8312  -10.1147    0.0000 O   0  0  0  0  0  0  0  0  0  0  0  0
    3.1167  -10.5272    0.0000 C   0  0  0  0  0  0  0  0  0  0  0  0
    5.2601   -9.2897    0.0000 O   0  0  0  0  0  0  0  0  0  0  0  0
    3.8312  -11.7647    0.0000 O   0  0  0  0  0  0  0  0  0  0  0  0
    8.8325  -10.5272    0.0000 O   0  0  0  0  0  0  0  0  0  0  0  0
    8.8325   -8.8772    0.0000 O   0  0  0  0  0  0  0  0  0  0  0  0
    8.1180  -10.9397    0.0000 H   0  0  0  0  0  0  0  0  0  0  0  0
    5.9746   -9.7022    0.0000 H   0  0  0  0  0  0  0  0  0  0  0  0
  1  2  1  0  0  0  0
  2  3  1  0  0  0  0
  3  4  2  0  0  0  0
  4  5  1  0  0  0  0
  5  6  2  0  0  0  0
  6  7  1  0  0  0  0
  2  7  2  0  0  0  0
  1  8  2  0  0  0  0
  1  9  1  0  0  0  0
  6 10  1  0  0  0  0
  5 11  1  0  0  0  0
  4 12  1  0  0  0  0
 14 15  1  0  0  0  0
 15 16  1  0  0  0  0
 16 17  1  0  0  0  0
 17 18  1  0  0  0  0
 18 19  2  0  0  0  0
 19 20  1  0  0  0  0
 20 21  2  0  0  0  0
 21 22  1  0  0  0  0
 17 22  2  0  0  0  0
 22 23  1  0  0  0  0
 14 23  1  0  0  0  0
 24 25  1  0  0  0  0
 25 26  1  0  0  0  0
 26 27  1  0  0  0  0
 24 15  1  0  0  0  0
 27 16  1  0  0  0  0
 23 28  2  0  0  0  0
 29 30  1  0  0  0  0
 19 29  1  0  0  0  0
 18 31  1  0  0  0  0
 20 32  1  0  0  0  0
 24 33  1  6  0  0  0
 25 34  1  1  0  0  0
 26 13  1  6  0  0  0
  9 13  1  0  0  0  0
 15 35  1  6  0  0  0
 16 36  1  1  0  0  0
M  END
>  <cdx:fragmentId>
31

$$$$
