300125.cdx
  Mrv1902 05222410242D          

 15 14  0  0  0  0            999 V2000
    6.4812   -7.6316    0.0000 C   0  0  0  0  0  0  0  0  0  0  0  0
    7.1956   -7.2191    0.0000 C   0  0  0  0  0  0  0  0  0  0  0  0
    7.9101   -7.6316    0.0000 C   0  0  0  0  0  0  0  0  0  0  0  0
    5.7667   -7.2191    0.0000 C   0  0  0  0  0  0  0  0  0  0  0  0
    5.7667   -6.3941    0.0000 O   0  0  0  0  0  0  0  0  0  0  0  0
    5.0522   -7.6316    0.0000 O   0  0  0  0  0  0  0  0  0  0  0  0
    7.1956   -6.3941    0.0000 C   0  0  0  0  0  0  0  0  0  0  0  0
    6.4812   -5.9816    0.0000 O   0  0  0  0  0  0  0  0  0  0  0  0
    7.9101   -5.9816    0.0000 O   0  0  0  0  0  0  0  0  0  0  0  0
    8.6246   -7.2191    0.0000 C   0  0  0  0  0  0  0  0  0  0  0  0
    8.6246   -6.3941    0.0000 O   0  0  0  0  0  0  0  0  0  0  0  0
    9.3391   -7.6316    0.0000 O   0  0  0  0  0  0  0  0  0  0  0  0
    4.3378   -7.2191    0.0000 C   0  0  0  0  0  0  0  0  0  0  0  0
    7.9101   -5.1566    0.0000 C   0  0  0  0  0  0  0  0  0  0  0  0
   10.0535   -7.2191    0.0000 C   0  0  0  0  0  0  0  0  0  0  0  0
  1  2  2  0  0  0  0
  2  3  1  0  0  0  0
  4  5  2  0  0  0  0
  4  6  1  0  0  0  0
  1  4  1  0  0  0  0
  7  8  2  0  0  0  0
  7  9  1  0  0  0  0
  2  7  1  0  0  0  0
 10 11  2  0  0  0  0
 10 12  1  0  0  0  0
  3 10  1  0  0  0  0
  6 13  1  0  0  0  0
  9 14  1  0  0  0  0
 12 15  1  0  0  0  0
M  END
>  <cdx:fragmentId>
2576

$$$$
