300163.cdx
  Mrv1902 05222410192D          

 12 12  0  0  0  0            999 V2000
    2.9774   -7.7756    0.0000 C   0  0  0  0  0  0  0  0  0  0  0  0
    2.9774   -8.6006    0.0000 C   0  0  0  0  0  0  0  0  0  0  0  0
    3.6919   -9.0131    0.0000 C   0  0  0  0  0  0  0  0  0  0  0  0
    4.4063   -8.6006    0.0000 C   0  0  0  0  0  0  0  0  0  0  0  0
    4.4063   -7.7756    0.0000 C   0  0  0  0  0  0  0  0  0  0  0  0
    3.6919   -7.3631    0.0000 C   0  0  0  0  0  0  0  0  0  0  0  0
    2.1805   -7.5621    0.0000 C   0  0  0  0  0  0  0  0  0  0  0  0
    2.7639   -6.9787    0.0000 C   0  0  0  0  0  0  0  0  0  0  0  0
    3.6919   -6.5381    0.0000 C   0  0  0  0  0  0  0  0  0  0  0  0
    4.4063   -6.1256    0.0000 C   0  0  0  0  0  0  0  0  0  0  0  0
    4.4063   -5.3006    0.0000 C   0  0  0  0  0  0  0  0  0  0  0  0
    5.1208   -7.3631    0.0000 C   0  0  0  0  0  0  0  0  0  0  0  0
  1  2  1  0  0  0  0
  2  3  1  0  0  0  0
  3  4  1  0  0  0  0
  4  5  2  0  0  0  0
  5  6  1  0  0  0  0
  6  1  1  0  0  0  0
  1  7  1  0  0  0  0
  1  8  1  0  0  0  0
  6  9  2  0  0  0  0
  9 10  1  0  0  0  0
 10 11  2  0  0  0  0
  5 12  1  0  0  0  0
M  END
>  <cdx:fragmentId>
4566

$$$$
