300167.cdx
  Mrv1902 05222410182D          

 10  9  0  0  0  0            999 V2000
    3.6869   -6.6516    0.0000 C   0  0  0  0  0  0  0  0  0  0  0  0
    4.4013   -6.2391    0.0000 C   0  0  0  0  0  0  0  0  0  0  0  0
    5.1158   -6.6516    0.0000 C   0  0  0  0  0  0  0  0  0  0  0  0
    5.8303   -6.2391    0.0000 C   0  0  0  0  0  0  0  0  0  0  0  0
    6.5447   -6.6516    0.0000 C   0  0  0  0  0  0  0  0  0  0  0  0
    7.2592   -6.2391    0.0000 C   0  0  0  0  0  0  0  0  0  0  0  0
    7.9737   -6.6516    0.0000 C   0  0  0  0  0  0  0  0  0  0  0  0
    8.6881   -6.2391    0.0000 C   0  0  0  0  0  0  0  0  0  0  0  0
    7.2592   -5.4141    0.0000 C   0  0  0  0  0  0  0  0  0  0  0  0
    5.1158   -7.4766    0.0000 C   0  0  0  0  0  0  0  0  0  0  0  0
  1  2  2  0  0  0  0
  2  3  1  0  0  0  0
  3  4  1  0  0  0  0
  4  5  1  0  0  0  0
  5  6  1  0  0  0  0
  6  7  1  0  0  0  0
  7  8  2  0  0  0  0
  6  9  2  0  0  0  0
  3 10  2  0  0  0  0
M  END
>  <cdx:fragmentId>
4819

$$$$
