30017.cdx
  Mrv1902 05222410242D          

 17 16  0  0  0  0            999 V2000
    3.1188  -10.1739    0.0000 C   0  0  0  0  0  0  0  0  0  0  0  0
    3.8332   -9.7614    0.0000 C   0  0  0  0  0  0  0  0  0  0  0  0
    4.5477  -10.1739    0.0000 C   0  0  0  0  0  0  0  0  0  0  0  0
    5.2622   -9.7614    0.0000 C   0  0  0  0  0  0  0  0  0  0  0  0
    5.9767  -10.1739    0.0000 O   0  0  0  0  0  0  0  0  0  0  0  0
    6.6911   -9.7614    0.0000 P   0  0  0  0  0  0  0  0  0  0  0  0
    7.4056   -9.3489    0.0000 O   0  0  0  0  0  0  0  0  0  0  0  0
    7.1036  -10.4759    0.0000 O   0  0  0  0  0  0  0  0  0  0  0  0
    6.2786   -9.0469    0.0000 O   0  0  0  0  0  0  0  0  0  0  0  0
    6.6911   -8.3325    0.0000 C   0  0  0  0  0  0  0  0  0  0  0  0
    6.2786   -7.6180    0.0000 C   0  0  0  0  0  0  0  0  0  0  0  0
    6.6911   -6.9035    0.0000 C   0  0  0  0  0  0  0  0  0  0  0  0
    6.2786   -6.1890    0.0000 C   0  0  0  0  0  0  0  0  0  0  0  0
    8.1201   -9.7614    0.0000 C   0  0  0  0  0  0  0  0  0  0  0  0
    8.8345   -9.3489    0.0000 C   0  0  0  0  0  0  0  0  0  0  0  0
    9.5490   -9.7614    0.0000 C   0  0  0  0  0  0  0  0  0  0  0  0
   10.2635   -9.3489    0.0000 C   0  0  0  0  0  0  0  0  0  0  0  0
  1  2  1  0  0  0  0
  2  3  1  0  0  0  0
  3  4  1  0  0  0  0
  4  5  1  0  0  0  0
  5  6  1  0  0  0  0
  6  7  1  0  0  0  0
  6  8  2  0  0  0  0
  6  9  1  0  0  0  0
  9 10  1  0  0  0  0
 10 11  1  0  0  0  0
 11 12  1  0  0  0  0
 12 13  1  0  0  0  0
  7 14  1  0  0  0  0
 14 15  1  0  0  0  0
 15 16  1  0  0  0  0
 16 17  1  0  0  0  0
M  END
>  <cdx:fragmentId>
3

$$$$
