300159.cdx
  Mrv1902 05222410182D          

 21 23  0  0  0  0            999 V2000
    7.6788   -6.1346    0.0000 C   0  0  0  0  0  0  0  0  0  0  0  0
    8.3933   -6.5471    0.0000 C   0  0  0  0  0  0  0  0  0  0  0  0
    8.3933   -7.3721    0.0000 C   0  0  0  0  0  0  0  0  0  0  0  0
    7.6788   -7.7846    0.0000 C   0  0  0  0  0  0  0  0  0  0  0  0
    6.9644   -7.3721    0.0000 C   0  0  0  0  0  0  0  0  0  0  0  0
    6.2499   -7.7846    0.0000 C   0  0  0  0  0  0  0  0  0  0  0  0
    5.5354   -7.3721    0.0000 C   0  0  0  0  0  0  0  0  0  0  0  0
    4.8210   -7.7846    0.0000 C   0  0  0  0  0  0  0  0  0  0  0  0
    4.1065   -7.3721    0.0000 C   0  0  0  0  0  0  0  0  0  0  0  0
    4.1065   -6.5471    0.0000 C   0  0  0  0  0  0  0  0  0  0  0  0
    4.8210   -6.1346    0.0000 C   0  0  0  0  0  0  0  0  0  0  0  0
    5.5354   -6.5471    0.0000 C   0  0  0  0  0  0  0  0  0  0  0  0
    6.2499   -6.1346    0.0000 C   0  0  0  0  0  0  0  0  0  0  0  0
    6.9644   -6.5471    0.0000 C   0  0  0  0  0  0  0  0  0  0  0  0
    6.2499   -5.3096    0.0000 O   0  0  0  0  0  0  0  0  0  0  0  0
    6.2499   -8.6096    0.0000 O   0  0  0  0  0  0  0  0  0  0  0  0
    9.1078   -6.1346    0.0000 O   0  0  0  0  0  0  0  0  0  0  0  0
    9.8223   -6.5471    0.0000 C   0  0  0  0  0  0  0  0  0  0  0  0
    4.8210   -5.3096    0.0000 O   0  0  0  0  0  0  0  0  0  0  0  0
    9.1078   -7.7846    0.0000 O   0  0  0  0  0  0  0  0  0  0  0  0
    7.6788   -5.3096    0.0000 O   0  0  0  0  0  0  0  0  0  0  0  0
  1  2  1  0  0  0  0
  2  3  2  0  0  0  0
  3  4  1  0  0  0  0
  4  5  2  0  0  0  0
  5  6  1  0  0  0  0
  6  7  1  0  0  0  0
  7  8  1  0  0  0  0
  8  9  2  0  0  0  0
  9 10  1  0  0  0  0
 10 11  2  0  0  0  0
 11 12  1  0  0  0  0
  7 12  2  0  0  0  0
 12 13  1  0  0  0  0
 13 14  1  0  0  0  0
  5 14  1  0  0  0  0
  1 14  2  0  0  0  0
 13 15  2  0  0  0  0
  6 16  2  0  0  0  0
 17 18  1  0  0  0  0
  2 17  1  0  0  0  0
 11 19  1  0  0  0  0
  3 20  1  0  0  0  0
  1 21  1  0  0  0  0
M  END
>  <cdx:fragmentId>
4387

$$$$
