300165.cdx
  Mrv1902 05222410182D          

 22 24  0  0  0  0            999 V2000
    5.1158   -7.8877    0.0000 C   0  0  0  0  0  0  0  0  0  0  0  0
    4.4013   -7.4752    0.0000 C   0  0  0  0  0  0  0  0  0  0  0  0
    4.4013   -6.6502    0.0000 C   0  0  0  0  0  0  0  0  0  0  0  0
    5.1158   -6.2377    0.0000 C   0  0  0  0  0  0  0  0  0  0  0  0
    5.8303   -6.6502    0.0000 C   0  0  0  0  0  0  0  0  0  0  0  0
    6.5447   -6.2377    0.0000 C   0  0  0  0  0  0  0  0  0  0  0  0
    6.5447   -5.4127    0.0000 C   0  0  0  0  0  0  0  0  0  0  0  0
    7.2592   -5.0002    0.0000 C   0  0  0  0  0  0  0  0  0  0  0  0
    7.9737   -5.4127    0.0000 C   0  0  0  0  0  0  0  0  0  0  0  0
    7.9737   -6.2377    0.0000 C   0  0  0  0  0  0  0  0  0  0  0  0
    7.2592   -6.6502    0.0000 C   0  0  0  0  0  0  0  0  0  0  0  0
    7.2592   -7.4752    0.0000 C   0  0  0  0  0  0  0  0  0  0  0  0
    6.5447   -7.8877    0.0000 C   0  0  0  0  0  0  0  0  0  0  0  0
    5.8303   -7.4752    0.0000 C   0  0  0  0  0  0  0  0  0  0  0  0
    5.1158   -8.7127    0.0000 O   0  0  0  0  0  0  0  0  0  0  0  0
    7.2592   -4.1752    0.0000 O   0  0  0  0  0  0  0  0  0  0  0  0
    8.6881   -5.0002    0.0000 O   0  0  0  0  0  0  0  0  0  0  0  0
    9.4026   -5.4127    0.0000 C   0  0  0  0  0  0  0  0  0  0  0  0
    5.8303   -5.0002    0.0000 O   0  0  0  0  0  0  0  0  0  0  0  0
    5.1158   -5.4127    0.0000 C   0  0  0  0  0  0  0  0  0  0  0  0
    3.6869   -7.8877    0.0000 O   0  0  0  0  0  0  0  0  0  0  0  0
    2.9724   -7.4752    0.0000 C   0  0  0  0  0  0  0  0  0  0  0  0
  1  2  1  0  0  0  0
  2  3  2  0  0  0  0
  3  4  1  0  0  0  0
  4  5  2  0  0  0  0
  5  6  1  0  0  0  0
  6  7  2  0  0  0  0
  7  8  1  0  0  0  0
  8  9  2  0  0  0  0
  9 10  1  0  0  0  0
 10 11  2  0  0  0  0
  6 11  1  0  0  0  0
 11 12  1  0  0  0  0
 12 13  2  0  0  0  0
 13 14  1  0  0  0  0
  1 14  2  0  0  0  0
  5 14  1  0  0  0  0
  1 15  1  0  0  0  0
  8 16  1  0  0  0  0
 17 18  1  0  0  0  0
  9 17  1  0  0  0  0
 19 20  1  0  0  0  0
  7 19  1  0  0  0  0
 21 22  1  0  0  0  0
  2 21  1  0  0  0  0
M  END
>  <cdx:fragmentId>
4662

$$$$
