300151.cdx
  Mrv1902 05222410262D          

 12 12  0  0  0  0            999 V2000
    7.6754   -6.8065    0.0000 C   0  0  0  0  0  0  0  0  0  0  0  0
    7.6754   -7.6315    0.0000 C   0  0  0  0  0  0  0  0  0  0  0  0
    6.9609   -8.0440    0.0000 C   0  0  0  0  0  0  0  0  0  0  0  0
    6.2465   -7.6315    0.0000 C   0  0  0  0  0  0  0  0  0  0  0  0
    6.2465   -6.8065    0.0000 C   0  0  0  0  0  0  0  0  0  0  0  0
    6.9609   -6.3940    0.0000 C   0  0  0  0  0  0  0  0  0  0  0  0
    6.9609   -5.5690    0.0000 C   0  0  0  0  0  0  0  0  0  0  0  0
    8.3899   -8.0440    0.0000 C   0  0  0  0  0  0  0  0  0  0  0  0
    5.8340   -8.3460    0.0000 C   0  0  0  0  0  0  0  0  0  0  0  0
    5.4215   -7.6315    0.0000 C   0  0  0  0  0  0  0  0  0  0  0  0
    8.0879   -6.0920    0.0000 C   0  0  0  0  0  0  0  0  0  0  0  0
    8.5004   -6.8065    0.0000 C   0  0  0  0  0  0  0  0  0  0  0  0
  1  2  1  0  0  0  0
  2  3  1  0  0  0  0
  3  4  1  0  0  0  0
  4  5  1  0  0  0  0
  5  6  1  0  0  0  0
  1  6  1  0  0  0  0
  6  7  2  0  0  0  0
  2  8  2  0  0  0  0
  4  9  1  0  0  0  0
  4 10  1  0  0  0  0
  1 11  1  0  0  0  0
  1 12  1  0  0  0  0
M  END
>  <cdx:fragmentId>
3932

$$$$
