300112.cdx
  Mrv1902 05222410212D          

  8  7  0  0  0  0            999 V2000
    4.4762   -8.0938    0.0000 S   0  0  0  0  0  0  0  0  0  0  0  0
    5.1907   -8.5063    0.0000 C   0  0  0  0  0  0  0  0  0  0  0  0
    5.9052   -8.9188    0.0000 N   0  0  0  0  0  0  0  0  0  0  0  0
    7.3341   -9.7438    0.0000 C   0  0  0  0  0  0  0  0  0  0  0  0
    8.7631   -8.9188    0.0000 C   0  0  0  0  0  0  0  0  0  0  0  0
    8.0486   -8.5063    0.0000 C   0  0  0  0  0  0  0  0  0  0  0  0
    7.3341   -8.9188    0.0000 C   0  0  0  0  0  0  0  0  0  0  0  0
    6.6197   -8.5063    0.0000 C   0  0  0  0  0  0  0  0  0  0  0  0
  8  3  1  0  0  0  0
  2  1  2  0  0  0  0
  3  2  2  0  0  0  0
  7  4  1  0  0  0  0
  6  5  1  0  0  0  0
  7  6  1  0  0  0  0
  8  7  1  0  0  0  0
M  END
>  <cdx:fragmentId>
1990

$$$$
