300175.cdx
  Mrv1902 05222410202D          

 21 20  0  0  0  0            999 V2000
   -0.6000   -8.1905    0.0000 C   0  0  0  0  0  0  0  0  0  0  0  0
    0.1145   -7.7780    0.0000 C   0  0  0  0  0  0  0  0  0  0  0  0
    0.8290   -8.1905    0.0000 C   0  0  0  0  0  0  0  0  0  0  0  0
    1.5434   -7.7780    0.0000 C   0  0  0  0  0  0  0  0  0  0  0  0
    2.2579   -8.1905    0.0000 C   0  0  0  0  0  0  0  0  0  0  0  0
    2.9724   -7.7780    0.0000 C   0  0  0  0  0  0  0  0  0  0  0  0
    3.6869   -8.1905    0.0000 C   0  0  0  0  0  0  0  0  0  0  0  0
    4.4013   -7.7780    0.0000 C   0  0  0  0  0  0  0  0  0  0  0  0
    5.1158   -8.1905    0.0000 C   0  0  0  0  0  0  0  0  0  0  0  0
    5.8303   -7.7780    0.0000 C   0  0  0  0  0  0  0  0  0  0  0  0
    6.5447   -8.1905    0.0000 C   0  0  0  0  0  0  0  0  0  0  0  0
    7.2592   -7.7780    0.0000 C   0  0  0  0  0  0  0  0  0  0  0  0
    7.9737   -8.1905    0.0000 C   0  0  0  0  0  0  0  0  0  0  0  0
    8.6881   -7.7780    0.0000 C   0  0  0  0  0  0  0  0  0  0  0  0
    9.4026   -8.1905    0.0000 C   0  0  0  0  0  0  0  0  0  0  0  0
   10.1171   -7.7780    0.0000 C   0  0  0  0  0  0  0  0  0  0  0  0
   10.8316   -8.1905    0.0000 C   0  0  0  0  0  0  0  0  0  0  0  0
   11.5460   -7.7780    0.0000 C   0  0  0  0  0  0  0  0  0  0  0  0
   12.2605   -8.1905    0.0000 C   0  0  0  0  0  0  0  0  0  0  0  0
   12.9750   -7.7780    0.0000 C   0  0  0  0  0  0  0  0  0  0  0  0
    5.8303   -6.9530    0.0000 C   0  0  0  0  0  0  0  0  0  0  0  0
  1  2  1  0  0  0  0
  2  3  1  0  0  0  0
  3  4  1  0  0  0  0
  4  5  1  0  0  0  0
  5  6  1  0  0  0  0
  6  7  1  0  0  0  0
  7  8  1  0  0  0  0
  8  9  1  0  0  0  0
  9 10  1  0  0  0  0
 10 11  1  0  0  0  0
 11 12  1  0  0  0  0
 12 13  1  0  0  0  0
 13 14  1  0  0  0  0
 14 15  1  0  0  0  0
 15 16  1  0  0  0  0
 16 17  1  0  0  0  0
 17 18  1  0  0  0  0
 18 19  1  0  0  0  0
 19 20  1  0  0  0  0
 10 21  1  0  0  0  0
M  END
>  <cdx:fragmentId>
5319

$$$$
