300122.cdx
  Mrv1902 05222410262D          

 14 15  0  0  0  0            999 V2000
    6.8384   -6.6083    0.0000 C   0  0  0  0  0  0  0  0  0  0  0  0
    6.8384   -7.4333    0.0000 C   0  0  0  0  0  0  0  0  0  0  0  0
    6.1239   -7.8458    0.0000 C   0  0  0  0  0  0  0  0  0  0  0  0
    5.4095   -7.4333    0.0000 C   0  0  0  0  0  0  0  0  0  0  0  0
    5.4095   -6.6083    0.0000 C   0  0  0  0  0  0  0  0  0  0  0  0
    6.1239   -6.1958    0.0000 C   0  0  0  0  0  0  0  0  0  0  0  0
    6.8384   -5.7833    0.0000 O   0  0  0  0  0  0  0  0  0  0  0  0
    7.5529   -7.8458    0.0000 O   0  0  0  0  0  0  0  0  0  0  0  0
    7.5529   -6.1958    0.0000 C   0  0  0  0  0  0  0  0  0  0  0  0
    7.5529   -5.3708    0.0000 C   0  0  0  0  0  0  0  0  0  0  0  0
    8.2674   -4.9583    0.0000 C   0  0  0  0  0  0  0  0  0  0  0  0
    8.9818   -5.3708    0.0000 C   0  0  0  0  0  0  0  0  0  0  0  0
    8.9818   -6.1958    0.0000 C   0  0  0  0  0  0  0  0  0  0  0  0
    8.2674   -6.6083    0.0000 C   0  0  0  0  0  0  0  0  0  0  0  0
  1  2  1  0  0  0  0
  2  3  1  0  0  0  0
  3  4  1  0  0  0  0
  4  5  1  0  0  0  0
  5  6  1  0  0  0  0
  1  6  1  0  0  0  0
  1  7  1  0  0  0  0
  2  8  1  0  0  0  0
  9 10  1  0  0  0  0
 10 11  2  0  0  0  0
 11 12  1  0  0  0  0
 12 13  2  0  0  0  0
 13 14  1  0  0  0  0
  9 14  2  0  0  0  0
  1  9  1  0  0  0  0
M  END
>  <cdx:fragmentId>
2461

$$$$
