300103.cdx
  Mrv1902 05222410232D          

  8  7  0  0  0  0            999 V2000
    5.0522   -7.0152    0.0000 C   0  0  0  0  0  0  0  0  0  0  0  0
    5.7667   -6.6027    0.0000 C   0  0  0  0  0  0  0  0  0  0  0  0
    6.4812   -7.0152    0.0000 C   0  0  0  0  0  0  0  0  0  0  0  0
    7.1956   -6.6027    0.0000 C   0  0  0  0  0  0  0  0  0  0  0  0
    7.9101   -7.0152    0.0000 C   0  0  0  0  0  0  0  0  0  0  0  0
    8.6246   -6.6027    0.0000 C   0  0  0  0  0  0  0  0  0  0  0  0
    8.6246   -5.7777    0.0000 C   0  0  0  0  0  0  0  0  0  0  0  0
    9.3391   -7.0152    0.0000 C   0  0  0  0  0  0  0  0  0  0  0  0
  1  2  2  0  0  0  0
  2  3  1  0  0  0  0
  3  4  1  0  0  0  0
  4  5  1  0  0  0  0
  5  6  1  0  0  0  0
  6  7  1  0  0  0  0
  6  8  1  0  0  0  0
M  END
>  <cdx:fragmentId>
1361

$$$$
