300143.cdx
  Mrv1902 05222410272D          

 13 14  0  0  0  0            999 V2000
    8.2639   -6.0249    0.0000 C   0  0  0  0  0  0  0  0  0  0  0  0
    8.9784   -6.4374    0.0000 C   0  0  0  0  0  0  0  0  0  0  0  0
    8.9784   -7.2624    0.0000 C   0  0  0  0  0  0  0  0  0  0  0  0
    8.2639   -7.6749    0.0000 C   0  0  0  0  0  0  0  0  0  0  0  0
    7.5494   -7.2624    0.0000 C   0  0  0  0  0  0  0  0  0  0  0  0
    6.8350   -7.6749    0.0000 C   0  0  0  0  0  0  0  0  0  0  0  0
    6.1205   -7.2624    0.0000 C   0  0  0  0  0  0  0  0  0  0  0  0
    6.1205   -6.4374    0.0000 C   0  0  0  0  0  0  0  0  0  0  0  0
    6.8350   -6.0249    0.0000 C   0  0  0  0  0  0  0  0  0  0  0  0
    7.5494   -6.4374    0.0000 C   0  0  0  0  0  0  0  0  0  0  0  0
    6.8350   -5.1999    0.0000 C   0  0  0  0  0  0  0  0  0  0  0  0
    5.4060   -7.6749    0.0000 C   0  0  0  0  0  0  0  0  0  0  0  0
    8.2639   -5.1999    0.0000 C   0  0  0  0  0  0  0  0  0  0  0  0
  1  2  1  0  0  0  0
  2  3  1  0  0  0  0
  3  4  1  0  0  0  0
  4  5  1  0  0  0  0
  5  6  1  0  0  0  0
  6  7  2  0  0  0  0
  7  8  1  0  0  0  0
  8  9  2  0  0  0  0
  9 10  1  0  0  0  0
  1 10  1  0  0  0  0
  5 10  2  0  0  0  0
  9 11  1  0  0  0  0
  7 12  1  0  0  0  0
  1 13  1  0  0  0  0
M  END
>  <cdx:fragmentId>
3404

$$$$
