300171.cdx
  Mrv1902 05222410182D          

 17 18  0  0  0  0            999 V2000
    7.4141   -5.3204    0.0000 N   0  0  0  0  0  0  0  0  0  0  0  0
    8.1285   -5.7329    0.0000 C   0  0  0  0  0  0  0  0  0  0  0  0
    8.1285   -6.5579    0.0000 N   0  0  0  0  0  0  0  0  0  0  0  0
    7.4141   -6.9704    0.0000 C   0  0  0  0  0  0  0  0  0  0  0  0
    6.6996   -6.5579    0.0000 C   0  0  0  0  0  0  0  0  0  0  0  0
    5.9851   -6.9704    0.0000 N   0  0  0  0  0  0  0  0  0  0  0  0
    5.2706   -6.5579    0.0000 C   0  0  0  0  0  0  0  0  0  0  0  0
    5.2706   -5.7329    0.0000 C   0  0  0  0  0  0  0  0  0  0  0  0
    5.9851   -5.3204    0.0000 N   0  0  0  0  0  0  0  0  0  0  0  0
    6.6996   -5.7329    0.0000 C   0  0  0  0  0  0  0  0  0  0  0  0
    7.4141   -7.7954    0.0000 O   0  0  0  0  0  0  0  0  0  0  0  0
    4.5562   -6.9704    0.0000 C   0  0  2  0  0  0  0  0  0  0  0  0
    3.8417   -6.5579    0.0000 C   0  0  0  0  0  0  0  0  0  0  0  0
    3.1272   -6.9704    0.0000 C   0  0  0  0  0  0  0  0  0  0  0  0
    3.8417   -5.7329    0.0000 O   0  0  0  0  0  0  0  0  0  0  0  0
    4.5562   -7.7954    0.0000 O   0  0  0  0  0  0  0  0  0  0  0  0
    8.8430   -5.3204    0.0000 N   0  0  0  0  0  0  0  0  0  0  0  0
  1  2  2  0  0  0  0
  2  3  1  0  0  0  0
  3  4  1  0  0  0  0
  4  5  1  0  0  0  0
  5  6  1  0  0  0  0
  6  7  1  0  0  0  0
  7  8  1  0  0  0  0
  8  9  1  0  0  0  0
  9 10  1  0  0  0  0
  1 10  1  0  0  0  0
  5 10  2  0  0  0  0
  4 11  2  0  0  0  0
 12 13  1  0  0  0  0
 13 14  1  0  0  0  0
 13 15  2  0  0  0  0
 12 16  1  1  0  0  0
  7 12  1  0  0  0  0
  2 17  1  0  0  0  0
M  END
>  <cdx:fragmentId>
4955

$$$$
