300169.cdx
  Mrv1902 05222410282D          

 12 11  0  0  0  0            999 V2000
    2.9971   -4.9996    0.0000 C   0  0  0  0  0  0  0  0  0  0  0  0
    3.7116   -5.4121    0.0000 C   0  0  0  0  0  0  0  0  0  0  0  0
    3.7116   -6.2371    0.0000 C   0  0  0  0  0  0  0  0  0  0  0  0
    4.4261   -6.6496    0.0000 C   0  0  0  0  0  0  0  0  0  0  0  0
    4.4261   -7.4746    0.0000 C   0  0  0  0  0  0  0  0  0  0  0  0
    5.1405   -7.8871    0.0000 C   0  0  0  0  0  0  0  0  0  0  0  0
    5.8550   -7.4746    0.0000 C   0  0  0  0  0  0  0  0  0  0  0  0
    6.5695   -7.8871    0.0000 C   0  0  0  0  0  0  0  0  0  0  0  0
    7.2840   -7.4746    0.0000 C   0  0  0  0  0  0  0  0  0  0  0  0
    7.9984   -7.8871    0.0000 C   0  0  0  0  0  0  0  0  0  0  0  0
    8.7129   -7.4746    0.0000 C   0  0  0  0  0  0  0  0  0  0  0  0
    9.4274   -7.8871    0.0000 C   0  0  0  0  0  0  0  0  0  0  0  0
  1  2  2  0  0  0  0
  2  3  1  0  0  0  0
  3  4  1  0  0  0  0
  4  5  1  0  0  0  0
  5  6  2  0  0  0  0
  6  7  1  0  0  0  0
  7  8  2  0  0  0  0
  8  9  1  0  0  0  0
  9 10  1  0  0  0  0
 10 11  1  0  0  0  0
 11 12  1  0  0  0  0
M  END
>  <cdx:fragmentId>
4885

$$$$
