300101.cdx
  Mrv1902 05222410222D          

 24 26  0  0  0  0            999 V2000
    8.9784   -6.4956    0.0000 N   0  0  0  0  0  0  0  0  0  0  0  0
    8.9784   -7.3206    0.0000 C   0  0  0  0  0  0  0  0  0  0  0  0
    8.2639   -7.7331    0.0000 N   0  0  0  0  0  0  0  0  0  0  0  0
    7.5494   -7.3206    0.0000 C   0  0  0  0  0  0  0  0  0  0  0  0
    7.5494   -6.4956    0.0000 C   0  0  0  0  0  0  0  0  0  0  0  0
    8.2639   -6.0831    0.0000 C   0  0  0  0  0  0  0  0  0  0  0  0
    9.6929   -7.7331    0.0000 O   0  0  0  0  0  0  0  0  0  0  0  0
    6.8350   -7.7331    0.0000 O   0  0  0  0  0  0  0  0  0  0  0  0
    8.2639   -5.2581    0.0000 O   0  0  0  0  0  0  0  0  0  0  0  0
    6.8350   -6.0831    0.0000 C   0  0  0  0  0  0  0  0  0  0  0  0
    6.1205   -6.4956    0.0000 C   0  0  0  0  0  0  0  0  0  0  0  0
    6.1205   -7.3206    0.0000 C   0  0  0  0  0  0  0  0  0  0  0  0
    5.4060   -7.7331    0.0000 C   0  0  0  0  0  0  0  0  0  0  0  0
    4.6916   -7.3206    0.0000 C   0  0  0  0  0  0  0  0  0  0  0  0
    4.6916   -6.4956    0.0000 C   0  0  0  0  0  0  0  0  0  0  0  0
    5.4060   -6.0831    0.0000 C   0  0  0  0  0  0  0  0  0  0  0  0
    3.9771   -7.7331    0.0000 O   0  0  0  0  0  0  0  0  0  0  0  0
    3.2626   -7.3206    0.0000 C   0  0  0  0  0  0  0  0  0  0  0  0
    9.6929   -6.0831    0.0000 C   0  0  0  0  0  0  0  0  0  0  0  0
    9.6929   -5.2581    0.0000 C   0  0  0  0  0  0  0  0  0  0  0  0
   10.4073   -4.8456    0.0000 C   0  0  0  0  0  0  0  0  0  0  0  0
   11.1218   -5.2581    0.0000 C   0  0  0  0  0  0  0  0  0  0  0  0
   11.1218   -6.0831    0.0000 C   0  0  0  0  0  0  0  0  0  0  0  0
   10.4073   -6.4956    0.0000 C   0  0  0  0  0  0  0  0  0  0  0  0
  1  2  1  0  0  0  0
  2  3  1  0  0  0  0
  3  4  1  0  0  0  0
  4  5  1  0  0  0  0
  5  6  1  0  0  0  0
  1  6  1  0  0  0  0
  2  7  2  0  0  0  0
  4  8  2  0  0  0  0
  6  9  2  0  0  0  0
 11 12  1  0  0  0  0
 12 13  2  0  0  0  0
 13 14  1  0  0  0  0
 14 15  2  0  0  0  0
 15 16  1  0  0  0  0
 11 16  2  0  0  0  0
 17 18  1  0  0  0  0
 14 17  1  0  0  0  0
 10 11  1  0  0  0  0
  5 10  1  0  0  0  0
 19 20  1  0  0  0  0
 20 21  1  0  0  0  0
 21 22  1  0  0  0  0
 22 23  1  0  0  0  0
 23 24  1  0  0  0  0
 19 24  1  0  0  0  0
  1 19  1  0  0  0  0
M  END
>  <cdx:fragmentId>
1270

$$$$
