300102.cdx
  Mrv1902 05222410222D          

 11 10  0  0  0  0            999 V2000
    4.4786   -6.1958    0.0000 C   0  0  0  0  0  0  0  0  0  0  0  0
    5.1930   -6.6083    0.0000 C   0  0  0  0  0  0  0  0  0  0  0  0
    5.9075   -6.1958    0.0000 C   0  0  0  0  0  0  0  0  0  0  0  0
    6.6220   -6.6083    0.0000 C   0  0  0  0  0  0  0  0  0  0  0  0
    7.3365   -6.1958    0.0000 C   0  0  0  0  0  0  0  0  0  0  0  0
    8.0509   -6.6083    0.0000 C   0  0  0  0  0  0  0  0  0  0  0  0
    8.7654   -6.1958    0.0000 C   0  0  0  0  0  0  0  0  0  0  0  0
    9.4799   -6.6083    0.0000 C   0  0  0  0  0  0  0  0  0  0  0  0
   10.1943   -6.1958    0.0000 C   0  0  0  0  0  0  0  0  0  0  0  0
   10.9088   -6.6083    0.0000 C   0  0  0  0  0  0  0  0  0  0  0  0
    3.7641   -6.6083    0.0000 S   0  0  0  0  0  0  0  0  0  0  0  0
  1  2  1  0  0  0  0
  2  3  1  0  0  0  0
  3  4  1  0  0  0  0
  4  5  1  0  0  0  0
  5  6  1  0  0  0  0
  6  7  1  0  0  0  0
  7  8  1  0  0  0  0
  8  9  1  0  0  0  0
  9 10  1  0  0  0  0
  1 11  1  0  0  0  0
M  END
>  <cdx:fragmentId>
1328

$$$$
