300116.cdx
  Mrv1902 05222410222D          

  9  9  0  0  0  0            999 V2000
    7.8147   -6.0328    0.0000 C   0  0  0  0  0  0  0  0  0  0  0  0
    7.8147   -6.8578    0.0000 C   0  0  0  0  0  0  0  0  0  0  0  0
    7.2313   -7.4412    0.0000 C   0  0  0  0  0  0  0  0  0  0  0  0
    6.4063   -7.4412    0.0000 C   0  0  0  0  0  0  0  0  0  0  0  0
    5.8229   -6.8578    0.0000 C   0  0  0  0  0  0  0  0  0  0  0  0
    5.8229   -6.0328    0.0000 C   0  0  0  0  0  0  0  0  0  0  0  0
    6.4063   -5.4494    0.0000 C   0  0  0  0  0  0  0  0  0  0  0  0
    7.2313   -5.4494    0.0000 C   0  0  0  0  0  0  0  0  0  0  0  0
    8.5769   -5.7171    0.0000 C   0  0  0  0  0  0  0  0  0  0  0  0
  1  2  2  0  0  0  0
  2  3  1  0  0  0  0
  3  4  1  0  0  0  0
  4  5  1  0  0  0  0
  5  6  1  0  0  0  0
  6  7  1  0  0  0  0
  7  8  1  0  0  0  0
  1  8  1  0  0  0  0
  1  9  1  0  0  0  0
M  END
>  <cdx:fragmentId>
2225

$$$$
