300145.cdx
  Mrv1902 05222410262D          

 19 21  0  0  0  0            999 V2000
    7.9445   -7.2689    0.0000 C   0  0  0  0  0  0  0  0  0  0  0  0
    7.9445   -6.4439    0.0000 C   0  0  0  0  0  0  0  0  0  0  0  0
    7.2300   -6.0314    0.0000 O   0  0  0  0  0  0  0  0  0  0  0  0
    6.5156   -6.4439    0.0000 C   0  0  0  0  0  0  0  0  0  0  0  0
    6.5156   -7.2689    0.0000 C   0  0  0  0  0  0  0  0  0  0  0  0
    7.2300   -7.6814    0.0000 O   0  0  0  0  0  0  0  0  0  0  0  0
    8.6590   -6.0314    0.0000 C   0  0  0  0  0  0  0  0  0  0  0  0
    9.3734   -6.4439    0.0000 C   0  0  0  0  0  0  0  0  0  0  0  0
    9.3734   -7.2689    0.0000 C   0  0  0  0  0  0  0  0  0  0  0  0
    8.6590   -7.6814    0.0000 C   0  0  0  0  0  0  0  0  0  0  0  0
    5.8011   -7.6814    0.0000 C   0  0  0  0  0  0  0  0  0  0  0  0
    5.0866   -7.2689    0.0000 C   0  0  0  0  0  0  0  0  0  0  0  0
    5.0866   -6.4439    0.0000 C   0  0  0  0  0  0  0  0  0  0  0  0
    5.8011   -6.0314    0.0000 C   0  0  0  0  0  0  0  0  0  0  0  0
    4.3721   -6.0314    0.0000 Cl  0  0  0  0  0  0  0  0  0  0  0  0
    4.3721   -7.6814    0.0000 Cl  0  0  0  0  0  0  0  0  0  0  0  0
   10.0879   -7.6814    0.0000 Cl  0  0  0  0  0  0  0  0  0  0  0  0
   10.0879   -6.0314    0.0000 Cl  0  0  0  0  0  0  0  0  0  0  0  0
    8.6590   -5.2064    0.0000 Cl  0  0  0  0  0  0  0  0  0  0  0  0
  1  2  1  0  0  0  0
  2  3  1  0  0  0  0
  3  4  1  0  0  0  0
  4  5  1  0  0  0  0
  5  6  1  0  0  0  0
  1  6  1  0  0  0  0
  7  8  1  0  0  0  0
  8  9  2  0  0  0  0
  9 10  1  0  0  0  0
  1 10  2  0  0  0  0
  2  7  2  0  0  0  0
 11 12  1  0  0  0  0
 12 13  2  0  0  0  0
 13 14  1  0  0  0  0
  4 14  2  0  0  0  0
  5 11  2  0  0  0  0
 13 15  1  0  0  0  0
 12 16  1  0  0  0  0
  9 17  1  0  0  0  0
  8 18  1  0  0  0  0
  7 19  1  0  0  0  0
M  END
>  <cdx:fragmentId>
3523

$$$$
