300195.cdx
  Mrv1902 05222410272D          

 23 22  0  0  0  0            999 V2000
    1.5284   -9.0083    0.0000 C   0  0  0  0  0  0  0  0  0  0  0  0
    2.2428   -8.5958    0.0000 O   0  0  0  0  0  0  0  0  0  0  0  0
    2.9573   -9.8333    0.0000 O   0  0  0  0  0  0  0  0  0  0  0  0
   16.5323   -8.5958    0.0000 C   0  0  0  0  0  0  0  0  0  0  0  0
   15.8178   -9.0083    0.0000 C   0  0  0  0  0  0  0  0  0  0  0  0
   15.1033   -8.5958    0.0000 C   0  0  0  0  0  0  0  0  0  0  0  0
   14.3888   -9.0083    0.0000 C   0  0  0  0  0  0  0  0  0  0  0  0
   13.6744   -8.5958    0.0000 C   0  0  0  0  0  0  0  0  0  0  0  0
   12.9599   -9.0083    0.0000 C   0  0  0  0  0  0  0  0  0  0  0  0
   12.2454   -8.5958    0.0000 C   0  0  0  0  0  0  0  0  0  0  0  0
   11.5310   -9.0083    0.0000 C   0  0  0  0  0  0  0  0  0  0  0  0
   10.8165   -8.5958    0.0000 C   0  0  0  0  0  0  0  0  0  0  0  0
   10.1020   -9.0083    0.0000 C   0  0  0  0  0  0  0  0  0  0  0  0
    9.3875   -8.5958    0.0000 C   0  0  0  0  0  0  0  0  0  0  0  0
    8.6731   -9.0083    0.0000 C   0  0  0  0  0  0  0  0  0  0  0  0
    7.9586   -8.5958    0.0000 C   0  0  0  0  0  0  0  0  0  0  0  0
    7.2441   -9.0083    0.0000 C   0  0  0  0  0  0  0  0  0  0  0  0
    6.5297   -8.5958    0.0000 C   0  0  0  0  0  0  0  0  0  0  0  0
    5.8152   -9.0083    0.0000 C   0  0  0  0  0  0  0  0  0  0  0  0
    5.1007   -8.5958    0.0000 C   0  0  0  0  0  0  0  0  0  0  0  0
    4.3863   -9.0083    0.0000 C   0  0  0  0  0  0  0  0  0  0  0  0
    3.6718   -8.5958    0.0000 C   0  0  0  0  0  0  0  0  0  0  0  0
    2.9573   -9.0083    0.0000 C   0  0  0  0  0  0  0  0  0  0  0  0
  2  1  1  0  0  0  0
 23  2  1  0  0  0  0
 23  3  2  0  0  0  0
  5  4  1  0  0  0  0
  6  5  1  0  0  0  0
  7  6  1  0  0  0  0
  8  7  1  0  0  0  0
  9  8  1  0  0  0  0
 10  9  1  0  0  0  0
 11 10  2  0  0  0  0
 12 11  1  0  0  0  0
 13 12  2  0  0  0  0
 14 13  1  0  0  0  0
 15 14  1  0  0  0  0
 16 15  1  0  0  0  0
 17 16  1  0  0  0  0
 18 17  1  0  0  0  0
 19 18  1  0  0  0  0
 20 19  1  0  0  0  0
 21 20  1  0  0  0  0
 22 21  1  0  0  0  0
 23 22  1  0  0  0  0
M  END
>  <cdx:fragmentId>
1074

$$$$
