300196.cdx
  Mrv1902 05222410282D          

 21 23  0  0  0  0            999 V2000
    4.8019   -9.9523    0.0000 N   0  0  0  0  0  0  0  0  0  0  0  0
    4.0586   -9.5943    0.0000 C   0  0  0  0  0  0  0  0  0  0  0  0
    3.8751   -8.7900    0.0000 C   0  0  0  0  0  0  0  0  0  0  0  0
    4.3894   -8.1450    0.0000 N   0  0  0  0  0  0  0  0  0  0  0  0
    5.2144   -8.1450    0.0000 N   0  0  0  0  0  0  0  0  0  0  0  0
    5.7288   -8.7900    0.0000 C   0  0  0  0  0  0  0  0  0  0  0  0
    5.5452   -9.5943    0.0000 C   0  0  0  0  0  0  0  0  0  0  0  0
    6.5172   -8.5468    0.0000 C   0  0  0  0  0  0  0  0  0  0  0  0
    7.1219   -9.1080    0.0000 C   0  0  0  0  0  0  0  0  0  0  0  0
    6.9384   -9.9123    0.0000 C   0  0  0  0  0  0  0  0  0  0  0  0
    6.1500  -10.1554    0.0000 C   0  0  0  0  0  0  0  0  0  0  0  0
    3.0867   -8.5468    0.0000 C   0  0  0  0  0  0  0  0  0  0  0  0
    2.4819   -9.1080    0.0000 C   0  0  0  0  0  0  0  0  0  0  0  0
    2.6655   -9.9123    0.0000 C   0  0  0  0  0  0  0  0  0  0  0  0
    3.4539  -10.1554    0.0000 C   0  0  0  0  0  0  0  0  0  0  0  0
    5.6269   -7.4305    0.0000 O   0  0  0  0  0  0  0  0  0  0  0  0
    4.3894  -10.6667    0.0000 C   0  0  0  0  0  0  0  0  0  0  0  0
    4.8019  -11.3812    0.0000 C   0  0  0  0  0  0  0  0  0  0  0  0
    4.3894  -12.0957    0.0000 C   0  0  0  0  0  0  0  0  0  0  0  0
    4.9728  -12.6790    0.0000 N   0  0  0  0  0  0  0  0  0  0  0  0
    4.7593  -13.4759    0.0000 C   0  0  0  0  0  0  0  0  0  0  0  0
  1  2  1  0  0  0  0
  2  3  1  0  0  0  0
  3  4  1  0  0  0  0
  4  5  1  0  0  0  0
  5  6  1  0  0  0  0
  6  7  1  0  0  0  0
  1  7  1  0  0  0  0
  8  9  1  0  0  0  0
  9 10  2  0  0  0  0
 10 11  1  0  0  0  0
  7 11  2  0  0  0  0
  6  8  2  0  0  0  0
 12 13  1  0  0  0  0
 13 14  2  0  0  0  0
 14 15  1  0  0  0  0
  2 15  1  0  0  0  0
  3 12  2  0  0  0  0
  5 16  2  0  0  0  0
  1 17  1  0  0  0  0
 17 18  1  0  0  0  0
 18 19  1  0  0  0  0
 19 20  1  0  0  0  0
 20 21  1  0  0  0  0
M  END
>  <cdx:fragmentId>
1147

$$$$
