300166.cdx
  Mrv1902 05222410192D          

 26 27  0  0  0  0            999 V2000
    4.0441   -6.0314    0.0000 C   0  0  0  0  0  0  0  0  0  0  0  0
    4.7586   -6.4439    0.0000 C   0  0  0  0  0  0  0  0  0  0  0  0
    5.4730   -6.0314    0.0000 C   0  0  0  0  0  0  0  0  0  0  0  0
    6.1875   -6.4439    0.0000 C   0  0  0  0  0  0  0  0  0  0  0  0
    6.9020   -6.0314    0.0000 C   0  0  0  0  0  0  0  0  0  0  0  0
    7.6164   -6.4439    0.0000 C   0  0  0  0  0  0  0  0  0  0  0  0
    8.3309   -6.0314    0.0000 C   0  0  0  0  0  0  0  0  0  0  0  0
    5.4730   -5.2064    0.0000 O   0  0  0  0  0  0  0  0  0  0  0  0
    9.0454   -6.4439    0.0000 C   0  0  0  0  0  0  0  0  0  0  0  0
    9.7599   -6.0314    0.0000 C   0  0  0  0  0  0  0  0  0  0  0  0
   10.4743   -6.4439    0.0000 C   0  0  0  0  0  0  0  0  0  0  0  0
   10.4743   -7.2689    0.0000 C   0  0  0  0  0  0  0  0  0  0  0  0
    9.7599   -7.6814    0.0000 C   0  0  0  0  0  0  0  0  0  0  0  0
    9.0454   -7.2689    0.0000 C   0  0  0  0  0  0  0  0  0  0  0  0
   11.1888   -6.0314    0.0000 O   0  0  0  0  0  0  0  0  0  0  0  0
   11.9033   -6.4439    0.0000 C   0  0  0  0  0  0  0  0  0  0  0  0
   11.1888   -7.6814    0.0000 O   0  0  0  0  0  0  0  0  0  0  0  0
    3.3296   -6.4439    0.0000 C   0  0  0  0  0  0  0  0  0  0  0  0
    2.6151   -6.0314    0.0000 C   0  0  0  0  0  0  0  0  0  0  0  0
    1.9007   -6.4439    0.0000 C   0  0  0  0  0  0  0  0  0  0  0  0
    1.9007   -7.2689    0.0000 C   0  0  0  0  0  0  0  0  0  0  0  0
    2.6151   -7.6814    0.0000 C   0  0  0  0  0  0  0  0  0  0  0  0
    3.3296   -7.2689    0.0000 C   0  0  0  0  0  0  0  0  0  0  0  0
    1.1862   -6.0314    0.0000 O   0  0  0  0  0  0  0  0  0  0  0  0
    0.4717   -6.4439    0.0000 C   0  0  0  0  0  0  0  0  0  0  0  0
    1.1862   -7.6814    0.0000 O   0  0  0  0  0  0  0  0  0  0  0  0
  1  2  1  0  0  0  0
  2  3  1  0  0  0  0
  3  4  1  0  0  0  0
  4  5  1  0  0  0  0
  5  6  1  0  0  0  0
  6  7  1  0  0  0  0
  3  8  2  0  0  0  0
  9 10  1  0  0  0  0
 10 11  2  0  0  0  0
 11 12  1  0  0  0  0
 12 13  2  0  0  0  0
 13 14  1  0  0  0  0
  9 14  2  0  0  0  0
 15 16  1  0  0  0  0
 11 15  1  0  0  0  0
 12 17  1  0  0  0  0
  7  9  1  0  0  0  0
 18 19  1  0  0  0  0
 19 20  2  0  0  0  0
 20 21  1  0  0  0  0
 21 22  2  0  0  0  0
 22 23  1  0  0  0  0
 18 23  2  0  0  0  0
 24 25  1  0  0  0  0
 20 24  1  0  0  0  0
 21 26  1  0  0  0  0
  1 18  1  0  0  0  0
M  END
>  <cdx:fragmentId>
4751

$$$$
