300105.cdx
  Mrv1902 05222410212D          

 36 38  0  0  0  0            999 V2000
    8.1248  -12.6346    0.0000 C   0  0  0  0  0  0  0  0  0  0  0  0
    8.1248  -13.4596    0.0000 C   0  0  0  0  0  0  0  0  0  0  0  0
    8.8393  -13.8721    0.0000 C   0  0  0  0  0  0  0  0  0  0  0  0
    8.8393  -12.2221    0.0000 O   0  0  0  0  0  0  0  0  0  0  0  0
    5.9113  -11.2395    0.0000 C   0  0  2  0  0  0  0  0  0  0  0  0
    6.0828  -12.0465    0.0000 O   0  0  0  0  0  0  0  0  0  0  0  0
    5.2982  -11.7915    0.0000 C   0  0  0  0  0  0  0  0  0  0  0  0
    6.6959  -11.8096    0.0000 H   0  0  0  0  0  0  0  0  0  0  0  0
    8.8393   -7.2721    0.0000 C   0  0  0  0  0  0  0  0  0  0  0  0
    7.4104   -7.2721    0.0000 O   0  0  0  0  0  0  0  0  0  0  0  0
    8.1248   -7.6846    0.0000 C   0  0  0  0  0  0  0  0  0  0  0  0
    8.1248   -8.5096    0.0000 O   0  0  0  0  0  0  0  0  0  0  0  0
    7.4104   -8.9221    0.0000 C   0  0  0  0  0  0  0  0  0  0  0  0
    7.4104  -12.2221    0.0000 O   0  0  0  0  0  0  0  0  0  0  0  0
    5.4263  -10.5721    0.0000 C   0  0  2  0  0  0  0  0  0  0  0  0
    5.9113   -9.9046    0.0000 C   0  0  0  0  0  0  0  0  0  0  0  0
    8.1248  -10.9846    0.0000 O   0  0  0  0  0  0  0  0  0  0  0  0
    8.1248  -10.1596    0.0000 C   0  0  0  0  0  0  0  0  0  0  0  0
    7.4104   -9.7471    0.0000 C   0  0  0  0  0  0  0  0  0  0  0  0
    6.6959  -10.1596    0.0000 C   0  0  0  0  0  0  0  0  0  0  0  0
    6.6959  -10.9846    0.0000 C   0  0  2  0  0  0  0  0  0  0  0  0
    7.4104  -11.3971    0.0000 C   0  0  2  0  0  0  0  0  0  0  0  0
    4.6013  -10.5721    0.0000 O   0  0  0  0  0  0  0  0  0  0  0  0
    3.8908   -9.3323    0.0000 O   0  0  0  0  0  0  0  0  0  0  0  0
    3.1724  -10.5675    0.0000 C   0  0  0  0  0  0  0  0  0  0  0  0
    3.8882  -10.1573    0.0000 C   0  0  0  0  0  0  0  0  0  0  0  0
    8.8393  -14.6971    0.0000 C   0  0  0  0  0  0  0  0  0  0  0  0
    9.5538  -13.4596    0.0000 C   0  0  0  0  0  0  0  0  0  0  0  0
    9.5538  -15.1096    0.0000 C   0  0  0  0  0  0  0  0  0  0  0  0
    9.5538   -7.6846    0.0000 O   0  0  0  0  0  0  0  0  0  0  0  0
    8.8393   -6.4471    0.0000 C   0  0  0  0  0  0  0  0  0  0  0  0
    9.5538   -6.0346    0.0000 C   0  0  0  0  0  0  0  0  0  0  0  0
    8.1248   -6.0346    0.0000 C   0  0  0  0  0  0  0  0  0  0  0  0
   10.2682   -7.2721    0.0000 C   0  0  0  0  0  0  0  0  0  0  0  0
   10.9827   -7.6846    0.0000 C   0  0  0  0  0  0  0  0  0  0  0  0
   10.2682   -6.4471    0.0000 O   0  0  0  0  0  0  0  0  0  0  0  0
 21  8  1  1  0  0  0
 15 23  1  1  0  0  0
 19 13  1  0  0  0  0
 13 12  1  0  0  0  0
 12 11  1  0  0  0  0
 11  9  1  0  0  0  0
 11 10  2  0  0  0  0
 22 14  1  1  0  0  0
 14  1  1  0  0  0  0
 20 16  2  0  0  0  0
 21  5  1  0  0  0  0
 15  5  1  0  0  0  0
 16 15  1  0  0  0  0
 22 17  1  0  0  0  0
 18 17  1  0  0  0  0
 19 18  2  0  0  0  0
 20 19  1  0  0  0  0
 21 20  1  0  0  0  0
 22 21  1  0  0  0  0
 26 23  1  0  0  0  0
 26 24  2  0  0  0  0
 26 25  1  0  0  0  0
  1  2  1  0  0  0  0
  2  3  1  0  0  0  0
  1  4  2  0  0  0  0
  6  7  1  0  0  0  0
  5  6  1  6  0  0  0
  5  7  1  0  0  0  0
  3 27  1  0  0  0  0
  3 28  1  0  0  0  0
 27 29  1  0  0  0  0
  9 30  1  0  0  0  0
  9 31  1  0  0  0  0
 31 32  1  0  0  0  0
 31 33  1  0  0  0  0
 30 34  1  0  0  0  0
 34 35  1  0  0  0  0
 34 36  2  0  0  0  0
M  END
>  <cdx:fragmentId>
11516

$$$$
