30015.cdx
  Mrv1902 05222410232D          

 15 16  0  0  0  0            999 V2000
    6.9566  -11.4835    0.0000 C   0  0  1  0  0  0  0  0  0  0  0  0
    6.1474  -11.3226    0.0000 C   0  0  0  0  0  0  0  0  0  0  0  0
    5.7688  -10.5896    0.0000 C   0  0  0  0  0  0  0  0  0  0  0  0
    6.1057   -9.8366    0.0000 C   0  0  0  0  0  0  0  0  0  0  0  0
    6.9046   -9.6305    0.0000 C   0  0  0  0  0  0  0  0  0  0  0  0
    7.5638  -10.1266    0.0000 C   0  0  0  0  0  0  0  0  0  0  0  0
    7.5869  -10.9513    0.0000 C   0  0  0  0  0  0  0  0  0  0  0  0
    8.3409   -9.8497    0.0000 C   0  0  1  0  0  0  0  0  0  0  0  0
    8.8444  -10.5033    0.0000 C   0  0  0  0  0  0  0  0  0  0  0  0
    8.3767  -11.1841    0.0000 C   0  0  0  0  0  0  0  0  0  0  0  0
    5.5735   -9.2062    0.0000 C   0  0  0  0  0  0  0  0  0  0  0  0
    5.7656   -8.4039    0.0000 C   0  0  0  0  0  0  0  0  0  0  0  0
    4.7488   -9.2283    0.0000 C   0  0  0  0  0  0  0  0  0  0  0  0
    7.1626  -12.2824    0.0000 C   0  0  0  0  0  0  0  0  0  0  0  0
    8.5738   -9.0583    0.0000 C   0  0  0  0  0  0  0  0  0  0  0  0
  1  2  1  0  0  0  0
  2  3  1  0  0  0  0
  3  4  1  0  0  0  0
  4  5  1  0  0  0  0
  5  6  1  0  0  0  0
  6  7  2  0  0  0  0
  7  1  1  0  0  0  0
  6  8  1  0  0  0  0
  8  9  1  0  0  0  0
  9 10  1  0  0  0  0
 10  7  1  0  0  0  0
  4 11  2  0  0  0  0
 11 12  1  0  0  0  0
 11 13  1  0  0  0  0
  1 14  1  1  0  0  0
  8 15  1  6  0  0  0
M  END
>  <cdx:fragmentId>
5

$$$$
