300131.cdx
  Mrv1902 05222410242D          

 14 14  0  0  0  0            999 V2000
    7.9136   -5.6203    0.0000 Si  0  0  0  0  0  0  0  0  0  0  0  0
    7.1991   -6.0328    0.0000 C   0  0  0  0  0  0  0  0  0  0  0  0
    7.1991   -6.8578    0.0000 C   0  0  0  0  0  0  0  0  0  0  0  0
    6.4846   -7.2703    0.0000 C   0  0  0  0  0  0  0  0  0  0  0  0
    5.7701   -6.8578    0.0000 C   0  0  0  0  0  0  0  0  0  0  0  0
    5.7701   -6.0328    0.0000 C   0  0  0  0  0  0  0  0  0  0  0  0
    6.4846   -5.6203    0.0000 C   0  0  0  0  0  0  0  0  0  0  0  0
    7.9136   -7.2703    0.0000 Si  0  0  0  0  0  0  0  0  0  0  0  0
    7.9136   -8.0953    0.0000 C   0  0  0  0  0  0  0  0  0  0  0  0
    8.6280   -7.6828    0.0000 C   0  0  0  0  0  0  0  0  0  0  0  0
    8.6280   -6.8578    0.0000 C   0  0  0  0  0  0  0  0  0  0  0  0
    8.6280   -5.2078    0.0000 C   0  0  0  0  0  0  0  0  0  0  0  0
    7.9136   -4.7953    0.0000 C   0  0  0  0  0  0  0  0  0  0  0  0
    8.6280   -6.0328    0.0000 C   0  0  0  0  0  0  0  0  0  0  0  0
  2  3  1  0  0  0  0
  3  4  2  0  0  0  0
  4  5  1  0  0  0  0
  5  6  2  0  0  0  0
  6  7  1  0  0  0  0
  2  7  2  0  0  0  0
  8  9  1  0  0  0  0
  8 10  1  0  0  0  0
  8 11  1  0  0  0  0
  3  8  1  0  0  0  0
  1  2  1  0  0  0  0
  1 12  1  0  0  0  0
  1 13  1  0  0  0  0
  1 14  1  0  0  0  0
M  END
>  <cdx:fragmentId>
2876

$$$$
