300124.cdx
  Mrv1902 05222410242D          

 11 11  0  0  0  0            999 V2000
    6.8780   -6.7453    0.0000 C   0  0  0  0  0  0  0  0  0  0  0  0
    6.1633   -6.3332    0.0000 C   0  0  0  0  0  0  0  0  0  0  0  0
    6.1628   -5.5082    0.0000 C   0  0  0  0  0  0  0  0  0  0  0  0
    7.5922   -6.3324    0.0000 O   0  0  0  0  0  0  0  0  0  0  0  0
    6.8785   -7.5703    0.0000 C   0  0  0  0  0  0  0  0  0  0  0  0
    7.5932   -7.9824    0.0000 C   0  0  0  0  0  0  0  0  0  0  0  0
    7.5937   -8.8074    0.0000 C   0  0  0  0  0  0  0  0  0  0  0  0
    6.8795   -9.2203    0.0000 C   0  0  0  0  0  0  0  0  0  0  0  0
    6.1648   -8.8082    0.0000 C   0  0  0  0  0  0  0  0  0  0  0  0
    6.1643   -7.9832    0.0000 C   0  0  0  0  0  0  0  0  0  0  0  0
    6.8800  -10.0453    0.0000 N   0  0  0  0  0  0  0  0  0  0  0  0
  1  2  1  0  0  0  0
  2  3  1  0  0  0  0
  1  4  2  0  0  0  0
  5  6  1  0  0  0  0
  6  7  2  0  0  0  0
  7  8  1  0  0  0  0
  8  9  2  0  0  0  0
  9 10  1  0  0  0  0
  5 10  2  0  0  0  0
  8 11  1  0  0  0  0
  1  5  1  0  0  0  0
M  END
>  <cdx:fragmentId>
2543

$$$$
