300160.cdx
  Mrv1902 05222410202D          

 11 12  0  0  0  0            999 V2000
    5.5968   -3.9669    0.0000 C   0  0  0  0  0  0  0  0  0  0  0  0
    5.5968   -4.7919    0.0000 C   0  0  0  0  0  0  0  0  0  0  0  0
    6.3113   -5.2044    0.0000 C   0  0  0  0  0  0  0  0  0  0  0  0
    7.0257   -4.7919    0.0000 C   0  0  0  0  0  0  0  0  0  0  0  0
    7.0257   -3.9669    0.0000 C   0  0  0  0  0  0  0  0  0  0  0  0
    6.3113   -3.5544    0.0000 C   0  0  0  0  0  0  0  0  0  0  0  0
    7.7402   -5.2044    0.0000 C   0  0  0  0  0  0  0  0  0  0  0  0
    8.4547   -4.7919    0.0000 S   0  0  0  0  0  0  0  0  0  0  0  0
    8.4547   -3.9669    0.0000 O   0  0  0  0  0  0  0  0  0  0  0  0
    7.7402   -3.5544    0.0000 C   0  0  0  0  0  0  0  0  0  0  0  0
    9.1691   -5.2044    0.0000 O   0  0  0  0  0  0  0  0  0  0  0  0
  1  2  2  0  0  0  0
  2  3  1  0  0  0  0
  3  4  2  0  0  0  0
  4  5  1  0  0  0  0
  5  6  2  0  0  0  0
  6  1  1  0  0  0  0
  4  7  1  0  0  0  0
  7  8  1  0  0  0  0
  8  9  1  0  0  0  0
  9 10  1  0  0  0  0
 10  5  1  0  0  0  0
  8 11  2  0  0  0  0
M  END
>  <cdx:fragmentId>
4455

$$$$
