300100.cdx
  Mrv1902 05222410222D          

  8  8  0  0  0  0            999 V2000
    7.5574   -6.2555    0.0000 C   0  0  0  0  0  0  0  0  0  0  0  0
    8.2805   -6.6528    0.0000 C   0  0  0  0  0  0  0  0  0  0  0  0
    8.2980   -7.4776    0.0000 C   0  0  0  0  0  0  0  0  0  0  0  0
    7.5924   -7.9052    0.0000 C   0  0  0  0  0  0  0  0  0  0  0  0
    6.8693   -7.5079    0.0000 C   0  0  0  0  0  0  0  0  0  0  0  0
    6.8519   -6.6831    0.0000 C   0  0  0  0  0  0  0  0  0  0  0  0
    7.5399   -5.4307    0.0000 C   0  0  0  0  0  0  0  0  0  0  0  0
    6.8169   -5.0334    0.0000 O   0  0  0  0  0  0  0  0  0  0  0  0
  1  2  2  0  0  0  0
  2  3  1  0  0  0  0
  3  4  1  0  0  0  0
  4  5  1  0  0  0  0
  5  6  1  0  0  0  0
  1  6  1  0  0  0  0
  7  8  2  0  0  0  0
  1  7  1  0  0  0  0
M  END
>  <cdx:fragmentId>
1226

$$$$
