3001.cdx
  Mrv1902 05222410242D          

 18 18  0  0  0  0            999 V2000
    3.6127   -7.6106    0.0000 C   0  0  0  0  0  0  0  0  0  0  0  0
    3.6127   -8.4356    0.0000 C   0  0  0  0  0  0  0  0  0  0  0  0
    4.3271   -8.8481    0.0000 C   0  0  0  0  0  0  0  0  0  0  0  0
    5.0416   -8.4356    0.0000 C   0  0  0  0  0  0  0  0  0  0  0  0
    5.0416   -7.6106    0.0000 C   0  0  0  0  0  0  0  0  0  0  0  0
    4.3271   -7.1981    0.0000 C   0  0  0  0  0  0  0  0  0  0  0  0
    2.8982   -7.1981    0.0000 O   0  0  0  0  0  0  0  0  0  0  0  0
    2.8982   -8.8481    0.0000 O   0  0  0  0  0  0  0  0  0  0  0  0
    5.7561   -7.1981    0.0000 C   0  0  0  0  0  0  0  0  0  0  0  0
    6.4705   -7.6106    0.0000 C   0  0  0  0  0  0  0  0  0  0  0  0
    7.1850   -7.1981    0.0000 C   0  0  0  0  0  0  0  0  0  0  0  0
    7.8995   -7.6106    0.0000 C   0  0  0  0  0  0  0  0  0  0  0  0
    8.6140   -7.1981    0.0000 C   0  0  0  0  0  0  0  0  0  0  0  0
    9.3284   -7.6106    0.0000 C   0  0  0  0  0  0  0  0  0  0  0  0
   10.0429   -7.1981    0.0000 C   0  0  0  0  0  0  0  0  0  0  0  0
    7.1850   -6.3731    0.0000 O   0  0  0  0  0  0  0  0  0  0  0  0
    8.6140   -6.3731    0.0000 O   0  0  0  0  0  0  0  0  0  0  0  0
    2.1837   -7.6106    0.0000 C   0  0  0  0  0  0  0  0  0  0  0  0
  1  2  2  0  0  0  0
  2  3  1  0  0  0  0
  3  4  2  0  0  0  0
  4  5  1  0  0  0  0
  5  6  2  0  0  0  0
  6  1  1  0  0  0  0
  1  7  1  0  0  0  0
  2  8  1  0  0  0  0
  5  9  1  0  0  0  0
  9 10  2  0  0  0  0
 10 11  1  0  0  0  0
 11 12  1  0  0  0  0
 12 13  1  0  0  0  0
 13 14  1  0  0  0  0
 14 15  1  0  0  0  0
 11 16  2  0  0  0  0
 13 17  2  0  0  0  0
  7 18  1  0  0  0  0
M  END
>  <cdx:fragmentId>
5

$$$$
