300191.cdx
  Mrv1902 05222410262D          

 27 29  0  0  0  0            999 V2000
    5.5708  -10.1095    0.0000 C   0  0  0  0  0  0  0  0  0  0  0  0
    4.8558   -9.6978    0.0000 C   0  0  0  0  0  0  0  0  0  0  0  0
    4.1418  -10.1110    0.0000 C   0  0  0  0  0  0  0  0  0  0  0  0
    3.4269   -9.6993    0.0000 C   0  0  0  0  0  0  0  0  0  0  0  0
    7.7119   -8.0446    0.0000 H   0  0  0  0  0  0  0  0  0  0  0  0
    9.8567   -9.2797    0.0000 H   0  0  0  0  0  0  0  0  0  0  0  0
    6.9970   -7.6329    0.0000 O   0  0  0  0  0  0  0  0  0  0  0  0
    9.9676   -9.6921    0.0000 C   0  0  0  0  0  0  0  0  0  0  0  0
    9.5559  -10.4070    0.0000 C   0  0  0  0  0  0  0  0  0  0  0  0
    2.7129  -10.1126    0.0000 C   0  0  0  0  0  0  0  0  0  0  0  0
    9.8530   -5.9797    0.0000 O   0  0  0  0  0  0  0  0  0  0  0  0
    8.4241   -5.9813    0.0000 O   0  0  0  0  0  0  0  0  0  0  0  0
    9.1390   -6.3930    0.0000 C   0  0  0  0  0  0  0  0  0  0  0  0
    9.8558   -8.4547    0.0000 C   0  0  0  0  0  0  0  0  0  0  0  0
    9.8548   -7.6297    0.0000 C   0  0  0  0  0  0  0  0  0  0  0  0
    9.1399   -7.2180    0.0000 C   0  0  0  0  0  0  0  0  0  0  0  0
    8.4259   -7.6313    0.0000 C   0  0  0  0  0  0  0  0  0  0  0  0
    8.4286  -10.1063    0.0000 O   0  0  0  0  0  0  0  0  0  0  0  0
    7.7137   -9.6946    0.0000 C   0  0  0  0  0  0  0  0  0  0  0  0
    6.9997  -10.1079    0.0000 C   0  0  0  0  0  0  0  0  0  0  0  0
    6.2848   -9.6962    0.0000 C   0  0  0  0  0  0  0  0  0  0  0  0
    6.2839   -8.8712    0.0000 C   0  0  0  0  0  0  0  0  0  0  0  0
    6.9979   -8.4579    0.0000 C   0  0  0  0  0  0  0  0  0  0  0  0
    7.7128   -8.8696    0.0000 C   0  0  0  0  0  0  0  0  0  0  0  0
    8.4268   -8.4563    0.0000 C   0  0  1  0  0  0  0  0  0  0  0  0
    9.1417   -8.8680    0.0000 C   0  0  2  0  0  0  0  0  0  0  0  0
    9.1426   -9.6930    0.0000 C   0  0  0  0  0  0  0  0  0  0  0  0
 25  5  1  1  0  0  0
 26  6  1  6  0  0  0
 23  7  1  0  0  0  0
 27  8  1  0  0  0  0
 27  9  1  0  0  0  0
 21  1  1  0  0  0  0
 16 13  1  0  0  0  0
 13 11  1  0  0  0  0
 13 12  2  0  0  0  0
 25 17  1  0  0  0  0
 26 14  1  0  0  0  0
 15 14  1  0  0  0  0
 16 15  1  0  0  0  0
 17 16  2  0  0  0  0
 27 18  1  0  0  0  0
 19 18  1  0  0  0  0
 24 19  2  0  0  0  0
 20 19  1  0  0  0  0
 21 20  2  0  0  0  0
 22 21  1  0  0  0  0
 23 22  2  0  0  0  0
 24 23  1  0  0  0  0
 25 24  1  0  0  0  0
 26 25  1  0  0  0  0
 27 26  1  0  0  0  0
  1  2  1  0  0  0  0
  2  3  1  0  0  0  0
  3  4  1  0  0  0  0
  4 10  1  0  0  0  0
M  END
>  <cdx:fragmentId>
695

$$$$
