300179.cdx
  Mrv1902 05222410262D          

 12 11  0  0  0  0            999 V2000
    3.4659   -6.9834    0.0000 O   0  0  0  0  0  0  0  0  0  0  0  0
   11.3251   -7.3959    0.0000 C   0  0  0  0  0  0  0  0  0  0  0  0
   10.6106   -6.9834    0.0000 C   0  0  0  0  0  0  0  0  0  0  0  0
    9.8961   -7.3959    0.0000 C   0  0  0  0  0  0  0  0  0  0  0  0
    9.1816   -6.9834    0.0000 C   0  0  0  0  0  0  0  0  0  0  0  0
    8.4672   -7.3959    0.0000 C   0  0  0  0  0  0  0  0  0  0  0  0
    7.7527   -6.9834    0.0000 C   0  0  0  0  0  0  0  0  0  0  0  0
    7.0382   -7.3959    0.0000 C   0  0  0  0  0  0  0  0  0  0  0  0
    6.3238   -6.9834    0.0000 C   0  0  0  0  0  0  0  0  0  0  0  0
    5.6093   -7.3959    0.0000 C   0  0  0  0  0  0  0  0  0  0  0  0
    4.8948   -6.9834    0.0000 C   0  0  0  0  0  0  0  0  0  0  0  0
    4.1803   -7.3959    0.0000 C   0  0  0  0  0  0  0  0  0  0  0  0
 12  1  2  0  0  0  0
  3  2  2  0  0  0  0
  4  3  1  0  0  0  0
  5  4  1  0  0  0  0
  6  5  1  0  0  0  0
  7  6  1  0  0  0  0
  8  7  1  0  0  0  0
  9  8  1  0  0  0  0
 10  9  1  0  0  0  0
 11 10  1  0  0  0  0
 12 11  1  0  0  0  0
M  END
>  <cdx:fragmentId>
5698

$$$$
