300129.cdx
  Mrv1902 05222410222D          

 28 28  0  0  0  0            999 V2000
    4.3412   -6.8564    0.0000 C   0  0  0  0  0  0  0  0  0  0  0  0
    4.3412   -6.0314    0.0000 C   0  0  0  0  0  0  0  0  0  0  0  0
    3.6267   -5.6189    0.0000 C   0  0  0  0  0  0  0  0  0  0  0  0
    2.9123   -6.0314    0.0000 C   0  0  0  0  0  0  0  0  0  0  0  0
    2.9123   -6.8564    0.0000 C   0  0  0  0  0  0  0  0  0  0  0  0
    3.6267   -7.2689    0.0000 C   0  0  0  0  0  0  0  0  0  0  0  0
    5.0557   -7.2689    0.0000 C   0  0  0  0  0  0  0  0  0  0  0  0
    5.0557   -8.0939    0.0000 O   0  0  0  0  0  0  0  0  0  0  0  0
    5.7701   -6.8564    0.0000 O   0  0  0  0  0  0  0  0  0  0  0  0
    5.0557   -5.6189    0.0000 C   0  0  0  0  0  0  0  0  0  0  0  0
    5.0557   -4.7939    0.0000 O   0  0  0  0  0  0  0  0  0  0  0  0
    5.7701   -6.0314    0.0000 O   0  0  0  0  0  0  0  0  0  0  0  0
    6.4846   -7.2689    0.0000 C   0  0  0  0  0  0  0  0  0  0  0  0
    7.1991   -6.8564    0.0000 C   0  0  0  0  0  0  0  0  0  0  0  0
    7.9136   -7.2689    0.0000 C   0  0  0  0  0  0  0  0  0  0  0  0
    8.6280   -6.8564    0.0000 C   0  0  0  0  0  0  0  0  0  0  0  0
    9.3425   -7.2689    0.0000 C   0  0  0  0  0  0  0  0  0  0  0  0
   10.0570   -6.8564    0.0000 C   0  0  0  0  0  0  0  0  0  0  0  0
   10.7714   -7.2689    0.0000 C   0  0  0  0  0  0  0  0  0  0  0  0
   11.4859   -6.8564    0.0000 C   0  0  0  0  0  0  0  0  0  0  0  0
    6.4846   -5.6189    0.0000 C   0  0  0  0  0  0  0  0  0  0  0  0
    7.1991   -6.0314    0.0000 C   0  0  0  0  0  0  0  0  0  0  0  0
    7.9136   -5.6189    0.0000 C   0  0  0  0  0  0  0  0  0  0  0  0
    8.6280   -6.0314    0.0000 C   0  0  0  0  0  0  0  0  0  0  0  0
    9.3425   -5.6189    0.0000 C   0  0  0  0  0  0  0  0  0  0  0  0
   10.0570   -6.0314    0.0000 C   0  0  0  0  0  0  0  0  0  0  0  0
   10.7714   -5.6189    0.0000 C   0  0  0  0  0  0  0  0  0  0  0  0
   11.4859   -6.0314    0.0000 C   0  0  0  0  0  0  0  0  0  0  0  0
  1  2  1  0  0  0  0
  2  3  2  0  0  0  0
  3  4  1  0  0  0  0
  4  5  2  0  0  0  0
  5  6  1  0  0  0  0
  1  6  2  0  0  0  0
  7  8  2  0  0  0  0
  7  9  1  0  0  0  0
  1  7  1  0  0  0  0
 10 11  2  0  0  0  0
 10 12  1  0  0  0  0
  2 10  1  0  0  0  0
 13 14  1  0  0  0  0
 14 15  1  0  0  0  0
 15 16  1  0  0  0  0
 16 17  1  0  0  0  0
 17 18  1  0  0  0  0
 18 19  1  0  0  0  0
 19 20  1  0  0  0  0
  9 13  1  0  0  0  0
 21 22  1  0  0  0  0
 22 23  1  0  0  0  0
 23 24  1  0  0  0  0
 24 25  1  0  0  0  0
 25 26  1  0  0  0  0
 26 27  1  0  0  0  0
 27 28  1  0  0  0  0
 12 21  1  0  0  0  0
M  END
>  <cdx:fragmentId>
2733

$$$$
