300123.cdx
  Mrv1902 05222410252D          

  9 10  0  0  0  0            999 V2000
    6.1290   -5.3050    0.0000 O   0  0  0  0  0  0  0  0  0  0  0  0
    6.5415   -6.0195    0.0000 C   0  0  0  0  0  0  0  0  0  0  0  0
    5.7165   -6.0195    0.0000 C   0  0  0  0  0  0  0  0  0  0  0  0
    7.2559   -6.4320    0.0000 C   0  0  0  0  0  0  0  0  0  0  0  0
    7.9704   -6.0195    0.0000 C   0  0  0  0  0  0  0  0  0  0  0  0
    8.6849   -6.4320    0.0000 C   0  0  0  0  0  0  0  0  0  0  0  0
    8.6849   -7.2570    0.0000 C   0  0  0  0  0  0  0  0  0  0  0  0
    7.9704   -7.6695    0.0000 C   0  0  0  0  0  0  0  0  0  0  0  0
    7.2559   -7.2570    0.0000 C   0  0  0  0  0  0  0  0  0  0  0  0
  1  2  1  0  0  0  0
  2  3  1  0  0  0  0
  1  3  1  0  0  0  0
  4  5  1  0  0  0  0
  5  6  2  0  0  0  0
  6  7  1  0  0  0  0
  7  8  2  0  0  0  0
  8  9  1  0  0  0  0
  4  9  2  0  0  0  0
  2  4  1  0  0  0  0
M  END
>  <cdx:fragmentId>
2512

$$$$
