300182-1.cdx
  Mrv1902 05222410282D          

 25 28  0  0  0  0            999 V2000
    5.3323   -7.6790    0.0000 C   0  0  0  0  0  0  0  0  0  0  0  0
    4.6178   -8.0915    0.0000 C   0  0  0  0  0  0  0  0  0  0  0  0
    4.6178   -8.9165    0.0000 C   0  0  0  0  0  0  0  0  0  0  0  0
    5.3323   -9.3290    0.0000 C   0  0  0  0  0  0  0  0  0  0  0  0
    6.0468   -8.9165    0.0000 C   0  0  0  0  0  0  0  0  0  0  0  0
    6.7612   -9.3290    0.0000 C   0  0  0  0  0  0  0  0  0  0  0  0
    7.4757   -8.9165    0.0000 C   0  0  0  0  0  0  0  0  0  0  0  0
    7.4757   -8.0915    0.0000 C   0  0  0  0  0  0  0  0  0  0  0  0
    8.1902   -7.6790    0.0000 C   0  0  0  0  0  0  0  0  0  0  0  0
    8.9748   -7.9339    0.0000 C   0  0  0  0  0  0  0  0  0  0  0  0
    9.4597   -7.2665    0.0000 C   0  0  0  0  0  0  0  0  0  0  0  0
    8.9748   -6.5990    0.0000 C   0  0  0  0  0  0  0  0  0  0  0  0
    8.1902   -6.8540    0.0000 C   0  0  1  0  0  0  0  0  0  0  0  0
    7.4757   -6.4415    0.0000 C   0  0  0  0  0  0  0  0  0  0  0  0
    6.7612   -6.8540    0.0000 C   0  0  0  0  0  0  0  0  0  0  0  0
    6.7612   -7.6790    0.0000 C   0  0  0  0  0  0  0  0  0  0  0  0
    6.0468   -8.0915    0.0000 C   0  0  1  0  0  0  0  0  0  0  0  0
    3.9034   -9.3290    0.0000 O   0  0  0  0  0  0  0  0  0  0  0  0
    6.0468   -6.4415    0.0000 O   0  0  0  0  0  0  0  0  0  0  0  0
    8.2764   -6.0335    0.0000 C   0  0  0  0  0  0  0  0  0  0  0  0
    6.0468   -7.2665    0.0000 C   0  0  0  0  0  0  0  0  0  0  0  0
    9.2297   -5.8144    0.0000 C   0  0  0  0  0  0  0  0  0  0  0  0
    8.6777   -5.2013    0.0000 O   0  0  0  0  0  0  0  0  0  0  0  0
   10.0367   -5.6429    0.0000 C   0  0  0  0  0  0  0  0  0  0  0  0
   10.2917   -4.8583    0.0000 O   0  0  0  0  0  0  0  0  0  0  0  0
  1  2  1  0  0  0  0
  2  3  1  0  0  0  0
  3  4  1  0  0  0  0
  4  5  2  0  0  0  0
  5  6  1  0  0  0  0
  6  7  1  0  0  0  0
  7  8  1  0  0  0  0
  8  9  1  0  0  0  0
  9 10  1  0  0  0  0
 10 11  1  0  0  0  0
 11 12  1  0  0  0  0
 12 13  1  0  0  0  0
  9 13  1  0  0  0  0
 13 14  1  0  0  0  0
 14 15  1  0  0  0  0
 15 16  1  0  0  0  0
  8 16  1  0  0  0  0
 16 17  1  0  0  0  0
  5 17  1  0  0  0  0
  1 17  1  0  0  0  0
  3 18  2  0  0  0  0
 15 19  2  0  0  0  0
 13 20  1  1  0  0  0
 17 21  1  1  0  0  0
 22 23  2  0  0  0  0
 22 24  1  0  0  0  0
 24 25  1  0  0  0  0
 12 22  1  0  0  0  0
M  END
>  <cdx:fragmentId>
5

$$$$
