300157.cdx
  Mrv1902 05222410272D          

 41 45  0  0  0  0            999 V2000
    5.9708   -6.2097    0.0000 C   0  0  0  0  0  0  0  0  0  0  0  0
    6.6853   -6.6222    0.0000 C   0  0  0  0  0  0  0  0  0  0  0  0
    6.6853   -7.4472    0.0000 C   0  0  0  0  0  0  0  0  0  0  0  0
    5.9708   -7.8597    0.0000 C   0  0  0  0  0  0  0  0  0  0  0  0
    5.2564   -7.4472    0.0000 C   0  0  0  0  0  0  0  0  0  0  0  0
    4.5419   -7.8597    0.0000 C   0  0  0  0  0  0  0  0  0  0  0  0
    4.5419   -8.6847    0.0000 O   0  0  0  0  0  0  0  0  0  0  0  0
    3.8274   -7.4472    0.0000 C   0  0  0  0  0  0  0  0  0  0  0  0
    3.1130   -7.8597    0.0000 C   0  0  0  0  0  0  0  0  0  0  0  0
    2.3985   -7.4472    0.0000 C   0  0  0  0  0  0  0  0  0  0  0  0
    2.3985   -6.6222    0.0000 C   0  0  0  0  0  0  0  0  0  0  0  0
    3.1130   -6.2097    0.0000 C   0  0  0  0  0  0  0  0  0  0  0  0
    3.8274   -6.6222    0.0000 C   0  0  0  0  0  0  0  0  0  0  0  0
    4.5419   -6.2097    0.0000 C   0  0  0  0  0  0  0  0  0  0  0  0
    4.5419   -5.3847    0.0000 O   0  0  0  0  0  0  0  0  0  0  0  0
    5.2564   -6.6222    0.0000 C   0  0  0  0  0  0  0  0  0  0  0  0
    7.3998   -6.2097    0.0000 C   0  0  0  0  0  0  0  0  0  0  0  0
    1.6840   -7.8597    0.0000 O   0  0  0  0  0  0  0  0  0  0  0  0
    7.3998   -7.8597    0.0000 O   0  0  0  0  0  0  0  0  0  0  0  0
    5.9708   -5.3847    0.0000 O   0  0  0  0  0  0  0  0  0  0  0  0
    6.6832   -9.9252    0.0000 C   0  0  2  0  0  0  0  0  0  0  0  0
    7.3978  -10.3376    0.0000 C   0  0  2  0  0  0  0  0  0  0  0  0
    8.1122   -9.9250    0.0000 C   0  0  1  0  0  0  0  0  0  0  0  0
    8.1121   -9.1000    0.0000 C   0  0  2  0  0  0  0  0  0  0  0  0
    7.3976   -8.6876    0.0000 C   0  0  1  0  0  0  0  0  0  0  0  0
    6.6832   -9.1002    0.0000 O   0  0  0  0  0  0  0  0  0  0  0  0
    5.9688  -10.3378    0.0000 C   0  0  0  0  0  0  0  0  0  0  0  0
    8.8267  -10.3375    0.0000 O   0  0  0  0  0  0  0  0  0  0  0  0
    7.3978  -11.1626    0.0000 O   0  0  0  0  0  0  0  0  0  0  0  0
    8.8265   -8.6875    0.0000 O   0  0  0  0  0  0  0  0  0  0  0  0
    5.9689  -11.1628    0.0000 O   0  0  0  0  0  0  0  0  0  0  0  0
   10.2799  -10.3240    0.0000 C   0  0  1  0  0  0  0  0  0  0  0  0
   10.9925   -9.9082    0.0000 C   0  0  1  0  0  0  0  0  0  0  0  0
   10.9886   -9.0832    0.0000 C   0  0  2  0  0  0  0  0  0  0  0  0
   10.2722   -8.6740    0.0000 C   0  0  2  0  0  0  0  0  0  0  0  0
    9.5597   -9.0899    0.0000 C   0  0  1  0  0  0  0  0  0  0  0  0
    9.5635   -9.9149    0.0000 O   0  0  0  0  0  0  0  0  0  0  0  0
   11.7089  -10.3173    0.0000 O   0  0  0  0  0  0  0  0  0  0  0  0
   10.2838  -11.1490    0.0000 C   0  0  0  0  0  0  0  0  0  0  0  0
   11.7011   -8.6673    0.0000 O   0  0  0  0  0  0  0  0  0  0  0  0
   10.2683   -7.8490    0.0000 O   0  0  0  0  0  0  0  0  0  0  0  0
  1  2  1  0  0  0  0
  2  3  2  0  0  0  0
  3  4  1  0  0  0  0
  4  5  2  0  0  0  0
  5  6  1  0  0  0  0
  6  7  2  0  0  0  0
  6  8  1  0  0  0  0
  8  9  1  0  0  0  0
  9 10  2  0  0  0  0
 10 11  1  0  0  0  0
 11 12  2  0  0  0  0
 12 13  1  0  0  0  0
  8 13  2  0  0  0  0
 13 14  1  0  0  0  0
 14 15  2  0  0  0  0
 14 16  1  0  0  0  0
  5 16  1  0  0  0  0
  1 16  2  0  0  0  0
  2 17  1  0  0  0  0
 10 18  1  0  0  0  0
  3 19  1  0  0  0  0
  1 20  1  0  0  0  0
 21 22  1  0  0  0  0
 22 23  1  0  0  0  0
 23 24  1  0  0  0  0
 24 25  1  0  0  0  0
 25 26  1  0  0  0  0
 26 21  1  0  0  0  0
 21 27  1  1  0  0  0
 23 28  1  1  0  0  0
 22 29  1  6  0  0  0
 24 30  1  6  0  0  0
 27 31  1  0  0  0  0
 32 33  1  0  0  0  0
 33 34  1  0  0  0  0
 34 35  1  0  0  0  0
 35 36  1  0  0  0  0
 36 37  1  0  0  0  0
 37 32  1  0  0  0  0
 33 38  1  1  0  0  0
 32 39  1  6  0  0  0
 34 40  1  6  0  0  0
 35 41  1  6  0  0  0
 36 30  1  1  0  0  0
 25 19  1  1  0  0  0
M  END
>  <cdx:fragmentId>
336

$$$$
