300176.cdx
  Mrv1902 05222410192D          

 20 19  0  0  0  0            999 V2000
    0.7198   -8.2953    0.0000 C   0  0  0  0  0  0  0  0  0  0  0  0
    1.4342   -7.8828    0.0000 C   0  0  0  0  0  0  0  0  0  0  0  0
    2.1487   -8.2953    0.0000 C   0  0  0  0  0  0  0  0  0  0  0  0
    2.8632   -7.8828    0.0000 C   0  0  0  0  0  0  0  0  0  0  0  0
    3.5776   -8.2953    0.0000 C   0  0  0  0  0  0  0  0  0  0  0  0
    4.2921   -7.8828    0.0000 C   0  0  0  0  0  0  0  0  0  0  0  0
    5.0066   -8.2953    0.0000 C   0  0  0  0  0  0  0  0  0  0  0  0
    5.7211   -7.8828    0.0000 C   0  0  0  0  0  0  0  0  0  0  0  0
    6.4355   -8.2953    0.0000 C   0  0  0  0  0  0  0  0  0  0  0  0
    7.1500   -7.8828    0.0000 C   0  0  0  0  0  0  0  0  0  0  0  0
    7.8645   -8.2953    0.0000 C   0  0  0  0  0  0  0  0  0  0  0  0
    8.5789   -7.8828    0.0000 C   0  0  0  0  0  0  0  0  0  0  0  0
    9.2934   -8.2953    0.0000 C   0  0  0  0  0  0  0  0  0  0  0  0
   10.0079   -7.8828    0.0000 C   0  0  0  0  0  0  0  0  0  0  0  0
   10.7224   -8.2953    0.0000 C   0  0  0  0  0  0  0  0  0  0  0  0
   11.4368   -7.8828    0.0000 C   0  0  0  0  0  0  0  0  0  0  0  0
   12.1513   -8.2953    0.0000 C   0  0  0  0  0  0  0  0  0  0  0  0
   12.8658   -7.8828    0.0000 C   0  0  0  0  0  0  0  0  0  0  0  0
   13.5802   -8.2953    0.0000 C   0  0  0  0  0  0  0  0  0  0  0  0
    7.1500   -7.0578    0.0000 O   0  0  0  0  0  0  0  0  0  0  0  0
  1  2  1  0  0  0  0
  2  3  1  0  0  0  0
  3  4  1  0  0  0  0
  4  5  1  0  0  0  0
  5  6  1  0  0  0  0
  6  7  1  0  0  0  0
  7  8  1  0  0  0  0
  8  9  1  0  0  0  0
  9 10  1  0  0  0  0
 10 11  1  0  0  0  0
 11 12  1  0  0  0  0
 12 13  1  0  0  0  0
 13 14  1  0  0  0  0
 14 15  1  0  0  0  0
 15 16  1  0  0  0  0
 16 17  1  0  0  0  0
 17 18  1  0  0  0  0
 18 19  1  0  0  0  0
 10 20  1  0  0  0  0
M  END
>  <cdx:fragmentId>
5513

$$$$
