300115.cdx
  Mrv1902 05222410222D          

 16 18  0  0  0  0            999 V2000
    6.8145   -6.2123    0.0000 N   0  0  0  0  0  0  0  0  0  0  0  0
    7.4819   -6.6972    0.0000 C   0  0  0  0  0  0  0  0  0  0  0  0
    7.2270   -7.4818    0.0000 C   0  0  0  0  0  0  0  0  0  0  0  0
    6.4020   -7.4818    0.0000 C   0  0  0  0  0  0  0  0  0  0  0  0
    5.8499   -8.0949    0.0000 C   0  0  0  0  0  0  0  0  0  0  0  0
    5.0430   -7.9234    0.0000 C   0  0  0  0  0  0  0  0  0  0  0  0
    4.7880   -7.1387    0.0000 C   0  0  0  0  0  0  0  0  0  0  0  0
    5.3401   -6.5257    0.0000 C   0  0  0  0  0  0  0  0  0  0  0  0
    6.1470   -6.6972    0.0000 C   0  0  0  0  0  0  0  0  0  0  0  0
    8.2889   -6.5257    0.0000 C   0  0  0  0  0  0  0  0  0  0  0  0
    7.7790   -8.0949    0.0000 C   0  0  0  0  0  0  0  0  0  0  0  0
    8.5860   -7.9234    0.0000 C   0  0  0  0  0  0  0  0  0  0  0  0
    8.8409   -7.1387    0.0000 N   0  0  0  0  0  0  0  0  0  0  0  0
    8.5438   -5.7410    0.0000 C   0  0  0  0  0  0  0  0  0  0  0  0
    9.3508   -5.5695    0.0000 O   0  0  0  0  0  0  0  0  0  0  0  0
    9.6057   -4.7849    0.0000 C   0  0  0  0  0  0  0  0  0  0  0  0
  1  2  1  0  0  0  0
  2  3  2  0  0  0  0
  3  4  1  0  0  0  0
  4  5  1  0  0  0  0
  5  6  2  0  0  0  0
  6  7  1  0  0  0  0
  7  8  2  0  0  0  0
  8  9  1  0  0  0  0
  1  9  1  0  0  0  0
  4  9  2  0  0  0  0
 11 12  2  0  0  0  0
 12 13  1  0  0  0  0
 10 13  2  0  0  0  0
  2 10  1  0  0  0  0
  3 11  1  0  0  0  0
 15 16  1  0  0  0  0
 14 15  1  0  0  0  0
 10 14  1  0  0  0  0
M  END
>  <cdx:fragmentId>
2171

$$$$
