300193.cdx
  Mrv1902 05222410262D          

 13 16  0  0  0  0            999 V2000
    9.0952   -5.8474    0.0000 C   0  0  0  0  0  0  0  0  0  0  0  0
    8.4278   -6.3324    0.0000 C   0  0  0  0  0  0  0  0  0  0  0  0
    7.7604   -5.8474    0.0000 C   0  0  0  0  0  0  0  0  0  0  0  0
    6.9354   -5.8474    0.0000 C   0  0  0  0  0  0  0  0  0  0  0  0
    6.2679   -6.3324    0.0000 C   0  0  0  0  0  0  0  0  0  0  0  0
    5.6005   -5.8474    0.0000 C   0  0  0  0  0  0  0  0  0  0  0  0
    5.8554   -5.0628    0.0000 C   0  0  0  0  0  0  0  0  0  0  0  0
    6.6804   -5.0628    0.0000 C   0  0  0  0  0  0  0  0  0  0  0  0
    7.3479   -4.5779    0.0000 O   0  0  0  0  0  0  0  0  0  0  0  0
    8.0153   -5.0628    0.0000 C   0  0  0  0  0  0  0  0  0  0  0  0
    8.8403   -5.0628    0.0000 C   0  0  0  0  0  0  0  0  0  0  0  0
    8.4278   -7.1574    0.0000 O   0  0  0  0  0  0  0  0  0  0  0  0
    9.3252   -4.3954    0.0000 Br  0  0  0  0  0  0  0  0  0  0  0  0
  1  2  1  0  0  0  0
  2  3  1  0  0  0  0
  3  4  1  0  0  0  0
  4  5  1  0  0  0  0
  5  6  2  0  0  0  0
  6  7  1  0  0  0  0
  7  8  1  0  0  0  0
  8  9  1  0  0  0  0
  9 10  1  0  0  0  0
 10 11  1  0  0  0  0
  1 11  1  0  0  0  0
  1  7  1  0  0  0  0
  3 10  1  0  0  0  0
  4  8  1  0  0  0  0
  2 12  2  0  0  0  0
 11 13  1  0  0  0  0
M  END
>  <cdx:fragmentId>
980

$$$$
