300153.cdx
  Mrv1902 05222410272D          

 13 14  0  0  0  0            999 V2000
    8.2484   -7.0094    0.0000 O   0  0  0  0  0  0  0  0  0  0  0  0
    7.7634   -6.3419    0.0000 C   0  0  0  0  0  0  0  0  0  0  0  0
    6.9788   -6.5969    0.0000 C   0  0  0  0  0  0  0  0  0  0  0  0
    6.9788   -7.4219    0.0000 C   0  0  0  0  0  0  0  0  0  0  0  0
    7.7634   -7.6768    0.0000 C   0  0  0  0  0  0  0  0  0  0  0  0
    6.2644   -7.8344    0.0000 C   0  0  0  0  0  0  0  0  0  0  0  0
    5.5499   -7.4219    0.0000 C   0  0  0  0  0  0  0  0  0  0  0  0
    5.5499   -6.5969    0.0000 C   0  0  0  0  0  0  0  0  0  0  0  0
    6.2644   -6.1844    0.0000 C   0  0  0  0  0  0  0  0  0  0  0  0
    7.5919   -5.5349    0.0000 O   0  0  0  0  0  0  0  0  0  0  0  0
    8.3765   -8.2288    0.0000 C   0  0  0  0  0  0  0  0  0  0  0  0
    7.5919   -8.4838    0.0000 C   0  0  0  0  0  0  0  0  0  0  0  0
    8.3765   -5.7899    0.0000 C   0  0  0  0  0  0  0  0  0  0  0  0
  1  2  1  0  0  0  0
  2  3  1  0  0  0  0
  3  4  1  0  0  0  0
  4  5  1  0  0  0  0
  1  5  1  0  0  0  0
  6  7  1  0  0  0  0
  7  8  2  0  0  0  0
  8  9  1  0  0  0  0
  3  9  2  0  0  0  0
  4  6  2  0  0  0  0
  2 10  1  0  0  0  0
  5 11  1  0  0  0  0
  5 12  1  0  0  0  0
  2 13  1  0  0  0  0
M  END
>  <cdx:fragmentId>
4058

$$$$
