300130.cdx
  Mrv1902 05222410242D          

 16 16  0  0  0  0            999 V2000
    6.1205   -7.6316    0.0000 Si  0  0  0  0  0  0  0  0  0  0  0  0
    6.8350   -8.0441    0.0000 O   0  0  0  0  0  0  0  0  0  0  0  0
    7.5494   -7.6316    0.0000 C   0  0  0  0  0  0  0  0  0  0  0  0
    7.5494   -6.8066    0.0000 C   0  0  0  0  0  0  0  0  0  0  0  0
    8.2639   -6.3941    0.0000 C   0  0  0  0  0  0  0  0  0  0  0  0
    8.9784   -6.8066    0.0000 C   0  0  0  0  0  0  0  0  0  0  0  0
    8.9784   -7.6316    0.0000 C   0  0  0  0  0  0  0  0  0  0  0  0
    8.2639   -8.0441    0.0000 C   0  0  0  0  0  0  0  0  0  0  0  0
    6.8350   -6.3941    0.0000 O   0  0  0  0  0  0  0  0  0  0  0  0
    6.8350   -5.5691    0.0000 Si  0  0  0  0  0  0  0  0  0  0  0  0
    7.5494   -5.1566    0.0000 C   0  0  0  0  0  0  0  0  0  0  0  0
    6.8350   -4.7441    0.0000 C   0  0  0  0  0  0  0  0  0  0  0  0
    6.1205   -5.1566    0.0000 C   0  0  0  0  0  0  0  0  0  0  0  0
    5.4060   -8.0441    0.0000 C   0  0  0  0  0  0  0  0  0  0  0  0
    6.1205   -6.8066    0.0000 C   0  0  0  0  0  0  0  0  0  0  0  0
    5.4060   -7.2191    0.0000 C   0  0  0  0  0  0  0  0  0  0  0  0
  3  4  1  0  0  0  0
  4  5  2  0  0  0  0
  5  6  1  0  0  0  0
  6  7  2  0  0  0  0
  7  8  1  0  0  0  0
  3  8  2  0  0  0  0
  2  3  1  0  0  0  0
 10 11  1  0  0  0  0
 10 12  1  0  0  0  0
 10 13  1  0  0  0  0
  9 10  1  0  0  0  0
  4  9  1  0  0  0  0
  1  2  1  0  0  0  0
  1 14  1  0  0  0  0
  1 15  1  0  0  0  0
  1 16  1  0  0  0  0
M  END
>  <cdx:fragmentId>
2827

$$$$
