300170.cdx
  Mrv1902 05222410182D          

 10 10  0  0  0  0            999 V2000
    8.7577   -7.9028    0.0000 C   0  0  0  0  0  0  0  0  0  0  0  0
    8.0432   -8.3153    0.0000 C   0  0  0  0  0  0  0  0  0  0  0  0
    7.3287   -7.9028    0.0000 C   0  0  0  0  0  0  0  0  0  0  0  0
    6.6143   -8.3153    0.0000 C   0  0  0  0  0  0  0  0  0  0  0  0
    5.8998   -7.9028    0.0000 C   0  0  0  0  0  0  0  0  0  0  0  0
    5.8998   -7.0778    0.0000 C   0  0  0  0  0  0  0  0  0  0  0  0
    6.6143   -6.6653    0.0000 C   0  0  0  0  0  0  0  0  0  0  0  0
    7.3287   -7.0778    0.0000 C   0  0  0  0  0  0  0  0  0  0  0  0
    8.0432   -6.6653    0.0000 C   0  0  0  0  0  0  0  0  0  0  0  0
    8.7577   -7.0778    0.0000 C   0  0  0  0  0  0  0  0  0  0  0  0
  1  2  1  0  0  0  0
  2  3  1  0  0  0  0
  3  4  1  0  0  0  0
  4  5  1  0  0  0  0
  5  6  2  0  0  0  0
  6  7  1  0  0  0  0
  7  8  1  0  0  0  0
  8  9  1  0  0  0  0
  9 10  1  0  0  0  0
  1 10  2  0  0  0  0
M  END
>  <cdx:fragmentId>
4923

$$$$
