300156.cdx
  Mrv1902 05222410272D          

  7  6  0  0  0  0            999 V2000
    4.8175   -7.1672    0.0000 C   0  0  0  0  0  0  0  0  0  0  0  0
    5.5320   -6.7547    0.0000 C   0  0  0  0  0  0  0  0  0  0  0  0
    6.2465   -7.1672    0.0000 C   0  0  0  0  0  0  0  0  0  0  0  0
    6.9609   -6.7547    0.0000 C   0  0  0  0  0  0  0  0  0  0  0  0
    7.6754   -7.1672    0.0000 C   0  0  0  0  0  0  0  0  0  0  0  0
    8.3899   -6.7547    0.0000 C   0  0  0  0  0  0  0  0  0  0  0  0
    9.1044   -7.1672    0.0000 C   0  0  0  0  0  0  0  0  0  0  0  0
  1  2  2  0  0  0  0
  2  3  1  0  0  0  0
  3  4  2  0  0  0  0
  4  5  1  0  0  0  0
  5  6  1  0  0  0  0
  6  7  2  0  0  0  0
M  END
>  <cdx:fragmentId>
4173

$$$$
