300198.cdx
  Mrv1902 05222410182D          

 13 13  0  0  0  0            999 V2000
    6.3255   -9.8175    0.0000 C   0  0  0  0  0  0  0  0  0  0  0  0
    6.3255  -10.6425    0.0000 C   0  0  0  0  0  0  0  0  0  0  0  0
    7.0400  -11.0550    0.0000 C   0  0  0  0  0  0  0  0  0  0  0  0
    7.7545  -10.6425    0.0000 C   0  0  0  0  0  0  0  0  0  0  0  0
    7.7545   -9.8175    0.0000 C   0  0  0  0  0  0  0  0  0  0  0  0
    7.0400   -9.4050    0.0000 C   0  0  0  0  0  0  0  0  0  0  0  0
    7.0400   -8.5800    0.0000 C   0  0  0  0  0  0  0  0  0  0  0  0
    6.3255   -8.1675    0.0000 O   0  0  0  0  0  0  0  0  0  0  0  0
    7.7545   -8.1675    0.0000 O   0  0  0  0  0  0  0  0  0  0  0  0
    6.3255   -7.3425    0.0000 C   0  0  0  0  0  0  0  0  0  0  0  0
    5.6111   -6.9300    0.0000 C   0  0  0  0  0  0  0  0  0  0  0  0
    7.7545   -7.3425    0.0000 C   0  0  0  0  0  0  0  0  0  0  0  0
    8.4689   -6.9300    0.0000 C   0  0  0  0  0  0  0  0  0  0  0  0
  1  2  2  0  0  0  0
  2  3  1  0  0  0  0
  3  4  2  0  0  0  0
  4  5  1  0  0  0  0
  5  6  2  0  0  0  0
  6  1  1  0  0  0  0
  6  7  1  0  0  0  0
  7  8  1  0  0  0  0
  7  9  1  0  0  0  0
  8 10  1  0  0  0  0
 10 11  1  0  0  0  0
  9 12  1  0  0  0  0
 12 13  1  0  0  0  0
M  END
>  <cdx:fragmentId>
1040

$$$$
