300188.cdx
  Mrv1902 05222410192D          

 23 22  0  0  0  0            999 V2000
    2.8759   -8.5408    0.0000 C   0  0  0  0  0  0  0  0  0  0  0  0
    3.5903   -8.1283    0.0000 O   0  0  0  0  0  0  0  0  0  0  0  0
    4.3048   -9.3658    0.0000 O   0  0  0  0  0  0  0  0  0  0  0  0
   17.8798   -8.1283    0.0000 C   0  0  0  0  0  0  0  0  0  0  0  0
   17.1653   -8.5408    0.0000 C   0  0  0  0  0  0  0  0  0  0  0  0
   16.4508   -8.1283    0.0000 C   0  0  0  0  0  0  0  0  0  0  0  0
   15.7363   -8.5408    0.0000 C   0  0  0  0  0  0  0  0  0  0  0  0
   15.0219   -8.1283    0.0000 C   0  0  0  0  0  0  0  0  0  0  0  0
   14.3074   -8.5408    0.0000 C   0  0  0  0  0  0  0  0  0  0  0  0
   13.5929   -8.1283    0.0000 C   0  0  0  0  0  0  0  0  0  0  0  0
   12.8785   -8.5408    0.0000 C   0  0  0  0  0  0  0  0  0  0  0  0
   12.1640   -8.1283    0.0000 C   0  0  0  0  0  0  0  0  0  0  0  0
   11.4495   -8.5408    0.0000 C   0  0  0  0  0  0  0  0  0  0  0  0
   10.7350   -8.1283    0.0000 C   0  0  0  0  0  0  0  0  0  0  0  0
   10.0206   -8.5408    0.0000 C   0  0  0  0  0  0  0  0  0  0  0  0
    9.3061   -8.1283    0.0000 C   0  0  0  0  0  0  0  0  0  0  0  0
    8.5916   -8.5408    0.0000 C   0  0  0  0  0  0  0  0  0  0  0  0
    7.8772   -8.1283    0.0000 C   0  0  0  0  0  0  0  0  0  0  0  0
    7.1627   -8.5408    0.0000 C   0  0  0  0  0  0  0  0  0  0  0  0
    6.4482   -8.1283    0.0000 C   0  0  0  0  0  0  0  0  0  0  0  0
    5.7338   -8.5408    0.0000 C   0  0  0  0  0  0  0  0  0  0  0  0
    5.0193   -8.1283    0.0000 C   0  0  0  0  0  0  0  0  0  0  0  0
    4.3048   -8.5408    0.0000 C   0  0  0  0  0  0  0  0  0  0  0  0
  2  1  1  0  0  0  0
 23  2  1  0  0  0  0
 23  3  2  0  0  0  0
  5  4  1  0  0  0  0
  6  5  1  0  0  0  0
  7  6  1  0  0  0  0
  8  7  1  0  0  0  0
  9  8  1  0  0  0  0
 10  9  1  0  0  0  0
 11 10  1  0  0  0  0
 12 11  1  0  0  0  0
 13 12  2  0  0  0  0
 14 13  1  0  0  0  0
 15 14  1  0  0  0  0
 16 15  1  0  0  0  0
 17 16  1  0  0  0  0
 18 17  1  0  0  0  0
 19 18  1  0  0  0  0
 20 19  1  0  0  0  0
 21 20  1  0  0  0  0
 22 21  1  0  0  0  0
 23 22  1  0  0  0  0
M  END
>  <cdx:fragmentId>
484

$$$$
