300135.cdx
  Mrv1902 05222410252D          

 11 11  0  0  0  0            999 V2000
    6.8662   -5.9106    0.0000 C   0  0  0  0  0  0  0  0  0  0  0  0
    7.5820   -6.3208    0.0000 C   0  0  0  0  0  0  0  0  0  0  0  0
    7.5846   -7.1458    0.0000 C   0  0  0  0  0  0  0  0  0  0  0  0
    6.8715   -7.5606    0.0000 C   0  0  0  0  0  0  0  0  0  0  0  0
    6.1557   -7.1503    0.0000 C   0  0  0  0  0  0  0  0  0  0  0  0
    6.1531   -6.3253    0.0000 C   0  0  0  0  0  0  0  0  0  0  0  0
    7.2765   -5.1948    0.0000 C   0  0  0  0  0  0  0  0  0  0  0  0
    8.1015   -5.1948    0.0000 O   0  0  0  0  0  0  0  0  0  0  0  0
    6.8741   -8.3855    0.0000 O   0  0  0  0  0  0  0  0  0  0  0  0
    8.2952   -5.9060    0.0000 C   0  0  0  0  0  0  0  0  0  0  0  0
    6.4515   -5.1974    0.0000 C   0  0  0  0  0  0  0  0  0  0  0  0
  1  2  1  0  0  0  0
  2  3  2  0  0  0  0
  3  4  1  0  0  0  0
  4  5  1  0  0  0  0
  5  6  1  0  0  0  0
  1  6  1  0  0  0  0
  7  8  2  0  0  0  0
  1  7  1  0  0  0  0
  4  9  2  0  0  0  0
  2 10  1  0  0  0  0
  1 11  1  0  0  0  0
M  END
>  <cdx:fragmentId>
3092

$$$$
