300164.cdx
  Mrv1902 05222410182D          

 20 22  0  0  0  0            999 V2000
    8.6795   -5.7014    0.0000 C   0  0  0  0  0  0  0  0  0  0  0  0
    9.3940   -6.1139    0.0000 C   0  0  0  0  0  0  0  0  0  0  0  0
    9.3940   -6.9389    0.0000 C   0  0  0  0  0  0  0  0  0  0  0  0
    8.6795   -7.3514    0.0000 C   0  0  0  0  0  0  0  0  0  0  0  0
    7.9650   -6.9389    0.0000 C   0  0  0  0  0  0  0  0  0  0  0  0
    7.2506   -7.3514    0.0000 C   0  0  0  0  0  0  0  0  0  0  0  0
    6.5361   -6.9389    0.0000 C   0  0  0  0  0  0  0  0  0  0  0  0
    5.8216   -7.3514    0.0000 C   0  0  0  0  0  0  0  0  0  0  0  0
    5.1071   -6.9389    0.0000 C   0  0  0  0  0  0  0  0  0  0  0  0
    5.1071   -6.1139    0.0000 C   0  0  0  0  0  0  0  0  0  0  0  0
    5.8216   -5.7014    0.0000 C   0  0  0  0  0  0  0  0  0  0  0  0
    6.5361   -6.1139    0.0000 C   0  0  0  0  0  0  0  0  0  0  0  0
    7.2506   -5.7014    0.0000 C   0  0  0  0  0  0  0  0  0  0  0  0
    7.9650   -6.1139    0.0000 C   0  0  0  0  0  0  0  0  0  0  0  0
    7.2506   -4.8764    0.0000 O   0  0  0  0  0  0  0  0  0  0  0  0
    7.2506   -8.1764    0.0000 O   0  0  0  0  0  0  0  0  0  0  0  0
   10.1084   -5.7014    0.0000 O   0  0  0  0  0  0  0  0  0  0  0  0
   10.8229   -6.1139    0.0000 C   0  0  0  0  0  0  0  0  0  0  0  0
    4.3927   -7.3514    0.0000 O   0  0  0  0  0  0  0  0  0  0  0  0
    8.6795   -4.8764    0.0000 O   0  0  0  0  0  0  0  0  0  0  0  0
  1  2  1  0  0  0  0
  2  3  2  0  0  0  0
  3  4  1  0  0  0  0
  4  5  2  0  0  0  0
  5  6  1  0  0  0  0
  6  7  1  0  0  0  0
  7  8  1  0  0  0  0
  8  9  2  0  0  0  0
  9 10  1  0  0  0  0
 10 11  2  0  0  0  0
 11 12  1  0  0  0  0
  7 12  2  0  0  0  0
 12 13  1  0  0  0  0
 13 14  1  0  0  0  0
  5 14  1  0  0  0  0
  1 14  2  0  0  0  0
 13 15  2  0  0  0  0
  6 16  2  0  0  0  0
 17 18  1  0  0  0  0
  2 17  1  0  0  0  0
  9 19  1  0  0  0  0
  1 20  1  0  0  0  0
M  END
>  <cdx:fragmentId>
4597

$$$$
