300132.cdx
  Mrv1902 05222410232D          

 19 21  0  0  0  0            999 V2000
    8.1224   -5.6189    0.0000 C   0  0  0  0  0  0  0  0  0  0  0  0
    8.8369   -6.0314    0.0000 C   0  0  0  0  0  0  0  0  0  0  0  0
    8.8369   -6.8564    0.0000 C   0  0  0  0  0  0  0  0  0  0  0  0
    8.1224   -7.2689    0.0000 C   0  0  0  0  0  0  0  0  0  0  0  0
    7.4079   -6.8564    0.0000 C   0  0  0  0  0  0  0  0  0  0  0  0
    6.6934   -7.2689    0.0000 C   0  0  0  0  0  0  0  0  0  0  0  0
    5.9790   -6.8564    0.0000 C   0  0  0  0  0  0  0  0  0  0  0  0
    5.2645   -7.2689    0.0000 C   0  0  0  0  0  0  0  0  0  0  0  0
    4.5500   -6.8564    0.0000 C   0  0  0  0  0  0  0  0  0  0  0  0
    4.5500   -6.0314    0.0000 C   0  0  0  0  0  0  0  0  0  0  0  0
    5.2645   -5.6189    0.0000 C   0  0  0  0  0  0  0  0  0  0  0  0
    5.9790   -6.0314    0.0000 C   0  0  0  0  0  0  0  0  0  0  0  0
    6.6934   -5.6189    0.0000 C   0  0  0  0  0  0  0  0  0  0  0  0
    7.4079   -6.0314    0.0000 C   0  0  0  0  0  0  0  0  0  0  0  0
    6.6934   -4.7939    0.0000 O   0  0  0  0  0  0  0  0  0  0  0  0
    6.6934   -8.0939    0.0000 O   0  0  0  0  0  0  0  0  0  0  0  0
    9.5513   -7.2689    0.0000 C   0  0  0  0  0  0  0  0  0  0  0  0
    9.5513   -5.6189    0.0000 O   0  0  0  0  0  0  0  0  0  0  0  0
    8.1224   -4.7939    0.0000 O   0  0  0  0  0  0  0  0  0  0  0  0
  1  2  1  0  0  0  0
  2  3  2  0  0  0  0
  3  4  1  0  0  0  0
  4  5  2  0  0  0  0
  5  6  1  0  0  0  0
  6  7  1  0  0  0  0
  7  8  1  0  0  0  0
  8  9  2  0  0  0  0
  9 10  1  0  0  0  0
 10 11  2  0  0  0  0
 11 12  1  0  0  0  0
  7 12  2  0  0  0  0
 12 13  1  0  0  0  0
 13 14  1  0  0  0  0
  5 14  1  0  0  0  0
  1 14  2  0  0  0  0
 13 15  2  0  0  0  0
  6 16  2  0  0  0  0
  3 17  1  0  0  0  0
  2 18  1  0  0  0  0
  1 19  1  0  0  0  0
M  END
>  <cdx:fragmentId>
2917

$$$$
