300194.cdx
  Mrv1902 05222410272D          

 16 17  0  0  0  0            999 V2000
    5.8974   -8.2665    0.0000 C   0  0  0  0  0  0  0  0  0  0  0  0
    5.0734   -8.2270    0.0000 C   0  0  0  0  0  0  0  0  0  0  0  0
    4.5513   -7.5883    0.0000 C   0  0  0  0  0  0  0  0  0  0  0  0
    3.7370   -7.7210    0.0000 C   0  0  0  0  0  0  0  0  0  0  0  0
    3.4449   -8.4926    0.0000 C   0  0  0  0  0  0  0  0  0  0  0  0
    3.9670   -9.1314    0.0000 C   0  0  0  0  0  0  0  0  0  0  0  0
    4.7812   -8.9986    0.0000 C   0  0  0  0  0  0  0  0  0  0  0  0
    5.4247   -9.5148    0.0000 C   0  0  0  0  0  0  0  0  0  0  0  0
    6.1146   -9.0624    0.0000 C   0  0  0  0  0  0  0  0  0  0  0  0
    6.9105   -8.8452    0.0000 C   0  0  0  0  0  0  0  0  0  0  0  0
    6.6933   -8.0493    0.0000 C   0  0  0  0  0  0  0  0  0  0  0  0
    4.8434   -6.8167    0.0000 O   0  0  0  0  0  0  0  0  0  0  0  0
    5.4247  -10.3398    0.0000 C   0  0  0  0  0  0  0  0  0  0  0  0
    3.2149   -7.0823    0.0000 C   0  0  0  0  0  0  0  0  0  0  0  0
    6.6933   -7.2243    0.0000 C   0  0  0  0  0  0  0  0  0  0  0  0
    7.4078   -7.6368    0.0000 C   0  0  0  0  0  0  0  0  0  0  0  0
  1  2  1  0  0  0  0
  2  3  1  0  0  0  0
  3  4  1  0  0  0  0
  4  5  1  0  0  0  0
  5  6  1  0  0  0  0
  6  7  1  0  0  0  0
  7  8  1  0  0  0  0
  8  9  1  0  0  0  0
  9 10  1  0  0  0  0
 10 11  1  0  0  0  0
  1 11  1  0  0  0  0
  1  9  1  0  0  0  0
  3 12  1  0  0  0  0
  8 13  2  0  0  0  0
  4 14  2  0  0  0  0
 11 15  1  0  0  0  0
 11 16  1  0  0  0  0
M  END
>  <cdx:fragmentId>
1023

$$$$
