300110.cdx
  Mrv1902 05222410212D          

 26 30  0  0  0  0            999 V2000
    7.5576   -6.4729    0.0000 C   0  0  0  0  0  0  0  0  0  0  0  0
    8.2721   -6.0604    0.0000 C   0  0  0  0  0  0  0  0  0  0  0  0
    8.4436   -5.2534    0.0000 C   0  0  0  0  0  0  0  0  0  0  0  0
    8.1080   -4.4998    0.0000 C   0  0  0  0  0  0  0  0  0  0  0  0
    8.7211   -3.9477    0.0000 C   0  0  0  0  0  0  0  0  0  0  0  0
    9.4356   -4.3602    0.0000 O   0  0  0  0  0  0  0  0  0  0  0  0
    9.2641   -5.1672    0.0000 C   0  0  0  0  0  0  0  0  0  0  0  0
    9.5996   -5.9209    0.0000 O   0  0  0  0  0  0  0  0  0  0  0  0
    8.9865   -6.4729    0.0000 C   0  0  0  0  0  0  0  0  0  0  0  0
    8.9865   -7.2979    0.0000 C   0  0  0  0  0  0  0  0  0  0  0  0
    8.2721   -7.7104    0.0000 C   0  0  0  0  0  0  0  0  0  0  0  0
    7.5576   -7.2979    0.0000 C   0  0  0  0  0  0  0  0  0  0  0  0
    6.8431   -7.7104    0.0000 C   0  0  0  0  0  0  0  0  0  0  0  0
    6.1287   -7.2979    0.0000 C   0  0  0  0  0  0  0  0  0  0  0  0
    5.4142   -7.7104    0.0000 C   0  0  0  0  0  0  0  0  0  0  0  0
    4.6997   -7.2979    0.0000 C   0  0  0  0  0  0  0  0  0  0  0  0
    4.6997   -6.4729    0.0000 C   0  0  0  0  0  0  0  0  0  0  0  0
    5.4142   -6.0604    0.0000 C   0  0  0  0  0  0  0  0  0  0  0  0
    6.1287   -6.4729    0.0000 C   0  0  0  0  0  0  0  0  0  0  0  0
    6.8431   -6.0604    0.0000 O   0  0  0  0  0  0  0  0  0  0  0  0
    6.8431   -8.5354    0.0000 O   0  0  0  0  0  0  0  0  0  0  0  0
    5.4142   -8.5354    0.0000 O   0  0  0  0  0  0  0  0  0  0  0  0
    4.6997   -8.9479    0.0000 C   0  0  0  0  0  0  0  0  0  0  0  0
    8.2721   -8.5354    0.0000 O   0  0  0  0  0  0  0  0  0  0  0  0
    8.9865   -8.9479    0.0000 C   0  0  0  0  0  0  0  0  0  0  0  0
    7.6231   -5.3397    0.0000 O   0  0  0  0  0  0  0  0  0  0  0  0
  1  2  2  0  0  0  0
  2  3  1  0  0  0  0
  3  4  1  0  0  0  0
  4  5  2  0  0  0  0
  5  6  1  0  0  0  0
  6  7  1  0  0  0  0
  7  8  1  0  0  0  0
  8  9  1  0  0  0  0
  9 10  2  0  0  0  0
 10 11  1  0  0  0  0
 11 12  2  0  0  0  0
 12 13  1  0  0  0  0
 13 14  1  0  0  0  0
 14 15  1  0  0  0  0
 15 16  2  0  0  0  0
 16 17  1  0  0  0  0
 17 18  2  0  0  0  0
 18 19  1  0  0  0  0
 19 20  1  0  0  0  0
  1 20  1  0  0  0  0
  1 12  1  0  0  0  0
  2  9  1  0  0  0  0
  3  7  1  0  0  0  0
 14 19  2  0  0  0  0
 13 21  2  0  0  0  0
 22 23  1  0  0  0  0
 15 22  1  0  0  0  0
 24 25  1  0  0  0  0
 11 24  1  0  0  0  0
  3 26  1  0  0  0  0
M  END
>  <cdx:fragmentId>
1851

$$$$
