300108.cdx
  Mrv1902 05222410242D          

 19 21  0  0  0  0            999 V2000
    7.9136   -5.6189    0.0000 C   0  0  0  0  0  0  0  0  0  0  0  0
    8.6280   -6.0314    0.0000 C   0  0  0  0  0  0  0  0  0  0  0  0
    8.6280   -6.8564    0.0000 C   0  0  0  0  0  0  0  0  0  0  0  0
    7.9136   -7.2689    0.0000 C   0  0  0  0  0  0  0  0  0  0  0  0
    7.1991   -6.8564    0.0000 C   0  0  0  0  0  0  0  0  0  0  0  0
    6.4846   -7.2689    0.0000 C   0  0  0  0  0  0  0  0  0  0  0  0
    5.7701   -6.8564    0.0000 C   0  0  0  0  0  0  0  0  0  0  0  0
    5.0557   -7.2689    0.0000 C   0  0  0  0  0  0  0  0  0  0  0  0
    4.3412   -6.8564    0.0000 C   0  0  0  0  0  0  0  0  0  0  0  0
    4.3412   -6.0314    0.0000 C   0  0  0  0  0  0  0  0  0  0  0  0
    5.0557   -5.6189    0.0000 C   0  0  0  0  0  0  0  0  0  0  0  0
    5.7701   -6.0314    0.0000 C   0  0  0  0  0  0  0  0  0  0  0  0
    6.4846   -5.6189    0.0000 C   0  0  0  0  0  0  0  0  0  0  0  0
    7.1991   -6.0314    0.0000 C   0  0  0  0  0  0  0  0  0  0  0  0
    6.4846   -4.7939    0.0000 O   0  0  0  0  0  0  0  0  0  0  0  0
    6.4846   -8.0939    0.0000 O   0  0  0  0  0  0  0  0  0  0  0  0
    9.3425   -7.2689    0.0000 O   0  0  0  0  0  0  0  0  0  0  0  0
   10.0570   -6.8564    0.0000 C   0  0  0  0  0  0  0  0  0  0  0  0
    7.9136   -4.7939    0.0000 O   0  0  0  0  0  0  0  0  0  0  0  0
  1  2  1  0  0  0  0
  2  3  2  0  0  0  0
  3  4  1  0  0  0  0
  4  5  2  0  0  0  0
  5  6  1  0  0  0  0
  6  7  1  0  0  0  0
  7  8  1  0  0  0  0
  8  9  2  0  0  0  0
  9 10  1  0  0  0  0
 10 11  2  0  0  0  0
 11 12  1  0  0  0  0
  7 12  2  0  0  0  0
 12 13  1  0  0  0  0
 13 14  1  0  0  0  0
  5 14  1  0  0  0  0
  1 14  2  0  0  0  0
 13 15  2  0  0  0  0
  6 16  2  0  0  0  0
 17 18  1  0  0  0  0
  3 17  1  0  0  0  0
  1 19  1  0  0  0  0
M  END
>  <cdx:fragmentId>
1737

$$$$
