300140.cdx
  Mrv1902 05222410282D          

 12 12  0  0  0  0            999 V2000
    6.4846   -6.1938    0.0000 C   0  0  0  0  0  0  0  0  0  0  0  0
    7.1991   -6.6063    0.0000 C   0  0  0  0  0  0  0  0  0  0  0  0
    7.1991   -7.4313    0.0000 C   0  0  0  0  0  0  0  0  0  0  0  0
    6.4846   -7.8438    0.0000 C   0  0  0  0  0  0  0  0  0  0  0  0
    5.7701   -7.4313    0.0000 C   0  0  0  0  0  0  0  0  0  0  0  0
    5.7701   -6.6063    0.0000 C   0  0  0  0  0  0  0  0  0  0  0  0
    7.9136   -7.8438    0.0000 O   0  0  0  0  0  0  0  0  0  0  0  0
    8.6280   -7.4313    0.0000 C   0  0  0  0  0  0  0  0  0  0  0  0
    7.9136   -6.1938    0.0000 O   0  0  0  0  0  0  0  0  0  0  0  0
    8.6280   -6.6063    0.0000 C   0  0  0  0  0  0  0  0  0  0  0  0
    6.4846   -5.3688    0.0000 O   0  0  0  0  0  0  0  0  0  0  0  0
    5.7701   -4.9563    0.0000 C   0  0  0  0  0  0  0  0  0  0  0  0
  1  2  1  0  0  0  0
  2  3  2  0  0  0  0
  3  4  1  0  0  0  0
  4  5  2  0  0  0  0
  5  6  1  0  0  0  0
  1  6  2  0  0  0  0
  7  8  1  0  0  0  0
  3  7  1  0  0  0  0
  9 10  1  0  0  0  0
  2  9  1  0  0  0  0
 11 12  1  0  0  0  0
  1 11  1  0  0  0  0
M  END
>  <cdx:fragmentId>
3243

$$$$
