300137.cdx
  Mrv1902 05222410252D          

  5  5  0  0  0  0            999 V2000
    7.4517   -3.6132    0.0000 S   0  0  0  0  0  0  0  0  0  0  0  0
    7.7067   -4.3978    0.0000 S   0  0  0  0  0  0  0  0  0  0  0  0
    7.0392   -4.8827    0.0000 C   0  0  0  0  0  0  0  0  0  0  0  0
    6.3718   -4.3978    0.0000 C   0  0  0  0  0  0  0  0  0  0  0  0
    6.6267   -3.6132    0.0000 C   0  0  0  0  0  0  0  0  0  0  0  0
  1  2  1  0  0  0  0
  2  3  1  0  0  0  0
  3  4  1  0  0  0  0
  4  5  2  0  0  0  0
  1  5  1  0  0  0  0
M  END
>  <cdx:groupId>
17

>  <cdx:fragmentId>
5

$$$$
