300120.cdx
  Mrv1902 05222410242D          

 10  9  0  0  0  0            999 V2000
    4.8358   -6.1958    0.0000 C   0  0  0  0  0  0  0  0  0  0  0  0
    5.5503   -6.6083    0.0000 C   0  0  0  0  0  0  0  0  0  0  0  0
    6.2648   -6.1958    0.0000 C   0  0  0  0  0  0  0  0  0  0  0  0
    6.9792   -6.6083    0.0000 C   0  0  0  0  0  0  0  0  0  0  0  0
    7.6937   -6.1958    0.0000 C   0  0  0  0  0  0  0  0  0  0  0  0
    8.4082   -6.6083    0.0000 C   0  0  0  0  0  0  0  0  0  0  0  0
    9.1226   -6.1958    0.0000 C   0  0  0  0  0  0  0  0  0  0  0  0
    9.8371   -6.6083    0.0000 C   0  0  0  0  0  0  0  0  0  0  0  0
   10.5516   -6.1958    0.0000 C   0  0  0  0  0  0  0  0  0  0  0  0
    4.1213   -6.6083    0.0000 S   0  0  0  0  0  0  0  0  0  0  0  0
  1  2  1  0  0  0  0
  2  3  1  0  0  0  0
  3  4  1  0  0  0  0
  4  5  1  0  0  0  0
  5  6  1  0  0  0  0
  6  7  1  0  0  0  0
  7  8  1  0  0  0  0
  8  9  1  0  0  0  0
  1 10  1  0  0  0  0
M  END
>  <cdx:fragmentId>
2352

$$$$
