300178.cdx
  Mrv1902 05222410262D          

 37 40  0  0  0  0            999 V2000
    7.7677   -8.6501    0.0000 C   0  0  0  0  0  0  0  0  0  0  0  0
    8.5747   -8.8216    0.0000 C   0  0  0  0  0  0  0  0  0  0  0  0
    9.1267   -8.2085    0.0000 C   0  0  0  0  0  0  0  0  0  0  0  0
    9.9337   -8.3800    0.0000 C   0  0  0  0  0  0  0  0  0  0  0  0
   10.1886   -9.1646    0.0000 C   0  0  0  0  0  0  0  0  0  0  0  0
    9.6366   -9.7777    0.0000 C   0  0  0  0  0  0  0  0  0  0  0  0
    8.8296   -9.6062    0.0000 C   0  0  0  0  0  0  0  0  0  0  0  0
    7.2157   -9.2631    0.0000 O   0  0  0  0  0  0  0  0  0  0  0  0
    7.5128   -7.8654    0.0000 O   0  0  0  0  0  0  0  0  0  0  0  0
   10.4857   -7.7669    0.0000 O   0  0  0  0  0  0  0  0  0  0  0  0
   11.2927   -7.9384    0.0000 C   0  0  0  0  0  0  0  0  0  0  0  0
   10.9956   -9.3362    0.0000 O   0  0  0  0  0  0  0  0  0  0  0  0
    6.7058   -7.6939    0.0000 C   0  0  0  0  0  0  0  0  0  0  0  0
    4.9518   -7.0668    0.0000 C   0  0  1  0  0  0  0  0  0  0  0  0
    5.6662   -6.6543    0.0000 C   0  0  1  0  0  0  0  0  0  0  0  0
    5.6662   -5.8293    0.0000 C   0  0  1  0  0  0  0  0  0  0  0  0
    4.9518   -5.4168    0.0000 C   0  0  0  0  0  0  0  0  0  0  0  0
    4.2373   -5.8293    0.0000 C   0  0  0  0  0  0  0  0  0  0  0  0
    4.2373   -6.6543    0.0000 O   0  0  0  0  0  0  0  0  0  0  0  0
    6.4509   -5.5744    0.0000 C   0  0  1  0  0  0  0  0  0  0  0  0
    6.9358   -6.2418    0.0000 C   0  0  0  0  0  0  0  0  0  0  0  0
    6.4509   -6.9093    0.0000 C   0  0  0  0  0  0  0  0  0  0  0  0
    4.9518   -7.8918    0.0000 O   0  0  0  0  0  0  0  0  0  0  0  0
    3.5228   -7.8918    0.0000 O   0  0  0  0  0  0  0  0  0  0  0  0
    4.2373   -8.3043    0.0000 C   0  0  2  0  0  0  0  0  0  0  0  0
    4.2373   -9.1293    0.0000 C   0  0  1  0  0  0  0  0  0  0  0  0
    3.5228   -9.5418    0.0000 C   0  0  2  0  0  0  0  0  0  0  0  0
    2.8083   -9.1293    0.0000 C   0  0  1  0  0  0  0  0  0  0  0  0
    2.8083   -8.3043    0.0000 C   0  0  1  0  0  0  0  0  0  0  0  0
    2.0939   -7.8918    0.0000 C   0  0  0  0  0  0  0  0  0  0  0  0
    1.3794   -8.3043    0.0000 O   0  0  0  0  0  0  0  0  0  0  0  0
    2.0939   -9.5418    0.0000 O   0  0  0  0  0  0  0  0  0  0  0  0
    3.5228  -10.3668    0.0000 O   0  0  0  0  0  0  0  0  0  0  0  0
    4.9518   -9.5418    0.0000 O   0  0  0  0  0  0  0  0  0  0  0  0
    6.7058   -4.7898    0.0000 O   0  0  0  0  0  0  0  0  0  0  0  0
    5.7525   -5.0089    0.0000 H   0  0  0  0  0  0  0  0  0  0  0  0
    5.7525   -7.4748    0.0000 H   0  0  0  0  0  0  0  0  0  0  0  0
  1  2  1  0  0  0  0
  2  3  1  0  0  0  0
  3  4  2  0  0  0  0
  4  5  1  0  0  0  0
  5  6  2  0  0  0  0
  6  7  1  0  0  0  0
  2  7  2  0  0  0  0
  1  8  2  0  0  0  0
  1  9  1  0  0  0  0
 10 11  1  0  0  0  0
  4 10  1  0  0  0  0
  5 12  1  0  0  0  0
 14 15  1  0  0  0  0
 15 16  1  0  0  0  0
 16 17  1  0  0  0  0
 17 18  2  0  0  0  0
 18 19  1  0  0  0  0
 14 19  1  0  0  0  0
 20 21  1  0  0  0  0
 21 22  2  0  0  0  0
 15 22  1  0  0  0  0
 16 20  1  0  0  0  0
 24 25  1  0  0  0  0
 25 26  1  0  0  0  0
 26 27  1  0  0  0  0
 27 28  1  0  0  0  0
 28 29  1  0  0  0  0
 24 29  1  0  0  0  0
 30 31  1  0  0  0  0
 29 30  1  1  0  0  0
 28 32  1  6  0  0  0
 27 33  1  1  0  0  0
 26 34  1  6  0  0  0
 25 23  1  1  0  0  0
 14 23  1  6  0  0  0
 20 35  1  6  0  0  0
 13 22  1  0  0  0  0
  9 13  1  0  0  0  0
 16 36  1  6  0  0  0
 15 37  1  6  0  0  0
M  END
>  <cdx:fragmentId>
5622

$$$$
