300113.cdx
  Mrv1902 05222410202D          

 34 36  0  0  0  0            999 V2000
    6.1239   -6.8949    0.0000 O   0  0  0  0  0  0  0  0  0  0  0  0
    6.8384   -7.3074    0.0000 C   0  0  1  0  0  0  0  0  0  0  0  0
    6.8384   -8.1324    0.0000 C   0  0  1  0  0  0  0  0  0  0  0  0
    6.1239   -8.5449    0.0000 C   0  0  2  0  0  0  0  0  0  0  0  0
    5.4095   -8.1324    0.0000 C   0  0  1  0  0  0  0  0  0  0  0  0
    5.4095   -7.3074    0.0000 C   0  0  1  0  0  0  0  0  0  0  0  0
    7.5529   -8.5449    0.0000 O   0  0  0  0  0  0  0  0  0  0  0  0
    6.1239   -9.3699    0.0000 O   0  0  0  0  0  0  0  0  0  0  0  0
    4.6950   -8.5449    0.0000 O   0  0  0  0  0  0  0  0  0  0  0  0
    4.6950   -6.8949    0.0000 C   0  0  0  0  0  0  0  0  0  0  0  0
    3.9805   -7.3074    0.0000 O   0  0  0  0  0  0  0  0  0  0  0  0
    7.5529   -6.8949    0.0000 O   0  0  0  0  0  0  0  0  0  0  0  0
    7.9318   -8.0611    0.0000 O   0  0  0  0  0  0  0  0  0  0  0  0
    8.2674   -7.3074    0.0000 C   0  0  2  0  0  0  0  0  0  0  0  0
    9.0878   -7.3936    0.0000 C   0  0  2  0  0  0  0  0  0  0  0  0
    9.2594   -8.2006    0.0000 C   0  0  1  0  0  0  0  0  0  0  0  0
    8.5449   -8.6131    0.0000 C   0  0  1  0  0  0  0  0  0  0  0  0
    8.4587   -9.4336    0.0000 C   0  0  0  0  0  0  0  0  0  0  0  0
    9.1731   -9.8461    0.0000 O   0  0  0  0  0  0  0  0  0  0  0  0
   10.0130   -8.5362    0.0000 O   0  0  0  0  0  0  0  0  0  0  0  0
    9.6399   -6.7805    0.0000 O   0  0  0  0  0  0  0  0  0  0  0  0
    8.2674   -6.4824    0.0000 C   0  0  0  0  0  0  0  0  0  0  0  0
    8.9818   -6.0699    0.0000 O   0  0  0  0  0  0  0  0  0  0  0  0
    8.1613   -5.1587    0.0000 O   0  0  0  0  0  0  0  0  0  0  0  0
    8.9818   -5.2449    0.0000 C   0  0  2  0  0  0  0  0  0  0  0  0
    9.3174   -4.4912    0.0000 C   0  0  2  0  0  0  0  0  0  0  0  0
    8.7043   -3.9392    0.0000 C   0  0  1  0  0  0  0  0  0  0  0  0
    7.9898   -4.3517    0.0000 C   0  0  1  0  0  0  0  0  0  0  0  0
    7.2361   -4.0161    0.0000 C   0  0  0  0  0  0  0  0  0  0  0  0
    7.2361   -3.1911    0.0000 O   0  0  0  0  0  0  0  0  0  0  0  0
    9.6963   -5.6574    0.0000 C   0  0  0  0  0  0  0  0  0  0  0  0
   10.4108   -5.2449    0.0000 O   0  0  0  0  0  0  0  0  0  0  0  0
    8.7905   -3.1187    0.0000 O   0  0  0  0  0  0  0  0  0  0  0  0
   10.1244   -4.3197    0.0000 O   0  0  0  0  0  0  0  0  0  0  0  0
  1  2  1  0  0  0  0
  2  3  1  0  0  0  0
  3  4  1  0  0  0  0
  4  5  1  0  0  0  0
  5  6  1  0  0  0  0
  1  6  1  0  0  0  0
  3  7  1  6  0  0  0
  4  8  1  1  0  0  0
  5  9  1  6  0  0  0
 10 11  1  0  0  0  0
  6 10  1  1  0  0  0
 13 14  1  0  0  0  0
 14 15  1  0  0  0  0
 15 16  1  0  0  0  0
 16 17  1  0  0  0  0
 13 17  1  0  0  0  0
 18 19  1  0  0  0  0
 17 18  1  1  0  0  0
 16 20  1  6  0  0  0
 15 21  1  1  0  0  0
 24 25  1  0  0  0  0
 25 26  1  0  0  0  0
 26 27  1  0  0  0  0
 27 28  1  0  0  0  0
 24 28  1  0  0  0  0
 29 30  1  0  0  0  0
 28 29  1  6  0  0  0
 31 32  1  0  0  0  0
 25 31  1  1  0  0  0
 27 33  1  1  0  0  0
 26 34  1  6  0  0  0
 25 23  1  6  0  0  0
 22 23  1  0  0  0  0
 14 22  1  6  0  0  0
 14 12  1  1  0  0  0
  2 12  1  6  0  0  0
M  END
>  <cdx:fragmentId>
2059

$$$$
