300133.cdx
  Mrv1902 05222410242D          

 15 15  0  0  0  0            999 V2000
    6.8678  -10.5803    0.0000 C   0  0  0  0  0  0  0  0  0  0  0  0
    6.1537  -10.1673    0.0000 C   0  0  0  0  0  0  0  0  0  0  0  0
    6.1542   -9.3423    0.0000 C   0  0  0  0  0  0  0  0  0  0  0  0
    6.8690   -8.9303    0.0000 C   0  0  0  0  0  0  0  0  0  0  0  0
    7.5832   -9.3433    0.0000 C   0  0  0  0  0  0  0  0  0  0  0  0
    7.5826  -10.1683    0.0000 C   0  0  0  0  0  0  0  0  0  0  0  0
    6.8696   -8.1053    0.0000 C   0  0  0  0  0  0  0  0  0  0  0  0
    7.5844   -7.6933    0.0000 C   0  0  0  0  0  0  0  0  0  0  0  0
    7.5850   -6.8683    0.0000 C   0  0  0  0  0  0  0  0  0  0  0  0
    8.2997   -6.4563    0.0000 O   0  0  0  0  0  0  0  0  0  0  0  0
    8.3003   -5.6313    0.0000 C   0  0  0  0  0  0  0  0  0  0  0  0
    5.4389  -10.5793    0.0000 O   0  0  0  0  0  0  0  0  0  0  0  0
    6.8672  -11.4053    0.0000 O   0  0  0  0  0  0  0  0  0  0  0  0
    4.7247  -10.1662    0.0000 C   0  0  0  0  0  0  0  0  0  0  0  0
    7.5814  -11.8183    0.0000 C   0  0  0  0  0  0  0  0  0  0  0  0
  1  2  1  0  0  0  0
  2  3  2  0  0  0  0
  3  4  1  0  0  0  0
  4  5  2  0  0  0  0
  5  6  1  0  0  0  0
  1  6  2  0  0  0  0
  7  8  2  0  0  0  0
  8  9  1  0  0  0  0
 10 11  1  0  0  0  0
  9 10  1  0  0  0  0
  4  7  1  0  0  0  0
  2 12  1  0  0  0  0
  1 13  1  0  0  0  0
 12 14  1  0  0  0  0
 13 15  1  0  0  0  0
M  END
>  <cdx:fragmentId>
5

$$$$
