300180.cdx
  Mrv1902 05222410272D          

 16 17  0  0  0  0            999 V2000
    6.3637   -7.1521    0.0000 C   0  0  0  0  0  0  0  0  0  0  0  0
    6.3637   -7.9771    0.0000 C   0  0  2  0  0  0  0  0  0  0  0  0
    7.0088   -8.4914    0.0000 C   0  0  2  0  0  0  0  0  0  0  0  0
    7.8131   -8.3079    0.0000 C   0  0  0  0  0  0  0  0  0  0  0  0
    8.1710   -7.5646    0.0000 C   0  0  0  0  0  0  0  0  0  0  0  0
    7.8131   -6.8213    0.0000 C   0  0  0  0  0  0  0  0  0  0  0  0
    7.0088   -6.6377    0.0000 C   0  0  0  0  0  0  0  0  0  0  0  0
    5.6493   -8.3896    0.0000 C   0  0  0  0  0  0  0  0  0  0  0  0
    4.9348   -7.9771    0.0000 C   0  0  0  0  0  0  0  0  0  0  0  0
    4.9348   -7.1521    0.0000 C   0  0  0  0  0  0  0  0  0  0  0  0
    5.6493   -6.7396    0.0000 C   0  0  0  0  0  0  0  0  0  0  0  0
    4.2203   -6.7396    0.0000 C   0  0  0  0  0  0  0  0  0  0  0  0
    6.8252   -9.2957    0.0000 C   0  0  0  0  0  0  0  0  0  0  0  0
    6.4476   -6.0329    0.0000 C   0  0  0  0  0  0  0  0  0  0  0  0
    7.2519   -5.8493    0.0000 C   0  0  0  0  0  0  0  0  0  0  0  0
    6.3637   -8.8021    0.0000 H   0  0  0  0  0  0  0  0  0  0  0  0
  1  2  1  0  0  0  0
  2  3  1  0  0  0  0
  3  4  1  0  0  0  0
  4  5  1  0  0  0  0
  5  6  1  0  0  0  0
  6  7  1  0  0  0  0
  1  7  1  0  0  0  0
  8  9  1  0  0  0  0
  9 10  1  0  0  0  0
 10 11  1  0  0  0  0
  1 11  2  0  0  0  0
  2  8  1  0  0  0  0
 10 12  2  0  0  0  0
  3 13  1  6  0  0  0
  7 14  1  0  0  0  0
  7 15  1  0  0  0  0
  2 16  1  1  0  0  0
M  END
>  <cdx:fragmentId>
5736

$$$$
