300190.cdx
  Mrv1902 05222410272D          

 26 28  0  0  0  0            999 V2000
    5.7633  -10.1511    0.0000 C   0  0  0  0  0  0  0  0  0  0  0  0
    5.0483   -9.7395    0.0000 C   0  0  0  0  0  0  0  0  0  0  0  0
    4.3344  -10.1529    0.0000 C   0  0  0  0  0  0  0  0  0  0  0  0
    3.6194   -9.7413    0.0000 C   0  0  0  0  0  0  0  0  0  0  0  0
    7.9041   -8.0859    0.0000 H   0  0  0  0  0  0  0  0  0  0  0  0
   10.0491   -9.3206    0.0000 H   0  0  0  0  0  0  0  0  0  0  0  0
   10.0449   -6.0206    0.0000 O   0  0  0  0  0  0  0  0  0  0  0  0
    9.3310   -6.4341    0.0000 C   0  0  0  0  0  0  0  0  0  0  0  0
   10.1602   -9.7330    0.0000 C   0  0  0  0  0  0  0  0  0  0  0  0
    9.7486  -10.4480    0.0000 C   0  0  0  0  0  0  0  0  0  0  0  0
    2.9055  -10.1547    0.0000 C   0  0  0  0  0  0  0  0  0  0  0  0
    7.1891   -7.6743    0.0000 O   0  0  0  0  0  0  0  0  0  0  0  0
   10.0481   -8.4956    0.0000 C   0  0  0  0  0  0  0  0  0  0  0  0
   10.0470   -7.6706    0.0000 C   0  0  0  0  0  0  0  0  0  0  0  0
    9.3320   -7.2591    0.0000 C   0  0  0  0  0  0  0  0  0  0  0  0
    8.6181   -7.6725    0.0000 C   0  0  0  0  0  0  0  0  0  0  0  0
    8.6212  -10.1475    0.0000 O   0  0  0  0  0  0  0  0  0  0  0  0
    7.9062   -9.7359    0.0000 C   0  0  0  0  0  0  0  0  0  0  0  0
    7.1923  -10.1493    0.0000 C   0  0  0  0  0  0  0  0  0  0  0  0
    6.4773   -9.7377    0.0000 C   0  0  0  0  0  0  0  0  0  0  0  0
    6.4762   -8.9127    0.0000 C   0  0  0  0  0  0  0  0  0  0  0  0
    7.1902   -8.4993    0.0000 C   0  0  0  0  0  0  0  0  0  0  0  0
    7.9052   -8.9109    0.0000 C   0  0  0  0  0  0  0  0  0  0  0  0
    8.6191   -8.4975    0.0000 C   0  0  1  0  0  0  0  0  0  0  0  0
    9.3341   -8.9091    0.0000 C   0  0  2  0  0  0  0  0  0  0  0  0
    9.3352   -9.7341    0.0000 C   0  0  0  0  0  0  0  0  0  0  0  0
 24  5  1  1  0  0  0
 25  6  1  6  0  0  0
 15  8  1  0  0  0  0
  8  7  1  0  0  0  0
 26  9  1  0  0  0  0
 26 10  1  0  0  0  0
 20  1  1  0  0  0  0
 22 12  1  0  0  0  0
 24 16  1  0  0  0  0
 25 13  1  0  0  0  0
 14 13  1  0  0  0  0
 15 14  1  0  0  0  0
 16 15  2  0  0  0  0
 26 17  1  0  0  0  0
 18 17  1  0  0  0  0
 23 18  2  0  0  0  0
 19 18  1  0  0  0  0
 20 19  2  0  0  0  0
 21 20  1  0  0  0  0
 22 21  2  0  0  0  0
 23 22  1  0  0  0  0
 24 23  1  0  0  0  0
 25 24  1  0  0  0  0
 26 25  1  0  0  0  0
  1  2  1  0  0  0  0
  2  3  1  0  0  0  0
  3  4  1  0  0  0  0
  4 11  1  0  0  0  0
M  END
>  <cdx:fragmentId>
610

$$$$
