300155.cdx
  Mrv1902 05222410282D          

 11 11  0  0  0  0            999 V2000
    7.6754   -6.9596    0.0000 N   0  0  0  0  0  0  0  0  0  0  0  0
    6.9609   -6.5471    0.0000 C   0  0  0  0  0  0  0  0  0  0  0  0
    6.2465   -6.9596    0.0000 N   0  0  0  0  0  0  0  0  0  0  0  0
    6.2465   -7.7846    0.0000 C   0  0  0  0  0  0  0  0  0  0  0  0
    6.9609   -8.1971    0.0000 N   0  0  0  0  0  0  0  0  0  0  0  0
    7.6754   -7.7846    0.0000 C   0  0  0  0  0  0  0  0  0  0  0  0
    8.3899   -8.1971    0.0000 S   0  0  0  0  0  0  0  0  0  0  0  0
    9.1044   -7.7846    0.0000 C   0  0  0  0  0  0  0  0  0  0  0  0
    5.5320   -8.1971    0.0000 S   0  0  0  0  0  0  0  0  0  0  0  0
    4.8175   -7.7846    0.0000 C   0  0  0  0  0  0  0  0  0  0  0  0
    6.9609   -5.7221    0.0000 Cl  0  0  0  0  0  0  0  0  0  0  0  0
  1  2  1  0  0  0  0
  2  3  2  0  0  0  0
  3  4  1  0  0  0  0
  4  5  2  0  0  0  0
  5  6  1  0  0  0  0
  1  6  2  0  0  0  0
  7  8  1  0  0  0  0
  6  7  1  0  0  0  0
  9 10  1  0  0  0  0
  4  9  1  0  0  0  0
  2 11  1  0  0  0  0
M  END
>  <cdx:fragmentId>
4138

$$$$
