300162.cdx
  Mrv1902 05222410192D          

  7  6  0  0  0  0            999 V2000
    8.6774   -7.2274    0.0000 C   0  0  0  0  0  0  0  0  0  0  0  0
    7.9629   -6.8149    0.0000 C   0  0  0  0  0  0  0  0  0  0  0  0
    7.2485   -6.4024    0.0000 C   0  0  0  0  0  0  0  0  0  0  0  0
    6.5340   -6.8149    0.0000 C   0  0  0  0  0  0  0  0  0  0  0  0
    5.8195   -6.4024    0.0000 C   0  0  0  0  0  0  0  0  0  0  0  0
    5.1051   -5.9899    0.0000 C   0  0  0  0  0  0  0  0  0  0  0  0
    4.3906   -5.5774    0.0000 C   0  0  0  0  0  0  0  0  0  0  0  0
  1  2  3  0  0  0  0
  2  3  1  0  0  0  0
  3  4  1  0  0  0  0
  4  5  1  0  0  0  0
  5  6  3  0  0  0  0
  6  7  1  0  0  0  0
M  END
>  <cdx:fragmentId>
4544

$$$$
