30025.cdx
  Mrv1902 05222410222D          

 35 40  0  0  0  0            999 V2000
    5.4843  -12.1814    0.0000 C   0  0  0  0  0  0  0  0  0  0  0  0
    5.4843  -13.0064    0.0000 C   0  0  2  0  0  0  0  0  0  0  0  0
    6.1988  -13.4189    0.0000 C   0  0  1  0  0  0  0  0  0  0  0  0
    6.9132  -13.0064    0.0000 C   0  0  0  0  0  0  0  0  0  0  0  0
    6.9132  -12.1814    0.0000 C   0  0  1  0  0  0  0  0  0  0  0  0
    6.1988  -11.7689    0.0000 O   0  0  0  0  0  0  0  0  0  0  0  0
    7.6277  -11.7689    0.0000 O   0  0  0  0  0  0  0  0  0  0  0  0
    7.6277  -10.9439    0.0000 C   0  0  0  0  0  0  0  0  0  0  0  0
    6.9132  -10.5314    0.0000 C   0  0  0  0  0  0  0  0  0  0  0  0
    8.3422  -10.5314    0.0000 C   0  0  0  0  0  0  0  0  0  0  0  0
    8.3422   -9.7064    0.0000 C   0  0  0  0  0  0  0  0  0  0  0  0
    7.6277   -9.2939    0.0000 C   0  0  0  0  0  0  0  0  0  0  0  0
    6.9132   -9.7064    0.0000 C   0  0  0  0  0  0  0  0  0  0  0  0
    9.0567   -9.2939    0.0000 O   0  0  0  0  0  0  0  0  0  0  0  0
    9.0567   -8.4689    0.0000 C   0  0  0  0  0  0  0  0  0  0  0  0
    8.3422   -8.0564    0.0000 C   0  0  0  0  0  0  0  0  0  0  0  0
    7.6277   -8.4689    0.0000 C   0  0  0  0  0  0  0  0  0  0  0  0
    8.1707   -7.2494    0.0000 C   0  0  0  0  0  0  0  0  0  0  0  0
    7.3502   -7.1632    0.0000 C   0  0  0  0  0  0  0  0  0  0  0  0
    7.0146   -7.9169    0.0000 O   0  0  0  0  0  0  0  0  0  0  0  0
    8.6556   -6.5820    0.0000 C   0  0  0  0  0  0  0  0  0  0  0  0
    8.3200   -5.8283    0.0000 C   0  0  0  0  0  0  0  0  0  0  0  0
    7.4995   -5.7421    0.0000 C   0  0  0  0  0  0  0  0  0  0  0  0
    7.0146   -6.4095    0.0000 C   0  0  0  0  0  0  0  0  0  0  0  0
    8.6556   -5.0746    0.0000 O   0  0  0  0  0  0  0  0  0  0  0  0
    8.0425   -4.5226    0.0000 C   0  0  0  0  0  0  0  0  0  0  0  0
    7.3280   -4.9351    0.0000 O   0  0  0  0  0  0  0  0  0  0  0  0
    4.7698  -11.7689    0.0000 C   0  0  0  0  0  0  0  0  0  0  0  0
    4.0554  -12.1814    0.0000 O   0  0  0  0  0  0  0  0  0  0  0  0
    3.3409  -11.7689    0.0000 C   0  0  0  0  0  0  0  0  0  0  0  0
    2.6264  -12.1814    0.0000 C   0  0  0  0  0  0  0  0  0  0  0  0
    3.3409  -10.9439    0.0000 O   0  0  0  0  0  0  0  0  0  0  0  0
    7.6277  -13.4189    0.0000 O   0  0  0  0  0  0  0  0  0  0  0  0
    6.1988  -14.2439    0.0000 O   0  0  0  0  0  0  0  0  0  0  0  0
    4.7698  -13.4189    0.0000 O   0  0  0  0  0  0  0  0  0  0  0  0
  1  2  1  0  0  0  0
  2  3  1  0  0  0  0
  3  4  1  0  0  0  0
  4  5  1  0  0  0  0
  5  6  1  0  0  0  0
  6  1  1  0  0  0  0
  5  7  1  1  0  0  0
  7  8  1  0  0  0  0
  8  9  1  0  0  0  0
  8 10  2  0  0  0  0
 10 11  1  0  0  0  0
 11 12  2  0  0  0  0
 12 13  1  0  0  0  0
 13  9  2  0  0  0  0
 11 14  1  0  0  0  0
 14 15  1  0  0  0  0
 15 16  1  0  0  0  0
 16 17  1  0  0  0  0
 17 12  1  0  0  0  0
 16 18  1  0  0  0  0
 18 19  1  0  0  0  0
 19 20  1  0  0  0  0
 20 17  1  0  0  0  0
 18 21  2  0  0  0  0
 21 22  1  0  0  0  0
 22 23  2  0  0  0  0
 23 24  1  0  0  0  0
 24 19  2  0  0  0  0
 22 25  1  0  0  0  0
 25 26  1  0  0  0  0
 26 27  1  0  0  0  0
 27 23  1  0  0  0  0
  1 28  1  0  0  0  0
 28 29  1  0  0  0  0
 29 30  1  0  0  0  0
 30 31  1  0  0  0  0
 30 32  2  0  0  0  0
  4 33  1  0  0  0  0
  3 34  1  1  0  0  0
  2 35  1  6  0  0  0
M  END
>  <cdx:fragmentId>
5

$$$$
