300263.cdx
  Mrv1902 05222410222D          

  9  9  0  0  0  0            999 V2000
    5.8802   -7.3868    0.0000 O   0  0  0  0  0  0  0  0  0  0  0  0
    5.3282   -6.7737    0.0000 C   0  0  0  0  0  0  0  0  0  0  0  0
    5.7407   -6.0592    0.0000 C   0  0  0  0  0  0  0  0  0  0  0  0
    6.5477   -6.2308    0.0000 C   0  0  1  0  0  0  0  0  0  0  0  0
    6.6339   -7.0512    0.0000 C   0  0  1  0  0  0  0  0  0  0  0  0
    4.5077   -6.8599    0.0000 O   0  0  0  0  0  0  0  0  0  0  0  0
    7.3484   -7.4637    0.0000 C   0  0  0  0  0  0  0  0  0  0  0  0
    8.0629   -7.0512    0.0000 O   0  0  0  0  0  0  0  0  0  0  0  0
    7.1608   -5.6787    0.0000 O   0  0  0  0  0  0  0  0  0  0  0  0
  1  2  1  0  0  0  0
  2  3  1  0  0  0  0
  3  4  1  0  0  0  0
  4  5  1  0  0  0  0
  1  5  1  0  0  0  0
  2  6  2  0  0  0  0
  7  8  1  0  0  0  0
  5  7  1  1  0  0  0
  4  9  1  6  0  0  0
M  END
>  <cdx:fragmentId>
1641

$$$$
