300259.cdx
  Mrv1902 05222410202D          

 19 21  0  0  0  0            999 V2000
    7.0979   -7.1239    0.0000 N   0  0  0  0  0  0  0  0  0  0  0  0
    6.3834   -7.5364    0.0000 C   0  0  0  0  0  0  0  0  0  0  0  0
    5.6690   -7.1239    0.0000 N   0  0  0  0  0  0  0  0  0  0  0  0
    5.6690   -6.2989    0.0000 C   0  0  0  0  0  0  0  0  0  0  0  0
    6.3834   -5.8864    0.0000 N   0  0  0  0  0  0  0  0  0  0  0  0
    7.0979   -6.2989    0.0000 C   0  0  0  0  0  0  0  0  0  0  0  0
    7.8124   -5.8864    0.0000 N   0  0  0  0  0  0  0  0  0  0  0  0
    7.8124   -5.0614    0.0000 C   0  0  0  0  0  0  0  0  0  0  0  0
    8.5269   -4.6489    0.0000 C   0  0  0  0  0  0  0  0  0  0  0  0
    9.2413   -5.0614    0.0000 C   0  0  0  0  0  0  0  0  0  0  0  0
    9.2413   -5.8864    0.0000 C   0  0  0  0  0  0  0  0  0  0  0  0
    8.5269   -6.2989    0.0000 C   0  0  0  0  0  0  0  0  0  0  0  0
    4.9545   -5.8864    0.0000 N   0  0  0  0  0  0  0  0  0  0  0  0
    4.2400   -6.2989    0.0000 C   0  0  0  0  0  0  0  0  0  0  0  0
    3.5256   -5.8864    0.0000 C   0  0  0  0  0  0  0  0  0  0  0  0
    3.5256   -5.0614    0.0000 C   0  0  0  0  0  0  0  0  0  0  0  0
    4.2400   -4.6489    0.0000 C   0  0  0  0  0  0  0  0  0  0  0  0
    4.9545   -5.0614    0.0000 C   0  0  0  0  0  0  0  0  0  0  0  0
    6.3834   -8.3614    0.0000 Cl  0  0  0  0  0  0  0  0  0  0  0  0
  1  2  1  0  0  0  0
  2  3  2  0  0  0  0
  3  4  1  0  0  0  0
  4  5  2  0  0  0  0
  5  6  1  0  0  0  0
  1  6  2  0  0  0  0
  7  8  1  0  0  0  0
  8  9  1  0  0  0  0
  9 10  1  0  0  0  0
 10 11  1  0  0  0  0
 11 12  1  0  0  0  0
  7 12  1  0  0  0  0
  6  7  1  0  0  0  0
 13 14  1  0  0  0  0
 14 15  1  0  0  0  0
 15 16  1  0  0  0  0
 16 17  1  0  0  0  0
 17 18  1  0  0  0  0
 13 18  1  0  0  0  0
  4 13  1  0  0  0  0
  2 19  1  0  0  0  0
M  END
>  <cdx:fragmentId>
1492

$$$$
