300260.cdx
  Mrv1902 05222410232D          

  7  7  0  0  0  0            999 V2000
    7.4224   -6.2088    0.0000 C   0  0  0  0  0  0  0  0  0  0  0  0
    6.7069   -6.6197    0.0000 C   0  0  0  0  0  0  0  0  0  0  0  0
    6.7051   -7.4447    0.0000 C   0  0  0  0  0  0  0  0  0  0  0  0
    7.4186   -7.8588    0.0000 C   0  0  0  0  0  0  0  0  0  0  0  0
    8.1340   -7.4479    0.0000 C   0  0  0  0  0  0  0  0  0  0  0  0
    8.1359   -6.6229    0.0000 C   0  0  0  0  0  0  0  0  0  0  0  0
    7.4242   -5.3838    0.0000 O   0  0  0  0  0  0  0  0  0  0  0  0
  1  2  1  0  0  0  0
  2  3  2  0  0  0  0
  3  4  1  0  0  0  0
  4  5  1  0  0  0  0
  5  6  1  0  0  0  0
  1  6  1  0  0  0  0
  1  7  2  0  0  0  0
M  END
>  <cdx:fragmentId>
1541

$$$$
