300238-1.cdx
  Mrv1902 05222410192D          

 36 40  0  0  0  0            999 V2000
    6.7193   -6.9303    0.0000 C   0  0  1  0  0  0  0  0  0  0  0  0
    7.4337   -6.5178    0.0000 C   0  0  0  0  0  0  0  0  0  0  0  0
    8.1482   -6.9303    0.0000 C   0  0  0  0  0  0  0  0  0  0  0  0
    8.1482   -7.7553    0.0000 C   0  0  0  0  0  0  0  0  0  0  0  0
    7.4337   -8.1678    0.0000 C   0  0  2  0  0  0  0  0  0  0  0  0
    7.4337   -8.9928    0.0000 C   0  0  0  0  0  0  0  0  0  0  0  0
    6.7193   -9.4053    0.0000 C   0  0  0  0  0  0  0  0  0  0  0  0
    6.0048   -8.9928    0.0000 C   0  0  1  0  0  0  0  0  0  0  0  0
    5.2903   -9.4053    0.0000 C   0  0  2  0  0  0  0  0  0  0  0  0
    5.2903  -10.2303    0.0000 C   0  0  0  0  0  0  0  0  0  0  0  0
    4.5758  -10.6428    0.0000 C   0  0  0  0  0  0  0  0  0  0  0  0
    3.8614  -10.2303    0.0000 C   0  0  0  0  0  0  0  0  0  0  0  0
    3.1469  -10.6428    0.0000 C   0  0  0  0  0  0  0  0  0  0  0  0
    2.4324  -10.2303    0.0000 C   0  0  0  0  0  0  0  0  0  0  0  0
    2.4324   -9.4053    0.0000 C   0  0  0  0  0  0  0  0  0  0  0  0
    3.1469   -8.9928    0.0000 C   0  0  0  0  0  0  0  0  0  0  0  0
    3.8614   -9.4053    0.0000 C   0  0  2  0  0  0  0  0  0  0  0  0
    4.5758   -8.9928    0.0000 C   0  0  0  0  0  0  0  0  0  0  0  0
    4.5758   -8.1678    0.0000 C   0  0  0  0  0  0  0  0  0  0  0  0
    5.2903   -7.7553    0.0000 C   0  0  0  0  0  0  0  0  0  0  0  0
    6.0048   -8.1678    0.0000 C   0  0  0  0  0  0  0  0  0  0  0  0
    6.7193   -7.7553    0.0000 C   0  0  0  0  0  0  0  0  0  0  0  0
    8.1482   -8.5803    0.0000 C   0  0  0  0  0  0  0  0  0  0  0  0
    8.1482   -9.4053    0.0000 O   0  0  0  0  0  0  0  0  0  0  0  0
    8.8627   -8.1678    0.0000 O   0  0  0  0  0  0  0  0  0  0  0  0
    1.7180   -8.9928    0.0000 O   0  0  0  0  0  0  0  0  0  0  0  0
    3.8614   -8.5803    0.0000 C   0  0  0  0  0  0  0  0  0  0  0  0
    3.5594  -11.3572    0.0000 C   0  0  0  0  0  0  0  0  0  0  0  0
    2.7344  -11.3572    0.0000 C   0  0  0  0  0  0  0  0  0  0  0  0
    5.2903   -8.5803    0.0000 C   0  0  0  0  0  0  0  0  0  0  0  0
    6.0048   -9.8178    0.0000 C   0  0  0  0  0  0  0  0  0  0  0  0
    7.4337   -5.6928    0.0000 C   0  0  0  0  0  0  0  0  0  0  0  0
    6.3068   -6.2158    0.0000 C   0  0  0  0  0  0  0  0  0  0  0  0
    3.1469   -8.1678    0.0000 O   0  0  0  0  0  0  0  0  0  0  0  0
    1.7180  -10.6428    0.0000 O   0  0  0  0  0  0  0  0  0  0  0  0
    5.8943   -6.9303    0.0000 O   0  0  0  0  0  0  0  0  0  0  0  0
  1  2  1  0  0  0  0
  2  3  1  0  0  0  0
  3  4  1  0  0  0  0
  4  5  1  0  0  0  0
  5  6  1  0  0  0  0
  6  7  1  0  0  0  0
  7  8  1  0  0  0  0
  8  9  1  0  0  0  0
  9 10  1  0  0  0  0
 10 11  1  0  0  0  0
 11 12  1  0  0  0  0
 12 13  1  0  0  0  0
 13 14  1  0  0  0  0
 14 15  1  0  0  0  0
 15 16  1  0  0  0  0
 16 17  1  0  0  0  0
 12 17  1  0  0  0  0
 17 18  1  0  0  0  0
  9 18  1  0  0  0  0
 18 19  1  0  0  0  0
 19 20  1  0  0  0  0
 20 21  2  0  0  0  0
  8 21  1  0  0  0  0
 21 22  1  0  0  0  0
  5 22  1  0  0  0  0
  1 22  1  0  0  0  0
 23 24  2  0  0  0  0
 23 25  1  0  0  0  0
  5 23  1  1  0  0  0
 15 26  2  0  0  0  0
 17 27  1  1  0  0  0
 13 28  1  0  0  0  0
 13 29  1  0  0  0  0
  9 30  1  1  0  0  0
  8 31  1  6  0  0  0
  2 32  1  0  0  0  0
  1 33  1  1  0  0  0
 16 34  1  0  0  0  0
 14 35  1  0  0  0  0
  1 36  1  6  0  0  0
M  END
>  <cdx:fragmentId>
3868

$$$$
