300241.cdx
  Mrv1902 05222410252D          

 39 43  0  0  0  0            999 V2000
    8.4724   -7.1302    0.0000 C   0  0  1  0  0  0  0  0  0  0  0  0
    9.1869   -6.7177    0.0000 C   0  0  1  0  0  0  0  0  0  0  0  0
    9.9013   -7.1302    0.0000 C   0  0  0  0  0  0  0  0  0  0  0  0
    9.9013   -7.9552    0.0000 C   0  0  0  0  0  0  0  0  0  0  0  0
    9.1869   -8.3677    0.0000 C   0  0  2  0  0  0  0  0  0  0  0  0
    9.1869   -9.1927    0.0000 C   0  0  0  0  0  0  0  0  0  0  0  0
    8.4724   -9.6052    0.0000 C   0  0  0  0  0  0  0  0  0  0  0  0
    7.7579   -9.1927    0.0000 C   0  0  1  0  0  0  0  0  0  0  0  0
    7.0434   -9.6052    0.0000 C   0  0  2  0  0  0  0  0  0  0  0  0
    7.0434  -10.4302    0.0000 C   0  0  0  0  0  0  0  0  0  0  0  0
    6.3290  -10.8427    0.0000 C   0  0  0  0  0  0  0  0  0  0  0  0
    5.6145  -10.4302    0.0000 C   0  0  1  0  0  0  0  0  0  0  0  0
    4.9000  -10.8427    0.0000 C   0  0  1  0  0  0  0  0  0  0  0  0
    4.1856  -10.4302    0.0000 C   0  0  1  0  0  0  0  0  0  0  0  0
    4.1856   -9.6052    0.0000 C   0  0  1  0  0  0  0  0  0  0  0  0
    4.9000   -9.1927    0.0000 C   0  0  2  0  0  0  0  0  0  0  0  0
    5.6145   -9.6052    0.0000 C   0  0  2  0  0  0  0  0  0  0  0  0
    6.3290   -9.1927    0.0000 C   0  0  1  0  0  0  0  0  0  0  0  0
    6.3290   -8.3677    0.0000 C   0  0  0  0  0  0  0  0  0  0  0  0
    7.0434   -7.9552    0.0000 C   0  0  0  0  0  0  0  0  0  0  0  0
    7.7579   -8.3677    0.0000 C   0  0  0  0  0  0  0  0  0  0  0  0
    8.4724   -7.9552    0.0000 C   0  0  2  0  0  0  0  0  0  0  0  0
    9.9013   -8.7802    0.0000 C   0  0  0  0  0  0  0  0  0  0  0  0
    9.9013   -9.6052    0.0000 O   0  0  0  0  0  0  0  0  0  0  0  0
   10.6158   -8.3677    0.0000 O   0  0  0  0  0  0  0  0  0  0  0  0
    5.6145   -8.7802    0.0000 C   0  0  0  0  0  0  0  0  0  0  0  0
    5.3125  -11.5572    0.0000 C   0  0  0  0  0  0  0  0  0  0  0  0
    7.0434   -8.7802    0.0000 C   0  0  0  0  0  0  0  0  0  0  0  0
    7.7579  -10.0177    0.0000 C   0  0  0  0  0  0  0  0  0  0  0  0
    9.1869   -5.8927    0.0000 C   0  0  0  0  0  0  0  0  0  0  0  0
    7.7579   -6.7177    0.0000 C   0  0  0  0  0  0  0  0  0  0  0  0
    4.4875  -11.5572    0.0000 C   0  0  0  0  0  0  0  0  0  0  0  0
    4.9000   -8.3677    0.0000 O   0  0  0  0  0  0  0  0  0  0  0  0
    3.4711   -9.1927    0.0000 O   0  0  0  0  0  0  0  0  0  0  0  0
    3.4711  -10.8427    0.0000 O   0  0  0  0  0  0  0  0  0  0  0  0
    5.6145  -11.2552    0.0000 H   0  0  0  0  0  0  0  0  0  0  0  0
    8.4724   -8.7802    0.0000 H   0  0  0  0  0  0  0  0  0  0  0  0
    4.9000  -12.2717    0.0000 O   0  0  0  0  0  0  0  0  0  0  0  0
    6.3290  -10.0177    0.0000 H   0  0  0  0  0  0  0  0  0  0  0  0
  1  2  1  0  0  0  0
  2  3  1  0  0  0  0
  3  4  1  0  0  0  0
  4  5  1  0  0  0  0
  5  6  1  0  0  0  0
  6  7  1  0  0  0  0
  7  8  1  0  0  0  0
  8  9  1  0  0  0  0
  9 10  1  0  0  0  0
 10 11  1  0  0  0  0
 11 12  1  0  0  0  0
 12 13  1  0  0  0  0
 13 14  1  0  0  0  0
 14 15  1  0  0  0  0
 15 16  1  0  0  0  0
 16 17  1  0  0  0  0
 12 17  1  0  0  0  0
 17 18  1  0  0  0  0
  9 18  1  0  0  0  0
 18 19  1  0  0  0  0
 19 20  1  0  0  0  0
 20 21  2  0  0  0  0
  8 21  1  0  0  0  0
 21 22  1  0  0  0  0
  5 22  1  0  0  0  0
  1 22  1  0  0  0  0
 23 24  2  0  0  0  0
 23 25  1  0  0  0  0
  5 23  1  1  0  0  0
 17 26  1  1  0  0  0
 13 27  1  6  0  0  0
  9 28  1  1  0  0  0
  8 29  1  6  0  0  0
  2 30  1  6  0  0  0
  1 31  1  1  0  0  0
 13 32  1  1  0  0  0
 16 33  1  1  0  0  0
 15 34  1  6  0  0  0
 14 35  1  6  0  0  0
 12 36  1  6  0  0  0
 22 37  1  1  0  0  0
 32 38  1  0  0  0  0
 18 39  1  6  0  0  0
M  END
>  <cdx:fragmentId>
248

$$$$
