300232.cdx
  Mrv1902 05222410262D          

 35 34  0  0  0  0            999 V2000
   -6.8557   -8.7756    0.0000 C   0  0  0  0  0  0  0  0  0  0  0  0
   -6.1412   -8.3631    0.0000 C   0  0  0  0  0  0  0  0  0  0  0  0
   -5.4268   -8.7756    0.0000 C   0  0  0  0  0  0  0  0  0  0  0  0
   -4.7123   -8.3631    0.0000 C   0  0  0  0  0  0  0  0  0  0  0  0
   -3.9978   -8.7756    0.0000 C   0  0  0  0  0  0  0  0  0  0  0  0
   -3.2833   -8.3631    0.0000 C   0  0  0  0  0  0  0  0  0  0  0  0
   -2.5689   -8.7756    0.0000 C   0  0  0  0  0  0  0  0  0  0  0  0
   -1.8544   -8.3631    0.0000 C   0  0  0  0  0  0  0  0  0  0  0  0
   -1.1399   -8.7756    0.0000 C   0  0  0  0  0  0  0  0  0  0  0  0
   -0.4255   -8.3631    0.0000 C   0  0  0  0  0  0  0  0  0  0  0  0
    0.2890   -8.7756    0.0000 C   0  0  0  0  0  0  0  0  0  0  0  0
    1.0035   -8.3631    0.0000 C   0  0  0  0  0  0  0  0  0  0  0  0
    1.7180   -8.7756    0.0000 C   0  0  0  0  0  0  0  0  0  0  0  0
    2.4324   -8.3631    0.0000 C   0  0  0  0  0  0  0  0  0  0  0  0
    3.1469   -8.7756    0.0000 C   0  0  0  0  0  0  0  0  0  0  0  0
    3.8614   -8.3631    0.0000 C   0  0  0  0  0  0  0  0  0  0  0  0
    4.5758   -8.7756    0.0000 C   0  0  0  0  0  0  0  0  0  0  0  0
    5.2903   -8.3631    0.0000 C   0  0  0  0  0  0  0  0  0  0  0  0
    6.0048   -8.7756    0.0000 C   0  0  0  0  0  0  0  0  0  0  0  0
    6.7193   -8.3631    0.0000 C   0  0  0  0  0  0  0  0  0  0  0  0
    7.4337   -8.7756    0.0000 C   0  0  0  0  0  0  0  0  0  0  0  0
    8.1482   -8.3631    0.0000 C   0  0  0  0  0  0  0  0  0  0  0  0
    8.8627   -8.7756    0.0000 C   0  0  0  0  0  0  0  0  0  0  0  0
    9.5771   -8.3631    0.0000 C   0  0  0  0  0  0  0  0  0  0  0  0
   10.2916   -8.7756    0.0000 C   0  0  0  0  0  0  0  0  0  0  0  0
   11.0061   -8.3631    0.0000 C   0  0  0  0  0  0  0  0  0  0  0  0
   11.7206   -8.7756    0.0000 C   0  0  0  0  0  0  0  0  0  0  0  0
   12.4350   -8.3631    0.0000 C   0  0  0  0  0  0  0  0  0  0  0  0
   13.1495   -8.7756    0.0000 C   0  0  0  0  0  0  0  0  0  0  0  0
   13.8640   -8.3631    0.0000 C   0  0  0  0  0  0  0  0  0  0  0  0
   14.5784   -8.7756    0.0000 C   0  0  0  0  0  0  0  0  0  0  0  0
   15.2929   -8.3631    0.0000 C   0  0  0  0  0  0  0  0  0  0  0  0
   16.0074   -8.7756    0.0000 C   0  0  0  0  0  0  0  0  0  0  0  0
   16.7218   -8.3631    0.0000 C   0  0  0  0  0  0  0  0  0  0  0  0
   17.4363   -8.7756    0.0000 C   0  0  0  0  0  0  0  0  0  0  0  0
  1  2  1  0  0  0  0
  2  3  1  0  0  0  0
  3  4  1  0  0  0  0
  4  5  1  0  0  0  0
  5  6  1  0  0  0  0
  6  7  1  0  0  0  0
  7  8  1  0  0  0  0
  8  9  1  0  0  0  0
  9 10  1  0  0  0  0
 10 11  1  0  0  0  0
 11 12  1  0  0  0  0
 12 13  1  0  0  0  0
 13 14  1  0  0  0  0
 14 15  1  0  0  0  0
 15 16  1  0  0  0  0
 16 17  1  0  0  0  0
 17 18  2  0  0  0  0
 18 19  1  0  0  0  0
 19 20  1  0  0  0  0
 20 21  1  0  0  0  0
 21 22  1  0  0  0  0
 22 23  1  0  0  0  0
 23 24  1  0  0  0  0
 24 25  1  0  0  0  0
 25 26  1  0  0  0  0
 26 27  1  0  0  0  0
 27 28  1  0  0  0  0
 28 29  1  0  0  0  0
 29 30  1  0  0  0  0
 30 31  1  0  0  0  0
 31 32  1  0  0  0  0
 32 33  1  0  0  0  0
 33 34  1  0  0  0  0
 34 35  1  0  0  0  0
M  END
>  <cdx:fragmentId>
3261

$$$$
