300277.cdx
  Mrv1902 05222410222D          

 25 28  0  0  0  0            999 V2000
    6.0180   -6.6543    0.0000 C   0  0  0  0  0  0  0  0  0  0  0  0
    5.3035   -7.0668    0.0000 C   0  0  0  0  0  0  0  0  0  0  0  0
    5.3035   -7.8918    0.0000 C   0  0  0  0  0  0  0  0  0  0  0  0
    6.0180   -8.3043    0.0000 C   0  0  0  0  0  0  0  0  0  0  0  0
    6.7325   -7.8918    0.0000 C   0  0  0  0  0  0  0  0  0  0  0  0
    7.4469   -8.3043    0.0000 C   0  0  0  0  0  0  0  0  0  0  0  0
    8.1614   -7.8918    0.0000 C   0  0  0  0  0  0  0  0  0  0  0  0
    8.1614   -7.0668    0.0000 C   0  0  1  0  0  0  0  0  0  0  0  0
    8.8759   -6.6543    0.0000 C   0  0  2  0  0  0  0  0  0  0  0  0
    9.6605   -6.9093    0.0000 C   0  0  0  0  0  0  0  0  0  0  0  0
   10.1454   -6.2418    0.0000 C   0  0  0  0  0  0  0  0  0  0  0  0
    9.6605   -5.5744    0.0000 C   0  0  1  0  0  0  0  0  0  0  0  0
    8.8759   -5.8293    0.0000 C   0  0  1  0  0  0  0  0  0  0  0  0
    8.1614   -5.4168    0.0000 C   0  0  0  0  0  0  0  0  0  0  0  0
    7.4469   -5.8293    0.0000 C   0  0  0  0  0  0  0  0  0  0  0  0
    7.4469   -6.6543    0.0000 C   0  0  2  0  0  0  0  0  0  0  0  0
    6.7325   -7.0668    0.0000 C   0  0  0  0  0  0  0  0  0  0  0  0
    4.5891   -8.3043    0.0000 O   0  0  0  0  0  0  0  0  0  0  0  0
    9.9155   -4.7898    0.0000 O   0  0  0  0  0  0  0  0  0  0  0  0
    8.8759   -5.0043    0.0000 C   0  0  0  0  0  0  0  0  0  0  0  0
    4.5891   -6.6543    0.0000 O   0  0  0  0  0  0  0  0  0  0  0  0
    3.8746   -7.0668    0.0000 C   0  0  0  0  0  0  0  0  0  0  0  0
    8.1614   -6.2418    0.0000 H   0  0  0  0  0  0  0  0  0  0  0  0
    7.4469   -7.4793    0.0000 H   0  0  0  0  0  0  0  0  0  0  0  0
    8.8759   -7.4793    0.0000 H   0  0  0  0  0  0  0  0  0  0  0  0
  1  2  1  0  0  0  0
  2  3  2  0  0  0  0
  3  4  1  0  0  0  0
  4  5  2  0  0  0  0
  5  6  1  0  0  0  0
  6  7  1  0  0  0  0
  7  8  1  0  0  0  0
  8  9  1  0  0  0  0
  9 10  1  0  0  0  0
 10 11  1  0  0  0  0
 11 12  1  0  0  0  0
 12 13  1  0  0  0  0
  9 13  1  0  0  0  0
 13 14  1  0  0  0  0
 14 15  1  0  0  0  0
 15 16  1  0  0  0  0
  8 16  1  0  0  0  0
 16 17  1  0  0  0  0
  5 17  1  0  0  0  0
  1 17  2  0  0  0  0
  3 18  1  0  0  0  0
 12 19  1  1  0  0  0
 13 20  1  1  0  0  0
 21 22  1  0  0  0  0
  2 21  1  0  0  0  0
  8 23  1  1  0  0  0
 16 24  1  6  0  0  0
  9 25  1  6  0  0  0
M  END
>  <cdx:fragmentId>
2204

$$$$
