300272.cdx
  Mrv1902 05222410212D          

 11 11  0  0  0  0            999 V2000
    8.0351   -6.9596    0.0000 C   0  0  0  0  0  0  0  0  0  0  0  0
    7.3207   -7.3721    0.0000 C   0  0  0  0  0  0  0  0  0  0  0  0
    8.0351   -6.1346    0.0000 O   0  0  0  0  0  0  0  0  0  0  0  0
    8.7496   -7.3721    0.0000 O   0  5  0  0  0  0  0  0  0  0  0  0
    6.6062   -6.9596    0.0000 C   0  0  0  0  0  0  0  0  0  0  0  0
    6.6062   -6.1346    0.0000 C   0  0  0  0  0  0  0  0  0  0  0  0
    5.8917   -5.7221    0.0000 C   0  0  0  0  0  0  0  0  0  0  0  0
    5.1773   -6.1346    0.0000 C   0  0  0  0  0  0  0  0  0  0  0  0
    5.1773   -6.9596    0.0000 C   0  0  0  0  0  0  0  0  0  0  0  0
    5.8917   -7.3721    0.0000 C   0  0  0  0  0  0  0  0  0  0  0  0
    7.3207   -5.7221    0.0000 O   0  0  0  0  0  0  0  0  0  0  0  0
  1  2  1  0  0  0  0
  1  3  2  0  0  0  0
  1  4  1  0  0  0  0
  5  6  1  0  0  0  0
  6  7  2  0  0  0  0
  7  8  1  0  0  0  0
  8  9  2  0  0  0  0
  9 10  1  0  0  0  0
  5 10  2  0  0  0  0
  6 11  1  0  0  0  0
  2  5  1  0  0  0  0
M  CHG  1   4  -1
M  END
>  <cdx:fragmentId>
2037

$$$$
