300268.cdx
  Mrv1902 05222410252D          

 16 18  0  0  0  0            999 V2000
    7.4313   -5.6822    0.0000 C   0  0  0  0  0  0  0  0  0  0  0  0
    8.1458   -6.0947    0.0000 C   0  0  0  0  0  0  0  0  0  0  0  0
    8.1458   -6.9197    0.0000 C   0  0  0  0  0  0  0  0  0  0  0  0
    7.4313   -7.3322    0.0000 C   0  0  0  0  0  0  0  0  0  0  0  0
    6.7169   -6.9197    0.0000 C   0  0  0  0  0  0  0  0  0  0  0  0
    6.0024   -7.3322    0.0000 N   0  0  0  0  0  0  0  0  0  0  0  0
    5.2879   -6.9197    0.0000 C   0  0  0  0  0  0  0  0  0  0  0  0
    4.5735   -7.3322    0.0000 C   0  0  0  0  0  0  0  0  0  0  0  0
    3.8590   -6.9197    0.0000 C   0  0  0  0  0  0  0  0  0  0  0  0
    3.8590   -6.0947    0.0000 C   0  0  0  0  0  0  0  0  0  0  0  0
    4.5735   -5.6822    0.0000 C   0  0  0  0  0  0  0  0  0  0  0  0
    5.2879   -6.0947    0.0000 C   0  0  0  0  0  0  0  0  0  0  0  0
    6.0024   -5.6822    0.0000 C   0  0  0  0  0  0  0  0  0  0  0  0
    6.7169   -6.0947    0.0000 C   0  0  0  0  0  0  0  0  0  0  0  0
    8.8603   -5.6822    0.0000 C   0  0  0  0  0  0  0  0  0  0  0  0
    9.5748   -6.0947    0.0000 C   0  0  0  0  0  0  0  0  0  0  0  0
  1  2  2  0  0  0  0
  2  3  1  0  0  0  0
  3  4  2  0  0  0  0
  4  5  1  0  0  0  0
  5  6  2  0  0  0  0
  6  7  1  0  0  0  0
  7  8  2  0  0  0  0
  8  9  1  0  0  0  0
  9 10  2  0  0  0  0
 10 11  1  0  0  0  0
 11 12  2  0  0  0  0
  7 12  1  0  0  0  0
 12 13  1  0  0  0  0
 13 14  2  0  0  0  0
  5 14  1  0  0  0  0
  1 14  1  0  0  0  0
 15 16  1  0  0  0  0
  2 15  1  0  0  0  0
M  END
>  <cdx:fragmentId>
1857

$$$$
