300273.cdx
  Mrv1902 05222410212D          

 11 12  0  0  0  0            999 V2000
    6.5802   -7.2285    0.0000 N   0  0  0  0  0  0  0  0  0  0  0  0
    7.4051   -7.2360    0.0000 C   0  0  0  0  0  0  0  0  0  0  0  0
    7.6672   -6.4538    0.0000 C   0  0  1  0  0  0  0  0  0  0  0  0
    7.0042   -5.9628    0.0000 O   0  0  0  0  0  0  0  0  0  0  0  0
    6.3324   -6.4416    0.0000 C   0  0  1  0  0  0  0  0  0  0  0  0
    5.5455   -6.6894    0.0000 C   0  0  0  0  0  0  0  0  0  0  0  0
    5.7933   -7.4764    0.0000 C   0  0  0  0  0  0  0  0  0  0  0  0
    5.4121   -8.2080    0.0000 O   0  0  0  0  0  0  0  0  0  0  0  0
    8.4541   -6.2060    0.0000 C   0  0  0  0  0  0  0  0  0  0  0  0
    8.6329   -5.4006    0.0000 O   0  0  0  0  0  0  0  0  0  0  0  0
    5.9645   -5.7032    0.0000 H   0  0  0  0  0  0  0  0  0  0  0  0
  1  2  1  0  0  0  0
  2  3  1  0  0  0  0
  3  4  1  0  0  0  0
  4  5  1  0  0  0  0
  5  6  1  0  0  0  0
  6  7  1  0  0  0  0
  1  7  1  0  0  0  0
  1  5  1  0  0  0  0
  7  8  2  0  0  0  0
  9 10  1  0  0  0  0
  3  9  1  1  0  0  0
  5 11  1  1  0  0  0
M  END
>  <cdx:fragmentId>
2065

$$$$
