300208.cdx
  Mrv1902 05222410272D          

 31 33  0  0  0  0            999 V2000
    5.1430   -2.3925    0.0000 C   0  0  0  0  0  0  0  0  0  0  0  0
    5.1430   -3.2175    0.0000 C   0  0  0  0  0  0  0  0  0  0  0  0
    5.8575   -3.6300    0.0000 C   0  0  0  0  0  0  0  0  0  0  0  0
    6.5720   -3.2175    0.0000 C   0  0  0  0  0  0  0  0  0  0  0  0
    6.5720   -2.3925    0.0000 C   0  0  0  0  0  0  0  0  0  0  0  0
    5.8575   -1.9800    0.0000 C   0  0  0  0  0  0  0  0  0  0  0  0
    7.2864   -3.6300    0.0000 O   0  0  0  0  0  0  0  0  0  0  0  0
    8.0009   -3.2175    0.0000 C   0  0  0  0  0  0  0  0  0  0  0  0
    8.0009   -2.3925    0.0000 C   0  0  0  0  0  0  0  0  0  0  0  0
    7.2864   -1.9800    0.0000 C   0  0  0  0  0  0  0  0  0  0  0  0
    8.7154   -3.6300    0.0000 O   0  0  0  0  0  0  0  0  0  0  0  0
    4.4286   -3.6300    0.0000 O   0  0  0  0  0  0  0  0  0  0  0  0
    5.8575   -4.4550    0.0000 C   0  0  2  0  0  0  0  0  0  0  0  0
    4.4286   -4.4550    0.0000 C   0  0  0  0  0  0  0  0  0  0  0  0
    5.1430   -4.8675    0.0000 C   0  0  2  0  0  0  0  0  0  0  0  0
    5.1430   -5.6925    0.0000 O   0  0  0  0  0  0  0  0  0  0  0  0
    6.5720   -4.8675    0.0000 O   0  0  0  0  0  0  0  0  0  0  0  0
    6.5720   -5.6925    0.0000 C   0  0  0  0  0  0  0  0  0  0  0  0
    3.6317   -4.6685    0.0000 C   0  0  0  0  0  0  0  0  0  0  0  0
    4.2150   -5.2519    0.0000 C   0  0  0  0  0  0  0  0  0  0  0  0
    5.8575   -6.1050    0.0000 O   0  0  0  0  0  0  0  0  0  0  0  0
    7.2864   -6.1050    0.0000 C   0  0  0  0  0  0  0  0  0  0  0  0
    8.0009   -5.6925    0.0000 C   0  0  0  0  0  0  0  0  0  0  0  0
    4.4286   -6.1050    0.0000 C   0  0  0  0  0  0  0  0  0  0  0  0
    7.2864   -6.9300    0.0000 C   0  0  0  0  0  0  0  0  0  0  0  0
    4.4286   -6.9300    0.0000 C   0  0  0  0  0  0  0  0  0  0  0  0
    3.7141   -5.6925    0.0000 O   0  0  0  0  0  0  0  0  0  0  0  0
    3.7141   -7.3425    0.0000 C   0  0  0  0  0  0  0  0  0  0  0  0
    5.1430   -7.3425    0.0000 C   0  0  0  0  0  0  0  0  0  0  0  0
    3.7141   -8.1675    0.0000 C   0  0  0  0  0  0  0  0  0  0  0  0
    6.5720   -7.3425    0.0000 C   0  0  0  0  0  0  0  0  0  0  0  0
  1  2  2  0  0  0  0
  2  3  1  0  0  0  0
  3  4  2  0  0  0  0
  4  5  1  0  0  0  0
  5  6  2  0  0  0  0
  6  1  1  0  0  0  0
  4  7  1  0  0  0  0
  7  8  1  0  0  0  0
  8  9  1  0  0  0  0
  9 10  2  0  0  0  0
 10  5  1  0  0  0  0
  8 11  2  0  0  0  0
  2 12  1  0  0  0  0
  3 13  1  0  0  0  0
 12 14  1  0  0  0  0
 14 15  1  0  0  0  0
 15 13  1  0  0  0  0
 15 16  1  1  0  0  0
 13 17  1  1  0  0  0
 17 18  1  0  0  0  0
 14 19  1  0  0  0  0
 14 20  1  0  0  0  0
 18 21  2  0  0  0  0
 18 22  1  0  0  0  0
 22 23  1  0  0  0  0
 16 24  1  0  0  0  0
 22 25  2  0  0  0  0
 24 26  1  0  0  0  0
 24 27  2  0  0  0  0
 26 28  1  0  0  0  0
 26 29  1  0  0  0  0
 28 30  1  0  0  0  0
 25 31  1  0  0  0  0
M  END
>  <cdx:fragmentId>
71

$$$$
