300242.cdx
  Mrv1902 05222410252D          

 22 23  0  0  0  0            999 V2000
    8.2086   -7.7427    0.0000 C   0  0  0  0  0  0  0  0  0  0  0  0
    7.4941   -7.3302    0.0000 C   0  0  0  0  0  0  0  0  0  0  0  0
    7.4941   -6.5052    0.0000 C   0  0  0  0  0  0  0  0  0  0  0  0
    8.9231   -8.1552    0.0000 N   0  0  0  0  0  0  0  0  0  0  0  0
    7.4941   -5.6802    0.0000 N   0  0  0  0  0  0  0  0  0  0  0  0
    6.7797   -7.7427    0.0000 C   0  0  0  0  0  0  0  0  0  0  0  0
    6.0652   -6.5052    0.0000 C   0  0  0  0  0  0  0  0  0  0  0  0
    6.0652   -7.3302    0.0000 C   0  0  0  0  0  0  0  0  0  0  0  0
    5.3507   -7.7427    0.0000 C   0  0  0  0  0  0  0  0  0  0  0  0
    4.6363   -7.3302    0.0000 C   0  0  0  0  0  0  0  0  0  0  0  0
    3.9218   -7.7427    0.0000 C   0  0  0  0  0  0  0  0  0  0  0  0
    3.2073   -7.3302    0.0000 C   0  0  0  0  0  0  0  0  0  0  0  0
    3.2073   -6.5052    0.0000 C   0  0  0  0  0  0  0  0  0  0  0  0
    3.9218   -6.0927    0.0000 C   0  0  0  0  0  0  0  0  0  0  0  0
    4.6363   -6.5052    0.0000 C   0  0  0  0  0  0  0  0  0  0  0  0
    5.3507   -6.0927    0.0000 O   0  0  0  0  0  0  0  0  0  0  0  0
    6.7797   -6.0927    0.0000 O   0  0  0  0  0  0  0  0  0  0  0  0
    2.4928   -6.0927    0.0000 N   0  0  0  0  0  0  0  0  0  0  0  0
    1.7784   -6.5052    0.0000 C   0  0  0  0  0  0  0  0  0  0  0  0
    1.7784   -7.3302    0.0000 C   0  0  0  0  0  0  0  0  0  0  0  0
    2.4928   -5.2677    0.0000 C   0  0  0  0  0  0  0  0  0  0  0  0
    3.2073   -4.8552    0.0000 C   0  0  0  0  0  0  0  0  0  0  0  0
  1  2  1  0  0  0  0
  2  3  1  0  0  0  0
  1  4  3  0  0  0  0
  3  5  3  0  0  0  0
  7  8  1  0  0  0  0
  8  9  2  0  0  0  0
  9 10  1  0  0  0  0
 10 11  1  0  0  0  0
 11 12  2  0  0  0  0
 12 13  1  0  0  0  0
 13 14  2  0  0  0  0
 14 15  1  0  0  0  0
 10 15  2  0  0  0  0
 15 16  1  0  0  0  0
  7 16  1  0  0  0  0
  7 17  2  0  0  0  0
 19 20  1  0  0  0  0
 18 19  1  0  0  0  0
 21 22  1  0  0  0  0
 18 21  1  0  0  0  0
 13 18  1  0  0  0  0
  6  8  1  0  0  0  0
  2  6  2  0  0  0  0
M  END
>  <cdx:fragmentId>
383

$$$$
