300266.cdx
  Mrv1902 05222410212D          

 12 13  0  0  0  0            999 V2000
    6.6903   -6.2364    0.0000 C   0  0  2  0  0  0  0  0  0  0  0  0
    7.1752   -6.9039    0.0000 C   0  0  1  0  0  0  0  0  0  0  0  0
    6.6903   -7.5713    0.0000 C   0  0  0  0  0  0  0  0  0  0  0  0
    5.9057   -7.3164    0.0000 N   0  0  0  0  0  0  0  0  0  0  0  0
    5.1912   -7.7289    0.0000 C   0  0  0  0  0  0  0  0  0  0  0  0
    4.4767   -7.3164    0.0000 C   0  0  0  0  0  0  0  0  0  0  0  0
    4.4767   -6.4914    0.0000 C   0  0  0  0  0  0  0  0  0  0  0  0
    5.1912   -6.0789    0.0000 C   0  0  0  0  0  0  0  0  0  0  0  0
    5.9057   -6.4914    0.0000 C   0  0  1  0  0  0  0  0  0  0  0  0
    6.9452   -5.4518    0.0000 O   0  0  0  0  0  0  0  0  0  0  0  0
    8.0002   -6.9039    0.0000 O   0  0  0  0  0  0  0  0  0  0  0  0
    5.9919   -5.6709    0.0000 H   0  0  0  0  0  0  0  0  0  0  0  0
  1  2  1  0  0  0  0
  2  3  1  0  0  0  0
  3  4  1  0  0  0  0
  4  5  1  0  0  0  0
  5  6  1  0  0  0  0
  6  7  1  0  0  0  0
  7  8  1  0  0  0  0
  8  9  1  0  0  0  0
  1  9  1  0  0  0  0
  4  9  1  0  0  0  0
  1 10  1  6  0  0  0
  2 11  1  6  0  0  0
  9 12  1  6  0  0  0
M  END
>  <cdx:fragmentId>
1783

$$$$
