300297.cdx
  Mrv1902 05222410252D          

 15 16  0  0  0  0            999 V2000
    5.5335   -6.9551    0.0000 O   0  0  0  0  0  0  0  0  0  0  0  0
    6.2872   -7.2906    0.0000 C   0  0  0  0  0  0  0  0  0  0  0  0
    6.2009   -8.1111    0.0000 N   0  0  0  0  0  0  0  0  0  0  0  0
    5.3940   -8.2826    0.0000 N   0  0  0  0  0  0  0  0  0  0  0  0
    4.9815   -7.5682    0.0000 C   0  0  0  0  0  0  0  0  0  0  0  0
    4.1610   -7.4819    0.0000 O   0  0  0  0  0  0  0  0  0  0  0  0
    7.0017   -6.8781    0.0000 C   0  0  0  0  0  0  0  0  0  0  0  0
    7.0017   -6.0531    0.0000 C   0  0  0  0  0  0  0  0  0  0  0  0
    7.7161   -5.6406    0.0000 C   0  0  0  0  0  0  0  0  0  0  0  0
    8.4306   -6.0531    0.0000 C   0  0  0  0  0  0  0  0  0  0  0  0
    8.4306   -6.8781    0.0000 C   0  0  0  0  0  0  0  0  0  0  0  0
    7.7161   -7.2906    0.0000 C   0  0  0  0  0  0  0  0  0  0  0  0
    9.1451   -5.6406    0.0000 N   0  3  0  0  0  0  0  0  0  0  0  0
    9.1451   -4.8156    0.0000 O   0  0  0  0  0  0  0  0  0  0  0  0
    9.8595   -6.0531    0.0000 O   0  5  0  0  0  0  0  0  0  0  0  0
  1  2  1  0  0  0  0
  2  3  1  0  0  0  0
  3  4  2  0  0  0  0
  4  5  1  0  0  0  0
  1  5  1  0  0  0  0
  5  6  2  0  0  0  0
  7  8  1  0  0  0  0
  8  9  2  0  0  0  0
  9 10  1  0  0  0  0
 10 11  2  0  0  0  0
 11 12  1  0  0  0  0
  7 12  2  0  0  0  0
 13 14  2  0  0  0  0
 13 15  1  0  0  0  0
 10 13  1  0  0  0  0
  2  7  1  0  0  0  0
M  CHG  2  13   1  15  -1
M  END
>  <cdx:fragmentId>
3237

$$$$
