300279.cdx
  Mrv1902 05222410232D          

 18 19  0  0  0  0            999 V2000
    9.0459   -7.7828    0.0000 O   0  0  0  0  0  0  0  0  0  0  0  0
    8.5610   -7.1154    0.0000 C   0  0  0  0  0  0  0  0  0  0  0  0
    9.0459   -6.4479    0.0000 O   0  0  0  0  0  0  0  0  0  0  0  0
    9.8306   -6.7029    0.0000 C   0  0  0  0  0  0  0  0  0  0  0  0
    9.8306   -7.5279    0.0000 C   0  0  0  0  0  0  0  0  0  0  0  0
    7.8465   -6.7029    0.0000 C   0  0  0  0  0  0  0  0  0  0  0  0
    7.1321   -7.1154    0.0000 C   0  0  0  0  0  0  0  0  0  0  0  0
    6.4176   -6.7029    0.0000 C   0  0  0  0  0  0  0  0  0  0  0  0
    5.7031   -7.1154    0.0000 C   0  0  0  0  0  0  0  0  0  0  0  0
    4.9887   -6.7029    0.0000 C   0  0  0  0  0  0  0  0  0  0  0  0
    4.9887   -5.8779    0.0000 C   0  0  0  0  0  0  0  0  0  0  0  0
    5.7031   -5.4654    0.0000 C   0  0  0  0  0  0  0  0  0  0  0  0
    6.4176   -5.8779    0.0000 C   0  0  0  0  0  0  0  0  0  0  0  0
    4.2742   -7.1154    0.0000 C   0  0  0  0  0  0  0  0  0  0  0  0
    6.8301   -5.1634    0.0000 C   0  0  0  0  0  0  0  0  0  0  0  0
    7.2426   -5.8779    0.0000 C   0  0  0  0  0  0  0  0  0  0  0  0
    5.7031   -7.9404    0.0000 C   0  0  0  0  0  0  0  0  0  0  0  0
    7.8465   -7.5279    0.0000 C   0  0  0  0  0  0  0  0  0  0  0  0
  1  2  1  0  0  0  0
  2  3  1  0  0  0  0
  3  4  1  0  0  0  0
  4  5  1  0  0  0  0
  1  5  1  0  0  0  0
  6  7  2  0  0  0  0
  8  9  2  0  0  0  0
  9 10  1  0  0  0  0
 10 11  1  0  0  0  0
 11 12  1  0  0  0  0
 12 13  1  0  0  0  0
  8 13  1  0  0  0  0
 10 14  2  0  0  0  0
 13 15  1  0  0  0  0
 13 16  1  0  0  0  0
  9 17  1  0  0  0  0
  7  8  1  0  0  0  0
  2  6  1  0  0  0  0
  2 18  1  0  0  0  0
M  END
>  <cdx:fragmentId>
2384

$$$$
