300200.cdx
  Mrv1902 05222410192D          

 21 20  0  0  0  0            999 V2000
   12.7279   -8.5683    0.0000 C   0  0  0  0  0  0  0  0  0  0  0  0
   12.0135   -8.9808    0.0000 C   0  0  0  0  0  0  0  0  0  0  0  0
   11.2990   -8.5683    0.0000 C   0  0  0  0  0  0  0  0  0  0  0  0
   10.5845   -8.9808    0.0000 C   0  0  0  0  0  0  0  0  0  0  0  0
    9.8700   -8.5683    0.0000 C   0  0  0  0  0  0  0  0  0  0  0  0
    9.1556   -8.9808    0.0000 C   0  0  0  0  0  0  0  0  0  0  0  0
    8.4411   -8.5683    0.0000 C   0  0  0  0  0  0  0  0  0  0  0  0
    7.7266   -8.9808    0.0000 C   0  0  0  0  0  0  0  0  0  0  0  0
    7.0122   -8.5683    0.0000 C   0  0  0  0  0  0  0  0  0  0  0  0
    6.1872   -8.5683    0.0000 C   0  0  0  0  0  0  0  0  0  0  0  0
    5.4727   -8.9808    0.0000 C   0  0  0  0  0  0  0  0  0  0  0  0
    4.7582   -8.5683    0.0000 C   0  0  1  0  0  0  0  0  0  0  0  0
    4.0438   -8.9808    0.0000 C   0  0  0  0  0  0  0  0  0  0  0  0
    3.3293   -8.5683    0.0000 C   0  0  0  0  0  0  0  0  0  0  0  0
    2.6148   -8.9808    0.0000 C   0  0  0  0  0  0  0  0  0  0  0  0
    1.9003   -8.5683    0.0000 C   0  0  0  0  0  0  0  0  0  0  0  0
    1.1859   -8.9808    0.0000 C   0  0  0  0  0  0  0  0  0  0  0  0
    0.4714   -8.5683    0.0000 C   0  0  0  0  0  0  0  0  0  0  0  0
   12.7279   -7.7433    0.0000 O   0  0  0  0  0  0  0  0  0  0  0  0
   13.4424   -8.9808    0.0000 O   0  0  0  0  0  0  0  0  0  0  0  0
    4.7582   -7.7433    0.0000 O   0  0  0  0  0  0  0  0  0  0  0  0
  1  2  1  0  0  0  0
  2  3  1  0  0  0  0
  3  4  1  0  0  0  0
  4  5  1  0  0  0  0
  5  6  1  0  0  0  0
  6  7  1  0  0  0  0
  7  8  1  0  0  0  0
  8  9  1  0  0  0  0
  9 10  2  0  0  0  0
 10 11  1  0  0  0  0
 11 12  1  0  0  0  0
 12 13  1  0  0  0  0
 13 14  1  0  0  0  0
 14 15  1  0  0  0  0
 15 16  1  0  0  0  0
 16 17  1  0  0  0  0
 17 18  1  0  0  0  0
  1 19  2  0  0  0  0
  1 20  1  0  0  0  0
 12 21  1  1  0  0  0
M  END
>  <cdx:fragmentId>
1361

$$$$
