300234.cdx
  Mrv1902 05222410272D          

 25 28  0  0  0  0            999 V2000
    3.9579   -8.6343    0.0000 C   0  0  0  0  0  0  0  0  0  0  0  0
    3.2434   -9.0468    0.0000 C   0  0  0  0  0  0  0  0  0  0  0  0
    3.2434   -9.8718    0.0000 C   0  0  0  0  0  0  0  0  0  0  0  0
    3.9579  -10.2843    0.0000 C   0  0  0  0  0  0  0  0  0  0  0  0
    4.6724   -9.8718    0.0000 C   0  0  0  0  0  0  0  0  0  0  0  0
    5.3869  -10.2843    0.0000 C   0  0  0  0  0  0  0  0  0  0  0  0
    6.1013   -9.8718    0.0000 C   0  0  0  0  0  0  0  0  0  0  0  0
    6.1013   -9.0468    0.0000 C   0  0  1  0  0  0  0  0  0  0  0  0
    6.8158   -8.6343    0.0000 C   0  0  2  0  0  0  0  0  0  0  0  0
    7.6004   -8.8893    0.0000 C   0  0  0  0  0  0  0  0  0  0  0  0
    8.0853   -8.2218    0.0000 C   0  0  0  0  0  0  0  0  0  0  0  0
    7.6004   -7.5544    0.0000 C   0  0  1  0  0  0  0  0  0  0  0  0
    6.8158   -7.8093    0.0000 C   0  0  1  0  0  0  0  0  0  0  0  0
    6.1013   -7.3968    0.0000 C   0  0  0  0  0  0  0  0  0  0  0  0
    5.3869   -7.8093    0.0000 C   0  0  0  0  0  0  0  0  0  0  0  0
    5.3869   -8.6343    0.0000 C   0  0  2  0  0  0  0  0  0  0  0  0
    4.6724   -9.0468    0.0000 C   0  0  1  0  0  0  0  0  0  0  0  0
    2.5290  -10.2843    0.0000 O   0  0  0  0  0  0  0  0  0  0  0  0
    6.8158   -6.9843    0.0000 C   0  0  0  0  0  0  0  0  0  0  0  0
    4.6724   -8.2218    0.0000 C   0  0  0  0  0  0  0  0  0  0  0  0
    3.9579   -7.8093    0.0000 O   0  0  0  0  0  0  0  0  0  0  0  0
    7.8554   -6.7698    0.0000 O   0  0  0  0  0  0  0  0  0  0  0  0
    6.1013   -8.2218    0.0000 H   0  0  0  0  0  0  0  0  0  0  0  0
    5.3869   -9.4593    0.0000 H   0  0  0  0  0  0  0  0  0  0  0  0
    6.8158   -9.4593    0.0000 H   0  0  0  0  0  0  0  0  0  0  0  0
  1  2  1  0  0  0  0
  2  3  1  0  0  0  0
  3  4  1  0  0  0  0
  4  5  2  0  0  0  0
  5  6  1  0  0  0  0
  6  7  1  0  0  0  0
  7  8  1  0  0  0  0
  8  9  1  0  0  0  0
  9 10  1  0  0  0  0
 10 11  1  0  0  0  0
 11 12  1  0  0  0  0
 12 13  1  0  0  0  0
  9 13  1  0  0  0  0
 13 14  1  0  0  0  0
 14 15  1  0  0  0  0
 15 16  1  0  0  0  0
  8 16  1  0  0  0  0
 16 17  1  0  0  0  0
  5 17  1  0  0  0  0
  1 17  1  0  0  0  0
  3 18  2  0  0  0  0
 13 19  1  1  0  0  0
 20 21  1  0  0  0  0
 17 20  1  1  0  0  0
 12 22  1  1  0  0  0
  8 23  1  1  0  0  0
 16 24  1  6  0  0  0
  9 25  1  6  0  0  0
M  END
>  <cdx:fragmentId>
3698

$$$$
