300249.cdx
  Mrv1902 05222410232D          

 19 19  0  0  0  0            999 V2000
    6.8224   -5.7733    0.0000 C   0  0  0  0  0  0  0  0  0  0  0  0
    6.8224   -6.5983    0.0000 C   0  0  0  0  0  0  0  0  0  0  0  0
    7.5369   -7.0108    0.0000 C   0  0  0  0  0  0  0  0  0  0  0  0
    8.2513   -6.5983    0.0000 C   0  0  0  0  0  0  0  0  0  0  0  0
    8.2513   -5.7733    0.0000 C   0  0  0  0  0  0  0  0  0  0  0  0
    7.5369   -5.3608    0.0000 C   0  0  0  0  0  0  0  0  0  0  0  0
    6.1079   -5.3608    0.0000 O   0  0  0  0  0  0  0  0  0  0  0  0
    8.9658   -7.0108    0.0000 O   0  0  0  0  0  0  0  0  0  0  0  0
    9.6803   -6.5983    0.0000 C   0  0  0  0  0  0  0  0  0  0  0  0
    6.1079   -7.0108    0.0000 C   0  0  0  0  0  0  0  0  0  0  0  0
    5.3934   -6.5983    0.0000 C   0  0  0  0  0  0  0  0  0  0  0  0
    4.6790   -7.0108    0.0000 C   0  0  0  0  0  0  0  0  0  0  0  0
    3.9645   -6.5983    0.0000 C   0  0  0  0  0  0  0  0  0  0  0  0
    3.2500   -7.0108    0.0000 C   0  0  0  0  0  0  0  0  0  0  0  0
    2.5356   -6.5983    0.0000 C   0  0  0  0  0  0  0  0  0  0  0  0
    1.8211   -7.0108    0.0000 C   0  0  0  0  0  0  0  0  0  0  0  0
    1.8211   -7.8358    0.0000 C   0  0  0  0  0  0  0  0  0  0  0  0
    1.1066   -6.5983    0.0000 C   0  0  0  0  0  0  0  0  0  0  0  0
    4.6790   -7.8358    0.0000 C   0  0  0  0  0  0  0  0  0  0  0  0
  1  2  1  0  0  0  0
  2  3  2  0  0  0  0
  3  4  1  0  0  0  0
  4  5  2  0  0  0  0
  5  6  1  0  0  0  0
  1  6  2  0  0  0  0
  1  7  1  0  0  0  0
  8  9  1  0  0  0  0
  4  8  1  0  0  0  0
 10 11  1  0  0  0  0
 11 12  2  0  0  0  0
 12 13  1  0  0  0  0
 13 14  1  0  0  0  0
 14 15  1  0  0  0  0
 15 16  2  0  0  0  0
 16 17  1  0  0  0  0
 16 18  1  0  0  0  0
 12 19  1  0  0  0  0
  2 10  1  0  0  0  0
M  END
>  <cdx:fragmentId>
948

$$$$
