300267.cdx
  Mrv1902 05222410212D          

 12 11  0  0  0  0            999 V2000
    5.3117   -6.7533    0.0000 C   0  0  0  0  0  0  0  0  0  0  0  0
    4.5973   -7.1658    0.0000 C   0  0  0  0  0  0  0  0  0  0  0  0
    3.8828   -6.7533    0.0000 C   0  0  0  0  0  0  0  0  0  0  0  0
    3.8828   -5.9283    0.0000 C   0  0  0  0  0  0  0  0  0  0  0  0
    5.3117   -5.9283    0.0000 O   0  0  0  0  0  0  0  0  0  0  0  0
    6.0262   -7.1658    0.0000 O   0  0  0  0  0  0  0  0  0  0  0  0
    3.1683   -7.1658    0.0000 C   0  0  0  0  0  0  0  0  0  0  0  0
    6.7407   -6.7533    0.0000 C   0  0  0  0  0  0  0  0  0  0  0  0
    7.4551   -7.1658    0.0000 C   0  0  0  0  0  0  0  0  0  0  0  0
    8.1696   -6.7533    0.0000 O   0  0  0  0  0  0  0  0  0  0  0  0
    8.8841   -7.1658    0.0000 C   0  0  0  0  0  0  0  0  0  0  0  0
    9.5986   -6.7533    0.0000 C   0  0  0  0  0  0  0  0  0  0  0  0
  1  2  1  0  0  0  0
  2  3  1  0  0  0  0
  3  4  1  0  0  0  0
  1  5  2  0  0  0  0
  1  6  1  0  0  0  0
  3  7  1  0  0  0  0
  8  9  1  0  0  0  0
 11 12  1  0  0  0  0
 10 11  1  0  0  0  0
  9 10  1  0  0  0  0
  6  8  1  0  0  0  0
M  END
>  <cdx:fragmentId>
1821

$$$$
