300253.cdx
  Mrv1902 05222410242D          

 11 10  0  0  0  0            999 V2000
    7.5096   -6.3126    0.0000 C   0  0  0  0  0  0  0  0  0  0  0  0
    6.7951   -6.7251    0.0000 C   0  0  0  0  0  0  0  0  0  0  0  0
    6.0807   -6.3126    0.0000 C   0  0  0  0  0  0  0  0  0  0  0  0
    5.3662   -6.7251    0.0000 C   0  0  0  0  0  0  0  0  0  0  0  0
    4.6517   -6.3126    0.0000 C   0  0  0  0  0  0  0  0  0  0  0  0
    3.9373   -6.7251    0.0000 C   0  0  0  0  0  0  0  0  0  0  0  0
    7.5096   -5.4876    0.0000 O   0  0  0  0  0  0  0  0  0  0  0  0
    8.2241   -6.7251    0.0000 O   0  0  0  0  0  0  0  0  0  0  0  0
    3.9373   -7.5501    0.0000 O   0  0  0  0  0  0  0  0  0  0  0  0
    3.2228   -6.3126    0.0000 O   0  0  0  0  0  0  0  0  0  0  0  0
    6.7951   -7.5501    0.0000 N   0  0  0  0  0  0  0  0  0  0  0  0
  1  2  1  0  0  0  0
  2  3  2  0  0  0  0
  3  4  1  0  0  0  0
  4  5  2  0  0  0  0
  5  6  1  0  0  0  0
  1  7  2  0  0  0  0
  1  8  1  0  0  0  0
  6  9  2  0  0  0  0
  6 10  1  0  0  0  0
  2 11  1  0  0  0  0
M  END
>  <cdx:fragmentId>
1109

$$$$
