300233.cdx
  Mrv1902 05222410262D          

 29 33  0  0  0  0            999 V2000
    6.0296   -9.0068    0.0000 C   0  0  0  0  0  0  0  0  0  0  0  0
    5.3141   -9.4175    0.0000 C   0  0  0  0  0  0  0  0  0  0  0  0
    4.5301   -9.1606    0.0000 C   0  0  0  0  0  0  0  0  0  0  0  0
    4.0435   -9.8268    0.0000 C   0  0  0  0  0  0  0  0  0  0  0  0
    4.5268  -10.4955    0.0000 C   0  0  0  0  0  0  0  0  0  0  0  0
    5.1385  -11.0491    0.0000 C   0  0  0  0  0  0  0  0  0  0  0  0
    5.3120  -10.2425    0.0000 C   0  0  0  0  0  0  0  0  0  0  0  0
    6.0255  -10.6568    0.0000 C   0  0  0  0  0  0  0  0  0  0  0  0
    6.7410  -10.2461    0.0000 C   0  0  0  0  0  0  0  0  0  0  0  0
    6.7430   -9.4211    0.0000 C   0  0  0  0  0  0  0  0  0  0  0  0
    7.4586   -9.0104    0.0000 C   0  0  0  0  0  0  0  0  0  0  0  0
    8.2425   -9.2673    0.0000 C   0  0  0  0  0  0  0  0  0  0  0  0
    8.7291   -8.6011    0.0000 C   0  0  0  0  0  0  0  0  0  0  0  0
    8.2459   -7.9324    0.0000 C   0  0  0  0  0  0  0  0  0  0  0  0
    7.4606   -8.1854    0.0000 C   0  0  0  0  0  0  0  0  0  0  0  0
    6.7472   -7.7711    0.0000 C   0  0  0  0  0  0  0  0  0  0  0  0
    6.0317   -8.1818    0.0000 C   0  0  0  0  0  0  0  0  0  0  0  0
    5.1794   -8.1044    0.0000 C   0  0  0  0  0  0  0  0  0  0  0  0
    5.8481   -7.6212    0.0000 O   0  0  0  0  0  0  0  0  0  0  0  0
    4.4266   -7.7670    0.0000 O   0  0  0  0  0  0  0  0  0  0  0  0
    7.5489   -7.3651    0.0000 C   0  0  0  0  0  0  0  0  0  0  0  0
    6.0234  -11.4818    0.0000 O   0  0  0  0  0  0  0  0  0  0  0  0
    5.3079  -11.8925    0.0000 C   0  0  0  0  0  0  0  0  0  0  0  0
    8.0764   -7.1250    0.0000 C   0  0  0  0  0  0  0  0  0  0  0  0
    7.9494   -6.3099    0.0000 C   0  0  0  0  0  0  0  0  0  0  0  0
    8.8604   -7.3819    0.0000 O   0  0  0  0  0  0  0  0  0  0  0  0
    9.6443   -7.6388    0.0000 C   0  0  0  0  0  0  0  0  0  0  0  0
   10.2588   -7.0884    0.0000 O   0  0  0  0  0  0  0  0  0  0  0  0
    9.7713   -8.4540    0.0000 C   0  0  0  0  0  0  0  0  0  0  0  0
  1  2  1  0  0  0  0
  2  3  1  0  0  0  0
  3  4  1  0  0  0  0
  4  5  1  0  0  0  0
  5  6  1  0  0  0  0
  6  7  1  0  0  0  0
  7  8  1  0  0  0  0
  8  9  1  0  0  0  0
  9 10  1  0  0  0  0
 10 11  1  0  0  0  0
 11 12  1  0  0  0  0
 12 13  1  0  0  0  0
 13 14  1  0  0  0  0
 14 15  1  0  0  0  0
 15 16  1  0  0  0  0
 16 17  1  0  0  0  0
  1 17  1  0  0  0  0
  1 10  1  0  0  0  0
 11 15  1  0  0  0  0
  5  7  1  0  0  0  0
  2  7  1  0  0  0  0
 18 19  2  0  0  0  0
 18 20  1  0  0  0  0
  2 18  1  0  0  0  0
 15 21  1  0  0  0  0
 22 23  1  0  0  0  0
  8 22  1  0  0  0  0
 24 25  3  0  0  0  0
 14 24  1  0  0  0  0
 27 28  2  0  0  0  0
 27 29  1  0  0  0  0
 26 27  1  0  0  0  0
 14 26  1  0  0  0  0
M  END
>  <cdx:fragmentId>
5

$$$$
