300220-1.cdx
  Mrv1902 05222410272D          

 18 19  0  0  0  0            999 V2000
    8.4904   -7.5384    0.0000 C   0  0  0  0  0  0  0  0  0  0  0  0
    8.4904   -8.3634    0.0000 C   0  0  0  0  0  0  0  0  0  0  0  0
    7.7759   -8.7759    0.0000 C   0  0  0  0  0  0  0  0  0  0  0  0
    7.0615   -8.3634    0.0000 C   0  0  0  0  0  0  0  0  0  0  0  0
    7.0615   -7.5384    0.0000 C   0  0  0  0  0  0  0  0  0  0  0  0
    7.7759   -7.1259    0.0000 C   0  0  0  0  0  0  0  0  0  0  0  0
    6.3470   -8.7759    0.0000 C   0  0  0  0  0  0  0  0  0  0  0  0
    6.3470   -9.6009    0.0000 C   0  0  0  0  0  0  0  0  0  0  0  0
    5.6325  -10.0134    0.0000 C   0  0  0  0  0  0  0  0  0  0  0  0
    4.9180   -9.6009    0.0000 C   0  0  0  0  0  0  0  0  0  0  0  0
    4.9180   -8.7759    0.0000 C   0  0  0  0  0  0  0  0  0  0  0  0
    5.6325   -8.3634    0.0000 C   0  0  0  0  0  0  0  0  0  0  0  0
    4.2036  -10.0134    0.0000 C   0  0  0  0  0  0  0  0  0  0  0  0
    3.4891   -9.6009    0.0000 C   0  0  0  0  0  0  0  0  0  0  0  0
    2.7746  -10.0134    0.0000 C   0  0  0  0  0  0  0  0  0  0  0  0
    2.0602   -9.6009    0.0000 C   0  0  0  0  0  0  0  0  0  0  0  0
    1.3457  -10.0134    0.0000 C   0  0  0  0  0  0  0  0  0  0  0  0
    9.2049   -7.1259    0.0000 I   0  0  0  0  0  0  0  0  0  0  0  0
  1  2  1  0  0  0  0
  2  3  2  0  0  0  0
  3  4  1  0  0  0  0
  4  5  2  0  0  0  0
  5  6  1  0  0  0  0
  1  6  2  0  0  0  0
  7  8  1  0  0  0  0
  8  9  1  0  0  0  0
  9 10  1  0  0  0  0
 10 11  1  0  0  0  0
 11 12  1  0  0  0  0
  7 12  1  0  0  0  0
 13 14  1  0  0  0  0
 14 15  1  0  0  0  0
 15 16  1  0  0  0  0
 16 17  1  0  0  0  0
 10 13  1  0  0  0  0
  4  7  1  0  0  0  0
  1 18  1  0  0  0  0
M  END
>  <cdx:fragmentId>
2667

$$$$
