300288.cdx
  Mrv1902 05222410222D          

 19 18  0  0  0  0            999 V2000
    0.9704   -5.9376    0.0000 C   0  0  0  0  0  0  0  0  0  0  0  0
   13.1164   -6.3501    0.0000 C   0  0  0  0  0  0  0  0  0  0  0  0
   12.4020   -5.9376    0.0000 C   0  0  0  0  0  0  0  0  0  0  0  0
   11.6875   -6.3501    0.0000 C   0  0  0  0  0  0  0  0  0  0  0  0
   10.9730   -5.9376    0.0000 C   0  0  0  0  0  0  0  0  0  0  0  0
   10.2586   -6.3501    0.0000 C   0  0  0  0  0  0  0  0  0  0  0  0
    9.5441   -5.9376    0.0000 C   0  0  0  0  0  0  0  0  0  0  0  0
    8.8296   -6.3501    0.0000 C   0  0  0  0  0  0  0  0  0  0  0  0
    8.1151   -5.9376    0.0000 C   0  0  0  0  0  0  0  0  0  0  0  0
    7.4007   -6.3501    0.0000 C   0  0  0  0  0  0  0  0  0  0  0  0
    6.6862   -5.9376    0.0000 C   0  0  0  0  0  0  0  0  0  0  0  0
    5.9717   -6.3501    0.0000 C   0  0  0  0  0  0  0  0  0  0  0  0
    5.2573   -5.9376    0.0000 C   0  0  0  0  0  0  0  0  0  0  0  0
    4.5428   -6.3501    0.0000 C   0  0  0  0  0  0  0  0  0  0  0  0
    3.8283   -5.9376    0.0000 C   0  0  0  0  0  0  0  0  0  0  0  0
    3.1138   -6.3501    0.0000 C   0  0  0  0  0  0  0  0  0  0  0  0
    2.3994   -5.9376    0.0000 C   0  0  0  0  0  0  0  0  0  0  0  0
    1.6849   -6.3501    0.0000 C   0  0  0  0  0  0  0  0  0  0  0  0
    1.6849   -7.1751    0.0000 C   0  0  0  0  0  0  0  0  0  0  0  0
 18  1  1  0  0  0  0
  3  2  1  0  0  0  0
  4  3  1  0  0  0  0
  5  4  1  0  0  0  0
  6  5  1  0  0  0  0
  7  6  1  0  0  0  0
  8  7  1  0  0  0  0
  9  8  1  0  0  0  0
 10  9  1  0  0  0  0
 11 10  1  0  0  0  0
 12 11  1  0  0  0  0
 13 12  1  0  0  0  0
 14 13  1  0  0  0  0
 15 14  1  0  0  0  0
 16 15  1  0  0  0  0
 17 16  1  0  0  0  0
 18 17  1  0  0  0  0
 19 18  1  0  0  0  0
M  END
>  <cdx:fragmentId>
2813

$$$$
