300284.cdx
  Mrv1902 05222410242D          

 21 20  0  0  0  0            999 V2000
    0.2560   -5.9376    0.0000 C   0  0  0  0  0  0  0  0  0  0  0  0
   13.8309   -6.3501    0.0000 C   0  0  0  0  0  0  0  0  0  0  0  0
   13.1164   -5.9376    0.0000 C   0  0  0  0  0  0  0  0  0  0  0  0
   12.4020   -6.3501    0.0000 C   0  0  0  0  0  0  0  0  0  0  0  0
   11.6875   -5.9376    0.0000 C   0  0  0  0  0  0  0  0  0  0  0  0
   10.9730   -6.3501    0.0000 C   0  0  0  0  0  0  0  0  0  0  0  0
   10.2586   -5.9376    0.0000 C   0  0  0  0  0  0  0  0  0  0  0  0
    9.5441   -6.3501    0.0000 C   0  0  0  0  0  0  0  0  0  0  0  0
    8.8296   -5.9376    0.0000 C   0  0  0  0  0  0  0  0  0  0  0  0
    8.1151   -6.3501    0.0000 C   0  0  0  0  0  0  0  0  0  0  0  0
    7.4007   -5.9376    0.0000 C   0  0  0  0  0  0  0  0  0  0  0  0
    6.6862   -6.3501    0.0000 C   0  0  0  0  0  0  0  0  0  0  0  0
    5.9717   -5.9376    0.0000 C   0  0  0  0  0  0  0  0  0  0  0  0
    5.2573   -6.3501    0.0000 C   0  0  0  0  0  0  0  0  0  0  0  0
    4.5428   -5.9376    0.0000 C   0  0  0  0  0  0  0  0  0  0  0  0
    3.8283   -6.3501    0.0000 C   0  0  0  0  0  0  0  0  0  0  0  0
    3.1138   -5.9376    0.0000 C   0  0  0  0  0  0  0  0  0  0  0  0
    2.3994   -6.3501    0.0000 C   0  0  0  0  0  0  0  0  0  0  0  0
    1.6849   -5.9376    0.0000 C   0  0  0  0  0  0  0  0  0  0  0  0
    0.9704   -6.3501    0.0000 C   0  0  0  0  0  0  0  0  0  0  0  0
    0.9704   -7.1751    0.0000 C   0  0  0  0  0  0  0  0  0  0  0  0
 20  1  1  0  0  0  0
  3  2  1  0  0  0  0
  4  3  1  0  0  0  0
  5  4  1  0  0  0  0
  6  5  1  0  0  0  0
  7  6  1  0  0  0  0
  8  7  1  0  0  0  0
  9  8  1  0  0  0  0
 10  9  1  0  0  0  0
 11 10  1  0  0  0  0
 12 11  1  0  0  0  0
 13 12  1  0  0  0  0
 14 13  1  0  0  0  0
 15 14  1  0  0  0  0
 16 15  1  0  0  0  0
 17 16  1  0  0  0  0
 18 17  1  0  0  0  0
 19 18  1  0  0  0  0
 20 19  1  0  0  0  0
 21 20  1  0  0  0  0
M  END
>  <cdx:fragmentId>
2596

$$$$
