30024.cdx
  Mrv1902 05222410232D          

 17 16  0  0  0  0            999 V2000
    4.5488   -9.0189    0.0000 C   0  0  0  0  0  0  0  0  0  0  0  0
    5.2632   -8.6064    0.0000 C   0  0  0  0  0  0  0  0  0  0  0  0
    5.9777   -9.0189    0.0000 C   0  0  0  0  0  0  0  0  0  0  0  0
    6.6922   -8.6064    0.0000 C   0  0  0  0  0  0  0  0  0  0  0  0
    7.4067   -9.0189    0.0000 C   0  0  0  0  0  0  0  0  0  0  0  0
    8.1211   -8.6064    0.0000 C   0  0  0  0  0  0  0  0  0  0  0  0
    8.8356   -9.0189    0.0000 C   0  0  0  0  0  0  0  0  0  0  0  0
    9.5501   -8.6064    0.0000 C   0  0  0  0  0  0  0  0  0  0  0  0
   10.2645   -9.0189    0.0000 C   0  0  0  0  0  0  0  0  0  0  0  0
   10.9790   -8.6064    0.0000 C   0  0  0  0  0  0  0  0  0  0  0  0
   11.6935   -9.0189    0.0000 C   0  0  0  0  0  0  0  0  0  0  0  0
   12.4080   -8.6064    0.0000 C   0  0  0  0  0  0  0  0  0  0  0  0
    3.8343   -9.4314    0.0000 C   0  0  0  0  0  0  0  0  0  0  0  0
    3.1198   -9.0189    0.0000 O   0  0  0  0  0  0  0  0  0  0  0  0
    4.9613   -9.7334    0.0000 C   0  0  0  0  0  0  0  0  0  0  0  0
    4.1363   -8.3044    0.0000 C   0  0  0  0  0  0  0  0  0  0  0  0
    4.7196   -7.7211    0.0000 C   0  0  0  0  0  0  0  0  0  0  0  0
  1  2  1  0  0  0  0
  2  3  1  0  0  0  0
  3  4  1  0  0  0  0
  4  5  1  0  0  0  0
  5  6  1  0  0  0  0
  6  7  1  0  0  0  0
  7  8  1  0  0  0  0
  8  9  1  0  0  0  0
  9 10  1  0  0  0  0
 10 11  1  0  0  0  0
 11 12  1  0  0  0  0
  1 13  1  0  0  0  0
 13 14  1  0  0  0  0
  1 15  1  0  0  0  0
  1 16  1  0  0  0  0
 16 17  1  0  0  0  0
M  END
>  <cdx:fragmentId>
3

$$$$
