300218.cdx
  Mrv1902 05222410272D          

 21 20  0  0  0  0            999 V2000
    7.4593   -6.9733    0.0000 C   0  0  0  0  0  0  0  0  0  0  0  0
    6.7448   -7.3858    0.0000 C   0  0  0  0  0  0  0  0  0  0  0  0
    6.0304   -6.9733    0.0000 C   0  0  0  0  0  0  0  0  0  0  0  0
    5.3159   -7.3858    0.0000 C   0  0  1  0  0  0  0  0  0  0  0  0
    4.6014   -6.9733    0.0000 C   0  0  0  0  0  0  0  0  0  0  0  0
    3.8869   -7.3858    0.0000 C   0  0  0  0  0  0  0  0  0  0  0  0
    5.3159   -8.2108    0.0000 O   0  0  0  0  0  0  0  0  0  0  0  0
    3.1725   -6.9733    0.0000 C   0  0  0  0  0  0  0  0  0  0  0  0
    3.1725   -6.1483    0.0000 C   0  0  0  0  0  0  0  0  0  0  0  0
    2.4580   -5.7358    0.0000 C   0  0  0  0  0  0  0  0  0  0  0  0
    8.1738   -7.3858    0.0000 C   0  0  0  0  0  0  0  0  0  0  0  0
    8.1738   -8.2108    0.0000 C   0  0  0  0  0  0  0  0  0  0  0  0
    8.8882   -8.6233    0.0000 C   0  0  0  0  0  0  0  0  0  0  0  0
    8.8882   -9.4483    0.0000 C   0  0  0  0  0  0  0  0  0  0  0  0
    9.6027   -9.8608    0.0000 C   0  0  0  0  0  0  0  0  0  0  0  0
    9.6027  -10.6858    0.0000 C   0  0  0  0  0  0  0  0  0  0  0  0
   10.3172  -11.0983    0.0000 C   0  0  0  0  0  0  0  0  0  0  0  0
   10.3172  -11.9233    0.0000 C   0  0  0  0  0  0  0  0  0  0  0  0
   11.0317  -12.3358    0.0000 C   0  0  0  0  0  0  0  0  0  0  0  0
   11.0317  -13.1608    0.0000 O   0  0  0  0  0  0  0  0  0  0  0  0
   11.7461  -11.9233    0.0000 O   0  0  0  0  0  0  0  0  0  0  0  0
  1  2  1  0  0  0  0
  2  3  2  0  0  0  0
  3  4  1  0  0  0  0
  4  5  1  0  0  0  0
  5  6  1  0  0  0  0
  4  7  1  6  0  0  0
  6  8  2  0  0  0  0
  8  9  1  0  0  0  0
  9 10  1  0  0  0  0
  1 11  2  0  0  0  0
 11 12  1  0  0  0  0
 12 13  1  0  0  0  0
 13 14  1  0  0  0  0
 14 15  1  0  0  0  0
 15 16  1  0  0  0  0
 16 17  1  0  0  0  0
 17 18  1  0  0  0  0
 18 19  1  0  0  0  0
 19 20  1  0  0  0  0
 19 21  2  0  0  0  0
M  END
>  <cdx:fragmentId>
2587

$$$$
