30029.cdx
  Mrv1902 05222410232D          

 33 37  0  0  0  0            999 V2000
    3.0643  -10.1464    0.0000 C   0  0  0  0  0  0  0  0  0  0  0  0
    3.0643  -10.9714    0.0000 C   0  0  0  0  0  0  0  0  0  0  0  0
    3.7788  -11.3839    0.0000 C   0  0  0  0  0  0  0  0  0  0  0  0
    4.4932  -10.9714    0.0000 C   0  0  0  0  0  0  0  0  0  0  0  0
    4.4932  -10.1464    0.0000 C   0  0  0  0  0  0  0  0  0  0  0  0
    3.7788   -9.7339    0.0000 C   0  0  0  0  0  0  0  0  0  0  0  0
    5.2077  -11.3839    0.0000 C   0  0  0  0  0  0  0  0  0  0  0  0
    5.9222  -10.9714    0.0000 C   0  0  0  0  0  0  0  0  0  0  0  0
    5.9222  -10.1464    0.0000 C   0  0  0  0  0  0  0  0  0  0  0  0
    5.2077   -9.7339    0.0000 C   0  0  0  0  0  0  0  0  0  0  0  0
    6.6367   -9.7339    0.0000 C   0  0  0  0  0  0  0  0  0  0  0  0
    6.6367   -8.9089    0.0000 C   0  0  0  0  0  0  0  0  0  0  0  0
    5.9222   -8.4964    0.0000 C   0  0  0  0  0  0  0  0  0  0  0  0
    5.2077   -8.9089    0.0000 C   0  0  0  0  0  0  0  0  0  0  0  0
    7.3511  -10.1464    0.0000 C   0  0  0  0  0  0  0  0  0  0  0  0
    8.0656   -9.7339    0.0000 C   0  0  0  0  0  0  0  0  0  0  0  0
    8.0656   -8.9089    0.0000 C   0  0  0  0  0  0  0  0  0  0  0  0
    7.3511   -8.4964    0.0000 C   0  0  0  0  0  0  0  0  0  0  0  0
    8.7801   -8.4964    0.0000 C   0  0  0  0  0  0  0  0  0  0  0  0
    8.7801   -7.6714    0.0000 C   0  0  0  0  0  0  0  0  0  0  0  0
    8.0656   -7.2589    0.0000 C   0  0  0  0  0  0  0  0  0  0  0  0
    7.3511   -7.6714    0.0000 C   0  0  0  0  0  0  0  0  0  0  0  0
    2.3498   -9.7339    0.0000 C   0  0  0  0  0  0  0  0  0  0  0  0
    3.7788   -8.9089    0.0000 C   0  0  0  0  0  0  0  0  0  0  0  0
    4.4932  -11.7964    0.0000 C   0  0  0  0  0  0  0  0  0  0  0  0
    5.2077  -12.2089    0.0000 O   0  0  0  0  0  0  0  0  0  0  0  0
    6.5056  -10.7298    0.0000 C   0  0  0  0  0  0  0  0  0  0  0  0
    6.8502  -10.5308    0.0000 C   0  0  0  0  0  0  0  0  0  0  0  0
    7.1036   -9.1839    0.0000 H   0  0  0  0  0  0  0  0  0  0  0  0
    6.6367   -8.0839    0.0000 C   0  0  0  0  0  0  0  0  0  0  0  0
    9.4945   -7.2589    0.0000 O   0  0  0  0  0  0  0  0  0  0  0  0
    9.6051   -8.4964    0.0000 C   0  0  0  0  0  0  0  0  0  0  0  0
    9.1926   -9.2109    0.0000 C   0  0  0  0  0  0  0  0  0  0  0  0
  1  2  1  0  0  0  0
  2  3  1  0  0  0  0
  3  4  1  0  0  0  0
  4  5  1  0  0  0  0
  5  6  1  0  0  0  0
  6  1  1  0  0  0  0
  4  7  1  0  0  0  0
  7  8  1  0  0  0  0
  8  9  1  0  0  0  0
  9 10  1  0  0  0  0
 10  5  1  0  0  0  0
  9 11  1  0  0  0  0
 11 12  1  0  0  0  0
 12 13  1  0  0  0  0
 13 14  1  0  0  0  0
 14 10  1  0  0  0  0
 11 15  1  0  0  0  0
 15 16  1  0  0  0  0
 16 17  1  0  0  0  0
 17 18  1  0  0  0  0
 18 12  1  0  0  0  0
 17 19  1  0  0  0  0
 19 20  1  0  0  0  0
 20 21  1  0  0  0  0
 21 22  1  0  0  0  0
 22 18  1  0  0  0  0
  1 23  1  0  0  0  0
  6 24  1  0  0  0  0
  4 25  1  0  0  0  0
  7 26  1  0  0  0  0
  9 27  1  0  0  0  0
 11 28  1  0  0  0  0
 12 29  1  0  0  0  0
 18 30  1  0  0  0  0
 20 31  1  0  0  0  0
 19 32  1  0  0  0  0
 19 33  1  0  0  0  0
M  END
>  <cdx:fragmentId>
5

$$$$
