300299.cdx
  Mrv1902 05222410212D          

 14 15  0  0  0  0            999 V2000
    6.6862   -5.5591    0.0000 C   0  0  0  0  0  0  0  0  0  0  0  0
    6.6862   -6.3841    0.0000 C   0  0  0  0  0  0  0  0  0  0  0  0
    5.9717   -6.7966    0.0000 C   0  0  0  0  0  0  0  0  0  0  0  0
    5.2573   -6.3841    0.0000 C   0  0  0  0  0  0  0  0  0  0  0  0
    5.2573   -5.5591    0.0000 C   0  0  0  0  0  0  0  0  0  0  0  0
    5.9717   -5.1466    0.0000 C   0  0  0  0  0  0  0  0  0  0  0  0
    7.4007   -6.7966    0.0000 C   0  0  0  0  0  0  0  0  0  0  0  0
    8.1151   -6.3841    0.0000 C   0  0  0  0  0  0  0  0  0  0  0  0
    8.8296   -6.7966    0.0000 C   0  0  0  0  0  0  0  0  0  0  0  0
    8.8296   -7.6216    0.0000 C   0  0  0  0  0  0  0  0  0  0  0  0
    8.1151   -8.0341    0.0000 C   0  0  0  0  0  0  0  0  0  0  0  0
    7.4007   -7.6216    0.0000 C   0  0  0  0  0  0  0  0  0  0  0  0
    7.4007   -5.1466    0.0000 O   0  0  0  0  0  0  0  0  0  0  0  0
    8.1151   -5.5591    0.0000 C   0  0  0  0  0  0  0  0  0  0  0  0
  1  2  1  0  0  0  0
  2  3  2  0  0  0  0
  3  4  1  0  0  0  0
  4  5  2  0  0  0  0
  5  6  1  0  0  0  0
  1  6  2  0  0  0  0
  7  8  1  0  0  0  0
  8  9  2  0  0  0  0
  9 10  1  0  0  0  0
 10 11  2  0  0  0  0
 11 12  1  0  0  0  0
  7 12  2  0  0  0  0
  2  7  1  0  0  0  0
 13 14  1  0  0  0  0
  1 13  1  0  0  0  0
M  END
>  <cdx:fragmentId>
3340

$$$$
