300239.cdx
  Mrv1902 05222410192D          

 39 43  0  0  0  0            999 V2000
    8.6168   -5.9403    0.0000 C   0  0  1  0  0  0  0  0  0  0  0  0
    9.3312   -5.5278    0.0000 C   0  0  1  0  0  0  0  0  0  0  0  0
   10.0457   -5.9403    0.0000 C   0  0  0  0  0  0  0  0  0  0  0  0
   10.0457   -6.7653    0.0000 C   0  0  0  0  0  0  0  0  0  0  0  0
    9.3312   -7.1778    0.0000 C   0  0  2  0  0  0  0  0  0  0  0  0
    9.3312   -8.0028    0.0000 C   0  0  0  0  0  0  0  0  0  0  0  0
    8.6168   -8.4153    0.0000 C   0  0  0  0  0  0  0  0  0  0  0  0
    7.9023   -8.0028    0.0000 C   0  0  1  0  0  0  0  0  0  0  0  0
    7.1878   -8.4153    0.0000 C   0  0  2  0  0  0  0  0  0  0  0  0
    7.1878   -9.2403    0.0000 C   0  0  0  0  0  0  0  0  0  0  0  0
    6.4733   -9.6528    0.0000 C   0  0  0  0  0  0  0  0  0  0  0  0
    5.7589   -9.2403    0.0000 C   0  0  1  0  0  0  0  0  0  0  0  0
    5.0444   -9.6528    0.0000 C   0  0  0  0  0  0  0  0  0  0  0  0
    4.3299   -9.2403    0.0000 C   0  0  1  0  0  0  0  0  0  0  0  0
    4.3299   -8.4153    0.0000 C   0  0  1  0  0  0  0  0  0  0  0  0
    5.0444   -8.0028    0.0000 C   0  0  2  0  0  0  0  0  0  0  0  0
    5.7589   -8.4153    0.0000 C   0  0  2  0  0  0  0  0  0  0  0  0
    6.4733   -8.0028    0.0000 C   0  0  1  0  0  0  0  0  0  0  0  0
    6.4733   -7.1778    0.0000 C   0  0  0  0  0  0  0  0  0  0  0  0
    7.1878   -6.7653    0.0000 C   0  0  0  0  0  0  0  0  0  0  0  0
    7.9023   -7.1778    0.0000 C   0  0  0  0  0  0  0  0  0  0  0  0
    8.6168   -6.7653    0.0000 C   0  0  2  0  0  0  0  0  0  0  0  0
   10.0457   -7.5903    0.0000 C   0  0  0  0  0  0  0  0  0  0  0  0
   10.0457   -8.4153    0.0000 O   0  0  0  0  0  0  0  0  0  0  0  0
   10.7602   -7.1778    0.0000 O   0  0  0  0  0  0  0  0  0  0  0  0
    5.7589   -7.5903    0.0000 C   0  0  0  0  0  0  0  0  0  0  0  0
    5.4569  -10.3672    0.0000 C   0  0  0  0  0  0  0  0  0  0  0  0
    4.6319  -10.3672    0.0000 C   0  0  0  0  0  0  0  0  0  0  0  0
    7.1878   -7.5903    0.0000 C   0  0  0  0  0  0  0  0  0  0  0  0
    7.9023   -8.8278    0.0000 C   0  0  0  0  0  0  0  0  0  0  0  0
    9.3312   -4.7028    0.0000 C   0  0  0  0  0  0  0  0  0  0  0  0
    8.2043   -5.2258    0.0000 C   0  0  0  0  0  0  0  0  0  0  0  0
    5.0444   -7.1778    0.0000 O   0  0  0  0  0  0  0  0  0  0  0  0
    3.6155   -8.0028    0.0000 O   0  0  0  0  0  0  0  0  0  0  0  0
    3.6155   -9.6528    0.0000 O   0  0  0  0  0  0  0  0  0  0  0  0
    7.7918   -5.9403    0.0000 O   0  0  0  0  0  0  0  0  0  0  0  0
    5.7589  -10.0653    0.0000 H   0  0  0  0  0  0  0  0  0  0  0  0
    8.6168   -7.5903    0.0000 H   0  0  0  0  0  0  0  0  0  0  0  0
    6.4733   -8.8278    0.0000 H   0  0  0  0  0  0  0  0  0  0  0  0
  1  2  1  0  0  0  0
  2  3  1  0  0  0  0
  3  4  1  0  0  0  0
  4  5  1  0  0  0  0
  5  6  1  0  0  0  0
  6  7  1  0  0  0  0
  7  8  1  0  0  0  0
  8  9  1  0  0  0  0
  9 10  1  0  0  0  0
 10 11  1  0  0  0  0
 11 12  1  0  0  0  0
 12 13  1  0  0  0  0
 13 14  1  0  0  0  0
 14 15  1  0  0  0  0
 15 16  1  0  0  0  0
 16 17  1  0  0  0  0
 12 17  1  0  0  0  0
 17 18  1  0  0  0  0
  9 18  1  0  0  0  0
 18 19  1  0  0  0  0
 19 20  1  0  0  0  0
 20 21  2  0  0  0  0
  8 21  1  0  0  0  0
 21 22  1  0  0  0  0
  5 22  1  0  0  0  0
  1 22  1  0  0  0  0
 23 24  2  0  0  0  0
 23 25  1  0  0  0  0
  5 23  1  1  0  0  0
 17 26  1  1  0  0  0
 13 27  1  0  0  0  0
 13 28  1  0  0  0  0
  9 29  1  1  0  0  0
  8 30  1  6  0  0  0
  2 31  1  6  0  0  0
  1 32  1  1  0  0  0
 16 33  1  1  0  0  0
 15 34  1  6  0  0  0
 14 35  1  6  0  0  0
  1 36  1  6  0  0  0
 12 37  1  6  0  0  0
 22 38  1  1  0  0  0
 18 39  1  6  0  0  0
M  END
>  <cdx:fragmentId>
4108

$$$$
