300294.cdx
  Mrv1902 05222410252D          

 21 20  0  0  0  0            999 V2000
    6.3290   -6.1778    0.0000 C   0  0  0  0  0  0  0  0  0  0  0  0
    6.3290   -7.0028    0.0000 C   0  0  0  0  0  0  0  0  0  0  0  0
    7.0434   -7.4153    0.0000 C   0  0  0  0  0  0  0  0  0  0  0  0
    7.7579   -7.0028    0.0000 C   0  0  0  0  0  0  0  0  0  0  0  0
    8.4724   -7.4153    0.0000 C   0  0  0  0  0  0  0  0  0  0  0  0
    9.1869   -7.0028    0.0000 C   0  0  0  0  0  0  0  0  0  0  0  0
    9.9013   -7.4153    0.0000 C   0  0  0  0  0  0  0  0  0  0  0  0
   10.6158   -7.0028    0.0000 C   0  0  0  0  0  0  0  0  0  0  0  0
   11.3303   -7.4153    0.0000 C   0  0  0  0  0  0  0  0  0  0  0  0
   12.0447   -7.0028    0.0000 C   0  0  0  0  0  0  0  0  0  0  0  0
   12.7592   -7.4153    0.0000 C   0  0  0  0  0  0  0  0  0  0  0  0
   13.4737   -7.0028    0.0000 C   0  0  0  0  0  0  0  0  0  0  0  0
    5.6145   -5.7653    0.0000 O   0  0  0  0  0  0  0  0  0  0  0  0
    5.6145   -7.4153    0.0000 C   0  0  0  0  0  0  0  0  0  0  0  0
    4.9000   -7.0028    0.0000 C   0  0  0  0  0  0  0  0  0  0  0  0
    4.1856   -7.4153    0.0000 C   0  0  0  0  0  0  0  0  0  0  0  0
    3.4711   -7.0028    0.0000 C   0  0  0  0  0  0  0  0  0  0  0  0
    2.7566   -7.4153    0.0000 C   0  0  0  0  0  0  0  0  0  0  0  0
    2.0421   -7.0028    0.0000 C   0  0  0  0  0  0  0  0  0  0  0  0
    1.3277   -7.4153    0.0000 C   0  0  0  0  0  0  0  0  0  0  0  0
    0.6132   -7.0028    0.0000 C   0  0  0  0  0  0  0  0  0  0  0  0
  1  2  1  0  0  0  0
  2  3  1  0  0  0  0
  3  4  1  0  0  0  0
  4  5  1  0  0  0  0
  5  6  1  0  0  0  0
  6  7  1  0  0  0  0
  7  8  1  0  0  0  0
  8  9  1  0  0  0  0
  9 10  1  0  0  0  0
 10 11  1  0  0  0  0
 11 12  1  0  0  0  0
  1 13  1  0  0  0  0
 14 15  1  0  0  0  0
 15 16  1  0  0  0  0
 16 17  1  0  0  0  0
 17 18  1  0  0  0  0
 18 19  1  0  0  0  0
 19 20  1  0  0  0  0
 20 21  1  0  0  0  0
  2 14  1  0  0  0  0
M  END
>  <cdx:fragmentId>
3055

$$$$
