300205-1.cdx
  Mrv1902 05222410192D          

 20 20  0  0  0  0            999 V2000
    9.0605   -9.1187    0.0000 O   0  0  0  0  0  0  0  0  0  0  0  0
    8.3460   -8.7062    0.0000 C   0  0  0  0  0  0  0  0  0  0  0  0
    8.3460   -7.8812    0.0000 C   0  0  0  0  0  0  0  0  0  0  0  0
    9.0731   -7.4687    0.0000 C   0  0  0  0  0  0  0  0  0  0  0  0
    9.3687   -6.6985    0.0000 C   0  0  0  0  0  0  0  0  0  0  0  0
   10.1937   -6.6985    0.0000 C   0  0  0  0  0  0  0  0  0  0  0  0
   10.4894   -7.4687    0.0000 C   0  0  0  0  0  0  0  0  0  0  0  0
   11.2039   -7.8812    0.0000 C   0  0  0  0  0  0  0  0  0  0  0  0
   11.2039   -8.7062    0.0000 C   0  0  0  0  0  0  0  0  0  0  0  0
   10.4894   -9.1187    0.0000 C   0  0  0  0  0  0  0  0  0  0  0  0
   10.4894   -9.9437    0.0000 C   0  0  0  0  0  0  0  0  0  0  0  0
    9.7749  -10.3562    0.0000 C   0  0  0  0  0  0  0  0  0  0  0  0
    9.0605   -9.9437    0.0000 C   0  0  0  0  0  0  0  0  0  0  0  0
    7.6315   -9.1187    0.0000 O   0  0  0  0  0  0  0  0  0  0  0  0
    8.3460  -10.3562    0.0000 C   0  0  0  0  0  0  0  0  0  0  0  0
    7.6315   -9.9437    0.0000 C   0  0  0  0  0  0  0  0  0  0  0  0
    6.9170  -10.3562    0.0000 C   0  0  0  0  0  0  0  0  0  0  0  0
    6.2026   -9.9437    0.0000 C   0  0  0  0  0  0  0  0  0  0  0  0
    5.4881  -10.3562    0.0000 C   0  0  0  0  0  0  0  0  0  0  0  0
    4.7736   -9.9437    0.0000 C   0  0  0  0  0  0  0  0  0  0  0  0
  1  2  1  0  0  0  0
  2  3  1  0  0  0  0
  3  4  1  0  0  0  0
  4  5  1  0  0  0  0
  5  6  1  0  0  0  0
  6  7  1  0  0  0  0
  7  8  1  0  0  0  0
  8  9  1  0  0  0  0
  9 10  1  0  0  0  0
 10 11  2  0  0  0  0
 11 12  1  0  0  0  0
 12 13  1  0  0  0  0
  1 13  1  0  0  0  0
  2 14  2  0  0  0  0
 15 16  1  0  0  0  0
 16 17  1  0  0  0  0
 17 18  1  0  0  0  0
 18 19  1  0  0  0  0
 19 20  1  0  0  0  0
 13 15  1  0  0  0  0
M  END
>  <cdx:fragmentId>
1756

$$$$
