300255.cdx
  Mrv1902 05222410252D          

 17 17  0  0  0  0            999 V2000
   10.2863   -6.0494    0.0000 C   0  0  0  0  0  0  0  0  0  0  0  0
    9.5719   -5.6369    0.0000 C   0  0  0  0  0  0  0  0  0  0  0  0
    8.8574   -6.0494    0.0000 C   0  0  0  0  0  0  0  0  0  0  0  0
    8.1429   -5.6369    0.0000 C   0  0  0  0  0  0  0  0  0  0  0  0
    9.5719   -4.8119    0.0000 O   0  0  0  0  0  0  0  0  0  0  0  0
    7.4284   -6.0494    0.0000 C   0  0  0  0  0  0  0  0  0  0  0  0
    6.7140   -5.6369    0.0000 C   0  0  0  0  0  0  0  0  0  0  0  0
    5.9995   -6.0494    0.0000 C   0  0  0  0  0  0  0  0  0  0  0  0
    5.9995   -6.8744    0.0000 C   0  0  0  0  0  0  0  0  0  0  0  0
    6.7140   -7.2869    0.0000 C   0  0  0  0  0  0  0  0  0  0  0  0
    7.4284   -6.8744    0.0000 C   0  0  0  0  0  0  0  0  0  0  0  0
    8.1429   -7.2869    0.0000 O   0  0  0  0  0  0  0  0  0  0  0  0
    8.8574   -6.8744    0.0000 C   0  0  0  0  0  0  0  0  0  0  0  0
    5.2850   -7.2869    0.0000 O   0  0  0  0  0  0  0  0  0  0  0  0
    4.5706   -6.8744    0.0000 C   0  0  0  0  0  0  0  0  0  0  0  0
    6.7140   -4.8119    0.0000 O   0  0  0  0  0  0  0  0  0  0  0  0
    5.9995   -4.3994    0.0000 C   0  0  0  0  0  0  0  0  0  0  0  0
  1  2  1  0  0  0  0
  2  3  1  0  0  0  0
  3  4  1  0  0  0  0
  2  5  2  0  0  0  0
  6  7  1  0  0  0  0
  7  8  2  0  0  0  0
  8  9  1  0  0  0  0
  9 10  2  0  0  0  0
 10 11  1  0  0  0  0
  6 11  2  0  0  0  0
 12 13  1  0  0  0  0
 11 12  1  0  0  0  0
 14 15  1  0  0  0  0
  9 14  1  0  0  0  0
 16 17  1  0  0  0  0
  7 16  1  0  0  0  0
  4  6  1  0  0  0  0
M  END
>  <cdx:fragmentId>
1261

$$$$
