300236.cdx
  Mrv1902 05222410282D          

 15 17  0  0  0  0            999 V2000
    5.6510   -8.3142    0.0000 C   0  0  0  0  0  0  0  0  0  0  0  0
    6.3655   -8.7267    0.0000 C   0  0  0  0  0  0  0  0  0  0  0  0
    6.3655   -9.5517    0.0000 C   0  0  0  0  0  0  0  0  0  0  0  0
    5.6510   -9.9642    0.0000 C   0  0  0  0  0  0  0  0  0  0  0  0
    4.9365   -9.5517    0.0000 C   0  0  0  0  0  0  0  0  0  0  0  0
    4.2220   -9.9642    0.0000 C   0  0  0  0  0  0  0  0  0  0  0  0
    3.5076   -9.5517    0.0000 C   0  0  0  0  0  0  0  0  0  0  0  0
    3.5076   -8.7267    0.0000 C   0  0  0  0  0  0  0  0  0  0  0  0
    4.2220   -8.3142    0.0000 C   0  0  0  0  0  0  0  0  0  0  0  0
    4.9365   -8.7267    0.0000 C   0  0  0  0  0  0  0  0  0  0  0  0
    6.3655   -7.9017    0.0000 C   0  0  0  0  0  0  0  0  0  0  0  0
    4.9365   -7.9017    0.0000 C   0  0  0  0  0  0  0  0  0  0  0  0
    4.2220   -7.4892    0.0000 C   0  0  0  0  0  0  0  0  0  0  0  0
    6.3655   -7.0767    0.0000 C   0  0  0  0  0  0  0  0  0  0  0  0
    7.0799   -7.4892    0.0000 C   0  0  0  0  0  0  0  0  0  0  0  0
  1  2  1  0  0  0  0
  2  3  1  0  0  0  0
  3  4  1  0  0  0  0
  4  5  2  0  0  0  0
  5  6  1  0  0  0  0
  6  7  2  0  0  0  0
  7  8  1  0  0  0  0
  8  9  1  0  0  0  0
  9 10  1  0  0  0  0
  1 10  1  0  0  0  0
  5 10  1  0  0  0  0
  1 11  1  0  0  0  0
  2 11  1  0  0  0  0
 10 12  1  0  0  0  0
  9 13  1  0  0  0  0
 11 14  1  0  0  0  0
 11 15  1  0  0  0  0
M  END
>  <cdx:fragmentId>
3780

$$$$
