300217.cdx
  Mrv1902 05222410202D          

 15 14  0  0  0  0            999 V2000
   12.8653   -9.1039    0.0000 O   0  0  0  0  0  0  0  0  0  0  0  0
    2.8627   -8.2789    0.0000 C   0  0  0  0  0  0  0  0  0  0  0  0
    3.5772   -7.8664    0.0000 C   0  0  0  0  0  0  0  0  0  0  0  0
    4.2917   -8.2789    0.0000 C   0  0  0  0  0  0  0  0  0  0  0  0
    5.0061   -8.6914    0.0000 C   0  0  0  0  0  0  0  0  0  0  0  0
    5.7206   -9.1039    0.0000 C   0  0  0  0  0  0  0  0  0  0  0  0
    6.4351   -8.6914    0.0000 C   0  0  0  0  0  0  0  0  0  0  0  0
    7.1495   -9.1039    0.0000 C   0  0  0  0  0  0  0  0  0  0  0  0
    7.8640   -8.6914    0.0000 C   0  0  0  0  0  0  0  0  0  0  0  0
    8.5785   -9.1039    0.0000 C   0  0  0  0  0  0  0  0  0  0  0  0
    9.2930   -8.6914    0.0000 C   0  0  0  0  0  0  0  0  0  0  0  0
   10.0074   -9.1039    0.0000 C   0  0  0  0  0  0  0  0  0  0  0  0
   10.7219   -8.6914    0.0000 C   0  0  0  0  0  0  0  0  0  0  0  0
   11.4364   -9.1039    0.0000 C   0  0  0  0  0  0  0  0  0  0  0  0
   12.1508   -8.6914    0.0000 C   0  0  0  0  0  0  0  0  0  0  0  0
 15  1  1  0  0  0  0
  3  2  2  0  0  0  0
  4  3  1  0  0  0  0
  5  4  3  0  0  0  0
  6  5  1  0  0  0  0
  7  6  1  0  0  0  0
  8  7  1  0  0  0  0
  9  8  1  0  0  0  0
 10  9  1  0  0  0  0
 11 10  1  0  0  0  0
 12 11  1  0  0  0  0
 13 12  1  0  0  0  0
 14 13  1  0  0  0  0
 15 14  1  0  0  0  0
M  END
>  <cdx:fragmentId>
2540

$$$$
