300237.cdx
  Mrv1902 05222410282D          

 12 13  0  0  0  0            999 V2000
    7.7744   -7.1887    0.0000 C   0  0  0  0  0  0  0  0  0  0  0  0
    6.9674   -7.3603    0.0000 C   0  0  0  0  0  0  0  0  0  0  0  0
    8.5813   -7.0172    0.0000 N   0  0  0  0  0  0  0  0  0  0  0  0
    6.7124   -9.4798    0.0000 N   0  0  0  0  0  0  0  0  0  0  0  0
    7.1974   -8.8123    0.0000 C   0  0  0  0  0  0  0  0  0  0  0  0
    6.7124   -8.1449    0.0000 C   0  0  0  0  0  0  0  0  0  0  0  0
    5.9278   -8.3998    0.0000 C   0  0  0  0  0  0  0  0  0  0  0  0
    5.2133   -7.9873    0.0000 C   0  0  0  0  0  0  0  0  0  0  0  0
    4.4989   -8.3998    0.0000 C   0  0  0  0  0  0  0  0  0  0  0  0
    4.4989   -9.2248    0.0000 C   0  0  0  0  0  0  0  0  0  0  0  0
    5.2133   -9.6373    0.0000 C   0  0  0  0  0  0  0  0  0  0  0  0
    5.9278   -9.2248    0.0000 C   0  0  0  0  0  0  0  0  0  0  0  0
  1  2  1  0  0  0  0
  1  3  3  0  0  0  0
  4  5  1  0  0  0  0
  5  6  2  0  0  0  0
  6  7  1  0  0  0  0
  7  8  1  0  0  0  0
  8  9  2  0  0  0  0
  9 10  1  0  0  0  0
 10 11  2  0  0  0  0
 11 12  1  0  0  0  0
  4 12  1  0  0  0  0
  7 12  2  0  0  0  0
  2  6  1  0  0  0  0
M  END
>  <cdx:fragmentId>
3835

$$$$
