300291.cdx
  Mrv1902 05222410242D          

 12 13  0  0  0  0            999 V2000
    8.3274   -5.7234    0.0000 C   0  0  0  0  0  0  0  0  0  0  0  0
    9.0419   -6.1359    0.0000 O   0  0  0  0  0  0  0  0  0  0  0  0
    6.8985   -5.7234    0.0000 C   0  0  0  0  0  0  0  0  0  0  0  0
    7.6129   -6.1359    0.0000 C   0  0  0  0  0  0  0  0  0  0  0  0
    7.6129   -6.9609    0.0000 C   0  0  0  0  0  0  0  0  0  0  0  0
    6.8985   -7.3734    0.0000 C   0  0  0  0  0  0  0  0  0  0  0  0
    6.1840   -6.9609    0.0000 C   0  0  0  0  0  0  0  0  0  0  0  0
    5.4695   -7.3734    0.0000 C   0  0  0  0  0  0  0  0  0  0  0  0
    4.7550   -6.9609    0.0000 C   0  0  0  0  0  0  0  0  0  0  0  0
    4.7550   -6.1359    0.0000 C   0  0  0  0  0  0  0  0  0  0  0  0
    5.4695   -5.7234    0.0000 C   0  0  0  0  0  0  0  0  0  0  0  0
    6.1840   -6.1359    0.0000 C   0  0  0  0  0  0  0  0  0  0  0  0
  1  2  1  0  0  0  0
  3  4  1  0  0  0  0
  4  5  2  0  0  0  0
  5  6  1  0  0  0  0
  6  7  2  0  0  0  0
  7  8  1  0  0  0  0
  8  9  2  0  0  0  0
  9 10  1  0  0  0  0
 10 11  2  0  0  0  0
 11 12  1  0  0  0  0
  3 12  2  0  0  0  0
  7 12  1  0  0  0  0
  1  4  1  0  0  0  0
M  END
>  <cdx:fragmentId>
2950

$$$$
