300271.cdx
  Mrv1902 05222410202D          

 11 11  0  0  0  0            999 V2000
    8.1151   -6.1346    0.0000 C   0  0  0  0  0  0  0  0  0  0  0  0
    8.8296   -6.5471    0.0000 C   0  0  0  0  0  0  0  0  0  0  0  0
    7.4007   -6.5471    0.0000 C   0  0  0  0  0  0  0  0  0  0  0  0
    7.4007   -7.3721    0.0000 C   0  0  0  0  0  0  0  0  0  0  0  0
    6.6862   -7.7846    0.0000 C   0  0  0  0  0  0  0  0  0  0  0  0
    5.9717   -7.3721    0.0000 C   0  0  0  0  0  0  0  0  0  0  0  0
    5.9717   -6.5471    0.0000 C   0  0  0  0  0  0  0  0  0  0  0  0
    6.6862   -6.1346    0.0000 C   0  0  0  0  0  0  0  0  0  0  0  0
    5.2573   -7.7846    0.0000 C   0  0  0  0  0  0  0  0  0  0  0  0
    8.1151   -7.7846    0.0000 O   0  0  0  0  0  0  0  0  0  0  0  0
    8.1151   -5.3096    0.0000 O   0  0  0  0  0  0  0  0  0  0  0  0
  1  2  1  0  0  0  0
  3  4  1  0  0  0  0
  4  5  2  0  0  0  0
  5  6  1  0  0  0  0
  6  7  2  0  0  0  0
  7  8  1  0  0  0  0
  3  8  2  0  0  0  0
  6  9  1  0  0  0  0
  4 10  1  0  0  0  0
  1  3  1  0  0  0  0
  1 11  2  0  0  0  0
M  END
>  <cdx:fragmentId>
1998

$$$$
