300264.cdx
  Mrv1902 05222410212D          

 13 12  0  0  0  0            999 V2000
    2.4538   -7.2091    0.0000 C   0  0  0  0  0  0  0  0  0  0  0  0
    3.1683   -6.7966    0.0000 C   0  0  0  0  0  0  0  0  0  0  0  0
    3.8828   -7.2091    0.0000 C   0  0  0  0  0  0  0  0  0  0  0  0
    4.5973   -6.7966    0.0000 C   0  0  0  0  0  0  0  0  0  0  0  0
    5.3117   -7.2091    0.0000 C   0  0  0  0  0  0  0  0  0  0  0  0
    6.0262   -6.7966    0.0000 C   0  0  0  0  0  0  0  0  0  0  0  0
    6.7407   -7.2091    0.0000 C   0  0  0  0  0  0  0  0  0  0  0  0
    7.4551   -6.7966    0.0000 C   0  0  0  0  0  0  0  0  0  0  0  0
    8.1696   -7.2091    0.0000 C   0  0  0  0  0  0  0  0  0  0  0  0
    8.8841   -6.7966    0.0000 C   0  0  0  0  0  0  0  0  0  0  0  0
    9.5986   -7.2091    0.0000 C   0  0  0  0  0  0  0  0  0  0  0  0
   10.3130   -6.7966    0.0000 C   0  0  0  0  0  0  0  0  0  0  0  0
    3.1683   -5.9716    0.0000 O   0  0  0  0  0  0  0  0  0  0  0  0
  1  2  1  0  0  0  0
  2  3  1  0  0  0  0
  3  4  1  0  0  0  0
  4  5  1  0  0  0  0
  5  6  1  0  0  0  0
  6  7  1  0  0  0  0
  7  8  1  0  0  0  0
  8  9  1  0  0  0  0
  9 10  1  0  0  0  0
 10 11  1  0  0  0  0
 11 12  1  0  0  0  0
  2 13  1  0  0  0  0
M  END
>  <cdx:fragmentId>
1670

$$$$
