300216.cdx
  Mrv1902 05222410202D          

 16 16  0  0  0  0            999 V2000
    7.6818   -9.3534    0.0000 O   0  0  0  0  0  0  0  0  0  0  0  0
    6.9673   -8.9409    0.0000 C   0  0  0  0  0  0  0  0  0  0  0  0
    6.9673   -8.1159    0.0000 C   0  0  0  0  0  0  0  0  0  0  0  0
    7.6818   -7.7034    0.0000 C   0  0  0  0  0  0  0  0  0  0  0  0
    7.6818   -6.8784    0.0000 C   0  0  0  0  0  0  0  0  0  0  0  0
    8.3963   -6.4659    0.0000 C   0  0  0  0  0  0  0  0  0  0  0  0
    9.1107   -6.8784    0.0000 C   0  0  0  0  0  0  0  0  0  0  0  0
    9.1107   -7.7034    0.0000 C   0  0  0  0  0  0  0  0  0  0  0  0
    9.8252   -8.1159    0.0000 C   0  0  0  0  0  0  0  0  0  0  0  0
    9.8252   -8.9409    0.0000 C   0  0  0  0  0  0  0  0  0  0  0  0
    9.1107   -9.3534    0.0000 C   0  0  0  0  0  0  0  0  0  0  0  0
    9.1107  -10.1784    0.0000 C   0  0  0  0  0  0  0  0  0  0  0  0
    8.3963  -10.5909    0.0000 C   0  0  0  0  0  0  0  0  0  0  0  0
    7.6818  -10.1784    0.0000 C   0  0  0  0  0  0  0  0  0  0  0  0
    6.2528   -9.3534    0.0000 O   0  0  0  0  0  0  0  0  0  0  0  0
    6.9673  -10.5909    0.0000 C   0  0  0  0  0  0  0  0  0  0  0  0
  1  2  1  0  0  0  0
  2  3  1  0  0  0  0
  3  4  1  0  0  0  0
  4  5  1  0  0  0  0
  5  6  1  0  0  0  0
  6  7  1  0  0  0  0
  7  8  1  0  0  0  0
  8  9  1  0  0  0  0
  9 10  1  0  0  0  0
 10 11  1  0  0  0  0
 11 12  1  0  0  0  0
 12 13  1  0  0  0  0
 13 14  1  0  0  0  0
  1 14  1  0  0  0  0
  2 15  2  0  0  0  0
 14 16  1  0  0  0  0
M  END
>  <cdx:fragmentId>
2490

$$$$
