300287.cdx
  Mrv1902 05222410232D          

 33 36  0  0  0  0            999 V2000
    4.4823   -9.1983    0.0000 C   0  0  0  0  0  0  0  0  0  0  0  0
    3.7679   -9.6108    0.0000 C   0  0  0  0  0  0  0  0  0  0  0  0
    3.7679  -10.4358    0.0000 C   0  0  0  0  0  0  0  0  0  0  0  0
    4.4823  -10.8483    0.0000 C   0  0  0  0  0  0  0  0  0  0  0  0
    5.1968  -10.4358    0.0000 C   0  0  0  0  0  0  0  0  0  0  0  0
    5.9113  -10.8483    0.0000 C   0  0  0  0  0  0  0  0  0  0  0  0
    6.6258  -10.4358    0.0000 C   0  0  0  0  0  0  0  0  0  0  0  0
    6.6258   -9.6108    0.0000 C   0  0  1  0  0  0  0  0  0  0  0  0
    7.3402   -9.1983    0.0000 C   0  0  2  0  0  0  0  0  0  0  0  0
    8.1249   -9.4533    0.0000 C   0  0  0  0  0  0  0  0  0  0  0  0
    8.6098   -8.7858    0.0000 C   0  0  0  0  0  0  0  0  0  0  0  0
    8.1249   -8.1184    0.0000 C   0  0  1  0  0  0  0  0  0  0  0  0
    7.3402   -8.3733    0.0000 C   0  0  1  0  0  0  0  0  0  0  0  0
    6.6258   -7.9608    0.0000 C   0  0  0  0  0  0  0  0  0  0  0  0
    5.9113   -8.3733    0.0000 C   0  0  0  0  0  0  0  0  0  0  0  0
    5.9113   -9.1983    0.0000 C   0  0  2  0  0  0  0  0  0  0  0  0
    5.1968   -9.6108    0.0000 C   0  0  1  0  0  0  0  0  0  0  0  0
    3.0534  -10.8483    0.0000 O   0  0  0  0  0  0  0  0  0  0  0  0
    3.0534   -9.1983    0.0000 C   0  0  0  0  0  0  0  0  0  0  0  0
    7.8278   -6.7207    0.0000 C   0  0  0  0  0  0  0  0  0  0  0  0
    8.3798   -7.3338    0.0000 C   0  0  2  0  0  0  0  0  0  0  0  0
    9.1868   -7.1622    0.0000 C   0  0  0  0  0  0  0  0  0  0  0  0
    9.4417   -6.3776    0.0000 C   0  0  0  0  0  0  0  0  0  0  0  0
   10.2487   -6.2061    0.0000 C   0  0  0  0  0  0  0  0  0  0  0  0
   10.5036   -5.4215    0.0000 C   0  0  0  0  0  0  0  0  0  0  0  0
    9.9516   -4.8084    0.0000 C   0  0  0  0  0  0  0  0  0  0  0  0
   11.3106   -5.2499    0.0000 C   0  0  0  0  0  0  0  0  0  0  0  0
    7.3402   -7.5483    0.0000 C   0  0  0  0  0  0  0  0  0  0  0  0
    5.1968   -8.7858    0.0000 C   0  0  0  0  0  0  0  0  0  0  0  0
    6.6258   -8.7858    0.0000 H   0  0  0  0  0  0  0  0  0  0  0  0
    5.9113  -10.0233    0.0000 H   0  0  0  0  0  0  0  0  0  0  0  0
    7.3402  -10.0233    0.0000 H   0  0  0  0  0  0  0  0  0  0  0  0
    8.9397   -7.9893    0.0000 H   0  0  0  0  0  0  0  0  0  0  0  0
  1  2  1  0  0  0  0
  2  3  1  0  0  0  0
  3  4  1  0  0  0  0
  4  5  1  0  0  0  0
  5  6  1  0  0  0  0
  6  7  1  0  0  0  0
  7  8  1  0  0  0  0
  8  9  1  0  0  0  0
  9 10  1  0  0  0  0
 10 11  1  0  0  0  0
 12 11  1  0  0  0  0
 12 13  1  0  0  0  0
  9 13  1  0  0  0  0
 13 14  1  0  0  0  0
 14 15  1  0  0  0  0
 15 16  1  0  0  0  0
  8 16  1  0  0  0  0
 16 17  1  0  0  0  0
  5 17  1  0  0  0  0
  1 17  1  0  0  0  0
  3 18  1  0  0  0  0
  2 19  2  0  0  0  0
 21 20  1  6  0  0  0
 21 22  1  0  0  0  0
 22 23  1  0  0  0  0
 23 24  1  0  0  0  0
 24 25  1  0  0  0  0
 25 26  1  0  0  0  0
 25 27  1  0  0  0  0
 12 21  1  0  0  0  0
 13 28  1  1  0  0  0
 17 29  1  1  0  0  0
  8 30  1  1  0  0  0
 16 31  1  6  0  0  0
  9 32  1  6  0  0  0
 12 33  1  6  0  0  0
M  END
>  <cdx:fragmentId>
5

$$$$
