300293.cdx
  Mrv1902 05222410232D          

 11 10  0  0  0  0            999 V2000
    6.5859   -5.7006    0.0000 O   0  0  0  0  0  0  0  0  0  0  0  0
    6.5859   -6.5256    0.0000 C   0  0  1  0  0  0  0  0  0  0  0  0
    7.3004   -6.9381    0.0000 C   0  0  1  0  0  0  0  0  0  0  0  0
    8.0149   -6.5256    0.0000 C   0  0  2  0  0  0  0  0  0  0  0  0
    8.7293   -6.9381    0.0000 C   0  0  0  0  0  0  0  0  0  0  0  0
    9.4438   -6.5256    0.0000 O   0  0  0  0  0  0  0  0  0  0  0  0
    8.0149   -5.7006    0.0000 O   0  0  0  0  0  0  0  0  0  0  0  0
    7.3004   -7.7631    0.0000 O   0  0  0  0  0  0  0  0  0  0  0  0
    5.8714   -6.9381    0.0000 C   0  0  0  0  0  0  0  0  0  0  0  0
    5.1570   -6.5256    0.0000 O   0  0  0  0  0  0  0  0  0  0  0  0
    8.7293   -5.2881    0.0000 C   0  0  0  0  0  0  0  0  0  0  0  0
  2  1  1  1  0  0  0
  2  3  1  0  0  0  0
  3  4  1  0  0  0  0
  4  5  1  0  0  0  0
  5  6  2  0  0  0  0
  4  7  1  1  0  0  0
  3  8  1  1  0  0  0
  9 10  1  0  0  0  0
  2  9  1  0  0  0  0
  7 11  1  0  0  0  0
M  END
>  <cdx:fragmentId>
3020

$$$$
