300257.cdx
  Mrv1902 05222410252D          

  9  9  0  0  0  0            999 V2000
    7.2482   -7.1688    0.0000 O   0  0  0  0  0  0  0  0  0  0  0  0
    6.4945   -6.8332    0.0000 C   0  0  0  0  0  0  0  0  0  0  0  0
    6.5807   -6.0127    0.0000 C   0  0  0  0  0  0  0  0  0  0  0  0
    7.3877   -5.8412    0.0000 C   0  0  0  0  0  0  0  0  0  0  0  0
    7.8002   -6.5557    0.0000 C   0  0  0  0  0  0  0  0  0  0  0  0
    5.7800   -7.2457    0.0000 C   0  0  0  0  0  0  0  0  0  0  0  0
    5.0656   -6.8332    0.0000 C   0  0  0  0  0  0  0  0  0  0  0  0
    4.3511   -7.2457    0.0000 C   0  0  0  0  0  0  0  0  0  0  0  0
    3.6366   -6.8332    0.0000 C   0  0  0  0  0  0  0  0  0  0  0  0
  1  2  1  0  0  0  0
  2  3  1  0  0  0  0
  3  4  1  0  0  0  0
  4  5  1  0  0  0  0
  1  5  1  0  0  0  0
  6  7  1  0  0  0  0
  7  8  1  0  0  0  0
  8  9  1  0  0  0  0
  2  6  1  0  0  0  0
M  END
>  <cdx:fragmentId>
1378

$$$$
