30027.cdx
  Mrv1902 05222410222D          

 19 22  0  0  0  0            999 V2000
    8.6562   -6.6600    0.0000 C   0  0  0  0  0  0  0  0  0  0  0  0
    8.1766   -5.9887    0.0000 C   0  0  0  0  0  0  0  0  0  0  0  0
    7.3900   -6.2375    0.0000 N   0  0  0  0  0  0  0  0  0  0  0  0
    7.3835   -7.0625    0.0000 C   0  0  0  0  0  0  0  0  0  0  0  0
    8.1661   -7.3236    0.0000 C   0  0  0  0  0  0  0  0  0  0  0  0
    9.4774   -6.5802    0.0000 C   0  0  0  0  0  0  0  0  0  0  0  0
    9.8188   -5.8292    0.0000 C   0  0  0  0  0  0  0  0  0  0  0  0
    9.3392   -5.1579    0.0000 C   0  0  0  0  0  0  0  0  0  0  0  0
    8.5180   -5.2377    0.0000 C   0  0  0  0  0  0  0  0  0  0  0  0
    6.6788   -5.8194    0.0000 C   0  0  0  0  0  0  0  0  0  0  0  0
    5.9611   -6.2262    0.0000 C   0  0  0  0  0  0  0  0  0  0  0  0
    5.9546   -7.0512    0.0000 C   0  0  0  0  0  0  0  0  0  0  0  0
    6.6658   -7.4693    0.0000 N   0  0  0  0  0  0  0  0  0  0  0  0
    5.2499   -5.8081    0.0000 C   0  0  0  0  0  0  0  0  0  0  0  0
    4.5322   -6.2150    0.0000 C   0  0  0  0  0  0  0  0  0  0  0  0
    4.5257   -7.0400    0.0000 C   0  0  0  0  0  0  0  0  0  0  0  0
    5.2369   -7.4581    0.0000 C   0  0  0  0  0  0  0  0  0  0  0  0
    8.4148   -8.1102    0.0000 O   0  0  0  0  0  0  0  0  0  0  0  0
    6.6853   -4.9944    0.0000 O   0  0  0  0  0  0  0  0  0  0  0  0
  1  2  2  0  0  0  0
  2  3  1  0  0  0  0
  3  4  1  0  0  0  0
  4  5  1  0  0  0  0
  5  1  1  0  0  0  0
  1  6  1  0  0  0  0
  6  7  2  0  0  0  0
  7  8  1  0  0  0  0
  8  9  2  0  0  0  0
  9  2  1  0  0  0  0
  3 10  1  0  0  0  0
 10 11  1  0  0  0  0
 11 12  2  0  0  0  0
 12 13  1  0  0  0  0
 13  4  2  0  0  0  0
 11 14  1  0  0  0  0
 14 15  2  0  0  0  0
 15 16  1  0  0  0  0
 16 17  2  0  0  0  0
 17 12  1  0  0  0  0
  5 18  2  0  0  0  0
 10 19  2  0  0  0  0
M  END
>  <cdx:fragmentId>
5

$$$$
