300270.cdx
  Mrv1902 05222410212D          

 14 13  0  0  0  0            999 V2000
    5.2573   -6.9157    0.0000 C   0  0  0  0  0  0  0  0  0  0  0  0
    5.9717   -6.5032    0.0000 C   0  0  0  0  0  0  0  0  0  0  0  0
    6.6862   -6.9157    0.0000 C   0  0  0  0  0  0  0  0  0  0  0  0
    7.4007   -6.5032    0.0000 C   0  0  0  0  0  0  0  0  0  0  0  0
    8.1151   -6.9157    0.0000 C   0  0  0  0  0  0  0  0  0  0  0  0
    8.8296   -6.5032    0.0000 C   0  0  0  0  0  0  0  0  0  0  0  0
    5.2573   -7.7407    0.0000 O   0  0  0  0  0  0  0  0  0  0  0  0
    4.5428   -6.5032    0.0000 O   0  0  0  0  0  0  0  0  0  0  0  0
    8.8296   -5.6782    0.0000 O   0  0  0  0  0  0  0  0  0  0  0  0
    9.5441   -6.9157    0.0000 O   0  0  0  0  0  0  0  0  0  0  0  0
    5.9717   -5.6782    0.0000 O   0  0  0  0  0  0  0  0  0  0  0  0
    5.2573   -5.2657    0.0000 C   0  0  0  0  0  0  0  0  0  0  0  0
    3.8283   -6.9157    0.0000 C   0  0  0  0  0  0  0  0  0  0  0  0
   10.2586   -6.5032    0.0000 C   0  0  0  0  0  0  0  0  0  0  0  0
  1  2  1  0  0  0  0
  2  3  2  0  0  0  0
  3  4  1  0  0  0  0
  4  5  1  0  0  0  0
  5  6  1  0  0  0  0
  1  7  2  0  0  0  0
  1  8  1  0  0  0  0
  6  9  2  0  0  0  0
  6 10  1  0  0  0  0
 11 12  1  0  0  0  0
  2 11  1  0  0  0  0
  8 13  1  0  0  0  0
 10 14  1  0  0  0  0
M  END
>  <cdx:fragmentId>
1951

$$$$
