300251.cdx
  Mrv1902 05222410232D          

 14 14  0  0  0  0            999 V2000
    4.3217   -6.5983    0.0000 C   0  0  0  0  0  0  0  0  0  0  0  0
    5.0362   -7.0108    0.0000 C   0  0  0  0  0  0  0  0  0  0  0  0
    5.7507   -6.5983    0.0000 C   0  0  0  0  0  0  0  0  0  0  0  0
    5.7507   -5.7733    0.0000 C   0  0  0  0  0  0  0  0  0  0  0  0
    5.0362   -5.3608    0.0000 C   0  0  0  0  0  0  0  0  0  0  0  0
    4.3217   -5.7733    0.0000 C   0  0  0  0  0  0  0  0  0  0  0  0
    6.4651   -7.0108    0.0000 C   0  0  0  0  0  0  0  0  0  0  0  0
    7.1796   -6.5983    0.0000 C   0  0  0  0  0  0  0  0  0  0  0  0
    7.8941   -7.0108    0.0000 C   0  0  0  0  0  0  0  0  0  0  0  0
    5.0362   -7.8358    0.0000 C   0  0  0  0  0  0  0  0  0  0  0  0
    6.4651   -5.3608    0.0000 O   0  0  0  0  0  0  0  0  0  0  0  0
    7.1796   -5.7733    0.0000 C   0  0  0  0  0  0  0  0  0  0  0  0
    3.6073   -7.0108    0.0000 O   0  0  0  0  0  0  0  0  0  0  0  0
    2.8928   -6.5983    0.0000 C   0  0  0  0  0  0  0  0  0  0  0  0
  1  2  1  0  0  0  0
  2  3  2  0  0  0  0
  3  4  1  0  0  0  0
  4  5  2  0  0  0  0
  5  6  1  0  0  0  0
  1  6  2  0  0  0  0
  7  8  1  0  0  0  0
  8  9  2  0  0  0  0
  3  7  1  0  0  0  0
  2 10  1  0  0  0  0
 11 12  1  0  0  0  0
  4 11  1  0  0  0  0
 13 14  1  0  0  0  0
  1 13  1  0  0  0  0
M  END
>  <cdx:fragmentId>
1028

$$$$
