300221.cdx
  Mrv1902 05222410272D          

 24 26  0  0  0  0            999 V2000
    4.8268   -7.3219    0.0000 C   0  0  0  0  0  0  0  0  0  0  0  0
    4.8268   -8.1469    0.0000 C   0  0  0  0  0  0  0  0  0  0  0  0
    5.5413   -8.5594    0.0000 C   0  0  0  0  0  0  0  0  0  0  0  0
    6.2557   -8.1469    0.0000 C   0  0  2  0  0  0  0  0  0  0  0  0
    6.2557   -7.3219    0.0000 C   0  0  1  0  0  0  0  0  0  0  0  0
    5.5413   -6.9094    0.0000 C   0  0  0  0  0  0  0  0  0  0  0  0
    6.9702   -8.5594    0.0000 C   0  0  0  0  0  0  0  0  0  0  0  0
    7.6847   -8.1469    0.0000 C   0  0  0  0  0  0  0  0  0  0  0  0
    7.6847   -7.3219    0.0000 C   0  0  0  0  0  0  0  0  0  0  0  0
    6.9702   -6.9094    0.0000 C   0  0  1  0  0  0  0  0  0  0  0  0
    8.3991   -6.9094    0.0000 C   0  0  0  0  0  0  0  0  0  0  0  0
    8.3991   -6.0844    0.0000 C   0  0  2  0  0  0  0  0  0  0  0  0
    7.6847   -5.6719    0.0000 C   0  0  0  0  0  0  0  0  0  0  0  0
    6.9702   -6.0844    0.0000 C   0  0  0  0  0  0  0  0  0  0  0  0
    8.3991   -8.5594    0.0000 O   0  0  0  0  0  0  0  0  0  0  0  0
    5.1287   -9.2738    0.0000 C   0  0  0  0  0  0  0  0  0  0  0  0
    5.9538   -9.2738    0.0000 C   0  0  0  0  0  0  0  0  0  0  0  0
    9.1136   -5.6719    0.0000 C   0  0  0  0  0  0  0  0  0  0  0  0
    9.1136   -4.8469    0.0000 C   0  0  0  0  0  0  0  0  0  0  0  0
    9.8281   -6.0844    0.0000 C   0  0  0  0  0  0  0  0  0  0  0  0
    8.3991   -5.2594    0.0000 O   0  0  0  0  0  0  0  0  0  0  0  0
    6.9702   -7.7344    0.0000 H   0  0  0  0  0  0  0  0  0  0  0  0
    6.2557   -6.4969    0.0000 C   0  0  0  0  0  0  0  0  0  0  0  0
    6.2557   -8.9719    0.0000 H   0  0  0  0  0  0  0  0  0  0  0  0
  1  2  1  0  0  0  0
  2  3  1  0  0  0  0
  3  4  1  0  0  0  0
  4  5  1  0  0  0  0
  5  6  1  0  0  0  0
  6  1  1  0  0  0  0
  4  7  1  0  0  0  0
  7  8  1  0  0  0  0
  8  9  1  0  0  0  0
  9 10  1  0  0  0  0
 10  5  1  0  0  0  0
  9 11  2  0  0  0  0
 11 12  1  0  0  0  0
 12 13  1  0  0  0  0
 13 14  1  0  0  0  0
 14 10  1  0  0  0  0
  8 15  2  0  0  0  0
  3 16  1  0  0  0  0
  3 17  1  0  0  0  0
 12 18  1  0  0  0  0
 18 19  1  0  0  0  0
 18 20  1  0  0  0  0
 12 21  1  1  0  0  0
 10 22  1  1  0  0  0
  5 23  1  6  0  0  0
  4 24  1  1  0  0  0
M  END
>  <cdx:fragmentId>
5

$$$$
