300254.cdx
  Mrv1902 05222410252D          

 17 17  0  0  0  0            999 V2000
    4.8640   -7.5364    0.0000 C   0  0  0  0  0  0  0  0  0  0  0  0
    5.5785   -7.1239    0.0000 C   0  0  0  0  0  0  0  0  0  0  0  0
    6.2929   -7.5364    0.0000 C   0  0  0  0  0  0  0  0  0  0  0  0
    7.0074   -7.1239    0.0000 C   0  0  0  0  0  0  0  0  0  0  0  0
    4.8640   -8.3614    0.0000 O   0  0  0  0  0  0  0  0  0  0  0  0
    4.1495   -7.1239    0.0000 O   0  0  0  0  0  0  0  0  0  0  0  0
    7.0074   -6.2989    0.0000 O   0  0  0  0  0  0  0  0  0  0  0  0
    7.7219   -7.5364    0.0000 O   0  0  0  0  0  0  0  0  0  0  0  0
    6.2929   -8.3614    0.0000 O   0  0  0  0  0  0  0  0  0  0  0  0
    5.5785   -7.9489    0.0000 O   0  0  0  0  0  0  0  0  0  0  0  0
    5.5785   -6.2989    0.0000 C   0  0  0  0  0  0  0  0  0  0  0  0
    4.8640   -5.8864    0.0000 C   0  0  0  0  0  0  0  0  0  0  0  0
    4.1495   -6.2989    0.0000 C   0  0  0  0  0  0  0  0  0  0  0  0
    3.4350   -5.8864    0.0000 C   0  0  0  0  0  0  0  0  0  0  0  0
    3.4350   -5.0614    0.0000 C   0  0  0  0  0  0  0  0  0  0  0  0
    4.1495   -4.6489    0.0000 C   0  0  0  0  0  0  0  0  0  0  0  0
    4.8640   -5.0614    0.0000 C   0  0  0  0  0  0  0  0  0  0  0  0
  1  2  1  0  0  0  0
  2  3  1  0  0  0  0
  3  4  1  0  0  0  0
  1  5  2  0  0  0  0
  1  6  1  0  0  0  0
  4  7  2  0  0  0  0
  4  8  1  0  0  0  0
  3  9  1  0  0  0  0
  2 10  1  0  0  0  0
 11 12  1  0  0  0  0
 12 13  1  0  0  0  0
 13 14  2  0  0  0  0
 14 15  1  0  0  0  0
 15 16  2  0  0  0  0
 16 17  1  0  0  0  0
 12 17  2  0  0  0  0
  2 11  1  0  0  0  0
M  END
>  <cdx:fragmentId>
1198

$$$$
