30028.cdx
  Mrv1902 05222410232D          

 39 42  0  0  0  0            999 V2000
    3.6006   -9.1839    0.0000 O   0  0  0  0  0  0  0  0  0  0  0  0
    3.6006  -10.0089    0.0000 C   0  0  0  0  0  0  0  0  0  0  0  0
    4.3150  -10.4214    0.0000 O   0  0  0  0  0  0  0  0  0  0  0  0
    5.0295  -10.0089    0.0000 C   0  0  2  0  0  0  0  0  0  0  0  0
    5.0295   -9.1839    0.0000 C   0  0  0  0  0  0  0  0  0  0  0  0
    5.7440  -10.4214    0.0000 C   0  0  0  0  0  0  0  0  0  0  0  0
    6.4584  -10.0089    0.0000 C   0  0  1  0  0  0  0  0  0  0  0  0
    6.4584   -9.1839    0.0000 C   0  0  2  0  0  0  0  0  0  0  0  0
    5.7440   -8.7714    0.0000 C   0  0  0  0  0  0  0  0  0  0  0  0
    7.1729  -10.4214    0.0000 C   0  0  0  0  0  0  0  0  0  0  0  0
    7.8874  -10.0089    0.0000 C   0  0  0  0  0  0  0  0  0  0  0  0
    7.8874   -9.1839    0.0000 C   0  0  0  0  0  0  0  0  0  0  0  0
    7.1729   -8.7714    0.0000 C   0  0  0  0  0  0  0  0  0  0  0  0
    8.6019   -8.7714    0.0000 C   0  0  1  0  0  0  0  0  0  0  0  0
    8.6019   -7.9464    0.0000 C   0  0  2  0  0  0  0  0  0  0  0  0
    7.8874   -7.5339    0.0000 C   0  0  0  0  0  0  0  0  0  0  0  0
    7.1729   -7.9464    0.0000 C   0  0  0  0  0  0  0  0  0  0  0  0
    9.3865   -9.0263    0.0000 C   0  0  0  0  0  0  0  0  0  0  0  0
    9.8714   -8.3589    0.0000 C   0  0  0  0  0  0  0  0  0  0  0  0
    9.3865   -7.6915    0.0000 C   0  0  2  0  0  0  0  0  0  0  0  0
    9.6000   -6.8946    0.0000 C   0  0  2  0  0  0  0  0  0  0  0  0
   10.3969   -6.6810    0.0000 C   0  0  0  0  0  0  0  0  0  0  0  0
   10.6104   -5.8842    0.0000 O   0  0  0  0  0  0  0  0  0  0  0  0
    9.2302   -5.5143    0.0000 C   0  0  0  0  0  0  0  0  0  0  0  0
    9.0166   -6.3112    0.0000 C   0  0  0  0  0  0  0  0  0  0  0  0
   10.9802   -7.2644    0.0000 O   0  0  0  0  0  0  0  0  0  0  0  0
    8.6468   -4.9310    0.0000 C   0  0  1  0  0  0  0  0  0  0  0  0
    7.8499   -5.1445    0.0000 O   0  0  0  0  0  0  0  0  0  0  0  0
    8.8603   -4.1341    0.0000 C   0  0  0  0  0  0  0  0  0  0  0  0
    9.6572   -3.9205    0.0000 C   0  0  0  0  0  0  0  0  0  0  0  0
    8.2770   -3.5507    0.0000 C   0  0  0  0  0  0  0  0  0  0  0  0
    8.6019   -7.1214    0.0000 C   0  0  0  0  0  0  0  0  0  0  0  0
    8.6019   -9.5964    0.0000 C   0  0  0  0  0  0  0  0  0  0  0  0
    6.4584   -8.3589    0.0000 C   0  0  0  0  0  0  0  0  0  0  0  0
    5.3315  -11.1359    0.0000 C   0  0  0  0  0  0  0  0  0  0  0  0
    6.1565  -11.1359    0.0000 C   0  0  0  0  0  0  0  0  0  0  0  0
    2.8861  -10.4214    0.0000 C   0  0  0  0  0  0  0  0  0  0  0  0
    6.4584  -10.8339    0.0000 H   0  0  0  0  0  0  0  0  0  0  0  0
   10.1834   -7.4779    0.0000 H   0  0  0  0  0  0  0  0  0  0  0  0
  1  2  2  0  0  0  0
  2  3  1  0  0  0  0
  4  3  1  6  0  0  0
  4  5  1  0  0  0  0
  4  6  1  0  0  0  0
  6  7  1  0  0  0  0
  7  8  1  0  0  0  0
  8  9  1  0  0  0  0
  9  5  1  0  0  0  0
  7 10  1  0  0  0  0
 10 11  1  0  0  0  0
 11 12  1  0  0  0  0
 12 13  2  0  0  0  0
 13  8  1  0  0  0  0
 12 14  1  0  0  0  0
 14 15  1  0  0  0  0
 15 16  1  0  0  0  0
 16 17  1  0  0  0  0
 17 13  1  0  0  0  0
 14 18  1  0  0  0  0
 18 19  1  0  0  0  0
 19 20  1  0  0  0  0
 20 15  1  0  0  0  0
 20 21  1  0  0  0  0
 21 22  1  0  0  0  0
 22 23  1  0  0  0  0
 24 25  1  0  0  0  0
 21 25  1  1  0  0  0
 22 26  2  0  0  0  0
 24 27  1  0  0  0  0
 27 28  1  1  0  0  0
 27 29  1  0  0  0  0
 29 30  2  0  0  0  0
 29 31  1  0  0  0  0
 15 32  1  1  0  0  0
 14 33  1  6  0  0  0
  8 34  1  1  0  0  0
  6 35  1  0  0  0  0
  6 36  1  0  0  0  0
  2 37  1  0  0  0  0
  7 38  1  6  0  0  0
 20 39  1  6  0  0  0
M  END
>  <cdx:fragmentId>
5

$$$$
