300235.cdx
  Mrv1902 05222410272D          

 16 17  0  0  0  0            999 V2000
    6.3184   -4.8441    0.0000 C   0  0  0  0  0  0  0  0  0  0  0  0
    5.9589   -5.5866    0.0000 C   0  0  1  0  0  0  0  0  0  0  0  0
    6.3152   -6.3307    0.0000 C   0  0  0  0  0  0  0  0  0  0  0  0
    7.1192   -6.5160    0.0000 C   0  0  0  0  0  0  0  0  0  0  0  0
    7.7653   -6.0030    0.0000 C   0  0  0  0  0  0  0  0  0  0  0  0
    7.7670   -5.1780    0.0000 C   0  0  0  0  0  0  0  0  0  0  0  0
    7.1231   -4.6622    0.0000 C   0  0  0  0  0  0  0  0  0  0  0  0
    8.4789   -6.4170    0.0000 C   0  0  0  0  0  0  0  0  0  0  0  0
    9.1942   -6.0061    0.0000 C   0  0  0  0  0  0  0  0  0  0  0  0
    9.1960   -5.1811    0.0000 C   0  0  0  0  0  0  0  0  0  0  0  0
    8.4824   -4.7670    0.0000 C   0  0  0  0  0  0  0  0  0  0  0  0
    7.7670   -4.3530    0.0000 C   0  0  0  0  0  0  0  0  0  0  0  0
    8.1193   -7.1596    0.0000 C   0  0  0  0  0  0  0  0  0  0  0  0
    8.9421   -7.0997    0.0000 C   0  0  0  0  0  0  0  0  0  0  0  0
    5.2444   -5.9991    0.0000 O   0  0  0  0  0  0  0  0  0  0  0  0
    5.2444   -5.1741    0.0000 C   0  0  0  0  0  0  0  0  0  0  0  0
  1  2  1  0  0  0  0
  2  3  1  0  0  0  0
  3  4  1  0  0  0  0
  4  5  2  0  0  0  0
  5  6  1  0  0  0  0
  6  7  1  0  0  0  0
  7  1  1  0  0  0  0
  5  8  1  0  0  0  0
  8  9  1  0  0  0  0
  9 10  1  0  0  0  0
 10 11  1  0  0  0  0
 11  6  1  0  0  0  0
  6 12  1  0  0  0  0
  8 13  1  0  0  0  0
  8 14  1  0  0  0  0
  2 15  1  1  0  0  0
  2 16  1  0  0  0  0
M  END
>  <cdx:fragmentId>
1180

$$$$
