300231.cdx
  Mrv1902 05222410272D          

 24 27  0  0  0  0            999 V2000
    9.1379   -4.0836    0.0000 H   0  0  0  0  0  0  0  0  0  0  0  0
   10.4263   -6.0658    0.0000 O   0  0  0  0  0  0  0  0  0  0  0  0
   10.0138   -5.3513    0.0000 C   0  0  0  0  0  0  0  0  0  0  0  0
    6.7759   -8.2344    0.0000 C   0  0  0  0  0  0  0  0  0  0  0  0
    6.7604   -5.7594    0.0000 C   0  0  0  0  0  0  0  0  0  0  0  0
    5.3522   -9.0683    0.0000 O   0  0  0  0  0  0  0  0  0  0  0  0
    6.7811   -9.0593    0.0000 O   0  0  0  0  0  0  0  0  0  0  0  0
    6.0640   -8.6513    0.0000 C   0  0  0  0  0  0  0  0  0  0  0  0
    7.9506   -5.5328    0.0000 C   0  0  0  0  0  0  0  0  0  0  0  0
    8.9606   -6.2693    0.0000 C   0  0  0  0  0  0  0  0  0  0  0  0
    9.1988   -5.4794    0.0000 C   0  0  1  0  0  0  0  0  0  0  0  0
    8.7298   -4.8007    0.0000 C   0  0  2  0  0  0  0  0  0  0  0  0
    7.9068   -4.7442    0.0000 C   0  0  0  0  0  0  0  0  0  0  0  0
    7.3494   -5.3524    0.0000 C   0  0  0  0  0  0  0  0  0  0  0  0
    7.4775   -6.1674    0.0000 C   0  0  0  0  0  0  0  0  0  0  0  0
    6.7656   -6.5844    0.0000 C   0  0  1  0  0  0  0  0  0  0  0  0
    6.0486   -6.1764    0.0000 C   0  0  0  0  0  0  0  0  0  0  0  0
    5.3367   -6.5933    0.0000 C   0  0  0  0  0  0  0  0  0  0  0  0
    5.3418   -7.4183    0.0000 C   0  0  0  0  0  0  0  0  0  0  0  0
    6.0589   -7.8263    0.0000 C   0  0  1  0  0  0  0  0  0  0  0  0
    6.7708   -7.4094    0.0000 C   0  0  0  0  0  0  0  0  0  0  0  0
    7.4878   -7.8174    0.0000 C   0  0  0  0  0  0  0  0  0  0  0  0
    8.1997   -7.4004    0.0000 C   0  0  0  0  0  0  0  0  0  0  0  0
    8.1945   -6.5755    0.0000 C   0  0  1  0  0  0  0  0  0  0  0  0
 12  1  1  6  0  0  0
 11  3  1  1  0  0  0
  3  2  1  0  0  0  0
 20  4  1  1  0  0  0
 16  5  1  6  0  0  0
 20  8  1  0  0  0  0
  8  6  1  0  0  0  0
  8  7  2  0  0  0  0
 21 16  1  0  0  0  0
 24 15  1  0  0  0  0
 12  9  1  0  0  0  0
 24  9  1  0  0  0  0
 24 10  1  0  0  0  0
 11 10  1  0  0  0  0
 12 11  1  0  0  0  0
 13 12  1  0  0  0  0
 14 13  1  0  0  0  0
 15 14  1  0  0  0  0
 16 15  1  0  0  0  0
 17 16  1  0  0  0  0
 18 17  1  0  0  0  0
 19 18  1  0  0  0  0
 20 19  1  0  0  0  0
 21 20  1  0  0  0  0
 22 21  1  0  0  0  0
 23 22  1  0  0  0  0
 24 23  1  6  0  0  0
M  END
>  <cdx:fragmentId>
3182

$$$$
