300202.cdx
  Mrv1902 05222410202D          

 21 20  0  0  0  0            999 V2000
    9.4663   -9.5308    0.0000 O   0  0  0  0  0  0  0  0  0  0  0  0
    0.8926   -8.7058    0.0000 O   0  0  0  0  0  0  0  0  0  0  0  0
    1.6071   -7.4683    0.0000 O   0  0  0  0  0  0  0  0  0  0  0  0
   13.7531   -8.7058    0.0000 C   0  0  0  0  0  0  0  0  0  0  0  0
   13.0386   -8.2933    0.0000 C   0  0  0  0  0  0  0  0  0  0  0  0
   12.3242   -8.7058    0.0000 C   0  0  0  0  0  0  0  0  0  0  0  0
   11.6097   -8.2933    0.0000 C   0  0  0  0  0  0  0  0  0  0  0  0
   10.8952   -8.7058    0.0000 C   0  0  0  0  0  0  0  0  0  0  0  0
   10.1807   -8.2933    0.0000 C   0  0  0  0  0  0  0  0  0  0  0  0
    9.4663   -8.7058    0.0000 C   0  0  0  0  0  0  0  0  0  0  0  0
    8.7518   -8.2933    0.0000 C   0  0  0  0  0  0  0  0  0  0  0  0
    8.0373   -8.7058    0.0000 C   0  0  0  0  0  0  0  0  0  0  0  0
    7.3229   -8.2933    0.0000 C   0  0  0  0  0  0  0  0  0  0  0  0
    6.6084   -8.7058    0.0000 C   0  0  0  0  0  0  0  0  0  0  0  0
    5.8939   -8.2933    0.0000 C   0  0  0  0  0  0  0  0  0  0  0  0
    5.1794   -8.7058    0.0000 C   0  0  0  0  0  0  0  0  0  0  0  0
    4.4650   -8.2933    0.0000 C   0  0  0  0  0  0  0  0  0  0  0  0
    3.7505   -8.7058    0.0000 C   0  0  0  0  0  0  0  0  0  0  0  0
    3.0360   -8.2933    0.0000 C   0  0  0  0  0  0  0  0  0  0  0  0
    2.3216   -8.7058    0.0000 C   0  0  0  0  0  0  0  0  0  0  0  0
    1.6071   -8.2933    0.0000 C   0  0  0  0  0  0  0  0  0  0  0  0
 10  1  1  0  0  0  0
 21  2  1  0  0  0  0
 21  3  2  0  0  0  0
  5  4  1  0  0  0  0
  6  5  1  0  0  0  0
  7  6  1  0  0  0  0
  8  7  1  0  0  0  0
  9  8  1  0  0  0  0
 10  9  1  0  0  0  0
 11 10  1  0  0  0  0
 12 11  1  0  0  0  0
 13 12  1  0  0  0  0
 14 13  1  0  0  0  0
 15 14  1  0  0  0  0
 16 15  1  0  0  0  0
 17 16  1  0  0  0  0
 18 17  1  0  0  0  0
 19 18  1  0  0  0  0
 20 19  1  0  0  0  0
 21 20  1  0  0  0  0
M  END
>  <cdx:fragmentId>
1621

$$$$
