300243.cdx
  Mrv1902 05222410252D          

 15 16  0  0  0  0            999 V2000
    4.9562   -6.7966    0.0000 C   0  0  0  0  0  0  0  0  0  0  0  0
    4.9562   -5.9716    0.0000 C   0  0  0  0  0  0  0  0  0  0  0  0
    5.6707   -5.5591    0.0000 C   0  0  0  0  0  0  0  0  0  0  0  0
    6.3851   -5.9716    0.0000 C   0  0  0  0  0  0  0  0  0  0  0  0
    6.3851   -6.7966    0.0000 C   0  0  0  0  0  0  0  0  0  0  0  0
    5.6707   -7.2091    0.0000 N   0  0  0  0  0  0  0  0  0  0  0  0
    4.2417   -7.2091    0.0000 N   0  0  0  0  0  0  0  0  0  0  0  0
    4.2417   -8.0341    0.0000 C   0  0  0  0  0  0  0  0  0  0  0  0
    3.5273   -8.4466    0.0000 C   0  0  0  0  0  0  0  0  0  0  0  0
    2.8128   -8.0341    0.0000 C   0  0  0  0  0  0  0  0  0  0  0  0
    2.8128   -7.2091    0.0000 C   0  0  0  0  0  0  0  0  0  0  0  0
    3.5273   -6.7966    0.0000 C   0  0  0  0  0  0  0  0  0  0  0  0
    7.0996   -5.5591    0.0000 N   0  3  0  0  0  0  0  0  0  0  0  0
    7.0996   -4.7341    0.0000 O   0  0  0  0  0  0  0  0  0  0  0  0
    7.8141   -5.9716    0.0000 O   0  5  0  0  0  0  0  0  0  0  0  0
  1  2  1  0  0  0  0
  2  3  2  0  0  0  0
  3  4  1  0  0  0  0
  4  5  2  0  0  0  0
  5  6  1  0  0  0  0
  1  6  2  0  0  0  0
  7  8  1  0  0  0  0
  8  9  1  0  0  0  0
  9 10  1  0  0  0  0
 10 11  1  0  0  0  0
 11 12  1  0  0  0  0
  7 12  1  0  0  0  0
  1  7  1  0  0  0  0
 13 14  2  0  0  0  0
 13 15  1  0  0  0  0
  4 13  1  0  0  0  0
M  CHG  2  13   1  15  -1
M  END
>  <cdx:fragmentId>
455

$$$$
