300295.cdx
  Mrv1902 05222410252D          

 11 12  0  0  0  0            999 V2000
    7.3207   -5.7653    0.0000 C   0  0  0  0  0  0  0  0  0  0  0  0
    8.0351   -6.1778    0.0000 N   0  3  0  0  0  0  0  0  0  0  0  0
    8.0351   -7.0028    0.0000 C   0  0  0  0  0  0  0  0  0  0  0  0
    7.3207   -7.4153    0.0000 C   0  0  0  0  0  0  0  0  0  0  0  0
    6.6062   -7.0028    0.0000 C   0  0  0  0  0  0  0  0  0  0  0  0
    5.8917   -7.4153    0.0000 C   0  0  0  0  0  0  0  0  0  0  0  0
    5.1773   -7.0028    0.0000 C   0  0  0  0  0  0  0  0  0  0  0  0
    5.1773   -6.1778    0.0000 C   0  0  0  0  0  0  0  0  0  0  0  0
    5.8917   -5.7653    0.0000 C   0  0  0  0  0  0  0  0  0  0  0  0
    6.6062   -6.1778    0.0000 C   0  0  0  0  0  0  0  0  0  0  0  0
    8.7496   -5.7653    0.0000 O   0  5  0  0  0  0  0  0  0  0  0  0
  1  2  1  0  0  0  0
  2  3  2  0  0  0  0
  3  4  1  0  0  0  0
  4  5  2  0  0  0  0
  5  6  1  0  0  0  0
  6  7  2  0  0  0  0
  7  8  1  0  0  0  0
  8  9  2  0  0  0  0
  9 10  1  0  0  0  0
  1 10  2  0  0  0  0
  5 10  1  0  0  0  0
  2 11  1  0  0  0  0
M  CHG  2   2   1  11  -1
M  END
>  <cdx:fragmentId>
3120

$$$$
