300201.cdx
  Mrv1902 05222410192D          

 19 21  0  0  0  0            999 V2000
    6.0570   -8.8458    0.0000 H   0  0  0  0  0  0  0  0  0  0  0  0
   10.6894   -8.4637    0.0000 O   0  0  0  0  0  0  0  0  0  0  0  0
    9.5581   -7.2626    0.0000 C   0  0  0  0  0  0  0  0  0  0  0  0
    9.3208   -8.0528    0.0000 C   0  0  0  0  0  0  0  0  0  0  0  0
    9.8865   -8.6533    0.0000 C   0  0  0  0  0  0  0  0  0  0  0  0
    8.0958  -10.7956    0.0000 C   0  0  0  0  0  0  0  0  0  0  0  0
    5.8586   -8.0788    0.0000 C   0  0  0  0  0  0  0  0  0  0  0  0
    8.3511   -6.8553    0.0000 O   0  0  0  0  0  0  0  0  0  0  0  0
    7.3975   -8.3600    0.0000 O   0  0  0  0  0  0  0  0  0  0  0  0
    8.3404   -9.0481    0.0000 C   0  0  0  0  0  0  0  0  0  0  0  0
    8.5179   -8.2424    0.0000 C   0  0  0  0  0  0  0  0  0  0  0  0
    7.9987   -7.6013    0.0000 C   0  0  2  0  0  0  0  0  0  0  0  0
    7.1737   -7.6075    0.0000 C   0  0  0  0  0  0  0  0  0  0  0  0
    6.6642   -8.2564    0.0000 C   0  0  0  0  0  0  0  0  0  0  0  0
    6.8539   -9.0593    0.0000 C   0  0  2  0  0  0  0  0  0  0  0  0
    6.2882   -9.6598    0.0000 C   0  0  0  0  0  0  0  0  0  0  0  0
    6.6846  -10.3834    0.0000 C   0  0  0  0  0  0  0  0  0  0  0  0
    7.4952  -10.2300    0.0000 C   0  0  1  0  0  0  0  0  0  0  0  0
    7.5998   -9.4116    0.0000 C   0  0  2  0  0  0  0  0  0  0  0  0
 15  1  1  6  0  0  0
 11  4  2  0  0  0  0
  5  2  1  0  0  0  0
  4  3  1  0  0  0  0
  5  4  1  0  0  0  0
 18  6  1  1  0  0  0
 14  7  1  0  0  0  0
 12  8  1  1  0  0  0
 19 15  1  0  0  0  0
 12  9  1  0  0  0  0
 19  9  1  1  0  0  0
 19 10  1  0  0  0  0
 11 10  1  0  0  0  0
 12 11  1  0  0  0  0
 13 12  1  0  0  0  0
 14 13  2  0  0  0  0
 15 14  1  0  0  0  0
 16 15  1  0  0  0  0
 17 16  1  0  0  0  0
 18 17  1  0  0  0  0
 19 18  1  0  0  0  0
M  END
>  <cdx:fragmentId>
1558

$$$$
