300252.cdx
  Mrv1902 05222410242D          

 11 11  0  0  0  0            999 V2000
    7.3184   -4.7620    0.0000 C   0  0  0  0  0  0  0  0  0  0  0  0
    7.3184   -5.5870    0.0000 C   0  0  0  0  0  0  0  0  0  0  0  0
    6.6040   -5.9995    0.0000 C   0  0  0  0  0  0  0  0  0  0  0  0
    5.8895   -5.5870    0.0000 C   0  0  0  0  0  0  0  0  0  0  0  0
    5.8895   -4.7620    0.0000 C   0  0  0  0  0  0  0  0  0  0  0  0
    6.6040   -4.3495    0.0000 C   0  0  0  0  0  0  0  0  0  0  0  0
    8.0329   -4.3495    0.0000 O   0  0  0  0  0  0  0  0  0  0  0  0
    8.0329   -5.9995    0.0000 C   0  0  0  0  0  0  0  0  0  0  0  0
    8.7474   -5.5870    0.0000 C   0  0  0  0  0  0  0  0  0  0  0  0
    9.4619   -5.9995    0.0000 C   0  0  0  0  0  0  0  0  0  0  0  0
    5.1750   -5.9995    0.0000 C   0  0  0  0  0  0  0  0  0  0  0  0
  1  2  1  0  0  0  0
  2  3  2  0  0  0  0
  3  4  1  0  0  0  0
  4  5  2  0  0  0  0
  5  6  1  0  0  0  0
  1  6  2  0  0  0  0
  1  7  1  0  0  0  0
  8  9  1  0  0  0  0
  9 10  2  0  0  0  0
  2  8  1  0  0  0  0
  4 11  1  0  0  0  0
M  END
>  <cdx:fragmentId>
1074

$$$$
