300258.cdx
  Mrv1902 05222410212D          

 23 24  0  0  0  0            999 V2000
    8.4434   -7.4173    0.0000 C   0  0  0  0  0  0  0  0  0  0  0  0
    7.7289   -7.0048    0.0000 N   0  0  0  0  0  0  0  0  0  0  0  0
    7.7289   -6.1798    0.0000 C   0  0  0  0  0  0  0  0  0  0  0  0
    8.4434   -5.7673    0.0000 C   0  0  0  0  0  0  0  0  0  0  0  0
    9.1579   -6.1798    0.0000 C   0  0  0  0  0  0  0  0  0  0  0  0
    9.1579   -7.0048    0.0000 N   0  0  0  0  0  0  0  0  0  0  0  0
    7.0145   -5.7673    0.0000 N   0  0  0  0  0  0  0  0  0  0  0  0
    6.3000   -6.1798    0.0000 C   0  0  0  0  0  0  0  0  0  0  0  0
    6.3000   -7.0048    0.0000 C   0  0  0  0  0  0  0  0  0  0  0  0
    5.5855   -7.4173    0.0000 C   0  0  0  0  0  0  0  0  0  0  0  0
    4.8710   -7.0048    0.0000 C   0  0  0  0  0  0  0  0  0  0  0  0
    4.8710   -6.1798    0.0000 C   0  0  0  0  0  0  0  0  0  0  0  0
    5.5855   -5.7673    0.0000 C   0  0  0  0  0  0  0  0  0  0  0  0
    4.1566   -7.4173    0.0000 O   0  0  0  0  0  0  0  0  0  0  0  0
    3.4421   -7.0048    0.0000 C   0  0  0  0  0  0  0  0  0  0  0  0
    5.5855   -8.2423    0.0000 O   0  0  0  0  0  0  0  0  0  0  0  0
    4.8710   -8.6548    0.0000 C   0  0  0  0  0  0  0  0  0  0  0  0
    7.0145   -7.4173    0.0000 O   0  0  0  0  0  0  0  0  0  0  0  0
    7.0145   -8.2423    0.0000 C   0  0  0  0  0  0  0  0  0  0  0  0
    8.4434   -4.9423    0.0000 N   0  3  0  0  0  0  0  0  0  0  0  0
    7.7289   -4.5298    0.0000 O   0  0  0  0  0  0  0  0  0  0  0  0
    9.1579   -4.5298    0.0000 O   0  5  0  0  0  0  0  0  0  0  0  0
    8.4434   -8.2423    0.0000 Cl  0  0  0  0  0  0  0  0  0  0  0  0
  1  2  1  0  0  0  0
  2  3  2  0  0  0  0
  3  4  1  0  0  0  0
  4  5  2  0  0  0  0
  5  6  1  0  0  0  0
  1  6  2  0  0  0  0
  3  7  1  0  0  0  0
  8  9  1  0  0  0  0
  9 10  2  0  0  0  0
 10 11  1  0  0  0  0
 11 12  2  0  0  0  0
 12 13  1  0  0  0  0
  8 13  2  0  0  0  0
 14 15  1  0  0  0  0
 11 14  1  0  0  0  0
 16 17  1  0  0  0  0
 10 16  1  0  0  0  0
 18 19  1  0  0  0  0
  9 18  1  0  0  0  0
  7  8  1  0  0  0  0
 20 21  2  0  0  0  0
 20 22  1  0  0  0  0
  4 20  1  0  0  0  0
  1 23  1  0  0  0  0
M  CHG  2  20   1  22  -1
M  END
>  <cdx:fragmentId>
1420

$$$$
