300289.cdx
  Mrv1902 05222410222D          

 10 10  0  0  0  0            999 V2000
    6.6896   -6.9609    0.0000 C   0  0  0  0  0  0  0  0  0  0  0  0
    5.9752   -7.3734    0.0000 C   0  0  0  0  0  0  0  0  0  0  0  0
    5.2607   -6.9609    0.0000 C   0  0  0  0  0  0  0  0  0  0  0  0
    5.2607   -6.1359    0.0000 C   0  0  0  0  0  0  0  0  0  0  0  0
    5.9752   -5.7234    0.0000 C   0  0  0  0  0  0  0  0  0  0  0  0
    6.6896   -6.1359    0.0000 C   0  0  0  0  0  0  0  0  0  0  0  0
    7.4041   -7.3734    0.0000 C   0  0  0  0  0  0  0  0  0  0  0  0
    8.1186   -6.9609    0.0000 C   0  0  0  0  0  0  0  0  0  0  0  0
    8.1186   -6.1359    0.0000 C   0  0  0  0  0  0  0  0  0  0  0  0
    8.8331   -7.3734    0.0000 C   0  0  0  0  0  0  0  0  0  0  0  0
  1  2  1  0  0  0  0
  2  3  2  0  0  0  0
  3  4  1  0  0  0  0
  4  5  2  0  0  0  0
  5  6  1  0  0  0  0
  1  6  2  0  0  0  0
  7  8  2  0  0  0  0
  8  9  1  0  0  0  0
  8 10  1  0  0  0  0
  1  7  1  0  0  0  0
M  END
>  <cdx:fragmentId>
2873

$$$$
