300281.cdx
  Mrv1902 05222410252D          

 16 18  0  0  0  0            999 V2000
    7.5021   -7.1185    0.0000 N   0  0  0  0  0  0  0  0  0  0  0  0
    7.9871   -7.7859    0.0000 C   0  0  0  0  0  0  0  0  0  0  0  0
    7.5021   -8.4534    0.0000 C   0  0  0  0  0  0  0  0  0  0  0  0
    6.7175   -8.1984    0.0000 C   0  0  0  0  0  0  0  0  0  0  0  0
    6.0030   -8.6109    0.0000 C   0  0  0  0  0  0  0  0  0  0  0  0
    5.2886   -8.1984    0.0000 C   0  0  0  0  0  0  0  0  0  0  0  0
    5.2886   -7.3734    0.0000 C   0  0  0  0  0  0  0  0  0  0  0  0
    6.0030   -6.9609    0.0000 C   0  0  0  0  0  0  0  0  0  0  0  0
    6.7175   -7.3734    0.0000 C   0  0  0  0  0  0  0  0  0  0  0  0
    6.0030   -6.1359    0.0000 C   0  0  0  0  0  0  0  0  0  0  0  0
    5.2886   -5.7234    0.0000 C   0  0  0  0  0  0  0  0  0  0  0  0
    5.2886   -4.8984    0.0000 C   0  0  0  0  0  0  0  0  0  0  0  0
    6.0030   -4.4859    0.0000 C   0  0  0  0  0  0  0  0  0  0  0  0
    6.7175   -4.8984    0.0000 C   0  0  0  0  0  0  0  0  0  0  0  0
    6.7175   -5.7234    0.0000 C   0  0  0  0  0  0  0  0  0  0  0  0
    8.8121   -7.7859    0.0000 C   0  0  0  0  0  0  0  0  0  0  0  0
  1  2  1  0  0  0  0
  2  3  2  0  0  0  0
  3  4  1  0  0  0  0
  4  5  1  0  0  0  0
  5  6  2  0  0  0  0
  6  7  1  0  0  0  0
  7  8  2  0  0  0  0
  8  9  1  0  0  0  0
  1  9  1  0  0  0  0
  4  9  2  0  0  0  0
 10 11  1  0  0  0  0
 11 12  2  0  0  0  0
 12 13  1  0  0  0  0
 13 14  2  0  0  0  0
 14 15  1  0  0  0  0
 10 15  2  0  0  0  0
  8 10  1  0  0  0  0
  2 16  1  0  0  0  0
M  END
>  <cdx:fragmentId>
2481

$$$$
