300206.cdx
  Mrv1902 05222410182D          

 21 20  0  0  0  0            999 V2000
   12.7620   -4.9658    0.0000 C   0  0  0  0  0  0  0  0  0  0  0  0
   12.0476   -5.3783    0.0000 C   0  0  0  0  0  0  0  0  0  0  0  0
   11.3331   -4.9658    0.0000 C   0  0  0  0  0  0  0  0  0  0  0  0
   10.6186   -5.3783    0.0000 C   0  0  0  0  0  0  0  0  0  0  0  0
    9.9042   -4.9658    0.0000 C   0  0  0  0  0  0  0  0  0  0  0  0
    9.1897   -5.3783    0.0000 C   0  0  0  0  0  0  0  0  0  0  0  0
    8.4752   -4.9658    0.0000 C   0  0  0  0  0  0  0  0  0  0  0  0
    7.7607   -5.3783    0.0000 C   0  0  0  0  0  0  0  0  0  0  0  0
    7.0463   -4.9658    0.0000 C   0  0  0  0  0  0  0  0  0  0  0  0
    6.3318   -5.3783    0.0000 C   0  0  0  0  0  0  0  0  0  0  0  0
    5.6173   -4.9658    0.0000 C   0  0  0  0  0  0  0  0  0  0  0  0
    4.9029   -5.3783    0.0000 C   0  0  0  0  0  0  0  0  0  0  0  0
    4.1884   -4.9658    0.0000 C   0  0  0  0  0  0  0  0  0  0  0  0
    3.4739   -5.3783    0.0000 C   0  0  0  0  0  0  0  0  0  0  0  0
    2.7594   -4.9658    0.0000 C   0  0  0  0  0  0  0  0  0  0  0  0
    2.0450   -5.3783    0.0000 C   0  0  0  0  0  0  0  0  0  0  0  0
    1.3305   -4.9658    0.0000 C   0  0  0  0  0  0  0  0  0  0  0  0
    0.6160   -5.3783    0.0000 C   0  0  0  0  0  0  0  0  0  0  0  0
   12.7620   -4.1408    0.0000 O   0  0  0  0  0  0  0  0  0  0  0  0
   13.4765   -5.3783    0.0000 O   0  0  0  0  0  0  0  0  0  0  0  0
    4.1884   -4.1408    0.0000 O   0  0  0  0  0  0  0  0  0  0  0  0
  1  2  1  0  0  0  0
  2  3  1  0  0  0  0
  3  4  1  0  0  0  0
  4  5  1  0  0  0  0
  5  6  1  0  0  0  0
  6  7  1  0  0  0  0
  7  8  1  0  0  0  0
  8  9  1  0  0  0  0
  9 10  2  0  0  0  0
 10 11  1  0  0  0  0
 11 12  2  0  0  0  0
 12 13  1  0  0  0  0
 13 14  1  0  0  0  0
 14 15  1  0  0  0  0
 15 16  1  0  0  0  0
 16 17  1  0  0  0  0
 17 18  1  0  0  0  0
  1 19  2  0  0  0  0
  1 20  1  0  0  0  0
 13 21  1  0  0  0  0
M  END
>  <cdx:fragmentId>
2012

$$$$
