300230.cdx
  Mrv1902 05222410272D          

 30 34  0  0  0  0            999 V2000
    6.1607  -10.8519    0.0000 H   0  0  0  0  0  0  0  0  0  0  0  0
    6.8808   -9.6164    0.0000 H   0  0  0  0  0  0  0  0  0  0  0  0
    9.1347   -8.7975    0.0000 H   0  0  0  0  0  0  0  0  0  0  0  0
    9.7331   -7.5936    0.0000 C   0  0  0  0  0  0  0  0  0  0  0  0
    6.1652   -8.3769    0.0000 C   0  0  0  0  0  0  0  0  0  0  0  0
    5.8580  -11.1531    0.0000 C   0  0  0  0  0  0  0  0  0  0  0  0
    5.0330  -11.1509    0.0000 C   0  0  0  0  0  0  0  0  0  0  0  0
    9.0075   -5.9520    0.0000 O   0  0  0  0  0  0  0  0  0  0  0  0
    7.5919  -10.0308    0.0000 C   0  0  0  0  0  0  0  0  0  0  0  0
    6.8763  -10.4414    0.0000 C   0  0  0  0  0  0  0  0  0  0  0  0
    6.1630  -10.0269    0.0000 C   0  0  2  0  0  0  0  0  0  0  0  0
    5.4474  -10.4375    0.0000 C   0  0  0  0  0  0  0  0  0  0  0  0
    4.7340  -10.0231    0.0000 C   0  0  0  0  0  0  0  0  0  0  0  0
    4.7363   -9.1981    0.0000 C   0  0  0  0  0  0  0  0  0  0  0  0
    5.4519   -8.7875    0.0000 C   0  0  0  0  0  0  0  0  0  0  0  0
    6.1652   -9.2019    0.0000 C   0  0  2  0  0  0  0  0  0  0  0  0
    6.8808   -8.7914    0.0000 C   0  0  2  0  0  0  0  0  0  0  0  0
    6.8830   -7.9664    0.0000 C   0  0  0  0  0  0  0  0  0  0  0  0
    7.5986   -7.5558    0.0000 C   0  0  0  0  0  0  0  0  0  0  0  0
    7.7723   -6.7493    0.0000 O   0  0  0  0  0  0  0  0  0  0  0  0
    8.5931   -6.6653    0.0000 C   0  0  0  0  0  0  0  0  0  0  0  0
    8.9266   -7.4199    0.0000 C   0  0  0  0  0  0  0  0  0  0  0  0
    8.3120   -7.9703    0.0000 C   0  0  0  0  0  0  0  0  0  0  0  0
    8.3097   -8.7953    0.0000 C   0  0  1  0  0  0  0  0  0  0  0  0
    8.3075   -9.6203    0.0000 O   0  0  0  0  0  0  0  0  0  0  0  0
    7.5942   -9.2058    0.0000 C   0  0  2  0  0  0  0  0  0  0  0  0
   10.2868   -6.9820    0.0000 O   0  0  0  0  0  0  0  0  0  0  0  0
   11.0933   -7.1557    0.0000 C   0  0  0  0  0  0  0  0  0  0  0  0
   11.6470   -6.5441    0.0000 C   0  0  0  0  0  0  0  0  0  0  0  0
   11.3461   -7.9410    0.0000 O   0  0  0  0  0  0  0  0  0  0  0  0
 11  1  1  1  0  0  0
 17  2  1  1  0  0  0
 24  3  1  6  0  0  0
 22  4  1  0  0  0  0
 16  5  1  6  0  0  0
 12  6  1  0  0  0  0
 12  7  1  0  0  0  0
 21  8  2  0  0  0  0
 26 24  1  0  0  0  0
 23 19  1  0  0  0  0
 16 11  1  0  0  0  0
 26 17  1  0  0  0  0
 26  9  1  0  0  0  0
 10  9  1  0  0  0  0
 11 10  1  0  0  0  0
 12 11  1  0  0  0  0
 13 12  1  0  0  0  0
 14 13  1  0  0  0  0
 15 14  1  0  0  0  0
 16 15  1  0  0  0  0
 17 16  1  0  0  0  0
 18 17  1  0  0  0  0
 19 18  2  0  0  0  0
 20 19  1  0  0  0  0
 21 20  1  0  0  0  0
 22 21  1  0  0  0  0
 23 22  2  0  0  0  0
 24 23  1  0  0  0  0
 25 24  1  0  0  0  0
 26 25  1  1  0  0  0
  4 27  1  0  0  0  0
 27 28  1  0  0  0  0
 28 29  1  0  0  0  0
 28 30  2  0  0  0  0
M  END
>  <cdx:groupId>
7395

>  <cdx:fragmentId>
7316

$$$$
