300275.cdx
  Mrv1902 05222410232D          

 10 10  0  0  0  0            999 V2000
    7.4007   -6.9589    0.0000 C   0  0  0  0  0  0  0  0  0  0  0  0
    7.4007   -6.1339    0.0000 C   0  0  0  0  0  0  0  0  0  0  0  0
    6.6862   -7.3714    0.0000 N   0  0  0  0  0  0  0  0  0  0  0  0
    6.6862   -5.7214    0.0000 N   0  0  0  0  0  0  0  0  0  0  0  0
    5.9717   -6.1339    0.0000 C   0  0  0  0  0  0  0  0  0  0  0  0
    5.9717   -6.9589    0.0000 C   0  0  0  0  0  0  0  0  0  0  0  0
    5.2573   -5.7214    0.0000 C   0  0  0  0  0  0  0  0  0  0  0  0
    8.1151   -5.7214    0.0000 C   0  0  0  0  0  0  0  0  0  0  0  0
    8.1151   -7.3714    0.0000 O   0  0  0  0  0  0  0  0  0  0  0  0
    8.8296   -6.9589    0.0000 C   0  0  0  0  0  0  0  0  0  0  0  0
  1  2  1  0  0  0  0
  1  3  2  0  0  0  0
  2  4  2  0  0  0  0
  4  5  1  0  0  0  0
  5  6  2  0  0  0  0
  3  6  1  0  0  0  0
  5  7  1  0  0  0  0
  2  8  1  0  0  0  0
  9 10  1  0  0  0  0
  1  9  1  0  0  0  0
M  END
>  <cdx:fragmentId>
2135

$$$$
