300278.cdx
  Mrv1902 05222410232D          

 25 28  0  0  0  0            999 V2000
    6.0464   -6.6543    0.0000 C   0  0  0  0  0  0  0  0  0  0  0  0
    5.3319   -7.0668    0.0000 C   0  0  0  0  0  0  0  0  0  0  0  0
    5.3319   -7.8918    0.0000 C   0  0  0  0  0  0  0  0  0  0  0  0
    6.0464   -8.3043    0.0000 C   0  0  0  0  0  0  0  0  0  0  0  0
    6.7608   -7.8918    0.0000 C   0  0  0  0  0  0  0  0  0  0  0  0
    7.4753   -8.3043    0.0000 C   0  0  0  0  0  0  0  0  0  0  0  0
    8.1898   -7.8918    0.0000 C   0  0  0  0  0  0  0  0  0  0  0  0
    8.1898   -7.0668    0.0000 C   0  0  1  0  0  0  0  0  0  0  0  0
    8.9043   -6.6543    0.0000 C   0  0  2  0  0  0  0  0  0  0  0  0
    9.6889   -6.9093    0.0000 C   0  0  0  0  0  0  0  0  0  0  0  0
   10.1738   -6.2418    0.0000 C   0  0  0  0  0  0  0  0  0  0  0  0
    9.6889   -5.5744    0.0000 C   0  0  0  0  0  0  0  0  0  0  0  0
    8.9043   -5.8293    0.0000 C   0  0  1  0  0  0  0  0  0  0  0  0
    8.1898   -5.4168    0.0000 C   0  0  0  0  0  0  0  0  0  0  0  0
    7.4753   -5.8293    0.0000 C   0  0  0  0  0  0  0  0  0  0  0  0
    7.4753   -6.6543    0.0000 C   0  0  2  0  0  0  0  0  0  0  0  0
    6.7608   -7.0668    0.0000 C   0  0  0  0  0  0  0  0  0  0  0  0
    9.9438   -4.7898    0.0000 O   0  0  0  0  0  0  0  0  0  0  0  0
    8.9043   -5.0043    0.0000 C   0  0  0  0  0  0  0  0  0  0  0  0
    4.6174   -6.6543    0.0000 O   0  0  0  0  0  0  0  0  0  0  0  0
    3.9030   -7.0668    0.0000 C   0  0  0  0  0  0  0  0  0  0  0  0
    4.6174   -8.3043    0.0000 O   0  0  0  0  0  0  0  0  0  0  0  0
    8.1898   -6.2418    0.0000 H   0  0  0  0  0  0  0  0  0  0  0  0
    7.4753   -7.4793    0.0000 H   0  0  0  0  0  0  0  0  0  0  0  0
    8.9043   -7.4793    0.0000 H   0  0  0  0  0  0  0  0  0  0  0  0
  1  2  1  0  0  0  0
  2  3  2  0  0  0  0
  3  4  1  0  0  0  0
  4  5  2  0  0  0  0
  5  6  1  0  0  0  0
  6  7  1  0  0  0  0
  7  8  1  0  0  0  0
  8  9  1  0  0  0  0
  9 10  1  0  0  0  0
 10 11  1  0  0  0  0
 11 12  1  0  0  0  0
 12 13  1  0  0  0  0
  9 13  1  0  0  0  0
 13 14  1  0  0  0  0
 14 15  1  0  0  0  0
 15 16  1  0  0  0  0
  8 16  1  0  0  0  0
 16 17  1  0  0  0  0
  5 17  1  0  0  0  0
  1 17  2  0  0  0  0
 12 18  2  0  0  0  0
 13 19  1  1  0  0  0
 20 21  1  0  0  0  0
  2 20  1  0  0  0  0
  3 22  1  0  0  0  0
  8 23  1  1  0  0  0
 16 24  1  6  0  0  0
  9 25  1  6  0  0  0
M  END
>  <cdx:fragmentId>
2288

$$$$
