300280.cdx
  Mrv1902 05222410252D          

 16 17  0  0  0  0            999 V2000
    8.2477   -6.2302    0.0000 C   0  0  0  0  0  0  0  0  0  0  0  0
    8.2477   -5.4052    0.0000 C   0  0  0  0  0  0  0  0  0  0  0  0
    7.5332   -4.9927    0.0000 C   0  0  0  0  0  0  0  0  0  0  0  0
    6.8188   -5.4052    0.0000 C   0  0  0  0  0  0  0  0  0  0  0  0
    6.8188   -6.2302    0.0000 C   0  0  0  0  0  0  0  0  0  0  0  0
    7.5332   -6.6427    0.0000 C   0  0  0  0  0  0  0  0  0  0  0  0
    8.9622   -6.6427    0.0000 O   0  0  0  0  0  0  0  0  0  0  0  0
    6.1043   -6.6427    0.0000 C   0  0  2  0  0  0  0  0  0  0  0  0
    5.6194   -7.3102    0.0000 C   0  0  0  0  0  0  0  0  0  0  0  0
    4.8347   -7.0552    0.0000 C   0  0  0  0  0  0  0  0  0  0  0  0
    4.8347   -6.2302    0.0000 C   0  0  0  0  0  0  0  0  0  0  0  0
    5.6194   -5.9753    0.0000 C   0  0  0  0  0  0  0  0  0  0  0  0
    6.2325   -7.8622    0.0000 C   0  0  0  0  0  0  0  0  0  0  0  0
    5.4478   -8.1172    0.0000 C   0  0  0  0  0  0  0  0  0  0  0  0
    6.8188   -7.0552    0.0000 C   0  0  0  0  0  0  0  0  0  0  0  0
    8.9622   -4.9927    0.0000 C   0  0  0  0  0  0  0  0  0  0  0  0
  1  2  1  0  0  0  0
  2  3  2  0  0  0  0
  3  4  1  0  0  0  0
  4  5  2  0  0  0  0
  5  6  1  0  0  0  0
  1  6  2  0  0  0  0
  1  7  1  0  0  0  0
  8  9  1  0  0  0  0
  9 10  1  0  0  0  0
 10 11  1  0  0  0  0
 11 12  1  0  0  0  0
  8 12  1  0  0  0  0
  9 13  1  0  0  0  0
  9 14  1  0  0  0  0
  8 15  1  1  0  0  0
  8  5  1  6  0  0  0
  2 16  1  0  0  0  0
M  END
>  <cdx:fragmentId>
2443

$$$$
