300262.cdx
  Mrv1902 05222410222D          

 24 24  0  0  0  0            999 V2000
    2.6023   -7.3721    0.0000 C   0  0  0  0  0  0  0  0  0  0  0  0
    2.6023   -6.5471    0.0000 C   0  0  0  0  0  0  0  0  0  0  0  0
    1.8878   -6.1346    0.0000 C   0  0  0  0  0  0  0  0  0  0  0  0
    1.1733   -6.5471    0.0000 C   0  0  0  0  0  0  0  0  0  0  0  0
    1.1733   -7.3721    0.0000 C   0  0  0  0  0  0  0  0  0  0  0  0
    1.8878   -7.7846    0.0000 C   0  0  0  0  0  0  0  0  0  0  0  0
    3.3167   -7.7846    0.0000 O   0  0  0  0  0  0  0  0  0  0  0  0
    3.3167   -6.1346    0.0000 C   0  0  0  0  0  0  0  0  0  0  0  0
    4.0312   -6.5471    0.0000 C   0  0  0  0  0  0  0  0  0  0  0  0
    4.7457   -6.1346    0.0000 C   0  0  0  0  0  0  0  0  0  0  0  0
    5.4601   -6.5471    0.0000 C   0  0  0  0  0  0  0  0  0  0  0  0
    6.1746   -6.1346    0.0000 C   0  0  0  0  0  0  0  0  0  0  0  0
    6.8891   -6.5471    0.0000 C   0  0  0  0  0  0  0  0  0  0  0  0
    7.6036   -6.1346    0.0000 C   0  0  0  0  0  0  0  0  0  0  0  0
    8.3180   -6.5471    0.0000 C   0  0  0  0  0  0  0  0  0  0  0  0
    9.0325   -6.1346    0.0000 C   0  0  0  0  0  0  0  0  0  0  0  0
    9.7470   -6.5471    0.0000 C   0  0  0  0  0  0  0  0  0  0  0  0
   10.4614   -6.1346    0.0000 C   0  0  0  0  0  0  0  0  0  0  0  0
   11.1759   -6.5471    0.0000 C   0  0  0  0  0  0  0  0  0  0  0  0
   11.8904   -6.1346    0.0000 C   0  0  0  0  0  0  0  0  0  0  0  0
   12.6049   -6.5471    0.0000 C   0  0  0  0  0  0  0  0  0  0  0  0
    3.3167   -5.3096    0.0000 O   0  0  0  0  0  0  0  0  0  0  0  0
    0.4588   -6.1346    0.0000 O   0  0  0  0  0  0  0  0  0  0  0  0
    1.8878   -5.3096    0.0000 O   0  0  0  0  0  0  0  0  0  0  0  0
  1  2  1  0  0  0  0
  2  3  2  0  0  0  0
  3  4  1  0  0  0  0
  4  5  1  0  0  0  0
  5  6  1  0  0  0  0
  1  6  1  0  0  0  0
  1  7  2  0  0  0  0
  8  9  1  0  0  0  0
  9 10  1  0  0  0  0
 10 11  1  0  0  0  0
 11 12  1  0  0  0  0
 12 13  1  0  0  0  0
 13 14  1  0  0  0  0
 14 15  1  0  0  0  0
 15 16  1  0  0  0  0
 16 17  1  0  0  0  0
 17 18  2  0  0  0  0
 18 19  1  0  0  0  0
 19 20  1  0  0  0  0
 20 21  1  0  0  0  0
  8 22  2  0  0  0  0
  2  8  1  0  0  0  0
  4 23  1  0  0  0  0
  3 24  1  0  0  0  0
M  END
>  <cdx:fragmentId>
1578

$$$$
