300222.cdx
  Mrv1902 05222410282D          

 16 18  0  0  0  0            999 V2000
    4.6027   -7.2188    0.0000 C   0  0  0  0  0  0  0  0  0  0  0  0
    4.6027   -8.0437    0.0000 C   0  0  0  0  0  0  0  0  0  0  0  0
    5.3171   -8.4563    0.0000 C   0  0  1  0  0  0  0  0  0  0  0  0
    6.0316   -8.0437    0.0000 C   0  0  0  0  0  0  0  0  0  0  0  0
    6.0316   -7.2188    0.0000 C   0  0  0  0  0  0  0  0  0  0  0  0
    5.3171   -6.8062    0.0000 C   0  0  1  0  0  0  0  0  0  0  0  0
    6.7461   -8.4563    0.0000 C   0  0  0  0  0  0  0  0  0  0  0  0
    7.4605   -8.0437    0.0000 C   0  0  0  0  0  0  0  0  0  0  0  0
    7.4605   -7.2188    0.0000 C   0  0  0  0  0  0  0  0  0  0  0  0
    6.7461   -6.8062    0.0000 C   0  0  0  0  0  0  0  0  0  0  0  0
    6.7461   -5.9813    0.0000 C   0  0  0  0  0  0  0  0  0  0  0  0
    5.3171   -9.2813    0.0000 C   0  0  0  0  0  0  0  0  0  0  0  0
    4.6027   -9.6937    0.0000 C   0  0  0  0  0  0  0  0  0  0  0  0
    6.0316   -9.6937    0.0000 C   0  0  0  0  0  0  0  0  0  0  0  0
    5.3171   -5.9813    0.0000 C   0  0  0  0  0  0  0  0  0  0  0  0
    4.6027   -5.5687    0.0000 O   0  0  0  0  0  0  0  0  0  0  0  0
  1  2  1  0  0  0  0
  2  3  1  0  0  0  0
  3  4  1  0  0  0  0
  5  6  1  0  0  0  0
  6  1  1  0  0  0  0
  4  7  1  0  0  0  0
  7  8  1  0  0  0  0
  8  9  1  0  0  0  0
  9 10  2  0  0  0  0
 10  5  1  0  0  0  0
 10 11  1  0  0  0  0
  3 12  1  1  0  0  0
 12 13  1  0  0  0  0
 12 14  1  0  0  0  0
  6 15  1  6  0  0  0
  5  4  1  0  0  0  0
  6  7  1  0  0  0  0
 15 16  1  0  0  0  0
M  END
>  <cdx:fragmentId>
5

$$$$
