300203.cdx
  Mrv1902 05222410202D          

 22 21  0  0  0  0            999 V2000
   13.0095   -8.1283    0.0000 C   0  0  0  0  0  0  0  0  0  0  0  0
   12.2951   -8.5408    0.0000 C   0  0  0  0  0  0  0  0  0  0  0  0
   11.5806   -8.1283    0.0000 C   0  0  0  0  0  0  0  0  0  0  0  0
   10.8661   -8.5408    0.0000 C   0  0  0  0  0  0  0  0  0  0  0  0
   10.1517   -8.1283    0.0000 C   0  0  0  0  0  0  0  0  0  0  0  0
    9.4372   -8.5408    0.0000 C   0  0  0  0  0  0  0  0  0  0  0  0
    8.7227   -8.1283    0.0000 C   0  0  0  0  0  0  0  0  0  0  0  0
    8.0082   -8.5408    0.0000 C   0  0  0  0  0  0  0  0  0  0  0  0
    7.2938   -8.1283    0.0000 C   0  0  0  0  0  0  0  0  0  0  0  0
    6.5793   -8.5408    0.0000 C   0  0  0  0  0  0  0  0  0  0  0  0
    5.8648   -8.1283    0.0000 C   0  0  0  0  0  0  0  0  0  0  0  0
    5.1504   -8.5408    0.0000 C   0  0  0  0  0  0  0  0  0  0  0  0
    4.4359   -8.1283    0.0000 C   0  0  0  0  0  0  0  0  0  0  0  0
    3.7214   -8.5408    0.0000 C   0  0  0  0  0  0  0  0  0  0  0  0
    3.0069   -8.1283    0.0000 C   0  0  0  0  0  0  0  0  0  0  0  0
    2.2925   -8.5408    0.0000 C   0  0  0  0  0  0  0  0  0  0  0  0
    1.5780   -8.1283    0.0000 C   0  0  0  0  0  0  0  0  0  0  0  0
    0.8635   -8.5408    0.0000 C   0  0  0  0  0  0  0  0  0  0  0  0
   13.0095   -7.3033    0.0000 O   0  0  0  0  0  0  0  0  0  0  0  0
   13.7240   -8.5408    0.0000 O   0  0  0  0  0  0  0  0  0  0  0  0
    4.4359   -7.3033    0.0000 O   0  0  0  0  0  0  0  0  0  0  0  0
    5.1504   -9.3658    0.0000 O   0  0  0  0  0  0  0  0  0  0  0  0
  1  2  1  0  0  0  0
  2  3  1  0  0  0  0
  3  4  1  0  0  0  0
  4  5  1  0  0  0  0
  5  6  1  0  0  0  0
  6  7  1  0  0  0  0
  7  8  1  0  0  0  0
  8  9  1  0  0  0  0
  9 10  2  0  0  0  0
 10 11  1  0  0  0  0
 11 12  1  0  0  0  0
 12 13  1  0  0  0  0
 13 14  1  0  0  0  0
 14 15  1  0  0  0  0
 15 16  1  0  0  0  0
 16 17  1  0  0  0  0
 17 18  1  0  0  0  0
  1 19  2  0  0  0  0
  1 20  1  0  0  0  0
 13 21  1  0  0  0  0
 12 22  1  0  0  0  0
M  END
>  <cdx:fragmentId>
1687

$$$$
