300244.cdx
  Mrv1902 05222410232D          

 17 18  0  0  0  0            999 V2000
    6.9612   -5.5585    0.0000 C   0  0  0  0  0  0  0  0  0  0  0  0
    7.6757   -5.9710    0.0000 C   0  0  0  0  0  0  0  0  0  0  0  0
    7.2632   -6.6854    0.0000 C   0  0  0  0  0  0  0  0  0  0  0  0
    8.0882   -6.6854    0.0000 O   0  0  0  0  0  0  0  0  0  0  0  0
    8.3901   -5.5585    0.0000 C   0  0  0  0  0  0  0  0  0  0  0  0
    8.3901   -4.7335    0.0000 C   0  0  0  0  0  0  0  0  0  0  0  0
    9.1046   -4.3210    0.0000 C   0  0  0  0  0  0  0  0  0  0  0  0
    9.8191   -4.7335    0.0000 C   0  0  0  0  0  0  0  0  0  0  0  0
    9.8191   -5.5585    0.0000 C   0  0  0  0  0  0  0  0  0  0  0  0
    9.1046   -5.9710    0.0000 C   0  0  0  0  0  0  0  0  0  0  0  0
    6.2467   -5.9710    0.0000 C   0  0  0  0  0  0  0  0  0  0  0  0
    6.2467   -6.7960    0.0000 C   0  0  0  0  0  0  0  0  0  0  0  0
    5.5323   -5.5585    0.0000 N   0  0  0  0  0  0  0  0  0  0  0  0
    5.5323   -7.2085    0.0000 N   0  0  0  0  0  0  0  0  0  0  0  0
    4.8178   -6.7960    0.0000 C   0  0  0  0  0  0  0  0  0  0  0  0
    4.8178   -5.9710    0.0000 C   0  0  0  0  0  0  0  0  0  0  0  0
    6.9612   -7.2085    0.0000 C   0  0  0  0  0  0  0  0  0  0  0  0
  1  2  1  0  0  0  0
  2  3  1  0  0  0  0
  2  4  1  0  0  0  0
  5  6  1  0  0  0  0
  6  7  2  0  0  0  0
  7  8  1  0  0  0  0
  8  9  2  0  0  0  0
  9 10  1  0  0  0  0
  5 10  2  0  0  0  0
  2  5  1  0  0  0  0
 11 12  1  0  0  0  0
 11 13  2  0  0  0  0
 12 14  2  0  0  0  0
 14 15  1  0  0  0  0
 15 16  2  0  0  0  0
 13 16  1  0  0  0  0
 12 17  1  0  0  0  0
  1 11  1  0  0  0  0
M  END
>  <cdx:fragmentId>
554

$$$$
