300276.cdx
  Mrv1902 05222410222D          

 12 12  0  0  0  0            999 V2000
    7.8414   -7.3721    0.0000 C   0  0  0  0  0  0  0  0  0  0  0  0
    7.8414   -6.5471    0.0000 C   0  0  0  0  0  0  0  0  0  0  0  0
    7.1269   -6.1346    0.0000 C   0  0  0  0  0  0  0  0  0  0  0  0
    6.4124   -6.5471    0.0000 C   0  0  0  0  0  0  0  0  0  0  0  0
    6.4124   -7.3721    0.0000 C   0  0  0  0  0  0  0  0  0  0  0  0
    7.1269   -7.7846    0.0000 C   0  0  0  0  0  0  0  0  0  0  0  0
    8.5558   -7.7846    0.0000 O   0  0  0  0  0  0  0  0  0  0  0  0
    5.6979   -6.1346    0.0000 N   0  3  0  0  0  0  0  0  0  0  0  0
    5.6979   -5.3096    0.0000 O   0  0  0  0  0  0  0  0  0  0  0  0
    4.9835   -6.5471    0.0000 O   0  5  0  0  0  0  0  0  0  0  0  0
    8.5558   -6.1346    0.0000 O   0  0  0  0  0  0  0  0  0  0  0  0
    9.2703   -6.5471    0.0000 C   0  0  0  0  0  0  0  0  0  0  0  0
  1  2  1  0  0  0  0
  2  3  2  0  0  0  0
  3  4  1  0  0  0  0
  4  5  2  0  0  0  0
  5  6  1  0  0  0  0
  1  6  2  0  0  0  0
  1  7  1  0  0  0  0
  8  9  2  0  0  0  0
  8 10  1  0  0  0  0
  4  8  1  0  0  0  0
 11 12  1  0  0  0  0
  2 11  1  0  0  0  0
M  CHG  2   8   1  10  -1
M  END
>  <cdx:fragmentId>
2167

$$$$
