300256.cdx
  Mrv1902 05222410252D          

 23 25  0  0  0  0            999 V2000
    5.3628   -6.8065    0.0000 C   0  0  0  0  0  0  0  0  0  0  0  0
    6.0772   -7.2190    0.0000 O   0  0  0  0  0  0  0  0  0  0  0  0
    5.3628   -5.9815    0.0000 O   0  0  0  0  0  0  0  0  0  0  0  0
    4.6483   -7.2190    0.0000 O   0  0  0  0  0  0  0  0  0  0  0  0
    8.2206   -6.8065    0.0000 C   0  0  0  0  0  0  0  0  0  0  0  0
    7.5062   -7.2190    0.0000 C   0  0  0  0  0  0  0  0  0  0  0  0
    6.7917   -6.8065    0.0000 C   0  0  0  0  0  0  0  0  0  0  0  0
    6.7917   -5.9815    0.0000 C   0  0  0  0  0  0  0  0  0  0  0  0
    7.5062   -5.5690    0.0000 C   0  0  0  0  0  0  0  0  0  0  0  0
    8.2206   -5.9815    0.0000 C   0  0  0  0  0  0  0  0  0  0  0  0
    8.9351   -5.5690    0.0000 C   0  0  0  0  0  0  0  0  0  0  0  0
    9.6496   -5.9815    0.0000 C   0  0  0  0  0  0  0  0  0  0  0  0
    9.3741   -6.5346    0.0000 O   0  0  0  0  0  0  0  0  0  0  0  0
    8.8383   -6.8440    0.0000 O   0  0  0  0  0  0  0  0  0  0  0  0
    8.9351   -7.2190    0.0000 C   0  0  0  0  0  0  0  0  0  0  0  0
    9.6496   -6.8065    0.0000 C   0  0  0  0  0  0  0  0  0  0  0  0
    8.2206   -5.1565    0.0000 C   0  0  0  0  0  0  0  0  0  0  0  0
    7.9187   -7.9335    0.0000 C   0  0  0  0  0  0  0  0  0  0  0  0
    7.0937   -7.9335    0.0000 C   0  0  0  0  0  0  0  0  0  0  0  0
    3.9338   -6.8065    0.0000 C   0  0  0  0  0  0  0  0  0  0  0  0
    3.2194   -7.2190    0.0000 C   0  0  0  0  0  0  0  0  0  0  0  0
    2.5049   -6.8065    0.0000 C   0  0  0  0  0  0  0  0  0  0  0  0
    1.7904   -7.2190    0.0000 C   0  0  0  0  0  0  0  0  0  0  0  0
  1  2  1  0  0  0  0
  1  3  2  0  0  0  0
  1  4  1  0  0  0  0
  5  6  1  0  0  0  0
  6  7  1  0  0  0  0
  7  8  1  0  0  0  0
  8  9  1  0  0  0  0
  9 10  1  0  0  0  0
 10 11  1  0  0  0  0
 11 12  1  0  0  0  0
 12 13  1  0  0  0  0
 13 14  1  0  0  0  0
 15 16  1  0  0  0  0
  5 14  1  0  0  0  0
  5 15  1  0  0  0  0
 12 16  1  0  0  0  0
  5 10  1  0  0  0  0
 10 17  1  0  0  0  0
  6 18  1  0  0  0  0
  6 19  1  0  0  0  0
  2  7  1  0  0  0  0
 20 21  1  0  0  0  0
 21 22  1  0  0  0  0
 22 23  1  0  0  0  0
  4 20  1  0  0  0  0
M  END
>  <cdx:fragmentId>
1313

$$$$
