300283.cdx
  Mrv1902 05222410252D          

 11 10  0  0  0  0            999 V2000
    6.3290   -6.3920    0.0000 C   0  0  0  0  0  0  0  0  0  0  0  0
    5.6145   -6.8045    0.0000 C   0  0  0  0  0  0  0  0  0  0  0  0
    4.9000   -6.3920    0.0000 C   0  0  0  0  0  0  0  0  0  0  0  0
    4.1856   -6.8045    0.0000 C   0  0  0  0  0  0  0  0  0  0  0  0
    6.3290   -5.5670    0.0000 O   0  0  0  0  0  0  0  0  0  0  0  0
    7.0434   -6.8045    0.0000 O   0  0  0  0  0  0  0  0  0  0  0  0
    7.7579   -6.3920    0.0000 C   0  0  0  0  0  0  0  0  0  0  0  0
    8.4724   -6.8045    0.0000 C   0  0  0  0  0  0  0  0  0  0  0  0
    9.1869   -6.3920    0.0000 C   0  0  0  0  0  0  0  0  0  0  0  0
    9.9013   -6.8045    0.0000 C   0  0  0  0  0  0  0  0  0  0  0  0
    8.4724   -7.6295    0.0000 C   0  0  0  0  0  0  0  0  0  0  0  0
  1  2  1  0  0  0  0
  2  3  1  0  0  0  0
  3  4  1  0  0  0  0
  1  5  2  0  0  0  0
  1  6  1  0  0  0  0
  7  8  1  0  0  0  0
  8  9  1  0  0  0  0
  9 10  1  0  0  0  0
  8 11  1  0  0  0  0
  6  7  1  0  0  0  0
M  END
>  <cdx:fragmentId>
2563

$$$$
