300250.cdx
  Mrv1902 05222410232D          

 12 12  0  0  0  0            999 V2000
    8.4657   -5.3495    0.0000 N   0  0  0  0  0  0  0  0  0  0  0  0
    8.4657   -6.1745    0.0000 C   0  0  0  0  0  0  0  0  0  0  0  0
    9.1801   -6.5870    0.0000 N   0  0  0  0  0  0  0  0  0  0  0  0
    7.7512   -6.5870    0.0000 N   0  0  0  0  0  0  0  0  0  0  0  0
    7.0367   -6.1745    0.0000 N   0  0  0  0  0  0  0  0  0  0  0  0
    6.3223   -6.5870    0.0000 C   0  0  0  0  0  0  0  0  0  0  0  0
    5.6078   -6.1745    0.0000 C   0  0  0  0  0  0  0  0  0  0  0  0
    4.8933   -6.5870    0.0000 C   0  0  0  0  0  0  0  0  0  0  0  0
    4.1788   -6.1745    0.0000 C   0  0  0  0  0  0  0  0  0  0  0  0
    4.1788   -5.3495    0.0000 C   0  0  0  0  0  0  0  0  0  0  0  0
    4.8933   -4.9370    0.0000 C   0  0  0  0  0  0  0  0  0  0  0  0
    5.6078   -5.3495    0.0000 C   0  0  0  0  0  0  0  0  0  0  0  0
  1  2  1  0  0  0  0
  2  3  1  0  0  0  0
  2  4  2  0  0  0  0
  6  7  1  0  0  0  0
  7  8  1  0  0  0  0
  8  9  2  0  0  0  0
  9 10  1  0  0  0  0
 10 11  2  0  0  0  0
 11 12  1  0  0  0  0
  7 12  2  0  0  0  0
  5  6  2  0  0  0  0
  4  5  1  0  0  0  0
M  END
>  <cdx:fragmentId>
1000

$$$$
