300247.cdx
  Mrv1902 05222410242D          

 26 28  0  0  0  0            999 V2000
    5.7507   -6.1798    0.0000 C   0  0  0  0  0  0  0  0  0  0  0  0
    5.7507   -7.0048    0.0000 C   0  0  0  0  0  0  0  0  0  0  0  0
    5.0362   -7.4173    0.0000 C   0  0  0  0  0  0  0  0  0  0  0  0
    4.3217   -7.0048    0.0000 C   0  0  0  0  0  0  0  0  0  0  0  0
    3.6073   -7.4173    0.0000 C   0  0  0  0  0  0  0  0  0  0  0  0
    2.8928   -7.0048    0.0000 C   0  0  0  0  0  0  0  0  0  0  0  0
    2.8928   -6.1798    0.0000 C   0  0  0  0  0  0  0  0  0  0  0  0
    3.6073   -5.7673    0.0000 C   0  0  0  0  0  0  0  0  0  0  0  0
    4.3217   -6.1798    0.0000 C   0  0  0  0  0  0  0  0  0  0  0  0
    5.0362   -5.7673    0.0000 O   0  0  0  0  0  0  0  0  0  0  0  0
    5.0362   -8.2423    0.0000 O   0  0  0  0  0  0  0  0  0  0  0  0
    2.1783   -5.7673    0.0000 O   0  0  0  0  0  0  0  0  0  0  0  0
    1.4638   -6.1798    0.0000 C   0  0  0  0  0  0  0  0  0  0  0  0
    3.6073   -8.2423    0.0000 O   0  0  0  0  0  0  0  0  0  0  0  0
    2.8928   -8.6548    0.0000 C   0  0  0  0  0  0  0  0  0  0  0  0
    6.4651   -7.4173    0.0000 O   0  0  0  0  0  0  0  0  0  0  0  0
    6.4651   -5.7673    0.0000 C   0  0  0  0  0  0  0  0  0  0  0  0
    7.1796   -6.1798    0.0000 C   0  0  0  0  0  0  0  0  0  0  0  0
    7.8941   -5.7673    0.0000 C   0  0  0  0  0  0  0  0  0  0  0  0
    7.8941   -4.9423    0.0000 C   0  0  0  0  0  0  0  0  0  0  0  0
    7.1796   -4.5298    0.0000 C   0  0  0  0  0  0  0  0  0  0  0  0
    6.4651   -4.9423    0.0000 C   0  0  0  0  0  0  0  0  0  0  0  0
    8.6086   -4.5298    0.0000 O   0  0  0  0  0  0  0  0  0  0  0  0
    9.3230   -4.9423    0.0000 C   0  0  0  0  0  0  0  0  0  0  0  0
    8.6086   -6.1798    0.0000 O   0  0  0  0  0  0  0  0  0  0  0  0
    9.3230   -5.7673    0.0000 C   0  0  0  0  0  0  0  0  0  0  0  0
  1  2  1  0  0  0  0
  2  3  1  0  0  0  0
  3  4  1  0  0  0  0
  4  5  1  0  0  0  0
  5  6  2  0  0  0  0
  6  7  1  0  0  0  0
  7  8  2  0  0  0  0
  8  9  1  0  0  0  0
  4  9  2  0  0  0  0
  9 10  1  0  0  0  0
  1 10  1  0  0  0  0
  3 11  2  0  0  0  0
 12 13  1  0  0  0  0
  7 12  1  0  0  0  0
 14 15  1  0  0  0  0
  5 14  1  0  0  0  0
  2 16  1  0  0  0  0
 17 18  1  0  0  0  0
 18 19  2  0  0  0  0
 19 20  1  0  0  0  0
 20 21  2  0  0  0  0
 21 22  1  0  0  0  0
 17 22  2  0  0  0  0
 23 24  1  0  0  0  0
 20 23  1  0  0  0  0
 25 26  1  0  0  0  0
 19 25  1  0  0  0  0
  1 17  1  0  0  0  0
M  END
>  <cdx:fragmentId>
750

$$$$
