300282.cdx
  Mrv1902 05222410252D          

 10 11  0  0  0  0            999 V2000
    7.9061   -5.4764    0.0000 C   0  0  0  0  0  0  0  0  0  0  0  0
    8.3911   -6.1439    0.0000 C   0  0  0  0  0  0  0  0  0  0  0  0
    7.9061   -6.8113    0.0000 C   0  0  0  0  0  0  0  0  0  0  0  0
    7.1215   -6.5564    0.0000 C   0  0  0  0  0  0  0  0  0  0  0  0
    6.4070   -6.9689    0.0000 C   0  0  0  0  0  0  0  0  0  0  0  0
    5.6926   -6.5564    0.0000 C   0  0  0  0  0  0  0  0  0  0  0  0
    5.6926   -5.7314    0.0000 C   0  0  0  0  0  0  0  0  0  0  0  0
    6.4070   -5.3189    0.0000 C   0  0  0  0  0  0  0  0  0  0  0  0
    7.1215   -5.7314    0.0000 C   0  0  0  0  0  0  0  0  0  0  0  0
    6.4070   -7.7939    0.0000 C   0  0  0  0  0  0  0  0  0  0  0  0
  1  2  1  0  0  0  0
  2  3  1  0  0  0  0
  3  4  1  0  0  0  0
  4  5  1  0  0  0  0
  5  6  1  0  0  0  0
  6  7  1  0  0  0  0
  7  8  1  0  0  0  0
  8  9  1  0  0  0  0
  1  9  1  0  0  0  0
  4  9  2  0  0  0  0
  5 10  1  0  0  0  0
M  END
>  <cdx:fragmentId>
2532

$$$$
