300269.cdx
  Mrv1902 05222410252D          

 13 13  0  0  0  0            999 V2000
    5.0757   -6.5903    0.0000 C   0  0  0  0  0  0  0  0  0  0  0  0
    5.7901   -6.1778    0.0000 C   0  0  0  0  0  0  0  0  0  0  0  0
    6.5046   -6.5903    0.0000 C   0  0  0  0  0  0  0  0  0  0  0  0
    6.5046   -7.4153    0.0000 C   0  0  0  0  0  0  0  0  0  0  0  0
    5.7901   -7.8278    0.0000 C   0  0  0  0  0  0  0  0  0  0  0  0
    5.0757   -7.4153    0.0000 C   0  0  0  0  0  0  0  0  0  0  0  0
    4.3612   -6.1778    0.0000 O   0  0  0  0  0  0  0  0  0  0  0  0
    7.2191   -6.1778    0.0000 C   0  0  0  0  0  0  0  0  0  0  0  0
    7.9336   -6.5903    0.0000 C   0  0  0  0  0  0  0  0  0  0  0  0
    8.6480   -6.1778    0.0000 N   0  0  0  0  0  0  0  0  0  0  0  0
    9.3625   -6.5903    0.0000 C   0  0  0  0  0  0  0  0  0  0  0  0
    7.2191   -5.3528    0.0000 O   0  0  0  0  0  0  0  0  0  0  0  0
    5.7901   -5.3528    0.0000 F   0  0  0  0  0  0  0  0  0  0  0  0
  1  2  1  0  0  0  0
  2  3  2  0  0  0  0
  3  4  1  0  0  0  0
  4  5  2  0  0  0  0
  5  6  1  0  0  0  0
  1  6  2  0  0  0  0
  1  7  1  0  0  0  0
  8  9  1  0  0  0  0
 10 11  1  0  0  0  0
  9 10  1  0  0  0  0
  8 12  1  0  0  0  0
  3  8  1  0  0  0  0
  2 13  1  0  0  0  0
M  END
>  <cdx:fragmentId>
1910

$$$$
