300298.cdx
  Mrv1902 05222410212D          

 16 18  0  0  0  0            999 V2000
    6.6862   -6.3422    0.0000 N   0  0  0  0  0  0  0  0  0  0  0  0
    7.4007   -6.7547    0.0000 C   0  0  0  0  0  0  0  0  0  0  0  0
    7.4007   -7.5797    0.0000 C   0  0  0  0  0  0  0  0  0  0  0  0
    6.6862   -7.9922    0.0000 C   0  0  0  0  0  0  0  0  0  0  0  0
    5.9717   -7.5797    0.0000 C   0  0  0  0  0  0  0  0  0  0  0  0
    5.2573   -7.9922    0.0000 C   0  0  0  0  0  0  0  0  0  0  0  0
    4.5428   -7.5797    0.0000 C   0  0  0  0  0  0  0  0  0  0  0  0
    4.5428   -6.7547    0.0000 C   0  0  0  0  0  0  0  0  0  0  0  0
    5.2573   -6.3422    0.0000 N   0  0  0  0  0  0  0  0  0  0  0  0
    5.9717   -6.7547    0.0000 C   0  0  0  0  0  0  0  0  0  0  0  0
    8.1151   -6.3422    0.0000 C   0  0  0  0  0  0  0  0  0  0  0  0
    8.1151   -5.5172    0.0000 C   0  0  0  0  0  0  0  0  0  0  0  0
    8.8296   -5.1047    0.0000 C   0  0  0  0  0  0  0  0  0  0  0  0
    9.5441   -5.5172    0.0000 C   0  0  0  0  0  0  0  0  0  0  0  0
    9.5441   -6.3422    0.0000 C   0  0  0  0  0  0  0  0  0  0  0  0
    8.8296   -6.7547    0.0000 C   0  0  0  0  0  0  0  0  0  0  0  0
  1  2  2  0  0  0  0
  2  3  1  0  0  0  0
  3  4  2  0  0  0  0
  4  5  1  0  0  0  0
  5  6  2  0  0  0  0
  6  7  1  0  0  0  0
  7  8  2  0  0  0  0
  8  9  1  0  0  0  0
  9 10  2  0  0  0  0
  1 10  1  0  0  0  0
  5 10  1  0  0  0  0
 11 12  1  0  0  0  0
 12 13  2  0  0  0  0
 13 14  1  0  0  0  0
 14 15  2  0  0  0  0
 15 16  1  0  0  0  0
 11 16  2  0  0  0  0
  2 11  1  0  0  0  0
M  END
>  <cdx:fragmentId>
3275

$$$$
