300265.cdx
  Mrv1902 05222410202D          

 22 22  0  0  0  0            999 V2000
    2.7283   -7.6974    0.0000 C   0  0  0  0  0  0  0  0  0  0  0  0
    3.4403   -8.1143    0.0000 C   0  0  0  0  0  0  0  0  0  0  0  0
    3.4353   -8.9392    0.0000 C   0  0  0  0  0  0  0  0  0  0  0  0
    2.7184   -9.3474    0.0000 C   0  0  0  0  0  0  0  0  0  0  0  0
    2.0064   -8.9306    0.0000 C   0  0  0  0  0  0  0  0  0  0  0  0
    2.0114   -8.1056    0.0000 C   0  0  0  0  0  0  0  0  0  0  0  0
    2.7333   -6.8725    0.0000 S   0  0  0  0  0  0  0  0  0  0  0  0
    1.9083   -6.8675    0.0000 O   0  0  0  0  0  0  0  0  0  0  0  0
    3.5583   -6.8774    0.0000 O   0  0  0  0  0  0  0  0  0  0  0  0
    2.7383   -6.0475    0.0000 O   0  0  0  0  0  0  0  0  0  0  0  0
   12.0138   -8.1661    0.0000 C   0  0  0  0  0  0  0  0  0  0  0  0
   11.3018   -7.7493    0.0000 C   0  0  0  0  0  0  0  0  0  0  0  0
   10.5849   -8.1574    0.0000 C   0  0  0  0  0  0  0  0  0  0  0  0
    9.8729   -7.7406    0.0000 C   0  0  0  0  0  0  0  0  0  0  0  0
    9.1560   -8.1488    0.0000 C   0  0  0  0  0  0  0  0  0  0  0  0
    8.4440   -7.7320    0.0000 C   0  0  0  0  0  0  0  0  0  0  0  0
    7.7270   -8.1402    0.0000 C   0  0  0  0  0  0  0  0  0  0  0  0
    7.0151   -7.7233    0.0000 C   0  0  0  0  0  0  0  0  0  0  0  0
    6.2981   -8.1315    0.0000 C   0  0  0  0  0  0  0  0  0  0  0  0
    5.5862   -7.7147    0.0000 C   0  0  0  0  0  0  0  0  0  0  0  0
    4.8692   -8.1229    0.0000 C   0  0  0  0  0  0  0  0  0  0  0  0
    4.1572   -7.7061    0.0000 C   0  0  0  0  0  0  0  0  0  0  0  0
  2 22  1  0  0  0  0
 12 11  1  0  0  0  0
 13 12  1  0  0  0  0
 14 13  1  0  0  0  0
 15 14  1  0  0  0  0
 16 15  1  0  0  0  0
 17 16  1  0  0  0  0
 18 17  1  0  0  0  0
 19 18  1  0  0  0  0
 20 19  1  0  0  0  0
 21 20  1  0  0  0  0
 22 21  1  0  0  0  0
  1  2  1  0  0  0  0
  2  3  2  0  0  0  0
  3  4  1  0  0  0  0
  4  5  2  0  0  0  0
  5  6  1  0  0  0  0
  1  6  2  0  0  0  0
  7  8  2  0  0  0  0
  7  9  2  0  0  0  0
  7 10  1  0  0  0  0
  1  7  1  0  0  0  0
M  END
>  <cdx:fragmentId>
1731

$$$$
