300214.cdx
  Mrv1902 05222410192D          

 21 20  0  0  0  0            999 V2000
   12.8720   -8.7333    0.0000 C   0  0  0  0  0  0  0  0  0  0  0  0
   12.1576   -9.1458    0.0000 C   0  0  0  0  0  0  0  0  0  0  0  0
   11.4431   -8.7333    0.0000 C   0  0  0  0  0  0  0  0  0  0  0  0
   10.7286   -9.1458    0.0000 C   0  0  0  0  0  0  0  0  0  0  0  0
   10.0142   -8.7333    0.0000 C   0  0  0  0  0  0  0  0  0  0  0  0
    9.2997   -9.1458    0.0000 C   0  0  0  0  0  0  0  0  0  0  0  0
    8.5852   -8.7333    0.0000 C   0  0  0  0  0  0  0  0  0  0  0  0
    7.8707   -9.1458    0.0000 C   0  0  0  0  0  0  0  0  0  0  0  0
    7.1563   -8.7333    0.0000 C   0  0  0  0  0  0  0  0  0  0  0  0
    6.4418   -9.1458    0.0000 C   0  0  0  0  0  0  0  0  0  0  0  0
    5.7273   -8.7333    0.0000 C   0  0  0  0  0  0  0  0  0  0  0  0
    5.0129   -9.1458    0.0000 C   0  0  0  0  0  0  0  0  0  0  0  0
    4.2984   -8.7333    0.0000 C   0  0  0  0  0  0  0  0  0  0  0  0
    3.5839   -9.1458    0.0000 C   0  0  0  0  0  0  0  0  0  0  0  0
    2.8694   -8.7333    0.0000 C   0  0  0  0  0  0  0  0  0  0  0  0
    2.1550   -9.1458    0.0000 C   0  0  0  0  0  0  0  0  0  0  0  0
    1.4405   -8.7333    0.0000 C   0  0  0  0  0  0  0  0  0  0  0  0
    0.7260   -9.1458    0.0000 C   0  0  0  0  0  0  0  0  0  0  0  0
   12.8720   -7.9083    0.0000 O   0  0  0  0  0  0  0  0  0  0  0  0
   13.5865   -9.1458    0.0000 O   0  0  0  0  0  0  0  0  0  0  0  0
    4.2984   -7.9083    0.0000 O   0  0  0  0  0  0  0  0  0  0  0  0
  1  2  1  0  0  0  0
  2  3  1  0  0  0  0
  3  4  1  0  0  0  0
  4  5  1  0  0  0  0
  5  6  1  0  0  0  0
  6  7  1  0  0  0  0
  7  8  1  0  0  0  0
  8  9  1  0  0  0  0
  9 10  2  0  0  0  0
 10 11  1  0  0  0  0
 11 12  2  0  0  0  0
 12 13  1  0  0  0  0
 13 14  1  0  0  0  0
 14 15  1  0  0  0  0
 15 16  1  0  0  0  0
 16 17  1  0  0  0  0
 17 18  1  0  0  0  0
  1 19  2  0  0  0  0
  1 20  1  0  0  0  0
 13 21  2  0  0  0  0
M  END
>  <cdx:fragmentId>
2293

$$$$
