300290.cdx
  Mrv1902 05222410242D          

 14 13  0  0  0  0            999 V2000
    2.7566   -5.9376    0.0000 C   0  0  0  0  0  0  0  0  0  0  0  0
   11.3303   -5.9376    0.0000 C   0  0  0  0  0  0  0  0  0  0  0  0
   10.6158   -6.3501    0.0000 C   0  0  0  0  0  0  0  0  0  0  0  0
    9.9013   -5.9376    0.0000 C   0  0  0  0  0  0  0  0  0  0  0  0
    9.1869   -6.3501    0.0000 C   0  0  0  0  0  0  0  0  0  0  0  0
    8.4724   -5.9376    0.0000 C   0  0  0  0  0  0  0  0  0  0  0  0
    7.7579   -6.3501    0.0000 C   0  0  0  0  0  0  0  0  0  0  0  0
    7.0434   -5.9376    0.0000 C   0  0  0  0  0  0  0  0  0  0  0  0
    6.3290   -6.3501    0.0000 C   0  0  0  0  0  0  0  0  0  0  0  0
    5.6145   -5.9376    0.0000 C   0  0  0  0  0  0  0  0  0  0  0  0
    4.9000   -6.3501    0.0000 C   0  0  0  0  0  0  0  0  0  0  0  0
    4.1856   -5.9376    0.0000 C   0  0  0  0  0  0  0  0  0  0  0  0
    3.4711   -6.3501    0.0000 C   0  0  0  0  0  0  0  0  0  0  0  0
    3.4711   -7.1751    0.0000 C   0  0  0  0  0  0  0  0  0  0  0  0
 13  1  1  0  0  0  0
  3  2  1  0  0  0  0
  4  3  1  0  0  0  0
  5  4  1  0  0  0  0
  6  5  1  0  0  0  0
  7  6  1  0  0  0  0
  8  7  1  0  0  0  0
  9  8  1  0  0  0  0
 10  9  1  0  0  0  0
 11 10  1  0  0  0  0
 12 11  1  0  0  0  0
 13 12  1  0  0  0  0
 14 13  1  0  0  0  0
M  END
>  <cdx:fragmentId>
2903

$$$$
