300248.cdx
  Mrv1902 05222410222D          

 29 31  0  0  0  0            999 V2000
    5.7507   -6.7547    0.0000 C   0  0  0  0  0  0  0  0  0  0  0  0
    5.7507   -7.5797    0.0000 C   0  0  0  0  0  0  0  0  0  0  0  0
    5.0362   -7.9922    0.0000 C   0  0  0  0  0  0  0  0  0  0  0  0
    4.3217   -7.5797    0.0000 C   0  0  0  0  0  0  0  0  0  0  0  0
    3.6073   -7.9922    0.0000 C   0  0  0  0  0  0  0  0  0  0  0  0
    2.8928   -7.5797    0.0000 C   0  0  0  0  0  0  0  0  0  0  0  0
    2.8928   -6.7547    0.0000 C   0  0  0  0  0  0  0  0  0  0  0  0
    3.6073   -6.3422    0.0000 C   0  0  0  0  0  0  0  0  0  0  0  0
    4.3217   -6.7547    0.0000 C   0  0  0  0  0  0  0  0  0  0  0  0
    5.0362   -6.3422    0.0000 O   0  0  0  0  0  0  0  0  0  0  0  0
    5.0362   -8.8172    0.0000 O   0  0  0  0  0  0  0  0  0  0  0  0
    3.6073   -5.5172    0.0000 O   0  0  0  0  0  0  0  0  0  0  0  0
    2.8928   -5.1047    0.0000 C   0  0  0  0  0  0  0  0  0  0  0  0
    2.1783   -6.3422    0.0000 O   0  0  0  0  0  0  0  0  0  0  0  0
    1.4638   -6.7547    0.0000 C   0  0  0  0  0  0  0  0  0  0  0  0
    2.1783   -7.9922    0.0000 O   0  0  0  0  0  0  0  0  0  0  0  0
    1.4638   -7.5797    0.0000 C   0  0  0  0  0  0  0  0  0  0  0  0
    3.6073   -8.8172    0.0000 O   0  0  0  0  0  0  0  0  0  0  0  0
    2.8928   -9.2297    0.0000 C   0  0  0  0  0  0  0  0  0  0  0  0
    6.4651   -6.3422    0.0000 C   0  0  0  0  0  0  0  0  0  0  0  0
    7.1796   -6.7547    0.0000 C   0  0  0  0  0  0  0  0  0  0  0  0
    7.8941   -6.3422    0.0000 C   0  0  0  0  0  0  0  0  0  0  0  0
    7.8941   -5.5172    0.0000 C   0  0  0  0  0  0  0  0  0  0  0  0
    7.1796   -5.1047    0.0000 C   0  0  0  0  0  0  0  0  0  0  0  0
    6.4651   -5.5172    0.0000 C   0  0  0  0  0  0  0  0  0  0  0  0
    7.1796   -4.2797    0.0000 O   0  0  0  0  0  0  0  0  0  0  0  0
    7.8941   -3.8672    0.0000 C   0  0  0  0  0  0  0  0  0  0  0  0
    8.6086   -6.7547    0.0000 O   0  0  0  0  0  0  0  0  0  0  0  0
    9.3230   -6.3422    0.0000 C   0  0  0  0  0  0  0  0  0  0  0  0
  1  2  2  0  0  0  0
  2  3  1  0  0  0  0
  3  4  1  0  0  0  0
  4  5  1  0  0  0  0
  5  6  2  0  0  0  0
  6  7  1  0  0  0  0
  7  8  2  0  0  0  0
  8  9  1  0  0  0  0
  4  9  2  0  0  0  0
  9 10  1  0  0  0  0
  1 10  1  0  0  0  0
  3 11  2  0  0  0  0
 12 13  1  0  0  0  0
  8 12  1  0  0  0  0
 14 15  1  0  0  0  0
  7 14  1  0  0  0  0
 16 17  1  0  0  0  0
  6 16  1  0  0  0  0
 18 19  1  0  0  0  0
  5 18  1  0  0  0  0
 20 21  1  0  0  0  0
 21 22  2  0  0  0  0
 22 23  1  0  0  0  0
 23 24  2  0  0  0  0
 24 25  1  0  0  0  0
 20 25  2  0  0  0  0
 26 27  1  0  0  0  0
 24 26  1  0  0  0  0
 28 29  1  0  0  0  0
 22 28  1  0  0  0  0
  1 20  1  0  0  0  0
M  END
>  <cdx:fragmentId>
836

$$$$
