300274.cdx
  Mrv1902 05222410232D          

 11 10  0  0  0  0            999 V2000
    8.4353   -6.9883    0.0000 C   0  0  0  0  0  0  0  0  0  0  0  0
    7.7209   -6.5758    0.0000 C   0  0  0  0  0  0  0  0  0  0  0  0
    7.0064   -6.9883    0.0000 C   0  0  0  0  0  0  0  0  0  0  0  0
    6.2919   -6.5758    0.0000 C   0  0  0  0  0  0  0  0  0  0  0  0
    5.5775   -6.9883    0.0000 C   0  0  0  0  0  0  0  0  0  0  0  0
    5.5775   -7.8133    0.0000 C   0  0  0  0  0  0  0  0  0  0  0  0
    9.1498   -6.5758    0.0000 O   0  0  0  0  0  0  0  0  0  0  0  0
    8.4353   -5.3383    0.0000 C   0  0  0  0  0  0  0  0  0  0  0  0
    7.7209   -5.7508    0.0000 C   0  0  0  0  0  0  0  0  0  0  0  0
    7.0064   -5.3383    0.0000 C   0  0  0  0  0  0  0  0  0  0  0  0
    4.8630   -6.5758    0.0000 C   0  0  0  0  0  0  0  0  0  0  0  0
  1  2  1  0  0  0  0
  2  3  1  0  0  0  0
  3  4  1  0  0  0  0
  4  5  2  0  0  0  0
  5  6  1  0  0  0  0
  1  7  2  0  0  0  0
  8  9  2  0  0  0  0
  9 10  1  0  0  0  0
  2  9  1  0  0  0  0
  5 11  1  0  0  0  0
M  END
>  <cdx:fragmentId>
2101

$$$$
