300212.cdx
  Mrv1902 05222410182D          

 31 33  0  0  0  0            999 V2000
    2.9372   -6.7393    0.0000 C   0  0  0  0  0  0  0  0  0  0  0  0
    3.4282   -7.9527    0.0000 C   0  0  0  0  0  0  0  0  0  0  0  0
    3.6482   -7.1576    0.0000 C   0  0  0  0  0  0  0  0  0  0  0  0
    3.6618   -5.5077    0.0000 O   0  0  0  0  0  0  0  0  0  0  0  0
    4.3661   -6.7510    0.0000 C   0  0  0  0  0  0  0  0  0  0  0  0
    4.3729   -5.9260    0.0000 C   0  0  0  0  0  0  0  0  0  0  0  0
    4.3932   -3.4511    0.0000 C   0  0  0  0  0  0  0  0  0  0  0  0
    5.1178   -2.2195    0.0000 C   0  0  0  0  0  0  0  0  0  0  0  0
    5.1111   -3.0445    0.0000 C   0  0  0  0  0  0  0  0  0  0  0  0
    5.8221   -3.4629    0.0000 C   0  0  0  0  0  0  0  0  0  0  0  0
    5.0975   -4.6944    0.0000 O   0  0  0  0  0  0  0  0  0  0  0  0
    4.9999   -6.5427    0.0000 C   0  0  0  0  0  0  0  0  0  0  0  0
    5.2068   -7.3413    0.0000 C   0  0  0  0  0  0  0  0  0  0  0  0
    5.8153   -4.2878    0.0000 C   0  0  0  0  0  0  0  0  0  0  0  0
    6.5264   -4.7062    0.0000 O   0  0  0  0  0  0  0  0  0  0  0  0
    5.0907   -5.5194    0.0000 O   0  0  0  0  0  0  0  0  0  0  0  0
    5.8018   -5.9378    0.0000 C   0  0  1  0  0  0  0  0  0  0  0  0
    5.7950   -6.7628    0.0000 C   0  0  0  0  0  0  0  0  0  0  0  0
    6.5196   -5.5312    0.0000 C   0  0  1  0  0  0  0  0  0  0  0  0
    6.5060   -7.1811    0.0000 O   0  0  0  0  0  0  0  0  0  0  0  0
    8.6799   -3.4864    0.0000 O   0  0  0  0  0  0  0  0  0  0  0  0
    9.3774   -5.5547    0.0000 C   0  0  0  0  0  0  0  0  0  0  0  0
    9.3842   -4.7297    0.0000 C   0  0  0  0  0  0  0  0  0  0  0  0
    8.6731   -4.3113    0.0000 C   0  0  0  0  0  0  0  0  0  0  0  0
    7.9553   -4.7179    0.0000 O   0  0  0  0  0  0  0  0  0  0  0  0
    8.6528   -6.7862    0.0000 C   0  0  0  0  0  0  0  0  0  0  0  0
    8.6595   -5.9613    0.0000 C   0  0  0  0  0  0  0  0  0  0  0  0
    7.9485   -5.5429    0.0000 C   0  0  0  0  0  0  0  0  0  0  0  0
    7.2307   -5.9495    0.0000 C   0  0  0  0  0  0  0  0  0  0  0  0
    7.2239   -6.7745    0.0000 C   0  0  0  0  0  0  0  0  0  0  0  0
    7.9349   -7.1929    0.0000 C   0  0  0  0  0  0  0  0  0  0  0  0
  3  5  2  0  0  0  0
  3  1  1  0  0  0  0
  3  2  1  0  0  0  0
  6  4  2  0  0  0  0
  6  5  1  0  0  0  0
 16  6  1  0  0  0  0
  9  7  1  0  0  0  0
  9  8  1  0  0  0  0
 10  9  2  0  0  0  0
 14 10  1  0  0  0  0
 14 11  2  0  0  0  0
 18 12  1  0  0  0  0
 18 13  1  0  0  0  0
 15 14  1  0  0  0  0
 19 15  1  6  0  0  0
 17 16  1  6  0  0  0
 17 19  1  0  0  0  0
 18 17  1  0  0  0  0
 20 18  1  0  0  0  0
 29 19  1  0  0  0  0
 30 20  1  0  0  0  0
 24 21  2  0  0  0  0
 22 27  1  0  0  0  0
 23 22  2  0  0  0  0
 24 23  1  0  0  0  0
 25 24  1  0  0  0  0
 28 25  1  0  0  0  0
 26 31  1  0  0  0  0
 27 26  2  0  0  0  0
 28 27  1  0  0  0  0
 29 28  2  0  0  0  0
 30 29  1  0  0  0  0
 31 30  2  0  0  0  0
M  END
>  <cdx:fragmentId>
71

$$$$
