300391.cdx
  Mrv1902 05222410262D          

 45 50  0  0  0  0            999 V2000
    5.3971   -4.9503    0.0000 C   0  0  0  0  0  0  0  0  0  0  0  0
    6.1116   -4.5378    0.0000 C   0  0  0  0  0  0  0  0  0  0  0  0
    6.8261   -4.9503    0.0000 C   0  0  0  0  0  0  0  0  0  0  0  0
    6.8261   -5.7753    0.0000 C   0  0  0  0  0  0  0  0  0  0  0  0
    6.1116   -6.1878    0.0000 C   0  0  0  0  0  0  0  0  0  0  0  0
    6.1116   -7.0128    0.0000 C   0  0  0  0  0  0  0  0  0  0  0  0
    5.3971   -7.4253    0.0000 C   0  0  0  0  0  0  0  0  0  0  0  0
    4.6827   -7.0128    0.0000 C   0  0  0  0  0  0  0  0  0  0  0  0
    3.9682   -7.4253    0.0000 C   0  0  0  0  0  0  0  0  0  0  0  0
    3.9682   -8.2503    0.0000 C   0  0  0  0  0  0  0  0  0  0  0  0
    3.2537   -8.6628    0.0000 C   0  0  0  0  0  0  0  0  0  0  0  0
    2.5393   -8.2503    0.0000 C   0  0  0  0  0  0  0  0  0  0  0  0
    1.8248   -8.6628    0.0000 C   0  0  0  0  0  0  0  0  0  0  0  0
    1.1103   -8.2503    0.0000 C   0  0  0  0  0  0  0  0  0  0  0  0
    1.1103   -7.4253    0.0000 C   0  0  0  0  0  0  0  0  0  0  0  0
    1.8248   -7.0128    0.0000 C   0  0  0  0  0  0  0  0  0  0  0  0
    2.5393   -7.4253    0.0000 C   0  0  0  0  0  0  0  0  0  0  0  0
    3.2537   -7.0128    0.0000 C   0  0  0  0  0  0  0  0  0  0  0  0
    3.2537   -6.1878    0.0000 C   0  0  0  0  0  0  0  0  0  0  0  0
    3.9682   -5.7753    0.0000 C   0  0  0  0  0  0  0  0  0  0  0  0
    4.6827   -6.1878    0.0000 C   0  0  0  0  0  0  0  0  0  0  0  0
    5.3971   -5.7753    0.0000 C   0  0  0  0  0  0  0  0  0  0  0  0
    6.8261   -6.6003    0.0000 C   0  0  0  0  0  0  0  0  0  0  0  0
    6.8261   -7.4253    0.0000 O   0  0  0  0  0  0  0  0  0  0  0  0
    7.5406   -6.1878    0.0000 O   0  0  0  0  0  0  0  0  0  0  0  0
    2.5393   -6.6003    0.0000 C   0  0  0  0  0  0  0  0  0  0  0  0
    2.2373   -9.3772    0.0000 C   0  0  0  0  0  0  0  0  0  0  0  0
    1.4123   -9.3772    0.0000 C   0  0  0  0  0  0  0  0  0  0  0  0
    3.9682   -6.6003    0.0000 C   0  0  0  0  0  0  0  0  0  0  0  0
    4.6827   -7.8378    0.0000 C   0  0  0  0  0  0  0  0  0  0  0  0
    6.1116   -3.7128    0.0000 C   0  0  0  0  0  0  0  0  0  0  0  0
    4.9846   -4.2358    0.0000 C   0  0  0  0  0  0  0  0  0  0  0  0
    0.3958   -8.6628    0.0000 O   0  0  0  0  0  0  0  0  0  0  0  0
    4.5721   -4.9503    0.0000 O   0  0  0  0  0  0  0  0  0  0  0  0
    8.9695   -6.1878    0.0000 O   0  0  0  0  0  0  0  0  0  0  0  0
    8.2550   -6.6003    0.0000 C   0  0  0  0  0  0  0  0  0  0  0  0
    8.2550   -7.4253    0.0000 C   0  0  0  0  0  0  0  0  0  0  0  0
    8.9695   -7.8378    0.0000 C   0  0  0  0  0  0  0  0  0  0  0  0
    9.6840   -7.4253    0.0000 C   0  0  0  0  0  0  0  0  0  0  0  0
    9.6840   -6.6003    0.0000 C   0  0  0  0  0  0  0  0  0  0  0  0
   10.3984   -6.1878    0.0000 C   0  0  0  0  0  0  0  0  0  0  0  0
   11.1129   -6.6003    0.0000 O   0  0  0  0  0  0  0  0  0  0  0  0
   10.3984   -7.8378    0.0000 O   0  0  0  0  0  0  0  0  0  0  0  0
    8.9695   -8.6628    0.0000 O   0  0  0  0  0  0  0  0  0  0  0  0
    7.5406   -7.8378    0.0000 O   0  0  0  0  0  0  0  0  0  0  0  0
  1  2  1  0  0  0  0
  2  3  1  0  0  0  0
  3  4  1  0  0  0  0
  4  5  1  0  0  0  0
  5  6  1  0  0  0  0
  6  7  1  0  0  0  0
  7  8  1  0  0  0  0
  8  9  1  0  0  0  0
  9 10  1  0  0  0  0
 10 11  1  0  0  0  0
 11 12  1  0  0  0  0
 12 13  1  0  0  0  0
 13 14  1  0  0  0  0
 14 15  1  0  0  0  0
 15 16  1  0  0  0  0
 16 17  1  0  0  0  0
 12 17  1  0  0  0  0
 17 18  1  0  0  0  0
  9 18  1  0  0  0  0
 18 19  1  0  0  0  0
 19 20  1  0  0  0  0
 20 21  2  0  0  0  0
  8 21  1  0  0  0  0
 21 22  1  0  0  0  0
  5 22  1  0  0  0  0
  1 22  1  0  0  0  0
 23 24  2  0  0  0  0
 23 25  1  0  0  0  0
  5 23  1  0  0  0  0
 17 26  1  0  0  0  0
 13 27  1  0  0  0  0
 13 28  1  0  0  0  0
  9 29  1  0  0  0  0
  8 30  1  0  0  0  0
  2 31  1  0  0  0  0
  1 32  1  0  0  0  0
 14 33  1  0  0  0  0
  1 34  1  0  0  0  0
 35 36  1  0  0  0  0
 36 37  1  0  0  0  0
 37 38  1  0  0  0  0
 38 39  1  0  0  0  0
 39 40  1  0  0  0  0
 35 40  1  0  0  0  0
 41 42  1  0  0  0  0
 40 41  1  0  0  0  0
 39 43  1  0  0  0  0
 38 44  1  0  0  0  0
 37 45  1  0  0  0  0
 25 36  1  0  0  0  0
M  END
>  <cdx:fragmentId>
2806

$$$$
