300310.cdx
  Mrv1902 05222410212D          

  7  7  0  0  0  0            999 V2000
    7.4989   -7.2505    0.0000 C   0  0  0  0  0  0  0  0  0  0  0  0
    8.2134   -6.8380    0.0000 N   0  0  0  0  0  0  0  0  0  0  0  0
    6.7845   -6.8380    0.0000 C   0  0  0  0  0  0  0  0  0  0  0  0
    6.0308   -7.1736    0.0000 C   0  0  0  0  0  0  0  0  0  0  0  0
    5.4787   -6.5605    0.0000 C   0  0  0  0  0  0  0  0  0  0  0  0
    5.8912   -5.8460    0.0000 C   0  0  0  0  0  0  0  0  0  0  0  0
    6.6982   -6.0175    0.0000 S   0  0  0  0  0  0  0  0  0  0  0  0
  1  2  1  0  0  0  0
  3  4  2  0  0  0  0
  4  5  1  0  0  0  0
  5  6  2  0  0  0  0
  6  7  1  0  0  0  0
  3  7  1  0  0  0  0
  1  3  1  0  0  0  0
M  END
>  <cdx:fragmentId>
4014

$$$$
