300352.cdx
  Mrv1902 05222410262D          

 13 12  0  0  0  0            999 V2000
    8.2513   -5.5172    0.0000 C   0  0  0  0  0  0  0  0  0  0  0  0
    8.2513   -6.3422    0.0000 C   0  0  0  0  0  0  0  0  0  0  0  0
    7.5369   -6.7547    0.0000 C   0  0  0  0  0  0  0  0  0  0  0  0
    6.8224   -6.3422    0.0000 C   0  0  0  0  0  0  0  0  0  0  0  0
    6.1079   -6.7547    0.0000 C   0  0  0  0  0  0  0  0  0  0  0  0
    5.3934   -6.3422    0.0000 C   0  0  0  0  0  0  0  0  0  0  0  0
    4.6790   -6.7547    0.0000 C   0  0  0  0  0  0  0  0  0  0  0  0
    3.9645   -6.3422    0.0000 C   0  0  0  0  0  0  0  0  0  0  0  0
    3.2500   -6.7547    0.0000 C   0  0  0  0  0  0  0  0  0  0  0  0
    2.5356   -6.3422    0.0000 C   0  0  0  0  0  0  0  0  0  0  0  0
    1.8211   -6.7547    0.0000 C   0  0  0  0  0  0  0  0  0  0  0  0
    6.1079   -7.5797    0.0000 C   0  0  0  0  0  0  0  0  0  0  0  0
    8.9658   -6.7547    0.0000 C   0  0  0  0  0  0  0  0  0  0  0  0
  1  2  1  0  0  0  0
  2  3  1  0  0  0  0
  3  4  1  0  0  0  0
  4  5  1  0  0  0  0
  5  6  1  0  0  0  0
  6  7  1  0  0  0  0
  7  8  1  0  0  0  0
  8  9  1  0  0  0  0
  9 10  1  0  0  0  0
 10 11  1  0  0  0  0
  5 12  1  0  0  0  0
  2 13  1  0  0  0  0
M  END
>  <cdx:fragmentId>
127

$$$$
