300308.cdx
  Mrv1902 05222410262D          

 14 15  0  0  0  0            999 V2000
    6.6896   -5.8361    0.0000 N   0  0  0  0  0  0  0  0  0  0  0  0
    7.4041   -6.2486    0.0000 C   0  0  0  0  0  0  0  0  0  0  0  0
    7.4041   -7.0736    0.0000 C   0  0  0  0  0  0  0  0  0  0  0  0
    6.6896   -7.4861    0.0000 N   0  0  0  0  0  0  0  0  0  0  0  0
    5.9752   -7.0736    0.0000 C   0  0  0  0  0  0  0  0  0  0  0  0
    5.2607   -7.4861    0.0000 C   0  0  0  0  0  0  0  0  0  0  0  0
    4.5462   -7.0736    0.0000 C   0  0  0  0  0  0  0  0  0  0  0  0
    4.5462   -6.2486    0.0000 C   0  0  0  0  0  0  0  0  0  0  0  0
    5.2607   -5.8361    0.0000 C   0  0  0  0  0  0  0  0  0  0  0  0
    5.9752   -6.2486    0.0000 C   0  0  0  0  0  0  0  0  0  0  0  0
    8.1186   -5.8361    0.0000 N   0  0  0  0  0  0  0  0  0  0  0  0
    8.8331   -6.2486    0.0000 C   0  0  0  0  0  0  0  0  0  0  0  0
    9.5475   -5.8361    0.0000 C   0  0  0  0  0  0  0  0  0  0  0  0
    8.1186   -7.4861    0.0000 Cl  0  0  0  0  0  0  0  0  0  0  0  0
  1  2  2  0  0  0  0
  2  3  1  0  0  0  0
  3  4  2  0  0  0  0
  4  5  1  0  0  0  0
  5  6  2  0  0  0  0
  6  7  1  0  0  0  0
  7  8  2  0  0  0  0
  8  9  1  0  0  0  0
  9 10  2  0  0  0  0
  1 10  1  0  0  0  0
  5 10  1  0  0  0  0
  2 11  1  0  0  0  0
 12 13  1  0  0  0  0
 11 12  1  0  0  0  0
  3 14  1  0  0  0  0
M  END
>  <cdx:fragmentId>
3877

$$$$
