300383.cdx
  Mrv1902 05222410272D          

 39 43  0  0  0  0            999 V2000
    7.1833   -4.5576    0.0000 C   0  0  1  0  0  0  0  0  0  0  0  0
    7.8978   -4.1451    0.0000 C   0  0  1  0  0  0  0  0  0  0  0  0
    8.6123   -4.5576    0.0000 C   0  0  0  0  0  0  0  0  0  0  0  0
    8.6123   -5.3826    0.0000 C   0  0  0  0  0  0  0  0  0  0  0  0
    7.8978   -5.7951    0.0000 C   0  0  2  0  0  0  0  0  0  0  0  0
    7.8978   -6.6201    0.0000 C   0  0  0  0  0  0  0  0  0  0  0  0
    7.1833   -7.0326    0.0000 C   0  0  0  0  0  0  0  0  0  0  0  0
    6.4688   -6.6201    0.0000 C   0  0  1  0  0  0  0  0  0  0  0  0
    5.7544   -7.0326    0.0000 C   0  0  2  0  0  0  0  0  0  0  0  0
    5.7544   -7.8576    0.0000 C   0  0  0  0  0  0  0  0  0  0  0  0
    5.0399   -8.2701    0.0000 C   0  0  0  0  0  0  0  0  0  0  0  0
    4.3254   -7.8576    0.0000 C   0  0  1  0  0  0  0  0  0  0  0  0
    3.6110   -8.2701    0.0000 C   0  0  1  0  0  0  0  0  0  0  0  0
    2.8965   -7.8576    0.0000 C   0  0  2  0  0  0  0  0  0  0  0  0
    2.8965   -7.0326    0.0000 C   0  0  1  0  0  0  0  0  0  0  0  0
    3.6110   -6.6201    0.0000 C   0  0  0  0  0  0  0  0  0  0  0  0
    4.3254   -7.0326    0.0000 C   0  0  2  0  0  0  0  0  0  0  0  0
    5.0399   -6.6201    0.0000 C   0  0  1  0  0  0  0  0  0  0  0  0
    5.0399   -5.7951    0.0000 C   0  0  0  0  0  0  0  0  0  0  0  0
    5.7544   -5.3826    0.0000 C   0  0  0  0  0  0  0  0  0  0  0  0
    6.4688   -5.7951    0.0000 C   0  0  0  0  0  0  0  0  0  0  0  0
    7.1833   -5.3826    0.0000 C   0  0  2  0  0  0  0  0  0  0  0  0
    8.6123   -6.2076    0.0000 C   0  0  0  0  0  0  0  0  0  0  0  0
    8.6123   -7.0326    0.0000 O   0  0  0  0  0  0  0  0  0  0  0  0
    9.3267   -5.7951    0.0000 O   0  0  0  0  0  0  0  0  0  0  0  0
    4.3254   -6.2076    0.0000 C   0  0  0  0  0  0  0  0  0  0  0  0
    4.0235   -8.9846    0.0000 C   0  0  0  0  0  0  0  0  0  0  0  0
    5.7544   -6.2076    0.0000 C   0  0  0  0  0  0  0  0  0  0  0  0
    6.4688   -7.4451    0.0000 C   0  0  0  0  0  0  0  0  0  0  0  0
    7.8978   -3.3201    0.0000 C   0  0  0  0  0  0  0  0  0  0  0  0
    6.3864   -4.3441    0.0000 C   0  0  0  0  0  0  0  0  0  0  0  0
    2.1820   -6.6201    0.0000 O   0  0  0  0  0  0  0  0  0  0  0  0
    2.1820   -8.2701    0.0000 O   0  0  0  0  0  0  0  0  0  0  0  0
    6.9698   -3.7607    0.0000 O   0  0  0  0  0  0  0  0  0  0  0  0
    3.1985   -8.9846    0.0000 C   0  0  0  0  0  0  0  0  0  0  0  0
    4.3254   -8.6826    0.0000 H   0  0  0  0  0  0  0  0  0  0  0  0
    6.4688   -4.9701    0.0000 H   0  0  0  0  0  0  0  0  0  0  0  0
    3.6110   -9.6991    0.0000 O   0  0  0  0  0  0  0  0  0  0  0  0
    5.0399   -7.4451    0.0000 H   0  0  0  0  0  0  0  0  0  0  0  0
  1  2  1  0  0  0  0
  2  3  1  0  0  0  0
  3  4  1  0  0  0  0
  4  5  1  0  0  0  0
  5  6  1  0  0  0  0
  6  7  1  0  0  0  0
  7  8  1  0  0  0  0
  8  9  1  0  0  0  0
  9 10  1  0  0  0  0
 10 11  1  0  0  0  0
 11 12  1  0  0  0  0
 12 13  1  0  0  0  0
 13 14  1  0  0  0  0
 14 15  1  0  0  0  0
 15 16  1  0  0  0  0
 16 17  1  0  0  0  0
 12 17  1  0  0  0  0
 17 18  1  0  0  0  0
  9 18  1  0  0  0  0
 18 19  1  0  0  0  0
 19 20  1  0  0  0  0
 20 21  2  0  0  0  0
  8 21  1  0  0  0  0
 21 22  1  0  0  0  0
  5 22  1  0  0  0  0
  1 22  1  0  0  0  0
 23 24  2  0  0  0  0
 23 25  1  0  0  0  0
  5 23  1  1  0  0  0
 17 26  1  1  0  0  0
 13 27  1  0  0  0  0
  9 28  1  1  0  0  0
  8 29  1  6  0  0  0
  2 30  1  6  0  0  0
  1 31  1  1  0  0  0
 15 32  1  6  0  0  0
 14 33  1  1  0  0  0
  1 34  1  0  0  0  0
 13 35  1  1  0  0  0
 12 36  1  6  0  0  0
 22 37  1  1  0  0  0
 35 38  2  0  0  0  0
 18 39  1  6  0  0  0
M  END
>  <cdx:fragmentId>
2341

$$$$
