300345.cdx
  Mrv1902 05222410272D          

 11 11  0  0  0  0            999 V2000
    8.3240   -6.9177    0.0000 C   0  0  0  0  0  0  0  0  0  0  0  0
    7.6095   -7.3302    0.0000 C   0  0  0  0  0  0  0  0  0  0  0  0
    6.8950   -6.9177    0.0000 C   0  0  0  0  0  0  0  0  0  0  0  0
    6.8950   -6.0927    0.0000 C   0  0  0  0  0  0  0  0  0  0  0  0
    6.1806   -5.6802    0.0000 C   0  0  0  0  0  0  0  0  0  0  0  0
    5.4661   -6.0927    0.0000 C   0  0  0  0  0  0  0  0  0  0  0  0
    5.4661   -6.9177    0.0000 C   0  0  0  0  0  0  0  0  0  0  0  0
    6.1806   -7.3302    0.0000 C   0  0  0  0  0  0  0  0  0  0  0  0
    4.7516   -5.6802    0.0000 C   0  0  0  0  0  0  0  0  0  0  0  0
    7.6095   -5.6802    0.0000 C   0  0  0  0  0  0  0  0  0  0  0  0
    9.0384   -7.3302    0.0000 O   0  0  0  0  0  0  0  0  0  0  0  0
  1  2  1  0  0  0  0
  3  4  1  0  0  0  0
  4  5  2  0  0  0  0
  5  6  1  0  0  0  0
  6  7  2  0  0  0  0
  7  8  1  0  0  0  0
  3  8  2  0  0  0  0
  6  9  1  0  0  0  0
  4 10  1  0  0  0  0
  2  3  1  0  0  0  0
  1 11  1  0  0  0  0
M  END
>  <cdx:fragmentId>
5879

$$$$
