300342.cdx
  Mrv1902 05222410282D          

 12 11  0  0  0  0            999 V2000
    9.5070   -7.1160    0.0000 C   0  0  0  0  0  0  0  0  0  0  0  0
    8.7926   -6.7035    0.0000 C   0  0  0  0  0  0  0  0  0  0  0  0
    8.0781   -7.1160    0.0000 C   0  0  0  0  0  0  0  0  0  0  0  0
    7.3636   -6.7035    0.0000 C   0  0  0  0  0  0  0  0  0  0  0  0
    7.3636   -5.8785    0.0000 C   0  0  0  0  0  0  0  0  0  0  0  0
   10.2215   -6.7035    0.0000 O   0  0  0  0  0  0  0  0  0  0  0  0
    5.9347   -6.7035    0.0000 S   0  0  0  0  0  0  0  0  0  0  0  0
    6.6492   -7.1160    0.0000 S   0  0  0  0  0  0  0  0  0  0  0  0
    5.2202   -7.1160    0.0000 C   0  0  0  0  0  0  0  0  0  0  0  0
    4.5057   -6.7035    0.0000 C   0  0  0  0  0  0  0  0  0  0  0  0
    3.7913   -7.1160    0.0000 C   0  0  0  0  0  0  0  0  0  0  0  0
    8.7926   -5.8785    0.0000 C   0  0  0  0  0  0  0  0  0  0  0  0
  1  2  1  0  0  0  0
  2  3  2  0  0  0  0
  3  4  1  0  0  0  0
  4  5  1  0  0  0  0
  1  6  2  0  0  0  0
  7  8  1  0  0  0  0
  9 10  2  0  0  0  0
 10 11  1  0  0  0  0
  7  9  1  0  0  0  0
  4  8  1  0  0  0  0
  2 12  1  0  0  0  0
M  END
>  <cdx:fragmentId>
5737

$$$$
