300365.cdx
  Mrv1902 05222410182D          

 22 24  0  0  0  0            999 V2000
    7.3884   -6.9157    0.0000 C   0  0  0  0  0  0  0  0  0  0  0  0
    7.3884   -6.0907    0.0000 C   0  0  0  0  0  0  0  0  0  0  0  0
    6.6740   -5.6782    0.0000 C   0  0  0  0  0  0  0  0  0  0  0  0
    5.9595   -6.0907    0.0000 C   0  0  0  0  0  0  0  0  0  0  0  0
    5.9595   -6.9157    0.0000 C   0  0  0  0  0  0  0  0  0  0  0  0
    5.2450   -7.3282    0.0000 C   0  0  0  0  0  0  0  0  0  0  0  0
    4.5306   -6.9157    0.0000 C   0  0  0  0  0  0  0  0  0  0  0  0
    3.8161   -7.3282    0.0000 C   0  0  0  0  0  0  0  0  0  0  0  0
    3.8161   -8.1532    0.0000 C   0  0  0  0  0  0  0  0  0  0  0  0
    4.5306   -8.5657    0.0000 C   0  0  0  0  0  0  0  0  0  0  0  0
    5.2450   -8.1532    0.0000 C   0  0  0  0  0  0  0  0  0  0  0  0
    5.9595   -8.5657    0.0000 C   0  0  0  0  0  0  0  0  0  0  0  0
    6.6740   -8.1532    0.0000 C   0  0  0  0  0  0  0  0  0  0  0  0
    6.6740   -7.3282    0.0000 C   0  0  0  0  0  0  0  0  0  0  0  0
    8.1029   -5.6782    0.0000 O   0  0  0  0  0  0  0  0  0  0  0  0
    3.1016   -8.5657    0.0000 O   0  0  0  0  0  0  0  0  0  0  0  0
    3.1016   -6.9157    0.0000 O   0  0  0  0  0  0  0  0  0  0  0  0
    2.3871   -7.3282    0.0000 C   0  0  0  0  0  0  0  0  0  0  0  0
    5.2450   -5.6782    0.0000 O   0  0  0  0  0  0  0  0  0  0  0  0
    4.5306   -6.0907    0.0000 C   0  0  0  0  0  0  0  0  0  0  0  0
    6.6740   -4.8532    0.0000 O   0  0  0  0  0  0  0  0  0  0  0  0
    7.3884   -4.4407    0.0000 C   0  0  0  0  0  0  0  0  0  0  0  0
  1  2  1  0  0  0  0
  2  3  2  0  0  0  0
  3  4  1  0  0  0  0
  4  5  2  0  0  0  0
  5  6  1  0  0  0  0
  6  7  2  0  0  0  0
  7  8  1  0  0  0  0
  8  9  2  0  0  0  0
  9 10  1  0  0  0  0
 10 11  2  0  0  0  0
  6 11  1  0  0  0  0
 11 12  1  0  0  0  0
 12 13  2  0  0  0  0
 13 14  1  0  0  0  0
  1 14  2  0  0  0  0
  5 14  1  0  0  0  0
  2 15  1  0  0  0  0
  9 16  1  0  0  0  0
 17 18  1  0  0  0  0
  8 17  1  0  0  0  0
 19 20  1  0  0  0  0
  4 19  1  0  0  0  0
 21 22  1  0  0  0  0
  3 21  1  0  0  0  0
M  END
>  <cdx:fragmentId>
882

$$$$
