300353.cdx
  Mrv1902 05222410262D          

 15 16  0  0  0  0            999 V2000
    4.7475   -6.9364    0.0000 C   0  0  0  0  0  0  0  0  0  0  0  0
    4.3451   -7.6566    0.0000 C   0  0  0  0  0  0  0  0  0  0  0  0
    4.7676   -8.3652    0.0000 C   0  0  0  0  0  0  0  0  0  0  0  0
    5.5925   -8.3536    0.0000 C   0  0  0  0  0  0  0  0  0  0  0  0
    5.9949   -7.6334    0.0000 C   0  0  0  0  0  0  0  0  0  0  0  0
    5.5724   -6.9248    0.0000 C   0  0  0  0  0  0  0  0  0  0  0  0
    6.4819   -8.2993    0.0000 C   0  0  0  0  0  0  0  0  0  0  0  0
    7.2657   -8.0420    0.0000 C   0  0  0  0  0  0  0  0  0  0  0  0
    7.2657   -7.2170    0.0000 C   0  0  0  0  0  0  0  0  0  0  0  0
    6.4819   -6.9644    0.0000 C   0  0  0  0  0  0  0  0  0  0  0  0
    7.9339   -8.5258    0.0000 O   0  0  0  0  0  0  0  0  0  0  0  0
    7.9326   -6.7312    0.0000 C   0  0  0  0  0  0  0  0  0  0  0  0
    8.6867   -7.0658    0.0000 C   0  0  0  0  0  0  0  0  0  0  0  0
    9.3535   -6.5801    0.0000 C   0  0  0  0  0  0  0  0  0  0  0  0
    8.7739   -7.8862    0.0000 O   0  0  0  0  0  0  0  0  0  0  0  0
  1  2  1  0  0  0  0
  2  3  1  0  0  0  0
  3  4  1  0  0  0  0
  4  5  1  0  0  0  0
  5  6  1  0  0  0  0
  6  1  1  0  0  0  0
  5  7  1  0  0  0  0
  7  8  1  0  0  0  0
  8  9  1  0  0  0  0
  9 10  2  0  0  0  0
 10  5  1  0  0  0  0
  8 11  2  0  0  0  0
  9 12  1  0  0  0  0
 12 13  1  0  0  0  0
 13 14  1  0  0  0  0
 13 15  1  0  0  0  0
M  END
>  <cdx:fragmentId>
356

$$$$
