300339.cdx
  Mrv1902 05222410202D          

 16 16  0  0  0  0            999 V2000
    7.0434   -7.3721    0.0000 C   0  0  0  0  0  0  0  0  0  0  0  0
    6.3290   -6.9596    0.0000 C   0  0  0  0  0  0  0  0  0  0  0  0
    6.3290   -6.1346    0.0000 C   0  0  0  0  0  0  0  0  0  0  0  0
    7.0434   -5.7221    0.0000 C   0  0  0  0  0  0  0  0  0  0  0  0
    7.7579   -6.1346    0.0000 C   0  0  0  0  0  0  0  0  0  0  0  0
    7.7579   -6.9596    0.0000 C   0  0  0  0  0  0  0  0  0  0  0  0
    7.0434   -8.1971    0.0000 O   0  0  0  0  0  0  0  0  0  0  0  0
    7.0434   -4.8971    0.0000 O   0  0  0  0  0  0  0  0  0  0  0  0
    8.4724   -5.7221    0.0000 C   0  0  0  0  0  0  0  0  0  0  0  0
    8.4724   -4.8971    0.0000 C   0  0  0  0  0  0  0  0  0  0  0  0
    9.1869   -5.3096    0.0000 C   0  0  0  0  0  0  0  0  0  0  0  0
    9.1869   -6.1346    0.0000 C   0  0  0  0  0  0  0  0  0  0  0  0
    5.6145   -5.7221    0.0000 C   0  0  0  0  0  0  0  0  0  0  0  0
    4.9000   -5.3096    0.0000 C   0  0  0  0  0  0  0  0  0  0  0  0
    5.6145   -4.8971    0.0000 C   0  0  0  0  0  0  0  0  0  0  0  0
    4.9000   -6.1346    0.0000 C   0  0  0  0  0  0  0  0  0  0  0  0
  1  2  1  0  0  0  0
  2  3  2  0  0  0  0
  3  4  1  0  0  0  0
  4  5  2  0  0  0  0
  5  6  1  0  0  0  0
  1  6  1  0  0  0  0
  1  7  2  0  0  0  0
  4  8  1  0  0  0  0
  9 10  1  0  0  0  0
  9 12  1  0  0  0  0
  9 11  1  0  0  0  0
  5  9  1  0  0  0  0
 13 14  1  0  0  0  0
 13 16  1  0  0  0  0
 13 15  1  0  0  0  0
  3 13  1  0  0  0  0
M  END
>  <cdx:fragmentId>
5593

$$$$
