300381.cdx
  Mrv1902 05222410282D          

 40 43  0  0  0  0            999 V2000
    3.0599   -7.7963    0.0000 C   0  0  0  0  0  0  0  0  0  0  0  0
    3.0599   -8.6212    0.0000 C   0  0  2  0  0  0  0  0  0  0  0  0
    3.7744   -9.0337    0.0000 C   0  0  1  0  0  0  0  0  0  0  0  0
    4.4888   -8.6212    0.0000 C   0  0  0  0  0  0  0  0  0  0  0  0
    4.4888   -7.7963    0.0000 C   0  0  0  0  0  0  0  0  0  0  0  0
    3.7744   -7.3838    0.0000 C   0  0  0  0  0  0  0  0  0  0  0  0
    5.2033   -9.0337    0.0000 C   0  0  0  0  0  0  0  0  0  0  0  0
    5.9178   -8.6212    0.0000 C   0  0  0  0  0  0  0  0  0  0  0  0
    5.9178   -7.7963    0.0000 C   0  0  0  0  0  0  0  0  0  0  0  0
    5.2033   -7.3838    0.0000 C   0  0  1  0  0  0  0  0  0  0  0  0
    6.6323   -7.3838    0.0000 C   0  0  1  0  0  0  0  0  0  0  0  0
    6.6323   -6.5587    0.0000 C   0  0  2  0  0  0  0  0  0  0  0  0
    5.9178   -6.1463    0.0000 C   0  0  0  0  0  0  0  0  0  0  0  0
    5.2033   -6.5587    0.0000 C   0  0  0  0  0  0  0  0  0  0  0  0
    7.4169   -7.6387    0.0000 C   0  0  0  0  0  0  0  0  0  0  0  0
    7.9018   -6.9712    0.0000 C   0  0  2  0  0  0  0  0  0  0  0  0
    7.4169   -6.3038    0.0000 C   0  0  0  0  0  0  0  0  0  0  0  0
    3.3619   -9.7482    0.0000 C   0  0  0  0  0  0  0  0  0  0  0  0
    4.1869   -9.7482    0.0000 C   0  0  0  0  0  0  0  0  0  0  0  0
    2.3454   -7.3838    0.0000 O   0  0  0  0  0  0  0  0  0  0  0  0
    4.4888   -6.1463    0.0000 O   0  0  0  0  0  0  0  0  0  0  0  0
    2.3454   -9.0337    0.0000 O   0  0  0  0  0  0  0  0  0  0  0  0
    6.6323   -8.2088    0.0000 C   0  0  0  0  0  0  0  0  0  0  0  0
    6.6323   -5.7338    0.0000 C   0  0  0  0  0  0  0  0  0  0  0  0
    8.7268   -6.9712    0.0000 O   0  0  0  0  0  0  0  0  0  0  0  0
    5.2033   -8.2088    0.0000 C   0  0  0  0  0  0  0  0  0  0  0  0
    7.6718   -5.5192    0.0000 C   0  0  1  0  0  0  0  0  0  0  0  0
    6.8749   -5.3057    0.0000 O   0  0  0  0  0  0  0  0  0  0  0  0
    8.4788   -5.3477    0.0000 C   0  0  0  0  0  0  0  0  0  0  0  0
    9.0308   -5.9608    0.0000 O   0  0  0  0  0  0  0  0  0  0  0  0
    8.7337   -4.5630    0.0000 C   0  0  0  0  0  0  0  0  0  0  0  0
    9.5407   -4.3915    0.0000 C   0  0  0  0  0  0  0  0  0  0  0  0
    9.7956   -3.6069    0.0000 C   0  0  0  0  0  0  0  0  0  0  0  0
    7.4583   -4.7223    0.0000 C   0  0  0  0  0  0  0  0  0  0  0  0
   10.5925   -3.8204    0.0000 C   0  0  0  0  0  0  0  0  0  0  0  0
    8.9988   -3.3934    0.0000 C   0  0  0  0  0  0  0  0  0  0  0  0
   10.0506   -2.8223    0.0000 O   0  0  0  0  0  0  0  0  0  0  0  0
    9.4985   -2.2092    0.0000 C   0  0  0  0  0  0  0  0  0  0  0  0
    9.7535   -1.4246    0.0000 O   0  0  0  0  0  0  0  0  0  0  0  0
    8.6916   -2.3807    0.0000 C   0  0  0  0  0  0  0  0  0  0  0  0
  1  2  1  0  0  0  0
  2  3  1  0  0  0  0
  3  4  1  0  0  0  0
  4  5  1  0  0  0  0
  5  6  1  0  0  0  0
  6  1  1  0  0  0  0
  4  7  2  0  0  0  0
  7  8  1  0  0  0  0
  8  9  1  0  0  0  0
  9 10  1  0  0  0  0
 10  5  1  0  0  0  0
  9 11  1  0  0  0  0
 11 12  1  0  0  0  0
 12 13  1  0  0  0  0
 13 14  1  0  0  0  0
 14 10  1  0  0  0  0
 11 15  1  0  0  0  0
 15 16  1  0  0  0  0
 16 17  1  0  0  0  0
 17 12  1  0  0  0  0
  3 18  1  1  0  0  0
  3 19  1  6  0  0  0
  1 20  2  0  0  0  0
 14 21  2  0  0  0  0
  2 22  1  6  0  0  0
 11 23  1  6  0  0  0
 12 24  1  1  0  0  0
 16 25  1  6  0  0  0
 10 26  1  1  0  0  0
 17 27  1  0  0  0  0
 27 28  1  1  0  0  0
 27 29  1  0  0  0  0
 29 30  2  0  0  0  0
 29 31  1  0  0  0  0
 31 32  1  0  0  0  0
 32 33  1  0  0  0  0
 27 34  1  6  0  0  0
 33 35  1  0  0  0  0
 33 36  1  0  0  0  0
 33 37  1  0  0  0  0
 37 38  1  0  0  0  0
 38 39  2  0  0  0  0
 38 40  1  0  0  0  0
M  END
>  <cdx:fragmentId>
1726

$$$$
