300372.cdx
  Mrv1902 05222410182D          

 21 22  0  0  0  0            999 V2000
    8.0641   -5.8563    0.0000 C   0  0  0  0  0  0  0  0  0  0  0  0
    7.3458   -5.4505    0.0000 C   0  0  0  0  0  0  0  0  0  0  0  0
    6.6352   -5.8696    0.0000 C   0  0  0  0  0  0  0  0  0  0  0  0
    8.0718   -6.6813    0.0000 O   0  0  0  0  0  0  0  0  0  0  0  0
    5.9169   -5.4638    0.0000 C   0  0  0  0  0  0  0  0  0  0  0  0
    5.2063   -5.8829    0.0000 C   0  0  0  0  0  0  0  0  0  0  0  0
    4.4881   -5.4771    0.0000 C   0  0  0  0  0  0  0  0  0  0  0  0
    4.4804   -4.6521    0.0000 C   0  0  0  0  0  0  0  0  0  0  0  0
    5.1910   -4.2330    0.0000 C   0  0  0  0  0  0  0  0  0  0  0  0
    5.9093   -4.6388    0.0000 C   0  0  0  0  0  0  0  0  0  0  0  0
    3.7621   -4.2463    0.0000 O   0  0  0  0  0  0  0  0  0  0  0  0
    8.7747   -5.4372    0.0000 C   0  0  0  0  0  0  0  0  0  0  0  0
    9.4930   -5.8430    0.0000 C   0  0  0  0  0  0  0  0  0  0  0  0
   10.2036   -5.4239    0.0000 C   0  0  0  0  0  0  0  0  0  0  0  0
   10.1959   -4.5989    0.0000 C   0  0  0  0  0  0  0  0  0  0  0  0
    9.4776   -4.1931    0.0000 C   0  0  0  0  0  0  0  0  0  0  0  0
    8.7670   -4.6122    0.0000 C   0  0  0  0  0  0  0  0  0  0  0  0
    8.0487   -4.2064    0.0000 O   0  0  0  0  0  0  0  0  0  0  0  0
    7.3381   -4.6255    0.0000 C   0  0  0  0  0  0  0  0  0  0  0  0
   10.9065   -4.1798    0.0000 O   0  0  0  0  0  0  0  0  0  0  0  0
    9.5006   -6.6680    0.0000 O   0  0  0  0  0  0  0  0  0  0  0  0
  1  2  1  0  0  0  0
  2  3  1  0  0  0  0
  1  4  2  0  0  0  0
  5  6  1  0  0  0  0
  6  7  2  0  0  0  0
  7  8  1  0  0  0  0
  8  9  2  0  0  0  0
  9 10  1  0  0  0  0
  5 10  2  0  0  0  0
  8 11  1  0  0  0  0
  3  5  1  0  0  0  0
 12 13  1  0  0  0  0
 13 14  2  0  0  0  0
 14 15  1  0  0  0  0
 15 16  2  0  0  0  0
 16 17  1  0  0  0  0
 12 17  2  0  0  0  0
 18 19  1  0  0  0  0
 17 18  1  0  0  0  0
 15 20  1  0  0  0  0
 13 21  1  0  0  0  0
  1 12  1  0  0  0  0
M  END
>  <cdx:fragmentId>
1344

$$$$
