300398.cdx
  Mrv1902 05222410182D          

 26 28  0  0  0  0            999 V2000
    5.9632   -6.2969    0.0000 C   0  0  0  0  0  0  0  0  0  0  0  0
    5.9632   -7.1219    0.0000 C   0  0  0  0  0  0  0  0  0  0  0  0
    5.2487   -7.5344    0.0000 C   0  0  0  0  0  0  0  0  0  0  0  0
    4.5343   -7.1219    0.0000 C   0  0  0  0  0  0  0  0  0  0  0  0
    3.8198   -7.5344    0.0000 C   0  0  0  0  0  0  0  0  0  0  0  0
    3.1053   -7.1219    0.0000 C   0  0  0  0  0  0  0  0  0  0  0  0
    3.1053   -6.2969    0.0000 C   0  0  0  0  0  0  0  0  0  0  0  0
    3.8198   -5.8844    0.0000 C   0  0  0  0  0  0  0  0  0  0  0  0
    4.5343   -6.2969    0.0000 C   0  0  0  0  0  0  0  0  0  0  0  0
    5.2487   -5.8844    0.0000 O   0  0  0  0  0  0  0  0  0  0  0  0
    5.2487   -8.3594    0.0000 O   0  0  0  0  0  0  0  0  0  0  0  0
    2.3908   -7.5344    0.0000 C   0  0  0  0  0  0  0  0  0  0  0  0
    3.8198   -5.0594    0.0000 O   0  0  0  0  0  0  0  0  0  0  0  0
    3.1053   -4.6469    0.0000 C   0  0  0  0  0  0  0  0  0  0  0  0
    2.3908   -5.8844    0.0000 O   0  0  0  0  0  0  0  0  0  0  0  0
    1.6764   -6.2969    0.0000 C   0  0  0  0  0  0  0  0  0  0  0  0
    3.8198   -8.3594    0.0000 O   0  0  0  0  0  0  0  0  0  0  0  0
    6.6777   -7.5344    0.0000 C   0  0  0  0  0  0  0  0  0  0  0  0
    7.3921   -7.1219    0.0000 C   0  0  0  0  0  0  0  0  0  0  0  0
    7.3921   -6.2969    0.0000 C   0  0  0  0  0  0  0  0  0  0  0  0
    8.1066   -5.8844    0.0000 C   0  0  0  0  0  0  0  0  0  0  0  0
    8.8211   -6.2969    0.0000 C   0  0  0  0  0  0  0  0  0  0  0  0
    8.8211   -7.1219    0.0000 C   0  0  0  0  0  0  0  0  0  0  0  0
    8.1066   -7.5344    0.0000 C   0  0  0  0  0  0  0  0  0  0  0  0
    9.5356   -5.8844    0.0000 O   0  0  0  0  0  0  0  0  0  0  0  0
    6.6777   -5.8844    0.0000 O   0  0  0  0  0  0  0  0  0  0  0  0
  1  2  1  0  0  0  0
  2  3  1  0  0  0  0
  3  4  1  0  0  0  0
  4  5  1  0  0  0  0
  5  6  2  0  0  0  0
  6  7  1  0  0  0  0
  7  8  2  0  0  0  0
  8  9  1  0  0  0  0
  4  9  2  0  0  0  0
  9 10  1  0  0  0  0
  1 10  1  0  0  0  0
  3 11  2  0  0  0  0
  6 12  1  0  0  0  0
 13 14  1  0  0  0  0
  8 13  1  0  0  0  0
 15 16  1  0  0  0  0
  7 15  1  0  0  0  0
  5 17  1  0  0  0  0
 19 20  1  0  0  0  0
 20 21  2  0  0  0  0
 21 22  1  0  0  0  0
 22 23  2  0  0  0  0
 23 24  1  0  0  0  0
 19 24  2  0  0  0  0
 22 25  1  0  0  0  0
 20 26  1  0  0  0  0
 18 19  1  0  0  0  0
  2 18  1  0  0  0  0
M  END
>  <cdx:fragmentId>
3259

$$$$
