300320.cdx
  Mrv1902 05222410262D          

 27 28  0  0  0  0            999 V2000
    6.3290   -6.4972    0.0000 C   0  0  0  0  0  0  0  0  0  0  0  0
    5.6145   -6.0847    0.0000 C   0  0  0  0  0  0  0  0  0  0  0  0
    4.9000   -6.4972    0.0000 C   0  0  0  0  0  0  0  0  0  0  0  0
    4.9000   -7.3222    0.0000 C   0  0  0  0  0  0  0  0  0  0  0  0
    5.6145   -7.7347    0.0000 C   0  0  0  0  0  0  0  0  0  0  0  0
    6.3290   -7.3222    0.0000 C   0  0  0  0  0  0  0  0  0  0  0  0
    7.0434   -6.0847    0.0000 O   0  0  0  0  0  0  0  0  0  0  0  0
    4.1856   -7.7347    0.0000 C   0  0  0  0  0  0  0  0  0  0  0  0
    3.4711   -7.3222    0.0000 C   0  0  0  0  0  0  0  0  0  0  0  0
    7.0434   -7.7347    0.0000 C   0  0  0  0  0  0  0  0  0  0  0  0
    7.7579   -7.3222    0.0000 C   0  0  0  0  0  0  0  0  0  0  0  0
    8.4724   -7.7347    0.0000 C   0  0  0  0  0  0  0  0  0  0  0  0
    9.1869   -7.3222    0.0000 C   0  0  0  0  0  0  0  0  0  0  0  0
    9.1869   -6.4972    0.0000 C   0  0  0  0  0  0  0  0  0  0  0  0
    8.4724   -6.0847    0.0000 C   0  0  0  0  0  0  0  0  0  0  0  0
    7.7579   -6.4972    0.0000 C   0  0  0  0  0  0  0  0  0  0  0  0
    8.4724   -8.5597    0.0000 O   0  0  0  0  0  0  0  0  0  0  0  0
    8.4724   -5.2597    0.0000 C   0  0  0  0  0  0  0  0  0  0  0  0
    9.1869   -4.8472    0.0000 C   0  0  0  0  0  0  0  0  0  0  0  0
    9.9013   -7.7347    0.0000 C   0  0  0  0  0  0  0  0  0  0  0  0
   10.6158   -8.1472    0.0000 C   0  0  0  0  0  0  0  0  0  0  0  0
    9.9013   -8.5597    0.0000 C   0  0  0  0  0  0  0  0  0  0  0  0
   10.6158   -7.3222    0.0000 C   0  0  0  0  0  0  0  0  0  0  0  0
    5.6145   -5.2597    0.0000 C   0  0  0  0  0  0  0  0  0  0  0  0
    4.9000   -4.8472    0.0000 C   0  0  0  0  0  0  0  0  0  0  0  0
    5.6145   -4.4347    0.0000 C   0  0  0  0  0  0  0  0  0  0  0  0
    6.3290   -4.8472    0.0000 C   0  0  0  0  0  0  0  0  0  0  0  0
  1  2  1  0  0  0  0
  2  3  2  0  0  0  0
  3  4  1  0  0  0  0
  4  5  2  0  0  0  0
  5  6  1  0  0  0  0
  1  6  2  0  0  0  0
  1  7  1  0  0  0  0
  8  9  1  0  0  0  0
  4  8  1  0  0  0  0
 11 12  1  0  0  0  0
 12 13  2  0  0  0  0
 13 14  1  0  0  0  0
 14 15  2  0  0  0  0
 15 16  1  0  0  0  0
 11 16  2  0  0  0  0
 12 17  1  0  0  0  0
 18 19  1  0  0  0  0
 15 18  1  0  0  0  0
 20 21  1  0  0  0  0
 20 23  1  0  0  0  0
 20 22  1  0  0  0  0
 13 20  1  0  0  0  0
 10 11  1  0  0  0  0
  6 10  1  0  0  0  0
 24 25  1  0  0  0  0
 24 27  1  0  0  0  0
 24 26  1  0  0  0  0
  2 24  1  0  0  0  0
M  END
>  <cdx:fragmentId>
4440

$$$$
