300371.cdx
  Mrv1902 05222410182D          

 44 50  0  0  0  0            999 V2000
    7.2605   -6.8750    0.0000 C   0  0  2  0  0  0  0  0  0  0  0  0
    7.2605   -7.7000    0.0000 C   0  0  0  0  0  0  0  0  0  0  0  0
    7.9750   -8.1125    0.0000 C   0  0  1  0  0  0  0  0  0  0  0  0
    8.6895   -7.7000    0.0000 C   0  0  1  0  0  0  0  0  0  0  0  0
    8.6895   -6.8750    0.0000 C   0  0  0  0  0  0  0  0  0  0  0  0
    7.9750   -6.4625    0.0000 C   0  0  1  0  0  0  0  0  0  0  0  0
    7.9750   -5.6375    0.0000 C   0  0  0  0  0  0  0  0  0  0  0  0
    9.3225   -6.4900    0.0000 O   0  0  0  0  0  0  0  0  0  0  0  0
    7.9750   -7.2875    0.0000 C   0  0  2  0  0  0  0  0  0  0  0  0
    6.5461   -6.4625    0.0000 O   0  0  0  0  0  0  0  0  0  0  0  0
    9.3225   -8.0850    0.0000 O   0  0  0  0  0  0  0  0  0  0  0  0
    8.6895   -8.5250    0.0000 O   0  0  0  0  0  0  0  0  0  0  0  0
    7.3700   -8.0575    0.0000 C   0  0  0  0  0  0  0  0  0  0  0  0
    7.3700   -8.8825    0.0000 O   0  0  0  0  0  0  0  0  0  0  0  0
    9.3225   -7.2875    0.0000 C   0  0  1  0  0  0  0  0  0  0  0  0
    6.6515   -9.2880    0.0000 C   0  0  0  0  0  0  0  0  0  0  0  0
    5.9411   -8.8685    0.0000 O   0  0  0  0  0  0  0  0  0  0  0  0
    6.6434  -10.1129    0.0000 C   0  0  0  0  0  0  0  0  0  0  0  0
    7.3538  -10.5324    0.0000 C   0  0  0  0  0  0  0  0  0  0  0  0
    7.3457  -11.3574    0.0000 C   0  0  0  0  0  0  0  0  0  0  0  0
    6.6273  -11.7629    0.0000 C   0  0  0  0  0  0  0  0  0  0  0  0
    5.9169  -11.3434    0.0000 C   0  0  0  0  0  0  0  0  0  0  0  0
    5.9250  -10.5184    0.0000 C   0  0  0  0  0  0  0  0  0  0  0  0
    6.5355   -5.6376    0.0000 C   0  0  2  0  0  0  0  0  0  0  0  0
    7.2446   -5.2159    0.0000 O   0  0  0  0  0  0  0  0  0  0  0  0
    7.2340   -4.3910    0.0000 C   0  0  1  0  0  0  0  0  0  0  0  0
    6.5143   -3.9877    0.0000 C   0  0  2  0  0  0  0  0  0  0  0  0
    5.8052   -4.4093    0.0000 C   0  0  1  0  0  0  0  0  0  0  0  0
    5.8158   -5.2343    0.0000 C   0  0  1  0  0  0  0  0  0  0  0  0
    7.9431   -3.9694    0.0000 C   0  0  0  0  0  0  0  0  0  0  0  0
    5.0855   -4.0060    0.0000 O   0  0  0  0  0  0  0  0  0  0  0  0
    5.1067   -5.6559    0.0000 O   0  0  0  0  0  0  0  0  0  0  0  0
    6.5037   -3.1628    0.0000 O   0  0  0  0  0  0  0  0  0  0  0  0
    7.9326   -3.1444    0.0000 O   0  0  0  0  0  0  0  0  0  0  0  0
    7.9750   -8.9375    0.0000 H   0  0  0  0  0  0  0  0  0  0  0  0
   10.2300   -7.2600    0.0000 H   0  0  0  0  0  0  0  0  0  0  0  0
    4.3870   -5.2526    0.0000 C   0  0  0  0  0  0  0  0  0  0  0  0
    3.6778   -5.6742    0.0000 C   0  0  0  0  0  0  0  0  0  0  0  0
    4.3764   -4.4277    0.0000 O   0  0  0  0  0  0  0  0  0  0  0  0
    2.9530   -5.2802    0.0000 C   0  0  0  0  0  0  0  0  0  0  0  0
    2.2494   -5.7109    0.0000 C   0  0  0  0  0  0  0  0  0  0  0  0
    2.2494   -6.5356    0.0000 C   0  0  0  0  0  0  0  0  0  0  0  0
    2.9530   -6.9296    0.0000 C   0  0  0  0  0  0  0  0  0  0  0  0
    3.6778   -6.4989    0.0000 C   0  0  0  0  0  0  0  0  0  0  0  0
  1  2  1  0  0  0  0
  2  3  1  0  0  0  0
  3  4  1  0  0  0  0
  4  5  1  0  0  0  0
  5  6  1  0  0  0  0
  6  1  1  0  0  0  0
  6  7  1  6  0  0  0
  6  8  1  0  0  0  0
  3  9  1  0  0  0  0
  1 10  1  1  0  0  0
  4 11  1  0  0  0  0
  4 12  1  6  0  0  0
  9  1  1  0  0  0  0
  9 13  1  1  0  0  0
 13 14  1  0  0  0  0
 11 15  1  0  0  0  0
  8 15  1  0  0  0  0
  9 15  1  0  0  0  0
 14 16  1  0  0  0  0
 16 17  2  0  0  0  0
 16 18  1  0  0  0  0
 18 19  2  0  0  0  0
 19 20  1  0  0  0  0
 20 21  2  0  0  0  0
 21 22  1  0  0  0  0
 22 23  2  0  0  0  0
 23 18  1  0  0  0  0
 24 10  1  1  0  0  0
 24 25  1  0  0  0  0
 25 26  1  0  0  0  0
 26 27  1  0  0  0  0
 27 28  1  0  0  0  0
 28 29  1  0  0  0  0
 29 24  1  0  0  0  0
 26 30  1  1  0  0  0
 28 31  1  1  0  0  0
 29 32  1  6  0  0  0
 27 33  1  6  0  0  0
 30 34  1  0  0  0  0
  3 35  1  1  0  0  0
 15 36  1  1  0  0  0
 32 37  1  0  0  0  0
 37 38  1  0  0  0  0
 37 39  2  0  0  0  0
 38 40  2  0  0  0  0
 40 41  1  0  0  0  0
 41 42  2  0  0  0  0
 42 43  1  0  0  0  0
 43 44  2  0  0  0  0
 44 38  1  0  0  0  0
M  END
>  <cdx:fragmentId>
157

$$$$
