300311.cdx
  Mrv1902 05222410202D          

 14 15  0  0  0  0            999 V2000
    7.2899   -5.2948    0.0000 N   0  0  0  0  0  0  0  0  0  0  0  0
    7.7749   -5.9622    0.0000 C   0  0  0  0  0  0  0  0  0  0  0  0
    7.2899   -6.6297    0.0000 C   0  0  0  0  0  0  0  0  0  0  0  0
    6.5053   -6.3747    0.0000 C   0  0  0  0  0  0  0  0  0  0  0  0
    5.7908   -6.7872    0.0000 C   0  0  0  0  0  0  0  0  0  0  0  0
    5.0764   -6.3747    0.0000 C   0  0  0  0  0  0  0  0  0  0  0  0
    5.0764   -5.5497    0.0000 C   0  0  0  0  0  0  0  0  0  0  0  0
    5.7908   -5.1372    0.0000 C   0  0  0  0  0  0  0  0  0  0  0  0
    6.5053   -5.5497    0.0000 C   0  0  0  0  0  0  0  0  0  0  0  0
    7.5449   -7.4143    0.0000 C   0  0  0  0  0  0  0  0  0  0  0  0
    6.9928   -8.0274    0.0000 O   0  0  0  0  0  0  0  0  0  0  0  0
    8.3518   -7.5858    0.0000 O   0  0  0  0  0  0  0  0  0  0  0  0
    8.5999   -5.9622    0.0000 C   0  0  0  0  0  0  0  0  0  0  0  0
    9.0124   -5.2477    0.0000 C   0  0  0  0  0  0  0  0  0  0  0  0
  1  2  1  0  0  0  0
  2  3  2  0  0  0  0
  3  4  1  0  0  0  0
  4  5  1  0  0  0  0
  5  6  2  0  0  0  0
  6  7  1  0  0  0  0
  7  8  2  0  0  0  0
  8  9  1  0  0  0  0
  1  9  1  0  0  0  0
  4  9  2  0  0  0  0
 10 11  2  0  0  0  0
 10 12  1  0  0  0  0
  3 10  1  0  0  0  0
 13 14  2  0  0  0  0
  2 13  1  0  0  0  0
M  END
>  <cdx:fragmentId>
4058

$$$$
