30038.cdx
  Mrv1902 05222410252D          

 26 28  0  0  0  0            999 V2000
   10.3416   -9.1507    0.0000 C   0  0  0  0  0  0  0  0  0  0  0  0
   10.3412   -8.3257    0.0000 C   0  0  0  0  0  0  0  0  0  0  0  0
    9.6265   -7.9136    0.0000 C   0  0  0  0  0  0  0  0  0  0  0  0
    8.9123   -8.3264    0.0000 C   0  0  0  0  0  0  0  0  0  0  0  0
    8.9127   -9.1514    0.0000 C   0  0  0  0  0  0  0  0  0  0  0  0
    9.6274   -9.5636    0.0000 C   0  0  0  0  0  0  0  0  0  0  0  0
    7.4838   -9.1522    0.0000 C   0  0  0  0  0  0  0  0  0  0  0  0
    8.1984   -9.5643    0.0000 C   0  0  0  0  0  0  0  0  0  0  0  0
    4.6267  -10.8036    0.0000 C   0  0  0  0  0  0  0  0  0  0  0  0
    6.7695   -9.5650    0.0000 C   0  0  0  0  0  0  0  0  0  0  0  0
    3.0854   -7.0919    0.0000 C   0  0  0  0  0  0  0  0  0  0  0  0
    3.6964   -6.2947    0.0000 C   0  0  0  0  0  0  0  0  0  0  0  0
    6.7687   -7.9150    0.0000 O   0  0  0  0  0  0  0  0  0  0  0  0
    5.3393   -7.0908    0.0000 C   0  0  0  0  0  0  0  0  0  0  0  0
    4.6246   -6.6786    0.0000 C   0  0  0  0  0  0  0  0  0  0  0  0
    3.9104   -7.0915    0.0000 C   0  0  0  0  0  0  0  0  0  0  0  0
    3.9108   -7.9165    0.0000 O   0  0  0  0  0  0  0  0  0  0  0  0
    6.0544   -8.3279    0.0000 C   0  0  0  0  0  0  0  0  0  0  0  0
   11.0555   -7.9128    0.0000 O   0  0  0  0  0  0  0  0  0  0  0  0
    6.7699  -10.3900    0.0000 O   0  0  0  0  0  0  0  0  0  0  0  0
    5.3397   -7.9158    0.0000 C   0  0  0  0  0  0  0  0  0  0  0  0
    4.6255   -8.3286    0.0000 C   0  0  0  0  0  0  0  0  0  0  0  0
    4.6259   -9.1536    0.0000 C   0  0  0  0  0  0  0  0  0  0  0  0
    6.0548   -9.1529    0.0000 C   0  0  0  0  0  0  0  0  0  0  0  0
    5.3406   -9.5658    0.0000 C   0  0  0  0  0  0  0  0  0  0  0  0
    5.3410  -10.3908    0.0000 O   0  0  0  0  0  0  0  0  0  0  0  0
  1  2  1  0  0  0  0
  2  3  2  0  0  0  0
  3  4  1  0  0  0  0
  4  5  2  0  0  0  0
  5  6  1  0  0  0  0
  6  1  2  0  0  0  0
  7  8  2  0  0  0  0
  8  5  1  0  0  0  0
 26  9  1  0  0  0  0
 16 11  1  0  0  0  0
 16 12  1  0  0  0  0
 24 10  1  0  0  0  0
 10  7  1  0  0  0  0
 18 13  1  0  0  0  0
 14 21  1  0  0  0  0
 15 14  2  0  0  0  0
 16 15  1  0  0  0  0
 17 16  1  0  0  0  0
 22 17  1  0  0  0  0
 18 24  1  0  0  0  0
 21 18  2  0  0  0  0
 22 21  1  0  0  0  0
 23 22  2  0  0  0  0
 25 23  1  0  0  0  0
  2 19  1  0  0  0  0
 10 20  2  0  0  0  0
 25 24  2  0  0  0  0
 26 25  1  0  0  0  0
M  END
>  <cdx:fragmentId>
5

$$$$
