300305.cdx
  Mrv1902 05222410202D          

  9  8  0  0  0  0            999 V2000
    6.3290   -6.3408    0.0000 C   0  0  0  0  0  0  0  0  0  0  0  0
    5.6145   -6.7533    0.0000 C   0  0  0  0  0  0  0  0  0  0  0  0
    4.9000   -6.3408    0.0000 C   0  0  0  0  0  0  0  0  0  0  0  0
    6.3290   -5.5158    0.0000 O   0  0  0  0  0  0  0  0  0  0  0  0
    7.0434   -6.7533    0.0000 O   0  0  0  0  0  0  0  0  0  0  0  0
    7.7579   -6.3408    0.0000 C   0  0  0  0  0  0  0  0  0  0  0  0
    8.4724   -6.7533    0.0000 C   0  0  0  0  0  0  0  0  0  0  0  0
    9.1869   -6.3408    0.0000 C   0  0  0  0  0  0  0  0  0  0  0  0
    8.4724   -7.5783    0.0000 O   0  0  0  0  0  0  0  0  0  0  0  0
  1  2  1  0  0  0  0
  2  3  2  0  0  0  0
  1  4  2  0  0  0  0
  1  5  1  0  0  0  0
  6  7  1  0  0  0  0
  7  8  1  0  0  0  0
  7  9  1  0  0  0  0
  5  6  1  0  0  0  0
M  END
>  <cdx:fragmentId>
3739

$$$$
