300357.cdx
  Mrv1902 05222410282D          

 13 13  0  0  0  0            999 V2000
    7.2634   -6.7435    0.0000 N   0  0  0  0  0  0  0  0  0  0  0  0
    7.2634   -7.5685    0.0000 C   0  0  0  0  0  0  0  0  0  0  0  0
    7.9779   -7.9810    0.0000 C   0  0  0  0  0  0  0  0  0  0  0  0
    7.9779   -8.8060    0.0000 C   0  0  0  0  0  0  0  0  0  0  0  0
    7.2634   -9.2185    0.0000 C   0  0  0  0  0  0  0  0  0  0  0  0
    6.5490   -8.8060    0.0000 C   0  0  0  0  0  0  0  0  0  0  0  0
    6.5490   -7.9810    0.0000 C   0  0  0  0  0  0  0  0  0  0  0  0
    5.8345   -6.7435    0.0000 C   0  0  0  0  0  0  0  0  0  0  0  0
    5.8345   -7.5685    0.0000 C   0  0  0  0  0  0  0  0  0  0  0  0
    5.1200   -7.9810    0.0000 C   0  0  0  0  0  0  0  0  0  0  0  0
    8.6924   -6.7435    0.0000 C   0  0  0  0  0  0  0  0  0  0  0  0
    8.6924   -7.5685    0.0000 C   0  0  0  0  0  0  0  0  0  0  0  0
    9.4069   -7.9810    0.0000 C   0  0  0  0  0  0  0  0  0  0  0  0
  1  2  1  0  0  0  0
  2  3  1  0  0  0  0
  3  4  2  0  0  0  0
  4  5  1  0  0  0  0
  5  6  2  0  0  0  0
  6  7  1  0  0  0  0
  2  7  2  0  0  0  0
  8  9  1  0  0  0  0
  9 10  1  0  0  0  0
  7  9  1  0  0  0  0
 11 12  1  0  0  0  0
 12 13  1  0  0  0  0
  3 12  1  0  0  0  0
M  END
>  <cdx:fragmentId>
436

$$$$
