300329.cdx
  Mrv1902 05222410232D          

 16 18  0  0  0  0            999 V2000
    6.7169   -9.2897    0.0000 N   0  0  0  0  0  0  0  0  0  0  0  0
    7.4314   -8.8772    0.0000 C   0  0  0  0  0  0  0  0  0  0  0  0
    7.4314   -8.0522    0.0000 C   0  0  0  0  0  0  0  0  0  0  0  0
    6.7169   -7.6397    0.0000 N   0  0  0  0  0  0  0  0  0  0  0  0
    6.0025   -8.0522    0.0000 C   0  0  0  0  0  0  0  0  0  0  0  0
    5.2880   -7.6397    0.0000 C   0  0  0  0  0  0  0  0  0  0  0  0
    4.5735   -8.0522    0.0000 C   0  0  0  0  0  0  0  0  0  0  0  0
    4.5735   -8.8772    0.0000 C   0  0  0  0  0  0  0  0  0  0  0  0
    5.2880   -9.2897    0.0000 C   0  0  0  0  0  0  0  0  0  0  0  0
    6.0025   -8.8772    0.0000 C   0  0  0  0  0  0  0  0  0  0  0  0
    8.2160   -7.7973    0.0000 C   0  0  0  0  0  0  0  0  0  0  0  0
    8.7010   -8.4647    0.0000 C   0  0  0  0  0  0  0  0  0  0  0  0
    8.2160   -9.1322    0.0000 C   0  0  0  0  0  0  0  0  0  0  0  0
    8.4710   -7.0127    0.0000 O   0  0  0  0  0  0  0  0  0  0  0  0
    8.4710   -9.9168    0.0000 O   0  0  0  0  0  0  0  0  0  0  0  0
    9.5260   -8.4647    0.0000 O   0  0  0  0  0  0  0  0  0  0  0  0
  1  2  2  0  0  0  0
  2  3  1  0  0  0  0
  3  4  2  0  0  0  0
  4  5  1  0  0  0  0
  5  6  2  0  0  0  0
  6  7  1  0  0  0  0
  7  8  2  0  0  0  0
  8  9  1  0  0  0  0
  9 10  2  0  0  0  0
  1 10  1  0  0  0  0
  5 10  1  0  0  0  0
 11 12  1  0  0  0  0
 12 13  2  0  0  0  0
 13  2  1  0  0  0  0
 11  3  1  0  0  0  0
 11 14  2  0  0  0  0
 13 15  1  0  0  0  0
 12 16  1  0  0  0  0
M  END
>  <cdx:fragmentId>
5

$$$$
