300322.cdx
  Mrv1902 05222410242D          

 10 11  0  0  0  0            999 V2000
    5.9837   -6.1910    0.0000 O   0  0  0  0  0  0  0  0  0  0  0  0
    6.6511   -6.6759    0.0000 C   0  0  0  0  0  0  0  0  0  0  0  0
    6.3962   -7.4605    0.0000 C   0  0  0  0  0  0  0  0  0  0  0  0
    5.5712   -7.4605    0.0000 C   0  0  0  0  0  0  0  0  0  0  0  0
    5.3162   -6.6759    0.0000 C   0  0  0  0  0  0  0  0  0  0  0  0
    8.1032   -6.9059    0.0000 O   0  0  0  0  0  0  0  0  0  0  0  0
    7.4357   -6.4210    0.0000 C   0  0  0  0  0  0  0  0  0  0  0  0
    7.6907   -5.6363    0.0000 C   0  0  0  0  0  0  0  0  0  0  0  0
    8.5157   -5.6363    0.0000 C   0  0  0  0  0  0  0  0  0  0  0  0
    8.7706   -6.4210    0.0000 C   0  0  0  0  0  0  0  0  0  0  0  0
  1  2  1  0  0  0  0
  2  3  1  0  0  0  0
  3  4  2  0  0  0  0
  4  5  1  0  0  0  0
  1  5  1  0  0  0  0
  6  7  1  0  0  0  0
  7  8  1  0  0  0  0
  8  9  2  0  0  0  0
  9 10  1  0  0  0  0
  6 10  1  0  0  0  0
  2  7  1  0  0  0  0
M  END
>  <cdx:fragmentId>
4580

$$$$
