300386.cdx
  Mrv1902 05222410272D          

 38 41  0  0  0  0            999 V2000
    4.2625   -8.1744    0.0000 C   0  0  2  0  0  0  0  0  0  0  0  0
    4.2625   -8.9994    0.0000 C   0  0  1  0  0  0  0  0  0  0  0  0
    4.9770   -9.4119    0.0000 C   0  0  0  0  0  0  0  0  0  0  0  0
    5.6914   -8.9994    0.0000 C   0  0  2  0  0  0  0  0  0  0  0  0
    5.6914   -8.1744    0.0000 C   0  0  2  0  0  0  0  0  0  0  0  0
    4.9770   -7.7619    0.0000 C   0  0  0  0  0  0  0  0  0  0  0  0
    6.4059   -9.4119    0.0000 C   0  0  0  0  0  0  0  0  0  0  0  0
    7.1204   -8.9994    0.0000 C   0  0  0  0  0  0  0  0  0  0  0  0
    7.1204   -8.1744    0.0000 C   0  0  0  0  0  0  0  0  0  0  0  0
    6.4059   -7.7619    0.0000 C   0  0  2  0  0  0  0  0  0  0  0  0
    7.8349   -7.7619    0.0000 C   0  0  1  0  0  0  0  0  0  0  0  0
    7.8349   -6.9369    0.0000 C   0  0  2  0  0  0  0  0  0  0  0  0
    7.1204   -6.5244    0.0000 C   0  0  0  0  0  0  0  0  0  0  0  0
    6.4059   -6.9369    0.0000 C   0  0  0  0  0  0  0  0  0  0  0  0
    8.6195   -8.0168    0.0000 C   0  0  0  0  0  0  0  0  0  0  0  0
    9.1044   -7.3494    0.0000 C   0  0  0  0  0  0  0  0  0  0  0  0
    8.6195   -6.6819    0.0000 C   0  0  2  0  0  0  0  0  0  0  0  0
    5.6914   -7.3494    0.0000 C   0  0  0  0  0  0  0  0  0  0  0  0
    3.5480   -7.7619    0.0000 O   0  0  0  0  0  0  0  0  0  0  0  0
    3.5480   -9.4119    0.0000 O   0  0  0  0  0  0  0  0  0  0  0  0
    5.6914   -9.8244    0.0000 H   0  0  0  0  0  0  0  0  0  0  0  0
    7.8349   -6.1119    0.0000 C   0  0  0  0  0  0  0  0  0  0  0  0
    7.8349   -8.5869    0.0000 O   0  0  0  0  0  0  0  0  0  0  0  0
    6.4059   -8.5869    0.0000 H   0  0  0  0  0  0  0  0  0  0  0  0
    6.4059  -10.2369    0.0000 O   0  0  0  0  0  0  0  0  0  0  0  0
    8.8744   -5.8973    0.0000 C   0  0  1  0  0  0  0  0  0  0  0  0
    8.0775   -5.6838    0.0000 O   0  0  0  0  0  0  0  0  0  0  0  0
    9.6814   -5.7258    0.0000 C   0  0  1  0  0  0  0  0  0  0  0  0
   10.2334   -6.3389    0.0000 O   0  0  0  0  0  0  0  0  0  0  0  0
    9.9363   -4.9412    0.0000 C   0  0  0  0  0  0  0  0  0  0  0  0
   10.7433   -4.7696    0.0000 C   0  0  0  0  0  0  0  0  0  0  0  0
   11.2953   -5.3827    0.0000 C   0  0  0  0  0  0  0  0  0  0  0  0
   10.9982   -3.9850    0.0000 C   0  0  0  0  0  0  0  0  0  0  0  0
   10.2013   -3.7715    0.0000 C   0  0  0  0  0  0  0  0  0  0  0  0
   11.7951   -4.1985    0.0000 C   0  0  0  0  0  0  0  0  0  0  0  0
   11.2532   -3.2004    0.0000 O   0  0  0  0  0  0  0  0  0  0  0  0
    9.4445   -6.6819    0.0000 H   0  0  0  0  0  0  0  0  0  0  0  0
    8.6609   -5.1004    0.0000 C   0  0  0  0  0  0  0  0  0  0  0  0
  1  2  1  0  0  0  0
  2  3  1  0  0  0  0
  3  4  1  0  0  0  0
  4  5  1  0  0  0  0
  5  6  1  0  0  0  0
  6  1  1  0  0  0  0
  4  7  1  0  0  0  0
  7  8  1  0  0  0  0
  8  9  2  0  0  0  0
  9 10  1  0  0  0  0
 10  5  1  0  0  0  0
  9 11  1  0  0  0  0
 11 12  1  0  0  0  0
 12 13  1  0  0  0  0
 13 14  1  0  0  0  0
 14 10  1  0  0  0  0
 11 15  1  0  0  0  0
 15 16  1  0  0  0  0
 16 17  1  0  0  0  0
 17 12  1  0  0  0  0
  5 18  1  1  0  0  0
  1 19  1  1  0  0  0
  2 20  1  1  0  0  0
  4 21  1  1  0  0  0
 12 22  1  1  0  0  0
 11 23  1  6  0  0  0
 10 24  1  6  0  0  0
  7 25  2  0  0  0  0
 17 26  1  0  0  0  0
 26 27  1  1  0  0  0
 26 28  1  0  0  0  0
 28 29  1  6  0  0  0
 28 30  1  0  0  0  0
 30 31  1  0  0  0  0
 31 32  2  0  0  0  0
 31 33  1  0  0  0  0
 33 34  1  0  0  0  0
 33 35  1  0  0  0  0
 33 36  1  0  0  0  0
 17 37  1  6  0  0  0
 26 38  1  6  0  0  0
M  END
>  <cdx:fragmentId>
5

$$$$
