300326.cdx
  Mrv1902 05222410242D          

 35 39  0  0  0  0            999 V2000
    5.4057   -6.3408    0.0000 C   0  0  2  0  0  0  0  0  0  0  0  0
    5.4057   -7.1658    0.0000 C   0  0  1  0  0  0  0  0  0  0  0  0
    4.6912   -7.5783    0.0000 C   0  0  0  0  0  0  0  0  0  0  0  0
    3.9767   -7.1658    0.0000 C   0  0  0  0  0  0  0  0  0  0  0  0
    3.2623   -7.5783    0.0000 C   0  0  0  0  0  0  0  0  0  0  0  0
    2.5478   -7.1658    0.0000 C   0  0  0  0  0  0  0  0  0  0  0  0
    2.5478   -6.3408    0.0000 C   0  0  0  0  0  0  0  0  0  0  0  0
    3.2623   -5.9283    0.0000 C   0  0  0  0  0  0  0  0  0  0  0  0
    3.9767   -6.3408    0.0000 C   0  0  0  0  0  0  0  0  0  0  0  0
    4.6912   -5.9283    0.0000 O   0  0  0  0  0  0  0  0  0  0  0  0
    4.6912   -8.4033    0.0000 O   0  0  0  0  0  0  0  0  0  0  0  0
    8.2636   -4.6908    0.0000 O   0  0  0  0  0  0  0  0  0  0  0  0
    8.9780   -5.1033    0.0000 C   0  0  2  0  0  0  0  0  0  0  0  0
    8.9780   -5.9283    0.0000 C   0  0  1  0  0  0  0  0  0  0  0  0
    8.2636   -6.3408    0.0000 O   0  0  0  0  0  0  0  0  0  0  0  0
    7.5491   -5.9283    0.0000 C   0  0  0  0  0  0  0  0  0  0  0  0
    7.5491   -5.1033    0.0000 C   0  0  0  0  0  0  0  0  0  0  0  0
    6.8346   -6.3408    0.0000 C   0  0  0  0  0  0  0  0  0  0  0  0
    6.1201   -5.9283    0.0000 C   0  0  0  0  0  0  0  0  0  0  0  0
    6.1201   -5.1033    0.0000 C   0  0  0  0  0  0  0  0  0  0  0  0
    6.8346   -4.6908    0.0000 C   0  0  0  0  0  0  0  0  0  0  0  0
    9.6925   -4.6908    0.0000 C   0  0  0  0  0  0  0  0  0  0  0  0
   10.4070   -5.1033    0.0000 O   0  0  0  0  0  0  0  0  0  0  0  0
    9.6925   -6.3408    0.0000 C   0  0  0  0  0  0  0  0  0  0  0  0
   10.4070   -5.9283    0.0000 C   0  0  0  0  0  0  0  0  0  0  0  0
   11.1214   -6.3408    0.0000 C   0  0  0  0  0  0  0  0  0  0  0  0
   11.1214   -7.1658    0.0000 C   0  0  0  0  0  0  0  0  0  0  0  0
   10.4070   -7.5783    0.0000 C   0  0  0  0  0  0  0  0  0  0  0  0
    9.6925   -7.1658    0.0000 C   0  0  0  0  0  0  0  0  0  0  0  0
   11.8359   -5.9283    0.0000 O   0  0  0  0  0  0  0  0  0  0  0  0
   12.5504   -6.3408    0.0000 C   0  0  0  0  0  0  0  0  0  0  0  0
   11.8359   -7.5783    0.0000 O   0  0  0  0  0  0  0  0  0  0  0  0
    1.8333   -5.9283    0.0000 O   0  0  0  0  0  0  0  0  0  0  0  0
    3.2623   -8.4033    0.0000 O   0  0  0  0  0  0  0  0  0  0  0  0
    6.1201   -7.5783    0.0000 O   0  0  0  0  0  0  0  0  0  0  0  0
  1  2  1  0  0  0  0
  2  3  1  0  0  0  0
  3  4  1  0  0  0  0
  4  5  1  0  0  0  0
  5  6  2  0  0  0  0
  6  7  1  0  0  0  0
  7  8  2  0  0  0  0
  8  9  1  0  0  0  0
  4  9  2  0  0  0  0
  9 10  1  0  0  0  0
  1 10  1  0  0  0  0
  3 11  2  0  0  0  0
 12 13  1  0  0  0  0
 13 14  1  0  0  0  0
 14 15  1  0  0  0  0
 15 16  1  0  0  0  0
 16 17  1  0  0  0  0
 12 17  1  0  0  0  0
 18 19  1  0  0  0  0
 19 20  2  0  0  0  0
 20 21  1  0  0  0  0
 17 21  2  0  0  0  0
 16 18  2  0  0  0  0
 22 23  1  0  0  0  0
 13 22  1  1  0  0  0
 24 25  1  0  0  0  0
 25 26  2  0  0  0  0
 26 27  1  0  0  0  0
 27 28  2  0  0  0  0
 28 29  1  0  0  0  0
 24 29  2  0  0  0  0
 30 31  1  0  0  0  0
 26 30  1  0  0  0  0
 27 32  1  0  0  0  0
 14 24  1  6  0  0  0
  1 19  1  6  0  0  0
  7 33  1  0  0  0  0
  5 34  1  0  0  0  0
  2 35  1  6  0  0  0
M  END
>  <cdx:fragmentId>
4892

$$$$
