30031.cdx
  Mrv1902 05222410222D          

110121  0  0  0  0            999 V2000
    8.1583   -2.2951    0.0000 C   0  0  1  0  0  0  0  0  0  0  0  0
    8.1583   -2.9551    0.0000 C   0  0  1  0  0  0  0  0  0  0  0  0
    8.7298   -3.2851    0.0000 C   0  0  2  0  0  0  0  0  0  0  0  0
    9.3014   -2.9551    0.0000 O   0  0  0  0  0  0  0  0  0  0  0  0
    9.3014   -2.2951    0.0000 C   0  0  2  0  0  0  0  0  0  0  0  0
    8.7298   -1.9651    0.0000 C   0  0  1  0  0  0  0  0  0  0  0  0
    9.8730   -1.9651    0.0000 C   0  0  0  0  0  0  0  0  0  0  0  0
    9.8730   -1.3051    0.0000 O   0  0  0  0  0  0  0  0  0  0  0  0
    8.7298   -1.3051    0.0000 O   0  0  0  0  0  0  0  0  0  0  0  0
    8.7298   -3.9451    0.0000 C   0  0  0  0  0  0  0  0  0  0  0  0
    9.3014   -4.2751    0.0000 C   0  0  1  0  0  0  0  0  0  0  0  0
    9.8730   -3.9451    0.0000 C   0  0  2  0  0  0  0  0  0  0  0  0
    9.8730   -3.2851    0.0000 O   0  0  0  0  0  0  0  0  0  0  0  0
    9.3014   -4.9351    0.0000 C   0  0  2  0  0  0  0  0  0  0  0  0
    9.8730   -5.2651    0.0000 O   0  0  0  0  0  0  0  0  0  0  0  0
   10.4446   -4.9351    0.0000 C   0  0  2  0  0  0  0  0  0  0  0  0
   10.4446   -4.2751    0.0000 C   0  0  2  0  0  0  0  0  0  0  0  0
    8.7298   -5.2651    0.0000 O   0  0  0  0  0  0  0  0  0  0  0  0
    8.7298   -5.9251    0.0000 C   0  0  2  0  0  0  0  0  0  0  0  0
    9.3014   -6.2551    0.0000 C   0  0  0  0  0  0  0  0  0  0  0  0
    8.1583   -6.2551    0.0000 C   0  0  2  0  0  0  0  0  0  0  0  0
    8.1583   -6.9151    0.0000 C   0  0  0  0  0  0  0  0  0  0  0  0
    8.7298   -7.2451    0.0000 C   0  0  1  0  0  0  0  0  0  0  0  0
    9.3014   -6.9151    0.0000 C   0  0  0  0  0  0  0  0  0  0  0  0
    7.5867   -7.2451    0.0000 C   0  0  0  0  0  0  0  0  0  0  0  0
    7.5867   -7.9051    0.0000 C   0  0  0  0  0  0  0  0  0  0  0  0
    8.1583   -8.2351    0.0000 C   0  0  1  0  0  0  0  0  0  0  0  0
    8.7298   -7.9051    0.0000 C   0  0  0  0  0  0  0  0  0  0  0  0
    8.1583   -8.8951    0.0000 C   0  0  2  0  0  0  0  0  0  0  0  0
    8.7298   -9.2251    0.0000 C   0  0  0  0  0  0  0  0  0  0  0  0
    9.3014   -8.8951    0.0000 C   0  0  0  0  0  0  0  0  0  0  0  0
    9.3014   -8.2351    0.0000 C   0  0  0  0  0  0  0  0  0  0  0  0
    7.5867   -9.2251    0.0000 C   0  0  0  0  0  0  0  0  0  0  0  0
    7.5867   -9.8851    0.0000 C   0  0  1  0  0  0  0  0  0  0  0  0
    8.1583  -10.2151    0.0000 C   0  0  1  0  0  0  0  0  0  0  0  0
    8.7298   -9.8851    0.0000 C   0  0  2  0  0  0  0  0  0  0  0  0
    8.1583  -10.8751    0.0000 C   0  0  0  0  0  0  0  0  0  0  0  0
    8.7298  -11.2051    0.0000 C   0  0  0  0  0  0  0  0  0  0  0  0
    9.3014  -10.8751    0.0000 C   0  0  0  0  0  0  0  0  0  0  0  0
    9.3014  -10.2151    0.0000 C   0  0  0  0  0  0  0  0  0  0  0  0
    7.5867  -10.5451    0.0000 C   0  0  0  0  0  0  0  0  0  0  0  0
    7.5867  -11.2051    0.0000 O   0  0  0  0  0  0  0  0  0  0  0  0
    7.0151  -10.2151    0.0000 O   0  0  0  0  0  0  0  0  0  0  0  0
    7.0151  -11.5351    0.0000 C   0  0  1  0  0  0  0  0  0  0  0  0
    6.4435  -11.2051    0.0000 O   0  0  0  0  0  0  0  0  0  0  0  0
    5.8719  -11.5351    0.0000 C   0  0  2  0  0  0  0  0  0  0  0  0
    5.8719  -12.1951    0.0000 C   0  0  2  0  0  0  0  0  0  0  0  0
    6.4435  -12.5251    0.0000 C   0  0  2  0  0  0  0  0  0  0  0  0
    7.0151  -12.1951    0.0000 C   0  0  2  0  0  0  0  0  0  0  0  0
    5.3004  -11.2051    0.0000 C   0  0  0  0  0  0  0  0  0  0  0  0
    4.7288  -11.5351    0.0000 O   0  0  0  0  0  0  0  0  0  0  0  0
    4.7288  -12.1951    0.0000 C   0  0  2  0  0  0  0  0  0  0  0  0
    5.3004  -12.5251    0.0000 O   0  0  0  0  0  0  0  0  0  0  0  0
    4.1572  -11.2051    0.0000 C   0  0  2  0  0  0  0  0  0  0  0  0
    3.5856  -11.5351    0.0000 C   0  0  2  0  0  0  0  0  0  0  0  0
    3.5856  -12.1951    0.0000 C   0  0  2  0  0  0  0  0  0  0  0  0
    4.1572  -12.5251    0.0000 C   0  0  2  0  0  0  0  0  0  0  0  0
    6.4435  -13.1851    0.0000 O   0  0  0  0  0  0  0  0  0  0  0  0
    7.0151  -13.5151    0.0000 O   0  0  0  0  0  0  0  0  0  0  0  0
    7.5867  -13.1851    0.0000 C   0  0  2  0  0  0  0  0  0  0  0  0
    7.5867  -12.5251    0.0000 O   0  0  0  0  0  0  0  0  0  0  0  0
    7.0151  -14.1751    0.0000 C   0  0  1  0  0  0  0  0  0  0  0  0
    7.5867  -14.5051    0.0000 C   0  0  2  0  0  0  0  0  0  0  0  0
    8.1583  -14.1751    0.0000 C   0  0  1  0  0  0  0  0  0  0  0  0
    8.1583  -13.5151    0.0000 C   0  0  2  0  0  0  0  0  0  0  0  0
    6.4435  -14.5051    0.0000 C   0  0  0  0  0  0  0  0  0  0  0  0
    6.4435  -15.1651    0.0000 O   0  0  0  0  0  0  0  0  0  0  0  0
    7.0151  -15.4951    0.0000 C   0  0  2  0  0  0  0  0  0  0  0  0
    7.5867  -15.1651    0.0000 O   0  0  0  0  0  0  0  0  0  0  0  0
    5.8719  -15.4951    0.0000 C   0  0  0  0  0  0  0  0  0  0  0  0
    5.8719  -16.1551    0.0000 C   0  0  1  0  0  0  0  0  0  0  0  0
    6.4435  -16.4851    0.0000 C   0  0  2  0  0  0  0  0  0  0  0  0
    7.0151  -16.1551    0.0000 C   0  0  2  0  0  0  0  0  0  0  0  0
    5.3004  -16.4851    0.0000 O   0  0  0  0  0  0  0  0  0  0  0  0
    5.3004  -17.1451    0.0000 O   0  0  0  0  0  0  0  0  0  0  0  0
    5.8719  -17.4751    0.0000 C   0  0  2  0  0  0  0  0  0  0  0  0
    6.4435  -17.1451    0.0000 O   0  0  0  0  0  0  0  0  0  0  0  0
    4.7288  -17.4751    0.0000 C   0  0  2  0  0  0  0  0  0  0  0  0
    4.7288  -18.1351    0.0000 C   0  0  1  0  0  0  0  0  0  0  0  0
    5.3004  -18.4651    0.0000 C   0  0  2  0  0  0  0  0  0  0  0  0
    5.8719  -18.1351    0.0000 C   0  0  2  0  0  0  0  0  0  0  0  0
    4.1572  -16.4851    0.0000 O   0  0  0  0  0  0  0  0  0  0  0  0
    4.1572  -17.1451    0.0000 C   0  0  0  0  0  0  0  0  0  0  0  0
    7.5867   -1.9651    0.0000 O   0  0  0  0  0  0  0  0  0  0  0  0
   11.0161   -5.2651    0.0000 C   0  0  0  0  0  0  0  0  0  0  0  0
    7.4983   -6.2551    0.0000 C   0  0  0  0  0  0  0  0  0  0  0  0
    9.3014   -7.5751    0.0000 C   0  0  0  0  0  0  0  0  0  0  0  0
    7.5207   -8.4060    0.0000 C   0  0  0  0  0  0  0  0  0  0  0  0
    9.1227   -9.6651    0.0000 H   0  0  0  0  0  0  0  0  0  0  0  0
    4.1572  -10.5451    0.0000 C   0  0  0  0  0  0  0  0  0  0  0  0
    3.0141  -11.2051    0.0000 O   0  0  0  0  0  0  0  0  0  0  0  0
    3.0141  -12.5251    0.0000 O   0  0  0  0  0  0  0  0  0  0  0  0
    7.5867   -3.2851    0.0000 O   0  0  0  0  0  0  0  0  0  0  0  0
   11.0161   -3.9451    0.0000 O   0  0  0  0  0  0  0  0  0  0  0  0
    7.5207   -8.7243    0.0000 C   0  0  0  0  0  0  0  0  0  0  0  0
    6.9267   -9.8851    0.0000 O   0  0  0  0  0  0  0  0  0  0  0  0
    4.1572  -13.1851    0.0000 O   0  0  0  0  0  0  0  0  0  0  0  0
    8.7298  -13.1851    0.0000 O   0  0  0  0  0  0  0  0  0  0  0  0
    8.7298  -14.5051    0.0000 O   0  0  0  0  0  0  0  0  0  0  0  0
    7.5867  -16.4851    0.0000 O   0  0  0  0  0  0  0  0  0  0  0  0
    6.4435  -18.4651    0.0000 O   0  0  0  0  0  0  0  0  0  0  0  0
    4.1572  -18.4651    0.0000 O   0  0  0  0  0  0  0  0  0  0  0  0
   11.5877   -4.9351    0.0000 O   0  0  0  0  0  0  0  0  0  0  0  0
   11.0161   -5.9251    0.0000 O   0  0  0  0  0  0  0  0  0  0  0  0
    7.8283   -5.6836    0.0000 C   0  0  0  0  0  0  0  0  0  0  0  0
    7.1683   -5.6836    0.0000 O   0  0  0  0  0  0  0  0  0  0  0  0
    8.0895   -5.3045    0.0000 H   0  0  0  0  0  0  0  0  0  0  0  0
    9.9614  -10.8751    0.0000 C   0  0  0  0  0  0  0  0  0  0  0  0
    9.4722  -11.5127    0.0000 C   0  0  0  0  0  0  0  0  0  0  0  0
    5.3004  -19.1251    0.0000 O   0  0  0  0  0  0  0  0  0  0  0  0
  1  2  1  0  0  0  0
  2  3  1  0  0  0  0
  3  4  1  0  0  0  0
  4  5  1  0  0  0  0
  5  6  1  0  0  0  0
  6  1  1  0  0  0  0
  5  7  1  6  0  0  0
  7  8  1  0  0  0  0
  6  9  1  6  0  0  0
  3 10  1  6  0  0  0
 11 10  1  1  0  0  0
 11 12  1  0  0  0  0
 12 13  1  6  0  0  0
 11 14  1  0  0  0  0
 14 15  1  0  0  0  0
 15 16  1  0  0  0  0
 16 17  1  0  0  0  0
 17 12  1  0  0  0  0
 14 18  1  6  0  0  0
 19 18  1  6  0  0  0
 19 20  1  0  0  0  0
 19 21  1  0  0  0  0
 21 22  1  0  0  0  0
 22 23  1  0  0  0  0
 23 24  1  0  0  0  0
 24 20  1  0  0  0  0
 22 25  1  0  0  0  0
 25 26  1  0  0  0  0
 26 27  1  0  0  0  0
 27 28  1  0  0  0  0
 28 23  1  0  0  0  0
 27 29  1  0  0  0  0
 29 30  1  0  0  0  0
 30 31  2  0  0  0  0
 31 32  1  0  0  0  0
 32 28  1  0  0  0  0
 29 33  1  0  0  0  0
 33 34  1  0  0  0  0
 34 35  1  0  0  0  0
 35 36  1  0  0  0  0
 36 30  1  0  0  0  0
 35 37  1  0  0  0  0
 37 38  1  0  0  0  0
 38 39  1  0  0  0  0
 39 40  1  0  0  0  0
 40 36  1  0  0  0  0
 35 41  1  6  0  0  0
 41 42  1  0  0  0  0
 41 43  2  0  0  0  0
 44 42  1  6  0  0  0
 44 45  1  0  0  0  0
 45 46  1  0  0  0  0
 46 47  1  0  0  0  0
 47 48  1  0  0  0  0
 48 49  1  0  0  0  0
 49 44  1  0  0  0  0
 46 50  1  6  0  0  0
 51 52  1  0  0  0  0
 52 53  1  6  0  0  0
 47 53  1  6  0  0  0
 51 54  1  0  0  0  0
 54 55  1  0  0  0  0
 55 56  1  0  0  0  0
 56 57  1  0  0  0  0
 57 52  1  0  0  0  0
 48 58  1  6  0  0  0
 59 60  1  0  0  0  0
 60 61  1  6  0  0  0
 49 61  1  1  0  0  0
 59 62  1  0  0  0  0
 62 63  1  0  0  0  0
 63 64  1  0  0  0  0
 64 65  1  0  0  0  0
 65 60  1  0  0  0  0
 62 66  1  1  0  0  0
 67 68  1  0  0  0  0
 68 69  1  6  0  0  0
 63 69  1  6  0  0  0
 67 70  1  0  0  0  0
 70 71  1  0  0  0  0
 71 72  1  0  0  0  0
 72 73  1  0  0  0  0
 73 68  1  0  0  0  0
 71 74  1  1  0  0  0
 75 76  1  0  0  0  0
 76 77  1  6  0  0  0
 72 77  1  6  0  0  0
 75 78  1  0  0  0  0
 78 79  1  0  0  0  0
 79 80  1  0  0  0  0
 80 81  1  0  0  0  0
 81 76  1  0  0  0  0
 82 83  1  0  0  0  0
 78 83  1  6  0  0  0
  1 84  1  6  0  0  0
 16 85  1  6  0  0  0
 21 86  1  6  0  0  0
 23 87  1  6  0  0  0
 27 88  1  6  0  0  0
 36 89  1  6  0  0  0
 54 90  1  6  0  0  0
 55 91  1  6  0  0  0
 56 92  1  6  0  0  0
  2 93  1  1  0  0  0
 17 94  1  1  0  0  0
 29 95  1  1  0  0  0
 34 96  1  1  0  0  0
 57 97  1  1  0  0  0
 65 98  1  1  0  0  0
 64 99  1  1  0  0  0
 73100  1  1  0  0  0
 81101  1  1  0  0  0
 79102  1  1  0  0  0
 85103  1  0  0  0  0
 85104  2  0  0  0  0
 21105  1  0  0  0  0
105106  2  0  0  0  0
105107  1  0  0  0  0
 39108  1  0  0  0  0
 39109  1  0  0  0  0
 80110  1  6  0  0  0
M  END
>  <cdx:fragmentId>
5

$$$$
