300304.cdx
  Mrv1902 05222410212D          

  8  7  0  0  0  0            999 V2000
    6.1806   -6.7533    0.0000 C   0  0  0  0  0  0  0  0  0  0  0  0
    5.4661   -7.1658    0.0000 C   0  0  0  0  0  0  0  0  0  0  0  0
    4.7516   -6.7533    0.0000 C   0  0  0  0  0  0  0  0  0  0  0  0
    6.1806   -5.9283    0.0000 O   0  0  0  0  0  0  0  0  0  0  0  0
    6.8950   -7.1658    0.0000 O   0  0  0  0  0  0  0  0  0  0  0  0
    7.6095   -6.7533    0.0000 C   0  0  0  0  0  0  0  0  0  0  0  0
    8.3240   -7.1658    0.0000 C   0  0  0  0  0  0  0  0  0  0  0  0
    9.0384   -6.7533    0.0000 O   0  0  0  0  0  0  0  0  0  0  0  0
  1  2  1  0  0  0  0
  2  3  2  0  0  0  0
  1  4  2  0  0  0  0
  1  5  1  0  0  0  0
  6  7  1  0  0  0  0
  7  8  1  0  0  0  0
  5  6  1  0  0  0  0
M  END
>  <cdx:fragmentId>
3685

$$$$
