300354.cdx
  Mrv1902 05222410272D          

 13 12  0  0  0  0            999 V2000
    5.0375   -5.1637    0.0000 C   0  0  0  0  0  0  0  0  0  0  0  0
    5.0375   -5.9887    0.0000 C   0  0  0  0  0  0  0  0  0  0  0  0
    5.7520   -6.4012    0.0000 C   0  0  0  0  0  0  0  0  0  0  0  0
    6.4665   -6.8137    0.0000 C   0  0  0  0  0  0  0  0  0  0  0  0
    7.1809   -7.2262    0.0000 C   0  0  0  0  0  0  0  0  0  0  0  0
    7.8954   -6.8137    0.0000 C   0  0  0  0  0  0  0  0  0  0  0  0
    8.6099   -7.2262    0.0000 C   0  0  0  0  0  0  0  0  0  0  0  0
    9.3244   -6.8137    0.0000 C   0  0  0  0  0  0  0  0  0  0  0  0
    9.3244   -5.9887    0.0000 C   0  0  0  0  0  0  0  0  0  0  0  0
    7.5934   -7.9407    0.0000 O   0  0  0  0  0  0  0  0  0  0  0  0
   10.0388   -7.2262    0.0000 C   0  0  0  0  0  0  0  0  0  0  0  0
    6.7684   -7.9407    0.0000 C   0  0  0  0  0  0  0  0  0  0  0  0
    4.3231   -6.4012    0.0000 C   0  0  0  0  0  0  0  0  0  0  0  0
  1  2  2  0  0  0  0
  2  3  1  0  0  0  0
  3  4  3  0  0  0  0
  4  5  1  0  0  0  0
  5  6  1  0  0  0  0
  6  7  1  0  0  0  0
  7  8  1  0  0  0  0
  8  9  1  0  0  0  0
  5 10  1  0  0  0  0
  8 11  1  0  0  0  0
  5 12  1  0  0  0  0
  2 13  1  0  0  0  0
M  END
>  <cdx:fragmentId>
302

$$$$
