30031.cdx
  Mrv1902 05222410222D          

  8  7  0  0  0  0            999 V2000
    7.0434   -7.5856    0.0000 C   0  0  0  0  0  0  0  0  0  0  0  0
    7.0434   -6.7606    0.0000 C   0  0  0  0  0  0  0  0  0  0  0  0
    7.7579   -7.1731    0.0000 C   0  0  0  0  0  0  0  0  0  0  0  0
    8.4724   -6.7606    0.0000 C   0  0  0  0  0  0  0  0  0  0  0  0
    6.3290   -7.1731    0.0000 O   0  0  0  0  0  0  0  0  0  0  0  0
    5.6145   -6.7606    0.0000 C   0  0  0  0  0  0  0  0  0  0  0  0
    7.0434   -5.9356    0.0000 O   0  0  0  0  0  0  0  0  0  0  0  0
    7.7579   -5.5231    0.0000 C   0  0  0  0  0  0  0  0  0  0  0  0
  1  2  1  0  0  0  0
  2  3  1  0  0  0  0
  3  4  1  0  0  0  0
  5  6  1  0  0  0  0
  2  5  1  0  0  0  0
  7  8  1  0  0  0  0
  2  7  1  0  0  0  0
M  END
>  <cdx:fragmentId>
4160

$$$$
