300316.cdx
  Mrv1902 05222410222D          

 13 13  0  0  0  0            999 V2000
    9.1219   -7.7846    0.0000 C   0  0  0  0  0  0  0  0  0  0  0  0
    8.4074   -7.3721    0.0000 C   0  0  0  0  0  0  0  0  0  0  0  0
    7.6929   -7.7846    0.0000 O   0  0  0  0  0  0  0  0  0  0  0  0
    6.9785   -7.3721    0.0000 C   0  0  0  0  0  0  0  0  0  0  0  0
    6.2640   -7.7846    0.0000 C   0  0  0  0  0  0  0  0  0  0  0  0
    5.5495   -7.3721    0.0000 C   0  0  0  0  0  0  0  0  0  0  0  0
    5.5495   -6.5471    0.0000 C   0  0  0  0  0  0  0  0  0  0  0  0
    6.2640   -6.1346    0.0000 C   0  0  0  0  0  0  0  0  0  0  0  0
    6.9785   -6.5471    0.0000 N   0  0  0  0  0  0  0  0  0  0  0  0
    4.8351   -6.1346    0.0000 N   0  3  0  0  0  0  0  0  0  0  0  0
    4.8351   -5.3096    0.0000 O   0  0  0  0  0  0  0  0  0  0  0  0
    4.1206   -6.5471    0.0000 O   0  5  0  0  0  0  0  0  0  0  0  0
    9.8364   -7.3721    0.0000 O   0  0  0  0  0  0  0  0  0  0  0  0
  1  2  1  0  0  0  0
  4  5  1  0  0  0  0
  5  6  2  0  0  0  0
  6  7  1  0  0  0  0
  7  8  2  0  0  0  0
  8  9  1  0  0  0  0
  4  9  2  0  0  0  0
 10 11  2  0  0  0  0
 10 12  1  0  0  0  0
  7 10  1  0  0  0  0
  3  4  1  0  0  0  0
  2  3  1  0  0  0  0
  1 13  1  0  0  0  0
M  CHG  2  10   1  12  -1
M  END
>  <cdx:fragmentId>
4287

$$$$
