300390.cdx
  Mrv1902 05222410262D          

 34 37  0  0  0  0            999 V2000
    5.3971   -7.5797    0.0000 C   0  0  1  0  0  0  0  0  0  0  0  0
    6.1116   -7.9922    0.0000 C   0  0  0  0  0  0  0  0  0  0  0  0
    6.1116   -8.8172    0.0000 C   0  0  0  0  0  0  0  0  0  0  0  0
    5.3971   -9.2297    0.0000 C   0  0  0  0  0  0  0  0  0  0  0  0
    4.6827   -8.8172    0.0000 C   0  0  1  0  0  0  0  0  0  0  0  0
    3.9682   -9.2297    0.0000 C   0  0  0  0  0  0  0  0  0  0  0  0
    3.2537   -8.8172    0.0000 C   0  0  2  0  0  0  0  0  0  0  0  0
    3.2537   -7.9922    0.0000 C   0  0  0  0  0  0  0  0  0  0  0  0
    3.9682   -7.5797    0.0000 C   0  0  0  0  0  0  0  0  0  0  0  0
    4.6827   -7.9922    0.0000 C   0  0  2  0  0  0  0  0  0  0  0  0
    6.8261   -7.5797    0.0000 O   0  0  0  0  0  0  0  0  0  0  0  0
    4.6827   -7.1672    0.0000 C   0  0  0  0  0  0  0  0  0  0  0  0
    4.3807   -9.9442    0.0000 C   0  0  0  0  0  0  0  0  0  0  0  0
    3.5557   -9.9442    0.0000 C   0  0  0  0  0  0  0  0  0  0  0  0
    2.5393   -9.2297    0.0000 O   0  0  0  0  0  0  0  0  0  0  0  0
    5.3971   -6.7547    0.0000 C   0  0  0  0  0  0  0  0  0  0  0  0
    6.1116   -6.3422    0.0000 C   0  0  0  0  0  0  0  0  0  0  0  0
    6.1116   -5.5172    0.0000 C   0  0  1  0  0  0  0  0  0  0  0  0
    5.3971   -5.1047    0.0000 C   0  0  0  0  0  0  0  0  0  0  0  0
    5.3971   -4.2797    0.0000 C   0  0  0  0  0  0  0  0  0  0  0  0
    6.1116   -3.8672    0.0000 C   0  0  0  0  0  0  0  0  0  0  0  0
    6.8261   -4.2797    0.0000 C   0  0  1  0  0  0  0  0  0  0  0  0
    7.5406   -3.8672    0.0000 C   0  0  0  0  0  0  0  0  0  0  0  0
    8.2550   -4.2797    0.0000 C   0  0  2  0  0  0  0  0  0  0  0  0
    8.2550   -5.1047    0.0000 C   0  0  0  0  0  0  0  0  0  0  0  0
    7.5406   -5.5172    0.0000 C   0  0  0  0  0  0  0  0  0  0  0  0
    6.8261   -5.1047    0.0000 C   0  0  2  0  0  0  0  0  0  0  0  0
    4.6827   -5.5172    0.0000 C   0  0  0  0  0  0  0  0  0  0  0  0
    6.8261   -5.9297    0.0000 C   0  0  0  0  0  0  0  0  0  0  0  0
    7.1281   -3.1527    0.0000 C   0  0  0  0  0  0  0  0  0  0  0  0
    7.9531   -3.1527    0.0000 C   0  0  0  0  0  0  0  0  0  0  0  0
    8.9695   -3.8672    0.0000 O   0  0  0  0  0  0  0  0  0  0  0  0
    4.6827   -9.6422    0.0000 H   0  0  0  0  0  0  0  0  0  0  0  0
    6.8261   -3.4547    0.0000 H   0  0  0  0  0  0  0  0  0  0  0  0
  1  2  1  0  0  0  0
  2  3  1  0  0  0  0
  3  4  1  0  0  0  0
  4  5  1  0  0  0  0
  5  6  1  0  0  0  0
  6  7  1  0  0  0  0
  7  8  1  0  0  0  0
  8  9  1  0  0  0  0
  9 10  1  0  0  0  0
  1 10  1  0  0  0  0
  5 10  1  0  0  0  0
  2 11  2  0  0  0  0
 10 12  1  1  0  0  0
  6 13  1  0  0  0  0
  6 14  1  0  0  0  0
  7 15  1  1  0  0  0
 16 17  1  0  0  0  0
 18 19  1  0  0  0  0
 19 20  1  0  0  0  0
 20 21  1  0  0  0  0
 21 22  1  0  0  0  0
 22 23  1  0  0  0  0
 23 24  1  0  0  0  0
 24 25  1  0  0  0  0
 25 26  1  0  0  0  0
 26 27  1  0  0  0  0
 18 27  1  0  0  0  0
 22 27  1  0  0  0  0
 19 28  2  0  0  0  0
 27 29  1  1  0  0  0
 23 30  1  0  0  0  0
 23 31  1  0  0  0  0
 24 32  1  1  0  0  0
 18 17  1  1  0  0  0
  1 16  1  1  0  0  0
  5 33  1  6  0  0  0
 22 34  1  6  0  0  0
M  END
>  <cdx:fragmentId>
2728

$$$$
