300351.cdx
  Mrv1902 05222410272D          

 13 13  0  0  0  0            999 V2000
    5.8991   -6.1346    0.0000 C   0  0  0  0  0  0  0  0  0  0  0  0
    5.1846   -6.5471    0.0000 C   0  0  0  0  0  0  0  0  0  0  0  0
    5.1846   -7.3721    0.0000 C   0  0  0  0  0  0  0  0  0  0  0  0
    4.4701   -7.7846    0.0000 C   0  0  0  0  0  0  0  0  0  0  0  0
    3.7557   -7.3721    0.0000 C   0  0  0  0  0  0  0  0  0  0  0  0
    3.7557   -6.5471    0.0000 C   0  0  0  0  0  0  0  0  0  0  0  0
    4.4701   -6.1346    0.0000 C   0  0  0  0  0  0  0  0  0  0  0  0
    5.8991   -5.3096    0.0000 O   0  0  0  0  0  0  0  0  0  0  0  0
    6.6136   -6.5471    0.0000 O   0  0  0  0  0  0  0  0  0  0  0  0
    3.0412   -6.1346    0.0000 O   0  0  0  0  0  0  0  0  0  0  0  0
    5.8991   -7.7846    0.0000 O   0  0  0  0  0  0  0  0  0  0  0  0
    7.3280   -6.1346    0.0000 C   0  0  0  0  0  0  0  0  0  0  0  0
    8.0425   -6.5471    0.0000 C   0  0  0  0  0  0  0  0  0  0  0  0
  1  2  1  0  0  0  0
  2  3  1  0  0  0  0
  3  4  2  0  0  0  0
  4  5  1  0  0  0  0
  5  6  2  0  0  0  0
  6  7  1  0  0  0  0
  2  7  2  0  0  0  0
  1  8  2  0  0  0  0
  1  9  1  0  0  0  0
  6 10  1  0  0  0  0
  3 11  1  0  0  0  0
 12 13  1  0  0  0  0
  9 12  1  0  0  0  0
M  END
>  <cdx:fragmentId>
87

$$$$
