300341.cdx
  Mrv1902 05222410272D          

 13 13  0  0  0  0            999 V2000
    8.8296   -6.1346    0.0000 C   0  0  0  0  0  0  0  0  0  0  0  0
    8.1151   -6.5471    0.0000 C   0  0  0  0  0  0  0  0  0  0  0  0
    7.4007   -6.1346    0.0000 C   0  0  0  0  0  0  0  0  0  0  0  0
    8.8296   -5.3096    0.0000 O   0  0  0  0  0  0  0  0  0  0  0  0
    9.5441   -6.5471    0.0000 O   0  0  0  0  0  0  0  0  0  0  0  0
    6.6862   -6.5471    0.0000 C   0  0  0  0  0  0  0  0  0  0  0  0
    6.6862   -7.3721    0.0000 C   0  0  0  0  0  0  0  0  0  0  0  0
    5.9717   -7.7846    0.0000 C   0  0  0  0  0  0  0  0  0  0  0  0
    5.2573   -7.3721    0.0000 C   0  0  0  0  0  0  0  0  0  0  0  0
    5.2573   -6.5471    0.0000 C   0  0  0  0  0  0  0  0  0  0  0  0
    5.9717   -6.1346    0.0000 C   0  0  0  0  0  0  0  0  0  0  0  0
    4.5428   -7.7846    0.0000 O   0  0  0  0  0  0  0  0  0  0  0  0
    7.4007   -7.7846    0.0000 O   0  0  0  0  0  0  0  0  0  0  0  0
  1  2  1  0  0  0  0
  2  3  2  0  0  0  0
  1  4  2  0  0  0  0
  1  5  1  0  0  0  0
  6  7  1  0  0  0  0
  7  8  2  0  0  0  0
  8  9  1  0  0  0  0
  9 10  2  0  0  0  0
 10 11  1  0  0  0  0
  6 11  2  0  0  0  0
  9 12  1  0  0  0  0
  7 13  1  0  0  0  0
  3  6  1  0  0  0  0
M  END
>  <cdx:fragmentId>
5706

$$$$
