300300.cdx
  Mrv1902 05222410222D          

 30 32  0  0  0  0            999 V2000
    3.6161   -6.7533    0.0000 O   0  0  0  0  0  0  0  0  0  0  0  0
    2.9016   -6.3408    0.0000 C   0  0  2  0  0  0  0  0  0  0  0  0
    2.9016   -5.5158    0.0000 C   0  0  1  0  0  0  0  0  0  0  0  0
    3.6161   -5.1033    0.0000 C   0  0  2  0  0  0  0  0  0  0  0  0
    4.3305   -5.5158    0.0000 C   0  0  2  0  0  0  0  0  0  0  0  0
    4.3305   -6.3408    0.0000 C   0  0  2  0  0  0  0  0  0  0  0  0
    2.1871   -5.1033    0.0000 O   0  0  0  0  0  0  0  0  0  0  0  0
    3.6161   -4.2783    0.0000 O   0  0  0  0  0  0  0  0  0  0  0  0
    5.0450   -5.1033    0.0000 O   0  0  0  0  0  0  0  0  0  0  0  0
    5.0450   -6.7533    0.0000 O   0  0  0  0  0  0  0  0  0  0  0  0
    5.7595   -6.3408    0.0000 C   0  0  0  0  0  0  0  0  0  0  0  0
    7.1884   -6.3408    0.0000 O   0  0  0  0  0  0  0  0  0  0  0  0
    6.4739   -6.7533    0.0000 C   0  0  1  0  0  0  0  0  0  0  0  0
    6.4739   -7.5783    0.0000 C   0  0  2  0  0  0  0  0  0  0  0  0
    7.1884   -7.9908    0.0000 C   0  0  1  0  0  0  0  0  0  0  0  0
    7.9029   -7.5783    0.0000 C   0  0  2  0  0  0  0  0  0  0  0  0
    7.9029   -6.7533    0.0000 C   0  0  2  0  0  0  0  0  0  0  0  0
    8.6174   -6.3408    0.0000 O   0  0  0  0  0  0  0  0  0  0  0  0
    9.3318   -6.7533    0.0000 C   0  0  0  0  0  0  0  0  0  0  0  0
   10.0463   -6.3408    0.0000 C   0  0  0  0  0  0  0  0  0  0  0  0
   10.7608   -6.7533    0.0000 C   0  0  0  0  0  0  0  0  0  0  0  0
   11.4752   -6.3408    0.0000 C   0  0  0  0  0  0  0  0  0  0  0  0
   12.1897   -6.7533    0.0000 C   0  0  0  0  0  0  0  0  0  0  0  0
   12.1897   -7.5783    0.0000 C   0  0  0  0  0  0  0  0  0  0  0  0
   11.4752   -7.9908    0.0000 C   0  0  0  0  0  0  0  0  0  0  0  0
   10.7608   -7.5783    0.0000 C   0  0  0  0  0  0  0  0  0  0  0  0
    8.6174   -7.9908    0.0000 O   0  0  0  0  0  0  0  0  0  0  0  0
    7.1884   -8.8158    0.0000 O   0  0  0  0  0  0  0  0  0  0  0  0
    5.7595   -7.9908    0.0000 O   0  0  0  0  0  0  0  0  0  0  0  0
    2.1871   -6.7533    0.0000 C   0  0  0  0  0  0  0  0  0  0  0  0
  1  2  1  0  0  0  0
  2  3  1  0  0  0  0
  3  4  1  0  0  0  0
  4  5  1  0  0  0  0
  5  6  1  0  0  0  0
  1  6  1  0  0  0  0
  3  7  1  6  0  0  0
  4  8  1  1  0  0  0
  5  9  1  1  0  0  0
 10 11  1  0  0  0  0
 12 13  1  0  0  0  0
 13 14  1  0  0  0  0
 14 15  1  0  0  0  0
 15 16  1  0  0  0  0
 16 17  1  0  0  0  0
 12 17  1  0  0  0  0
 19 20  1  0  0  0  0
 18 19  1  0  0  0  0
 21 22  1  0  0  0  0
 22 23  2  0  0  0  0
 23 24  1  0  0  0  0
 24 25  2  0  0  0  0
 25 26  1  0  0  0  0
 21 26  2  0  0  0  0
 20 21  1  0  0  0  0
 17 18  1  1  0  0  0
 16 27  1  6  0  0  0
 15 28  1  1  0  0  0
 14 29  1  6  0  0  0
 13 11  1  1  0  0  0
  6 10  1  6  0  0  0
  2 30  1  1  0  0  0
M  END
>  <cdx:fragmentId>
3415

$$$$
