300369.cdx
  Mrv1902 05222410272D          

 22 23  0  0  0  0            999 V2000
    7.9530   -8.4494    0.0000 O   0  0  0  0  0  0  0  0  0  0  0  0
    7.9542   -7.6244    0.0000 C   0  0  1  0  0  0  0  0  0  0  0  0
    7.2403   -7.2109    0.0000 C   0  0  1  0  0  0  0  0  0  0  0  0
    7.2415   -6.3859    0.0000 C   0  0  2  0  0  0  0  0  0  0  0  0
    7.9566   -5.9744    0.0000 C   0  0  1  0  0  0  0  0  0  0  0  0
    8.6705   -6.3880    0.0000 C   0  0  0  0  0  0  0  0  0  0  0  0
    8.6693   -7.2130    0.0000 C   0  0  2  0  0  0  0  0  0  0  0  0
    6.5277   -5.9723    0.0000 O   0  0  0  0  0  0  0  0  0  0  0  0
    6.5252   -7.6223    0.0000 O   0  0  0  0  0  0  0  0  0  0  0  0
    9.3831   -7.6265    0.0000 N   0  0  0  0  0  0  0  0  0  0  0  0
    7.9578   -5.1494    0.0000 N   0  0  0  0  0  0  0  0  0  0  0  0
    4.3803   -8.8595    0.0000 O   0  0  0  0  0  0  0  0  0  0  0  0
    5.0951   -8.4475    0.0000 C   0  0  0  0  0  0  0  0  0  0  0  0
    5.0940  -10.0975    0.0000 O   0  0  0  0  0  0  0  0  0  0  0  0
    6.5224  -10.9235    0.0000 O   0  0  0  0  0  0  0  0  0  0  0  0
    7.9519  -10.0994    0.0000 O   0  0  0  0  0  0  0  0  0  0  0  0
    5.8093   -8.8605    0.0000 C   0  0  2  0  0  0  0  0  0  0  0  0
    5.8087   -9.6855    0.0000 C   0  0  2  0  0  0  0  0  0  0  0  0
    6.5229  -10.0985    0.0000 C   0  0  1  0  0  0  0  0  0  0  0  0
    7.2377   -9.6864    0.0000 C   0  0  2  0  0  0  0  0  0  0  0  0
    7.2382   -8.8614    0.0000 C   0  0  2  0  0  0  0  0  0  0  0  0
    6.5240   -8.4485    0.0000 O   0  0  0  0  0  0  0  0  0  0  0  0
 21  1  1  6  0  0  0
 17 13  1  1  0  0  0
 13 12  1  0  0  0  0
 18 14  1  6  0  0  0
 19 15  1  1  0  0  0
 20 16  1  6  0  0  0
 22 17  1  0  0  0  0
 18 17  1  0  0  0  0
 19 18  1  0  0  0  0
 20 19  1  0  0  0  0
 21 20  1  0  0  0  0
 22 21  1  0  0  0  0
  2  3  1  0  0  0  0
  3  4  1  0  0  0  0
  4  5  1  0  0  0  0
  5  6  1  0  0  0  0
  6  7  1  0  0  0  0
  2  7  1  0  0  0  0
  4  8  1  1  0  0  0
  3  9  1  6  0  0  0
  7 10  1  6  0  0  0
  5 11  1  6  0  0  0
  2  1  1  1  0  0  0
M  END
>  <cdx:fragmentId>
29

$$$$
