300377.cdx
  Mrv1902 05222410202D          

 20 22  0  0  0  0            999 V2000
    5.3934   -5.5591    0.0000 C   0  0  0  0  0  0  0  0  0  0  0  0
    6.1079   -5.9716    0.0000 N   0  0  0  0  0  0  0  0  0  0  0  0
    6.1079   -6.7966    0.0000 C   0  0  0  0  0  0  0  0  0  0  0  0
    5.3934   -7.2091    0.0000 C   0  0  0  0  0  0  0  0  0  0  0  0
    4.6790   -6.7966    0.0000 C   0  0  0  0  0  0  0  0  0  0  0  0
    4.6790   -5.9716    0.0000 N   0  0  0  0  0  0  0  0  0  0  0  0
    5.3934   -4.7341    0.0000 O   0  0  0  0  0  0  0  0  0  0  0  0
    3.9645   -7.2091    0.0000 C   0  0  0  0  0  0  0  0  0  0  0  0
    3.9645   -8.0341    0.0000 C   0  0  0  0  0  0  0  0  0  0  0  0
    3.2500   -8.4466    0.0000 C   0  0  0  0  0  0  0  0  0  0  0  0
    2.5356   -8.0341    0.0000 C   0  0  0  0  0  0  0  0  0  0  0  0
    2.5356   -7.2091    0.0000 C   0  0  0  0  0  0  0  0  0  0  0  0
    3.2500   -6.7966    0.0000 C   0  0  0  0  0  0  0  0  0  0  0  0
    6.8224   -7.2091    0.0000 C   0  0  0  0  0  0  0  0  0  0  0  0
    7.5369   -6.7966    0.0000 C   0  0  0  0  0  0  0  0  0  0  0  0
    8.2513   -7.2091    0.0000 C   0  0  0  0  0  0  0  0  0  0  0  0
    8.2513   -8.0341    0.0000 C   0  0  0  0  0  0  0  0  0  0  0  0
    7.5369   -8.4466    0.0000 C   0  0  0  0  0  0  0  0  0  0  0  0
    6.8224   -8.0341    0.0000 C   0  0  0  0  0  0  0  0  0  0  0  0
    5.3934   -8.0341    0.0000 Cl  0  0  0  0  0  0  0  0  0  0  0  0
  1  2  1  0  0  0  0
  2  3  2  0  0  0  0
  3  4  1  0  0  0  0
  4  5  2  0  0  0  0
  5  6  1  0  0  0  0
  1  6  1  0  0  0  0
  1  7  2  0  0  0  0
  8  9  1  0  0  0  0
  9 10  2  0  0  0  0
 10 11  1  0  0  0  0
 11 12  2  0  0  0  0
 12 13  1  0  0  0  0
  8 13  2  0  0  0  0
  5  8  1  0  0  0  0
 14 15  1  0  0  0  0
 15 16  2  0  0  0  0
 16 17  1  0  0  0  0
 17 18  2  0  0  0  0
 18 19  1  0  0  0  0
 14 19  2  0  0  0  0
  3 14  1  0  0  0  0
  4 20  1  0  0  0  0
M  END
>  <cdx:fragmentId>
1828

$$$$
