300302.cdx
  Mrv1902 05222410222D          

 13 13  0  0  0  0            999 V2000
    8.9704   -6.7825    0.0000 O   0  0  0  0  0  0  0  0  0  0  0  0
    7.5435   -9.2586    0.0000 C   0  0  0  0  0  0  0  0  0  0  0  0
    8.2583   -9.6705    0.0000 C   0  0  0  0  0  0  0  0  0  0  0  0
    8.2589  -10.4955    0.0000 C   0  0  0  0  0  0  0  0  0  0  0  0
    7.5448  -10.9086    0.0000 C   0  0  0  0  0  0  0  0  0  0  0  0
    6.8300  -10.4967    0.0000 C   0  0  0  0  0  0  0  0  0  0  0  0
    6.8293   -9.6717    0.0000 C   0  0  0  0  0  0  0  0  0  0  0  0
    6.0043   -9.6723    0.0000 C   0  0  0  0  0  0  0  0  0  0  0  0
    6.4163   -8.9575    0.0000 C   0  0  0  0  0  0  0  0  0  0  0  0
    8.9724   -9.2575    0.0000 C   0  0  0  0  0  0  0  0  0  0  0  0
    7.5428   -8.4336    0.0000 C   0  0  0  0  0  0  0  0  0  0  0  0
    8.2570   -8.0205    0.0000 C   0  0  0  0  0  0  0  0  0  0  0  0
    8.2563   -7.1955    0.0000 C   0  0  0  0  0  0  0  0  0  0  0  0
 13  1  1  0  0  0  0
 12 11  2  0  0  0  0
 13 12  1  0  0  0  0
  2  3  2  0  0  0  0
  3  4  1  0  0  0  0
  4  5  1  0  0  0  0
  5  6  1  0  0  0  0
  6  7  1  0  0  0  0
  2  7  1  0  0  0  0
  7  8  1  0  0  0  0
  7  9  1  0  0  0  0
  3 10  1  0  0  0  0
 11  2  1  0  0  0  0
M  END
>  <cdx:fragmentId>
13

$$$$
