300370.cdx
  Mrv1902 05222410192D          

 15 15  0  0  0  0            999 V2000
    5.0328   -5.3608    0.0000 C   0  0  0  0  0  0  0  0  0  0  0  0
    4.3183   -5.7733    0.0000 C   0  0  0  0  0  0  0  0  0  0  0  0
    3.6038   -5.3608    0.0000 C   0  0  0  0  0  0  0  0  0  0  0  0
    5.0328   -4.5358    0.0000 O   0  0  0  0  0  0  0  0  0  0  0  0
    5.7472   -5.7733    0.0000 C   0  0  0  0  0  0  0  0  0  0  0  0
    5.7472   -6.5983    0.0000 C   0  0  0  0  0  0  0  0  0  0  0  0
    6.4617   -7.0108    0.0000 C   0  0  0  0  0  0  0  0  0  0  0  0
    7.1762   -6.5983    0.0000 C   0  0  0  0  0  0  0  0  0  0  0  0
    7.1762   -5.7733    0.0000 C   0  0  0  0  0  0  0  0  0  0  0  0
    6.4617   -5.3608    0.0000 C   0  0  0  0  0  0  0  0  0  0  0  0
    5.0328   -7.0108    0.0000 O   0  0  0  0  0  0  0  0  0  0  0  0
    5.0328   -7.8358    0.0000 Si  0  0  0  0  0  0  0  0  0  0  0  0
    5.7472   -8.2483    0.0000 C   0  0  0  0  0  0  0  0  0  0  0  0
    5.0328   -8.6608    0.0000 C   0  0  0  0  0  0  0  0  0  0  0  0
    4.3183   -8.2483    0.0000 C   0  0  0  0  0  0  0  0  0  0  0  0
  1  2  1  0  0  0  0
  2  3  1  0  0  0  0
  1  4  2  0  0  0  0
  5  6  1  0  0  0  0
  6  7  2  0  0  0  0
  7  8  1  0  0  0  0
  8  9  2  0  0  0  0
  9 10  1  0  0  0  0
  5 10  2  0  0  0  0
 12 13  1  0  0  0  0
 12 14  1  0  0  0  0
 12 15  1  0  0  0  0
 11 12  1  0  0  0  0
  6 11  1  0  0  0  0
  1  5  1  0  0  0  0
M  END
>  <cdx:fragmentId>
1147

$$$$
