300359.cdx
  Mrv1902 05222410182D          

 11 10  0  0  0  0            999 V2000
    3.6073   -7.6295    0.0000 C   0  0  0  0  0  0  0  0  0  0  0  0
    3.6073   -6.8045    0.0000 C   0  0  0  0  0  0  0  0  0  0  0  0
    4.3217   -6.3920    0.0000 C   0  0  0  0  0  0  0  0  0  0  0  0
    5.0362   -6.8045    0.0000 C   0  0  0  0  0  0  0  0  0  0  0  0
    5.7507   -6.3920    0.0000 C   0  0  0  0  0  0  0  0  0  0  0  0
    6.4651   -6.8045    0.0000 C   0  0  0  0  0  0  0  0  0  0  0  0
    7.1796   -6.3920    0.0000 C   0  0  0  0  0  0  0  0  0  0  0  0
    7.8941   -6.8045    0.0000 C   0  0  0  0  0  0  0  0  0  0  0  0
    4.3217   -5.5670    0.0000 O   0  0  0  0  0  0  0  0  0  0  0  0
    6.4651   -7.6295    0.0000 C   0  0  0  0  0  0  0  0  0  0  0  0
    2.8928   -6.3920    0.0000 C   0  0  0  0  0  0  0  0  0  0  0  0
  1  2  2  0  0  0  0
  2  3  1  0  0  0  0
  3  4  1  0  0  0  0
  4  5  1  0  0  0  0
  5  6  1  0  0  0  0
  6  7  1  0  0  0  0
  7  8  2  0  0  0  0
  3  9  1  0  0  0  0
  6 10  1  0  0  0  0
  2 11  1  0  0  0  0
M  END
>  <cdx:fragmentId>
516

$$$$
