300356.cdx
  Mrv1902 05222410282D          

 11 11  0  0  0  0            999 V2000
    5.9629   -6.1346    0.0000 C   0  0  0  0  0  0  0  0  0  0  0  0
    5.2485   -6.5471    0.0000 C   0  0  0  0  0  0  0  0  0  0  0  0
    4.5340   -6.1346    0.0000 C   0  0  0  0  0  0  0  0  0  0  0  0
    3.8195   -6.5471    0.0000 C   0  0  0  0  0  0  0  0  0  0  0  0
    3.8195   -7.3721    0.0000 C   0  0  0  0  0  0  0  0  0  0  0  0
    4.5340   -7.7846    0.0000 C   0  0  0  0  0  0  0  0  0  0  0  0
    5.2485   -7.3721    0.0000 C   0  0  0  0  0  0  0  0  0  0  0  0
    5.9629   -5.3096    0.0000 O   0  0  0  0  0  0  0  0  0  0  0  0
    6.6774   -6.5471    0.0000 O   0  0  0  0  0  0  0  0  0  0  0  0
    5.9629   -7.7846    0.0000 O   0  0  0  0  0  0  0  0  0  0  0  0
    4.5340   -5.3096    0.0000 O   0  0  0  0  0  0  0  0  0  0  0  0
  1  2  1  0  0  0  0
  2  3  1  0  0  0  0
  3  4  2  0  0  0  0
  4  5  1  0  0  0  0
  5  6  2  0  0  0  0
  6  7  1  0  0  0  0
  2  7  2  0  0  0  0
  1  8  2  0  0  0  0
  1  9  1  0  0  0  0
  7 10  1  0  0  0  0
  3 11  1  0  0  0  0
M  END
>  <cdx:fragmentId>
401

$$$$
