300312.cdx
  Mrv1902 05222410212D          

 18 17  0  0  0  0            999 V2000
   12.4020   -6.3408    0.0000 C   0  0  0  0  0  0  0  0  0  0  0  0
   11.6875   -6.7533    0.0000 C   0  0  0  0  0  0  0  0  0  0  0  0
   10.9730   -6.3408    0.0000 C   0  0  0  0  0  0  0  0  0  0  0  0
   10.2586   -6.7533    0.0000 C   0  0  0  0  0  0  0  0  0  0  0  0
    9.5441   -6.3408    0.0000 C   0  0  0  0  0  0  0  0  0  0  0  0
    8.8296   -6.7533    0.0000 C   0  0  0  0  0  0  0  0  0  0  0  0
    8.1151   -6.3408    0.0000 C   0  0  0  0  0  0  0  0  0  0  0  0
    7.4007   -6.7533    0.0000 C   0  0  0  0  0  0  0  0  0  0  0  0
    6.6862   -6.3408    0.0000 C   0  0  0  0  0  0  0  0  0  0  0  0
    5.9717   -6.7533    0.0000 C   0  0  0  0  0  0  0  0  0  0  0  0
    5.2573   -6.3408    0.0000 C   0  0  0  0  0  0  0  0  0  0  0  0
    4.5428   -6.7533    0.0000 C   0  0  0  0  0  0  0  0  0  0  0  0
    3.8283   -6.3408    0.0000 C   0  0  0  0  0  0  0  0  0  0  0  0
    3.1138   -6.7533    0.0000 C   0  0  0  0  0  0  0  0  0  0  0  0
    2.3994   -6.3408    0.0000 C   0  0  0  0  0  0  0  0  0  0  0  0
    1.6849   -6.7533    0.0000 C   0  0  0  0  0  0  0  0  0  0  0  0
   11.6875   -7.5783    0.0000 O   0  0  0  0  0  0  0  0  0  0  0  0
    2.3994   -5.5158    0.0000 O   0  0  0  0  0  0  0  0  0  0  0  0
  1  2  1  0  0  0  0
  2  3  1  0  0  0  0
  3  4  1  0  0  0  0
  4  5  1  0  0  0  0
  5  6  1  0  0  0  0
  6  7  1  0  0  0  0
  7  8  1  0  0  0  0
  8  9  1  0  0  0  0
  9 10  1  0  0  0  0
 10 11  1  0  0  0  0
 11 12  1  0  0  0  0
 12 13  1  0  0  0  0
 13 14  1  0  0  0  0
 14 15  1  0  0  0  0
 15 16  1  0  0  0  0
  2 17  2  0  0  0  0
 15 18  2  0  0  0  0
M  END
>  <cdx:fragmentId>
4102

$$$$
