300373.cdx
  Mrv1902 05222410182D          

 27 29  0  0  0  0            999 V2000
    5.7507   -6.7547    0.0000 C   0  0  0  0  0  0  0  0  0  0  0  0
    5.7507   -7.5797    0.0000 C   0  0  0  0  0  0  0  0  0  0  0  0
    5.0362   -7.9922    0.0000 C   0  0  0  0  0  0  0  0  0  0  0  0
    4.3217   -7.5797    0.0000 C   0  0  0  0  0  0  0  0  0  0  0  0
    3.6073   -7.9922    0.0000 C   0  0  0  0  0  0  0  0  0  0  0  0
    2.8928   -7.5797    0.0000 C   0  0  0  0  0  0  0  0  0  0  0  0
    2.8928   -6.7547    0.0000 C   0  0  0  0  0  0  0  0  0  0  0  0
    3.6073   -6.3422    0.0000 C   0  0  0  0  0  0  0  0  0  0  0  0
    4.3217   -6.7547    0.0000 C   0  0  0  0  0  0  0  0  0  0  0  0
    5.0362   -6.3422    0.0000 O   0  0  0  0  0  0  0  0  0  0  0  0
    5.0362   -8.8172    0.0000 O   0  0  0  0  0  0  0  0  0  0  0  0
    6.4651   -6.3422    0.0000 C   0  0  0  0  0  0  0  0  0  0  0  0
    6.4651   -5.5172    0.0000 C   0  0  0  0  0  0  0  0  0  0  0  0
    7.1796   -5.1047    0.0000 C   0  0  0  0  0  0  0  0  0  0  0  0
    7.8941   -5.5172    0.0000 C   0  0  0  0  0  0  0  0  0  0  0  0
    7.8941   -6.3422    0.0000 C   0  0  0  0  0  0  0  0  0  0  0  0
    7.1796   -6.7547    0.0000 C   0  0  0  0  0  0  0  0  0  0  0  0
    8.6086   -5.1047    0.0000 O   0  0  0  0  0  0  0  0  0  0  0  0
    9.3230   -5.5172    0.0000 C   0  0  0  0  0  0  0  0  0  0  0  0
    7.1796   -4.2797    0.0000 O   0  0  0  0  0  0  0  0  0  0  0  0
    7.8941   -3.8672    0.0000 C   0  0  0  0  0  0  0  0  0  0  0  0
    5.7507   -5.1047    0.0000 O   0  0  0  0  0  0  0  0  0  0  0  0
    5.0362   -5.5172    0.0000 C   0  0  0  0  0  0  0  0  0  0  0  0
    2.1783   -6.3422    0.0000 O   0  0  0  0  0  0  0  0  0  0  0  0
    1.4638   -6.7547    0.0000 C   0  0  0  0  0  0  0  0  0  0  0  0
    3.6073   -8.8172    0.0000 O   0  0  0  0  0  0  0  0  0  0  0  0
    2.8928   -9.2297    0.0000 C   0  0  0  0  0  0  0  0  0  0  0  0
  1  2  2  0  0  0  0
  2  3  1  0  0  0  0
  3  4  1  0  0  0  0
  4  5  1  0  0  0  0
  5  6  2  0  0  0  0
  6  7  1  0  0  0  0
  7  8  2  0  0  0  0
  8  9  1  0  0  0  0
  4  9  2  0  0  0  0
  9 10  1  0  0  0  0
  1 10  1  0  0  0  0
  3 11  2  0  0  0  0
 12 13  1  0  0  0  0
 13 14  2  0  0  0  0
 14 15  1  0  0  0  0
 15 16  2  0  0  0  0
 16 17  1  0  0  0  0
 12 17  2  0  0  0  0
 18 19  1  0  0  0  0
 15 18  1  0  0  0  0
 20 21  1  0  0  0  0
 14 20  1  0  0  0  0
 22 23  1  0  0  0  0
 13 22  1  0  0  0  0
  1 12  1  0  0  0  0
 24 25  1  0  0  0  0
  7 24  1  0  0  0  0
 26 27  1  0  0  0  0
  5 26  1  0  0  0  0
M  END
>  <cdx:fragmentId>
1427

$$$$
