300399.cdx
  Mrv1902 05222410182D          

 26 28  0  0  0  0            999 V2000
   10.4743   -8.1475    0.0000 C   0  0  0  0  0  0  0  0  0  0  0  0
   10.4734   -8.9725    0.0000 C   0  0  0  0  0  0  0  0  0  0  0  0
    9.8279   -9.4863    0.0000 C   0  0  1  0  0  0  0  0  0  0  0  0
    9.0238   -9.3018    0.0000 C   0  0  0  0  0  0  0  0  0  0  0  0
    8.6666   -8.5582    0.0000 C   0  0  0  0  0  0  0  0  0  0  0  0
    9.0253   -7.8152    0.0000 C   0  0  0  0  0  0  0  0  0  0  0  0
    9.8298   -7.6325    0.0000 C   0  0  2  0  0  0  0  0  0  0  0  0
    4.1313   -6.4100    0.0000 C   0  0  0  0  0  0  0  0  0  0  0  0
    5.3696   -5.6968    0.0000 O   0  0  0  0  0  0  0  0  0  0  0  0
    4.9563   -6.4109    0.0000 C   0  0  0  0  0  0  0  0  0  0  0  0
    5.3681   -7.1258    0.0000 O   0  0  0  0  0  0  0  0  0  0  0  0
    6.6034   -9.2705    0.0000 C   0  0  0  0  0  0  0  0  0  0  0  0
    6.1901   -9.9845    0.0000 C   0  0  0  0  0  0  0  0  0  0  0  0
    5.3651   -9.9836    0.0000 C   0  0  0  0  0  0  0  0  0  0  0  0
    4.9534   -9.2687    0.0000 C   0  0  0  0  0  0  0  0  0  0  0  0
    5.3666   -8.5547    0.0000 C   0  0  0  0  0  0  0  0  0  0  0  0
    6.1916   -8.5556    0.0000 C   0  0  0  0  0  0  0  0  0  0  0  0
    7.8416   -8.5573    0.0000 O   0  0  0  0  0  0  0  0  0  0  0  0
    7.8431   -7.1284    0.0000 O   0  0  0  0  0  0  0  0  0  0  0  0
    6.1931   -7.1266    0.0000 C   0  0  0  0  0  0  0  0  0  0  0  0
    6.6048   -7.8415    0.0000 C   0  0  0  0  0  0  0  0  0  0  0  0
    7.4298   -7.8424    0.0000 C   0  0  0  0  0  0  0  0  0  0  0  0
    9.2798   -8.5120    0.0000 N   0  0  0  0  0  0  0  0  0  0  0  0
    8.4830   -8.2434    0.0000 C   0  0  0  0  0  0  0  0  0  0  0  0
   10.0143   -6.8284    0.0000 H   0  0  0  0  0  0  0  0  0  0  0  0
   10.0106  -10.2908    0.0000 H   0  0  0  0  0  0  0  0  0  0  0  0
 18  5  1  0  0  0  0
  7  1  1  0  0  0  0
  2  1  1  0  0  0  0
  3  2  1  0  0  0  0
  4  3  1  0  0  0  0
  5  4  1  0  0  0  0
  6  5  1  0  0  0  0
  7  6  1  0  0  0  0
 20 11  1  0  0  0  0
 11 10  1  0  0  0  0
 10  8  1  0  0  0  0
 10  9  2  0  0  0  0
 21 17  1  0  0  0  0
 17 12  2  0  0  0  0
 13 12  1  0  0  0  0
 14 13  2  0  0  0  0
 15 14  1  0  0  0  0
 16 15  2  0  0  0  0
 17 16  1  0  0  0  0
 22 18  1  0  0  0  0
 22 19  2  0  0  0  0
 21 20  1  0  0  0  0
 22 21  1  0  0  0  0
  7 23  1  0  0  0  0
  3 23  1  0  0  0  0
 23 24  1  0  0  0  0
  7 25  1  6  0  0  0
  3 26  1  6  0  0  0
M  END
>  <cdx:fragmentId>
15

$$$$
