300358.cdx
  Mrv1902 05222410192D          

 12 13  0  0  0  0            999 V2000
    7.9779   -5.3109    0.0000 C   0  0  0  0  0  0  0  0  0  0  0  0
    8.6924   -5.7234    0.0000 C   0  0  0  0  0  0  0  0  0  0  0  0
    8.6924   -6.5484    0.0000 C   0  0  0  0  0  0  0  0  0  0  0  0
    7.9779   -6.9609    0.0000 C   0  0  0  0  0  0  0  0  0  0  0  0
    7.2634   -6.5484    0.0000 C   0  0  0  0  0  0  0  0  0  0  0  0
    6.5490   -6.9609    0.0000 C   0  0  0  0  0  0  0  0  0  0  0  0
    5.8345   -6.5484    0.0000 C   0  0  0  0  0  0  0  0  0  0  0  0
    5.8345   -5.7234    0.0000 C   0  0  0  0  0  0  0  0  0  0  0  0
    6.5490   -5.3109    0.0000 C   0  0  0  0  0  0  0  0  0  0  0  0
    7.2634   -5.7234    0.0000 C   0  0  0  0  0  0  0  0  0  0  0  0
    5.1200   -6.9609    0.0000 C   0  0  0  0  0  0  0  0  0  0  0  0
    9.4069   -5.3109    0.0000 C   0  0  0  0  0  0  0  0  0  0  0  0
  1  2  1  0  0  0  0
  2  3  1  0  0  0  0
  3  4  1  0  0  0  0
  4  5  1  0  0  0  0
  5  6  1  0  0  0  0
  6  7  2  0  0  0  0
  7  8  1  0  0  0  0
  8  9  2  0  0  0  0
  9 10  1  0  0  0  0
  1 10  1  0  0  0  0
  5 10  2  0  0  0  0
  7 11  1  0  0  0  0
  2 12  1  0  0  0  0
M  END
>  <cdx:fragmentId>
478

$$$$
