300314.cdx
  Mrv1902 05222410222D          

 20 22  0  0  0  0            999 V2000
    5.2641   -5.5499    0.0000 C   0  0  0  0  0  0  0  0  0  0  0  0
    5.2641   -6.3749    0.0000 C   0  0  0  0  0  0  0  0  0  0  0  0
    5.9786   -6.7874    0.0000 C   0  0  0  0  0  0  0  0  0  0  0  0
    6.6931   -6.3749    0.0000 C   0  0  0  0  0  0  0  0  0  0  0  0
    7.4075   -6.7874    0.0000 C   0  0  0  0  0  0  0  0  0  0  0  0
    8.1220   -6.3749    0.0000 C   0  0  0  0  0  0  0  0  0  0  0  0
    8.1220   -5.5499    0.0000 C   0  0  0  0  0  0  0  0  0  0  0  0
    7.4075   -5.1374    0.0000 C   0  0  0  0  0  0  0  0  0  0  0  0
    6.6931   -5.5499    0.0000 C   0  0  0  0  0  0  0  0  0  0  0  0
    5.9786   -5.1374    0.0000 O   0  0  0  0  0  0  0  0  0  0  0  0
    8.3995   -4.2442    0.0000 O   0  0  0  0  0  0  0  0  0  0  0  0
    8.7351   -4.9979    0.0000 C   0  0  0  0  0  0  0  0  0  0  0  0
    7.5791   -4.3304    0.0000 C   0  0  0  0  0  0  0  0  0  0  0  0
    9.5421   -5.1694    0.0000 O   0  0  0  0  0  0  0  0  0  0  0  0
    7.4075   -7.6124    0.0000 C   0  0  0  0  0  0  0  0  0  0  0  0
    8.1220   -8.0249    0.0000 C   0  0  0  0  0  0  0  0  0  0  0  0
    8.8365   -7.6124    0.0000 C   0  0  0  0  0  0  0  0  0  0  0  0
    8.1220   -8.8499    0.0000 O   0  0  0  0  0  0  0  0  0  0  0  0
    4.4391   -5.5499    0.0000 C   0  0  0  0  0  0  0  0  0  0  0  0
    4.8516   -4.8354    0.0000 C   0  0  0  0  0  0  0  0  0  0  0  0
  1  2  1  0  0  0  0
  2  3  2  0  0  0  0
  3  4  1  0  0  0  0
  4  5  1  0  0  0  0
  5  6  2  0  0  0  0
  6  7  1  0  0  0  0
  7  8  2  0  0  0  0
  8  9  1  0  0  0  0
  4  9  2  0  0  0  0
  9 10  1  0  0  0  0
  1 10  1  0  0  0  0
 11 12  1  0  0  0  0
 11 13  1  0  0  0  0
  7 12  1  0  0  0  0
  8 13  1  0  0  0  0
 12 14  2  0  0  0  0
 15 16  1  0  0  0  0
 16 17  1  0  0  0  0
 16 18  2  0  0  0  0
  5 15  1  0  0  0  0
  1 19  1  0  0  0  0
  1 20  1  0  0  0  0
M  END
>  <cdx:fragmentId>
4186

$$$$
