300385.cdx
  Mrv1902 05222410262D          

 35 39  0  0  0  0            999 V2000
    7.5406   -5.1586    0.0000 C   0  0  0  0  0  0  0  0  0  0  0  0
    8.2550   -4.7461    0.0000 C   0  0  0  0  0  0  0  0  0  0  0  0
    8.9695   -5.1586    0.0000 C   0  0  0  0  0  0  0  0  0  0  0  0
    8.9695   -5.9836    0.0000 C   0  0  0  0  0  0  0  0  0  0  0  0
    8.2550   -6.3961    0.0000 C   0  0  0  0  0  0  0  0  0  0  0  0
    8.2550   -7.2211    0.0000 C   0  0  0  0  0  0  0  0  0  0  0  0
    7.5406   -7.6336    0.0000 C   0  0  0  0  0  0  0  0  0  0  0  0
    6.8261   -7.2211    0.0000 C   0  0  0  0  0  0  0  0  0  0  0  0
    6.1116   -7.6336    0.0000 C   0  0  0  0  0  0  0  0  0  0  0  0
    6.1116   -8.4586    0.0000 C   0  0  0  0  0  0  0  0  0  0  0  0
    5.3971   -8.8711    0.0000 C   0  0  0  0  0  0  0  0  0  0  0  0
    4.6827   -8.4586    0.0000 C   0  0  0  0  0  0  0  0  0  0  0  0
    3.9682   -8.8711    0.0000 C   0  0  0  0  0  0  0  0  0  0  0  0
    3.2537   -8.4586    0.0000 C   0  0  0  0  0  0  0  0  0  0  0  0
    3.2537   -7.6336    0.0000 C   0  0  0  0  0  0  0  0  0  0  0  0
    3.9682   -7.2211    0.0000 C   0  0  0  0  0  0  0  0  0  0  0  0
    4.6827   -7.6336    0.0000 C   0  0  0  0  0  0  0  0  0  0  0  0
    5.3971   -7.2211    0.0000 C   0  0  0  0  0  0  0  0  0  0  0  0
    5.3971   -6.3961    0.0000 C   0  0  0  0  0  0  0  0  0  0  0  0
    6.1116   -5.9836    0.0000 C   0  0  0  0  0  0  0  0  0  0  0  0
    6.8261   -6.3961    0.0000 C   0  0  0  0  0  0  0  0  0  0  0  0
    7.5406   -5.9836    0.0000 C   0  0  0  0  0  0  0  0  0  0  0  0
    8.2550   -3.9211    0.0000 C   0  0  0  0  0  0  0  0  0  0  0  0
    7.5406   -3.5086    0.0000 O   0  0  0  0  0  0  0  0  0  0  0  0
    8.9695   -3.5086    0.0000 O   0  0  0  0  0  0  0  0  0  0  0  0
    4.6827   -5.9836    0.0000 O   0  0  0  0  0  0  0  0  0  0  0  0
    4.6827   -6.8086    0.0000 C   0  0  0  0  0  0  0  0  0  0  0  0
    3.5557   -9.5855    0.0000 C   0  0  0  0  0  0  0  0  0  0  0  0
    6.1116   -6.8086    0.0000 C   0  0  0  0  0  0  0  0  0  0  0  0
    6.8261   -8.0461    0.0000 C   0  0  0  0  0  0  0  0  0  0  0  0
    8.9695   -6.8086    0.0000 C   0  0  0  0  0  0  0  0  0  0  0  0
    8.9695   -4.3336    0.0000 C   0  0  0  0  0  0  0  0  0  0  0  0
    4.3807   -9.5855    0.0000 C   0  0  0  0  0  0  0  0  0  0  0  0
    5.2057   -9.5855    0.0000 O   0  0  0  0  0  0  0  0  0  0  0  0
    2.5393   -8.8711    0.0000 O   0  0  0  0  0  0  0  0  0  0  0  0
  1  2  1  0  0  0  0
  2  3  1  0  0  0  0
  3  4  1  0  0  0  0
  4  5  1  0  0  0  0
  5  6  1  0  0  0  0
  6  7  1  0  0  0  0
  7  8  1  0  0  0  0
  8  9  1  0  0  0  0
  9 10  1  0  0  0  0
 10 11  1  0  0  0  0
 11 12  1  0  0  0  0
 12 13  1  0  0  0  0
 13 14  1  0  0  0  0
 14 15  1  0  0  0  0
 15 16  1  0  0  0  0
 16 17  1  0  0  0  0
 12 17  1  0  0  0  0
 17 18  1  0  0  0  0
  9 18  1  0  0  0  0
 18 19  1  0  0  0  0
 19 20  1  0  0  0  0
 20 21  2  0  0  0  0
  8 21  1  0  0  0  0
 21 22  1  0  0  0  0
  5 22  1  0  0  0  0
  1 22  1  0  0  0  0
 23 24  2  0  0  0  0
 23 25  1  0  0  0  0
  2 23  1  0  0  0  0
 19 26  2  0  0  0  0
 17 27  1  0  0  0  0
 13 28  1  0  0  0  0
  9 29  1  0  0  0  0
  8 30  1  0  0  0  0
  5 31  1  0  0  0  0
  2 32  1  0  0  0  0
 33 34  1  0  0  0  0
 13 33  1  0  0  0  0
 14 35  1  0  0  0  0
M  END
>  <cdx:fragmentId>
2581

$$$$
