30032.cdx
  Mrv1902 05222410222D          

 17 18  0  0  0  0            999 V2000
    6.9418   -6.2001    0.0000 C   0  0  0  0  0  0  0  0  0  0  0  0
    6.9418   -7.0251    0.0000 C   0  0  2  0  0  0  0  0  0  0  0  0
    7.6563   -7.4376    0.0000 C   0  0  0  0  0  0  0  0  0  0  0  0
    8.3707   -7.0251    0.0000 C   0  0  2  0  0  0  0  0  0  0  0  0
    8.3707   -6.2001    0.0000 C   0  0  0  0  0  0  0  0  0  0  0  0
    7.6563   -5.7876    0.0000 C   0  0  0  0  0  0  0  0  0  0  0  0
    9.0852   -7.4376    0.0000 C   0  0  1  0  0  0  0  0  0  0  0  0
    9.7997   -7.0251    0.0000 C   0  0  0  0  0  0  0  0  0  0  0  0
    9.7997   -6.2001    0.0000 C   0  0  0  0  0  0  0  0  0  0  0  0
    9.0852   -5.7876    0.0000 C   0  0  0  0  0  0  0  0  0  0  0  0
    8.3707   -7.8501    0.0000 C   0  0  0  0  0  0  0  0  0  0  0  0
    9.0852   -8.2626    0.0000 C   0  0  0  0  0  0  0  0  0  0  0  0
    6.2273   -7.4376    0.0000 C   0  0  0  0  0  0  0  0  0  0  0  0
    6.2273   -6.6126    0.0000 H   0  0  0  0  0  0  0  0  0  0  0  0
    5.5129   -7.8501    0.0000 O   0  0  0  0  0  0  0  0  0  0  0  0
    5.8148   -6.7232    0.0000 C   0  0  0  0  0  0  0  0  0  0  0  0
    6.6398   -8.1521    0.0000 C   0  0  0  0  0  0  0  0  0  0  0  0
  1  2  1  0  0  0  0
  2  3  1  0  0  0  0
  3  4  1  0  0  0  0
  4  5  1  0  0  0  0
  5  6  1  0  0  0  0
  6  1  1  0  0  0  0
  4  7  1  0  0  0  0
  7  8  1  0  0  0  0
  8  9  1  0  0  0  0
  9 10  1  0  0  0  0
 10  5  2  0  0  0  0
  4 11  1  1  0  0  0
  7 12  1  1  0  0  0
  2 13  1  0  0  0  0
  2 14  1  1  0  0  0
 13 15  1  0  0  0  0
 13 16  1  0  0  0  0
 13 17  1  0  0  0  0
M  END
>  <cdx:fragmentId>
5

$$$$
