300368.cdx
  Mrv1902 05222410272D          

 15 14  0  0  0  0            999 V2000
    3.6908   -7.5797    0.0000 C   0  0  0  0  0  0  0  0  0  0  0  0
    3.6908   -6.7547    0.0000 C   0  0  0  0  0  0  0  0  0  0  0  0
    4.4053   -6.3422    0.0000 C   0  0  0  0  0  0  0  0  0  0  0  0
    5.1198   -6.7547    0.0000 C   0  0  0  0  0  0  0  0  0  0  0  0
    5.8342   -6.3422    0.0000 C   0  0  0  0  0  0  0  0  0  0  0  0
    6.5487   -6.7547    0.0000 C   0  0  0  0  0  0  0  0  0  0  0  0
    7.2632   -6.3422    0.0000 C   0  0  0  0  0  0  0  0  0  0  0  0
    7.9776   -6.7547    0.0000 C   0  0  0  0  0  0  0  0  0  0  0  0
    8.6921   -6.3422    0.0000 C   0  0  0  0  0  0  0  0  0  0  0  0
    9.4066   -6.7547    0.0000 C   0  0  0  0  0  0  0  0  0  0  0  0
   10.1211   -6.3422    0.0000 C   0  0  0  0  0  0  0  0  0  0  0  0
   10.8355   -6.7547    0.0000 C   0  0  0  0  0  0  0  0  0  0  0  0
    9.4066   -7.5797    0.0000 C   0  0  0  0  0  0  0  0  0  0  0  0
    7.2632   -5.5172    0.0000 C   0  0  0  0  0  0  0  0  0  0  0  0
    2.9763   -6.3422    0.0000 C   0  0  0  0  0  0  0  0  0  0  0  0
  1  2  1  0  0  0  0
  2  3  1  0  0  0  0
  3  4  1  0  0  0  0
  4  5  1  0  0  0  0
  5  6  1  0  0  0  0
  6  7  1  0  0  0  0
  7  8  1  0  0  0  0
  8  9  1  0  0  0  0
  9 10  1  0  0  0  0
 10 11  1  0  0  0  0
 11 12  1  0  0  0  0
 10 13  1  0  0  0  0
  7 14  1  0  0  0  0
  2 15  1  0  0  0  0
M  END
>  <cdx:fragmentId>
1021

$$$$
