300363.cdx
  Mrv1902 05222410202D          

 29 28  0  0  0  0            999 V2000
   11.1092   -6.3920    0.0000 C   0  0  0  0  0  0  0  0  0  0  0  0
   10.3947   -6.8045    0.0000 C   0  0  0  0  0  0  0  0  0  0  0  0
    9.6803   -6.3920    0.0000 C   0  0  0  0  0  0  0  0  0  0  0  0
    8.9658   -6.8045    0.0000 C   0  0  0  0  0  0  0  0  0  0  0  0
    8.2513   -6.3920    0.0000 C   0  0  0  0  0  0  0  0  0  0  0  0
    7.5369   -6.8045    0.0000 C   0  0  0  0  0  0  0  0  0  0  0  0
    6.8224   -6.3920    0.0000 C   0  0  0  0  0  0  0  0  0  0  0  0
    6.1079   -6.8045    0.0000 C   0  0  0  0  0  0  0  0  0  0  0  0
    5.3934   -6.3920    0.0000 C   0  0  0  0  0  0  0  0  0  0  0  0
    4.6790   -6.8045    0.0000 C   0  0  0  0  0  0  0  0  0  0  0  0
    3.9645   -6.3920    0.0000 C   0  0  0  0  0  0  0  0  0  0  0  0
    3.2500   -6.8045    0.0000 C   0  0  0  0  0  0  0  0  0  0  0  0
    2.5356   -6.3920    0.0000 C   0  0  0  0  0  0  0  0  0  0  0  0
    1.8211   -6.8045    0.0000 C   0  0  0  0  0  0  0  0  0  0  0  0
    1.1066   -6.3920    0.0000 C   0  0  0  0  0  0  0  0  0  0  0  0
    0.3921   -6.8045    0.0000 C   0  0  0  0  0  0  0  0  0  0  0  0
   -0.3223   -6.3920    0.0000 C   0  0  0  0  0  0  0  0  0  0  0  0
   -1.0368   -6.8045    0.0000 C   0  0  0  0  0  0  0  0  0  0  0  0
   -1.7513   -6.3920    0.0000 C   0  0  0  0  0  0  0  0  0  0  0  0
   -1.7513   -5.5670    0.0000 C   0  0  0  0  0  0  0  0  0  0  0  0
   11.1092   -5.5670    0.0000 O   0  0  0  0  0  0  0  0  0  0  0  0
   11.8237   -6.8045    0.0000 O   0  0  0  0  0  0  0  0  0  0  0  0
   -2.4657   -6.8045    0.0000 C   0  0  0  0  0  0  0  0  0  0  0  0
    1.1066   -5.5670    0.0000 C   0  0  0  0  0  0  0  0  0  0  0  0
    3.9645   -5.5670    0.0000 C   0  0  0  0  0  0  0  0  0  0  0  0
    7.5369   -7.6295    0.0000 C   0  0  0  0  0  0  0  0  0  0  0  0
   10.3947   -7.6295    0.0000 C   0  0  0  0  0  0  0  0  0  0  0  0
   12.5381   -6.3920    0.0000 C   0  0  0  0  0  0  0  0  0  0  0  0
   13.2526   -6.8045    0.0000 C   0  0  0  0  0  0  0  0  0  0  0  0
  1  2  1  0  0  0  0
  2  3  2  0  0  0  0
  3  4  1  0  0  0  0
  4  5  1  0  0  0  0
  5  6  1  0  0  0  0
  6  7  2  0  0  0  0
  7  8  1  0  0  0  0
  8  9  1  0  0  0  0
  9 10  1  0  0  0  0
 10 11  2  0  0  0  0
 11 12  1  0  0  0  0
 12 13  1  0  0  0  0
 13 14  1  0  0  0  0
 14 15  2  0  0  0  0
 15 16  1  0  0  0  0
 16 17  1  0  0  0  0
 17 18  1  0  0  0  0
 18 19  2  0  0  0  0
 19 20  1  0  0  0  0
  1 21  2  0  0  0  0
  1 22  1  0  0  0  0
 19 23  1  0  0  0  0
 15 24  1  0  0  0  0
 11 25  1  0  0  0  0
  6 26  1  0  0  0  0
  2 27  1  0  0  0  0
 28 29  1  0  0  0  0
 22 28  1  0  0  0  0
M  END
>  <cdx:fragmentId>
750

$$$$
