300393.cdx
  Mrv1902 05222410262D          

 16 15  0  0  0  0            999 V2000
    7.5406   -6.3920    0.0000 C   0  0  0  0  0  0  0  0  0  0  0  0
    6.8261   -6.8045    0.0000 C   0  0  0  0  0  0  0  0  0  0  0  0
    6.1116   -6.3920    0.0000 C   0  0  0  0  0  0  0  0  0  0  0  0
    5.3971   -6.8045    0.0000 C   0  0  0  0  0  0  0  0  0  0  0  0
    4.6827   -6.3920    0.0000 C   0  0  0  0  0  0  0  0  0  0  0  0
    3.9682   -6.8045    0.0000 C   0  0  0  0  0  0  0  0  0  0  0  0
    3.2537   -6.3920    0.0000 C   0  0  0  0  0  0  0  0  0  0  0  0
    2.5393   -6.8045    0.0000 C   0  0  0  0  0  0  0  0  0  0  0  0
    1.8248   -6.3920    0.0000 C   0  0  0  0  0  0  0  0  0  0  0  0
    1.1103   -6.8045    0.0000 C   0  0  0  0  0  0  0  0  0  0  0  0
    7.5406   -5.5670    0.0000 O   0  0  0  0  0  0  0  0  0  0  0  0
    8.2550   -6.8045    0.0000 N   0  0  0  0  0  0  0  0  0  0  0  0
    8.9695   -6.3920    0.0000 C   0  0  0  0  0  0  0  0  0  0  0  0
    9.6840   -6.8045    0.0000 C   0  0  0  0  0  0  0  0  0  0  0  0
   10.3984   -6.3920    0.0000 C   0  0  0  0  0  0  0  0  0  0  0  0
    9.6840   -7.6295    0.0000 C   0  0  0  0  0  0  0  0  0  0  0  0
  1  2  1  0  0  0  0
  2  3  2  0  0  0  0
  3  4  1  0  0  0  0
  4  5  1  0  0  0  0
  5  6  1  0  0  0  0
  6  7  1  0  0  0  0
  7  8  1  0  0  0  0
  8  9  1  0  0  0  0
  9 10  1  0  0  0  0
  1 11  2  0  0  0  0
  1 12  1  0  0  0  0
 13 14  1  0  0  0  0
 14 15  1  0  0  0  0
 14 16  1  0  0  0  0
 12 13  1  0  0  0  0
M  END
>  <cdx:fragmentId>
3069

$$$$
