300315.cdx
  Mrv1902 05222410232D          

 10  9  0  0  0  0            999 V2000
    8.1151   -6.3408    0.0000 C   0  0  0  0  0  0  0  0  0  0  0  0
    7.4007   -6.7533    0.0000 C   0  0  0  0  0  0  0  0  0  0  0  0
    6.6862   -6.3408    0.0000 C   0  0  0  0  0  0  0  0  0  0  0  0
    5.9717   -6.7533    0.0000 C   0  0  0  0  0  0  0  0  0  0  0  0
    8.1151   -5.5158    0.0000 O   0  0  0  0  0  0  0  0  0  0  0  0
    8.8296   -6.7533    0.0000 O   0  0  0  0  0  0  0  0  0  0  0  0
    5.9717   -7.5783    0.0000 O   0  0  0  0  0  0  0  0  0  0  0  0
    5.2573   -6.3408    0.0000 O   0  0  0  0  0  0  0  0  0  0  0  0
    7.8132   -7.4678    0.0000 C   0  0  0  0  0  0  0  0  0  0  0  0
    6.9882   -7.4678    0.0000 C   0  0  0  0  0  0  0  0  0  0  0  0
  1  2  1  0  0  0  0
  2  3  1  0  0  0  0
  3  4  1  0  0  0  0
  1  5  2  0  0  0  0
  1  6  1  0  0  0  0
  4  7  2  0  0  0  0
  4  8  1  0  0  0  0
  2  9  1  0  0  0  0
  2 10  1  0  0  0  0
M  END
>  <cdx:fragmentId>
4251

$$$$
