300350.cdx
  Mrv1902 05222410262D          

 18 20  0  0  0  0            999 V2000
    5.9717   -7.9908    0.0000 C   0  0  0  0  0  0  0  0  0  0  0  0
    5.2573   -7.5783    0.0000 C   0  0  0  0  0  0  0  0  0  0  0  0
    5.2573   -6.7533    0.0000 C   0  0  0  0  0  0  0  0  0  0  0  0
    5.9717   -6.3408    0.0000 C   0  0  0  0  0  0  0  0  0  0  0  0
    6.6862   -6.7533    0.0000 C   0  0  0  0  0  0  0  0  0  0  0  0
    7.4007   -6.3408    0.0000 C   0  0  0  0  0  0  0  0  0  0  0  0
    7.4007   -5.5158    0.0000 C   0  0  0  0  0  0  0  0  0  0  0  0
    8.1151   -5.1033    0.0000 C   0  0  0  0  0  0  0  0  0  0  0  0
    8.8296   -5.5158    0.0000 C   0  0  0  0  0  0  0  0  0  0  0  0
    8.8296   -6.3408    0.0000 C   0  0  0  0  0  0  0  0  0  0  0  0
    8.1151   -6.7533    0.0000 C   0  0  0  0  0  0  0  0  0  0  0  0
    8.1151   -7.5783    0.0000 C   0  0  0  0  0  0  0  0  0  0  0  0
    7.4007   -7.9908    0.0000 C   0  0  0  0  0  0  0  0  0  0  0  0
    6.6862   -7.5783    0.0000 C   0  0  0  0  0  0  0  0  0  0  0  0
    4.5428   -7.9908    0.0000 O   0  0  0  0  0  0  0  0  0  0  0  0
    4.5428   -6.3408    0.0000 O   0  0  0  0  0  0  0  0  0  0  0  0
    6.6862   -5.1033    0.0000 O   0  0  0  0  0  0  0  0  0  0  0  0
    9.5441   -5.1033    0.0000 O   0  0  0  0  0  0  0  0  0  0  0  0
  1  2  1  0  0  0  0
  2  3  2  0  0  0  0
  3  4  1  0  0  0  0
  4  5  2  0  0  0  0
  5  6  1  0  0  0  0
  6  7  1  0  0  0  0
  7  8  2  0  0  0  0
  8  9  1  0  0  0  0
  9 10  2  0  0  0  0
 10 11  1  0  0  0  0
  6 11  2  0  0  0  0
 11 12  1  0  0  0  0
 12 13  1  0  0  0  0
 13 14  1  0  0  0  0
  1 14  2  0  0  0  0
  5 14  1  0  0  0  0
  2 15  1  0  0  0  0
  3 16  1  0  0  0  0
  7 17  1  0  0  0  0
  9 18  1  0  0  0  0
M  END
>  <cdx:fragmentId>
6137

$$$$
