300362.cdx
  Mrv1902 05222410202D          

 25 24  0  0  0  0            999 V2000
   11.4664   -5.9217    0.0000 C   0  0  0  0  0  0  0  0  0  0  0  0
   11.4664   -6.7467    0.0000 C   0  0  0  0  0  0  0  0  0  0  0  0
   10.7520   -7.1592    0.0000 C   0  0  0  0  0  0  0  0  0  0  0  0
   10.0375   -6.7467    0.0000 C   0  0  0  0  0  0  0  0  0  0  0  0
    9.3230   -7.1592    0.0000 C   0  0  0  0  0  0  0  0  0  0  0  0
    8.6086   -6.7467    0.0000 C   0  0  0  0  0  0  0  0  0  0  0  0
    7.8941   -7.1592    0.0000 C   0  0  0  0  0  0  0  0  0  0  0  0
    7.1796   -6.7467    0.0000 C   0  0  0  0  0  0  0  0  0  0  0  0
    6.4651   -7.1592    0.0000 C   0  0  0  0  0  0  0  0  0  0  0  0
    5.7507   -6.7467    0.0000 C   0  0  0  0  0  0  0  0  0  0  0  0
    5.0362   -7.1592    0.0000 C   0  0  0  0  0  0  0  0  0  0  0  0
    4.3217   -6.7467    0.0000 C   0  0  0  0  0  0  0  0  0  0  0  0
    3.6073   -7.1592    0.0000 C   0  0  0  0  0  0  0  0  0  0  0  0
    2.8928   -6.7467    0.0000 C   0  0  0  0  0  0  0  0  0  0  0  0
    2.1783   -7.1592    0.0000 C   0  0  0  0  0  0  0  0  0  0  0  0
    1.4638   -6.7467    0.0000 C   0  0  0  0  0  0  0  0  0  0  0  0
    0.7494   -7.1592    0.0000 C   0  0  0  0  0  0  0  0  0  0  0  0
    0.0349   -6.7467    0.0000 C   0  0  0  0  0  0  0  0  0  0  0  0
   -0.6796   -7.1592    0.0000 C   0  0  0  0  0  0  0  0  0  0  0  0
   -1.3940   -6.7467    0.0000 C   0  0  0  0  0  0  0  0  0  0  0  0
    0.0349   -5.9217    0.0000 C   0  0  0  0  0  0  0  0  0  0  0  0
    2.8928   -5.9217    0.0000 C   0  0  0  0  0  0  0  0  0  0  0  0
    5.7507   -5.9217    0.0000 C   0  0  0  0  0  0  0  0  0  0  0  0
    8.6086   -5.9217    0.0000 C   0  0  0  0  0  0  0  0  0  0  0  0
   12.1809   -7.1592    0.0000 C   0  0  0  0  0  0  0  0  0  0  0  0
  1  2  1  0  0  0  0
  2  3  2  0  0  0  0
  3  4  1  0  0  0  0
  4  5  1  0  0  0  0
  5  6  1  0  0  0  0
  6  7  2  0  0  0  0
  7  8  1  0  0  0  0
  8  9  1  0  0  0  0
  9 10  1  0  0  0  0
 10 11  2  0  0  0  0
 11 12  1  0  0  0  0
 12 13  1  0  0  0  0
 13 14  1  0  0  0  0
 14 15  2  0  0  0  0
 15 16  1  0  0  0  0
 16 17  1  0  0  0  0
 17 18  1  0  0  0  0
 18 19  2  0  0  0  0
 19 20  1  0  0  0  0
 18 21  1  0  0  0  0
 14 22  1  0  0  0  0
 10 23  1  0  0  0  0
  6 24  1  0  0  0  0
  2 25  1  0  0  0  0
M  END
>  <cdx:fragmentId>
670

$$$$
