300348.cdx
  Mrv1902 05222410192D          

 33 36  0  0  0  0            999 V2000
    7.9365   -6.0328    0.0000 O   0  0  0  0  0  0  0  0  0  0  0  0
    8.6510   -6.4453    0.0000 C   0  0  1  0  0  0  0  0  0  0  0  0
    8.6510   -7.2703    0.0000 C   0  0  2  0  0  0  0  0  0  0  0  0
    7.9365   -7.6828    0.0000 C   0  0  2  0  0  0  0  0  0  0  0  0
    7.2221   -7.2703    0.0000 C   0  0  1  0  0  0  0  0  0  0  0  0
    7.2221   -6.4453    0.0000 C   0  0  2  0  0  0  0  0  0  0  0  0
    9.3655   -6.0328    0.0000 O   0  0  0  0  0  0  0  0  0  0  0  0
    7.9365   -8.5078    0.0000 O   0  0  0  0  0  0  0  0  0  0  0  0
    6.5076   -6.0328    0.0000 C   0  0  0  0  0  0  0  0  0  0  0  0
    6.5076   -5.2078    0.0000 O   0  0  0  0  0  0  0  0  0  0  0  0
    5.7931   -4.7953    0.0000 C   0  0  0  0  0  0  0  0  0  0  0  0
    5.7931   -3.9703    0.0000 C   0  0  0  0  0  0  0  0  0  0  0  0
    5.0786   -3.5578    0.0000 C   0  0  0  0  0  0  0  0  0  0  0  0
    5.0786   -2.7328    0.0000 C   0  0  0  0  0  0  0  0  0  0  0  0
    5.7931   -2.3203    0.0000 C   0  0  0  0  0  0  0  0  0  0  0  0
    6.5076   -2.7328    0.0000 C   0  0  0  0  0  0  0  0  0  0  0  0
    6.5076   -3.5578    0.0000 C   0  0  0  0  0  0  0  0  0  0  0  0
    6.5076   -7.6828    0.0000 O   0  0  0  0  0  0  0  0  0  0  0  0
    5.7931   -7.2703    0.0000 C   0  0  0  0  0  0  0  0  0  0  0  0
    5.0786   -7.6828    0.0000 C   0  0  0  0  0  0  0  0  0  0  0  0
    4.3642   -7.2703    0.0000 C   0  0  0  0  0  0  0  0  0  0  0  0
    3.6497   -7.6828    0.0000 C   0  0  0  0  0  0  0  0  0  0  0  0
    3.6497   -8.5078    0.0000 C   0  0  0  0  0  0  0  0  0  0  0  0
    4.3642   -8.9203    0.0000 C   0  0  0  0  0  0  0  0  0  0  0  0
    5.0786   -8.5078    0.0000 C   0  0  0  0  0  0  0  0  0  0  0  0
    9.3655   -7.6828    0.0000 O   0  0  0  0  0  0  0  0  0  0  0  0
   10.0799   -7.2703    0.0000 C   0  0  0  0  0  0  0  0  0  0  0  0
   10.7944   -7.6828    0.0000 C   0  0  0  0  0  0  0  0  0  0  0  0
   10.7944   -8.5078    0.0000 C   0  0  0  0  0  0  0  0  0  0  0  0
   11.5089   -8.9203    0.0000 C   0  0  0  0  0  0  0  0  0  0  0  0
   12.2234   -8.5078    0.0000 C   0  0  0  0  0  0  0  0  0  0  0  0
   12.2234   -7.6828    0.0000 C   0  0  0  0  0  0  0  0  0  0  0  0
   11.5089   -7.2703    0.0000 C   0  0  0  0  0  0  0  0  0  0  0  0
  1  2  1  0  0  0  0
  2  3  1  0  0  0  0
  3  4  1  0  0  0  0
  4  5  1  0  0  0  0
  5  6  1  0  0  0  0
  1  6  1  0  0  0  0
  2  7  1  6  0  0  0
  4  8  1  1  0  0  0
 10 11  1  0  0  0  0
 12 13  1  0  0  0  0
 13 14  2  0  0  0  0
 14 15  1  0  0  0  0
 15 16  2  0  0  0  0
 16 17  1  0  0  0  0
 12 17  2  0  0  0  0
 11 12  1  0  0  0  0
  9 10  1  0  0  0  0
  6  9  1  6  0  0  0
 18 19  1  0  0  0  0
 20 21  1  0  0  0  0
 21 22  2  0  0  0  0
 22 23  1  0  0  0  0
 23 24  2  0  0  0  0
 24 25  1  0  0  0  0
 20 25  2  0  0  0  0
 19 20  1  0  0  0  0
  5 18  1  6  0  0  0
 26 27  1  0  0  0  0
 28 29  1  0  0  0  0
 29 30  2  0  0  0  0
 30 31  1  0  0  0  0
 31 32  2  0  0  0  0
 32 33  1  0  0  0  0
 28 33  2  0  0  0  0
 27 28  1  0  0  0  0
  3 26  1  1  0  0  0
M  END
>  <cdx:fragmentId>
6009

$$$$
