300367.cdx
  Mrv1902 05222410182D          

 11 10  0  0  0  0            999 V2000
    5.9723   -5.8785    0.0000 C   0  0  0  0  0  0  0  0  0  0  0  0
    5.9723   -5.0535    0.0000 C   0  0  0  0  0  0  0  0  0  0  0  0
    6.6867   -4.6410    0.0000 C   0  0  0  0  0  0  0  0  0  0  0  0
    7.4012   -5.0535    0.0000 C   0  0  0  0  0  0  0  0  0  0  0  0
    8.1157   -4.6410    0.0000 C   0  0  0  0  0  0  0  0  0  0  0  0
    8.8301   -5.0535    0.0000 C   0  0  0  0  0  0  0  0  0  0  0  0
    9.5446   -4.6410    0.0000 C   0  0  0  0  0  0  0  0  0  0  0  0
    9.5446   -3.8160    0.0000 C   0  0  0  0  0  0  0  0  0  0  0  0
    7.4012   -5.8785    0.0000 O   0  0  0  0  0  0  0  0  0  0  0  0
   10.2591   -5.0535    0.0000 C   0  0  0  0  0  0  0  0  0  0  0  0
    5.2578   -4.6410    0.0000 C   0  0  0  0  0  0  0  0  0  0  0  0
  1  2  1  0  0  0  0
  2  3  2  0  0  0  0
  3  4  1  0  0  0  0
  4  5  1  0  0  0  0
  5  6  1  0  0  0  0
  6  7  2  0  0  0  0
  7  8  1  0  0  0  0
  4  9  1  0  0  0  0
  7 10  1  0  0  0  0
  2 11  1  0  0  0  0
M  END
>  <cdx:fragmentId>
988

$$$$
