300324.cdx
  Mrv1902 05222410232D          

 27 28  0  0  0  0            999 V2000
    7.4007   -5.5158    0.0000 C   0  0  0  0  0  0  0  0  0  0  0  0
    7.4007   -6.3408    0.0000 C   0  0  0  0  0  0  0  0  0  0  0  0
    6.6862   -6.7533    0.0000 C   0  0  0  0  0  0  0  0  0  0  0  0
    6.6862   -7.5783    0.0000 C   0  0  0  0  0  0  0  0  0  0  0  0
    8.1151   -5.1033    0.0000 O   0  0  0  0  0  0  0  0  0  0  0  0
    7.4007   -7.1658    0.0000 O   0  0  0  0  0  0  0  0  0  0  0  0
    5.9717   -7.9908    0.0000 O   0  0  0  0  0  0  0  0  0  0  0  0
    5.9717   -6.3408    0.0000 C   0  0  0  0  0  0  0  0  0  0  0  0
    5.2573   -6.7533    0.0000 C   0  0  0  0  0  0  0  0  0  0  0  0
    4.5428   -6.3408    0.0000 C   0  0  0  0  0  0  0  0  0  0  0  0
    3.8283   -6.7533    0.0000 C   0  0  0  0  0  0  0  0  0  0  0  0
    3.8283   -7.5783    0.0000 C   0  0  0  0  0  0  0  0  0  0  0  0
    4.5428   -7.9908    0.0000 C   0  0  0  0  0  0  0  0  0  0  0  0
    5.2573   -7.5783    0.0000 C   0  0  0  0  0  0  0  0  0  0  0  0
    3.1138   -6.3408    0.0000 O   0  0  0  0  0  0  0  0  0  0  0  0
    2.3994   -6.7533    0.0000 C   0  0  0  0  0  0  0  0  0  0  0  0
    3.1138   -7.9908    0.0000 O   0  0  0  0  0  0  0  0  0  0  0  0
    8.1151   -6.7533    0.0000 C   0  0  0  0  0  0  0  0  0  0  0  0
    8.8296   -6.3408    0.0000 C   0  0  0  0  0  0  0  0  0  0  0  0
    9.5441   -6.7533    0.0000 C   0  0  0  0  0  0  0  0  0  0  0  0
   10.2586   -6.3408    0.0000 C   0  0  0  0  0  0  0  0  0  0  0  0
   10.2586   -5.5158    0.0000 C   0  0  0  0  0  0  0  0  0  0  0  0
    9.5441   -5.1033    0.0000 C   0  0  0  0  0  0  0  0  0  0  0  0
    8.8296   -5.5158    0.0000 C   0  0  0  0  0  0  0  0  0  0  0  0
   10.9730   -6.7533    0.0000 O   0  0  0  0  0  0  0  0  0  0  0  0
   11.6875   -6.3408    0.0000 C   0  0  0  0  0  0  0  0  0  0  0  0
   10.9730   -5.1033    0.0000 O   0  0  0  0  0  0  0  0  0  0  0  0
  1  2  1  0  0  0  0
  2  3  1  0  0  0  0
  3  4  1  0  0  0  0
  1  5  1  0  0  0  0
  2  6  1  0  0  0  0
  4  7  1  0  0  0  0
  9 10  1  0  0  0  0
 10 11  2  0  0  0  0
 11 12  1  0  0  0  0
 12 13  2  0  0  0  0
 13 14  1  0  0  0  0
  9 14  2  0  0  0  0
 15 16  1  0  0  0  0
 11 15  1  0  0  0  0
 12 17  1  0  0  0  0
  8  9  1  0  0  0  0
  3  8  1  0  0  0  0
 19 20  1  0  0  0  0
 20 21  2  0  0  0  0
 21 22  1  0  0  0  0
 22 23  2  0  0  0  0
 23 24  1  0  0  0  0
 19 24  2  0  0  0  0
 25 26  1  0  0  0  0
 21 25  1  0  0  0  0
 22 27  1  0  0  0  0
 18 19  1  0  0  0  0
  2 18  1  0  0  0  0
M  END
>  <cdx:fragmentId>
4680

$$$$
