300333.cdx
  Mrv1902 05222410242D          

 10 10  0  0  0  0            999 V2000
    7.7579   -5.7733    0.0000 C   0  0  0  0  0  0  0  0  0  0  0  0
    7.7579   -6.5983    0.0000 C   0  0  0  0  0  0  0  0  0  0  0  0
    7.0434   -7.0108    0.0000 C   0  0  0  0  0  0  0  0  0  0  0  0
    6.3290   -6.5983    0.0000 C   0  0  0  0  0  0  0  0  0  0  0  0
    6.3290   -5.7733    0.0000 C   0  0  0  0  0  0  0  0  0  0  0  0
    7.0434   -5.3608    0.0000 C   0  0  0  0  0  0  0  0  0  0  0  0
    8.4724   -5.3608    0.0000 O   0  0  0  0  0  0  0  0  0  0  0  0
    5.6145   -7.0108    0.0000 O   0  0  0  0  0  0  0  0  0  0  0  0
    7.0434   -7.8358    0.0000 C   0  0  0  0  0  0  0  0  0  0  0  0
    8.4724   -7.0108    0.0000 C   0  0  0  0  0  0  0  0  0  0  0  0
  1  2  1  0  0  0  0
  2  3  2  0  0  0  0
  3  4  1  0  0  0  0
  4  5  2  0  0  0  0
  5  6  1  0  0  0  0
  1  6  2  0  0  0  0
  1  7  1  0  0  0  0
  4  8  1  0  0  0  0
  3  9  1  0  0  0  0
  2 10  1  0  0  0  0
M  END
>  <cdx:fragmentId>
5326

$$$$
