300361.cdx
  Mrv1902 05222410202D          

 16 16  0  0  0  0            999 V2000
    6.4617   -6.3422    0.0000 C   0  0  0  0  0  0  0  0  0  0  0  0
    7.1762   -5.9297    0.0000 C   0  0  0  0  0  0  0  0  0  0  0  0
    7.8906   -6.3422    0.0000 C   0  0  0  0  0  0  0  0  0  0  0  0
    7.8906   -7.1672    0.0000 C   0  0  0  0  0  0  0  0  0  0  0  0
    7.1762   -7.5797    0.0000 C   0  0  0  0  0  0  0  0  0  0  0  0
    6.4617   -7.1672    0.0000 C   0  0  0  0  0  0  0  0  0  0  0  0
    5.7472   -5.9297    0.0000 C   0  0  0  0  0  0  0  0  0  0  0  0
    5.0328   -6.3422    0.0000 O   0  0  0  0  0  0  0  0  0  0  0  0
    5.7472   -7.5797    0.0000 C   0  0  0  0  0  0  0  0  0  0  0  0
    5.0328   -7.1672    0.0000 C   0  0  0  0  0  0  0  0  0  0  0  0
    4.3183   -7.5797    0.0000 C   0  0  0  0  0  0  0  0  0  0  0  0
    3.6038   -7.1672    0.0000 C   0  0  0  0  0  0  0  0  0  0  0  0
    2.8894   -7.5797    0.0000 C   0  0  0  0  0  0  0  0  0  0  0  0
    3.6038   -6.3422    0.0000 C   0  0  0  0  0  0  0  0  0  0  0  0
    6.4617   -7.9922    0.0000 C   0  0  0  0  0  0  0  0  0  0  0  0
    7.1762   -5.1047    0.0000 C   0  0  0  0  0  0  0  0  0  0  0  0
  1  2  1  0  0  0  0
  2  3  2  0  0  0  0
  3  4  1  0  0  0  0
  4  5  1  0  0  0  0
  5  6  1  0  0  0  0
  1  6  1  0  0  0  0
  7  8  2  0  0  0  0
  1  7  1  0  0  0  0
  9 10  1  0  0  0  0
 10 11  1  0  0  0  0
 11 12  2  0  0  0  0
 12 13  1  0  0  0  0
 12 14  1  0  0  0  0
  6  9  1  0  0  0  0
  6 15  1  0  0  0  0
  2 16  1  0  0  0  0
M  END
>  <cdx:fragmentId>
620

$$$$
