300366.cdx
  Mrv1902 05222410182D          

 11 10  0  0  0  0            999 V2000
    3.3984   -6.3422    0.0000 C   0  0  0  0  0  0  0  0  0  0  0  0
    4.1129   -6.7547    0.0000 C   0  0  0  0  0  0  0  0  0  0  0  0
    4.8274   -6.3422    0.0000 C   0  0  0  0  0  0  0  0  0  0  0  0
    5.5419   -6.7547    0.0000 C   0  0  0  0  0  0  0  0  0  0  0  0
    6.2563   -6.3422    0.0000 C   0  0  0  0  0  0  0  0  0  0  0  0
    6.9708   -6.7547    0.0000 C   0  0  0  0  0  0  0  0  0  0  0  0
    7.6853   -6.3422    0.0000 C   0  0  0  0  0  0  0  0  0  0  0  0
    7.6853   -5.5172    0.0000 C   0  0  0  0  0  0  0  0  0  0  0  0
    2.6840   -6.7547    0.0000 O   0  0  0  0  0  0  0  0  0  0  0  0
    8.3997   -6.7547    0.0000 C   0  0  0  0  0  0  0  0  0  0  0  0
    4.1129   -7.5797    0.0000 C   0  0  0  0  0  0  0  0  0  0  0  0
  1  2  1  0  0  0  0
  2  3  1  0  0  0  0
  3  4  1  0  0  0  0
  4  5  1  0  0  0  0
  5  6  1  0  0  0  0
  6  7  1  0  0  0  0
  7  8  1  0  0  0  0
  1  9  1  0  0  0  0
  7 10  1  0  0  0  0
  2 11  1  0  0  0  0
M  END
>  <cdx:fragmentId>
953

$$$$
