300384.cdx
  Mrv1902 05222410262D          

 37 41  0  0  0  0            999 V2000
    9.2458   -4.8752    0.0000 C   0  0  1  0  0  0  0  0  0  0  0  0
    9.9603   -4.4627    0.0000 C   0  0  1  0  0  0  0  0  0  0  0  0
   10.6748   -4.8752    0.0000 C   0  0  0  0  0  0  0  0  0  0  0  0
   10.6748   -5.7002    0.0000 C   0  0  0  0  0  0  0  0  0  0  0  0
    9.9603   -6.1127    0.0000 C   0  0  2  0  0  0  0  0  0  0  0  0
    9.9603   -6.9377    0.0000 C   0  0  0  0  0  0  0  0  0  0  0  0
    9.2458   -7.3502    0.0000 C   0  0  0  0  0  0  0  0  0  0  0  0
    8.5313   -6.9377    0.0000 C   0  0  1  0  0  0  0  0  0  0  0  0
    7.8169   -7.3502    0.0000 C   0  0  2  0  0  0  0  0  0  0  0  0
    7.8169   -8.1752    0.0000 C   0  0  0  0  0  0  0  0  0  0  0  0
    7.1024   -8.5877    0.0000 C   0  0  0  0  0  0  0  0  0  0  0  0
    6.3879   -8.1752    0.0000 C   0  0  1  0  0  0  0  0  0  0  0  0
    5.6735   -8.5877    0.0000 C   0  0  2  0  0  0  0  0  0  0  0  0
    4.9590   -8.1752    0.0000 C   0  0  1  0  0  0  0  0  0  0  0  0
    4.9590   -7.3502    0.0000 C   0  0  0  0  0  0  0  0  0  0  0  0
    5.6735   -6.9377    0.0000 C   0  0  0  0  0  0  0  0  0  0  0  0
    6.3879   -7.3502    0.0000 C   0  0  2  0  0  0  0  0  0  0  0  0
    7.1024   -6.9377    0.0000 C   0  0  1  0  0  0  0  0  0  0  0  0
    7.1024   -6.1127    0.0000 C   0  0  0  0  0  0  0  0  0  0  0  0
    7.8169   -5.7002    0.0000 C   0  0  0  0  0  0  0  0  0  0  0  0
    8.5313   -6.1127    0.0000 C   0  0  0  0  0  0  0  0  0  0  0  0
    9.2458   -5.7002    0.0000 C   0  0  2  0  0  0  0  0  0  0  0  0
   10.6748   -6.5252    0.0000 C   0  0  0  0  0  0  0  0  0  0  0  0
   10.6748   -7.3502    0.0000 O   0  0  0  0  0  0  0  0  0  0  0  0
   11.3892   -6.1127    0.0000 O   0  0  0  0  0  0  0  0  0  0  0  0
    6.3879   -6.5252    0.0000 C   0  0  0  0  0  0  0  0  0  0  0  0
    5.2610   -9.3022    0.0000 C   0  0  0  0  0  0  0  0  0  0  0  0
    7.8169   -6.5252    0.0000 C   0  0  0  0  0  0  0  0  0  0  0  0
    8.5313   -7.7627    0.0000 C   0  0  0  0  0  0  0  0  0  0  0  0
    9.9603   -3.6377    0.0000 C   0  0  0  0  0  0  0  0  0  0  0  0
    8.5313   -4.4627    0.0000 C   0  0  0  0  0  0  0  0  0  0  0  0
    6.0860   -9.3022    0.0000 C   0  0  0  0  0  0  0  0  0  0  0  0
    4.2445   -8.5877    0.0000 O   0  0  0  0  0  0  0  0  0  0  0  0
    6.3879   -9.0002    0.0000 H   0  0  0  0  0  0  0  0  0  0  0  0
    9.2458   -6.5252    0.0000 H   0  0  0  0  0  0  0  0  0  0  0  0
    5.6735  -10.0167    0.0000 O   0  0  0  0  0  0  0  0  0  0  0  0
    7.1024   -7.7627    0.0000 H   0  0  0  0  0  0  0  0  0  0  0  0
  1  2  1  0  0  0  0
  2  3  1  0  0  0  0
  3  4  1  0  0  0  0
  4  5  1  0  0  0  0
  5  6  1  0  0  0  0
  6  7  1  0  0  0  0
  7  8  1  0  0  0  0
  8  9  1  0  0  0  0
  9 10  1  0  0  0  0
 10 11  1  0  0  0  0
 11 12  1  0  0  0  0
 12 13  1  0  0  0  0
 13 14  1  0  0  0  0
 14 15  1  0  0  0  0
 15 16  1  0  0  0  0
 16 17  1  0  0  0  0
 12 17  1  0  0  0  0
 17 18  1  0  0  0  0
  9 18  1  0  0  0  0
 18 19  1  0  0  0  0
 19 20  1  0  0  0  0
 20 21  2  0  0  0  0
  8 21  1  0  0  0  0
 21 22  1  0  0  0  0
  5 22  1  0  0  0  0
  1 22  1  0  0  0  0
 23 24  2  0  0  0  0
 23 25  1  0  0  0  0
  5 23  1  1  0  0  0
 17 26  1  1  0  0  0
 13 27  1  1  0  0  0
  9 28  1  1  0  0  0
  8 29  1  6  0  0  0
  2 30  1  6  0  0  0
  1 31  1  1  0  0  0
 13 32  1  6  0  0  0
 14 33  1  6  0  0  0
 12 34  1  6  0  0  0
 22 35  1  1  0  0  0
 27 36  1  0  0  0  0
 18 37  1  6  0  0  0
M  END
>  <cdx:fragmentId>
2465

$$$$
