30037.cdx
  Mrv1902 05222410212D          

 22 26  0  0  0  0            999 V2000
    6.3227   -8.5052    0.0000 C   0  0  0  0  0  0  0  0  0  0  0  0
    5.6739   -9.0147    0.0000 C   0  0  0  0  0  0  0  0  0  0  0  0
    5.9580   -9.7892    0.0000 C   0  0  0  0  0  0  0  0  0  0  0  0
    6.7824   -9.7584    0.0000 C   0  0  0  0  0  0  0  0  0  0  0  0
    7.0079   -8.9648    0.0000 N   0  0  0  0  0  0  0  0  0  0  0  0
    7.3570  -10.3504    0.0000 N   0  0  0  0  0  0  0  0  0  0  0  0
    8.1570  -10.1488    0.0000 C   0  0  0  0  0  0  0  0  0  0  0  0
    8.3824   -9.3552    0.0000 C   0  0  0  0  0  0  0  0  0  0  0  0
    7.8078   -8.7632    0.0000 C   0  0  0  0  0  0  0  0  0  0  0  0
    8.7316  -10.7409    0.0000 C   0  0  0  0  0  0  0  0  0  0  0  0
    9.5316  -10.5393    0.0000 C   0  0  0  0  0  0  0  0  0  0  0  0
    9.7570   -9.7457    0.0000 C   0  0  0  0  0  0  0  0  0  0  0  0
    9.1824   -9.1536    0.0000 C   0  0  0  0  0  0  0  0  0  0  0  0
    4.8495   -9.0456    0.0000 C   0  0  0  0  0  0  0  0  0  0  0  0
    4.6241   -9.8392    0.0000 C   0  0  0  0  0  0  0  0  0  0  0  0
    5.3092  -10.2988    0.0000 N   0  0  0  0  0  0  0  0  0  0  0  0
    4.2749   -8.4535    0.0000 C   0  0  0  0  0  0  0  0  0  0  0  0
    3.4749   -8.6551    0.0000 C   0  0  0  0  0  0  0  0  0  0  0  0
    3.2495   -9.4487    0.0000 C   0  0  0  0  0  0  0  0  0  0  0  0
    3.8241  -10.0408    0.0000 C   0  0  0  0  0  0  0  0  0  0  0  0
    6.2919   -7.6807    0.0000 O   0  0  0  0  0  0  0  0  0  0  0  0
    8.0333   -7.9696    0.0000 O   0  0  0  0  0  0  0  0  0  0  0  0
  1  2  1  0  0  0  0
  2  3  2  0  0  0  0
  3  4  1  0  0  0  0
  4  5  1  0  0  0  0
  5  1  1  0  0  0  0
  4  6  1  0  0  0  0
  6  7  1  0  0  0  0
  7  8  1  0  0  0  0
  8  9  1  0  0  0  0
  9  5  1  0  0  0  0
  7 10  2  0  0  0  0
 10 11  1  0  0  0  0
 11 12  2  0  0  0  0
 12 13  1  0  0  0  0
 13  8  2  0  0  0  0
  2 14  1  0  0  0  0
 14 15  1  0  0  0  0
 15 16  1  0  0  0  0
 16  3  1  0  0  0  0
 14 17  2  0  0  0  0
 17 18  1  0  0  0  0
 18 19  2  0  0  0  0
 19 20  1  0  0  0  0
 20 15  2  0  0  0  0
  1 21  2  0  0  0  0
  9 22  2  0  0  0  0
M  END
>  <cdx:fragmentId>
5

$$$$
