300307.cdx
  Mrv1902 05222410222D          

 12 12  0  0  0  0            999 V2000
    7.3630   -7.2594    0.0000 C   0  0  0  0  0  0  0  0  0  0  0  0
    7.3630   -6.4344    0.0000 C   0  0  0  0  0  0  0  0  0  0  0  0
    6.6486   -6.0219    0.0000 C   0  0  0  0  0  0  0  0  0  0  0  0
    5.9341   -6.4344    0.0000 C   0  0  0  0  0  0  0  0  0  0  0  0
    5.9341   -7.2594    0.0000 C   0  0  0  0  0  0  0  0  0  0  0  0
    6.6486   -7.6719    0.0000 N   0  0  0  0  0  0  0  0  0  0  0  0
    6.6486   -5.1969    0.0000 O   0  0  0  0  0  0  0  0  0  0  0  0
    5.2196   -7.6719    0.0000 C   0  0  0  0  0  0  0  0  0  0  0  0
    8.0775   -7.6719    0.0000 C   0  0  0  0  0  0  0  0  0  0  0  0
    8.7920   -7.2594    0.0000 O   0  0  0  0  0  0  0  0  0  0  0  0
    5.2196   -6.0219    0.0000 Cl  0  0  0  0  0  0  0  0  0  0  0  0
    8.0775   -6.0219    0.0000 Cl  0  0  0  0  0  0  0  0  0  0  0  0
  1  2  2  0  0  0  0
  2  3  1  0  0  0  0
  3  4  1  0  0  0  0
  4  5  2  0  0  0  0
  5  6  1  0  0  0  0
  1  6  1  0  0  0  0
  3  7  2  0  0  0  0
  5  8  1  0  0  0  0
  9 10  1  0  0  0  0
  1  9  1  0  0  0  0
  4 11  1  0  0  0  0
  2 12  1  0  0  0  0
M  END
>  <cdx:fragmentId>
3839

$$$$
