300364.cdx
  Mrv1902 05222410192D          

 13 14  0  0  0  0            999 V2000
    5.3021   -6.3545    0.0000 C   0  0  0  0  0  0  0  0  0  0  0  0
    4.5876   -5.9420    0.0000 C   0  0  0  0  0  0  0  0  0  0  0  0
    3.8731   -6.3545    0.0000 C   0  0  0  0  0  0  0  0  0  0  0  0
    3.8731   -7.1795    0.0000 C   0  0  0  0  0  0  0  0  0  0  0  0
    4.5876   -7.5920    0.0000 C   0  0  0  0  0  0  0  0  0  0  0  0
    5.3021   -7.1795    0.0000 C   0  0  0  0  0  0  0  0  0  0  0  0
    6.1271   -7.1795    0.0000 C   0  0  0  0  0  0  0  0  0  0  0  0
    6.1271   -6.3545    0.0000 C   0  0  0  0  0  0  0  0  0  0  0  0
    5.5156   -5.5576    0.0000 O   0  0  0  0  0  0  0  0  0  0  0  0
    6.3406   -5.5576    0.0000 O   0  0  0  0  0  0  0  0  0  0  0  0
    6.9239   -6.1409    0.0000 C   0  0  0  0  0  0  0  0  0  0  0  0
    5.5156   -7.9764    0.0000 C   0  0  0  0  0  0  0  0  0  0  0  0
    4.5876   -5.1170    0.0000 C   0  0  0  0  0  0  0  0  0  0  0  0
  1  2  1  0  0  0  0
  2  3  2  0  0  0  0
  3  4  1  0  0  0  0
  4  5  1  0  0  0  0
  5  6  1  0  0  0  0
  6  7  1  0  0  0  0
  7  8  1  0  0  0  0
  1  8  1  0  0  0  0
  1  6  1  0  0  0  0
  1  9  1  0  0  0  0
  8 10  1  0  0  0  0
  8 11  1  0  0  0  0
  6 12  1  0  0  0  0
  2 13  1  0  0  0  0
M  END
>  <cdx:fragmentId>
841

$$$$
