300349.cdx
  Mrv1902 05222410202D          

 13 12  0  0  0  0            999 V2000
    3.8283   -7.1592    0.0000 C   0  0  0  0  0  0  0  0  0  0  0  0
    5.9717   -5.9217    0.0000 C   0  0  0  0  0  0  0  0  0  0  0  0
    7.4007   -5.9217    0.0000 C   0  0  0  0  0  0  0  0  0  0  0  0
   10.2586   -6.7467    0.0000 C   0  0  0  0  0  0  0  0  0  0  0  0
    9.5441   -7.1592    0.0000 C   0  0  0  0  0  0  0  0  0  0  0  0
    8.8296   -6.7467    0.0000 C   0  0  0  0  0  0  0  0  0  0  0  0
    8.1151   -7.1592    0.0000 C   0  0  0  0  0  0  0  0  0  0  0  0
    7.4007   -6.7467    0.0000 C   0  0  0  0  0  0  0  0  0  0  0  0
    6.6862   -7.1592    0.0000 C   0  0  0  0  0  0  0  0  0  0  0  0
    5.9717   -6.7467    0.0000 C   0  0  0  0  0  0  0  0  0  0  0  0
    5.2573   -7.1592    0.0000 C   0  0  0  0  0  0  0  0  0  0  0  0
    4.5428   -6.7467    0.0000 C   0  0  0  0  0  0  0  0  0  0  0  0
    4.5428   -5.9217    0.0000 C   0  0  0  0  0  0  0  0  0  0  0  0
 12  1  1  0  0  0  0
 10  2  1  0  0  0  0
  8  3  1  0  0  0  0
  5  4  1  0  0  0  0
  6  5  1  0  0  0  0
  7  6  1  0  0  0  0
  8  7  1  0  0  0  0
  9  8  1  0  0  0  0
 10  9  1  0  0  0  0
 11 10  1  0  0  0  0
 12 11  1  0  0  0  0
 13 12  1  0  0  0  0
M  END
>  <cdx:fragmentId>
6096

$$$$
