300375.cdx
  Mrv1902 05222410202D          

 46 50  0  0  0  0            999 V2000
    9.3115   -9.6128    0.0000 O   0  0  0  0  0  0  0  0  0  0  0  0
   10.0228  -10.0307    0.0000 C   0  0  2  0  0  0  0  0  0  0  0  0
   10.7404   -9.6235    0.0000 C   0  0  1  0  0  0  0  0  0  0  0  0
   10.7466   -8.7985    0.0000 C   0  0  2  0  0  0  0  0  0  0  0  0
   10.0352   -8.3807    0.0000 C   0  0  2  0  0  0  0  0  0  0  0  0
    9.3177   -8.7878    0.0000 C   0  0  2  0  0  0  0  0  0  0  0  0
   10.0167  -10.8556    0.0000 C   0  0  0  0  0  0  0  0  0  0  0  0
   11.4641   -8.3914    0.0000 O   0  0  0  0  0  0  0  0  0  0  0  0
   10.0352   -7.5557    0.0000 O   0  0  0  0  0  0  0  0  0  0  0  0
    8.6063   -8.3700    0.0000 O   0  0  0  0  0  0  0  0  0  0  0  0
   11.4517  -10.0414    0.0000 O   0  0  0  0  0  0  0  0  0  0  0  0
    7.8888   -8.7771    0.0000 C   0  0  1  0  0  0  0  0  0  0  0  0
    7.1774   -8.3593    0.0000 C   0  0  1  0  0  0  0  0  0  0  0  0
    6.4598   -8.7664    0.0000 O   0  0  0  0  0  0  0  0  0  0  0  0
    6.4537   -9.5914    0.0000 C   0  0  2  0  0  0  0  0  0  0  0  0
    7.1650  -10.0092    0.0000 C   0  0  1  0  0  0  0  0  0  0  0  0
    7.8826   -9.6021    0.0000 C   0  0  1  0  0  0  0  0  0  0  0  0
    5.7361   -9.9985    0.0000 C   0  0  0  0  0  0  0  0  0  0  0  0
    8.5939  -10.0199    0.0000 O   0  0  0  0  0  0  0  0  0  0  0  0
    7.1589  -10.8342    0.0000 O   0  0  0  0  0  0  0  0  0  0  0  0
    7.1836   -7.5343    0.0000 O   0  0  0  0  0  0  0  0  0  0  0  0
    6.4722   -7.1165    0.0000 C   0  0  0  0  0  0  0  0  0  0  0  0
    6.4784   -6.2915    0.0000 C   0  0  0  0  0  0  0  0  0  0  0  0
    5.7670   -5.8737    0.0000 O   0  0  0  0  0  0  0  0  0  0  0  0
    5.0495   -6.2808    0.0000 C   0  0  0  0  0  0  0  0  0  0  0  0
    5.0433   -7.1058    0.0000 C   0  0  0  0  0  0  0  0  0  0  0  0
    5.7547   -7.5236    0.0000 C   0  0  0  0  0  0  0  0  0  0  0  0
    5.7547   -8.3486    0.0000 O   0  0  0  0  0  0  0  0  0  0  0  0
    7.1959   -5.8844    0.0000 C   0  0  0  0  0  0  0  0  0  0  0  0
    7.9073   -6.3022    0.0000 C   0  0  0  0  0  0  0  0  0  0  0  0
    8.6248   -5.8951    0.0000 C   0  0  0  0  0  0  0  0  0  0  0  0
    8.6310   -5.0701    0.0000 C   0  0  0  0  0  0  0  0  0  0  0  0
    7.9196   -4.6522    0.0000 C   0  0  0  0  0  0  0  0  0  0  0  0
    7.2021   -5.0594    0.0000 C   0  0  0  0  0  0  0  0  0  0  0  0
    9.3486   -4.6629    0.0000 O   0  0  0  0  0  0  0  0  0  0  0  0
    4.3381   -5.8630    0.0000 C   0  0  0  0  0  0  0  0  0  0  0  0
    3.6206   -6.2701    0.0000 C   0  0  0  0  0  0  0  0  0  0  0  0
    3.6144   -7.0951    0.0000 C   0  0  0  0  0  0  0  0  0  0  0  0
    4.3258   -7.5129    0.0000 C   0  0  0  0  0  0  0  0  0  0  0  0
    4.3196   -8.3379    0.0000 O   0  0  0  0  0  0  0  0  0  0  0  0
    2.9092   -5.8522    0.0000 O   0  0  0  0  0  0  0  0  0  0  0  0
    4.3443   -5.0380    0.0000 C   0  0  0  0  0  0  0  0  0  0  0  0
    3.6329   -4.6201    0.0000 C   0  0  0  0  0  0  0  0  0  0  0  0
    3.6391   -3.7952    0.0000 C   0  0  0  0  0  0  0  0  0  0  0  0
    2.9278   -3.3773    0.0000 C   0  0  0  0  0  0  0  0  0  0  0  0
    4.3536   -3.3827    0.0000 C   0  0  0  0  0  0  0  0  0  0  0  0
  1  2  1  0  0  0  0
  2  3  1  0  0  0  0
  3  4  1  0  0  0  0
  4  5  1  0  0  0  0
  5  6  1  0  0  0  0
  6  1  1  0  0  0  0
  2  7  1  6  0  0  0
  4  8  1  6  0  0  0
  5  9  1  6  0  0  0
  6 10  1  1  0  0  0
  3 11  1  1  0  0  0
 12 10  1  6  0  0  0
 12 13  1  0  0  0  0
 13 14  1  0  0  0  0
 14 15  1  0  0  0  0
 15 16  1  0  0  0  0
 16 17  1  0  0  0  0
 17 12  1  0  0  0  0
 15 18  1  6  0  0  0
 17 19  1  6  0  0  0
 16 20  1  1  0  0  0
 13 21  1  1  0  0  0
 21 22  1  0  0  0  0
 22 23  2  0  0  0  0
 23 24  1  0  0  0  0
 24 25  1  0  0  0  0
 25 26  2  0  0  0  0
 26 27  1  0  0  0  0
 27 22  1  0  0  0  0
 27 28  2  0  0  0  0
 23 29  1  0  0  0  0
 29 30  2  0  0  0  0
 30 31  1  0  0  0  0
 31 32  2  0  0  0  0
 32 33  1  0  0  0  0
 33 34  2  0  0  0  0
 34 29  1  0  0  0  0
 32 35  1  0  0  0  0
 25 36  1  0  0  0  0
 36 37  2  0  0  0  0
 37 38  1  0  0  0  0
 38 39  2  0  0  0  0
 39 26  1  0  0  0  0
 39 40  1  0  0  0  0
 37 41  1  0  0  0  0
 36 42  1  0  0  0  0
 42 43  1  0  0  0  0
 43 44  2  0  0  0  0
 44 45  1  0  0  0  0
 44 46  1  0  0  0  0
M  END
>  <cdx:fragmentId>
1574

$$$$
