300334.cdx
  Mrv1902 05222410262D          

  7  6  0  0  0  0            999 V2000
    8.4724   -6.7533    0.0000 C   0  0  0  0  0  0  0  0  0  0  0  0
    7.7579   -6.3408    0.0000 C   0  0  0  0  0  0  0  0  0  0  0  0
    7.0434   -6.7533    0.0000 C   0  0  0  0  0  0  0  0  0  0  0  0
    6.3290   -6.3408    0.0000 C   0  0  0  0  0  0  0  0  0  0  0  0
    5.6145   -6.7533    0.0000 C   0  0  0  0  0  0  0  0  0  0  0  0
    7.7579   -5.5158    0.0000 O   0  0  0  0  0  0  0  0  0  0  0  0
    7.0434   -7.5783    0.0000 O   0  0  0  0  0  0  0  0  0  0  0  0
  1  2  1  0  0  0  0
  2  3  1  0  0  0  0
  3  4  1  0  0  0  0
  4  5  1  0  0  0  0
  2  6  2  0  0  0  0
  3  7  2  0  0  0  0
M  END
>  <cdx:fragmentId>
5357

$$$$
