300343.cdx
  Mrv1902 05222410282D          

 31 33  0  0  0  0            999 V2000
    3.7199   -3.0525    0.0000 C   0  0  0  0  0  0  0  0  0  0  0  0
    3.7199   -3.8775    0.0000 C   0  0  0  0  0  0  0  0  0  0  0  0
    4.4344   -4.2900    0.0000 C   0  0  0  0  0  0  0  0  0  0  0  0
    5.1488   -3.8775    0.0000 C   0  0  0  0  0  0  0  0  0  0  0  0
    5.1488   -3.0525    0.0000 C   0  0  0  0  0  0  0  0  0  0  0  0
    4.4344   -2.6400    0.0000 C   0  0  0  0  0  0  0  0  0  0  0  0
    5.8633   -4.2900    0.0000 O   0  0  0  0  0  0  0  0  0  0  0  0
    6.5778   -3.8775    0.0000 C   0  0  0  0  0  0  0  0  0  0  0  0
    6.5778   -3.0525    0.0000 C   0  0  0  0  0  0  0  0  0  0  0  0
    5.8633   -2.6400    0.0000 C   0  0  0  0  0  0  0  0  0  0  0  0
    7.2923   -4.2900    0.0000 O   0  0  0  0  0  0  0  0  0  0  0  0
    3.0054   -4.2900    0.0000 O   0  0  0  0  0  0  0  0  0  0  0  0
    3.0054   -5.1150    0.0000 C   0  0  0  0  0  0  0  0  0  0  0  0
    3.7199   -5.5275    0.0000 C   0  0  1  0  0  0  0  0  0  0  0  0
    4.4344   -5.1150    0.0000 C   0  0  2  0  0  0  0  0  0  0  0  0
    5.0177   -5.6984    0.0000 O   0  0  0  0  0  0  0  0  0  0  0  0
    3.7199   -6.3525    0.0000 O   0  0  0  0  0  0  0  0  0  0  0  0
    5.0177   -6.5234    0.0000 C   0  0  0  0  0  0  0  0  0  0  0  0
    5.7322   -6.9359    0.0000 C   0  0  0  0  0  0  0  0  0  0  0  0
    5.7322   -7.7609    0.0000 C   0  0  0  0  0  0  0  0  0  0  0  0
    6.4467   -8.1734    0.0000 C   0  0  0  0  0  0  0  0  0  0  0  0
    4.3033   -6.9359    0.0000 O   0  0  0  0  0  0  0  0  0  0  0  0
    2.2085   -5.3285    0.0000 C   0  0  0  0  0  0  0  0  0  0  0  0
    2.5929   -5.8295    0.0000 C   0  0  0  0  0  0  0  0  0  0  0  0
    6.4467   -6.5234    0.0000 C   0  0  0  0  0  0  0  0  0  0  0  0
    3.0054   -6.7650    0.0000 C   0  0  0  0  0  0  0  0  0  0  0  0
    3.0054   -7.5900    0.0000 C   0  0  0  0  0  0  0  0  0  0  0  0
    3.7199   -8.0025    0.0000 C   0  0  0  0  0  0  0  0  0  0  0  0
    2.2910   -8.0025    0.0000 C   0  0  0  0  0  0  0  0  0  0  0  0
    1.5765   -7.5900    0.0000 C   0  0  0  0  0  0  0  0  0  0  0  0
    2.2910   -6.3525    0.0000 O   0  0  0  0  0  0  0  0  0  0  0  0
  1  2  2  0  0  0  0
  2  3  1  0  0  0  0
  3  4  2  0  0  0  0
  4  5  1  0  0  0  0
  5  6  2  0  0  0  0
  6  1  1  0  0  0  0
  4  7  1  0  0  0  0
  7  8  1  0  0  0  0
  8  9  1  0  0  0  0
  9 10  2  0  0  0  0
 10  5  1  0  0  0  0
  8 11  2  0  0  0  0
  2 12  1  0  0  0  0
 12 13  1  0  0  0  0
 13 14  1  0  0  0  0
 14 15  1  0  0  0  0
 15  3  1  0  0  0  0
 15 16  1  1  0  0  0
 14 17  1  1  0  0  0
 16 18  1  0  0  0  0
 18 19  1  0  0  0  0
 20 21  1  0  0  0  0
 18 22  2  0  0  0  0
 13 23  1  0  0  0  0
 13 24  1  0  0  0  0
 19 25  1  0  0  0  0
 19 20  1  0  0  0  0
 17 26  1  0  0  0  0
 26 27  1  0  0  0  0
 27 28  1  0  0  0  0
 27 29  2  0  0  0  0
 29 30  1  0  0  0  0
 26 31  2  0  0  0  0
M  END
>  <cdx:fragmentId>
429

$$$$
