300321.cdx
  Mrv1902 05222410252D          

 19 20  0  0  0  0            999 V2000
    7.7545   -6.1346    0.0000 C   0  0  0  0  0  0  0  0  0  0  0  0
    7.7545   -5.3096    0.0000 O   0  0  0  0  0  0  0  0  0  0  0  0
    8.4689   -6.5471    0.0000 C   0  0  0  0  0  0  0  0  0  0  0  0
    9.1834   -6.1346    0.0000 C   0  0  0  0  0  0  0  0  0  0  0  0
    9.8979   -6.5471    0.0000 C   0  0  0  0  0  0  0  0  0  0  0  0
    9.8979   -7.3721    0.0000 C   0  0  0  0  0  0  0  0  0  0  0  0
    9.1834   -7.7846    0.0000 C   0  0  0  0  0  0  0  0  0  0  0  0
    8.4689   -7.3721    0.0000 C   0  0  0  0  0  0  0  0  0  0  0  0
    9.1834   -5.3096    0.0000 O   0  0  0  0  0  0  0  0  0  0  0  0
    7.0400   -6.5471    0.0000 C   0  0  0  0  0  0  0  0  0  0  0  0
    7.0400   -7.3721    0.0000 C   0  0  0  0  0  0  0  0  0  0  0  0
    6.3255   -7.7846    0.0000 C   0  0  0  0  0  0  0  0  0  0  0  0
    5.6111   -7.3721    0.0000 C   0  0  0  0  0  0  0  0  0  0  0  0
    5.6111   -6.5471    0.0000 C   0  0  0  0  0  0  0  0  0  0  0  0
    6.3255   -6.1346    0.0000 C   0  0  0  0  0  0  0  0  0  0  0  0
    4.8966   -7.7846    0.0000 O   0  0  0  0  0  0  0  0  0  0  0  0
    4.1821   -7.3721    0.0000 C   0  0  0  0  0  0  0  0  0  0  0  0
    4.8966   -6.1346    0.0000 O   0  0  0  0  0  0  0  0  0  0  0  0
    7.7545   -7.7846    0.0000 O   0  0  0  0  0  0  0  0  0  0  0  0
  1  2  2  0  0  0  0
  3  4  1  0  0  0  0
  4  5  2  0  0  0  0
  5  6  1  0  0  0  0
  6  7  2  0  0  0  0
  7  8  1  0  0  0  0
  3  8  2  0  0  0  0
  4  9  1  0  0  0  0
  1  3  1  0  0  0  0
 10 11  1  0  0  0  0
 11 12  2  0  0  0  0
 12 13  1  0  0  0  0
 13 14  2  0  0  0  0
 14 15  1  0  0  0  0
 10 15  2  0  0  0  0
 16 17  1  0  0  0  0
 13 16  1  0  0  0  0
 14 18  1  0  0  0  0
 11 19  1  0  0  0  0
  1 10  1  0  0  0  0
M  END
>  <cdx:fragmentId>
4525

$$$$
