300347.cdx
  Mrv1902 05222410262D          

 16 16  0  0  0  0            999 V2000
    7.4559   -7.5310    0.0000 C   0  0  0  0  0  0  0  0  0  0  0  0
    7.9703   -6.8860    0.0000 C   0  0  0  0  0  0  0  0  0  0  0  0
    7.7867   -6.0817    0.0000 C   0  0  0  0  0  0  0  0  0  0  0  0
    7.0434   -5.7237    0.0000 C   0  0  0  0  0  0  0  0  0  0  0  0
    6.3001   -6.0817    0.0000 C   0  0  0  0  0  0  0  0  0  0  0  0
    6.1166   -6.8860    0.0000 C   0  0  0  0  0  0  0  0  0  0  0  0
    6.6309   -7.5310    0.0000 C   0  0  0  0  0  0  0  0  0  0  0  0
    7.8684   -8.2455    0.0000 O   0  0  0  0  0  0  0  0  0  0  0  0
    5.6551   -5.5673    0.0000 Si  0  0  0  0  0  0  0  0  0  0  0  0
    5.7781   -4.7515    0.0000 C   0  0  0  0  0  0  0  0  0  0  0  0
    5.0101   -5.0529    0.0000 C   0  0  0  0  0  0  0  0  0  0  0  0
    4.8872   -5.8687    0.0000 C   0  0  0  0  0  0  0  0  0  0  0  0
    8.4317   -5.5673    0.0000 Si  0  0  0  0  0  0  0  0  0  0  0  0
    9.0768   -5.0529    0.0000 C   0  0  0  0  0  0  0  0  0  0  0  0
    8.3088   -4.7515    0.0000 C   0  0  0  0  0  0  0  0  0  0  0  0
    9.1997   -5.8687    0.0000 C   0  0  0  0  0  0  0  0  0  0  0  0
  1  2  1  0  0  0  0
  2  3  2  0  0  0  0
  3  4  1  0  0  0  0
  4  5  2  0  0  0  0
  5  6  1  0  0  0  0
  6  7  2  0  0  0  0
  1  7  1  0  0  0  0
  1  8  2  0  0  0  0
  9 10  1  0  0  0  0
  9 11  1  0  0  0  0
  9 12  1  0  0  0  0
  5  9  1  0  0  0  0
 13 14  1  0  0  0  0
 13 15  1  0  0  0  0
 13 16  1  0  0  0  0
  3 13  1  0  0  0  0
M  END
>  <cdx:fragmentId>
5936

$$$$
