300392.cdx
  Mrv1902 05222410272D          

 36 39  0  0  0  0            999 V2000
    3.5688   -8.3943    0.0000 C   0  0  0  0  0  0  0  0  0  0  0  0
    2.8543   -8.8068    0.0000 C   0  0  0  0  0  0  0  0  0  0  0  0
    2.8543   -9.6318    0.0000 C   0  0  1  0  0  0  0  0  0  0  0  0
    3.5688  -10.0443    0.0000 C   0  0  0  0  0  0  0  0  0  0  0  0
    4.2832   -9.6318    0.0000 C   0  0  0  0  0  0  0  0  0  0  0  0
    4.9977  -10.0443    0.0000 C   0  0  0  0  0  0  0  0  0  0  0  0
    5.7122   -9.6318    0.0000 C   0  0  0  0  0  0  0  0  0  0  0  0
    5.7122   -8.8068    0.0000 C   0  0  1  0  0  0  0  0  0  0  0  0
    6.4267   -8.3943    0.0000 C   0  0  2  0  0  0  0  0  0  0  0  0
    7.2113   -8.6493    0.0000 C   0  0  0  0  0  0  0  0  0  0  0  0
    7.6962   -7.9818    0.0000 C   0  0  0  0  0  0  0  0  0  0  0  0
    7.2113   -7.3144    0.0000 C   0  0  1  0  0  0  0  0  0  0  0  0
    6.4267   -7.5693    0.0000 C   0  0  1  0  0  0  0  0  0  0  0  0
    5.7122   -7.1568    0.0000 C   0  0  0  0  0  0  0  0  0  0  0  0
    4.9977   -7.5693    0.0000 C   0  0  0  0  0  0  0  0  0  0  0  0
    4.9977   -8.3943    0.0000 C   0  0  2  0  0  0  0  0  0  0  0  0
    4.2832   -8.8068    0.0000 C   0  0  1  0  0  0  0  0  0  0  0  0
    2.1398  -10.0443    0.0000 O   0  0  0  0  0  0  0  0  0  0  0  0
    6.4267   -6.7443    0.0000 C   0  0  0  0  0  0  0  0  0  0  0  0
    4.2832   -7.9818    0.0000 C   0  0  0  0  0  0  0  0  0  0  0  0
    6.9142   -5.9167    0.0000 C   0  0  0  0  0  0  0  0  0  0  0  0
    7.4662   -6.5298    0.0000 C   0  0  2  0  0  0  0  0  0  0  0  0
    8.2732   -6.3582    0.0000 C   0  0  0  0  0  0  0  0  0  0  0  0
    8.5281   -5.5736    0.0000 C   0  0  0  0  0  0  0  0  0  0  0  0
   12.0531   -6.2852    0.0000 O   0  0  0  0  0  0  0  0  0  0  0  0
    5.7122   -7.9818    0.0000 H   0  0  0  0  0  0  0  0  0  0  0  0
    4.9977   -9.2193    0.0000 H   0  0  0  0  0  0  0  0  0  0  0  0
    6.4267   -9.2193    0.0000 H   0  0  0  0  0  0  0  0  0  0  0  0
   11.2461   -6.4568    0.0000 O   0  0  0  0  0  0  0  0  0  0  0  0
    9.0380   -4.0044    0.0000 C   0  0  0  0  0  0  0  0  0  0  0  0
    9.5900   -4.6175    0.0000 C   0  0  0  0  0  0  0  0  0  0  0  0
   10.3970   -4.4459    0.0000 C   0  0  0  0  0  0  0  0  0  0  0  0
   10.6941   -5.8437    0.0000 C   0  0  0  0  0  0  0  0  0  0  0  0
    9.8871   -6.0152    0.0000 C   0  0  0  0  0  0  0  0  0  0  0  0
    9.3351   -5.4021    0.0000 C   0  0  0  0  0  0  0  0  0  0  0  0
    7.9959   -7.0595    0.0000 H   0  0  0  0  0  0  0  0  0  0  0  0
 33 29  1  0  0  0  0
 29 25  1  0  0  0  0
 35 31  1  0  0  0  0
 31 30  1  0  0  0  0
 32 31  1  0  0  0  0
 34 33  1  0  0  0  0
 35 34  2  0  0  0  0
  1  2  1  0  0  0  0
  2  3  1  0  0  0  0
  3  4  1  0  0  0  0
  4  5  1  0  0  0  0
  5  6  2  0  0  0  0
  6  7  1  0  0  0  0
  7  8  1  0  0  0  0
  8  9  1  0  0  0  0
  9 10  1  0  0  0  0
 10 11  1  0  0  0  0
 11 12  1  0  0  0  0
 12 13  1  0  0  0  0
  9 13  1  0  0  0  0
 13 14  1  0  0  0  0
 14 15  1  0  0  0  0
 15 16  1  0  0  0  0
  8 16  1  0  0  0  0
 16 17  1  0  0  0  0
  5 17  1  0  0  0  0
  1 17  1  0  0  0  0
  3 18  1  1  0  0  0
 13 19  1  1  0  0  0
 17 20  1  1  0  0  0
 22 21  1  6  0  0  0
 22 23  1  0  0  0  0
 23 24  1  0  0  0  0
 24 35  1  0  0  0  0
 12 22  1  0  0  0  0
  8 26  1  1  0  0  0
 16 27  1  6  0  0  0
  9 28  1  6  0  0  0
 12 36  1  6  0  0  0
M  END
>  <cdx:fragmentId>
2955

$$$$
