300331.cdx
  Mrv1902 05222410242D          

 13 12  0  0  0  0            999 V2000
    9.5441   -5.5212    0.0000 C   0  0  0  0  0  0  0  0  0  0  0  0
    9.5441   -6.3462    0.0000 C   0  0  0  0  0  0  0  0  0  0  0  0
    8.8296   -6.7587    0.0000 C   0  0  0  0  0  0  0  0  0  0  0  0
    8.1151   -6.3462    0.0000 C   0  0  0  0  0  0  0  0  0  0  0  0
    7.4007   -6.7587    0.0000 C   0  0  0  0  0  0  0  0  0  0  0  0
    6.6862   -6.3462    0.0000 C   0  0  0  0  0  0  0  0  0  0  0  0
    5.9717   -6.7587    0.0000 C   0  0  0  0  0  0  0  0  0  0  0  0
    5.2573   -6.3462    0.0000 C   0  0  0  0  0  0  0  0  0  0  0  0
    4.5428   -6.7587    0.0000 C   0  0  0  0  0  0  0  0  0  0  0  0
    3.8283   -6.3462    0.0000 C   0  0  0  0  0  0  0  0  0  0  0  0
    9.2421   -7.4732    0.0000 O   0  0  0  0  0  0  0  0  0  0  0  0
    8.4171   -7.4732    0.0000 C   0  0  0  0  0  0  0  0  0  0  0  0
   10.2586   -6.7587    0.0000 C   0  0  0  0  0  0  0  0  0  0  0  0
  1  2  1  0  0  0  0
  2  3  1  0  0  0  0
  3  4  1  0  0  0  0
  4  5  1  0  0  0  0
  5  6  1  0  0  0  0
  6  7  1  0  0  0  0
  7  8  1  0  0  0  0
  8  9  1  0  0  0  0
  9 10  1  0  0  0  0
  3 11  1  0  0  0  0
  3 12  1  0  0  0  0
  2 13  1  0  0  0  0
M  END
>  <cdx:fragmentId>
5249

$$$$
