300346.cdx
  Mrv1902 05222410262D          

  9  8  0  0  0  0            999 V2000
    8.1151   -5.9217    0.0000 C   0  0  0  0  0  0  0  0  0  0  0  0
    8.1151   -6.7467    0.0000 C   0  0  0  0  0  0  0  0  0  0  0  0
    7.4007   -7.1592    0.0000 C   0  0  0  0  0  0  0  0  0  0  0  0
    6.6862   -6.7467    0.0000 C   0  0  0  0  0  0  0  0  0  0  0  0
    5.9717   -7.1592    0.0000 C   0  0  0  0  0  0  0  0  0  0  0  0
    5.2573   -6.7467    0.0000 C   0  0  0  0  0  0  0  0  0  0  0  0
    6.2737   -6.0323    0.0000 C   0  0  0  0  0  0  0  0  0  0  0  0
    7.0987   -6.0323    0.0000 C   0  0  0  0  0  0  0  0  0  0  0  0
    8.8296   -7.1592    0.0000 C   0  0  0  0  0  0  0  0  0  0  0  0
  1  2  2  0  0  0  0
  2  3  1  0  0  0  0
  3  4  1  0  0  0  0
  4  5  1  0  0  0  0
  5  6  1  0  0  0  0
  4  7  1  0  0  0  0
  4  8  1  0  0  0  0
  2  9  1  0  0  0  0
M  END
>  <cdx:fragmentId>
5910

$$$$
