300317.cdx
  Mrv1902 05222410232D          

  8  9  0  0  0  0            999 V2000
    7.0434   -6.9609    0.0000 C   0  0  0  0  0  0  0  0  0  0  0  0
    7.7579   -6.5484    0.0000 C   0  0  0  0  0  0  0  0  0  0  0  0
    7.0434   -6.1359    0.0000 C   0  0  0  0  0  0  0  0  0  0  0  0
    6.3290   -6.5484    0.0000 C   0  0  0  0  0  0  0  0  0  0  0  0
    5.6145   -6.9609    0.0000 C   0  0  0  0  0  0  0  0  0  0  0  0
    5.6145   -6.1359    0.0000 C   0  0  0  0  0  0  0  0  0  0  0  0
    8.4724   -6.1359    0.0000 C   0  0  0  0  0  0  0  0  0  0  0  0
    8.4724   -6.9609    0.0000 C   0  0  0  0  0  0  0  0  0  0  0  0
  1  2  1  0  0  0  0
  2  3  1  0  0  0  0
  3  4  1  0  0  0  0
  1  4  1  0  0  0  0
  1  3  1  0  0  0  0
  4  5  1  0  0  0  0
  4  6  1  0  0  0  0
  2  7  1  0  0  0  0
  2  8  1  0  0  0  0
M  END
>  <cdx:fragmentId>
4322

$$$$
