300394.cdx
  Mrv1902 05222410282D          

  9  9  0  0  0  0            999 V2000
    6.2556   -6.1359    0.0000 N   0  0  0  0  0  0  0  0  0  0  0  0
    6.2556   -6.9609    0.0000 C   0  0  0  0  0  0  0  0  0  0  0  0
    5.6105   -7.4753    0.0000 C   0  0  0  0  0  0  0  0  0  0  0  0
    4.8062   -7.2917    0.0000 C   0  0  0  0  0  0  0  0  0  0  0  0
    4.4483   -6.5484    0.0000 C   0  0  0  0  0  0  0  0  0  0  0  0
    4.8062   -5.8051    0.0000 C   0  0  0  0  0  0  0  0  0  0  0  0
    5.6105   -5.6216    0.0000 C   0  0  0  0  0  0  0  0  0  0  0  0
    6.9700   -7.3734    0.0000 O   0  0  0  0  0  0  0  0  0  0  0  0
    6.9700   -5.7234    0.0000 C   0  0  0  0  0  0  0  0  0  0  0  0
  1  2  1  0  0  0  0
  2  3  1  0  0  0  0
  3  4  1  0  0  0  0
  4  5  1  0  0  0  0
  5  6  1  0  0  0  0
  6  7  1  0  0  0  0
  1  7  1  0  0  0  0
  2  8  2  0  0  0  0
  1  9  1  0  0  0  0
M  END
>  <cdx:fragmentId>
3118

$$$$
