30034.cdx
  Mrv1902 05222410202D          

 23 24  0  0  0  0            999 V2000
    4.5081  -12.2364    0.0000 C   0  0  2  0  0  0  0  0  0  0  0  0
    4.5081  -13.0614    0.0000 C   0  0  2  0  0  0  0  0  0  0  0  0
    5.2225  -13.4739    0.0000 C   0  0  1  0  0  0  0  0  0  0  0  0
    5.9370  -13.0614    0.0000 C   0  0  2  0  0  0  0  0  0  0  0  0
    5.9370  -12.2364    0.0000 C   0  0  1  0  0  0  0  0  0  0  0  0
    5.2225  -11.8239    0.0000 O   0  0  0  0  0  0  0  0  0  0  0  0
    6.6515  -11.8239    0.0000 O   0  0  0  0  0  0  0  0  0  0  0  0
    6.6515  -10.9989    0.0000 C   0  0  0  0  0  0  0  0  0  0  0  0
    7.3659  -10.5864    0.0000 C   0  0  0  0  0  0  0  0  0  0  0  0
    7.3659   -9.7614    0.0000 C   0  0  0  0  0  0  0  0  0  0  0  0
    8.7949   -9.7614    0.0000 C   0  0  0  0  0  0  0  0  0  0  0  0
    8.0804   -9.3489    0.0000 C   0  0  0  0  0  0  0  0  0  0  0  0
    9.5094   -9.3489    0.0000 C   0  0  0  0  0  0  0  0  0  0  0  0
    9.5094   -8.5239    0.0000 C   0  0  0  0  0  0  0  0  0  0  0  0
    8.7949   -8.1114    0.0000 C   0  0  0  0  0  0  0  0  0  0  0  0
    8.0804   -8.5239    0.0000 C   0  0  0  0  0  0  0  0  0  0  0  0
    3.7936  -11.8239    0.0000 C   0  0  0  0  0  0  0  0  0  0  0  0
    3.0791  -12.2364    0.0000 O   0  0  0  0  0  0  0  0  0  0  0  0
   10.2238   -8.1114    0.0000 O   0  0  0  0  0  0  0  0  0  0  0  0
    5.2225  -14.2989    0.0000 O   0  0  0  0  0  0  0  0  0  0  0  0
    3.7936  -13.4739    0.0000 O   0  0  0  0  0  0  0  0  0  0  0  0
    6.6515  -13.4739    0.0000 O   0  0  0  0  0  0  0  0  0  0  0  0
   10.9383   -8.5239    0.0000 C   0  0  0  0  0  0  0  0  0  0  0  0
  1  2  1  0  0  0  0
  2  3  1  0  0  0  0
  3  4  1  0  0  0  0
  4  5  1  0  0  0  0
  5  6  1  0  0  0  0
  6  1  1  0  0  0  0
  5  7  1  1  0  0  0
  7  8  1  0  0  0  0
  8  9  1  0  0  0  0
  9 10  2  0  0  0  0
 11 12  1  0  0  0  0
 12 10  1  0  0  0  0
 11 13  2  0  0  0  0
 13 14  1  0  0  0  0
 14 15  2  0  0  0  0
 15 16  1  0  0  0  0
 16 12  2  0  0  0  0
  1 17  1  1  0  0  0
 17 18  1  0  0  0  0
 14 19  1  0  0  0  0
  3 20  1  1  0  0  0
  2 21  1  6  0  0  0
  4 22  1  6  0  0  0
 19 23  1  0  0  0  0
M  END
>  <cdx:fragmentId>
5

$$$$
