300340.cdx
  Mrv1902 05222410272D          

 16 18  0  0  0  0            999 V2000
    6.1451   -6.4548    0.0000 C   0  0  0  0  0  0  0  0  0  0  0  0
    6.9701   -6.4548    0.0000 C   0  0  0  0  0  0  0  0  0  0  0  0
    7.5221   -7.0679    0.0000 C   0  0  0  0  0  0  0  0  0  0  0  0
    8.3291   -6.8964    0.0000 N   0  0  0  0  0  0  0  0  0  0  0  0
    8.5840   -6.1117    0.0000 C   0  0  0  0  0  0  0  0  0  0  0  0
    8.0320   -5.4986    0.0000 N   0  0  0  0  0  0  0  0  0  0  0  0
    7.2250   -5.6702    0.0000 C   0  0  0  0  0  0  0  0  0  0  0  0
    6.5576   -5.1852    0.0000 S   0  0  0  0  0  0  0  0  0  0  0  0
    5.8901   -5.6702    0.0000 C   0  0  0  0  0  0  0  0  0  0  0  0
    5.1177   -5.3803    0.0000 C   0  0  0  0  0  0  0  0  0  0  0  0
    4.4095   -5.8034    0.0000 C   0  0  0  0  0  0  0  0  0  0  0  0
    4.2988   -6.6210    0.0000 C   0  0  0  0  0  0  0  0  0  0  0  0
    4.8689   -7.2173    0.0000 C   0  0  0  0  0  0  0  0  0  0  0  0
    5.6906   -7.1433    0.0000 C   0  0  0  0  0  0  0  0  0  0  0  0
    7.2672   -7.8525    0.0000 N   0  0  0  0  0  0  0  0  0  0  0  0
    9.3910   -5.9402    0.0000 N   0  0  0  0  0  0  0  0  0  0  0  0
  1  2  1  0  0  0  0
  2  3  2  0  0  0  0
  3  4  1  0  0  0  0
  4  5  2  0  0  0  0
  5  6  1  0  0  0  0
  6  7  2  0  0  0  0
  7  8  1  0  0  0  0
  8  9  1  0  0  0  0
  9 10  1  0  0  0  0
 10 11  1  0  0  0  0
 11 12  1  0  0  0  0
 12 13  1  0  0  0  0
 13 14  1  0  0  0  0
  1 14  1  0  0  0  0
  1  9  2  0  0  0  0
  2  7  1  0  0  0  0
  3 15  1  0  0  0  0
  5 16  1  0  0  0  0
M  END
>  <cdx:fragmentId>
5643

$$$$
