300301.cdx
  Mrv1902 05222410232D          

 31 33  0  0  0  0            999 V2000
    4.6878   -5.7221    0.0000 C   0  0  0  0  0  0  0  0  0  0  0  0
    3.9733   -6.1346    0.0000 C   0  0  0  0  0  0  0  0  0  0  0  0
    3.9733   -6.9596    0.0000 C   0  0  0  0  0  0  0  0  0  0  0  0
    3.2588   -7.3721    0.0000 C   0  0  0  0  0  0  0  0  0  0  0  0
    2.5444   -6.9596    0.0000 C   0  0  0  0  0  0  0  0  0  0  0  0
    2.5444   -6.1346    0.0000 C   0  0  0  0  0  0  0  0  0  0  0  0
    3.2588   -5.7221    0.0000 C   0  0  0  0  0  0  0  0  0  0  0  0
    4.6878   -4.8971    0.0000 O   0  0  0  0  0  0  0  0  0  0  0  0
    5.4022   -6.1346    0.0000 O   0  0  0  0  0  0  0  0  0  0  0  0
    1.8299   -5.7221    0.0000 O   0  0  0  0  0  0  0  0  0  0  0  0
    1.8299   -7.3721    0.0000 O   0  0  0  0  0  0  0  0  0  0  0  0
    3.2588   -8.1971    0.0000 O   0  0  0  0  0  0  0  0  0  0  0  0
    6.1167   -5.7221    0.0000 C   0  0  0  0  0  0  0  0  0  0  0  0
    7.5456   -5.7221    0.0000 O   0  0  0  0  0  0  0  0  0  0  0  0
    6.8312   -6.1346    0.0000 C   0  0  1  0  0  0  0  0  0  0  0  0
    6.8312   -6.9596    0.0000 C   0  0  2  0  0  0  0  0  0  0  0  0
    7.5456   -7.3721    0.0000 C   0  0  1  0  0  0  0  0  0  0  0  0
    8.2601   -6.9596    0.0000 C   0  0  2  0  0  0  0  0  0  0  0  0
    8.2601   -6.1346    0.0000 C   0  0  2  0  0  0  0  0  0  0  0  0
    8.9746   -5.7221    0.0000 O   0  0  0  0  0  0  0  0  0  0  0  0
    9.6891   -6.1346    0.0000 C   0  0  0  0  0  0  0  0  0  0  0  0
   10.4035   -5.7221    0.0000 C   0  0  0  0  0  0  0  0  0  0  0  0
   11.1180   -6.1346    0.0000 C   0  0  0  0  0  0  0  0  0  0  0  0
   11.8325   -5.7221    0.0000 C   0  0  0  0  0  0  0  0  0  0  0  0
   12.5469   -6.1346    0.0000 C   0  0  0  0  0  0  0  0  0  0  0  0
   12.5469   -6.9596    0.0000 C   0  0  0  0  0  0  0  0  0  0  0  0
   11.8325   -7.3721    0.0000 C   0  0  0  0  0  0  0  0  0  0  0  0
   11.1180   -6.9596    0.0000 C   0  0  0  0  0  0  0  0  0  0  0  0
    8.9746   -7.3721    0.0000 O   0  0  0  0  0  0  0  0  0  0  0  0
    7.5456   -8.1971    0.0000 O   0  0  0  0  0  0  0  0  0  0  0  0
    6.1167   -7.3721    0.0000 O   0  0  0  0  0  0  0  0  0  0  0  0
  1  2  1  0  0  0  0
  2  3  1  0  0  0  0
  3  4  2  0  0  0  0
  4  5  1  0  0  0  0
  5  6  2  0  0  0  0
  6  7  1  0  0  0  0
  2  7  2  0  0  0  0
  1  8  2  0  0  0  0
  1  9  1  0  0  0  0
  6 10  1  0  0  0  0
  5 11  1  0  0  0  0
  4 12  1  0  0  0  0
 14 15  1  0  0  0  0
 15 16  1  0  0  0  0
 16 17  1  0  0  0  0
 17 18  1  0  0  0  0
 18 19  1  0  0  0  0
 14 19  1  0  0  0  0
 21 22  1  0  0  0  0
 20 21  1  0  0  0  0
 23 24  1  0  0  0  0
 24 25  2  0  0  0  0
 25 26  1  0  0  0  0
 26 27  2  0  0  0  0
 27 28  1  0  0  0  0
 23 28  2  0  0  0  0
 22 23  1  0  0  0  0
 19 20  1  1  0  0  0
 18 29  1  6  0  0  0
 17 30  1  1  0  0  0
 16 31  1  6  0  0  0
 15 13  1  1  0  0  0
  9 13  1  0  0  0  0
M  END
>  <cdx:fragmentId>
3517

$$$$
