300323.cdx
  Mrv1902 05222410252D          

 18 20  0  0  0  0            999 V2000
    6.7788   -6.4094    0.0000 C   0  0  0  0  0  0  0  0  0  0  0  0
    6.5112   -5.6290    0.0000 C   0  0  0  0  0  0  0  0  0  0  0  0
    5.6863   -5.6424    0.0000 C   0  0  0  0  0  0  0  0  0  0  0  0
    5.4441   -6.4310    0.0000 C   0  0  0  0  0  0  0  0  0  0  0  0
    6.1193   -6.9051    0.0000 S   0  0  0  0  0  0  0  0  0  0  0  0
    4.6637   -6.6986    0.0000 C   0  0  0  0  0  0  0  0  0  0  0  0
    3.9885   -6.2245    0.0000 C   0  0  0  0  0  0  0  0  0  0  0  0
    3.3290   -6.7202    0.0000 C   0  0  0  0  0  0  0  0  0  0  0  0
    3.5966   -7.5006    0.0000 C   0  0  0  0  0  0  0  0  0  0  0  0
    4.4215   -7.4872    0.0000 S   0  0  0  0  0  0  0  0  0  0  0  0
    9.9746   -7.9787    0.0000 O   0  0  0  0  0  0  0  0  0  0  0  0
    8.8322   -8.8372    0.0000 O   0  0  0  0  0  0  0  0  0  0  0  0
    9.1556   -8.0782    0.0000 C   0  0  0  0  0  0  0  0  0  0  0  0
    7.8350   -7.4321    0.0000 S   0  0  0  0  0  0  0  0  0  0  0  0
    7.5674   -6.6517    0.0000 C   0  0  0  0  0  0  0  0  0  0  0  0
    8.2270   -6.1560    0.0000 C   0  0  0  0  0  0  0  0  0  0  0  0
    8.9021   -6.6301    0.0000 C   0  0  0  0  0  0  0  0  0  0  0  0
    8.6599   -7.4187    0.0000 C   0  0  0  0  0  0  0  0  0  0  0  0
 18 13  1  0  0  0  0
 13 11  1  0  0  0  0
 13 12  2  0  0  0  0
 18 14  1  0  0  0  0
 15 14  1  0  0  0  0
 16 15  2  0  0  0  0
 17 16  1  0  0  0  0
 18 17  2  0  0  0  0
  1  2  2  0  0  0  0
  2  3  1  0  0  0  0
  3  4  2  0  0  0  0
  4  5  1  0  0  0  0
  1  5  1  0  0  0  0
  6  7  2  0  0  0  0
  7  8  1  0  0  0  0
  8  9  2  0  0  0  0
  9 10  1  0  0  0  0
  6 10  1  0  0  0  0
  4  6  1  0  0  0  0
 15  1  1  0  0  0  0
M  END
>  <cdx:fragmentId>
4629

$$$$
