30033.cdx
  Mrv1902 05222410222D          

 31 34  0  0  0  0            999 V2000
    6.4193  -11.5764    0.0000 O   0  0  0  0  0  0  0  0  0  0  0  0
    6.4193  -12.4014    0.0000 C   0  0  1  0  0  0  0  0  0  0  0  0
    7.1338  -12.8139    0.0000 C   0  0  2  0  0  0  0  0  0  0  0  0
    7.8482  -12.4014    0.0000 O   0  0  0  0  0  0  0  0  0  0  0  0
    7.8482  -11.5764    0.0000 C   0  0  0  0  0  0  0  0  0  0  0  0
    7.1338  -11.1639    0.0000 C   0  0  0  0  0  0  0  0  0  0  0  0
    8.5627  -11.1639    0.0000 C   0  0  0  0  0  0  0  0  0  0  0  0
    8.5627  -10.3389    0.0000 C   0  0  0  0  0  0  0  0  0  0  0  0
    7.8482   -9.9264    0.0000 C   0  0  0  0  0  0  0  0  0  0  0  0
    7.1338  -10.3389    0.0000 C   0  0  0  0  0  0  0  0  0  0  0  0
    9.2772  -11.5764    0.0000 O   0  0  0  0  0  0  0  0  0  0  0  0
    9.9917  -11.1639    0.0000 C   0  0  0  0  0  0  0  0  0  0  0  0
    9.9917  -10.3389    0.0000 C   0  0  0  0  0  0  0  0  0  0  0  0
    9.2772   -9.9264    0.0000 C   0  0  0  0  0  0  0  0  0  0  0  0
    4.9904  -12.4014    0.0000 C   0  0  0  0  0  0  0  0  0  0  0  0
    5.7048  -12.8139    0.0000 C   0  0  0  0  0  0  0  0  0  0  0  0
    4.2759  -12.8139    0.0000 C   0  0  0  0  0  0  0  0  0  0  0  0
    4.2759  -13.6389    0.0000 C   0  0  0  0  0  0  0  0  0  0  0  0
    4.9904  -14.0514    0.0000 C   0  0  0  0  0  0  0  0  0  0  0  0
    5.7048  -13.6389    0.0000 C   0  0  0  0  0  0  0  0  0  0  0  0
    3.5614  -12.4014    0.0000 O   0  0  0  0  0  0  0  0  0  0  0  0
    2.8469  -11.9889    0.0000 C   0  0  0  0  0  0  0  0  0  0  0  0
    3.5614  -14.0514    0.0000 O   0  0  0  0  0  0  0  0  0  0  0  0
    6.4193   -9.9264    0.0000 O   0  0  0  0  0  0  0  0  0  0  0  0
   10.7061  -11.5764    0.0000 O   0  0  0  0  0  0  0  0  0  0  0  0
    7.1338  -13.6389    0.0000 C   0  0  0  0  0  0  0  0  0  0  0  0
    7.8482  -14.0514    0.0000 O   0  0  0  0  0  0  0  0  0  0  0  0
    7.8482  -14.8764    0.0000 C   0  0  0  0  0  0  0  0  0  0  0  0
    8.5627  -15.2889    0.0000 C   0  0  0  0  0  0  0  0  0  0  0  0
    7.1338  -15.2889    0.0000 O   0  0  0  0  0  0  0  0  0  0  0  0
    5.7048   -9.5139    0.0000 C   0  0  0  0  0  0  0  0  0  0  0  0
  1  2  1  0  0  0  0
  2  3  1  0  0  0  0
  3  4  1  0  0  0  0
  4  5  1  0  0  0  0
  5  6  1  0  0  0  0
  6  1  1  0  0  0  0
  5  7  2  0  0  0  0
  7  8  1  0  0  0  0
  8  9  2  0  0  0  0
  9 10  1  0  0  0  0
 10  6  2  0  0  0  0
  7 11  1  0  0  0  0
 11 12  1  0  0  0  0
 12 13  1  0  0  0  0
 13 14  2  0  0  0  0
 14  8  1  0  0  0  0
 15 16  2  0  0  0  0
  2 16  1  1  0  0  0
 15 17  1  0  0  0  0
 17 18  2  0  0  0  0
 18 19  1  0  0  0  0
 19 20  2  0  0  0  0
 20 16  1  0  0  0  0
 17 21  1  0  0  0  0
 18 23  1  0  0  0  0
 10 24  1  0  0  0  0
 12 25  2  0  0  0  0
  3 26  1  6  0  0  0
 26 27  1  0  0  0  0
 27 28  1  0  0  0  0
 28 29  1  0  0  0  0
 28 30  2  0  0  0  0
 21 22  1  0  0  0  0
 24 31  1  0  0  0  0
M  STY  2   1 SUP   2 SUP
M  SAL   1  2  21  22
M  SBL   1  1  24
M  SMT   1 OCH3
M  SAP   1  1  21  17  1
M  SAL   2  2  24  31
M  SBL   2  1  26
M  SMT   2 OCH3
M  SAP   2  1  24  10  1
M  END
>  <cdx:fragmentId>
5

$$$$
