300328.cdx
  Mrv1902 05222410222D          

 17 17  0  0  0  0            999 V2000
    7.6095   -5.5611    0.0000 C   0  0  0  0  0  0  0  0  0  0  0  0
    8.3240   -5.9736    0.0000 C   0  0  0  0  0  0  0  0  0  0  0  0
    9.0384   -5.5611    0.0000 C   0  0  0  0  0  0  0  0  0  0  0  0
    7.6095   -4.7361    0.0000 O   0  0  0  0  0  0  0  0  0  0  0  0
    6.8950   -5.9736    0.0000 C   0  0  0  0  0  0  0  0  0  0  0  0
    6.1806   -5.5611    0.0000 C   0  0  0  0  0  0  0  0  0  0  0  0
    5.4661   -5.9736    0.0000 C   0  0  0  0  0  0  0  0  0  0  0  0
    5.4661   -6.7986    0.0000 C   0  0  0  0  0  0  0  0  0  0  0  0
    6.1806   -7.2111    0.0000 C   0  0  0  0  0  0  0  0  0  0  0  0
    6.8950   -6.7986    0.0000 C   0  0  0  0  0  0  0  0  0  0  0  0
    6.1806   -8.0361    0.0000 O   0  0  0  0  0  0  0  0  0  0  0  0
    5.4661   -8.4486    0.0000 C   0  0  0  0  0  0  0  0  0  0  0  0
    4.7516   -5.5611    0.0000 O   0  0  0  0  0  0  0  0  0  0  0  0
    4.0371   -5.9736    0.0000 C   0  0  0  0  0  0  0  0  0  0  0  0
    4.7516   -7.2111    0.0000 O   0  0  0  0  0  0  0  0  0  0  0  0
    9.7529   -5.9736    0.0000 O   0  0  0  0  0  0  0  0  0  0  0  0
    8.3240   -6.7986    0.0000 O   0  0  0  0  0  0  0  0  0  0  0  0
  1  2  1  0  0  0  0
  2  3  1  0  0  0  0
  1  4  2  0  0  0  0
  5  6  1  0  0  0  0
  6  7  2  0  0  0  0
  7  8  1  0  0  0  0
  8  9  2  0  0  0  0
  9 10  1  0  0  0  0
  5 10  2  0  0  0  0
 11 12  1  0  0  0  0
  9 11  1  0  0  0  0
 13 14  1  0  0  0  0
  7 13  1  0  0  0  0
  8 15  1  0  0  0  0
  1  5  1  0  0  0  0
  3 16  1  0  0  0  0
  2 17  1  0  0  0  0
M  END
>  <cdx:fragmentId>
5107

$$$$
