300360.cdx
  Mrv1902 05222410192D          

 11 10  0  0  0  0            999 V2000
    5.1929   -4.4257    0.0000 C   0  0  0  0  0  0  0  0  0  0  0  0
    8.4633   -5.9651    0.0000 C   0  0  0  0  0  0  0  0  0  0  0  0
    4.8910   -5.5526    0.0000 O   0  0  0  0  0  0  0  0  0  0  0  0
    9.8923   -5.1401    0.0000 C   0  0  0  0  0  0  0  0  0  0  0  0
    9.1778   -4.7276    0.0000 C   0  0  0  0  0  0  0  0  0  0  0  0
    8.4633   -5.1401    0.0000 C   0  0  0  0  0  0  0  0  0  0  0  0
    7.7488   -4.7276    0.0000 C   0  0  0  0  0  0  0  0  0  0  0  0
    7.0344   -5.1401    0.0000 C   0  0  0  0  0  0  0  0  0  0  0  0
    6.3199   -4.7276    0.0000 C   0  0  0  0  0  0  0  0  0  0  0  0
    5.6054   -5.1401    0.0000 C   0  0  0  0  0  0  0  0  0  0  0  0
    6.0179   -5.8546    0.0000 C   0  0  0  0  0  0  0  0  0  0  0  0
 10  1  1  0  0  0  0
  6  2  1  0  0  0  0
 10  3  1  0  0  0  0
  5  4  2  0  0  0  0
  6  5  1  0  0  0  0
  7  6  2  0  0  0  0
  8  7  1  0  0  0  0
  9  8  1  0  0  0  0
 10  9  1  0  0  0  0
 11 10  1  0  0  0  0
M  END
>  <cdx:fragmentId>
551

$$$$
