300355.cdx
  Mrv1902 05222410272D          

 19 19  0  0  0  0            999 V2000
    5.3934   -5.5591    0.0000 C   0  0  0  0  0  0  0  0  0  0  0  0
    6.1079   -5.1466    0.0000 C   0  0  0  0  0  0  0  0  0  0  0  0
    5.3934   -6.3841    0.0000 C   0  0  0  0  0  0  0  0  0  0  0  0
    6.1079   -6.7966    0.0000 C   0  0  0  0  0  0  0  0  0  0  0  0
    6.1079   -7.6216    0.0000 C   0  0  0  0  0  0  0  0  0  0  0  0
    5.3934   -8.0341    0.0000 C   0  0  0  0  0  0  0  0  0  0  0  0
    4.6790   -7.6216    0.0000 C   0  0  0  0  0  0  0  0  0  0  0  0
    4.6790   -6.7966    0.0000 C   0  0  0  0  0  0  0  0  0  0  0  0
    3.9645   -6.3841    0.0000 O   0  0  0  0  0  0  0  0  0  0  0  0
    3.2500   -6.7966    0.0000 Si  0  0  0  0  0  0  0  0  0  0  0  0
    2.5356   -7.2091    0.0000 C   0  0  0  0  0  0  0  0  0  0  0  0
    3.2500   -7.6216    0.0000 C   0  0  0  0  0  0  0  0  0  0  0  0
    2.5356   -6.3841    0.0000 C   0  0  0  0  0  0  0  0  0  0  0  0
    6.8224   -6.3841    0.0000 O   0  0  0  0  0  0  0  0  0  0  0  0
    7.5369   -6.7966    0.0000 Si  0  0  0  0  0  0  0  0  0  0  0  0
    7.5369   -7.6216    0.0000 C   0  0  0  0  0  0  0  0  0  0  0  0
    8.2513   -7.2091    0.0000 C   0  0  0  0  0  0  0  0  0  0  0  0
    8.2513   -6.3841    0.0000 C   0  0  0  0  0  0  0  0  0  0  0  0
    4.6790   -5.1466    0.0000 O   0  0  0  0  0  0  0  0  0  0  0  0
  1  2  1  0  0  0  0
  3  4  1  0  0  0  0
  4  5  2  0  0  0  0
  5  6  1  0  0  0  0
  6  7  2  0  0  0  0
  7  8  1  0  0  0  0
  3  8  2  0  0  0  0
 10 11  1  0  0  0  0
 10 12  1  0  0  0  0
 10 13  1  0  0  0  0
  9 10  1  0  0  0  0
  8  9  1  0  0  0  0
 15 16  1  0  0  0  0
 15 17  1  0  0  0  0
 15 18  1  0  0  0  0
 14 15  1  0  0  0  0
  4 14  1  0  0  0  0
  1  3  1  0  0  0  0
  1 19  2  0  0  0  0
M  END
>  <cdx:fragmentId>
346

$$$$
