300438.cdx
  Mrv1902 05222410202D          

 23 24  0  0  0  0            999 V2000
    3.9682   -6.3408    0.0000 O   0  0  0  0  0  0  0  0  0  0  0  0
    4.6827   -5.9283    0.0000 C   0  0  2  0  0  0  0  0  0  0  0  0
    5.3971   -6.3408    0.0000 C   0  0  1  0  0  0  0  0  0  0  0  0
    5.3971   -7.1658    0.0000 C   0  0  2  0  0  0  0  0  0  0  0  0
    4.6827   -7.5783    0.0000 C   0  0  2  0  0  0  0  0  0  0  0  0
    3.9682   -7.1658    0.0000 C   0  0  1  0  0  0  0  0  0  0  0  0
    4.6827   -5.1033    0.0000 O   0  0  0  0  0  0  0  0  0  0  0  0
    6.1116   -5.9283    0.0000 O   0  0  0  0  0  0  0  0  0  0  0  0
    4.6827   -8.4033    0.0000 O   0  0  0  0  0  0  0  0  0  0  0  0
    6.1116   -7.5783    0.0000 O   0  0  0  0  0  0  0  0  0  0  0  0
    6.8261   -6.3408    0.0000 O   0  0  0  0  0  0  0  0  0  0  0  0
    6.8261   -7.1658    0.0000 C   0  0  2  0  0  0  0  0  0  0  0  0
    7.5406   -7.5783    0.0000 C   0  0  1  0  0  0  0  0  0  0  0  0
    8.2550   -7.1658    0.0000 C   0  0  2  0  0  0  0  0  0  0  0  0
    8.2550   -6.3408    0.0000 C   0  0  2  0  0  0  0  0  0  0  0  0
    7.5406   -5.9283    0.0000 C   0  0  1  0  0  0  0  0  0  0  0  0
    7.5406   -5.1033    0.0000 C   0  0  0  0  0  0  0  0  0  0  0  0
    8.2550   -4.6908    0.0000 O   0  0  0  0  0  0  0  0  0  0  0  0
    8.9695   -5.9283    0.0000 O   0  0  0  0  0  0  0  0  0  0  0  0
    8.9695   -7.5783    0.0000 O   0  0  0  0  0  0  0  0  0  0  0  0
    7.5406   -8.4033    0.0000 O   0  0  0  0  0  0  0  0  0  0  0  0
    3.2537   -7.5783    0.0000 C   0  0  0  0  0  0  0  0  0  0  0  0
    3.2537   -8.4033    0.0000 O   0  0  0  0  0  0  0  0  0  0  0  0
  1  2  1  0  0  0  0
  2  3  1  0  0  0  0
  3  4  1  0  0  0  0
  4  5  1  0  0  0  0
  5  6  1  0  0  0  0
  1  6  1  0  0  0  0
  2  7  1  1  0  0  0
  3  8  1  6  0  0  0
  5  9  1  1  0  0  0
 11 12  1  0  0  0  0
 12 13  1  0  0  0  0
 13 14  1  0  0  0  0
 14 15  1  0  0  0  0
 15 16  1  0  0  0  0
 11 16  1  0  0  0  0
 17 18  1  0  0  0  0
 16 17  1  6  0  0  0
 15 19  1  6  0  0  0
 14 20  1  6  0  0  0
 13 21  1  1  0  0  0
 12 10  1  6  0  0  0
  4 10  1  1  0  0  0
 22 23  1  0  0  0  0
  6 22  1  1  0  0  0
M  END
>  <cdx:fragmentId>
5318

$$$$
