300451.cdx
  Mrv1902 05222410252D          

 18 19  0  0  0  0            999 V2000
    8.7236   -5.4433    0.0000 C   0  0  0  0  0  0  0  0  0  0  0  0
    8.7236   -6.2683    0.0000 C   0  0  0  0  0  0  0  0  0  0  0  0
    8.0091   -6.6808    0.0000 C   0  0  0  0  0  0  0  0  0  0  0  0
    7.2946   -6.2683    0.0000 C   0  0  0  0  0  0  0  0  0  0  0  0
    6.5802   -6.6808    0.0000 C   0  0  0  0  0  0  0  0  0  0  0  0
    5.8657   -6.2683    0.0000 C   0  0  0  0  0  0  0  0  0  0  0  0
    5.8657   -5.4433    0.0000 C   0  0  0  0  0  0  0  0  0  0  0  0
    6.5802   -5.0308    0.0000 C   0  0  0  0  0  0  0  0  0  0  0  0
    7.2946   -5.4433    0.0000 C   0  0  0  0  0  0  0  0  0  0  0  0
    8.0091   -5.0308    0.0000 O   0  0  0  0  0  0  0  0  0  0  0  0
    9.4381   -5.0308    0.0000 C   0  0  0  0  0  0  0  0  0  0  0  0
    9.4381   -4.2058    0.0000 O   0  0  0  0  0  0  0  0  0  0  0  0
   10.1525   -5.4433    0.0000 O   0  0  0  0  0  0  0  0  0  0  0  0
    6.5802   -4.2058    0.0000 C   0  0  0  0  0  0  0  0  0  0  0  0
    5.1512   -5.0308    0.0000 C   0  0  0  0  0  0  0  0  0  0  0  0
    6.5802   -7.5058    0.0000 C   0  0  0  0  0  0  0  0  0  0  0  0
    8.7236   -4.6183    0.0000 C   0  0  0  0  0  0  0  0  0  0  0  0
    5.1512   -6.6808    0.0000 O   0  0  0  0  0  0  0  0  0  0  0  0
  1  2  1  0  0  0  0
  2  3  1  0  0  0  0
  3  4  1  0  0  0  0
  4  5  1  0  0  0  0
  5  6  2  0  0  0  0
  6  7  1  0  0  0  0
  7  8  2  0  0  0  0
  8  9  1  0  0  0  0
  4  9  2  0  0  0  0
  9 10  1  0  0  0  0
  1 10  1  0  0  0  0
 11 12  2  0  0  0  0
 11 13  1  0  0  0  0
  1 11  1  0  0  0  0
  8 14  1  0  0  0  0
  7 15  1  0  0  0  0
  5 16  1  0  0  0  0
  1 17  1  0  0  0  0
  6 18  1  0  0  0  0
M  END
>  <cdx:fragmentId>
6048

$$$$
