300425.cdx
  Mrv1902 05222410282D          

 10  9  0  0  0  0            999 V2000
    8.1183   -5.6396    0.0000 C   0  0  0  0  0  0  0  0  0  0  0  0
    7.4038   -6.0521    0.0000 C   0  0  0  0  0  0  0  0  0  0  0  0
    6.6894   -5.6396    0.0000 C   0  0  0  0  0  0  0  0  0  0  0  0
    5.9749   -6.0521    0.0000 C   0  0  0  0  0  0  0  0  0  0  0  0
    5.2604   -5.6396    0.0000 C   0  0  0  0  0  0  0  0  0  0  0  0
    8.1183   -4.8146    0.0000 O   0  0  0  0  0  0  0  0  0  0  0  0
    8.8328   -6.0521    0.0000 O   0  0  0  0  0  0  0  0  0  0  0  0
    5.2604   -4.8146    0.0000 O   0  0  0  0  0  0  0  0  0  0  0  0
    4.5460   -6.0521    0.0000 O   0  0  0  0  0  0  0  0  0  0  0  0
    6.6894   -4.8146    0.0000 C   0  0  0  0  0  0  0  0  0  0  0  0
  1  2  1  0  0  0  0
  2  3  1  0  0  0  0
  3  4  1  0  0  0  0
  4  5  1  0  0  0  0
  1  6  2  0  0  0  0
  1  7  1  0  0  0  0
  5  8  2  0  0  0  0
  5  9  1  0  0  0  0
  3 10  1  0  0  0  0
M  END
>  <cdx:fragmentId>
4538

$$$$
