300471.cdx
  Mrv1902 05222410222D          

 12 14  0  0  0  0            999 V2000
    7.2762   -5.1741    0.0000 O   0  0  0  0  0  0  0  0  0  0  0  0
    7.9906   -5.5866    0.0000 C   0  0  0  0  0  0  0  0  0  0  0  0
    7.2762   -5.9991    0.0000 C   0  0  0  0  0  0  0  0  0  0  0  0
    8.7051   -5.9991    0.0000 C   0  0  0  0  0  0  0  0  0  0  0  0
    8.7051   -6.8241    0.0000 C   0  0  0  0  0  0  0  0  0  0  0  0
    7.9906   -7.2366    0.0000 C   0  0  0  0  0  0  0  0  0  0  0  0
    7.2762   -6.8241    0.0000 C   0  0  0  0  0  0  0  0  0  0  0  0
    6.5617   -7.2366    0.0000 C   0  0  0  0  0  0  0  0  0  0  0  0
    5.8472   -6.8241    0.0000 C   0  0  0  0  0  0  0  0  0  0  0  0
    5.8472   -5.9991    0.0000 C   0  0  0  0  0  0  0  0  0  0  0  0
    6.5617   -5.5866    0.0000 C   0  0  0  0  0  0  0  0  0  0  0  0
    9.4196   -5.5866    0.0000 O   0  0  0  0  0  0  0  0  0  0  0  0
  1  2  1  0  0  0  0
  2  3  1  0  0  0  0
  1  3  1  0  0  0  0
  4  5  1  0  0  0  0
  5  6  1  0  0  0  0
  6  7  1  0  0  0  0
  7  8  1  0  0  0  0
  8  9  1  0  0  0  0
  9 10  1  0  0  0  0
 10 11  1  0  0  0  0
  2  4  1  0  0  0  0
  3  7  1  0  0  0  0
  3 11  1  0  0  0  0
  4 12  2  0  0  0  0
M  END
>  <cdx:fragmentId>
7116

$$$$
