300430.cdx
  Mrv1902 05222410282D          

 15 16  0  0  0  0            999 V2000
    4.0650   -5.5032    0.0000 C   0  0  0  0  0  0  0  0  0  0  0  0
    3.5129   -6.1163    0.0000 C   0  0  0  0  0  0  0  0  0  0  0  0
    3.8100   -4.7186    0.0000 O   0  0  0  0  0  0  0  0  0  0  0  0
    4.8719   -5.6748    0.0000 O   0  0  0  0  0  0  0  0  0  0  0  0
    6.6961   -6.4594    0.0000 O   0  0  0  0  0  0  0  0  0  0  0  0
    7.1810   -7.1268    0.0000 C   0  0  0  0  0  0  0  0  0  0  0  0
    6.6961   -7.7943    0.0000 O   0  0  0  0  0  0  0  0  0  0  0  0
    5.9115   -7.5393    0.0000 C   0  0  2  0  0  0  0  0  0  0  0  0
    5.9115   -6.7143    0.0000 C   0  0  1  0  0  0  0  0  0  0  0  0
    5.1269   -7.7943    0.0000 O   0  0  0  0  0  0  0  0  0  0  0  0
    5.1269   -6.4594    0.0000 C   0  0  1  0  0  0  0  0  0  0  0  0
    4.6419   -7.1268    0.0000 C   0  0  0  0  0  0  0  0  0  0  0  0
    8.0060   -7.1268    0.0000 C   0  0  0  0  0  0  0  0  0  0  0  0
    5.9115   -8.3643    0.0000 H   0  0  0  0  0  0  0  0  0  0  0  0
    5.9115   -5.8893    0.0000 H   0  0  0  0  0  0  0  0  0  0  0  0
  1  2  1  0  0  0  0
  1  3  2  0  0  0  0
  1  4  1  0  0  0  0
  5  6  1  0  0  0  0
  6  7  1  0  0  0  0
  7  8  1  0  0  0  0
  8  9  1  0  0  0  0
  5  9  1  0  0  0  0
 11 12  1  0  0  0  0
 10 12  1  0  0  0  0
  8 10  1  0  0  0  0
  9 11  1  0  0  0  0
  6 13  1  0  0  0  0
 11  4  1  1  0  0  0
  8 14  1  6  0  0  0
  9 15  1  6  0  0  0
M  END
>  <cdx:fragmentId>
4515

$$$$
