300447.cdx
  Mrv1902 05222410252D          

 27 28  0  0  0  0            999 V2000
    5.4641   -4.7678    0.0000 C   0  0  0  0  0  0  0  0  0  0  0  0
    4.7519   -4.3514    0.0000 O   0  0  0  0  0  0  0  0  0  0  0  0
    6.1808   -4.3591    0.0000 C   0  0  0  0  0  0  0  0  0  0  0  0
    6.8885   -5.6005    0.0000 O   0  0  0  0  0  0  0  0  0  0  0  0
    5.4462   -8.0677    0.0000 O   0  0  0  0  0  0  0  0  0  0  0  0
    3.3140   -5.9936    0.0000 C   0  0  0  0  0  0  0  0  0  0  0  0
    4.0307   -5.5850    0.0000 O   0  0  0  0  0  0  0  0  0  0  0  0
    5.4506   -7.2427    0.0000 C   0  0  0  0  0  0  0  0  0  0  0  0
    4.7384   -6.8263    0.0000 C   0  0  0  0  0  0  0  0  0  0  0  0
    4.7429   -6.0013    0.0000 C   0  0  0  0  0  0  0  0  0  0  0  0
    5.4596   -5.5927    0.0000 C   0  0  0  0  0  0  0  0  0  0  0  0
    6.1718   -6.0091    0.0000 C   0  0  0  0  0  0  0  0  0  0  0  0
    6.1673   -6.8341    0.0000 C   0  0  0  0  0  0  0  0  0  0  0  0
    7.0932   -7.3754    0.0000 C   0  0  0  0  0  0  0  0  0  0  0  0
    8.7327   -8.0856    0.0000 O   0  0  0  0  0  0  0  0  0  0  0  0
    7.3172   -5.6028    0.0000 O   0  0  0  0  0  0  0  0  0  0  0  0
   10.8873   -6.0348    0.0000 C   0  0  0  0  0  0  0  0  0  0  0  0
   10.1751   -5.6184    0.0000 O   0  0  0  0  0  0  0  0  0  0  0  0
    9.4584   -6.0270    0.0000 C   0  0  0  0  0  0  0  0  0  0  0  0
    8.7461   -5.6106    0.0000 C   0  0  0  0  0  0  0  0  0  0  0  0
    8.0294   -6.0192    0.0000 C   0  0  0  0  0  0  0  0  0  0  0  0
    8.0249   -6.8442    0.0000 C   0  0  0  0  0  0  0  0  0  0  0  0
    8.7372   -7.2606    0.0000 C   0  0  0  0  0  0  0  0  0  0  0  0
    9.4539   -6.8520    0.0000 C   0  0  0  0  0  0  0  0  0  0  0  0
    8.7506   -4.7856    0.0000 C   0  0  0  0  0  0  0  0  0  0  0  0
    8.0384   -4.3692    0.0000 O   0  0  0  0  0  0  0  0  0  0  0  0
    9.4673   -4.3770    0.0000 C   0  0  0  0  0  0  0  0  0  0  0  0
 22 14  1  0  0  0  0
 14 13  1  0  0  0  0
 11  1  1  0  0  0  0
 12  4  1  0  0  0  0
  8  5  1  0  0  0  0
 10  7  1  0  0  0  0
  7  6  1  0  0  0  0
 13  8  2  0  0  0  0
  9  8  1  0  0  0  0
 10  9  2  0  0  0  0
 11 10  1  0  0  0  0
 12 11  2  0  0  0  0
 13 12  1  0  0  0  0
 23 15  1  0  0  0  0
 21 16  1  0  0  0  0
 19 18  1  0  0  0  0
 18 17  1  0  0  0  0
 24 19  2  0  0  0  0
 20 19  1  0  0  0  0
 21 20  2  0  0  0  0
 22 21  1  0  0  0  0
 23 22  2  0  0  0  0
 24 23  1  0  0  0  0
  1  2  2  0  0  0  0
  1  3  1  0  0  0  0
 20 25  1  0  0  0  0
 25 26  2  0  0  0  0
 25 27  1  0  0  0  0
M  END
>  <cdx:fragmentId>
5824

$$$$
