300426.cdx
  Mrv1902 05222410272D          

  7  6  0  0  0  0            999 V2000
    4.7206   -6.6820    0.0000 C   0  0  0  0  0  0  0  0  0  0  0  0
    5.4350   -7.0945    0.0000 C   0  0  0  0  0  0  0  0  0  0  0  0
    6.1495   -6.6820    0.0000 C   0  0  0  0  0  0  0  0  0  0  0  0
    6.8640   -7.0945    0.0000 C   0  0  0  0  0  0  0  0  0  0  0  0
    7.5785   -6.6820    0.0000 C   0  0  0  0  0  0  0  0  0  0  0  0
    4.0061   -7.0945    0.0000 O   0  0  0  0  0  0  0  0  0  0  0  0
    6.1495   -5.8570    0.0000 C   0  0  0  0  0  0  0  0  0  0  0  0
  1  2  1  0  0  0  0
  2  3  1  0  0  0  0
  3  4  1  0  0  0  0
  4  5  1  0  0  0  0
  1  6  2  0  0  0  0
  3  7  1  0  0  0  0
M  END
>  <cdx:fragmentId>
4487

$$$$
