300497.cdx
  Mrv1902 05222410242D          

  7  7  0  0  0  0            999 V2000
    5.9141   -8.6292    0.0000 C   0  0  0  0  0  0  0  0  0  0  0  0
    5.9154   -7.8042    0.0000 C   0  0  0  0  0  0  0  0  0  0  0  0
    6.6305   -7.3928    0.0000 C   0  0  0  0  0  0  0  0  0  0  0  0
    7.3443   -7.8064    0.0000 C   0  0  0  0  0  0  0  0  0  0  0  0
    7.3430   -8.6314    0.0000 C   0  0  0  0  0  0  0  0  0  0  0  0
    6.6279   -9.0428    0.0000 N   0  0  0  0  0  0  0  0  0  0  0  0
    6.6318   -6.5678    0.0000 N   0  0  0  0  0  0  0  0  0  0  0  0
  1  2  1  0  0  0  0
  2  3  2  0  0  0  0
  3  4  1  0  0  0  0
  4  5  2  0  0  0  0
  5  6  1  0  0  0  0
  1  6  2  0  0  0  0
  3  7  1  0  0  0  0
M  END
>  <cdx:fragmentId>
8297

$$$$
