300418.cdx
  Mrv1902 05222410282D          

 34 37  0  0  0  0            999 V2000
    4.3499   -9.7625    0.0000 C   0  0  0  0  0  0  0  0  0  0  0  0
    4.3499  -10.5875    0.0000 C   0  0  0  0  0  0  0  0  0  0  0  0
    5.0644  -11.0000    0.0000 C   0  0  0  0  0  0  0  0  0  0  0  0
    5.7789  -10.5875    0.0000 C   0  0  0  0  0  0  0  0  0  0  0  0
    5.7789   -9.7625    0.0000 C   0  0  2  0  0  0  0  0  0  0  0  0
    5.0644   -9.3500    0.0000 C   0  0  0  0  0  0  0  0  0  0  0  0
    6.4933  -11.0000    0.0000 C   0  0  0  0  0  0  0  0  0  0  0  0
    7.2078  -10.5875    0.0000 C   0  0  0  0  0  0  0  0  0  0  0  0
    7.2078   -9.7625    0.0000 C   0  0  0  0  0  0  0  0  0  0  0  0
    6.4933   -9.3500    0.0000 C   0  0  0  0  0  0  0  0  0  0  0  0
    7.9223   -9.3500    0.0000 C   0  0  1  0  0  0  0  0  0  0  0  0
    7.9223   -8.5250    0.0000 C   0  0  2  0  0  0  0  0  0  0  0  0
    7.2078   -8.1125    0.0000 C   0  0  0  0  0  0  0  0  0  0  0  0
    6.4933   -8.5250    0.0000 C   0  0  0  0  0  0  0  0  0  0  0  0
    8.7069   -9.6049    0.0000 C   0  0  0  0  0  0  0  0  0  0  0  0
    9.1918   -8.9375    0.0000 C   0  0  0  0  0  0  0  0  0  0  0  0
    8.7069   -8.2701    0.0000 C   0  0  2  0  0  0  0  0  0  0  0  0
    8.9204   -7.4732    0.0000 C   0  0  1  0  0  0  0  0  0  0  0  0
    9.7173   -7.2596    0.0000 C   0  0  0  0  0  0  0  0  0  0  0  0
    9.9308   -6.4628    0.0000 C   0  0  0  0  0  0  0  0  0  0  0  0
   10.9413   -5.4523    0.0000 O   0  0  0  0  0  0  0  0  0  0  0  0
   11.3111   -6.8326    0.0000 O   0  0  0  0  0  0  0  0  0  0  0  0
   10.7277   -6.2492    0.0000 C   0  0  0  0  0  0  0  0  0  0  0  0
    8.3371   -6.8898    0.0000 C   0  0  0  0  0  0  0  0  0  0  0  0
    9.5038   -8.0565    0.0000 H   0  0  0  0  0  0  0  0  0  0  0  0
    7.9223  -10.1750    0.0000 C   0  0  0  0  0  0  0  0  0  0  0  0
    8.9204  -10.4018    0.0000 O   0  0  0  0  0  0  0  0  0  0  0  0
    5.7789   -8.1125    0.0000 O   0  0  0  0  0  0  0  0  0  0  0  0
    7.9223  -11.0000    0.0000 O   0  0  0  0  0  0  0  0  0  0  0  0
    4.6519  -11.7145    0.0000 C   0  0  0  0  0  0  0  0  0  0  0  0
    5.4769  -11.7145    0.0000 C   0  0  0  0  0  0  0  0  0  0  0  0
    3.6355  -11.0000    0.0000 O   0  0  0  0  0  0  0  0  0  0  0  0
    5.7789   -8.9375    0.0000 C   0  0  0  0  0  0  0  0  0  0  0  0
    7.9223   -7.7000    0.0000 C   0  0  0  0  0  0  0  0  0  0  0  0
  1  2  1  0  0  0  0
  2  3  1  0  0  0  0
  3  4  1  0  0  0  0
  4  5  1  0  0  0  0
  5  6  1  0  0  0  0
  6  1  1  0  0  0  0
  4  7  1  0  0  0  0
  7  8  1  0  0  0  0
  8  9  1  0  0  0  0
  9 10  2  0  0  0  0
 10  5  1  0  0  0  0
  9 11  1  0  0  0  0
 11 12  1  0  0  0  0
 12 13  1  0  0  0  0
 13 14  1  0  0  0  0
 14 10  1  0  0  0  0
 11 15  1  0  0  0  0
 15 16  1  0  0  0  0
 16 17  1  0  0  0  0
 17 12  1  0  0  0  0
 17 18  1  0  0  0  0
 18 19  1  0  0  0  0
 19 20  1  0  0  0  0
 23 21  2  0  0  0  0
 20 23  1  0  0  0  0
 23 22  1  0  0  0  0
 18 24  1  6  0  0  0
 17 25  1  6  0  0  0
 11 26  1  6  0  0  0
 15 27  2  0  0  0  0
 14 28  2  0  0  0  0
  8 29  2  0  0  0  0
  3 30  1  0  0  0  0
  3 31  1  0  0  0  0
  2 32  1  0  0  0  0
  5 33  1  1  0  0  0
 12 34  1  1  0  0  0
M  END
>  <cdx:fragmentId>
722

$$$$
