300491.cdx
  Mrv1902 05222410262D          

  9  8  0  0  0  0            999 V2000
    7.3377   -6.3408    0.0000 C   0  0  0  0  0  0  0  0  0  0  0  0
    6.6232   -6.7533    0.0000 C   0  0  0  0  0  0  0  0  0  0  0  0
    5.9087   -6.3408    0.0000 C   0  0  0  0  0  0  0  0  0  0  0  0
    5.1943   -6.7533    0.0000 C   0  0  0  0  0  0  0  0  0  0  0  0
    5.1943   -7.5783    0.0000 C   0  0  0  0  0  0  0  0  0  0  0  0
    7.3377   -5.5158    0.0000 O   0  0  0  0  0  0  0  0  0  0  0  0
    8.0521   -6.7533    0.0000 O   0  0  0  0  0  0  0  0  0  0  0  0
    6.6232   -7.5783    0.0000 O   0  0  0  0  0  0  0  0  0  0  0  0
    4.4798   -6.3408    0.0000 C   0  0  0  0  0  0  0  0  0  0  0  0
  1  2  1  0  0  0  0
  2  3  1  0  0  0  0
  3  4  1  0  0  0  0
  4  5  1  0  0  0  0
  1  6  2  0  0  0  0
  1  7  1  0  0  0  0
  2  8  2  0  0  0  0
  4  9  1  0  0  0  0
M  END
>  <cdx:fragmentId>
8066

$$$$
