300452.cdx
  Mrv1902 05222410262D          

 17 17  0  0  0  0            999 V2000
    7.1833   -6.1346    0.0000 C   0  0  0  0  0  0  0  0  0  0  0  0
    6.4688   -6.5471    0.0000 C   0  0  0  0  0  0  0  0  0  0  0  0
    5.7544   -6.1346    0.0000 C   0  0  0  0  0  0  0  0  0  0  0  0
    7.1833   -5.3096    0.0000 O   0  0  0  0  0  0  0  0  0  0  0  0
    7.8978   -6.5471    0.0000 O   0  0  0  0  0  0  0  0  0  0  0  0
    5.0399   -6.5471    0.0000 C   0  0  0  0  0  0  0  0  0  0  0  0
    4.3254   -6.1346    0.0000 C   0  0  0  0  0  0  0  0  0  0  0  0
    3.6110   -6.5471    0.0000 C   0  0  0  0  0  0  0  0  0  0  0  0
    3.6110   -7.3721    0.0000 C   0  0  0  0  0  0  0  0  0  0  0  0
    4.3254   -7.7846    0.0000 C   0  0  0  0  0  0  0  0  0  0  0  0
    5.0399   -7.3721    0.0000 C   0  0  0  0  0  0  0  0  0  0  0  0
    2.8965   -7.7846    0.0000 O   0  0  0  0  0  0  0  0  0  0  0  0
    2.1820   -7.3721    0.0000 C   0  0  0  0  0  0  0  0  0  0  0  0
    2.8965   -6.1346    0.0000 O   0  0  0  0  0  0  0  0  0  0  0  0
    2.1820   -6.5471    0.0000 C   0  0  0  0  0  0  0  0  0  0  0  0
    8.6123   -6.1346    0.0000 C   0  0  0  0  0  0  0  0  0  0  0  0
    9.3267   -6.5471    0.0000 C   0  0  0  0  0  0  0  0  0  0  0  0
  1  2  1  0  0  0  0
  2  3  2  0  0  0  0
  1  4  2  0  0  0  0
  1  5  1  0  0  0  0
  6  7  1  0  0  0  0
  7  8  2  0  0  0  0
  8  9  1  0  0  0  0
  9 10  2  0  0  0  0
 10 11  1  0  0  0  0
  6 11  2  0  0  0  0
 12 13  1  0  0  0  0
  9 12  1  0  0  0  0
 14 15  1  0  0  0  0
  8 14  1  0  0  0  0
  3  6  1  0  0  0  0
 16 17  1  0  0  0  0
  5 16  1  0  0  0  0
M  END
>  <cdx:fragmentId>
6115

$$$$
