300463.cdx
  Mrv1902 05222410202D          

 15 16  0  0  0  0            999 V2000
    7.9465   -5.6675    0.0000 C   0  0  0  0  0  0  0  0  0  0  0  0
    8.4314   -6.3349    0.0000 C   0  0  0  0  0  0  0  0  0  0  0  0
    7.9465   -7.0024    0.0000 C   0  0  0  0  0  0  0  0  0  0  0  0
    7.1619   -6.7474    0.0000 C   0  0  0  0  0  0  0  0  0  0  0  0
    6.5169   -7.2618    0.0000 C   0  0  0  0  0  0  0  0  0  0  0  0
    5.7125   -7.0782    0.0000 C   0  0  0  0  0  0  0  0  0  0  0  0
    5.3546   -6.3349    0.0000 C   0  0  0  0  0  0  0  0  0  0  0  0
    5.7125   -5.5916    0.0000 C   0  0  0  0  0  0  0  0  0  0  0  0
    6.5169   -5.4080    0.0000 C   0  0  0  0  0  0  0  0  0  0  0  0
    7.1619   -5.9224    0.0000 C   0  0  0  0  0  0  0  0  0  0  0  0
    5.4996   -8.4912    0.0000 C   0  0  0  0  0  0  0  0  0  0  0  0
    5.1982   -7.7232    0.0000 C   0  0  0  0  0  0  0  0  0  0  0  0
    4.3824   -7.6003    0.0000 C   0  0  0  0  0  0  0  0  0  0  0  0
    6.7004   -4.6037    0.0000 C   0  0  0  0  0  0  0  0  0  0  0  0
    8.2014   -7.7870    0.0000 C   0  0  0  0  0  0  0  0  0  0  0  0
  1  2  1  0  0  0  0
  2  3  2  0  0  0  0
  3  4  1  0  0  0  0
  4  5  1  0  0  0  0
  5  6  1  0  0  0  0
  6  7  2  0  0  0  0
  7  8  1  0  0  0  0
  8  9  1  0  0  0  0
  9 10  1  0  0  0  0
  1 10  1  0  0  0  0
  4 10  1  0  0  0  0
 11 12  1  0  0  0  0
 12 13  1  0  0  0  0
  6 12  1  0  0  0  0
  9 14  1  0  0  0  0
  3 15  1  0  0  0  0
M  END
>  <cdx:fragmentId>
6710

$$$$
