300495.cdx
  Mrv1902 05222410232D          

 16 18  0  0  0  0            999 V2000
    7.0861   -4.4859    0.0000 C   0  0  0  0  0  0  0  0  0  0  0  0
    7.8006   -4.8984    0.0000 N   0  0  0  0  0  0  0  0  0  0  0  0
    7.8006   -5.7234    0.0000 C   0  0  0  0  0  0  0  0  0  0  0  0
    7.0861   -6.1359    0.0000 C   0  0  0  0  0  0  0  0  0  0  0  0
    6.3717   -5.7234    0.0000 C   0  0  0  0  0  0  0  0  0  0  0  0
    5.6572   -6.1359    0.0000 C   0  0  0  0  0  0  0  0  0  0  0  0
    4.9427   -5.7234    0.0000 C   0  0  0  0  0  0  0  0  0  0  0  0
    4.9427   -4.8984    0.0000 C   0  0  0  0  0  0  0  0  0  0  0  0
    5.6572   -4.4859    0.0000 C   0  0  0  0  0  0  0  0  0  0  0  0
    6.3717   -4.8984    0.0000 C   0  0  0  0  0  0  0  0  0  0  0  0
    7.0861   -6.9609    0.0000 C   0  0  0  0  0  0  0  0  0  0  0  0
    7.8006   -7.3734    0.0000 C   0  0  0  0  0  0  0  0  0  0  0  0
    7.8006   -8.1984    0.0000 C   0  0  0  0  0  0  0  0  0  0  0  0
    7.0861   -8.6109    0.0000 C   0  0  0  0  0  0  0  0  0  0  0  0
    6.3717   -8.1984    0.0000 C   0  0  0  0  0  0  0  0  0  0  0  0
    6.3717   -7.3734    0.0000 C   0  0  0  0  0  0  0  0  0  0  0  0
  1  2  2  0  0  0  0
  2  3  1  0  0  0  0
  3  4  1  0  0  0  0
  4  5  1  0  0  0  0
  5  6  1  0  0  0  0
  6  7  2  0  0  0  0
  7  8  1  0  0  0  0
  8  9  2  0  0  0  0
  9 10  1  0  0  0  0
  1 10  1  0  0  0  0
  5 10  2  0  0  0  0
 11 12  1  0  0  0  0
 12 13  2  0  0  0  0
 13 14  1  0  0  0  0
 14 15  2  0  0  0  0
 15 16  1  0  0  0  0
 11 16  2  0  0  0  0
  4 11  1  0  0  0  0
M  END
>  <cdx:fragmentId>
8198

$$$$
