30046.cdx
  Mrv1902 05222410202D          

 14 14  0  0  0  0            999 V2000
    7.0656   -8.5514    0.0000 C   0  0  0  0  0  0  0  0  0  0  0  0
    7.0656   -9.3764    0.0000 C   0  0  0  0  0  0  0  0  0  0  0  0
    7.7800   -9.7889    0.0000 C   0  0  0  0  0  0  0  0  0  0  0  0
    8.4945   -9.3764    0.0000 C   0  0  0  0  0  0  0  0  0  0  0  0
    8.4945   -8.5514    0.0000 C   0  0  0  0  0  0  0  0  0  0  0  0
    7.7800   -8.1389    0.0000 C   0  0  0  0  0  0  0  0  0  0  0  0
    6.3511   -8.1389    0.0000 O   0  0  0  0  0  0  0  0  0  0  0  0
    9.2090   -8.1389    0.0000 O   0  0  0  0  0  0  0  0  0  0  0  0
    7.7800  -10.6139    0.0000 O   0  0  0  0  0  0  0  0  0  0  0  0
    7.0656  -11.0264    0.0000 C   0  0  0  0  0  0  0  0  0  0  0  0
    9.9234   -8.5514    0.0000 C   0  0  0  0  0  0  0  0  0  0  0  0
    7.7800   -7.3139    0.0000 C   0  0  0  0  0  0  0  0  0  0  0  0
    7.0656   -6.9014    0.0000 O   0  0  0  0  0  0  0  0  0  0  0  0
    8.4945   -6.9014    0.0000 C   0  0  0  0  0  0  0  0  0  0  0  0
  1  2  2  0  0  0  0
  2  3  1  0  0  0  0
  3  4  2  0  0  0  0
  4  5  1  0  0  0  0
  5  6  2  0  0  0  0
  6  1  1  0  0  0  0
  1  7  1  0  0  0  0
  5  8  1  0  0  0  0
  3  9  1  0  0  0  0
  9 10  1  0  0  0  0
  8 11  1  0  0  0  0
  6 12  1  0  0  0  0
 12 13  2  0  0  0  0
 12 14  1  0  0  0  0
M  END
>  <cdx:fragmentId>
5

$$$$
