300435.cdx
  Mrv1902 05222410262D          

 17 17  0  0  0  0            999 V2000
    6.6777   -7.2335    0.0000 O   0  0  0  0  0  0  0  0  0  0  0  0
    7.3932   -7.6444    0.0000 C   0  0  0  0  0  0  0  0  0  0  0  0
    7.3951   -8.4694    0.0000 C   0  0  1  0  0  0  0  0  0  0  0  0
    6.6816   -8.8835    0.0000 C   0  0  2  0  0  0  0  0  0  0  0  0
    5.9661   -8.4727    0.0000 C   0  0  1  0  0  0  0  0  0  0  0  0
    5.9642   -7.6477    0.0000 C   0  0  1  0  0  0  0  0  0  0  0  0
    6.6835   -9.7085    0.0000 O   0  0  0  0  0  0  0  0  0  0  0  0
    5.9700  -10.1227    0.0000 C   0  0  0  0  0  0  0  0  0  0  0  0
    5.2488   -7.2368    0.0000 C   0  0  0  0  0  0  0  0  0  0  0  0
    4.5343   -7.6493    0.0000 O   0  0  0  0  0  0  0  0  0  0  0  0
    5.2526   -8.8868    0.0000 O   0  0  0  0  0  0  0  0  0  0  0  0
    8.1067   -7.2302    0.0000 O   0  0  0  0  0  0  0  0  0  0  0  0
   10.2530   -8.4627    0.0000 D   0  0  0  0  0  0  0  0  0  0  0  0
    8.1105   -8.8802    0.0000 N   0  0  0  0  0  0  0  0  0  0  0  0
    8.8221   -7.6410    0.0000 O   0  0  0  0  0  0  0  0  0  0  0  0
    9.5394   -8.8769    0.0000 C   0  0  0  0  0  0  0  0  0  0  0  0
    8.8240   -8.4660    0.0000 C   0  0  0  0  0  0  0  0  0  0  0  0
 16 13  1  0  0  0  0
 17 14  1  0  0  0  0
 17 15  2  0  0  0  0
 17 16  1  0  0  0  0
  1  2  1  0  0  0  0
  2  3  1  0  0  0  0
  3  4  1  0  0  0  0
  4  5  1  0  0  0  0
  5  6  1  0  0  0  0
  1  6  1  0  0  0  0
  7  8  1  0  0  0  0
  4  7  1  1  0  0  0
  9 10  1  0  0  0  0
  6  9  1  1  0  0  0
  5 11  1  6  0  0  0
  2 12  1  0  0  0  0
  3 14  1  6  0  0  0
M  END
>  <cdx:fragmentId>
13

$$$$
