300420.cdx
  Mrv1902 05222410262D          

 14 16  0  0  0  0            999 V2000
    6.7707   -5.7602    0.0000 N   0  0  0  0  0  0  0  0  0  0  0  0
    7.4382   -6.2451    0.0000 C   0  0  0  0  0  0  0  0  0  0  0  0
    7.1832   -7.0298    0.0000 C   0  0  0  0  0  0  0  0  0  0  0  0
    6.3582   -7.0298    0.0000 C   0  0  0  0  0  0  0  0  0  0  0  0
    5.8062   -7.6429    0.0000 C   0  0  0  0  0  0  0  0  0  0  0  0
    4.9992   -7.4713    0.0000 C   0  0  0  0  0  0  0  0  0  0  0  0
    4.7443   -6.6867    0.0000 C   0  0  0  0  0  0  0  0  0  0  0  0
    5.2963   -6.0736    0.0000 C   0  0  0  0  0  0  0  0  0  0  0  0
    6.1033   -6.2451    0.0000 C   0  0  0  0  0  0  0  0  0  0  0  0
    8.2452   -6.0736    0.0000 C   0  0  0  0  0  0  0  0  0  0  0  0
    7.7353   -7.6429    0.0000 C   0  0  0  0  0  0  0  0  0  0  0  0
    8.5422   -7.4713    0.0000 C   0  0  0  0  0  0  0  0  0  0  0  0
    8.7972   -6.6867    0.0000 N   0  0  0  0  0  0  0  0  0  0  0  0
    8.5001   -5.2890    0.0000 O   0  0  0  0  0  0  0  0  0  0  0  0
  1  2  1  0  0  0  0
  2  3  1  0  0  0  0
  3  4  1  0  0  0  0
  4  5  1  0  0  0  0
  5  6  2  0  0  0  0
  6  7  1  0  0  0  0
  7  8  2  0  0  0  0
  8  9  1  0  0  0  0
  1  9  1  0  0  0  0
  4  9  2  0  0  0  0
 11 12  1  0  0  0  0
 12 13  1  0  0  0  0
 10 13  1  0  0  0  0
  2 10  2  0  0  0  0
  3 11  2  0  0  0  0
 10 14  1  0  0  0  0
M  END
>  <cdx:fragmentId>
4257

$$$$
