300454.cdx
  Mrv1902 05222410242D          

  8  8  0  0  0  0            999 V2000
    7.0122   -7.3439    0.0000 N   0  0  0  0  0  0  0  0  0  0  0  0
    7.6706   -7.8410    0.0000 C   0  0  0  0  0  0  0  0  0  0  0  0
    7.4013   -8.6208    0.0000 C   0  0  0  0  0  0  0  0  0  0  0  0
    6.5764   -8.6056    0.0000 C   0  0  0  0  0  0  0  0  0  0  0  0
    6.3360   -7.8164    0.0000 C   0  0  0  0  0  0  0  0  0  0  0  0
    5.5562   -7.5471    0.0000 O   0  0  0  0  0  0  0  0  0  0  0  0
    6.0793   -9.2640    0.0000 C   0  0  0  0  0  0  0  0  0  0  0  0
    7.8739   -9.2970    0.0000 C   0  0  0  0  0  0  0  0  0  0  0  0
  1  2  1  0  0  0  0
  2  3  1  0  0  0  0
  3  4  2  0  0  0  0
  4  5  1  0  0  0  0
  1  5  1  0  0  0  0
  5  6  2  0  0  0  0
  4  7  1  0  0  0  0
  3  8  1  0  0  0  0
M  END
>  <cdx:fragmentId>
6234

$$$$
