300413.cdx
  Mrv1902 05222410202D          

 18 17  0  0  0  0            999 V2000
    5.8729   -6.6759    0.0000 Si  0  0  0  0  0  0  0  0  0  0  0  0
    6.2084   -7.4296    0.0000 O   0  0  0  0  0  0  0  0  0  0  0  0
    4.9441   -6.1397    0.0000 O   0  0  0  0  0  0  0  0  0  0  0  0
    6.6934   -6.5897    0.0000 O   0  0  0  0  0  0  0  0  0  0  0  0
    4.2296   -6.5522    0.0000 C   0  0  0  0  0  0  0  0  0  0  0  0
    3.5151   -6.1397    0.0000 C   0  0  0  0  0  0  0  0  0  0  0  0
    5.2598   -7.2279    0.0000 Si  0  0  0  0  0  0  0  0  0  0  0  0
    4.6467   -7.7800    0.0000 C   0  0  0  0  0  0  0  0  0  0  0  0
    4.4629   -7.0144    0.0000 C   0  0  0  0  0  0  0  0  0  0  0  0
    5.4313   -8.0349    0.0000 C   0  0  0  0  0  0  0  0  0  0  0  0
    6.0444   -5.8689    0.0000 Si  0  0  0  0  0  0  0  0  0  0  0  0
    6.2159   -5.0620    0.0000 C   0  0  0  0  0  0  0  0  0  0  0  0
    6.8290   -5.6140    0.0000 C   0  0  0  0  0  0  0  0  0  0  0  0
    5.4313   -5.3169    0.0000 C   0  0  0  0  0  0  0  0  0  0  0  0
    7.1783   -7.2571    0.0000 Si  0  0  0  0  0  0  0  0  0  0  0  0
    7.6632   -7.9245    0.0000 C   0  0  0  0  0  0  0  0  0  0  0  0
    6.8427   -8.0108    0.0000 C   0  0  0  0  0  0  0  0  0  0  0  0
    7.9988   -7.1709    0.0000 C   0  0  0  0  0  0  0  0  0  0  0  0
  1  2  2  0  0  0  0
  1  3  1  0  0  0  0
  1  4  1  0  0  0  0
  5  6  1  0  0  0  0
  3  5  1  0  0  0  0
  7  8  1  0  0  0  0
  7  9  1  0  0  0  0
  7 10  1  0  0  0  0
  1  7  1  0  0  0  0
 11 12  1  0  0  0  0
 11 13  1  0  0  0  0
 11 14  1  0  0  0  0
  1 11  1  0  0  0  0
 15 16  1  0  0  0  0
 15 17  1  0  0  0  0
 15 18  1  0  0  0  0
  4 15  1  0  0  0  0
M  END
>  <cdx:fragmentId>
4020

$$$$
