300477.cdx
  Mrv1902 05222410202D          

 42 47  0  0  0  0            999 V2000
    5.8337   -6.5988    0.0000 C   0  0  2  0  0  0  0  0  0  0  0  0
    5.1114   -6.2001    0.0000 C   0  0  0  0  0  0  0  0  0  0  0  0
    4.3319   -6.4702    0.0000 N   0  0  0  0  0  0  0  0  0  0  0  0
    3.8342   -5.8122    0.0000 C   0  0  0  0  0  0  0  0  0  0  0  0
    3.0122   -5.7419    0.0000 C   0  0  0  0  0  0  0  0  0  0  0  0
    2.6621   -4.9948    0.0000 C   0  0  0  0  0  0  0  0  0  0  0  0
    3.1340   -4.3181    0.0000 C   0  0  0  0  0  0  0  0  0  0  0  0
    3.9560   -4.3885    0.0000 C   0  0  0  0  0  0  0  0  0  0  0  0
    4.3061   -5.1356    0.0000 C   0  0  0  0  0  0  0  0  0  0  0  0
    5.0955   -5.3753    0.0000 C   0  0  0  0  0  0  0  0  0  0  0  0
    5.8019   -4.9491    0.0000 C   0  0  0  0  0  0  0  0  0  0  0  0
    6.5242   -5.3477    0.0000 C   0  0  0  0  0  0  0  0  0  0  0  0
    6.5401   -6.1725    0.0000 N   0  0  0  0  0  0  0  0  0  0  0  0
    7.2624   -6.5711    0.0000 C   0  0  2  0  0  0  0  0  0  0  0  0
    7.2784   -7.3960    0.0000 C   0  0  1  0  0  0  0  0  0  0  0  0
    8.0007   -7.7946    0.0000 C   0  0  1  0  0  0  0  0  0  0  0  0
    8.0166   -8.6195    0.0000 O   0  0  0  0  0  0  0  0  0  0  0  0
    7.3102   -9.0457    0.0000 C   0  0  0  0  0  0  0  0  0  0  0  0
    6.5879   -8.6471    0.0000 C   0  0  0  0  0  0  0  0  0  0  0  0
    6.5720   -7.8222    0.0000 C   0  0  1  0  0  0  0  0  0  0  0  0
    5.8497   -7.4236    0.0000 C   0  0  0  0  0  0  0  0  0  0  0  0
    5.8816   -9.0733    0.0000 C   0  0  0  0  0  0  0  0  0  0  0  0
    5.1592   -8.6747    0.0000 O   0  0  0  0  0  0  0  0  0  0  0  0
    5.8975   -9.8981    0.0000 O   0  0  0  0  0  0  0  0  0  0  0  0
    8.7070   -7.3684    0.0000 O   0  0  0  0  0  0  0  0  0  0  0  0
    9.4453   -8.5918    0.0000 O   0  0  0  0  0  0  0  0  0  0  0  0
    9.4293   -7.7670    0.0000 C   0  0  2  0  0  0  0  0  0  0  0  0
   10.1357   -7.3408    0.0000 C   0  0  1  0  0  0  0  0  0  0  0  0
   10.8580   -7.7394    0.0000 C   0  0  2  0  0  0  0  0  0  0  0  0
   10.8739   -8.5642    0.0000 C   0  0  1  0  0  0  0  0  0  0  0  0
   10.1676   -8.9905    0.0000 C   0  0  1  0  0  0  0  0  0  0  0  0
   10.1835   -9.8153    0.0000 C   0  0  0  0  0  0  0  0  0  0  0  0
   10.9058  -10.2139    0.0000 O   0  0  0  0  0  0  0  0  0  0  0  0
   11.5963   -8.9629    0.0000 O   0  0  0  0  0  0  0  0  0  0  0  0
   11.5644   -7.3132    0.0000 O   0  0  0  0  0  0  0  0  0  0  0  0
   10.1198   -6.5159    0.0000 O   0  0  0  0  0  0  0  0  0  0  0  0
    7.9688   -6.1449    0.0000 C   0  0  0  0  0  0  0  0  0  0  0  0
    8.6911   -6.5435    0.0000 O   0  0  0  0  0  0  0  0  0  0  0  0
    5.1274   -7.0250    0.0000 H   0  0  0  0  0  0  0  0  0  0  0  0
    7.9847   -6.9698    0.0000 H   0  0  0  0  0  0  0  0  0  0  0  0
    5.8656   -8.2484    0.0000 H   0  0  0  0  0  0  0  0  0  0  0  0
    5.1911  -10.3244    0.0000 C   0  0  0  0  0  0  0  0  0  0  0  0
  1  2  1  0  0  0  0
  2  3  1  0  0  0  0
  3  4  1  0  0  0  0
  4  5  2  0  0  0  0
  5  6  1  0  0  0  0
  6  7  2  0  0  0  0
  7  8  1  0  0  0  0
  8  9  2  0  0  0  0
  9 10  1  0  0  0  0
 10 11  1  0  0  0  0
 11 12  1  0  0  0  0
 12 13  1  0  0  0  0
 13 14  1  0  0  0  0
 14 15  1  0  0  0  0
 15 16  1  0  0  0  0
 16 17  1  0  0  0  0
 17 18  1  0  0  0  0
 18 19  2  0  0  0  0
 19 20  1  0  0  0  0
 20 21  1  0  0  0  0
  1 21  1  0  0  0  0
  1 13  1  0  0  0  0
  2 10  2  0  0  0  0
  4  9  1  0  0  0  0
 15 20  1  0  0  0  0
 22 23  2  0  0  0  0
 22 24  1  0  0  0  0
 19 22  1  0  0  0  0
 26 27  1  0  0  0  0
 27 28  1  0  0  0  0
 28 29  1  0  0  0  0
 29 30  1  0  0  0  0
 30 31  1  0  0  0  0
 26 31  1  0  0  0  0
 32 33  1  0  0  0  0
 31 32  1  1  0  0  0
 30 34  1  6  0  0  0
 29 35  1  1  0  0  0
 28 36  1  6  0  0  0
 27 25  1  1  0  0  0
 16 25  1  6  0  0  0
 37 38  1  0  0  0  0
 14 37  1  1  0  0  0
  1 39  1  1  0  0  0
 15 40  1  6  0  0  0
 20 41  1  6  0  0  0
 24 42  1  0  0  0  0
M  END
>  <cdx:fragmentId>
7327

$$$$
