300472.cdx
  Mrv1902 05222410222D          

  6  6  0  0  0  0            999 V2000
    7.5722   -7.6175    0.0000 S   0  0  0  0  0  0  0  0  0  0  0  0
    7.5722   -8.4425    0.0000 C   0  0  0  0  0  0  0  0  0  0  0  0
    8.3569   -8.6974    0.0000 C   0  0  0  0  0  0  0  0  0  0  0  0
    8.8418   -8.0300    0.0000 C   0  0  0  0  0  0  0  0  0  0  0  0
    8.3569   -7.3626    0.0000 S   0  0  0  0  0  0  0  0  0  0  0  0
    6.9048   -8.9274    0.0000 S   0  0  0  0  0  0  0  0  0  0  0  0
  1  2  1  0  0  0  0
  2  3  1  0  0  0  0
  3  4  2  0  0  0  0
  4  5  1  0  0  0  0
  5  1  1  0  0  0  0
  2  6  2  0  0  0  0
M  END
>  <cdx:fragmentId>
7163

$$$$
