30048.cdx
  Mrv1902 05222410272D          

 78 84  0  0  0  0            999 V2000
    7.4368   -9.5139    0.0000 C   0  0  2  0  0  0  0  0  0  0  0  0
    7.4368  -10.3389    0.0000 C   0  0  2  0  0  0  0  0  0  0  0  0
    8.1513  -10.7514    0.0000 C   0  0  1  0  0  0  0  0  0  0  0  0
    8.8657  -10.3389    0.0000 C   0  0  2  0  0  0  0  0  0  0  0  0
    8.8657   -9.5139    0.0000 C   0  0  1  0  0  0  0  0  0  0  0  0
    8.1513   -9.1014    0.0000 O   0  0  0  0  0  0  0  0  0  0  0  0
    9.5802  -10.7514    0.0000 O   0  0  0  0  0  0  0  0  0  0  0  0
   10.2947  -10.3389    0.0000 C   0  0  2  0  0  0  0  0  0  0  0  0
   10.2947   -9.5139    0.0000 O   0  0  0  0  0  0  0  0  0  0  0  0
    9.5802   -9.1014    0.0000 O   0  0  0  0  0  0  0  0  0  0  0  0
   11.0092  -10.7514    0.0000 C   0  0  1  0  0  0  0  0  0  0  0  0
   11.7236  -10.3389    0.0000 C   0  0  1  0  0  0  0  0  0  0  0  0
   11.7236   -9.5139    0.0000 C   0  0  2  0  0  0  0  0  0  0  0  0
   11.0092   -9.1014    0.0000 C   0  0  2  0  0  0  0  0  0  0  0  0
    6.7223   -9.1014    0.0000 C   0  0  0  0  0  0  0  0  0  0  0  0
    6.0079   -9.5139    0.0000 O   0  0  0  0  0  0  0  0  0  0  0  0
    6.0079  -10.3389    0.0000 C   0  0  0  0  0  0  0  0  0  0  0  0
    6.7223  -10.7514    0.0000 O   0  0  0  0  0  0  0  0  0  0  0  0
    4.5652   -9.9401    0.0000 H   0  0  0  0  0  0  0  0  0  0  0  0
    4.5789  -10.3389    0.0000 C   0  0  0  0  0  0  0  0  0  0  0  0
    5.2934  -10.7514    0.0000 C   0  0  0  0  0  0  0  0  0  0  0  0
    3.8644  -10.7514    0.0000 C   0  0  0  0  0  0  0  0  0  0  0  0
    3.8644  -11.5764    0.0000 C   0  0  0  0  0  0  0  0  0  0  0  0
    5.2934  -11.1501    0.0000 H   0  0  0  0  0  0  0  0  0  0  0  0
    3.1500  -10.3389    0.0000 C   0  0  0  0  0  0  0  0  0  0  0  0
    2.4355  -10.7514    0.0000 C   0  0  0  0  0  0  0  0  0  0  0  0
    2.4355  -11.5764    0.0000 C   0  0  0  0  0  0  0  0  0  0  0  0
    3.1500  -11.9889    0.0000 C   0  0  0  0  0  0  0  0  0  0  0  0
    6.7223   -8.2764    0.0000 O   0  0  0  0  0  0  0  0  0  0  0  0
    6.0079   -7.8639    0.0000 C   0  0  2  0  0  0  0  0  0  0  0  0
    5.2934   -8.2764    0.0000 O   0  0  0  0  0  0  0  0  0  0  0  0
    6.0079   -7.0389    0.0000 C   0  0  1  0  0  0  0  0  0  0  0  0
    5.2934   -6.6264    0.0000 C   0  0  2  0  0  0  0  0  0  0  0  0
    4.5789   -7.0389    0.0000 C   0  0  1  0  0  0  0  0  0  0  0  0
    4.5789   -7.8639    0.0000 C   0  0  1  0  0  0  0  0  0  0  0  0
    5.2934   -5.8014    0.0000 O   0  0  0  0  0  0  0  0  0  0  0  0
    4.5789   -5.3889    0.0000 O   0  0  0  0  0  0  0  0  0  0  0  0
    3.8644   -5.8014    0.0000 C   0  0  1  0  0  0  0  0  0  0  0  0
    3.8644   -6.6264    0.0000 O   0  0  0  0  0  0  0  0  0  0  0  0
    4.5789   -4.5639    0.0000 C   0  0  1  0  0  0  0  0  0  0  0  0
    3.8644   -4.1514    0.0000 C   0  0  2  0  0  0  0  0  0  0  0  0
    3.1500   -4.5639    0.0000 C   0  0  1  0  0  0  0  0  0  0  0  0
    3.1500   -5.3889    0.0000 C   0  0  1  0  0  0  0  0  0  0  0  0
    9.5802   -8.2764    0.0000 C   0  0  0  0  0  0  0  0  0  0  0  0
    8.8657   -7.8639    0.0000 C   0  0  0  0  0  0  0  0  0  0  0  0
    9.5802   -6.6264    0.0000 C   0  0  0  0  0  0  0  0  0  0  0  0
    8.8657   -7.0389    0.0000 C   0  0  0  0  0  0  0  0  0  0  0  0
    9.5802   -5.8014    0.0000 C   0  0  0  0  0  0  0  0  0  0  0  0
    8.8657   -5.3889    0.0000 C   0  0  0  0  0  0  0  0  0  0  0  0
    8.1513   -5.8014    0.0000 C   0  0  0  0  0  0  0  0  0  0  0  0
    8.1513   -6.6264    0.0000 C   0  0  0  0  0  0  0  0  0  0  0  0
    5.2934   -4.1514    0.0000 C   0  0  0  0  0  0  0  0  0  0  0  0
    6.0079   -4.5639    0.0000 O   0  0  0  0  0  0  0  0  0  0  0  0
    3.8644   -8.2764    0.0000 C   0  0  0  0  0  0  0  0  0  0  0  0
    3.1500   -7.8639    0.0000 O   0  0  0  0  0  0  0  0  0  0  0  0
    8.8657   -4.5639    0.0000 O   0  0  0  0  0  0  0  0  0  0  0  0
   10.2947   -5.3889    0.0000 O   0  0  0  0  0  0  0  0  0  0  0  0
    1.7210  -10.3389    0.0000 O   0  0  0  0  0  0  0  0  0  0  0  0
    1.7210  -11.9889    0.0000 O   0  0  0  0  0  0  0  0  0  0  0  0
    8.1513  -11.5764    0.0000 O   0  0  0  0  0  0  0  0  0  0  0  0
    7.5679  -12.1598    0.0000 C   0  0  2  0  0  0  0  0  0  0  0  0
    6.7429  -12.1598    0.0000 O   0  0  0  0  0  0  0  0  0  0  0  0
    6.3304  -12.8742    0.0000 C   0  0  2  0  0  0  0  0  0  0  0  0
    6.7429  -13.5887    0.0000 C   0  0  1  0  0  0  0  0  0  0  0  0
    7.5679  -13.5887    0.0000 C   0  0  2  0  0  0  0  0  0  0  0  0
    7.9804  -12.8742    0.0000 C   0  0  1  0  0  0  0  0  0  0  0  0
   11.0092   -8.2764    0.0000 C   0  0  0  0  0  0  0  0  0  0  0  0
   12.4381  -10.7514    0.0000 O   0  0  0  0  0  0  0  0  0  0  0  0
   11.0092  -11.5764    0.0000 O   0  0  0  0  0  0  0  0  0  0  0  0
    6.3304  -14.3032    0.0000 O   0  0  0  0  0  0  0  0  0  0  0  0
    6.7223   -6.6264    0.0000 O   0  0  0  0  0  0  0  0  0  0  0  0
    2.4355   -4.1514    0.0000 O   0  0  0  0  0  0  0  0  0  0  0  0
    3.8644   -3.3264    0.0000 O   0  0  0  0  0  0  0  0  0  0  0  0
    2.4355   -5.8014    0.0000 O   0  0  0  0  0  0  0  0  0  0  0  0
   12.4381   -9.1014    0.0000 O   0  0  0  0  0  0  0  0  0  0  0  0
    8.8054  -12.8742    0.0000 O   0  0  0  0  0  0  0  0  0  0  0  0
    5.5054  -12.8742    0.0000 C   0  0  0  0  0  0  0  0  0  0  0  0
    7.9804  -14.3032    0.0000 O   0  0  0  0  0  0  0  0  0  0  0  0
  1  2  1  0  0  0  0
  2  3  1  0  0  0  0
  3  4  1  0  0  0  0
  4  5  1  0  0  0  0
  5  6  1  0  0  0  0
  6  1  1  0  0  0  0
  4  7  1  6  0  0  0
  8  7  1  6  0  0  0
  8  9  1  0  0  0  0
  5 10  1  1  0  0  0
  8 11  1  0  0  0  0
 11 12  1  0  0  0  0
 12 13  1  0  0  0  0
 13 14  1  0  0  0  0
 14  9  1  0  0  0  0
  1 15  1  1  0  0  0
 16 17  2  0  0  0  0
 17 18  1  0  0  0  0
  2 18  1  6  0  0  0
 19 20  1  0  0  0  0
 20 21  2  0  0  0  0
 21 17  1  0  0  0  0
 20 22  1  0  0  0  0
 22 23  1  0  0  0  0
 24 21  1  0  0  0  0
 22 25  2  0  0  0  0
 25 26  1  0  0  0  0
 26 27  2  0  0  0  0
 27 28  1  0  0  0  0
 28 23  2  0  0  0  0
 15 29  1  0  0  0  0
 30 29  1  6  0  0  0
 30 31  1  0  0  0  0
 30 32  1  0  0  0  0
 32 33  1  0  0  0  0
 33 34  1  0  0  0  0
 34 35  1  0  0  0  0
 35 31  1  0  0  0  0
 33 36  1  6  0  0  0
 37 38  1  0  0  0  0
 38 39  1  1  0  0  0
 34 39  1  1  0  0  0
 37 40  1  0  0  0  0
 40 41  1  0  0  0  0
 41 42  1  0  0  0  0
 42 43  1  0  0  0  0
 43 38  1  0  0  0  0
 10 44  1  0  0  0  0
 44 45  1  0  0  0  0
 46 47  2  0  0  0  0
 47 45  1  0  0  0  0
 46 48  1  0  0  0  0
 48 49  2  0  0  0  0
 49 50  1  0  0  0  0
 50 51  2  0  0  0  0
 51 47  1  0  0  0  0
 40 52  1  1  0  0  0
 52 53  1  0  0  0  0
 35 54  1  6  0  0  0
 54 55  1  0  0  0  0
 49 56  1  0  0  0  0
 48 57  1  0  0  0  0
 26 58  1  0  0  0  0
 27 59  1  0  0  0  0
  3 60  1  1  0  0  0
 61 60  1  1  0  0  0
 61 62  1  0  0  0  0
 62 63  1  0  0  0  0
 63 64  1  0  0  0  0
 64 65  1  0  0  0  0
 65 66  1  0  0  0  0
 66 61  1  0  0  0  0
 14 67  1  1  0  0  0
 12 68  1  1  0  0  0
 11 69  1  1  0  0  0
 64 70  1  1  0  0  0
 32 71  1  1  0  0  0
 42 72  1  1  0  0  0
 41 73  1  6  0  0  0
 43 74  1  6  0  0  0
 13 75  1  6  0  0  0
 66 76  1  6  0  0  0
 63 77  1  6  0  0  0
 65 78  1  6  0  0  0
M  END
>  <cdx:fragmentId>
5

$$$$
