300453.cdx
  Mrv1902 05222410252D          

 11 11  0  0  0  0            999 V2000
    7.5004   -7.6333    0.0000 C   0  0  0  0  0  0  0  0  0  0  0  0
    7.5004   -8.4583    0.0000 C   0  0  0  0  0  0  0  0  0  0  0  0
    6.7859   -8.8708    0.0000 C   0  0  0  0  0  0  0  0  0  0  0  0
    6.0714   -8.4583    0.0000 C   0  0  0  0  0  0  0  0  0  0  0  0
    6.0714   -7.6333    0.0000 C   0  0  0  0  0  0  0  0  0  0  0  0
    6.7859   -7.2208    0.0000 C   0  0  0  0  0  0  0  0  0  0  0  0
    5.3569   -8.8708    0.0000 C   0  0  0  0  0  0  0  0  0  0  0  0
    8.2148   -8.8708    0.0000 O   0  0  0  0  0  0  0  0  0  0  0  0
    8.2148   -7.2208    0.0000 O   0  0  0  0  0  0  0  0  0  0  0  0
    8.2148   -6.3958    0.0000 C   0  0  0  0  0  0  0  0  0  0  0  0
    8.2148   -9.6958    0.0000 C   0  0  0  0  0  0  0  0  0  0  0  0
  1  2  1  0  0  0  0
  2  3  2  0  0  0  0
  3  4  1  0  0  0  0
  4  5  2  0  0  0  0
  5  6  1  0  0  0  0
  1  6  2  0  0  0  0
  4  7  1  0  0  0  0
  2  8  1  0  0  0  0
  1  9  1  0  0  0  0
  9 10  1  0  0  0  0
  8 11  1  0  0  0  0
M  END
>  <cdx:fragmentId>
6161

$$$$
