30049.cdx
  Mrv1902 05222410262D          

 68 73  0  0  0  0            999 V2000
    7.4368   -9.5139    0.0000 C   0  0  2  0  0  0  0  0  0  0  0  0
    7.4368  -10.3389    0.0000 C   0  0  2  0  0  0  0  0  0  0  0  0
    8.1513  -10.7514    0.0000 C   0  0  1  0  0  0  0  0  0  0  0  0
    8.8657  -10.3389    0.0000 C   0  0  2  0  0  0  0  0  0  0  0  0
    8.8657   -9.5139    0.0000 C   0  0  1  0  0  0  0  0  0  0  0  0
    8.1513   -9.1014    0.0000 O   0  0  0  0  0  0  0  0  0  0  0  0
    9.5802  -10.7514    0.0000 O   0  0  0  0  0  0  0  0  0  0  0  0
    9.5802   -9.1014    0.0000 O   0  0  0  0  0  0  0  0  0  0  0  0
    6.7223   -9.1014    0.0000 C   0  0  0  0  0  0  0  0  0  0  0  0
    6.0079   -9.5139    0.0000 O   0  0  0  0  0  0  0  0  0  0  0  0
    6.0079  -10.3389    0.0000 C   0  0  0  0  0  0  0  0  0  0  0  0
    6.7223  -10.7514    0.0000 O   0  0  0  0  0  0  0  0  0  0  0  0
    4.5652   -9.9401    0.0000 H   0  0  0  0  0  0  0  0  0  0  0  0
    4.5789  -10.3389    0.0000 C   0  0  0  0  0  0  0  0  0  0  0  0
    5.2934  -10.7514    0.0000 C   0  0  0  0  0  0  0  0  0  0  0  0
    3.8644  -10.7514    0.0000 C   0  0  0  0  0  0  0  0  0  0  0  0
    3.8644  -11.5764    0.0000 C   0  0  0  0  0  0  0  0  0  0  0  0
    5.2934  -11.1501    0.0000 H   0  0  0  0  0  0  0  0  0  0  0  0
    3.1500  -10.3389    0.0000 C   0  0  0  0  0  0  0  0  0  0  0  0
    2.4355  -10.7514    0.0000 C   0  0  0  0  0  0  0  0  0  0  0  0
    2.4355  -11.5764    0.0000 C   0  0  0  0  0  0  0  0  0  0  0  0
    3.1500  -11.9889    0.0000 C   0  0  0  0  0  0  0  0  0  0  0  0
    6.7223   -8.2764    0.0000 O   0  0  0  0  0  0  0  0  0  0  0  0
    6.0079   -7.8639    0.0000 C   0  0  1  0  0  0  0  0  0  0  0  0
    5.2934   -8.2764    0.0000 C   0  0  1  0  0  0  0  0  0  0  0  0
    6.0079   -7.0389    0.0000 O   0  0  0  0  0  0  0  0  0  0  0  0
    5.2934   -6.6264    0.0000 C   0  0  1  0  0  0  0  0  0  0  0  0
    4.5789   -7.0389    0.0000 C   0  0  2  0  0  0  0  0  0  0  0  0
    4.5789   -7.8639    0.0000 C   0  0  2  0  0  0  0  0  0  0  0  0
    5.2934   -5.8014    0.0000 C   0  0  0  0  0  0  0  0  0  0  0  0
    4.5789   -5.3889    0.0000 O   0  0  0  0  0  0  0  0  0  0  0  0
    3.8644   -5.8014    0.0000 C   0  0  1  0  0  0  0  0  0  0  0  0
    3.8644   -6.6264    0.0000 O   0  0  0  0  0  0  0  0  0  0  0  0
    4.5789   -4.5639    0.0000 C   0  0  1  0  0  0  0  0  0  0  0  0
    3.8644   -4.1514    0.0000 C   0  0  2  0  0  0  0  0  0  0  0  0
    3.1500   -4.5639    0.0000 C   0  0  1  0  0  0  0  0  0  0  0  0
    3.1500   -5.3889    0.0000 C   0  0  1  0  0  0  0  0  0  0  0  0
    9.5802   -8.2764    0.0000 C   0  0  0  0  0  0  0  0  0  0  0  0
   10.2947   -7.8639    0.0000 C   0  0  0  0  0  0  0  0  0  0  0  0
    9.5802   -6.6264    0.0000 C   0  0  0  0  0  0  0  0  0  0  0  0
   10.2947   -7.0389    0.0000 C   0  0  0  0  0  0  0  0  0  0  0  0
    9.5802   -5.8014    0.0000 C   0  0  0  0  0  0  0  0  0  0  0  0
   10.2947   -5.3889    0.0000 C   0  0  0  0  0  0  0  0  0  0  0  0
   11.0092   -5.8014    0.0000 C   0  0  0  0  0  0  0  0  0  0  0  0
   11.0092   -6.6264    0.0000 C   0  0  0  0  0  0  0  0  0  0  0  0
    5.2934   -4.1514    0.0000 C   0  0  0  0  0  0  0  0  0  0  0  0
    6.0079   -4.5639    0.0000 O   0  0  0  0  0  0  0  0  0  0  0  0
    3.8644   -8.2764    0.0000 O   0  0  0  0  0  0  0  0  0  0  0  0
   10.2947   -4.5639    0.0000 O   0  0  0  0  0  0  0  0  0  0  0  0
    1.7210  -10.3389    0.0000 O   0  0  0  0  0  0  0  0  0  0  0  0
    1.7210  -11.9889    0.0000 O   0  0  0  0  0  0  0  0  0  0  0  0
    8.1513  -11.5764    0.0000 O   0  0  0  0  0  0  0  0  0  0  0  0
    2.4355   -4.1514    0.0000 O   0  0  0  0  0  0  0  0  0  0  0  0
    3.8644   -3.3264    0.0000 O   0  0  0  0  0  0  0  0  0  0  0  0
    2.4355   -5.8014    0.0000 O   0  0  0  0  0  0  0  0  0  0  0  0
    6.0079   -5.3889    0.0000 O   0  0  0  0  0  0  0  0  0  0  0  0
    5.2934   -9.1014    0.0000 O   0  0  0  0  0  0  0  0  0  0  0  0
    8.8657  -11.9889    0.0000 C   0  0  2  0  0  0  0  0  0  0  0  0
    9.5802  -11.5764    0.0000 O   0  0  0  0  0  0  0  0  0  0  0  0
    8.8657  -12.8139    0.0000 C   0  0  1  0  0  0  0  0  0  0  0  0
    9.5802  -13.2264    0.0000 C   0  0  1  0  0  0  0  0  0  0  0  0
   10.2947  -12.8139    0.0000 C   0  0  2  0  0  0  0  0  0  0  0  0
   10.2947  -11.9889    0.0000 C   0  0  2  0  0  0  0  0  0  0  0  0
   11.0092  -13.2264    0.0000 O   0  0  0  0  0  0  0  0  0  0  0  0
    8.1513  -13.2264    0.0000 O   0  0  0  0  0  0  0  0  0  0  0  0
    9.5802  -14.0514    0.0000 O   0  0  0  0  0  0  0  0  0  0  0  0
   11.0092  -11.5764    0.0000 C   0  0  0  0  0  0  0  0  0  0  0  0
   11.7236   -5.3889    0.0000 O   0  0  0  0  0  0  0  0  0  0  0  0
  1  2  1  0  0  0  0
  2  3  1  0  0  0  0
  3  4  1  0  0  0  0
  4  5  1  0  0  0  0
  5  6  1  0  0  0  0
  6  1  1  0  0  0  0
  4  7  1  6  0  0  0
  5  8  1  1  0  0  0
  1  9  1  1  0  0  0
 10 11  2  0  0  0  0
 11 12  1  0  0  0  0
  2 12  1  6  0  0  0
 13 14  1  0  0  0  0
 14 15  2  0  0  0  0
 15 11  1  0  0  0  0
 14 16  1  0  0  0  0
 16 17  1  0  0  0  0
 18 15  1  0  0  0  0
 16 19  2  0  0  0  0
 19 20  1  0  0  0  0
 20 21  2  0  0  0  0
 21 22  1  0  0  0  0
 22 17  2  0  0  0  0
  9 23  1  0  0  0  0
 24 23  1  1  0  0  0
 24 25  1  0  0  0  0
 24 26  1  0  0  0  0
 26 27  1  0  0  0  0
 27 28  1  0  0  0  0
 28 29  1  0  0  0  0
 29 25  1  0  0  0  0
 27 30  1  1  0  0  0
 31 32  1  0  0  0  0
 32 33  1  1  0  0  0
 28 33  1  6  0  0  0
 31 34  1  0  0  0  0
 34 35  1  0  0  0  0
 35 36  1  0  0  0  0
 36 37  1  0  0  0  0
 37 32  1  0  0  0  0
  8 38  1  0  0  0  0
 38 39  1  0  0  0  0
 40 41  2  0  0  0  0
 41 39  1  0  0  0  0
 40 42  1  0  0  0  0
 42 43  2  0  0  0  0
 43 44  1  0  0  0  0
 44 45  2  0  0  0  0
 45 41  1  0  0  0  0
 34 46  1  1  0  0  0
 46 47  1  0  0  0  0
 29 48  1  1  0  0  0
 43 49  1  0  0  0  0
 20 50  1  0  0  0  0
 21 51  1  0  0  0  0
  3 52  1  1  0  0  0
 36 53  1  1  0  0  0
 35 54  1  6  0  0  0
 37 55  1  6  0  0  0
 30 56  1  0  0  0  0
 25 57  1  6  0  0  0
 58 52  1  6  0  0  0
 58 59  1  0  0  0  0
 58 60  1  0  0  0  0
 60 61  1  0  0  0  0
 61 62  1  0  0  0  0
 62 63  1  0  0  0  0
 63 59  1  0  0  0  0
 62 64  1  6  0  0  0
 60 65  1  1  0  0  0
 61 66  1  1  0  0  0
 63 67  1  1  0  0  0
 44 68  1  0  0  0  0
M  END
>  <cdx:fragmentId>
5

$$$$
