300498.cdx
  Mrv1902 05222410232D          

 16 16  0  0  0  0            999 V2000
    8.2465   -6.1778    0.0000 N   0  0  0  0  0  0  0  0  0  0  0  0
    7.5321   -6.5903    0.0000 C   0  0  0  0  0  0  0  0  0  0  0  0
    7.5321   -7.4153    0.0000 O   0  0  0  0  0  0  0  0  0  0  0  0
    6.8176   -6.1778    0.0000 N   0  0  0  0  0  0  0  0  0  0  0  0
    6.1031   -6.5903    0.0000 N   0  0  0  0  0  0  0  0  0  0  0  0
    5.3886   -6.1778    0.0000 C   0  0  0  0  0  0  0  0  0  0  0  0
    5.3886   -5.3528    0.0000 O   0  0  0  0  0  0  0  0  0  0  0  0
    3.2452   -6.5903    0.0000 C   0  0  0  0  0  0  0  0  0  0  0  0
    3.9597   -6.1778    0.0000 C   0  0  0  0  0  0  0  0  0  0  0  0
    4.6742   -6.5903    0.0000 C   0  0  0  0  0  0  0  0  0  0  0  0
    4.6742   -7.4153    0.0000 C   0  0  0  0  0  0  0  0  0  0  0  0
    3.9597   -7.8278    0.0000 C   0  0  0  0  0  0  0  0  0  0  0  0
    3.2452   -7.4153    0.0000 N   0  0  0  0  0  0  0  0  0  0  0  0
    9.6755   -6.1778    0.0000 C   0  0  0  0  0  0  0  0  0  0  0  0
    8.9610   -6.5903    0.0000 C   0  0  0  0  0  0  0  0  0  0  0  0
    8.9610   -7.4153    0.0000 C   0  0  0  0  0  0  0  0  0  0  0  0
  1  2  1  0  0  0  0
  2  3  2  0  0  0  0
  2  4  1  0  0  0  0
  6  7  2  0  0  0  0
  8  9  1  0  0  0  0
  9 10  2  0  0  0  0
 10 11  1  0  0  0  0
 11 12  2  0  0  0  0
 12 13  1  0  0  0  0
  8 13  2  0  0  0  0
  6 10  1  0  0  0  0
  5  6  1  0  0  0  0
  4  5  1  0  0  0  0
 14 15  1  0  0  0  0
 15 16  1  0  0  0  0
  1 15  1  0  0  0  0
M  END
>  <cdx:fragmentId>
8333

$$$$
