300455.cdx
  Mrv1902 05222410242D          

 11 11  0  0  0  0            999 V2000
    6.6777   -6.1778    0.0000 C   0  0  0  0  0  0  0  0  0  0  0  0
    5.9632   -6.5903    0.0000 C   0  0  0  0  0  0  0  0  0  0  0  0
    5.2487   -6.1778    0.0000 C   0  0  0  0  0  0  0  0  0  0  0  0
    4.5343   -6.5903    0.0000 C   0  0  0  0  0  0  0  0  0  0  0  0
    4.5343   -7.4153    0.0000 C   0  0  0  0  0  0  0  0  0  0  0  0
    5.2487   -7.8278    0.0000 C   0  0  0  0  0  0  0  0  0  0  0  0
    5.9632   -7.4153    0.0000 C   0  0  0  0  0  0  0  0  0  0  0  0
    6.6777   -5.3528    0.0000 O   0  0  0  0  0  0  0  0  0  0  0  0
    7.3921   -6.5903    0.0000 O   0  0  0  0  0  0  0  0  0  0  0  0
    3.8198   -7.8278    0.0000 C   0  0  0  0  0  0  0  0  0  0  0  0
    3.8198   -6.1778    0.0000 C   0  0  0  0  0  0  0  0  0  0  0  0
  1  2  1  0  0  0  0
  2  3  1  0  0  0  0
  3  4  2  0  0  0  0
  4  5  1  0  0  0  0
  5  6  2  0  0  0  0
  6  7  1  0  0  0  0
  2  7  2  0  0  0  0
  1  8  2  0  0  0  0
  1  9  1  0  0  0  0
  5 10  1  0  0  0  0
  4 11  1  0  0  0  0
M  END
>  <cdx:fragmentId>
6259

$$$$
