300459.cdx
  Mrv1902 05222410222D          

 23 25  0  0  0  0            999 V2000
    6.1116   -6.3408    0.0000 C   0  0  0  0  0  0  0  0  0  0  0  0
    6.1116   -7.1658    0.0000 C   0  0  0  0  0  0  0  0  0  0  0  0
    5.3971   -7.5783    0.0000 C   0  0  0  0  0  0  0  0  0  0  0  0
    4.6827   -7.1658    0.0000 C   0  0  0  0  0  0  0  0  0  0  0  0
    3.9682   -7.5783    0.0000 C   0  0  0  0  0  0  0  0  0  0  0  0
    3.2537   -7.1658    0.0000 C   0  0  0  0  0  0  0  0  0  0  0  0
    3.2537   -6.3408    0.0000 C   0  0  0  0  0  0  0  0  0  0  0  0
    3.9682   -5.9283    0.0000 C   0  0  0  0  0  0  0  0  0  0  0  0
    4.6827   -6.3408    0.0000 C   0  0  0  0  0  0  0  0  0  0  0  0
    5.3971   -5.9283    0.0000 O   0  0  0  0  0  0  0  0  0  0  0  0
    5.3971   -8.4033    0.0000 O   0  0  0  0  0  0  0  0  0  0  0  0
    3.9682   -5.1033    0.0000 O   0  0  0  0  0  0  0  0  0  0  0  0
    3.2537   -4.6908    0.0000 C   0  0  0  0  0  0  0  0  0  0  0  0
    6.8261   -5.9283    0.0000 C   0  0  0  0  0  0  0  0  0  0  0  0
    6.8261   -5.1033    0.0000 C   0  0  0  0  0  0  0  0  0  0  0  0
    7.5406   -4.6908    0.0000 C   0  0  0  0  0  0  0  0  0  0  0  0
    8.2550   -5.1033    0.0000 C   0  0  0  0  0  0  0  0  0  0  0  0
    8.2550   -5.9283    0.0000 C   0  0  0  0  0  0  0  0  0  0  0  0
    7.5406   -6.3408    0.0000 C   0  0  0  0  0  0  0  0  0  0  0  0
    8.9695   -4.6908    0.0000 O   0  0  0  0  0  0  0  0  0  0  0  0
    2.5393   -5.9283    0.0000 O   0  0  0  0  0  0  0  0  0  0  0  0
    3.9682   -8.4033    0.0000 O   0  0  0  0  0  0  0  0  0  0  0  0
    6.8261   -7.5783    0.0000 O   0  0  0  0  0  0  0  0  0  0  0  0
  1  2  1  0  0  0  0
  2  3  1  0  0  0  0
  3  4  1  0  0  0  0
  4  5  1  0  0  0  0
  5  6  2  0  0  0  0
  6  7  1  0  0  0  0
  7  8  2  0  0  0  0
  8  9  1  0  0  0  0
  4  9  2  0  0  0  0
  9 10  1  0  0  0  0
  1 10  1  0  0  0  0
  3 11  2  0  0  0  0
 12 13  1  0  0  0  0
  8 12  1  0  0  0  0
 14 15  1  0  0  0  0
 15 16  2  0  0  0  0
 16 17  1  0  0  0  0
 17 18  2  0  0  0  0
 18 19  1  0  0  0  0
 14 19  2  0  0  0  0
 17 20  1  0  0  0  0
  1 14  1  0  0  0  0
  7 21  1  0  0  0  0
  5 22  1  0  0  0  0
  2 23  1  0  0  0  0
M  END
>  <cdx:fragmentId>
6466

$$$$
