300404.cdx
  Mrv1902 05222410202D          

  5  4  0  0  0  0            999 V2000
    5.0859   -6.5488    0.0000 C   0  0  0  0  0  0  0  0  0  0  0  0
    5.8004   -6.9613    0.0000 C   0  0  0  0  0  0  0  0  0  0  0  0
    6.5148   -6.5488    0.0000 C   0  0  0  0  0  0  0  0  0  0  0  0
    7.2293   -6.9613    0.0000 C   0  0  0  0  0  0  0  0  0  0  0  0
    4.3714   -6.1363    0.0000 N   0  0  0  0  0  0  0  0  0  0  0  0
  1  2  1  0  0  0  0
  2  3  1  0  0  0  0
  3  4  2  0  0  0  0
  1  5  3  0  0  0  0
M  END
>  <cdx:fragmentId>
3573

$$$$
