300439.cdx
  Mrv1902 05222410202D          

 12 11  0  0  0  0            999 V2000
    6.9921   -6.5333    0.0000 C   0  0  0  0  0  0  0  0  0  0  0  0
    6.2777   -6.1208    0.0000 C   0  0  0  0  0  0  0  0  0  0  0  0
    5.5632   -6.5333    0.0000 C   0  0  0  0  0  0  0  0  0  0  0  0
    4.8487   -6.1208    0.0000 C   0  0  0  0  0  0  0  0  0  0  0  0
    6.9921   -7.3583    0.0000 O   0  0  0  0  0  0  0  0  0  0  0  0
    7.7066   -6.1208    0.0000 O   0  0  0  0  0  0  0  0  0  0  0  0
    6.2777   -5.2958    0.0000 C   0  0  0  0  0  0  0  0  0  0  0  0
    8.4211   -7.3583    0.0000 C   0  0  0  0  0  0  0  0  0  0  0  0
    8.4211   -6.5333    0.0000 C   0  0  0  0  0  0  0  0  0  0  0  0
    9.1356   -6.1208    0.0000 C   0  0  0  0  0  0  0  0  0  0  0  0
    9.8500   -6.5333    0.0000 C   0  0  0  0  0  0  0  0  0  0  0  0
    9.1356   -5.2958    0.0000 O   0  0  0  0  0  0  0  0  0  0  0  0
  1  2  1  0  0  0  0
  2  3  1  0  0  0  0
  3  4  1  0  0  0  0
  1  5  2  0  0  0  0
  1  6  1  0  0  0  0
  2  7  1  0  0  0  0
  8  9  1  0  0  0  0
  9 10  1  0  0  0  0
 10 11  1  0  0  0  0
 10 12  2  0  0  0  0
  6  9  1  0  0  0  0
M  END
>  <cdx:fragmentId>
5373

$$$$
