300411.cdx
  Mrv1902 05222410202D          

 33 37  0  0  0  0            999 V2000
    4.8032   -7.1896    0.0000 C   0  0  0  0  0  0  0  0  0  0  0  0
    5.5465   -7.5476    0.0000 C   0  0  0  0  0  0  0  0  0  0  0  0
    6.2898   -7.1896    0.0000 C   0  0  2  0  0  0  0  0  0  0  0  0
    6.8946   -7.7508    0.0000 C   0  0  0  0  0  0  0  0  0  0  0  0
    7.6829   -7.5076    0.0000 C   0  0  0  0  0  0  0  0  0  0  0  0
    7.8665   -6.7033    0.0000 C   0  0  0  0  0  0  0  0  0  0  0  0
    8.6548   -6.4601    0.0000 C   0  0  1  0  0  0  0  0  0  0  0  0
    8.8384   -5.6558    0.0000 C   0  0  0  0  0  0  0  0  0  0  0  0
    8.2337   -5.0946    0.0000 C   0  0  0  0  0  0  0  0  0  0  0  0
    7.4453   -5.3378    0.0000 C   0  0  0  0  0  0  0  0  0  0  0  0
    7.2617   -6.1421    0.0000 C   0  0  2  0  0  0  0  0  0  0  0  0
    6.4734   -6.3853    0.0000 C   0  0  0  0  0  0  0  0  0  0  0  0
    5.9590   -5.7403    0.0000 C   0  0  0  0  0  0  0  0  0  0  0  0
    5.1340   -5.7403    0.0000 C   0  0  0  0  0  0  0  0  0  0  0  0
    4.6196   -6.3853    0.0000 C   0  0  0  0  0  0  0  0  0  0  0  0
    3.8313   -6.1421    0.0000 C   0  0  1  0  0  0  0  0  0  0  0  0
    3.6477   -5.3378    0.0000 C   0  0  0  0  0  0  0  0  0  0  0  0
    2.8593   -5.0946    0.0000 C   0  0  0  0  0  0  0  0  0  0  0  0
    2.2546   -5.6558    0.0000 C   0  0  0  0  0  0  0  0  0  0  0  0
    2.4382   -6.4601    0.0000 C   0  0  0  0  0  0  0  0  0  0  0  0
    3.2265   -6.7033    0.0000 C   0  0  0  0  0  0  0  0  0  0  0  0
    3.4101   -7.5076    0.0000 C   0  0  0  0  0  0  0  0  0  0  0  0
    4.1984   -7.7508    0.0000 C   0  0  0  0  0  0  0  0  0  0  0  0
    9.6268   -5.4126    0.0000 O   0  0  0  0  0  0  0  0  0  0  0  0
    1.4662   -5.4126    0.0000 O   0  0  0  0  0  0  0  0  0  0  0  0
    2.1950   -7.2485    0.0000 C   0  0  0  0  0  0  0  0  0  0  0  0
    1.6338   -6.6437    0.0000 C   0  0  0  0  0  0  0  0  0  0  0  0
    4.4360   -5.5810    0.0000 C   0  0  0  0  0  0  0  0  0  0  0  0
    6.6570   -5.5810    0.0000 C   0  0  0  0  0  0  0  0  0  0  0  0
    8.8980   -7.2485    0.0000 C   0  0  0  0  0  0  0  0  0  0  0  0
    6.1668   -8.0054    0.0000 C   0  0  0  0  0  0  0  0  0  0  0  0
    9.4592   -6.6437    0.0000 C   0  0  0  0  0  0  0  0  0  0  0  0
   10.0425   -6.0603    0.0000 O   0  0  0  0  0  0  0  0  0  0  0  0
  1  2  1  0  0  0  0
  2  3  1  0  0  0  0
  3  4  1  0  0  0  0
  4  5  1  0  0  0  0
  5  6  1  0  0  0  0
  6  7  1  0  0  0  0
  7  8  1  0  0  0  0
  8  9  1  0  0  0  0
  9 10  1  0  0  0  0
 10 11  1  0  0  0  0
 11 12  1  0  0  0  0
 12 13  1  0  0  0  0
 13 14  1  0  0  0  0
 14 15  1  0  0  0  0
 15 16  1  0  0  0  0
 16 17  1  0  0  0  0
 17 18  1  0  0  0  0
 18 19  1  0  0  0  0
 19 20  1  0  0  0  0
 20 21  1  0  0  0  0
 21 22  1  0  0  0  0
 22 23  1  0  0  0  0
  1 23  2  0  0  0  0
  1 15  1  0  0  0  0
  3 12  1  0  0  0  0
  6 11  1  0  0  0  0
 16 21  1  0  0  0  0
  8 24  1  0  0  0  0
 19 25  1  0  0  0  0
 20 26  1  0  0  0  0
 20 27  1  0  0  0  0
 16 28  1  1  0  0  0
 11 29  1  6  0  0  0
  7 30  1  1  0  0  0
  3 31  1  6  0  0  0
 32 33  1  0  0  0  0
  7 32  1  6  0  0  0
M  END
>  <cdx:fragmentId>
3801

$$$$
