300432.cdx
  Mrv1902 05222410272D          

 25 27  0  0  0  0            999 V2000
    6.7056   -8.7782    0.0000 C   0  0  0  0  0  0  0  0  0  0  0  0
    7.5306   -8.7782    0.0000 C   0  0  0  0  0  0  0  0  0  0  0  0
    7.9431   -9.4927    0.0000 C   0  0  0  0  0  0  0  0  0  0  0  0
    6.2931   -9.4927    0.0000 O   0  0  0  0  0  0  0  0  0  0  0  0
    6.2931   -8.0637    0.0000 O   0  0  0  0  0  0  0  0  0  0  0  0
    8.7681   -9.4927    0.0000 C   0  0  0  0  0  0  0  0  0  0  0  0
    9.1806   -8.7782    0.0000 C   0  0  0  0  0  0  0  0  0  0  0  0
   10.0056   -8.7782    0.0000 C   0  0  0  0  0  0  0  0  0  0  0  0
   10.4181   -9.4927    0.0000 C   0  0  0  0  0  0  0  0  0  0  0  0
   10.0056  -10.2071    0.0000 C   0  0  0  0  0  0  0  0  0  0  0  0
    9.1806  -10.2071    0.0000 C   0  0  0  0  0  0  0  0  0  0  0  0
   11.2431   -9.4927    0.0000 O   0  0  0  0  0  0  0  0  0  0  0  0
   10.4181   -8.0637    0.0000 O   0  0  0  0  0  0  0  0  0  0  0  0
    4.3058   -8.9906    0.0000 C   0  0  2  0  0  0  0  0  0  0  0  0
    5.1101   -8.8070    0.0000 C   0  0  0  0  0  0  0  0  0  0  0  0
    5.4681   -8.0637    0.0000 C   0  0  2  0  0  0  0  0  0  0  0  0
    5.1101   -7.3204    0.0000 C   0  0  2  0  0  0  0  0  0  0  0  0
    4.3058   -7.1368    0.0000 C   0  0  1  0  0  0  0  0  0  0  0  0
    3.6608   -7.6512    0.0000 O   0  0  0  0  0  0  0  0  0  0  0  0
    3.6608   -8.4762    0.0000 C   0  0  0  0  0  0  0  0  0  0  0  0
    4.8404   -8.0646    0.0000 C   0  0  0  0  0  0  0  0  0  0  0  0
    2.9463   -8.8887    0.0000 O   0  0  0  0  0  0  0  0  0  0  0  0
    5.6245   -6.6754    0.0000 O   0  0  0  0  0  0  0  0  0  0  0  0
    4.1222   -9.7949    0.0000 O   0  0  0  0  0  0  0  0  0  0  0  0
    4.1222   -6.3325    0.0000 H   0  0  0  0  0  0  0  0  0  0  0  0
  1  2  1  0  0  0  0
  2  3  2  0  0  0  0
  1  4  2  0  0  0  0
  1  5  1  0  0  0  0
  6  7  1  0  0  0  0
  7  8  2  0  0  0  0
  8  9  1  0  0  0  0
  9 10  2  0  0  0  0
 10 11  1  0  0  0  0
  6 11  2  0  0  0  0
  9 12  1  0  0  0  0
  8 13  1  0  0  0  0
  3  6  1  0  0  0  0
 14 15  1  0  0  0  0
 15 16  1  0  0  0  0
 16 17  1  0  0  0  0
 17 18  1  0  0  0  0
 18 19  1  0  0  0  0
 19 20  1  0  0  0  0
 14 20  1  0  0  0  0
 14 21  1  0  0  0  0
 18 21  1  0  0  0  0
 20 22  2  0  0  0  0
 17 23  1  6  0  0  0
 14 24  1  1  0  0  0
 16  5  1  6  0  0  0
 18 25  1  1  0  0  0
M  END
>  <cdx:fragmentId>
15

$$$$
