300462.cdx
  Mrv1902 05222410212D          

 13 12  0  0  0  0            999 V2000
    4.9860   -7.0926    0.0000 C   0  0  0  0  0  0  0  0  0  0  0  0
    7.8438   -7.0926    0.0000 C   0  0  0  0  0  0  0  0  0  0  0  0
   10.7017   -6.2676    0.0000 C   0  0  0  0  0  0  0  0  0  0  0  0
    9.9873   -5.8551    0.0000 C   0  0  0  0  0  0  0  0  0  0  0  0
    9.2728   -6.2676    0.0000 C   0  0  0  0  0  0  0  0  0  0  0  0
    8.5583   -5.8551    0.0000 C   0  0  0  0  0  0  0  0  0  0  0  0
    7.8438   -6.2676    0.0000 C   0  0  0  0  0  0  0  0  0  0  0  0
    7.1294   -5.8551    0.0000 C   0  0  0  0  0  0  0  0  0  0  0  0
    6.4149   -6.2676    0.0000 C   0  0  0  0  0  0  0  0  0  0  0  0
    5.7004   -5.8551    0.0000 C   0  0  0  0  0  0  0  0  0  0  0  0
    4.9860   -6.2676    0.0000 C   0  0  0  0  0  0  0  0  0  0  0  0
    4.2715   -5.8551    0.0000 C   0  0  0  0  0  0  0  0  0  0  0  0
    3.5570   -6.2676    0.0000 C   0  0  0  0  0  0  0  0  0  0  0  0
 11  1  1  0  0  0  0
  7  2  1  0  0  0  0
  4  3  1  0  0  0  0
  5  4  1  0  0  0  0
  6  5  1  0  0  0  0
  7  6  1  0  0  0  0
  8  7  1  0  0  0  0
  9  8  1  0  0  0  0
 10  9  1  0  0  0  0
 11 10  1  0  0  0  0
 12 11  1  0  0  0  0
 13 12  1  0  0  0  0
M  END
>  <cdx:fragmentId>
6668

$$$$
