300470.cdx
  Mrv1902 05222410222D          

 19 20  0  0  0  0            999 V2000
    4.6524   -8.3875    0.0000 C   0  0  0  0  0  0  0  0  0  0  0  0
    4.6524   -9.2125    0.0000 C   0  0  0  0  0  0  0  0  0  0  0  0
    5.3669   -9.6250    0.0000 C   0  0  0  0  0  0  0  0  0  0  0  0
    6.0814   -9.2125    0.0000 C   0  0  0  0  0  0  0  0  0  0  0  0
    6.0814   -8.3875    0.0000 C   0  0  0  0  0  0  0  0  0  0  0  0
    5.3669   -7.9750    0.0000 C   0  0  0  0  0  0  0  0  0  0  0  0
    3.9380   -7.9750    0.0000 O   0  0  0  0  0  0  0  0  0  0  0  0
    3.2235   -8.3875    0.0000 C   0  0  0  0  0  0  0  0  0  0  0  0
    5.3669  -10.4500    0.0000 O   0  0  0  0  0  0  0  0  0  0  0  0
    6.7958   -7.9750    0.0000 C   0  0  0  0  0  0  0  0  0  0  0  0
    7.5103   -8.3875    0.0000 C   0  0  0  0  0  0  0  0  0  0  0  0
    8.2248   -7.9750    0.0000 C   0  0  0  0  0  0  0  0  0  0  0  0
    8.9393   -8.3875    0.0000 C   0  0  0  0  0  0  0  0  0  0  0  0
    9.6537   -7.9750    0.0000 C   0  0  0  0  0  0  0  0  0  0  0  0
    9.6537   -7.1500    0.0000 C   0  0  0  0  0  0  0  0  0  0  0  0
    8.9393   -6.7375    0.0000 C   0  0  0  0  0  0  0  0  0  0  0  0
    8.2248   -7.1500    0.0000 C   0  0  0  0  0  0  0  0  0  0  0  0
   10.3682   -8.3875    0.0000 O   0  0  0  0  0  0  0  0  0  0  0  0
   11.0827   -7.9750    0.0000 C   0  0  0  0  0  0  0  0  0  0  0  0
  1  2  2  0  0  0  0
  2  3  1  0  0  0  0
  3  4  2  0  0  0  0
  4  5  1  0  0  0  0
  5  6  2  0  0  0  0
  6  1  1  0  0  0  0
  1  7  1  0  0  0  0
  7  8  1  0  0  0  0
  3  9  1  0  0  0  0
  5 10  1  0  0  0  0
 10 11  1  0  0  0  0
 11 12  1  0  0  0  0
 12 13  2  0  0  0  0
 13 14  1  0  0  0  0
 14 15  2  0  0  0  0
 15 16  1  0  0  0  0
 16 17  2  0  0  0  0
 17 12  1  0  0  0  0
 14 18  1  0  0  0  0
 18 19  1  0  0  0  0
M  END
>  <cdx:fragmentId>
5

$$$$
