300450.cdx
  Mrv1902 05222410242D          

 10  9  0  0  0  0            999 V2000
    8.7974   -7.9157    0.0000 C   0  0  0  0  0  0  0  0  0  0  0  0
    8.0889   -8.3383    0.0000 C   0  0  0  0  0  0  0  0  0  0  0  0
    5.2313   -8.3790    0.0000 C   0  0  0  0  0  0  0  0  0  0  0  0
    5.9398   -7.9564    0.0000 C   0  0  0  0  0  0  0  0  0  0  0  0
    5.9633   -9.6062    0.0000 C   0  0  0  0  0  0  0  0  0  0  0  0
    6.6719   -9.1836    0.0000 C   0  0  0  0  0  0  0  0  0  0  0  0
    6.6601   -8.3587    0.0000 C   0  0  0  0  0  0  0  0  0  0  0  0
    7.3686   -7.9361    0.0000 C   0  0  0  0  0  0  0  0  0  0  0  0
    7.3569   -7.1111    0.0000 C   0  0  0  0  0  0  0  0  0  0  0  0
    6.6366   -6.7088    0.0000 C   0  0  0  0  0  0  0  0  0  0  0  0
  8  2  2  0  0  0  0
  2  1  1  0  0  0  0
  7  4  1  0  0  0  0
  4  3  1  0  0  0  0
  6  5  1  0  0  0  0
  7  6  1  0  0  0  0
  8  7  1  0  0  0  0
  9  8  1  0  0  0  0
  9 10  1  0  0  0  0
M  END
>  <cdx:fragmentId>
5

$$$$
