300466.cdx
  Mrv1902 05222410222D          

 28 30  0  0  0  0            999 V2000
    6.7716   -6.1798    0.0000 C   0  0  0  0  0  0  0  0  0  0  0  0
    6.7716   -7.0048    0.0000 C   0  0  0  0  0  0  0  0  0  0  0  0
    6.0571   -7.4173    0.0000 C   0  0  0  0  0  0  0  0  0  0  0  0
    5.3427   -7.0048    0.0000 C   0  0  0  0  0  0  0  0  0  0  0  0
    4.6282   -7.4173    0.0000 C   0  0  0  0  0  0  0  0  0  0  0  0
    3.9137   -7.0048    0.0000 C   0  0  0  0  0  0  0  0  0  0  0  0
    3.9137   -6.1798    0.0000 C   0  0  0  0  0  0  0  0  0  0  0  0
    4.6282   -5.7673    0.0000 C   0  0  0  0  0  0  0  0  0  0  0  0
    5.3427   -6.1798    0.0000 C   0  0  0  0  0  0  0  0  0  0  0  0
    6.0571   -5.7673    0.0000 O   0  0  0  0  0  0  0  0  0  0  0  0
    6.0571   -8.2423    0.0000 O   0  0  0  0  0  0  0  0  0  0  0  0
    4.6282   -4.9423    0.0000 O   0  0  0  0  0  0  0  0  0  0  0  0
    3.9137   -4.5298    0.0000 C   0  0  0  0  0  0  0  0  0  0  0  0
    3.1993   -5.7673    0.0000 O   0  0  0  0  0  0  0  0  0  0  0  0
    2.4848   -6.1798    0.0000 C   0  0  0  0  0  0  0  0  0  0  0  0
    3.1993   -7.4173    0.0000 O   0  0  0  0  0  0  0  0  0  0  0  0
    2.4848   -7.0048    0.0000 C   0  0  0  0  0  0  0  0  0  0  0  0
    4.6282   -8.2423    0.0000 O   0  0  0  0  0  0  0  0  0  0  0  0
    3.9137   -8.6548    0.0000 C   0  0  0  0  0  0  0  0  0  0  0  0
    7.4861   -5.7673    0.0000 C   0  0  0  0  0  0  0  0  0  0  0  0
    8.2006   -6.1798    0.0000 C   0  0  0  0  0  0  0  0  0  0  0  0
    8.9150   -5.7673    0.0000 C   0  0  0  0  0  0  0  0  0  0  0  0
    8.9150   -4.9423    0.0000 C   0  0  0  0  0  0  0  0  0  0  0  0
    8.2006   -4.5298    0.0000 C   0  0  0  0  0  0  0  0  0  0  0  0
    7.4861   -4.9423    0.0000 C   0  0  0  0  0  0  0  0  0  0  0  0
    9.6295   -4.5298    0.0000 O   0  0  0  0  0  0  0  0  0  0  0  0
   10.3440   -4.9423    0.0000 C   0  0  0  0  0  0  0  0  0  0  0  0
    9.6295   -6.1798    0.0000 O   0  0  0  0  0  0  0  0  0  0  0  0
  1  2  2  0  0  0  0
  2  3  1  0  0  0  0
  3  4  1  0  0  0  0
  4  5  1  0  0  0  0
  5  6  2  0  0  0  0
  6  7  1  0  0  0  0
  7  8  2  0  0  0  0
  8  9  1  0  0  0  0
  4  9  2  0  0  0  0
  9 10  1  0  0  0  0
  1 10  1  0  0  0  0
  3 11  2  0  0  0  0
 12 13  1  0  0  0  0
  8 12  1  0  0  0  0
 14 15  1  0  0  0  0
  7 14  1  0  0  0  0
 16 17  1  0  0  0  0
  6 16  1  0  0  0  0
 18 19  1  0  0  0  0
  5 18  1  0  0  0  0
 20 21  1  0  0  0  0
 21 22  2  0  0  0  0
 22 23  1  0  0  0  0
 23 24  2  0  0  0  0
 24 25  1  0  0  0  0
 20 25  2  0  0  0  0
 26 27  1  0  0  0  0
 23 26  1  0  0  0  0
 22 28  1  0  0  0  0
  1 20  1  0  0  0  0
M  END
>  <cdx:fragmentId>
6862

$$$$
