300401.cdx
  Mrv1902 05222410182D          

  7  6  0  0  0  0            999 V2000
    8.1180   -8.2516    0.0000 C   0  0  0  0  0  0  0  0  0  0  0  0
    7.4035   -8.6641    0.0000 C   0  0  0  0  0  0  0  0  0  0  0  0
    6.6891   -8.2516    0.0000 C   0  0  0  0  0  0  0  0  0  0  0  0
    8.1180   -7.4266    0.0000 O   0  0  0  0  0  0  0  0  0  0  0  0
    8.8325   -8.6641    0.0000 O   0  0  0  0  0  0  0  0  0  0  0  0
    5.9746   -8.6641    0.0000 S   0  0  0  0  0  0  0  0  0  0  0  0
    5.2601   -8.2516    0.0000 C   0  0  0  0  0  0  0  0  0  0  0  0
  1  2  1  0  0  0  0
  2  3  1  0  0  0  0
  1  4  2  0  0  0  0
  1  5  1  0  0  0  0
  6  7  1  0  0  0  0
  3  6  1  0  0  0  0
M  END
>  <cdx:fragmentId>
5

$$$$
