300405.cdx
  Mrv1902 05222410202D          

 34 38  0  0  0  0            999 V2000
    8.5406   -4.1933    0.0000 C   0  0  0  0  0  0  0  0  0  0  0  0
    9.0926   -4.8064    0.0000 C   0  0  0  0  0  0  0  0  0  0  0  0
    8.8377   -5.5910    0.0000 C   0  0  0  0  0  0  0  0  0  0  0  0
    8.0307   -5.7625    0.0000 C   0  0  0  0  0  0  0  0  0  0  0  0
    7.4787   -5.1494    0.0000 C   0  0  0  0  0  0  0  0  0  0  0  0
    7.7336   -4.3648    0.0000 O   0  0  0  0  0  0  0  0  0  0  0  0
    8.7955   -3.4087    0.0000 O   0  0  0  0  0  0  0  0  0  0  0  0
    4.1333   -7.6271    0.0000 C   0  0  1  0  0  0  0  0  0  0  0  0
    3.4188   -8.0396    0.0000 C   0  0  0  0  0  0  0  0  0  0  0  0
    3.4188   -8.8646    0.0000 C   0  0  2  0  0  0  0  0  0  0  0  0
    4.1333   -9.2771    0.0000 C   0  0  0  0  0  0  0  0  0  0  0  0
    4.8477   -8.8646    0.0000 C   0  0  1  0  0  0  0  0  0  0  0  0
    5.5622   -9.2771    0.0000 C   0  0  0  0  0  0  0  0  0  0  0  0
    6.2767   -8.8646    0.0000 C   0  0  0  0  0  0  0  0  0  0  0  0
    6.2767   -8.0396    0.0000 C   0  0  1  0  0  0  0  0  0  0  0  0
    6.9911   -7.6271    0.0000 C   0  0  1  0  0  0  0  0  0  0  0  0
    7.7758   -7.8820    0.0000 C   0  0  0  0  0  0  0  0  0  0  0  0
    8.2607   -7.2146    0.0000 C   0  0  2  0  0  0  0  0  0  0  0  0
    7.7758   -6.5471    0.0000 C   0  0  1  0  0  0  0  0  0  0  0  0
    6.9911   -6.8021    0.0000 C   0  0  1  0  0  0  0  0  0  0  0  0
    6.2767   -6.3896    0.0000 C   0  0  0  0  0  0  0  0  0  0  0  0
    5.5622   -6.8021    0.0000 C   0  0  1  0  0  0  0  0  0  0  0  0
    5.5622   -7.6271    0.0000 C   0  0  2  0  0  0  0  0  0  0  0  0
    4.8477   -8.0396    0.0000 C   0  0  1  0  0  0  0  0  0  0  0  0
    7.0774   -5.9816    0.0000 C   0  0  0  0  0  0  0  0  0  0  0  0
    4.8477   -7.2146    0.0000 C   0  0  0  0  0  0  0  0  0  0  0  0
    7.0774   -8.4476    0.0000 O   0  0  0  0  0  0  0  0  0  0  0  0
    2.7043   -9.2771    0.0000 O   0  0  0  0  0  0  0  0  0  0  0  0
    4.8477   -9.6896    0.0000 H   0  0  0  0  0  0  0  0  0  0  0  0
    4.1333   -6.8021    0.0000 H   0  0  0  0  0  0  0  0  0  0  0  0
    9.0857   -7.2146    0.0000 H   0  0  0  0  0  0  0  0  0  0  0  0
    4.8477   -6.3896    0.0000 H   0  0  0  0  0  0  0  0  0  0  0  0
    5.5622   -8.4521    0.0000 H   0  0  0  0  0  0  0  0  0  0  0  0
    6.2767   -7.2146    0.0000 H   0  0  0  0  0  0  0  0  0  0  0  0
  1  2  1  0  0  0  0
  2  3  2  0  0  0  0
  3  4  1  0  0  0  0
  4  5  2  0  0  0  0
  5  6  1  0  0  0  0
  1  6  1  0  0  0  0
  1  7  2  0  0  0  0
  8  9  1  0  0  0  0
  9 10  1  0  0  0  0
 10 11  1  0  0  0  0
 11 12  1  0  0  0  0
 12 13  1  0  0  0  0
 13 14  1  0  0  0  0
 14 15  1  0  0  0  0
 15 16  1  0  0  0  0
 16 17  1  0  0  0  0
 17 18  1  0  0  0  0
 18 19  1  0  0  0  0
 19 20  1  0  0  0  0
 16 20  1  0  0  0  0
 20 21  1  0  0  0  0
 21 22  1  0  0  0  0
 22 23  1  0  0  0  0
 15 23  1  0  0  0  0
 23 24  1  0  0  0  0
 12 24  1  0  0  0  0
  8 24  1  0  0  0  0
 20 25  1  1  0  0  0
 24 26  1  1  0  0  0
 16 27  1  1  0  0  0
 10 28  1  6  0  0  0
 19  4  1  1  0  0  0
 12 29  1  1  0  0  0
  8 30  1  1  0  0  0
 18 31  1  1  0  0  0
 22 32  1  6  0  0  0
 23 33  1  6  0  0  0
 15 34  1  1  0  0  0
M  END
>  <cdx:fragmentId>
3602

$$$$
