300445.cdx
  Mrv1902 05222410252D          

 21 24  0  0  0  0            999 V2000
    6.3172   -7.8111    0.0000 C   0  0  0  0  0  0  0  0  0  0  0  0
    5.7652   -7.1980    0.0000 C   0  0  0  0  0  0  0  0  0  0  0  0
    6.0201   -6.4134    0.0000 C   0  0  0  0  0  0  0  0  0  0  0  0
    6.8271   -6.2419    0.0000 C   0  0  0  0  0  0  0  0  0  0  0  0
    7.0820   -5.4573    0.0000 C   0  0  0  0  0  0  0  0  0  0  0  0
    7.8890   -5.2857    0.0000 C   0  0  0  0  0  0  0  0  0  0  0  0
    8.4410   -5.8988    0.0000 C   0  0  0  0  0  0  0  0  0  0  0  0
    8.1861   -6.6835    0.0000 C   0  0  0  0  0  0  0  0  0  0  0  0
    7.3791   -6.8550    0.0000 C   0  0  0  0  0  0  0  0  0  0  0  0
    7.1242   -7.6396    0.0000 O   0  0  0  0  0  0  0  0  0  0  0  0
    5.3527   -5.9285    0.0000 O   0  0  0  0  0  0  0  0  0  0  0  0
    4.9402   -7.1980    0.0000 C   0  0  0  0  0  0  0  0  0  0  0  0
    4.6853   -6.4134    0.0000 C   0  0  0  0  0  0  0  0  0  0  0  0
    3.8783   -6.2419    0.0000 C   0  0  0  0  0  0  0  0  0  0  0  0
    3.3262   -6.8550    0.0000 C   0  0  0  0  0  0  0  0  0  0  0  0
    3.5812   -7.6396    0.0000 C   0  0  0  0  0  0  0  0  0  0  0  0
    4.3882   -7.8111    0.0000 C   0  0  0  0  0  0  0  0  0  0  0  0
    9.2480   -5.7273    0.0000 O   0  0  0  0  0  0  0  0  0  0  0  0
    3.6233   -5.4573    0.0000 O   0  0  0  0  0  0  0  0  0  0  0  0
    2.5193   -6.6835    0.0000 O   0  0  0  0  0  0  0  0  0  0  0  0
    1.9672   -7.2966    0.0000 C   0  0  0  0  0  0  0  0  0  0  0  0
  1  2  1  0  0  0  0
  2  3  1  0  0  0  0
  3  4  1  0  0  0  0
  4  5  1  0  0  0  0
  5  6  2  0  0  0  0
  6  7  1  0  0  0  0
  7  8  2  0  0  0  0
  8  9  1  0  0  0  0
  4  9  2  0  0  0  0
  9 10  1  0  0  0  0
  1 10  1  0  0  0  0
 12 13  1  0  0  0  0
 11 13  1  0  0  0  0
 14 15  1  0  0  0  0
 15 16  2  0  0  0  0
 16 17  1  0  0  0  0
 12 17  2  0  0  0  0
 13 14  2  0  0  0  0
  2 12  1  0  0  0  0
  3 11  1  0  0  0  0
  7 18  1  0  0  0  0
 14 19  1  0  0  0  0
 20 21  1  0  0  0  0
 15 20  1  0  0  0  0
M  END
>  <cdx:fragmentId>
5728

$$$$
