300441.cdx
  Mrv1902 05222410242D          

 49 54  0  0  0  0            999 V2000
    8.8605   -7.5212    0.0000 H   0  0  0  0  0  0  0  0  0  0  0  0
   10.9939   -4.6233    0.0000 C   0  0  1  0  0  0  0  0  0  0  0  0
   11.7063   -4.2073    0.0000 C   0  0  1  0  0  0  0  0  0  0  0  0
   12.4228   -4.6163    0.0000 C   0  0  0  0  0  0  0  0  0  0  0  0
   12.4268   -5.4413    0.0000 C   0  0  0  0  0  0  0  0  0  0  0  0
   11.7143   -5.8573    0.0000 C   0  0  2  0  0  0  0  0  0  0  0  0
   11.7183   -6.6823    0.0000 C   0  0  0  0  0  0  0  0  0  0  0  0
   11.0059   -7.0982    0.0000 C   0  0  0  0  0  0  0  0  0  0  0  0
   10.2894   -6.6892    0.0000 C   0  0  1  0  0  0  0  0  0  0  0  0
    9.5770   -7.1052    0.0000 C   0  0  2  0  0  0  0  0  0  0  0  0
    9.5810   -7.9302    0.0000 C   0  0  0  0  0  0  0  0  0  0  0  0
    8.8685   -8.3461    0.0000 C   0  0  0  0  0  0  0  0  0  0  0  0
    8.1520   -7.9371    0.0000 C   0  0  1  0  0  0  0  0  0  0  0  0
    7.4396   -8.3531    0.0000 C   0  0  2  0  0  0  0  0  0  0  0  0
    6.7231   -7.9441    0.0000 C   0  0  2  0  0  0  0  0  0  0  0  0
    6.7191   -7.1191    0.0000 C   0  0  0  0  0  0  0  0  0  0  0  0
    7.4316   -6.7031    0.0000 C   0  0  0  0  0  0  0  0  0  0  0  0
    8.1480   -7.1121    0.0000 C   0  0  2  0  0  0  0  0  0  0  0  0
    8.8605   -6.6962    0.0000 C   0  0  1  0  0  0  0  0  0  0  0  0
    8.8565   -5.8712    0.0000 C   0  0  0  0  0  0  0  0  0  0  0  0
    9.5689   -5.4552    0.0000 C   0  0  0  0  0  0  0  0  0  0  0  0
   10.2854   -5.8642    0.0000 C   0  0  0  0  0  0  0  0  0  0  0  0
   10.9979   -5.4483    0.0000 C   0  0  2  0  0  0  0  0  0  0  0  0
   12.4308   -6.2663    0.0000 C   0  0  0  0  0  0  0  0  0  0  0  0
   12.4348   -7.0913    0.0000 O   0  0  0  0  0  0  0  0  0  0  0  0
   13.1433   -5.8504    0.0000 O   0  0  0  0  0  0  0  0  0  0  0  0
    8.1440   -6.2871    0.0000 C   0  0  0  0  0  0  0  0  0  0  0  0
    7.0306   -9.0695    0.0000 C   0  0  0  0  0  0  0  0  0  0  0  0
    9.5730   -6.2802    0.0000 C   0  0  0  0  0  0  0  0  0  0  0  0
   10.2934   -7.5142    0.0000 C   0  0  0  0  0  0  0  0  0  0  0  0
   11.7023   -3.3823    0.0000 C   0  0  0  0  0  0  0  0  0  0  0  0
   10.5779   -3.9108    0.0000 C   0  0  0  0  0  0  0  0  0  0  0  0
    6.0107   -8.3600    0.0000 O   0  0  0  0  0  0  0  0  0  0  0  0
    5.2942   -7.9510    0.0000 C   0  0  0  0  0  0  0  0  0  0  0  0
    4.5817   -8.3670    0.0000 C   0  0  0  0  0  0  0  0  0  0  0  0
    3.8653   -7.9579    0.0000 C   0  0  0  0  0  0  0  0  0  0  0  0
    5.2902   -7.1260    0.0000 O   0  0  0  0  0  0  0  0  0  0  0  0
    3.1528   -8.3739    0.0000 C   0  0  0  0  0  0  0  0  0  0  0  0
    3.1568   -9.1989    0.0000 C   0  0  0  0  0  0  0  0  0  0  0  0
    2.4443   -9.6148    0.0000 C   0  0  0  0  0  0  0  0  0  0  0  0
    1.7279   -9.2058    0.0000 C   0  0  0  0  0  0  0  0  0  0  0  0
    1.7239   -8.3808    0.0000 C   0  0  0  0  0  0  0  0  0  0  0  0
    2.4363   -7.9649    0.0000 C   0  0  0  0  0  0  0  0  0  0  0  0
    1.0154   -9.6218    0.0000 O   0  0  0  0  0  0  0  0  0  0  0  0
    7.8555   -9.0655    0.0000 C   0  0  0  0  0  0  0  0  0  0  0  0
    7.4465   -9.7820    0.0000 O   0  0  0  0  0  0  0  0  0  0  0  0
   10.1689   -4.6273    0.0000 O   0  0  0  0  0  0  0  0  0  0  0  0
    8.1560   -8.7621    0.0000 H   0  0  0  0  0  0  0  0  0  0  0  0
   11.0019   -6.2733    0.0000 H   0  0  0  0  0  0  0  0  0  0  0  0
 19  1  1  6  0  0  0
  2  3  1  0  0  0  0
  3  4  1  0  0  0  0
  4  5  1  0  0  0  0
  5  6  1  0  0  0  0
  6  7  1  0  0  0  0
  7  8  1  0  0  0  0
  8  9  1  0  0  0  0
  9 10  1  0  0  0  0
 10 11  1  0  0  0  0
 11 12  1  0  0  0  0
 12 13  1  0  0  0  0
 13 14  1  0  0  0  0
 14 15  1  0  0  0  0
 15 16  1  0  0  0  0
 16 17  1  0  0  0  0
 17 18  1  0  0  0  0
 13 18  1  0  0  0  0
 18 19  1  0  0  0  0
 10 19  1  0  0  0  0
 19 20  1  0  0  0  0
 20 21  1  0  0  0  0
 21 22  2  0  0  0  0
  9 22  1  0  0  0  0
 22 23  1  0  0  0  0
  6 23  1  0  0  0  0
  2 23  1  0  0  0  0
 24 25  2  0  0  0  0
 24 26  1  0  0  0  0
  6 24  1  1  0  0  0
 18 27  1  1  0  0  0
 14 28  1  1  0  0  0
 10 29  1  1  0  0  0
  9 30  1  6  0  0  0
  3 31  1  6  0  0  0
  2 32  1  1  0  0  0
 34 35  1  0  0  0  0
 35 36  2  0  0  0  0
 34 37  2  0  0  0  0
 38 39  1  0  0  0  0
 39 40  2  0  0  0  0
 40 41  1  0  0  0  0
 41 42  2  0  0  0  0
 42 43  1  0  0  0  0
 38 43  2  0  0  0  0
 41 44  1  0  0  0  0
 36 38  1  0  0  0  0
 33 34  1  0  0  0  0
 15 33  1  1  0  0  0
 45 46  1  0  0  0  0
 14 45  1  6  0  0  0
  2 47  1  6  0  0  0
 13 48  1  6  0  0  0
 23 49  1  1  0  0  0
M  END
>  <cdx:fragmentId>
5470

$$$$
