300417.cdx
  Mrv1902 05222410182D          

  8  8  0  0  0  0            999 V2000
    7.5616   -5.6389    0.0000 C   0  0  0  0  0  0  0  0  0  0  0  0
    7.5616   -6.4639    0.0000 C   0  0  0  0  0  0  0  0  0  0  0  0
    6.8472   -6.8764    0.0000 C   0  0  0  0  0  0  0  0  0  0  0  0
    6.1327   -6.4639    0.0000 C   0  0  0  0  0  0  0  0  0  0  0  0
    6.1327   -5.6389    0.0000 C   0  0  0  0  0  0  0  0  0  0  0  0
    6.8472   -5.2264    0.0000 N   0  0  0  0  0  0  0  0  0  0  0  0
    8.2761   -6.8764    0.0000 O   0  0  0  0  0  0  0  0  0  0  0  0
    8.2761   -5.2264    0.0000 C   0  0  0  0  0  0  0  0  0  0  0  0
  1  2  1  0  0  0  0
  2  3  2  0  0  0  0
  3  4  1  0  0  0  0
  4  5  2  0  0  0  0
  5  6  1  0  0  0  0
  1  6  2  0  0  0  0
  2  7  1  0  0  0  0
  1  8  1  0  0  0  0
M  END
>  <cdx:fragmentId>
4195

$$$$
