300456.cdx
  Mrv1902 05222410232D          

 18 18  0  0  0  0            999 V2000
    7.5406   -5.5611    0.0000 C   0  0  0  0  0  0  0  0  0  0  0  0
    6.8261   -5.9736    0.0000 C   0  0  0  0  0  0  0  0  0  0  0  0
    6.1116   -5.5611    0.0000 C   0  0  0  0  0  0  0  0  0  0  0  0
    7.5406   -4.7361    0.0000 O   0  0  0  0  0  0  0  0  0  0  0  0
    8.2550   -5.9736    0.0000 O   0  0  0  0  0  0  0  0  0  0  0  0
    5.3971   -5.9736    0.0000 C   0  0  0  0  0  0  0  0  0  0  0  0
    4.6827   -5.5611    0.0000 C   0  0  0  0  0  0  0  0  0  0  0  0
    3.9682   -5.9736    0.0000 C   0  0  0  0  0  0  0  0  0  0  0  0
    3.9682   -6.7986    0.0000 C   0  0  0  0  0  0  0  0  0  0  0  0
    4.6827   -7.2111    0.0000 C   0  0  0  0  0  0  0  0  0  0  0  0
    5.3971   -6.7986    0.0000 C   0  0  0  0  0  0  0  0  0  0  0  0
    4.6827   -8.0361    0.0000 O   0  0  0  0  0  0  0  0  0  0  0  0
    3.9682   -8.4486    0.0000 C   0  0  0  0  0  0  0  0  0  0  0  0
    3.2537   -7.2111    0.0000 O   0  0  0  0  0  0  0  0  0  0  0  0
    2.5393   -6.7986    0.0000 C   0  0  0  0  0  0  0  0  0  0  0  0
    3.2537   -5.5611    0.0000 O   0  0  0  0  0  0  0  0  0  0  0  0
    2.5393   -5.9736    0.0000 C   0  0  0  0  0  0  0  0  0  0  0  0
    8.9695   -5.5611    0.0000 C   0  0  0  0  0  0  0  0  0  0  0  0
  1  2  1  0  0  0  0
  2  3  2  0  0  0  0
  1  4  2  0  0  0  0
  1  5  1  0  0  0  0
  6  7  1  0  0  0  0
  7  8  2  0  0  0  0
  8  9  1  0  0  0  0
  9 10  2  0  0  0  0
 10 11  1  0  0  0  0
  6 11  2  0  0  0  0
 12 13  1  0  0  0  0
 10 12  1  0  0  0  0
 14 15  1  0  0  0  0
  9 14  1  0  0  0  0
 16 17  1  0  0  0  0
  8 16  1  0  0  0  0
  3  6  1  0  0  0  0
  5 18  1  0  0  0  0
M  END
>  <cdx:fragmentId>
6302

$$$$
