300402.cdx
  Mrv1902 05222410192D          

 16 18  0  0  0  0            999 V2000
    7.5322   -7.4309    0.0000 C   0  0  0  0  0  0  0  0  0  0  0  0
    8.3392   -7.2593    0.0000 C   0  0  0  0  0  0  0  0  0  0  0  0
    5.2087   -5.1067    0.0000 N   0  0  0  0  0  0  0  0  0  0  0  0
    5.8761   -5.5916    0.0000 C   0  0  0  0  0  0  0  0  0  0  0  0
    5.6212   -6.3762    0.0000 C   0  0  0  0  0  0  0  0  0  0  0  0
    4.7962   -6.3762    0.0000 C   0  0  0  0  0  0  0  0  0  0  0  0
    4.2441   -6.9893    0.0000 C   0  0  0  0  0  0  0  0  0  0  0  0
    3.4372   -6.8178    0.0000 C   0  0  0  0  0  0  0  0  0  0  0  0
    3.1822   -6.0331    0.0000 C   0  0  0  0  0  0  0  0  0  0  0  0
    3.7343   -5.4201    0.0000 C   0  0  0  0  0  0  0  0  0  0  0  0
    4.5412   -5.5916    0.0000 C   0  0  0  0  0  0  0  0  0  0  0  0
    6.6831   -5.4201    0.0000 C   0  0  0  0  0  0  0  0  0  0  0  0
    6.1732   -6.9893    0.0000 C   0  0  0  0  0  0  0  0  0  0  0  0
    6.9802   -6.8178    0.0000 C   0  0  0  0  0  0  0  0  0  0  0  0
    7.2351   -6.0331    0.0000 N   0  0  0  0  0  0  0  0  0  0  0  0
    7.2773   -8.2155    0.0000 O   0  0  0  0  0  0  0  0  0  0  0  0
  1  2  1  0  0  0  0
  3  4  1  0  0  0  0
  4  5  2  0  0  0  0
  5  6  1  0  0  0  0
  6  7  1  0  0  0  0
  7  8  2  0  0  0  0
  8  9  1  0  0  0  0
  9 10  2  0  0  0  0
 10 11  1  0  0  0  0
  3 11  1  0  0  0  0
  6 11  2  0  0  0  0
 13 14  2  0  0  0  0
 14 15  1  0  0  0  0
 12 15  2  0  0  0  0
  4 12  1  0  0  0  0
  5 13  1  0  0  0  0
  1 14  1  0  0  0  0
  1 16  2  0  0  0  0
M  END
>  <cdx:fragmentId>
3500

$$$$
