300482.cdx
  Mrv1902 05222410242D          

 11 12  0  0  0  0            999 V2000
    5.4265   -6.3479    0.0000 C   0  0  0  0  0  0  0  0  0  0  0  0
    6.1410   -5.9354    0.0000 N   0  0  0  0  0  0  0  0  0  0  0  0
    6.8554   -6.3479    0.0000 C   0  0  0  0  0  0  0  0  0  0  0  0
    6.8554   -7.1729    0.0000 C   0  0  0  0  0  0  0  0  0  0  0  0
    6.1410   -7.5854    0.0000 C   0  0  0  0  0  0  0  0  0  0  0  0
    5.4265   -7.1729    0.0000 N   0  0  0  0  0  0  0  0  0  0  0  0
    8.1250   -6.7604    0.0000 N   0  0  0  0  0  0  0  0  0  0  0  0
    7.6401   -6.0929    0.0000 N   0  0  0  0  0  0  0  0  0  0  0  0
    7.6401   -7.4278    0.0000 C   0  0  0  0  0  0  0  0  0  0  0  0
    4.7120   -5.9354    0.0000 O   0  0  0  0  0  0  0  0  0  0  0  0
    6.1410   -8.4104    0.0000 N   0  0  0  0  0  0  0  0  0  0  0  0
  1  2  1  0  0  0  0
  2  3  2  0  0  0  0
  3  4  1  0  0  0  0
  4  5  2  0  0  0  0
  5  6  1  0  0  0  0
  1  6  1  0  0  0  0
  7  8  1  0  0  0  0
  7  9  2  0  0  0  0
  3  8  1  0  0  0  0
  4  9  1  0  0  0  0
  1 10  2  0  0  0  0
  5 11  1  0  0  0  0
M  END
>  <cdx:fragmentId>
7723

$$$$
