300423.cdx
  Mrv1902 05222410272D          

 12 13  0  0  0  0            999 V2000
    6.1150   -5.9276    0.0000 N   0  0  0  0  0  0  0  0  0  0  0  0
    6.8295   -6.3401    0.0000 C   0  0  0  0  0  0  0  0  0  0  0  0
    6.8295   -7.1651    0.0000 C   0  0  0  0  0  0  0  0  0  0  0  0
    6.1150   -7.5776    0.0000 C   0  0  0  0  0  0  0  0  0  0  0  0
    5.4006   -7.1651    0.0000 C   0  0  0  0  0  0  0  0  0  0  0  0
    4.6861   -7.5776    0.0000 C   0  0  0  0  0  0  0  0  0  0  0  0
    3.9716   -7.1651    0.0000 C   0  0  0  0  0  0  0  0  0  0  0  0
    3.9716   -6.3401    0.0000 C   0  0  0  0  0  0  0  0  0  0  0  0
    4.6861   -5.9276    0.0000 C   0  0  0  0  0  0  0  0  0  0  0  0
    5.4006   -6.3401    0.0000 C   0  0  0  0  0  0  0  0  0  0  0  0
    4.6861   -8.4026    0.0000 O   0  0  0  0  0  0  0  0  0  0  0  0
    7.5440   -7.5776    0.0000 C   0  0  0  0  0  0  0  0  0  0  0  0
  1  2  2  0  0  0  0
  2  3  1  0  0  0  0
  3  4  2  0  0  0  0
  4  5  1  0  0  0  0
  5  6  1  0  0  0  0
  6  7  1  0  0  0  0
  7  8  1  0  0  0  0
  8  9  1  0  0  0  0
  9 10  1  0  0  0  0
  1 10  1  0  0  0  0
  5 10  2  0  0  0  0
  6 11  2  0  0  0  0
  3 12  1  0  0  0  0
M  END
>  <cdx:fragmentId>
4429

$$$$
