300446.cdx
  Mrv1902 05222410262D          

 35 39  0  0  0  0            999 V2000
    3.1124   -9.7075    0.0000 C   0  0  0  0  0  0  0  0  0  0  0  0
    3.1124  -10.5325    0.0000 C   0  0  0  0  0  0  0  0  0  0  0  0
    3.8269  -10.9450    0.0000 C   0  0  0  0  0  0  0  0  0  0  0  0
    4.5414  -10.5325    0.0000 C   0  0  1  0  0  0  0  0  0  0  0  0
    4.5414   -9.7075    0.0000 C   0  0  2  0  0  0  0  0  0  0  0  0
    3.8269   -9.2950    0.0000 C   0  0  0  0  0  0  0  0  0  0  0  0
    5.2558  -10.9450    0.0000 C   0  0  0  0  0  0  0  0  0  0  0  0
    5.9703  -10.5325    0.0000 C   0  0  0  0  0  0  0  0  0  0  0  0
    5.9703   -9.7075    0.0000 C   0  0  2  0  0  0  0  0  0  0  0  0
    5.2558   -9.2950    0.0000 C   0  0  2  0  0  0  0  0  0  0  0  0
    6.6848   -9.2950    0.0000 C   0  0  1  0  0  0  0  0  0  0  0  0
    6.6848   -8.4700    0.0000 C   0  0  0  0  0  0  0  0  0  0  0  0
    5.9703   -8.0575    0.0000 C   0  0  0  0  0  0  0  0  0  0  0  0
    5.2558   -8.4700    0.0000 C   0  0  0  0  0  0  0  0  0  0  0  0
    7.3993   -9.7075    0.0000 C   0  0  0  0  0  0  0  0  0  0  0  0
    8.1137   -9.2950    0.0000 C   0  0  0  0  0  0  0  0  0  0  0  0
    8.1137   -8.4700    0.0000 C   0  0  2  0  0  0  0  0  0  0  0  0
    7.3993   -8.0575    0.0000 C   0  0  1  0  0  0  0  0  0  0  0  0
    8.8282   -8.0575    0.0000 C   0  0  0  0  0  0  0  0  0  0  0  0
    8.8282   -7.2325    0.0000 C   0  0  0  0  0  0  0  0  0  0  0  0
    8.1137   -6.8200    0.0000 C   0  0  0  0  0  0  0  0  0  0  0  0
    7.3993   -7.2325    0.0000 C   0  0  0  0  0  0  0  0  0  0  0  0
    7.7012   -6.1055    0.0000 C   0  0  0  0  0  0  0  0  0  0  0  0
    8.5262   -6.1055    0.0000 C   0  0  0  0  0  0  0  0  0  0  0  0
    3.4144  -11.6595    0.0000 C   0  0  0  0  0  0  0  0  0  0  0  0
    4.2394  -11.6595    0.0000 C   0  0  0  0  0  0  0  0  0  0  0  0
    2.3980  -10.9450    0.0000 O   0  0  0  0  0  0  0  0  0  0  0  0
    4.5414   -8.8825    0.0000 C   0  0  0  0  0  0  0  0  0  0  0  0
    4.5414  -11.3575    0.0000 H   0  0  0  0  0  0  0  0  0  0  0  0
    6.5537  -10.2909    0.0000 C   0  0  0  0  0  0  0  0  0  0  0  0
    6.8983  -10.0919    0.0000 C   0  0  0  0  0  0  0  0  0  0  0  0
    8.8282   -8.8825    0.0000 C   0  0  0  0  0  0  0  0  0  0  0  0
    4.5414   -8.0575    0.0000 O   0  0  0  0  0  0  0  0  0  0  0  0
    5.9703   -8.8825    0.0000 H   0  0  0  0  0  0  0  0  0  0  0  0
    8.1137   -7.6450    0.0000 H   0  0  0  0  0  0  0  0  0  0  0  0
  1  2  1  0  0  0  0
  2  3  1  0  0  0  0
  3  4  1  0  0  0  0
  4  5  1  0  0  0  0
  5  6  1  0  0  0  0
  6  1  1  0  0  0  0
  4  7  1  0  0  0  0
  7  8  1  0  0  0  0
  8  9  1  0  0  0  0
  9 10  1  0  0  0  0
 10  5  1  0  0  0  0
  9 11  1  0  0  0  0
 11 12  1  0  0  0  0
 12 13  2  0  0  0  0
 13 14  1  0  0  0  0
 14 10  1  0  0  0  0
 11 15  1  0  0  0  0
 15 16  1  0  0  0  0
 16 17  1  0  0  0  0
 17 18  1  0  0  0  0
 18 12  1  0  0  0  0
 17 19  1  0  0  0  0
 19 20  1  0  0  0  0
 20 21  1  0  0  0  0
 21 22  1  0  0  0  0
 22 18  1  0  0  0  0
 21 23  1  0  0  0  0
 21 24  1  0  0  0  0
  3 25  1  0  0  0  0
  3 26  1  0  0  0  0
  2 27  2  0  0  0  0
  5 28  1  1  0  0  0
  4 29  1  6  0  0  0
  9 30  1  1  0  0  0
 11 31  1  6  0  0  0
 17 32  1  1  0  0  0
 14 33  2  0  0  0  0
 10 34  1  6  0  0  0
 18 35  1  1  0  0  0
M  END
>  <cdx:fragmentId>
929

$$$$
