300442.cdx
  Mrv1902 05222410232D          

 11 11  0  0  0  0            999 V2000
    7.0383   -6.9689    0.0000 C   0  0  0  0  0  0  0  0  0  0  0  0
    6.3239   -6.5564    0.0000 C   0  0  0  0  0  0  0  0  0  0  0  0
    5.6094   -6.9689    0.0000 C   0  0  0  0  0  0  0  0  0  0  0  0
    5.6094   -7.7939    0.0000 C   0  0  0  0  0  0  0  0  0  0  0  0
    7.7528   -6.5564    0.0000 O   0  0  0  0  0  0  0  0  0  0  0  0
    4.8949   -6.5564    0.0000 C   0  0  0  0  0  0  0  0  0  0  0  0
    4.1805   -6.9689    0.0000 C   0  0  0  0  0  0  0  0  0  0  0  0
    3.4660   -6.5564    0.0000 C   0  0  0  0  0  0  0  0  0  0  0  0
    3.4660   -5.7314    0.0000 C   0  0  0  0  0  0  0  0  0  0  0  0
    4.1805   -5.3189    0.0000 C   0  0  0  0  0  0  0  0  0  0  0  0
    4.8949   -5.7314    0.0000 C   0  0  0  0  0  0  0  0  0  0  0  0
  1  2  1  0  0  0  0
  2  3  1  0  0  0  0
  3  4  1  0  0  0  0
  1  5  1  0  0  0  0
  6  7  1  0  0  0  0
  7  8  2  0  0  0  0
  8  9  1  0  0  0  0
  9 10  2  0  0  0  0
 10 11  1  0  0  0  0
  6 11  2  0  0  0  0
  3  6  1  0  0  0  0
M  END
>  <cdx:fragmentId>
5637

$$$$
