300460.cdx
  Mrv1902 05222410212D          

 17 18  0  0  0  0            999 V2000
    9.0468   -9.4616    0.0000 O   0  0  0  0  0  0  0  0  0  0  0  0
    4.7600   -9.4616    0.0000 O   0  0  0  0  0  0  0  0  0  0  0  0
    4.7600   -7.8116    0.0000 O   0  0  0  0  0  0  0  0  0  0  0  0
    6.1889   -6.9866    0.0000 O   0  0  0  0  0  0  0  0  0  0  0  0
    9.7613   -8.2241    0.0000 O   0  5  0  0  0  0  0  0  0  0  0  0
    9.0468   -6.9866    0.0000 O   0  0  0  0  0  0  0  0  0  0  0  0
    9.0468   -7.8116    0.0000 C   0  0  0  0  0  0  0  0  0  0  0  0
    6.9034   -8.2241    0.0000 C   0  0  0  0  0  0  0  0  0  0  0  0
    6.1889   -7.8116    0.0000 C   0  0  0  0  0  0  0  0  0  0  0  0
    5.4744   -8.2241    0.0000 C   0  0  0  0  0  0  0  0  0  0  0  0
    5.4744   -9.0491    0.0000 C   0  0  0  0  0  0  0  0  0  0  0  0
    6.1889   -9.4616    0.0000 C   0  0  0  0  0  0  0  0  0  0  0  0
    6.9034   -9.0491    0.0000 C   0  0  0  0  0  0  0  0  0  0  0  0
    7.6178   -9.4616    0.0000 C   0  0  0  0  0  0  0  0  0  0  0  0
    8.3323   -9.0491    0.0000 C   0  0  0  0  0  0  0  0  0  0  0  0
    8.3323   -8.2241    0.0000 C   0  0  0  0  0  0  0  0  0  0  0  0
    7.6178   -7.8116    0.0000 C   0  0  0  0  0  0  0  0  0  0  0  0
 15  1  1  0  0  0  0
 11  2  1  0  0  0  0
 10  3  1  0  0  0  0
  9  4  1  0  0  0  0
  7  5  1  0  0  0  0
  7  6  2  0  0  0  0
 16  7  1  0  0  0  0
 13  8  1  0  0  0  0
 17  8  2  0  0  0  0
  9  8  1  0  0  0  0
 10  9  2  0  0  0  0
 11 10  1  0  0  0  0
 12 11  2  0  0  0  0
 13 12  1  0  0  0  0
 14 13  2  0  0  0  0
 15 14  1  0  0  0  0
 16 15  2  0  0  0  0
 17 16  1  0  0  0  0
M  CHG  1   5  -1
M  END
>  <cdx:fragmentId>
5

$$$$
