300414.cdx
  Mrv1902 05222410182D          

 15 15  0  0  0  0            999 V2000
    6.3114   -9.4632    0.0000 C   0  0  0  0  0  0  0  0  0  0  0  0
    7.0254   -9.8764    0.0000 C   0  0  0  0  0  0  0  0  0  0  0  0
    7.0245  -10.7014    0.0000 C   0  0  0  0  0  0  0  0  0  0  0  0
    6.3096  -11.1132    0.0000 C   0  0  0  0  0  0  0  0  0  0  0  0
    5.5956  -10.6999    0.0000 C   0  0  0  0  0  0  0  0  0  0  0  0
    5.5965   -9.8749    0.0000 C   0  0  0  0  0  0  0  0  0  0  0  0
    6.3123   -8.6382    0.0000 C   0  0  0  0  0  0  0  0  0  0  0  0
    7.0272   -8.2264    0.0000 C   0  0  0  0  0  0  0  0  0  0  0  0
    7.0281   -7.4014    0.0000 C   0  0  0  0  0  0  0  0  0  0  0  0
    7.7431   -6.9897    0.0000 C   0  0  0  0  0  0  0  0  0  0  0  0
    7.7440   -6.1647    0.0000 C   0  0  0  0  0  0  0  0  0  0  0  0
    8.4589   -5.7530    0.0000 C   0  0  0  0  0  0  0  0  0  0  0  0
    6.3141   -6.9882    0.0000 O   0  0  0  0  0  0  0  0  0  0  0  0
    6.3150   -6.1632    0.0000 C   0  0  0  0  0  0  0  0  0  0  0  0
    5.6010   -5.7499    0.0000 C   0  0  0  0  0  0  0  0  0  0  0  0
  1  2  1  0  0  0  0
  2  3  2  0  0  0  0
  3  4  1  0  0  0  0
  4  5  2  0  0  0  0
  5  6  1  0  0  0  0
  1  6  2  0  0  0  0
  7  8  2  0  0  0  0
  8  9  1  0  0  0  0
  9 10  1  0  0  0  0
 10 11  1  0  0  0  0
 11 12  2  0  0  0  0
 14 15  1  0  0  0  0
 13 14  1  0  0  0  0
  9 13  1  0  0  0  0
  1  7  1  0  0  0  0
M  END
>  <cdx:fragmentId>
4088

$$$$
