30045.cdx
  Mrv1902 05222410192D          

 26 29  0  0  0  0            999 V2000
    6.6810  -10.2858    0.0000 C   0  0  0  0  0  0  0  0  0  0  0  0
    6.6712   -9.4609    0.0000 C   0  0  0  0  0  0  0  0  0  0  0  0
    5.9519   -9.0568    0.0000 C   0  0  0  0  0  0  0  0  0  0  0  0
    5.2424   -9.4778    0.0000 C   0  0  0  0  0  0  0  0  0  0  0  0
    5.2522  -10.3027    0.0000 C   0  0  0  0  0  0  0  0  0  0  0  0
    5.9715  -10.7067    0.0000 C   0  0  0  0  0  0  0  0  0  0  0  0
    4.5231   -9.0737    0.0000 O   0  0  0  0  0  0  0  0  0  0  0  0
    3.8135   -9.4947    0.0000 C   0  0  0  0  0  0  0  0  0  0  0  0
    3.8233  -10.3196    0.0000 C   0  0  0  0  0  0  0  0  0  0  0  0
    4.5426  -10.7236    0.0000 C   0  0  0  0  0  0  0  0  0  0  0  0
    7.4686  -10.5314    0.0000 C   0  0  0  0  0  0  0  0  0  0  0  0
    7.9456   -9.8583    0.0000 C   0  0  0  0  0  0  0  0  0  0  0  0
    7.4528   -9.1967    0.0000 O   0  0  0  0  0  0  0  0  0  0  0  0
    7.3710   -8.2150    0.0000 O   0  0  0  0  0  0  0  0  0  0  0  0
    6.6517   -7.8110    0.0000 C   0  0  1  0  0  0  0  0  0  0  0  0
    5.9422   -8.2319    0.0000 O   0  0  0  0  0  0  0  0  0  0  0  0
    8.0806   -7.7941    0.0000 C   0  0  1  0  0  0  0  0  0  0  0  0
    8.0708   -6.9691    0.0000 C   0  0  2  0  0  0  0  0  0  0  0  0
    7.3515   -6.5651    0.0000 C   0  0  1  0  0  0  0  0  0  0  0  0
    6.6420   -6.9860    0.0000 C   0  0  1  0  0  0  0  0  0  0  0  0
    8.7999   -8.1981    0.0000 C   0  0  0  0  0  0  0  0  0  0  0  0
    9.5094   -7.7772    0.0000 O   0  0  0  0  0  0  0  0  0  0  0  0
    3.0942   -9.0906    0.0000 O   0  0  0  0  0  0  0  0  0  0  0  0
    5.9227   -6.5820    0.0000 O   0  0  0  0  0  0  0  0  0  0  0  0
    7.3417   -5.7402    0.0000 O   0  0  0  0  0  0  0  0  0  0  0  0
    8.7803   -6.5482    0.0000 O   0  0  0  0  0  0  0  0  0  0  0  0
  1  2  2  0  0  0  0
  2  3  1  0  0  0  0
  3  4  2  0  0  0  0
  4  5  1  0  0  0  0
  5  6  2  0  0  0  0
  6  1  1  0  0  0  0
  4  7  1  0  0  0  0
  7  8  1  0  0  0  0
  8  9  1  0  0  0  0
  9 10  2  0  0  0  0
 10  5  1  0  0  0  0
  1 11  1  0  0  0  0
 11 12  2  0  0  0  0
 12 13  1  0  0  0  0
 13  2  1  0  0  0  0
 14 15  1  0  0  0  0
 15 16  1  1  0  0  0
 16  3  1  0  0  0  0
 14 17  1  0  0  0  0
 17 18  1  0  0  0  0
 18 19  1  0  0  0  0
 19 20  1  0  0  0  0
 20 15  1  0  0  0  0
 17 21  1  1  0  0  0
 21 22  1  0  0  0  0
  8 23  2  0  0  0  0
 20 24  1  6  0  0  0
 19 25  1  1  0  0  0
 18 26  1  6  0  0  0
M  END
>  <cdx:fragmentId>
5

$$$$
