300440.cdx
  Mrv1902 05222410242D          

 19 20  0  0  0  0            999 V2000
    5.4440   -7.8358    0.0000 C   0  0  0  0  0  0  0  0  0  0  0  0
    4.7295   -7.4233    0.0000 C   0  0  0  0  0  0  0  0  0  0  0  0
    4.7295   -6.5983    0.0000 C   0  0  0  0  0  0  0  0  0  0  0  0
    5.4440   -6.1858    0.0000 C   0  0  0  0  0  0  0  0  0  0  0  0
    6.1584   -6.5983    0.0000 C   0  0  2  0  0  0  0  0  0  0  0  0
    6.8729   -6.1858    0.0000 C   0  0  1  0  0  0  0  0  0  0  0  0
    7.5874   -6.5983    0.0000 C   0  0  0  0  0  0  0  0  0  0  0  0
    7.5874   -7.4233    0.0000 C   0  0  0  0  0  0  0  0  0  0  0  0
    6.8729   -7.8358    0.0000 C   0  0  2  0  0  0  0  0  0  0  0  0
    6.1584   -7.4233    0.0000 C   0  0  2  0  0  0  0  0  0  0  0  0
    4.0150   -7.8358    0.0000 O   0  0  0  0  0  0  0  0  0  0  0  0
    6.8729   -8.6608    0.0000 C   0  0  0  0  0  0  0  0  0  0  0  0
    4.0150   -6.1858    0.0000 C   0  0  0  0  0  0  0  0  0  0  0  0
    6.1584   -4.9483    0.0000 C   0  0  0  0  0  0  0  0  0  0  0  0
    6.8729   -5.3608    0.0000 C   0  0  0  0  0  0  0  0  0  0  0  0
    7.5874   -4.9483    0.0000 C   0  0  0  0  0  0  0  0  0  0  0  0
    6.8729   -4.5358    0.0000 O   0  0  0  0  0  0  0  0  0  0  0  0
    6.1584   -5.7733    0.0000 H   0  0  0  0  0  0  0  0  0  0  0  0
    6.1584   -8.2483    0.0000 H   0  0  0  0  0  0  0  0  0  0  0  0
  1  2  1  0  0  0  0
  2  3  1  0  0  0  0
  3  4  2  0  0  0  0
  4  5  1  0  0  0  0
  5  6  1  0  0  0  0
  6  7  1  0  0  0  0
  7  8  1  0  0  0  0
  8  9  1  0  0  0  0
  9 10  1  0  0  0  0
  1 10  1  0  0  0  0
  5 10  1  0  0  0  0
  2 11  2  0  0  0  0
  9 12  1  1  0  0  0
  3 13  1  0  0  0  0
 14 15  1  0  0  0  0
 15 16  1  0  0  0  0
 15 17  1  0  0  0  0
  6 15  1  6  0  0  0
  5 18  1  1  0  0  0
 10 19  1  1  0  0  0
M  END
>  <cdx:fragmentId>
5410

$$$$
