300419.cdx
  Mrv1902 05222410282D          

 12 12  0  0  0  0            999 V2000
    7.0349   -6.3408    0.0000 C   0  0  0  0  0  0  0  0  0  0  0  0
    6.3204   -6.7533    0.0000 C   0  0  0  0  0  0  0  0  0  0  0  0
    6.3204   -7.5783    0.0000 C   0  0  0  0  0  0  0  0  0  0  0  0
    5.6060   -7.9908    0.0000 C   0  0  0  0  0  0  0  0  0  0  0  0
    4.8915   -7.5783    0.0000 C   0  0  0  0  0  0  0  0  0  0  0  0
    4.8915   -6.7533    0.0000 C   0  0  0  0  0  0  0  0  0  0  0  0
    5.6060   -6.3408    0.0000 C   0  0  0  0  0  0  0  0  0  0  0  0
    7.0349   -5.5158    0.0000 O   0  0  0  0  0  0  0  0  0  0  0  0
    7.7494   -6.7533    0.0000 O   0  0  0  0  0  0  0  0  0  0  0  0
    4.1770   -6.3408    0.0000 O   0  0  0  0  0  0  0  0  0  0  0  0
    3.4625   -6.7533    0.0000 C   0  0  0  0  0  0  0  0  0  0  0  0
    5.6060   -8.8158    0.0000 O   0  0  0  0  0  0  0  0  0  0  0  0
  1  2  1  0  0  0  0
  2  3  1  0  0  0  0
  3  4  2  0  0  0  0
  4  5  1  0  0  0  0
  5  6  2  0  0  0  0
  6  7  1  0  0  0  0
  2  7  2  0  0  0  0
  1  8  2  0  0  0  0
  1  9  1  0  0  0  0
 10 11  1  0  0  0  0
  6 10  1  0  0  0  0
  4 12  1  0  0  0  0
M  END
>  <cdx:fragmentId>
4219

$$$$
