300499.cdx
  Mrv1902 05222410222D          

 12 12  0  0  0  0            999 V2000
    7.2272   -6.5568    0.0000 C   0  0  0  0  0  0  0  0  0  0  0  0
    6.4735   -6.2212    0.0000 C   0  0  0  0  0  0  0  0  0  0  0  0
    5.9215   -6.8343    0.0000 C   0  0  0  0  0  0  0  0  0  0  0  0
    6.3340   -7.5488    0.0000 C   0  0  0  0  0  0  0  0  0  0  0  0
    7.1410   -7.3773    0.0000 S   0  0  0  0  0  0  0  0  0  0  0  0
    7.9417   -6.1443    0.0000 C   0  0  0  0  0  0  0  0  0  0  0  0
    7.9417   -5.3193    0.0000 O   0  0  0  0  0  0  0  0  0  0  0  0
    8.6561   -6.5568    0.0000 O   0  0  0  0  0  0  0  0  0  0  0  0
    5.1010   -6.7481    0.0000 S   0  0  0  0  0  0  0  0  0  0  0  0
    5.0148   -7.5686    0.0000 O   0  0  0  0  0  0  0  0  0  0  0  0
    5.1873   -5.9276    0.0000 O   0  0  0  0  0  0  0  0  0  0  0  0
    4.2805   -6.6619    0.0000 N   0  0  0  0  0  0  0  0  0  0  0  0
  1  2  2  0  0  0  0
  2  3  1  0  0  0  0
  3  4  2  0  0  0  0
  4  5  1  0  0  0  0
  1  5  1  0  0  0  0
  6  7  2  0  0  0  0
  6  8  1  0  0  0  0
  1  6  1  0  0  0  0
  9 10  2  0  0  0  0
  9 11  2  0  0  0  0
  9 12  1  0  0  0  0
  3  9  1  0  0  0  0
M  END
>  <cdx:fragmentId>
8370

$$$$
