300493.cdx
  Mrv1902 05222410242D          

  6  6  0  0  0  0            999 V2000
    5.6155   -7.1811    0.0000 S   0  0  0  0  0  0  0  0  0  0  0  0
    5.3606   -6.3965    0.0000 C   0  0  0  0  0  0  0  0  0  0  0  0
    6.0280   -5.9116    0.0000 N   0  0  0  0  0  0  0  0  0  0  0  0
    6.6955   -6.3965    0.0000 C   0  0  0  0  0  0  0  0  0  0  0  0
    6.4405   -7.1811    0.0000 C   0  0  0  0  0  0  0  0  0  0  0  0
    7.4801   -6.1416    0.0000 C   0  0  0  0  0  0  0  0  0  0  0  0
  1  2  1  0  0  0  0
  2  3  2  0  0  0  0
  3  4  1  0  0  0  0
  4  5  2  0  0  0  0
  1  5  1  0  0  0  0
  4  6  1  0  0  0  0
M  END
>  <cdx:fragmentId>
8120

$$$$
