300484.cdx
  Mrv1902 05222410252D          

 12 12  0  0  0  0            999 V2000
    7.1288   -6.7533    0.0000 C   0  0  0  0  0  0  0  0  0  0  0  0
    7.1288   -7.5783    0.0000 C   0  0  0  0  0  0  0  0  0  0  0  0
    6.4144   -7.9908    0.0000 C   0  0  0  0  0  0  0  0  0  0  0  0
    5.6999   -7.5783    0.0000 C   0  0  0  0  0  0  0  0  0  0  0  0
    5.6999   -6.7533    0.0000 C   0  0  0  0  0  0  0  0  0  0  0  0
    6.4144   -6.3408    0.0000 C   0  0  0  0  0  0  0  0  0  0  0  0
    7.8433   -7.9908    0.0000 O   0  0  0  0  0  0  0  0  0  0  0  0
    7.8433   -6.3408    0.0000 O   0  0  0  0  0  0  0  0  0  0  0  0
    4.9854   -7.9908    0.0000 C   0  0  0  0  0  0  0  0  0  0  0  0
    4.2710   -7.5783    0.0000 C   0  0  0  0  0  0  0  0  0  0  0  0
    7.8433   -5.5158    0.0000 C   0  0  0  0  0  0  0  0  0  0  0  0
    7.8433   -8.8158    0.0000 C   0  0  0  0  0  0  0  0  0  0  0  0
  1  2  1  0  0  0  0
  2  3  2  0  0  0  0
  3  4  1  0  0  0  0
  4  5  2  0  0  0  0
  5  6  1  0  0  0  0
  1  6  2  0  0  0  0
  2  7  1  0  0  0  0
  1  8  1  0  0  0  0
  9 10  1  0  0  0  0
  4  9  1  0  0  0  0
  8 11  1  0  0  0  0
  7 12  1  0  0  0  0
M  END
>  <cdx:fragmentId>
7803

$$$$
