300448.cdx
  Mrv1902 05222410212D          

 29 31  0  0  0  0            999 V2000
    6.1116   -6.1798    0.0000 C   0  0  0  0  0  0  0  0  0  0  0  0
    6.1116   -7.0048    0.0000 C   0  0  0  0  0  0  0  0  0  0  0  0
    5.3971   -7.4173    0.0000 C   0  0  0  0  0  0  0  0  0  0  0  0
    4.6827   -7.0048    0.0000 C   0  0  0  0  0  0  0  0  0  0  0  0
    3.9682   -7.4173    0.0000 C   0  0  0  0  0  0  0  0  0  0  0  0
    3.2537   -7.0048    0.0000 C   0  0  0  0  0  0  0  0  0  0  0  0
    3.2537   -6.1798    0.0000 C   0  0  0  0  0  0  0  0  0  0  0  0
    3.9682   -5.7673    0.0000 C   0  0  0  0  0  0  0  0  0  0  0  0
    4.6827   -6.1798    0.0000 C   0  0  0  0  0  0  0  0  0  0  0  0
    5.3971   -5.7673    0.0000 O   0  0  0  0  0  0  0  0  0  0  0  0
    5.3971   -8.2423    0.0000 O   0  0  0  0  0  0  0  0  0  0  0  0
    3.9682   -4.9423    0.0000 O   0  0  0  0  0  0  0  0  0  0  0  0
    3.2537   -4.5298    0.0000 C   0  0  0  0  0  0  0  0  0  0  0  0
    2.5393   -5.7673    0.0000 O   0  0  0  0  0  0  0  0  0  0  0  0
    1.8248   -6.1798    0.0000 C   0  0  0  0  0  0  0  0  0  0  0  0
    3.9682   -8.2423    0.0000 O   0  0  0  0  0  0  0  0  0  0  0  0
    3.2537   -8.6548    0.0000 C   0  0  0  0  0  0  0  0  0  0  0  0
    6.8261   -7.4173    0.0000 O   0  0  0  0  0  0  0  0  0  0  0  0
    7.5406   -7.0048    0.0000 C   0  0  0  0  0  0  0  0  0  0  0  0
    6.8261   -5.7673    0.0000 C   0  0  0  0  0  0  0  0  0  0  0  0
    7.5406   -6.1798    0.0000 C   0  0  0  0  0  0  0  0  0  0  0  0
    8.2550   -5.7673    0.0000 C   0  0  0  0  0  0  0  0  0  0  0  0
    8.2550   -4.9423    0.0000 C   0  0  0  0  0  0  0  0  0  0  0  0
    7.5406   -4.5298    0.0000 C   0  0  0  0  0  0  0  0  0  0  0  0
    6.8261   -4.9423    0.0000 C   0  0  0  0  0  0  0  0  0  0  0  0
    8.9695   -4.5298    0.0000 O   0  0  0  0  0  0  0  0  0  0  0  0
    9.6840   -4.9423    0.0000 C   0  0  0  0  0  0  0  0  0  0  0  0
    8.9695   -6.1798    0.0000 O   0  0  0  0  0  0  0  0  0  0  0  0
    9.6840   -5.7673    0.0000 C   0  0  0  0  0  0  0  0  0  0  0  0
  1  2  2  0  0  0  0
  2  3  1  0  0  0  0
  3  4  1  0  0  0  0
  4  5  1  0  0  0  0
  5  6  2  0  0  0  0
  6  7  1  0  0  0  0
  7  8  2  0  0  0  0
  8  9  1  0  0  0  0
  4  9  2  0  0  0  0
  9 10  1  0  0  0  0
  1 10  1  0  0  0  0
  3 11  2  0  0  0  0
 12 13  1  0  0  0  0
  8 12  1  0  0  0  0
 14 15  1  0  0  0  0
  7 14  1  0  0  0  0
 16 17  1  0  0  0  0
  5 16  1  0  0  0  0
 18 19  1  0  0  0  0
  2 18  1  0  0  0  0
 20 21  1  0  0  0  0
 21 22  2  0  0  0  0
 22 23  1  0  0  0  0
 23 24  2  0  0  0  0
 24 25  1  0  0  0  0
 20 25  2  0  0  0  0
 26 27  1  0  0  0  0
 23 26  1  0  0  0  0
 28 29  1  0  0  0  0
 22 28  1  0  0  0  0
  1 20  1  0  0  0  0
M  END
>  <cdx:fragmentId>
5885

$$$$
