300443.cdx
  Mrv1902 05222410242D          

  8  7  0  0  0  0            999 V2000
    6.6777   -6.7035    0.0000 C   0  0  0  0  0  0  0  0  0  0  0  0
    5.9632   -6.2910    0.0000 C   0  0  0  0  0  0  0  0  0  0  0  0
    5.2487   -6.7035    0.0000 C   0  0  0  0  0  0  0  0  0  0  0  0
    4.5343   -6.2910    0.0000 C   0  0  0  0  0  0  0  0  0  0  0  0
    3.8198   -6.7035    0.0000 C   0  0  0  0  0  0  0  0  0  0  0  0
    7.3921   -6.2910    0.0000 O   0  0  0  0  0  0  0  0  0  0  0  0
    5.2487   -7.5285    0.0000 S   0  0  0  0  0  0  0  0  0  0  0  0
    4.5343   -5.4660    0.0000 C   0  0  0  0  0  0  0  0  0  0  0  0
  1  2  1  0  0  0  0
  2  3  1  0  0  0  0
  3  4  1  0  0  0  0
  4  5  1  0  0  0  0
  1  6  1  0  0  0  0
  3  7  1  0  0  0  0
  4  8  1  0  0  0  0
M  END
>  <cdx:fragmentId>
5661

$$$$
