300486.cdx
  Mrv1902 05222410252D          

 13 14  0  0  0  0            999 V2000
    7.1288   -5.7773    0.0000 C   0  0  0  0  0  0  0  0  0  0  0  0
    7.8433   -6.1898    0.0000 C   0  0  0  0  0  0  0  0  0  0  0  0
    7.8433   -7.0148    0.0000 C   0  0  0  0  0  0  0  0  0  0  0  0
    7.1288   -7.4273    0.0000 C   0  0  0  0  0  0  0  0  0  0  0  0
    6.4144   -7.0148    0.0000 C   0  0  0  0  0  0  0  0  0  0  0  0
    5.6999   -7.4273    0.0000 C   0  0  0  0  0  0  0  0  0  0  0  0
    4.9854   -7.0148    0.0000 C   0  0  0  0  0  0  0  0  0  0  0  0
    4.9854   -6.1898    0.0000 C   0  0  0  0  0  0  0  0  0  0  0  0
    5.6999   -5.7773    0.0000 C   0  0  0  0  0  0  0  0  0  0  0  0
    6.4144   -6.1898    0.0000 C   0  0  0  0  0  0  0  0  0  0  0  0
    7.1288   -4.9523    0.0000 O   0  0  0  0  0  0  0  0  0  0  0  0
    6.7163   -8.1418    0.0000 C   0  0  0  0  0  0  0  0  0  0  0  0
    7.5413   -8.1418    0.0000 O   0  0  0  0  0  0  0  0  0  0  0  0
  1  2  1  0  0  0  0
  2  3  2  0  0  0  0
  3  4  1  0  0  0  0
  4  5  1  0  0  0  0
  5  6  1  0  0  0  0
  6  7  2  0  0  0  0
  7  8  1  0  0  0  0
  8  9  2  0  0  0  0
  9 10  1  0  0  0  0
  1 10  1  0  0  0  0
  5 10  2  0  0  0  0
  1 11  2  0  0  0  0
  4 12  1  0  0  0  0
  4 13  1  0  0  0  0
M  END
>  <cdx:fragmentId>
7868

$$$$
