30040.cdx
  Mrv1902 05222410182D          

 27 29  0  0  0  0            999 V2000
    6.0238   -8.8363    0.0000 O   0  0  0  0  0  0  0  0  0  0  0  0
    6.0296   -8.0114    0.0000 C   0  0  0  0  0  0  0  0  0  0  0  0
    6.7469   -7.6039    0.0000 C   0  0  0  0  0  0  0  0  0  0  0  0
    5.3180   -7.5939    0.0000 C   0  0  0  0  0  0  0  0  0  0  0  0
    5.3238   -6.7689    0.0000 C   0  0  0  0  0  0  0  0  0  0  0  0
    6.0412   -6.3614    0.0000 C   0  0  0  0  0  0  0  0  0  0  0  0
    6.7528   -6.7789    0.0000 C   0  0  0  0  0  0  0  0  0  0  0  0
    4.6123   -6.3514    0.0000 O   0  0  0  0  0  0  0  0  0  0  0  0
    5.3064   -9.2438    0.0000 C   0  0  0  0  0  0  0  0  0  0  0  0
    7.4527   -8.8464    0.0000 O   0  0  0  0  0  0  0  0  0  0  0  0
   11.7568   -6.4016    0.0000 O   0  0  0  0  0  0  0  0  0  0  0  0
    7.3697   -6.2312    0.0000 O   0  0  0  0  0  0  0  0  0  0  0  0
    7.0395   -5.4752    0.0000 C   0  0  0  0  0  0  0  0  0  0  0  0
    6.2195   -5.5537    0.0000 C   0  0  0  0  0  0  0  0  0  0  0  0
    7.4582   -4.7644    0.0000 C   0  0  0  0  0  0  0  0  0  0  0  0
    7.8769   -4.0535    0.0000 O   0  0  0  0  0  0  0  0  0  0  0  0
    6.7473   -4.3456    0.0000 C   0  0  0  0  0  0  0  0  0  0  0  0
    7.4585   -8.0214    0.0000 C   0  0  0  0  0  0  0  0  0  0  0  0
    8.1690   -5.1831    0.0000 C   0  0  0  0  0  0  0  0  0  0  0  0
    8.8874   -8.0315    0.0000 C   0  0  0  0  0  0  0  0  0  0  0  0
    8.1759   -7.6140    0.0000 C   0  0  0  0  0  0  0  0  0  0  0  0
   10.3163   -8.0415    0.0000 C   0  0  0  0  0  0  0  0  0  0  0  0
    9.6048   -7.6240    0.0000 C   0  0  0  0  0  0  0  0  0  0  0  0
    9.6106   -6.7990    0.0000 C   0  0  0  0  0  0  0  0  0  0  0  0
   10.3279   -6.3916    0.0000 C   0  0  0  0  0  0  0  0  0  0  0  0
   11.0395   -6.8091    0.0000 C   0  0  0  0  0  0  0  0  0  0  0  0
   11.0337   -7.6341    0.0000 C   0  0  0  0  0  0  0  0  0  0  0  0
  1  2  1  0  0  0  0
  2  3  2  0  0  0  0
  2  4  1  0  0  0  0
  4  5  2  0  0  0  0
  5  6  1  0  0  0  0
  6  7  2  0  0  0  0
  7  3  1  0  0  0  0
  5  8  1  0  0  0  0
 18 10  2  0  0  0  0
 26 11  1  0  0  0  0
  1  9  1  0  0  0  0
  7 12  1  0  0  0  0
 12 13  1  0  0  0  0
 13 14  1  0  0  0  0
 14  6  1  0  0  0  0
 13 15  1  0  0  0  0
 18 21  1  0  0  0  0
  3 18  1  0  0  0  0
 15 16  1  0  0  0  0
 15 17  1  0  0  0  0
 15 19  1  0  0  0  0
 20 23  1  0  0  0  0
 21 20  2  0  0  0  0
 22 27  2  0  0  0  0
 23 22  1  0  0  0  0
 24 23  2  0  0  0  0
 25 24  1  0  0  0  0
 26 25  2  0  0  0  0
 27 26  1  0  0  0  0
M  END
>  <cdx:fragmentId>
5

$$$$
