300421.cdx
  Mrv1902 05222410262D          

 23 26  0  0  0  0            999 V2000
    8.1910   -7.3175    0.0000 O   0  0  0  0  0  0  0  0  0  0  0  0
    8.6759   -6.6501    0.0000 C   0  0  0  0  0  0  0  0  0  0  0  0
    8.1910   -5.9827    0.0000 C   0  0  0  0  0  0  0  0  0  0  0  0
    7.4064   -6.2376    0.0000 C   0  0  0  0  0  0  0  0  0  0  0  0
    7.4064   -7.0626    0.0000 C   0  0  0  0  0  0  0  0  0  0  0  0
    6.6919   -7.4751    0.0000 C   0  0  0  0  0  0  0  0  0  0  0  0
    5.9774   -7.0626    0.0000 C   0  0  0  0  0  0  0  0  0  0  0  0
    5.9774   -6.2376    0.0000 C   0  0  0  0  0  0  0  0  0  0  0  0
    6.6919   -5.8251    0.0000 C   0  0  0  0  0  0  0  0  0  0  0  0
    6.6919   -8.3001    0.0000 C   0  0  0  0  0  0  0  0  0  0  0  0
    5.9774   -8.7126    0.0000 C   0  0  0  0  0  0  0  0  0  0  0  0
    5.2630   -8.3001    0.0000 C   0  0  0  0  0  0  0  0  0  0  0  0
    4.5485   -8.7126    0.0000 C   0  0  0  0  0  0  0  0  0  0  0  0
    3.8340   -8.3001    0.0000 C   0  0  0  0  0  0  0  0  0  0  0  0
    3.8340   -7.4751    0.0000 C   0  0  0  0  0  0  0  0  0  0  0  0
    4.5485   -7.0626    0.0000 C   0  0  0  0  0  0  0  0  0  0  0  0
    5.2630   -7.4751    0.0000 C   0  0  0  0  0  0  0  0  0  0  0  0
    5.2630   -5.8251    0.0000 O   0  0  0  0  0  0  0  0  0  0  0  0
    6.6919   -5.0001    0.0000 O   0  0  0  0  0  0  0  0  0  0  0  0
    4.9610   -9.4271    0.0000 C   0  0  0  0  0  0  0  0  0  0  0  0
    4.1360   -9.4271    0.0000 C   0  0  0  0  0  0  0  0  0  0  0  0
    8.4459   -5.1980    0.0000 C   0  0  0  0  0  0  0  0  0  0  0  0
    3.1195   -8.7126    0.0000 O   0  0  0  0  0  0  0  0  0  0  0  0
  1  2  1  0  0  0  0
  2  3  1  0  0  0  0
  3  4  1  0  0  0  0
  4  5  2  0  0  0  0
  1  5  1  0  0  0  0
  6  7  1  0  0  0  0
  7  8  1  0  0  0  0
  8  9  1  0  0  0  0
  4  9  1  0  0  0  0
  5  6  1  0  0  0  0
 10 11  1  0  0  0  0
 11 12  2  0  0  0  0
 12 13  1  0  0  0  0
 13 14  1  0  0  0  0
 14 15  1  0  0  0  0
 15 16  1  0  0  0  0
 16 17  1  0  0  0  0
 12 17  1  0  0  0  0
  7 17  2  0  0  0  0
  6 10  2  0  0  0  0
  8 18  2  0  0  0  0
  9 19  2  0  0  0  0
 13 20  1  0  0  0  0
 13 21  1  0  0  0  0
  3 22  1  0  0  0  0
 14 23  1  0  0  0  0
M  END
>  <cdx:fragmentId>
4302

$$$$
