300481.cdx
  Mrv1902 05222410232D          

 14 15  0  0  0  0            999 V2000
    7.9938   -6.7932    0.0000 N   0  0  0  0  0  0  0  0  0  0  0  0
    7.5813   -7.5077    0.0000 N   0  0  0  0  0  0  0  0  0  0  0  0
    6.7743   -7.3362    0.0000 C   0  0  0  0  0  0  0  0  0  0  0  0
    6.6881   -6.5157    0.0000 N   0  0  0  0  0  0  0  0  0  0  0  0
    7.4418   -6.1801    0.0000 C   0  0  0  0  0  0  0  0  0  0  0  0
    7.6133   -5.3732    0.0000 S   0  0  0  0  0  0  0  0  0  0  0  0
    5.9736   -6.1032    0.0000 C   0  0  0  0  0  0  0  0  0  0  0  0
    5.2591   -6.5157    0.0000 C   0  0  0  0  0  0  0  0  0  0  0  0
    4.5447   -6.1032    0.0000 C   0  0  0  0  0  0  0  0  0  0  0  0
    5.3542   -7.7167    0.0000 O   0  0  0  0  0  0  0  0  0  0  0  0
    6.1612   -7.8882    0.0000 C   0  0  0  0  0  0  0  0  0  0  0  0
    6.2475   -8.7087    0.0000 C   0  0  0  0  0  0  0  0  0  0  0  0
    5.4938   -9.0443    0.0000 C   0  0  0  0  0  0  0  0  0  0  0  0
    4.9417   -8.4312    0.0000 C   0  0  0  0  0  0  0  0  0  0  0  0
  1  2  1  0  0  0  0
  2  3  2  0  0  0  0
  3  4  1  0  0  0  0
  4  5  1  0  0  0  0
  1  5  1  0  0  0  0
  5  6  2  0  0  0  0
  7  8  1  0  0  0  0
  8  9  2  0  0  0  0
  4  7  1  0  0  0  0
 10 11  1  0  0  0  0
 11 12  2  0  0  0  0
 12 13  1  0  0  0  0
 13 14  2  0  0  0  0
 10 14  1  0  0  0  0
  3 11  1  0  0  0  0
M  END
>  <cdx:fragmentId>
7677

$$$$
