300449.cdx
  Mrv1902 05222410222D          

 11 12  0  0  0  0            999 V2000
    6.5678   -6.7533    0.0000 C   0  0  0  0  0  0  0  0  0  0  0  0
    5.8534   -7.1658    0.0000 C   0  0  0  0  0  0  0  0  0  0  0  0
    5.1389   -6.7533    0.0000 O   0  0  0  0  0  0  0  0  0  0  0  0
    5.1389   -5.9283    0.0000 C   0  0  0  0  0  0  0  0  0  0  0  0
    5.8534   -5.5158    0.0000 C   0  0  0  0  0  0  0  0  0  0  0  0
    6.5678   -5.9283    0.0000 C   0  0  0  0  0  0  0  0  0  0  0  0
    7.2823   -6.3408    0.0000 O   0  0  0  0  0  0  0  0  0  0  0  0
    4.4244   -5.5158    0.0000 O   0  0  0  0  0  0  0  0  0  0  0  0
    5.8534   -4.6908    0.0000 O   0  0  0  0  0  0  0  0  0  0  0  0
    5.8534   -7.9908    0.0000 C   0  0  0  0  0  0  0  0  0  0  0  0
    6.5678   -8.4033    0.0000 O   0  0  0  0  0  0  0  0  0  0  0  0
  1  2  1  0  0  0  0
  2  3  1  0  0  0  0
  3  4  1  0  0  0  0
  4  5  1  0  0  0  0
  5  6  1  0  0  0  0
  6  7  1  0  0  0  0
  1  7  1  0  0  0  0
  1  6  1  0  0  0  0
  4  8  1  0  0  0  0
  5  9  1  0  0  0  0
 10 11  1  0  0  0  0
  2 10  1  0  0  0  0
M  END
>  <cdx:fragmentId>
5981

$$$$
