300464.cdx
  Mrv1902 05222410222D          

 12 11  0  0  0  0            999 V2000
    3.1993   -6.7547    0.0000 C   0  0  0  0  0  0  0  0  0  0  0  0
    3.9137   -6.3422    0.0000 C   0  0  0  0  0  0  0  0  0  0  0  0
    4.6282   -6.7547    0.0000 C   0  0  0  0  0  0  0  0  0  0  0  0
    5.3427   -6.3422    0.0000 C   0  0  0  0  0  0  0  0  0  0  0  0
    6.0571   -6.7547    0.0000 C   0  0  0  0  0  0  0  0  0  0  0  0
    6.7716   -6.3422    0.0000 C   0  0  0  0  0  0  0  0  0  0  0  0
    7.4861   -6.7547    0.0000 C   0  0  0  0  0  0  0  0  0  0  0  0
    8.2006   -6.3422    0.0000 C   0  0  0  0  0  0  0  0  0  0  0  0
    8.9150   -6.7547    0.0000 C   0  0  0  0  0  0  0  0  0  0  0  0
    9.6295   -6.3422    0.0000 C   0  0  0  0  0  0  0  0  0  0  0  0
    8.2006   -5.5172    0.0000 C   0  0  0  0  0  0  0  0  0  0  0  0
    4.6282   -7.5797    0.0000 C   0  0  0  0  0  0  0  0  0  0  0  0
  1  2  1  0  0  0  0
  2  3  1  0  0  0  0
  3  4  1  0  0  0  0
  4  5  1  0  0  0  0
  5  6  1  0  0  0  0
  6  7  1  0  0  0  0
  7  8  1  0  0  0  0
  8  9  1  0  0  0  0
  9 10  1  0  0  0  0
  8 11  1  0  0  0  0
  3 12  1  0  0  0  0
M  END
>  <cdx:fragmentId>
6757

$$$$
