300490.cdx
  Mrv1902 05222410252D          

 10 10  0  0  0  0            999 V2000
    7.4490   -7.4153    0.0000 C   0  0  0  0  0  0  0  0  0  0  0  0
    6.7346   -7.0028    0.0000 C   0  0  0  0  0  0  0  0  0  0  0  0
    6.7346   -6.1778    0.0000 C   0  0  0  0  0  0  0  0  0  0  0  0
    6.0201   -5.7653    0.0000 C   0  0  0  0  0  0  0  0  0  0  0  0
    5.3056   -6.1778    0.0000 C   0  0  0  0  0  0  0  0  0  0  0  0
    5.3056   -7.0028    0.0000 C   0  0  0  0  0  0  0  0  0  0  0  0
    6.0201   -7.4153    0.0000 C   0  0  0  0  0  0  0  0  0  0  0  0
    8.1635   -7.0028    0.0000 O   0  0  0  0  0  0  0  0  0  0  0  0
    4.5912   -5.7653    0.0000 C   0  0  0  0  0  0  0  0  0  0  0  0
    7.4490   -5.7653    0.0000 O   0  0  0  0  0  0  0  0  0  0  0  0
  1  2  1  0  0  0  0
  2  3  1  0  0  0  0
  3  4  2  0  0  0  0
  4  5  1  0  0  0  0
  5  6  2  0  0  0  0
  6  7  1  0  0  0  0
  2  7  2  0  0  0  0
  1  8  2  0  0  0  0
  5  9  1  0  0  0  0
  3 10  1  0  0  0  0
M  END
>  <cdx:fragmentId>
8035

$$$$
