300458.cdx
  Mrv1902 05222410222D          

 23 25  0  0  0  0            999 V2000
    6.3204   -6.3408    0.0000 C   0  0  0  0  0  0  0  0  0  0  0  0
    6.3204   -7.1658    0.0000 C   0  0  0  0  0  0  0  0  0  0  0  0
    5.6060   -7.5783    0.0000 C   0  0  0  0  0  0  0  0  0  0  0  0
    4.8915   -7.1658    0.0000 C   0  0  0  0  0  0  0  0  0  0  0  0
    4.1770   -7.5783    0.0000 C   0  0  0  0  0  0  0  0  0  0  0  0
    3.4625   -7.1658    0.0000 C   0  0  0  0  0  0  0  0  0  0  0  0
    3.4625   -6.3408    0.0000 C   0  0  0  0  0  0  0  0  0  0  0  0
    4.1770   -5.9283    0.0000 C   0  0  0  0  0  0  0  0  0  0  0  0
    4.8915   -6.3408    0.0000 C   0  0  0  0  0  0  0  0  0  0  0  0
    5.6060   -5.9283    0.0000 O   0  0  0  0  0  0  0  0  0  0  0  0
    5.6060   -8.4033    0.0000 O   0  0  0  0  0  0  0  0  0  0  0  0
    2.7481   -7.5783    0.0000 O   0  0  0  0  0  0  0  0  0  0  0  0
    2.0336   -7.1658    0.0000 C   0  0  0  0  0  0  0  0  0  0  0  0
    7.0349   -5.9283    0.0000 C   0  0  0  0  0  0  0  0  0  0  0  0
    7.0349   -5.1033    0.0000 C   0  0  0  0  0  0  0  0  0  0  0  0
    7.7494   -4.6908    0.0000 C   0  0  0  0  0  0  0  0  0  0  0  0
    8.4638   -5.1033    0.0000 C   0  0  0  0  0  0  0  0  0  0  0  0
    8.4638   -5.9283    0.0000 C   0  0  0  0  0  0  0  0  0  0  0  0
    7.7494   -6.3408    0.0000 C   0  0  0  0  0  0  0  0  0  0  0  0
    9.1783   -4.6908    0.0000 O   0  0  0  0  0  0  0  0  0  0  0  0
    2.7481   -5.9283    0.0000 O   0  0  0  0  0  0  0  0  0  0  0  0
    4.1770   -8.4033    0.0000 O   0  0  0  0  0  0  0  0  0  0  0  0
    7.0349   -7.5783    0.0000 O   0  0  0  0  0  0  0  0  0  0  0  0
  1  2  1  0  0  0  0
  2  3  1  0  0  0  0
  3  4  1  0  0  0  0
  4  5  1  0  0  0  0
  5  6  2  0  0  0  0
  6  7  1  0  0  0  0
  7  8  2  0  0  0  0
  8  9  1  0  0  0  0
  4  9  2  0  0  0  0
  9 10  1  0  0  0  0
  1 10  1  0  0  0  0
  3 11  2  0  0  0  0
 12 13  1  0  0  0  0
  6 12  1  0  0  0  0
 14 15  1  0  0  0  0
 15 16  2  0  0  0  0
 16 17  1  0  0  0  0
 17 18  2  0  0  0  0
 18 19  1  0  0  0  0
 14 19  2  0  0  0  0
 17 20  1  0  0  0  0
  1 14  1  0  0  0  0
  7 21  1  0  0  0  0
  5 22  1  0  0  0  0
  2 23  1  0  0  0  0
M  END
>  <cdx:fragmentId>
6392

$$$$
