300494.cdx
  Mrv1902 05222410242D          

 18 18  0  0  0  0            999 V2000
    3.5565   -5.3608    0.0000 C   0  0  0  0  0  0  0  0  0  0  0  0
    4.2710   -5.7733    0.0000 C   0  0  0  0  0  0  0  0  0  0  0  0
    4.2710   -6.5983    0.0000 C   0  0  0  0  0  0  0  0  0  0  0  0
    2.8420   -5.7733    0.0000 O   0  0  0  0  0  0  0  0  0  0  0  0
    3.5565   -7.0108    0.0000 O   0  0  0  0  0  0  0  0  0  0  0  0
    4.9854   -5.3608    0.0000 O   0  0  0  0  0  0  0  0  0  0  0  0
    5.6999   -5.7733    0.0000 C   0  0  0  0  0  0  0  0  0  0  0  0
    5.6999   -6.5983    0.0000 C   0  0  0  0  0  0  0  0  0  0  0  0
    6.4144   -7.0108    0.0000 C   0  0  0  0  0  0  0  0  0  0  0  0
    7.1288   -6.5983    0.0000 C   0  0  0  0  0  0  0  0  0  0  0  0
    7.1288   -5.7733    0.0000 C   0  0  0  0  0  0  0  0  0  0  0  0
    6.4144   -5.3608    0.0000 C   0  0  0  0  0  0  0  0  0  0  0  0
    4.9854   -7.0108    0.0000 O   0  0  0  0  0  0  0  0  0  0  0  0
    4.9854   -7.8358    0.0000 C   0  0  0  0  0  0  0  0  0  0  0  0
    7.8433   -7.0108    0.0000 C   0  0  0  0  0  0  0  0  0  0  0  0
    8.5578   -6.5983    0.0000 C   0  0  0  0  0  0  0  0  0  0  0  0
    9.2723   -7.0108    0.0000 C   0  0  0  0  0  0  0  0  0  0  0  0
    9.9867   -6.5983    0.0000 O   0  0  0  0  0  0  0  0  0  0  0  0
  1  2  1  0  0  0  0
  2  3  1  0  0  0  0
  1  4  1  0  0  0  0
  3  5  1  0  0  0  0
  7  8  2  0  0  0  0
  8  9  1  0  0  0  0
  9 10  1  0  0  0  0
 10 11  1  0  0  0  0
 11 12  2  0  0  0  0
  7 12  1  0  0  0  0
 13 14  1  0  0  0  0
  8 13  1  0  0  0  0
 15 16  2  0  0  0  0
 16 17  1  0  0  0  0
 17 18  1  0  0  0  0
 10 15  1  0  0  0  0
  6  7  1  0  0  0  0
  2  6  1  0  0  0  0
M  END
>  <cdx:fragmentId>
8151

$$$$
