30041.cdx
  Mrv1902 05222410192D          

 27 29  0  0  0  0            999 V2000
    5.4415   -9.0034    0.0000 O   0  0  0  0  0  0  0  0  0  0  0  0
    5.4451   -8.1784    0.0000 C   0  0  0  0  0  0  0  0  0  0  0  0
    6.1614   -7.7691    0.0000 C   0  0  0  0  0  0  0  0  0  0  0  0
    4.7324   -7.7628    0.0000 C   0  0  0  0  0  0  0  0  0  0  0  0
    4.7360   -6.9378    0.0000 C   0  0  0  0  0  0  0  0  0  0  0  0
    5.4523   -6.5285    0.0000 C   0  0  0  0  0  0  0  0  0  0  0  0
    6.1650   -6.9441    0.0000 C   0  0  0  0  0  0  0  0  0  0  0  0
    4.0234   -6.5222    0.0000 O   0  0  0  0  0  0  0  0  0  0  0  0
    4.7252   -9.4128    0.0000 C   0  0  0  0  0  0  0  0  0  0  0  0
    6.8704   -9.0097    0.0000 O   0  0  0  0  0  0  0  0  0  0  0  0
   11.1680   -6.5535    0.0000 O   0  0  0  0  0  0  0  0  0  0  0  0
    6.8812   -6.5347    0.0000 O   0  0  0  0  0  0  0  0  0  0  0  0
    6.8869   -5.7109    0.0000 C   0  0  0  0  0  0  0  0  0  0  0  0
    6.1750   -5.2941    0.0000 C   0  0  0  0  0  0  0  0  0  0  0  0
    5.4594   -5.7023    0.0000 C   0  0  0  0  0  0  0  0  0  0  0  0
    6.1796   -4.4691    0.0000 O   0  0  0  0  0  0  0  0  0  0  0  0
    7.3038   -4.9990    0.0000 C   0  0  0  0  0  0  0  0  0  0  0  0
    6.8740   -8.1847    0.0000 C   0  0  0  0  0  0  0  0  0  0  0  0
    7.6825   -5.9293    0.0000 C   0  0  0  0  0  0  0  0  0  0  0  0
    8.3030   -8.1909    0.0000 C   0  0  0  0  0  0  0  0  0  0  0  0
    7.5903   -7.7753    0.0000 C   0  0  0  0  0  0  0  0  0  0  0  0
    9.7319   -8.1972    0.0000 C   0  0  0  0  0  0  0  0  0  0  0  0
    9.0192   -7.7816    0.0000 C   0  0  0  0  0  0  0  0  0  0  0  0
    9.0228   -6.9566    0.0000 C   0  0  0  0  0  0  0  0  0  0  0  0
    9.7391   -6.5472    0.0000 C   0  0  0  0  0  0  0  0  0  0  0  0
   10.4518   -6.9628    0.0000 C   0  0  0  0  0  0  0  0  0  0  0  0
   10.4482   -7.7878    0.0000 C   0  0  0  0  0  0  0  0  0  0  0  0
  1  2  1  0  0  0  0
  2  3  2  0  0  0  0
  2  4  1  0  0  0  0
  4  5  2  0  0  0  0
  5  6  1  0  0  0  0
  6  7  2  0  0  0  0
  7  3  1  0  0  0  0
  5  8  1  0  0  0  0
 18 10  2  0  0  0  0
 26 11  1  0  0  0  0
  1  9  1  0  0  0  0
  7 12  1  0  0  0  0
 12 13  1  0  0  0  0
 13 14  1  0  0  0  0
 14 15  1  0  0  0  0
 15  6  1  0  0  0  0
 18 21  1  0  0  0  0
  3 18  1  0  0  0  0
 14 16  1  0  0  0  0
 13 17  1  0  0  0  0
 13 19  1  0  0  0  0
 20 23  1  0  0  0  0
 21 20  2  0  0  0  0
 22 27  2  0  0  0  0
 23 22  1  0  0  0  0
 24 23  2  0  0  0  0
 25 24  1  0  0  0  0
 26 25  2  0  0  0  0
 27 26  1  0  0  0  0
M  END
>  <cdx:fragmentId>
5

$$$$
