300474.cdx
  Mrv1902 05222410212D          

 20 22  0  0  0  0            999 V2000
    9.1596   -4.0585    0.0000 O   0  0  0  0  0  0  0  0  0  0  0  0
    9.4951   -4.8122    0.0000 C   0  0  0  0  0  0  0  0  0  0  0  0
    8.8820   -5.3642    0.0000 C   0  0  0  0  0  0  0  0  0  0  0  0
    8.1675   -4.9517    0.0000 C   0  0  2  0  0  0  0  0  0  0  0  0
    8.3391   -4.1447    0.0000 C   0  0  0  0  0  0  0  0  0  0  0  0
    7.4531   -5.3642    0.0000 C   0  0  2  0  0  0  0  0  0  0  0  0
    7.4531   -6.1892    0.0000 C   0  0  1  0  0  0  0  0  0  0  0  0
    8.1675   -6.6017    0.0000 C   0  0  0  0  0  0  0  0  0  0  0  0
    8.8820   -6.1892    0.0000 C   0  0  0  0  0  0  0  0  0  0  0  0
    6.7386   -6.6017    0.0000 C   0  0  0  0  0  0  0  0  0  0  0  0
    6.0241   -6.1892    0.0000 C   0  0  2  0  0  0  0  0  0  0  0  0
    6.0241   -5.3642    0.0000 C   0  0  0  0  0  0  0  0  0  0  0  0
    6.7386   -4.9517    0.0000 C   0  0  0  0  0  0  0  0  0  0  0  0
   10.3021   -4.9837    0.0000 O   0  0  0  0  0  0  0  0  0  0  0  0
    7.4531   -4.5392    0.0000 C   0  0  0  0  0  0  0  0  0  0  0  0
    7.1511   -7.3162    0.0000 C   0  0  0  0  0  0  0  0  0  0  0  0
    6.3261   -7.3162    0.0000 C   0  0  0  0  0  0  0  0  0  0  0  0
    5.3097   -6.6017    0.0000 O   0  0  0  0  0  0  0  0  0  0  0  0
    7.4531   -7.0142    0.0000 H   0  0  0  0  0  0  0  0  0  0  0  0
    8.1675   -5.7767    0.0000 H   0  0  0  0  0  0  0  0  0  0  0  0
  1  2  1  0  0  0  0
  2  3  1  0  0  0  0
  3  4  1  0  0  0  0
  4  5  1  0  0  0  0
  1  5  1  0  0  0  0
  6  7  1  0  0  0  0
  7  8  1  0  0  0  0
  8  9  1  0  0  0  0
  3  9  2  0  0  0  0
  4  6  1  0  0  0  0
 10 11  1  0  0  0  0
 11 12  1  0  0  0  0
 12 13  1  0  0  0  0
  6 13  1  0  0  0  0
  7 10  1  0  0  0  0
  2 14  2  0  0  0  0
  6 15  1  1  0  0  0
 10 16  1  0  0  0  0
 10 17  1  0  0  0  0
 11 18  1  1  0  0  0
  7 19  1  6  0  0  0
  4 20  1  6  0  0  0
M  END
>  <cdx:fragmentId>
7151

$$$$
