300487.cdx
  Mrv1902 05222410242D          

 12 13  0  0  0  0            999 V2000
    7.4401   -5.7221    0.0000 C   0  0  0  0  0  0  0  0  0  0  0  0
    7.4401   -6.5471    0.0000 C   0  0  0  0  0  0  0  0  0  0  0  0
    6.7256   -6.9596    0.0000 C   0  0  0  0  0  0  0  0  0  0  0  0
    6.0112   -6.5471    0.0000 C   0  0  0  0  0  0  0  0  0  0  0  0
    5.2967   -6.9596    0.0000 C   0  0  0  0  0  0  0  0  0  0  0  0
    4.5822   -6.5471    0.0000 C   0  0  0  0  0  0  0  0  0  0  0  0
    4.5822   -5.7221    0.0000 C   0  0  0  0  0  0  0  0  0  0  0  0
    5.2967   -5.3096    0.0000 C   0  0  0  0  0  0  0  0  0  0  0  0
    6.0112   -5.7221    0.0000 C   0  0  0  0  0  0  0  0  0  0  0  0
    6.7256   -5.3096    0.0000 O   0  0  0  0  0  0  0  0  0  0  0  0
    8.1546   -5.3096    0.0000 O   0  0  0  0  0  0  0  0  0  0  0  0
    6.7256   -7.7846    0.0000 O   0  0  0  0  0  0  0  0  0  0  0  0
  1  2  1  0  0  0  0
  2  3  2  0  0  0  0
  3  4  1  0  0  0  0
  4  5  1  0  0  0  0
  5  6  2  0  0  0  0
  6  7  1  0  0  0  0
  7  8  2  0  0  0  0
  8  9  1  0  0  0  0
  4  9  2  0  0  0  0
  9 10  1  0  0  0  0
  1 10  1  0  0  0  0
  1 11  2  0  0  0  0
  3 12  1  0  0  0  0
M  END
>  <cdx:fragmentId>
7910

$$$$
