300415.cdx
  Mrv1902 05222410182D          

  7  6  0  0  0  0            999 V2000
    7.5406   -6.7966    0.0000 C   0  0  0  0  0  0  0  0  0  0  0  0
    6.8261   -7.2091    0.0000 C   0  0  0  0  0  0  0  0  0  0  0  0
    6.1116   -6.7966    0.0000 C   0  0  0  0  0  0  0  0  0  0  0  0
    5.3971   -7.2091    0.0000 C   0  0  0  0  0  0  0  0  0  0  0  0
    4.6827   -6.7966    0.0000 C   0  0  0  0  0  0  0  0  0  0  0  0
    3.9682   -7.2091    0.0000 C   0  0  0  0  0  0  0  0  0  0  0  0
    6.1116   -5.9716    0.0000 O   0  0  0  0  0  0  0  0  0  0  0  0
  1  2  1  0  0  0  0
  2  3  1  0  0  0  0
  3  4  1  0  0  0  0
  4  5  1  0  0  0  0
  5  6  1  0  0  0  0
  3  7  1  0  0  0  0
M  END
>  <cdx:fragmentId>
4124

$$$$
