300416.cdx
  Mrv1902 05222410192D          

 16 16  0  0  0  0            999 V2000
    7.9704   -5.6986    0.0000 C   0  0  0  0  0  0  0  0  0  0  0  0
    8.6849   -6.1111    0.0000 C   0  0  0  0  0  0  0  0  0  0  0  0
    9.3994   -5.6986    0.0000 C   0  0  0  0  0  0  0  0  0  0  0  0
    7.9704   -4.8736    0.0000 O   0  0  0  0  0  0  0  0  0  0  0  0
    7.2560   -6.1111    0.0000 C   0  0  0  0  0  0  0  0  0  0  0  0
    6.5415   -5.6986    0.0000 C   0  0  0  0  0  0  0  0  0  0  0  0
    5.8270   -6.1111    0.0000 C   0  0  0  0  0  0  0  0  0  0  0  0
    5.8270   -6.9361    0.0000 C   0  0  0  0  0  0  0  0  0  0  0  0
    6.5415   -7.3486    0.0000 C   0  0  0  0  0  0  0  0  0  0  0  0
    7.2560   -6.9361    0.0000 C   0  0  0  0  0  0  0  0  0  0  0  0
    6.5415   -8.1736    0.0000 O   0  0  0  0  0  0  0  0  0  0  0  0
    5.8270   -8.5861    0.0000 C   0  0  0  0  0  0  0  0  0  0  0  0
    5.1125   -5.6986    0.0000 O   0  0  0  0  0  0  0  0  0  0  0  0
    4.3981   -6.1111    0.0000 C   0  0  0  0  0  0  0  0  0  0  0  0
    5.1125   -7.3486    0.0000 O   0  0  0  0  0  0  0  0  0  0  0  0
   10.1138   -6.1111    0.0000 O   0  0  0  0  0  0  0  0  0  0  0  0
  1  2  1  0  0  0  0
  2  3  1  0  0  0  0
  1  4  2  0  0  0  0
  5  6  1  0  0  0  0
  6  7  2  0  0  0  0
  7  8  1  0  0  0  0
  8  9  2  0  0  0  0
  9 10  1  0  0  0  0
  5 10  2  0  0  0  0
 11 12  1  0  0  0  0
  9 11  1  0  0  0  0
 13 14  1  0  0  0  0
  7 13  1  0  0  0  0
  8 15  1  0  0  0  0
  1  5  1  0  0  0  0
  3 16  1  0  0  0  0
M  END
>  <cdx:fragmentId>
4153

$$$$
