300465.cdx
  Mrv1902 05222410222D          

 21 22  0  0  0  0            999 V2000
    6.5826  -10.1840    0.0000 O   0  0  0  0  0  0  0  0  0  0  0  0
    7.2975  -10.5957    0.0000 C   0  0  1  0  0  0  0  0  0  0  0  0
    7.2984  -11.4207    0.0000 C   0  0  1  0  0  0  0  0  0  0  0  0
    6.5844  -11.8340    0.0000 C   0  0  0  0  0  0  0  0  0  0  0  0
    5.8695  -11.4223    0.0000 C   0  0  1  0  0  0  0  0  0  0  0  0
    5.8686  -10.5973    0.0000 C   0  0  1  0  0  0  0  0  0  0  0  0
    5.1555  -11.8356    0.0000 O   0  0  0  0  0  0  0  0  0  0  0  0
    5.1536  -10.1856    0.0000 C   0  0  0  0  0  0  0  0  0  0  0  0
    4.4396  -10.5989    0.0000 N   0  0  0  0  0  0  0  0  0  0  0  0
    8.0134  -11.8324    0.0000 N   0  0  0  0  0  0  0  0  0  0  0  0
    9.4395   -9.3557    0.0000 N   0  0  0  0  0  0  0  0  0  0  0  0
    8.0075   -6.8824    0.0000 N   0  0  0  0  0  0  0  0  0  0  0  0
    8.0115  -10.1824    0.0000 O   0  0  0  0  0  0  0  0  0  0  0  0
    6.5816   -9.3592    0.0000 O   0  0  0  0  0  0  0  0  0  0  0  0
    6.5795   -7.7092    0.0000 O   0  0  0  0  0  0  0  0  0  0  0  0
    8.0085   -7.7074    0.0000 C   0  0  2  0  0  0  0  0  0  0  0  0
    8.7235   -8.1191    0.0000 C   0  0  0  0  0  0  0  0  0  0  0  0
    8.7245   -8.9441    0.0000 C   0  0  1  0  0  0  0  0  0  0  0  0
    8.0105   -9.3574    0.0000 C   0  0  2  0  0  0  0  0  0  0  0  0
    7.2955   -8.9458    0.0000 C   0  0  1  0  0  0  0  0  0  0  0  0
    7.2945   -8.1208    0.0000 C   0  0  1  0  0  0  0  0  0  0  0  0
 18 11  1  6  0  0  0
 16 12  1  6  0  0  0
 19 13  1  1  0  0  0
 20 14  1  6  0  0  0
 21 15  1  1  0  0  0
 21 16  1  0  0  0  0
 17 16  1  0  0  0  0
 18 17  1  0  0  0  0
 19 18  1  0  0  0  0
 20 19  1  0  0  0  0
 21 20  1  0  0  0  0
  1  2  1  0  0  0  0
  2  3  1  0  0  0  0
  3  4  1  0  0  0  0
  4  5  1  0  0  0  0
  5  6  1  0  0  0  0
  1  6  1  0  0  0  0
  5  7  1  6  0  0  0
  8  9  1  0  0  0  0
  6  8  1  1  0  0  0
  3 10  1  6  0  0  0
  2 13  1  6  0  0  0
M  END
>  <cdx:fragmentId>
23

$$$$
