300403.cdx
  Mrv1902 05222410182D          

  8  7  0  0  0  0            999 V2000
    6.1656   -6.1346    0.0000 C   0  0  0  0  0  0  0  0  0  0  0  0
    5.4511   -6.5471    0.0000 C   0  0  0  0  0  0  0  0  0  0  0  0
    4.7366   -6.1346    0.0000 C   0  0  0  0  0  0  0  0  0  0  0  0
    6.8801   -6.5471    0.0000 S   0  0  0  0  0  0  0  0  0  0  0  0
    7.2926   -5.8326    0.0000 O   0  0  0  0  0  0  0  0  0  0  0  0
    6.4676   -7.2615    0.0000 O   0  0  0  0  0  0  0  0  0  0  0  0
    7.5945   -6.9596    0.0000 O   0  0  0  0  0  0  0  0  0  0  0  0
    4.0222   -6.5471    0.0000 N   0  0  0  0  0  0  0  0  0  0  0  0
  1  2  1  0  0  0  0
  2  3  1  0  0  0  0
  4  5  2  0  0  0  0
  4  6  2  0  0  0  0
  4  7  1  0  0  0  0
  1  4  1  0  0  0  0
  3  8  1  0  0  0  0
M  END
>  <cdx:fragmentId>
3555

$$$$
