300457.cdx
  Mrv1902 05222410242D          

 13 13  0  0  0  0            999 V2000
    4.8311   -7.5344    0.0000 C   0  0  0  0  0  0  0  0  0  0  0  0
    4.8311   -6.7094    0.0000 C   0  0  0  0  0  0  0  0  0  0  0  0
    5.5456   -6.2969    0.0000 C   0  0  0  0  0  0  0  0  0  0  0  0
    6.2600   -6.7094    0.0000 C   0  0  0  0  0  0  0  0  0  0  0  0
    6.2600   -7.5344    0.0000 C   0  0  0  0  0  0  0  0  0  0  0  0
    5.5456   -7.9469    0.0000 C   0  0  0  0  0  0  0  0  0  0  0  0
    4.1166   -7.9469    0.0000 O   0  0  0  0  0  0  0  0  0  0  0  0
    6.9745   -7.9469    0.0000 O   0  0  0  0  0  0  0  0  0  0  0  0
    7.6890   -7.5344    0.0000 C   0  0  0  0  0  0  0  0  0  0  0  0
    6.9745   -6.2969    0.0000 O   0  0  0  0  0  0  0  0  0  0  0  0
    7.6890   -6.7094    0.0000 C   0  0  0  0  0  0  0  0  0  0  0  0
    5.5456   -5.4719    0.0000 O   0  0  0  0  0  0  0  0  0  0  0  0
    4.8311   -5.0594    0.0000 C   0  0  0  0  0  0  0  0  0  0  0  0
  1  2  1  0  0  0  0
  2  3  2  0  0  0  0
  3  4  1  0  0  0  0
  4  5  2  0  0  0  0
  5  6  1  0  0  0  0
  1  6  2  0  0  0  0
  1  7  1  0  0  0  0
  8  9  1  0  0  0  0
  5  8  1  0  0  0  0
 10 11  1  0  0  0  0
  4 10  1  0  0  0  0
 12 13  1  0  0  0  0
  3 12  1  0  0  0  0
M  END
>  <cdx:fragmentId>
6350

$$$$
