300424.cdx
  Mrv1902 05222410282D          

  6  5  0  0  0  0            999 V2000
    5.0859   -7.3655    0.0000 C   0  0  0  0  0  0  0  0  0  0  0  0
    5.8004   -7.7780    0.0000 C   0  0  0  0  0  0  0  0  0  0  0  0
    6.5148   -7.3655    0.0000 C   0  0  0  0  0  0  0  0  0  0  0  0
    6.5148   -6.5405    0.0000 C   0  0  0  0  0  0  0  0  0  0  0  0
    4.3714   -6.9530    0.0000 N   0  0  0  0  0  0  0  0  0  0  0  0
    7.2293   -7.7780    0.0000 C   0  0  0  0  0  0  0  0  0  0  0  0
  1  2  1  0  0  0  0
  2  3  2  0  0  0  0
  3  4  1  0  0  0  0
  1  5  3  0  0  0  0
  3  6  1  0  0  0  0
M  END
>  <cdx:fragmentId>
4467

$$$$
