300485.cdx
  Mrv1902 05222410262D          

  9  8  0  0  0  0            999 V2000
    5.0233   -8.4027    0.0000 C   0  0  0  0  0  0  0  0  0  0  0  0
    5.7378   -7.9902    0.0000 C   0  0  0  0  0  0  0  0  0  0  0  0
    6.4523   -7.5777    0.0000 C   0  0  0  0  0  0  0  0  0  0  0  0
    7.1667   -7.1652    0.0000 C   0  0  0  0  0  0  0  0  0  0  0  0
    7.8812   -7.5777    0.0000 C   0  0  0  0  0  0  0  0  0  0  0  0
    8.5957   -7.1652    0.0000 C   0  0  0  0  0  0  0  0  0  0  0  0
    4.3089   -7.9902    0.0000 O   0  0  0  0  0  0  0  0  0  0  0  0
    7.1667   -6.3402    0.0000 C   0  0  0  0  0  0  0  0  0  0  0  0
    7.8812   -5.9277    0.0000 C   0  0  0  0  0  0  0  0  0  0  0  0
  1  2  1  0  0  0  0
  2  3  3  0  0  0  0
  3  4  1  0  0  0  0
  4  5  1  0  0  0  0
  5  6  1  0  0  0  0
  1  7  2  0  0  0  0
  8  9  1  0  0  0  0
  4  8  1  0  0  0  0
M  END
>  <cdx:fragmentId>
7841

$$$$
