300461.cdx
  Mrv1902 05222410222D          

 22 24  0  0  0  0            999 V2000
    5.9632   -6.3408    0.0000 C   0  0  0  0  0  0  0  0  0  0  0  0
    5.9632   -7.1658    0.0000 C   0  0  0  0  0  0  0  0  0  0  0  0
    5.2487   -7.5783    0.0000 C   0  0  0  0  0  0  0  0  0  0  0  0
    4.5343   -7.1658    0.0000 C   0  0  0  0  0  0  0  0  0  0  0  0
    3.8198   -7.5783    0.0000 C   0  0  0  0  0  0  0  0  0  0  0  0
    3.1053   -7.1658    0.0000 C   0  0  0  0  0  0  0  0  0  0  0  0
    3.1053   -6.3408    0.0000 C   0  0  0  0  0  0  0  0  0  0  0  0
    3.8198   -5.9283    0.0000 C   0  0  0  0  0  0  0  0  0  0  0  0
    4.5343   -6.3408    0.0000 C   0  0  0  0  0  0  0  0  0  0  0  0
    5.2487   -5.9283    0.0000 O   0  0  0  0  0  0  0  0  0  0  0  0
    5.2487   -8.4033    0.0000 O   0  0  0  0  0  0  0  0  0  0  0  0
    2.3908   -5.9283    0.0000 C   0  0  0  0  0  0  0  0  0  0  0  0
    6.6777   -7.5783    0.0000 C   0  0  0  0  0  0  0  0  0  0  0  0
    3.8198   -8.4033    0.0000 O   0  0  0  0  0  0  0  0  0  0  0  0
    6.6777   -5.9283    0.0000 C   0  0  0  0  0  0  0  0  0  0  0  0
    7.3921   -6.3408    0.0000 C   0  0  0  0  0  0  0  0  0  0  0  0
    8.1066   -5.9283    0.0000 C   0  0  0  0  0  0  0  0  0  0  0  0
    8.1066   -5.1033    0.0000 C   0  0  0  0  0  0  0  0  0  0  0  0
    7.3921   -4.6908    0.0000 C   0  0  0  0  0  0  0  0  0  0  0  0
    6.6777   -5.1033    0.0000 C   0  0  0  0  0  0  0  0  0  0  0  0
    8.8211   -4.6908    0.0000 O   0  0  0  0  0  0  0  0  0  0  0  0
    8.8211   -6.3408    0.0000 O   0  0  0  0  0  0  0  0  0  0  0  0
  1  2  2  0  0  0  0
  2  3  1  0  0  0  0
  3  4  1  0  0  0  0
  4  5  1  0  0  0  0
  5  6  2  0  0  0  0
  6  7  1  0  0  0  0
  7  8  2  0  0  0  0
  8  9  1  0  0  0  0
  4  9  2  0  0  0  0
  9 10  1  0  0  0  0
  1 10  1  0  0  0  0
  3 11  2  0  0  0  0
  7 12  1  0  0  0  0
  2 13  1  0  0  0  0
  5 14  1  0  0  0  0
 15 16  1  0  0  0  0
 16 17  2  0  0  0  0
 17 18  1  0  0  0  0
 18 19  2  0  0  0  0
 19 20  1  0  0  0  0
 15 20  2  0  0  0  0
 18 21  1  0  0  0  0
 17 22  1  0  0  0  0
  1 15  1  0  0  0  0
M  END
>  <cdx:fragmentId>
6595

$$$$
