300400.cdx
  Mrv1902 05222410182D          

 17 16  0  0  0  0            999 V2000
    8.8211   -6.5471    0.0000 C   0  0  0  0  0  0  0  0  0  0  0  0
    8.1066   -6.9596    0.0000 C   0  0  0  0  0  0  0  0  0  0  0  0
    7.3921   -6.5471    0.0000 C   0  0  0  0  0  0  0  0  0  0  0  0
    7.3921   -5.7221    0.0000 C   0  0  0  0  0  0  0  0  0  0  0  0
    8.8211   -5.7221    0.0000 O   0  0  0  0  0  0  0  0  0  0  0  0
    9.5356   -6.9596    0.0000 O   0  0  0  0  0  0  0  0  0  0  0  0
    6.6777   -5.3096    0.0000 O   0  0  0  0  0  0  0  0  0  0  0  0
    8.1066   -5.3096    0.0000 O   0  0  0  0  0  0  0  0  0  0  0  0
    6.6777   -6.9596    0.0000 C   0  0  0  0  0  0  0  0  0  0  0  0
    5.9632   -6.5471    0.0000 C   0  0  0  0  0  0  0  0  0  0  0  0
    5.2487   -6.9596    0.0000 C   0  0  0  0  0  0  0  0  0  0  0  0
    4.5343   -6.5471    0.0000 C   0  0  0  0  0  0  0  0  0  0  0  0
    3.8198   -6.9596    0.0000 C   0  0  0  0  0  0  0  0  0  0  0  0
    3.1053   -6.5471    0.0000 C   0  0  0  0  0  0  0  0  0  0  0  0
    2.3908   -6.9596    0.0000 S   0  0  0  0  0  0  0  0  0  0  0  0
    1.6764   -6.5471    0.0000 C   0  0  0  0  0  0  0  0  0  0  0  0
    8.1066   -7.7846    0.0000 O   0  0  0  0  0  0  0  0  0  0  0  0
  1  2  1  0  0  0  0
  2  3  1  0  0  0  0
  3  4  1  0  0  0  0
  1  5  2  0  0  0  0
  1  6  1  0  0  0  0
  4  7  2  0  0  0  0
  4  8  1  0  0  0  0
  9 10  1  0  0  0  0
 10 11  1  0  0  0  0
 11 12  1  0  0  0  0
 12 13  1  0  0  0  0
 13 14  1  0  0  0  0
 15 16  1  0  0  0  0
 14 15  1  0  0  0  0
  3  9  1  0  0  0  0
  2 17  1  0  0  0  0
M  END
>  <cdx:fragmentId>
3438

$$$$
