30043.cdx
  Mrv1902 05222410182D          

 26 27  0  0  0  0            999 V2000
    5.2233   -5.6030    0.0000 C   0  0  0  0  0  0  0  0  0  0  0  0
    4.5075   -5.1928    0.0000 C   0  0  0  0  0  0  0  0  0  0  0  0
    4.5049   -4.3678    0.0000 C   0  0  0  0  0  0  0  0  0  0  0  0
    3.7891   -3.9576    0.0000 C   0  0  0  0  0  0  0  0  0  0  0  0
   10.9416   -6.4099    0.0000 O   0  0  0  0  0  0  0  0  0  0  0  0
    9.5179   -8.0645    0.0000 C   0  0  0  0  0  0  0  0  0  0  0  0
   10.2311   -7.6497    0.0000 C   0  0  0  0  0  0  0  0  0  0  0  0
   10.2285   -6.8247    0.0000 C   0  0  0  0  0  0  0  0  0  0  0  0
    9.5127   -6.4145    0.0000 C   0  0  0  0  0  0  0  0  0  0  0  0
    8.7995   -6.8292    0.0000 C   0  0  0  0  0  0  0  0  0  0  0  0
    8.8021   -7.6542    0.0000 C   0  0  0  0  0  0  0  0  0  0  0  0
    8.0890   -8.0690    0.0000 C   0  0  0  0  0  0  0  0  0  0  0  0
    6.6627   -8.8985    0.0000 O   0  0  0  0  0  0  0  0  0  0  0  0
    7.3732   -7.6587    0.0000 C   0  0  0  0  0  0  0  0  0  0  0  0
    6.6600   -8.0735    0.0000 C   0  0  0  0  0  0  0  0  0  0  0  0
    5.2180   -3.9531    0.0000 C   0  0  0  0  0  0  0  0  0  0  0  0
    4.5206   -9.3178    0.0000 C   0  0  0  0  0  0  0  0  0  0  0  0
    5.2337   -8.9030    0.0000 O   0  0  0  0  0  0  0  0  0  0  0  0
    6.6548   -6.4235    0.0000 O   0  0  0  0  0  0  0  0  0  0  0  0
    3.7969   -6.4326    0.0000 O   0  0  0  0  0  0  0  0  0  0  0  0
    5.2259   -6.4280    0.0000 C   0  0  0  0  0  0  0  0  0  0  0  0
    5.9417   -6.8383    0.0000 C   0  0  0  0  0  0  0  0  0  0  0  0
    5.9443   -7.6633    0.0000 C   0  0  0  0  0  0  0  0  0  0  0  0
    5.2311   -8.0780    0.0000 C   0  0  0  0  0  0  0  0  0  0  0  0
    4.5153   -7.6678    0.0000 C   0  0  0  0  0  0  0  0  0  0  0  0
    4.5127   -6.8428    0.0000 C   0  0  0  0  0  0  0  0  0  0  0  0
  8  5  1  0  0  0  0
  6 11  1  0  0  0  0
  7  6  2  0  0  0  0
  8  7  1  0  0  0  0
  9  8  2  0  0  0  0
 10  9  1  0  0  0  0
 11 10  2  0  0  0  0
 12 11  1  0  0  0  0
 14 12  2  0  0  0  0
 15 13  2  0  0  0  0
 15 14  1  0  0  0  0
 23 15  1  0  0  0  0
 21  1  1  0  0  0  0
 18 17  1  0  0  0  0
 24 18  1  0  0  0  0
 22 19  1  0  0  0  0
 26 20  1  0  0  0  0
 21 26  1  0  0  0  0
 22 21  2  0  0  0  0
 23 22  1  0  0  0  0
 24 23  2  0  0  0  0
 25 24  1  0  0  0  0
 26 25  2  0  0  0  0
  1  2  1  0  0  0  0
  2  3  1  0  0  0  0
  3  4  1  0  0  0  0
  3 16  2  0  0  0  0
M  END
>  <cdx:fragmentId>
13000

$$$$
