300480.cdx
  Mrv1902 05222410242D          

 13 13  0  0  0  0            999 V2000
    8.8325   -7.6397    0.0000 C   0  0  0  0  0  0  0  0  0  0  0  0
    8.1180   -8.0522    0.0000 C   0  0  0  0  0  0  0  0  0  0  0  0
    7.4035   -7.6397    0.0000 C   0  0  0  0  0  0  0  0  0  0  0  0
    6.6891   -8.0522    0.0000 C   0  0  0  0  0  0  0  0  0  0  0  0
    6.6891   -8.8772    0.0000 C   0  0  0  0  0  0  0  0  0  0  0  0
    7.4035   -9.2897    0.0000 C   0  0  0  0  0  0  0  0  0  0  0  0
    8.1180   -8.8772    0.0000 C   0  0  0  0  0  0  0  0  0  0  0  0
    8.8325   -6.8147    0.0000 O   0  0  0  0  0  0  0  0  0  0  0  0
    9.5470   -8.0522    0.0000 O   0  0  0  0  0  0  0  0  0  0  0  0
    5.9746   -9.2897    0.0000 C   0  0  0  0  0  0  0  0  0  0  0  0
    5.9746  -10.1147    0.0000 O   0  0  0  0  0  0  0  0  0  0  0  0
    5.2601   -8.8772    0.0000 O   0  0  0  0  0  0  0  0  0  0  0  0
    4.5457   -9.2897    0.0000 C   0  0  0  0  0  0  0  0  0  0  0  0
  1  2  1  0  0  0  0
  2  3  1  0  0  0  0
  3  4  2  0  0  0  0
  4  5  1  0  0  0  0
  5  6  2  0  0  0  0
  6  7  1  0  0  0  0
  2  7  2  0  0  0  0
  1  8  2  0  0  0  0
  1  9  1  0  0  0  0
 10 11  2  0  0  0  0
 12 13  1  0  0  0  0
 10 12  1  0  0  0  0
  5 10  1  0  0  0  0
M  END
>  <cdx:fragmentId>
5

$$$$
