300434.cdx
  Mrv1902 05222410262D          

 29 31  0  0  0  0            999 V2000
    6.3805   -4.8263    0.0000 C   0  0  0  0  0  0  0  0  0  0  0  0
    6.3805   -5.6512    0.0000 C   0  0  0  0  0  0  0  0  0  0  0  0
    7.0950   -6.0638    0.0000 C   0  0  0  0  0  0  0  0  0  0  0  0
    7.8095   -5.6512    0.0000 C   0  0  0  0  0  0  0  0  0  0  0  0
    7.8095   -4.8263    0.0000 C   0  0  0  0  0  0  0  0  0  0  0  0
    7.0950   -4.4138    0.0000 C   0  0  0  0  0  0  0  0  0  0  0  0
    5.5959   -4.5713    0.0000 C   0  0  2  0  0  0  0  0  0  0  0  0
    5.1110   -5.2387    0.0000 C   0  0  1  0  0  0  0  0  0  0  0  0
    5.5959   -5.9062    0.0000 O   0  0  0  0  0  0  0  0  0  0  0  0
    4.2860   -5.2387    0.0000 C   0  0  0  0  0  0  0  0  0  0  0  0
    3.8735   -4.5243    0.0000 C   0  0  0  0  0  0  0  0  0  0  0  0
    3.0485   -4.5243    0.0000 C   0  0  0  0  0  0  0  0  0  0  0  0
    2.6360   -5.2387    0.0000 C   0  0  0  0  0  0  0  0  0  0  0  0
    3.0485   -5.9532    0.0000 C   0  0  0  0  0  0  0  0  0  0  0  0
    3.8735   -5.9532    0.0000 C   0  0  0  0  0  0  0  0  0  0  0  0
    1.8110   -5.2387    0.0000 O   0  0  0  0  0  0  0  0  0  0  0  0
    2.6360   -6.6677    0.0000 O   0  0  0  0  0  0  0  0  0  0  0  0
    8.5239   -4.4138    0.0000 C   0  0  0  0  0  0  0  0  0  0  0  0
    9.2384   -4.8263    0.0000 C   0  0  0  0  0  0  0  0  0  0  0  0
    9.9529   -4.4138    0.0000 C   0  0  0  0  0  0  0  0  0  0  0  0
   10.6674   -4.8263    0.0000 O   0  0  0  0  0  0  0  0  0  0  0  0
    7.0950   -6.8888    0.0000 O   0  0  0  0  0  0  0  0  0  0  0  0
    7.8919   -7.1023    0.0000 C   0  0  0  0  0  0  0  0  0  0  0  0
    5.1834   -3.8568    0.0000 C   0  0  0  0  0  0  0  0  0  0  0  0
    4.3865   -3.6433    0.0000 O   0  0  0  0  0  0  0  0  0  0  0  0
    4.3865   -2.8183    0.0000 C   0  0  0  0  0  0  0  0  0  0  0  0
    5.1010   -2.4058    0.0000 C   0  0  0  0  0  0  0  0  0  0  0  0
    3.6720   -2.4058    0.0000 O   0  0  0  0  0  0  0  0  0  0  0  0
    2.8495   -7.4646    0.0000 C   0  0  0  0  0  0  0  0  0  0  0  0
  1  2  2  0  0  0  0
  2  3  1  0  0  0  0
  3  4  2  0  0  0  0
  4  5  1  0  0  0  0
  5  6  2  0  0  0  0
  6  1  1  0  0  0  0
  1  7  1  0  0  0  0
  7  8  1  0  0  0  0
  8  9  1  0  0  0  0
  9  2  1  0  0  0  0
  8 10  1  1  0  0  0
 10 11  2  0  0  0  0
 11 12  1  0  0  0  0
 12 13  2  0  0  0  0
 13 14  1  0  0  0  0
 14 15  2  0  0  0  0
 15 10  1  0  0  0  0
 13 16  1  0  0  0  0
 14 17  1  0  0  0  0
  5 18  1  0  0  0  0
 18 19  1  0  0  0  0
 19 20  1  0  0  0  0
 20 21  1  0  0  0  0
  3 22  1  0  0  0  0
 22 23  1  0  0  0  0
  7 24  1  6  0  0  0
 24 25  1  0  0  0  0
 25 26  1  0  0  0  0
 26 27  1  0  0  0  0
 26 28  2  0  0  0  0
 17 29  1  0  0  0  0
M  END
>  <cdx:fragmentId>
5

$$$$
