300580.cdx
  Mrv1902 05222410272D          

 10 10  0  0  0  0            999 V2000
    6.1372   -7.0620    0.0000 C   0  0  0  0  0  0  0  0  0  0  0  0
    6.1372   -6.2370    0.0000 C   0  0  0  0  0  0  0  0  0  0  0  0
    5.4227   -5.8245    0.0000 C   0  0  0  0  0  0  0  0  0  0  0  0
    4.7083   -6.2370    0.0000 C   0  0  0  0  0  0  0  0  0  0  0  0
    4.7083   -7.0620    0.0000 C   0  0  0  0  0  0  0  0  0  0  0  0
    5.4227   -7.4745    0.0000 N   0  0  0  0  0  0  0  0  0  0  0  0
    6.8517   -5.8245    0.0000 C   0  0  0  0  0  0  0  0  0  0  0  0
    6.8517   -4.9995    0.0000 O   0  0  0  0  0  0  0  0  0  0  0  0
    7.5662   -6.2370    0.0000 O   0  0  0  0  0  0  0  0  0  0  0  0
    3.9938   -7.4745    0.0000 O   0  0  0  0  0  0  0  0  0  0  0  0
  1  2  2  0  0  0  0
  2  3  1  0  0  0  0
  3  4  2  0  0  0  0
  4  5  1  0  0  0  0
  5  6  1  0  0  0  0
  1  6  1  0  0  0  0
  7  8  2  0  0  0  0
  7  9  1  0  0  0  0
  2  7  1  0  0  0  0
  5 10  2  0  0  0  0
M  END
>  <cdx:fragmentId>
4643

$$$$
