300518.cdx
  Mrv1902 05222410252D          

 24 26  0  0  0  0            999 V2000
    6.2173   -6.3408    0.0000 C   0  0  0  0  0  0  0  0  0  0  0  0
    6.2173   -7.1658    0.0000 C   0  0  0  0  0  0  0  0  0  0  0  0
    5.5028   -7.5783    0.0000 C   0  0  0  0  0  0  0  0  0  0  0  0
    4.7884   -7.1658    0.0000 C   0  0  0  0  0  0  0  0  0  0  0  0
    4.0739   -7.5783    0.0000 C   0  0  0  0  0  0  0  0  0  0  0  0
    3.3594   -7.1658    0.0000 C   0  0  0  0  0  0  0  0  0  0  0  0
    3.3594   -6.3408    0.0000 C   0  0  0  0  0  0  0  0  0  0  0  0
    4.0739   -5.9283    0.0000 C   0  0  0  0  0  0  0  0  0  0  0  0
    4.7884   -6.3408    0.0000 C   0  0  0  0  0  0  0  0  0  0  0  0
    5.5028   -5.9283    0.0000 O   0  0  0  0  0  0  0  0  0  0  0  0
    5.5028   -8.4033    0.0000 O   0  0  0  0  0  0  0  0  0  0  0  0
    4.0739   -5.1033    0.0000 O   0  0  0  0  0  0  0  0  0  0  0  0
    3.3594   -4.6908    0.0000 C   0  0  0  0  0  0  0  0  0  0  0  0
    2.6450   -7.5783    0.0000 O   0  0  0  0  0  0  0  0  0  0  0  0
    1.9305   -7.1658    0.0000 C   0  0  0  0  0  0  0  0  0  0  0  0
    6.9318   -5.9283    0.0000 C   0  0  0  0  0  0  0  0  0  0  0  0
    6.9318   -5.1033    0.0000 C   0  0  0  0  0  0  0  0  0  0  0  0
    7.6462   -4.6908    0.0000 C   0  0  0  0  0  0  0  0  0  0  0  0
    8.3607   -5.1033    0.0000 C   0  0  0  0  0  0  0  0  0  0  0  0
    8.3607   -5.9283    0.0000 C   0  0  0  0  0  0  0  0  0  0  0  0
    7.6462   -6.3408    0.0000 C   0  0  0  0  0  0  0  0  0  0  0  0
    9.0752   -4.6908    0.0000 O   0  0  0  0  0  0  0  0  0  0  0  0
    2.6450   -5.9283    0.0000 O   0  0  0  0  0  0  0  0  0  0  0  0
    4.0739   -8.4033    0.0000 O   0  0  0  0  0  0  0  0  0  0  0  0
  1  2  2  0  0  0  0
  2  3  1  0  0  0  0
  3  4  1  0  0  0  0
  4  5  1  0  0  0  0
  5  6  2  0  0  0  0
  6  7  1  0  0  0  0
  7  8  2  0  0  0  0
  8  9  1  0  0  0  0
  4  9  2  0  0  0  0
  9 10  1  0  0  0  0
  1 10  1  0  0  0  0
  3 11  2  0  0  0  0
 12 13  1  0  0  0  0
  8 12  1  0  0  0  0
 14 15  1  0  0  0  0
  6 14  1  0  0  0  0
 16 17  1  0  0  0  0
 17 18  2  0  0  0  0
 18 19  1  0  0  0  0
 19 20  2  0  0  0  0
 20 21  1  0  0  0  0
 16 21  2  0  0  0  0
 19 22  1  0  0  0  0
  1 16  1  0  0  0  0
  7 23  1  0  0  0  0
  5 24  1  0  0  0  0
M  END
>  <cdx:fragmentId>
929

$$$$
