300524.cdx
  Mrv1902 05222410252D          

 20 22  0  0  0  0            999 V2000
    6.0085   -6.3408    0.0000 C   0  0  0  0  0  0  0  0  0  0  0  0
    6.0085   -7.1658    0.0000 C   0  0  0  0  0  0  0  0  0  0  0  0
    5.2940   -7.5783    0.0000 C   0  0  0  0  0  0  0  0  0  0  0  0
    4.5795   -7.1658    0.0000 C   0  0  0  0  0  0  0  0  0  0  0  0
    3.8651   -7.5783    0.0000 C   0  0  0  0  0  0  0  0  0  0  0  0
    3.1506   -7.1658    0.0000 C   0  0  0  0  0  0  0  0  0  0  0  0
    3.1506   -6.3408    0.0000 C   0  0  0  0  0  0  0  0  0  0  0  0
    3.8651   -5.9283    0.0000 C   0  0  0  0  0  0  0  0  0  0  0  0
    4.5795   -6.3408    0.0000 C   0  0  0  0  0  0  0  0  0  0  0  0
    5.2940   -5.9283    0.0000 O   0  0  0  0  0  0  0  0  0  0  0  0
    5.2940   -8.4033    0.0000 O   0  0  0  0  0  0  0  0  0  0  0  0
    6.7230   -5.9283    0.0000 C   0  0  0  0  0  0  0  0  0  0  0  0
    6.7230   -5.1033    0.0000 C   0  0  0  0  0  0  0  0  0  0  0  0
    7.4374   -4.6908    0.0000 C   0  0  0  0  0  0  0  0  0  0  0  0
    8.1519   -5.1033    0.0000 C   0  0  0  0  0  0  0  0  0  0  0  0
    8.1519   -5.9283    0.0000 C   0  0  0  0  0  0  0  0  0  0  0  0
    7.4374   -6.3408    0.0000 C   0  0  0  0  0  0  0  0  0  0  0  0
    8.8664   -4.6908    0.0000 O   0  0  0  0  0  0  0  0  0  0  0  0
    2.4361   -5.9283    0.0000 O   0  0  0  0  0  0  0  0  0  0  0  0
    6.7230   -7.5783    0.0000 O   0  0  0  0  0  0  0  0  0  0  0  0
  1  2  2  0  0  0  0
  2  3  1  0  0  0  0
  3  4  1  0  0  0  0
  4  5  1  0  0  0  0
  5  6  2  0  0  0  0
  6  7  1  0  0  0  0
  7  8  2  0  0  0  0
  8  9  1  0  0  0  0
  4  9  2  0  0  0  0
  9 10  1  0  0  0  0
  1 10  1  0  0  0  0
  3 11  2  0  0  0  0
 12 13  1  0  0  0  0
 13 14  2  0  0  0  0
 14 15  1  0  0  0  0
 15 16  2  0  0  0  0
 16 17  1  0  0  0  0
 12 17  2  0  0  0  0
 15 18  1  0  0  0  0
  1 12  1  0  0  0  0
  7 19  1  0  0  0  0
  2 20  1  0  0  0  0
M  END
>  <cdx:fragmentId>
1323

$$$$
