30055.cdx
  Mrv1902 05222410192D          

 18 19  0  0  0  0            999 V2000
    7.6403   -8.8818    0.0000 C   0  0  0  0  0  0  0  0  0  0  0  0
    5.5817  -11.2279    0.0000 O   0  0  0  0  0  0  0  0  0  0  0  0
    4.5681   -9.9259    0.0000 C   0  0  0  0  0  0  0  0  0  0  0  0
    5.8921  -10.4635    0.0000 C   0  0  0  0  0  0  0  0  0  0  0  0
    5.3853   -9.8125    0.0000 C   0  0  0  0  0  0  0  0  0  0  0  0
    5.6956   -9.0481    0.0000 C   0  0  0  0  0  0  0  0  0  0  0  0
    6.5128   -8.9347    0.0000 C   0  0  0  0  0  0  0  0  0  0  0  0
    6.8231   -8.1703    0.0000 C   0  0  0  0  0  0  0  0  0  0  0  0
    6.6001   -6.8909    0.0000 C   0  0  0  0  0  0  0  0  0  0  0  0
    8.7450   -6.2705    0.0000 C   0  0  0  0  0  0  0  0  0  0  0  0
    8.3325   -6.9850    0.0000 C   0  0  1  0  0  0  0  0  0  0  0  0
    9.5975   -7.2600    0.0000 C   0  0  0  0  0  0  0  0  0  0  0  0
    7.3180   -7.2975    0.0000 C   0  0  0  0  0  0  0  0  0  0  0  0
    7.6403   -8.0568    0.0000 C   0  0  2  0  0  0  0  0  0  0  0  0
    8.4975   -7.8650    0.0000 C   0  0  1  0  0  0  0  0  0  0  0  0
    9.2675   -8.0575    0.0000 C   0  0  0  0  0  0  0  0  0  0  0  0
    8.7110   -8.6619    0.0000 H   0  0  0  0  0  0  0  0  0  0  0  0
    7.9200   -6.2705    0.0000 H   0  0  0  0  0  0  0  0  0  0  0  0
 14  1  1  6  0  0  0
  4  2  1  0  0  0  0
  5  3  1  0  0  0  0
  5  4  1  0  0  0  0
  6  5  2  0  0  0  0
  7  6  1  0  0  0  0
  8  7  1  0  0  0  0
 14  8  1  0  0  0  0
 13  9  2  0  0  0  0
 11 10  1  0  0  0  0
 13 11  1  0  0  0  0
 12 11  1  0  0  0  0
 16 12  1  0  0  0  0
 14 13  1  0  0  0  0
 15 14  1  0  0  0  0
 16 15  1  0  0  0  0
 10 15  1  0  0  0  0
 15 17  1  1  0  0  0
 11 18  1  6  0  0  0
M  END
>  <cdx:fragmentId>
800

$$$$
