300526.cdx
  Mrv1902 05222410252D          

 27 27  0  0  0  0            999 V2000
    2.7934   -6.7035    0.0000 C   0  0  0  0  0  0  0  0  0  0  0  0
    3.5078   -7.1160    0.0000 C   0  0  0  0  0  0  0  0  0  0  0  0
    4.2223   -6.7035    0.0000 C   0  0  0  0  0  0  0  0  0  0  0  0
    4.9368   -7.1160    0.0000 C   0  0  0  0  0  0  0  0  0  0  0  0
    5.6512   -6.7035    0.0000 C   0  0  2  0  0  0  0  0  0  0  0  0
    6.3657   -7.1160    0.0000 C   0  0  0  0  0  0  0  0  0  0  0  0
    7.0802   -6.7035    0.0000 C   0  0  0  0  0  0  0  0  0  0  0  0
    7.7947   -7.1160    0.0000 C   0  0  0  0  0  0  0  0  0  0  0  0
    8.5091   -6.7035    0.0000 C   0  0  0  0  0  0  0  0  0  0  0  0
    9.2236   -7.1160    0.0000 C   0  0  0  0  0  0  0  0  0  0  0  0
    9.9381   -6.7035    0.0000 C   0  0  0  0  0  0  0  0  0  0  0  0
   10.6525   -7.1160    0.0000 C   0  0  0  0  0  0  0  0  0  0  0  0
   11.3670   -6.7035    0.0000 C   0  0  0  0  0  0  0  0  0  0  0  0
   12.0815   -7.1160    0.0000 C   0  0  0  0  0  0  0  0  0  0  0  0
    4.2223   -5.8785    0.0000 O   0  0  0  0  0  0  0  0  0  0  0  0
    2.0789   -7.1160    0.0000 C   0  0  0  0  0  0  0  0  0  0  0  0
    1.3644   -6.7035    0.0000 C   0  0  0  0  0  0  0  0  0  0  0  0
    0.6500   -7.1160    0.0000 C   0  0  0  0  0  0  0  0  0  0  0  0
    0.6500   -7.9410    0.0000 C   0  0  0  0  0  0  0  0  0  0  0  0
    1.3644   -8.3535    0.0000 C   0  0  0  0  0  0  0  0  0  0  0  0
    2.0789   -7.9410    0.0000 C   0  0  0  0  0  0  0  0  0  0  0  0
   -0.0645   -6.7035    0.0000 O   0  0  0  0  0  0  0  0  0  0  0  0
   -0.7790   -7.1160    0.0000 C   0  0  0  0  0  0  0  0  0  0  0  0
   -0.0645   -8.3535    0.0000 O   0  0  0  0  0  0  0  0  0  0  0  0
    5.6512   -5.8785    0.0000 O   0  0  0  0  0  0  0  0  0  0  0  0
    4.9368   -5.4660    0.0000 C   0  0  0  0  0  0  0  0  0  0  0  0
    4.9368   -4.6410    0.0000 C   0  0  0  0  0  0  0  0  0  0  0  0
  1  2  1  0  0  0  0
  2  3  1  0  0  0  0
  3  4  1  0  0  0  0
  4  5  1  0  0  0  0
  5  6  1  0  0  0  0
  6  7  1  0  0  0  0
  7  8  1  0  0  0  0
  8  9  1  0  0  0  0
  9 10  1  0  0  0  0
 10 11  1  0  0  0  0
 11 12  1  0  0  0  0
 12 13  1  0  0  0  0
 13 14  1  0  0  0  0
  3 15  2  0  0  0  0
 16 17  1  0  0  0  0
 17 18  2  0  0  0  0
 18 19  1  0  0  0  0
 19 20  2  0  0  0  0
 20 21  1  0  0  0  0
 16 21  2  0  0  0  0
 22 23  1  0  0  0  0
 18 22  1  0  0  0  0
 19 24  1  0  0  0  0
  1 16  1  0  0  0  0
 26 27  1  0  0  0  0
 25 26  1  0  0  0  0
  5 25  1  1  0  0  0
M  END
>  <cdx:fragmentId>
1486

$$$$
