300598.cdx
  Mrv1902 05222410192D          

 14 15  0  0  0  0            999 V2000
    6.7034   -4.9423    0.0000 N   0  0  0  0  0  0  0  0  0  0  0  0
    7.4178   -5.3548    0.0000 C   0  0  0  0  0  0  0  0  0  0  0  0
    7.4178   -6.1798    0.0000 C   0  0  0  0  0  0  0  0  0  0  0  0
    6.7034   -6.5923    0.0000 C   0  0  0  0  0  0  0  0  0  0  0  0
    5.9889   -6.1798    0.0000 C   0  0  0  0  0  0  0  0  0  0  0  0
    5.2744   -6.5923    0.0000 C   0  0  0  0  0  0  0  0  0  0  0  0
    4.5600   -6.1798    0.0000 C   0  0  0  0  0  0  0  0  0  0  0  0
    4.5600   -5.3548    0.0000 C   0  0  0  0  0  0  0  0  0  0  0  0
    5.2744   -4.9423    0.0000 C   0  0  0  0  0  0  0  0  0  0  0  0
    5.9889   -5.3548    0.0000 C   0  0  0  0  0  0  0  0  0  0  0  0
    8.1323   -6.5923    0.0000 C   0  0  0  0  0  0  0  0  0  0  0  0
    6.7034   -7.4173    0.0000 O   0  0  0  0  0  0  0  0  0  0  0  0
    7.4178   -7.8298    0.0000 C   0  0  0  0  0  0  0  0  0  0  0  0
    3.8455   -4.9423    0.0000 Cl  0  0  0  0  0  0  0  0  0  0  0  0
  1  2  2  0  0  0  0
  2  3  1  0  0  0  0
  3  4  2  0  0  0  0
  4  5  1  0  0  0  0
  5  6  2  0  0  0  0
  6  7  1  0  0  0  0
  7  8  2  0  0  0  0
  8  9  1  0  0  0  0
  9 10  2  0  0  0  0
  1 10  1  0  0  0  0
  5 10  1  0  0  0  0
  3 11  1  0  0  0  0
 12 13  1  0  0  0  0
  4 12  1  0  0  0  0
  8 14  1  0  0  0  0
M  END
>  <cdx:fragmentId>
6077

$$$$
