300506.cdx
  Mrv1902 05222410232D          

 14 13  0  0  0  0            999 V2000
    3.4542   -5.3601    0.0000 C   0  0  0  0  0  0  0  0  0  0  0  0
    4.1686   -5.7726    0.0000 C   0  0  0  0  0  0  0  0  0  0  0  0
    4.8831   -5.3601    0.0000 C   0  0  0  0  0  0  0  0  0  0  0  0
    5.5976   -5.7726    0.0000 C   0  0  0  0  0  0  0  0  0  0  0  0
    6.3120   -5.3601    0.0000 C   0  0  0  0  0  0  0  0  0  0  0  0
    7.0265   -5.7726    0.0000 C   0  0  0  0  0  0  0  0  0  0  0  0
    7.7410   -5.3601    0.0000 C   0  0  0  0  0  0  0  0  0  0  0  0
    8.4555   -5.7726    0.0000 C   0  0  0  0  0  0  0  0  0  0  0  0
    9.1699   -5.3601    0.0000 C   0  0  0  0  0  0  0  0  0  0  0  0
    9.8844   -5.7726    0.0000 C   0  0  0  0  0  0  0  0  0  0  0  0
   10.5989   -5.3601    0.0000 C   0  0  0  0  0  0  0  0  0  0  0  0
   11.3133   -5.7726    0.0000 C   0  0  0  0  0  0  0  0  0  0  0  0
    7.0265   -6.5976    0.0000 C   0  0  0  0  0  0  0  0  0  0  0  0
    5.5976   -6.5976    0.0000 C   0  0  0  0  0  0  0  0  0  0  0  0
  1  2  1  0  0  0  0
  2  3  1  0  0  0  0
  3  4  1  0  0  0  0
  4  5  1  0  0  0  0
  5  6  1  0  0  0  0
  6  7  1  0  0  0  0
  7  8  1  0  0  0  0
  8  9  1  0  0  0  0
  9 10  1  0  0  0  0
 10 11  1  0  0  0  0
 11 12  1  0  0  0  0
  6 13  1  0  0  0  0
  4 14  1  0  0  0  0
M  END
>  <cdx:fragmentId>
342

$$$$
