300502.cdx
  Mrv1902 05222410212D          

 22 23  0  0  0  0            999 V2000
    7.0061   -8.6729    0.0000 C   0  0  0  0  0  0  0  0  0  0  0  0
    6.2890   -9.0809    0.0000 C   0  0  0  0  0  0  0  0  0  0  0  0
    5.5772   -8.6639    0.0000 C   0  0  0  0  0  0  0  0  0  0  0  0
    4.8601   -9.0720    0.0000 C   0  0  0  0  0  0  0  0  0  0  0  0
    4.8550   -9.8969    0.0000 C   0  0  0  0  0  0  0  0  0  0  0  0
    5.5668  -10.3139    0.0000 C   0  0  0  0  0  0  0  0  0  0  0  0
    6.2839   -9.9059    0.0000 C   0  0  0  0  0  0  0  0  0  0  0  0
    4.1483   -8.6550    0.0000 O   0  0  0  0  0  0  0  0  0  0  0  0
    3.4312   -9.0630    0.0000 C   0  0  0  0  0  0  0  0  0  0  0  0
    8.4505   -6.2069    0.0000 C   0  0  0  0  0  0  0  0  0  0  0  0
    9.1624   -6.6238    0.0000 O   0  0  0  0  0  0  0  0  0  0  0  0
    8.4247  -10.3318    0.0000 C   0  0  0  0  0  0  0  0  0  0  0  0
    7.7128   -9.9148    0.0000 O   0  0  0  0  0  0  0  0  0  0  0  0
    7.7180   -9.0898    0.0000 C   0  0  0  0  0  0  0  0  0  0  0  0
   10.5861   -7.4577    0.0000 O   0  0  0  0  0  0  0  0  0  0  0  0
   10.5758   -9.1077    0.0000 O   0  0  0  0  0  0  0  0  0  0  0  0
    9.1469   -9.0988    0.0000 C   0  0  0  0  0  0  0  0  0  0  0  0
    8.4350   -8.6818    0.0000 C   0  0  0  0  0  0  0  0  0  0  0  0
    8.4402   -7.8568    0.0000 C   0  0  0  0  0  0  0  0  0  0  0  0
    9.1572   -7.4488    0.0000 C   0  0  0  0  0  0  0  0  0  0  0  0
    9.8691   -7.8658    0.0000 C   0  0  0  0  0  0  0  0  0  0  0  0
    9.8639   -8.6907    0.0000 C   0  0  0  0  0  0  0  0  0  0  0  0
 20 11  1  0  0  0  0
 11 10  1  0  0  0  0
 18 14  1  0  0  0  0
 14 13  1  0  0  0  0
 13 12  1  0  0  0  0
 21 15  1  0  0  0  0
 22 16  1  0  0  0  0
 22 17  2  0  0  0  0
 18 17  1  0  0  0  0
 19 18  2  0  0  0  0
 20 19  1  0  0  0  0
 21 20  2  0  0  0  0
 22 21  1  0  0  0  0
 14  1  1  0  0  0  0
  2  3  1  0  0  0  0
  3  4  2  0  0  0  0
  4  5  1  0  0  0  0
  5  6  2  0  0  0  0
  6  7  1  0  0  0  0
  2  7  2  0  0  0  0
  8  9  1  0  0  0  0
  4  8  1  0  0  0  0
  1  2  1  0  0  0  0
M  END
>  <cdx:fragmentId>
60

$$$$
