300513.cdx
  Mrv1902 05222410232D          

 42 47  0  0  0  0            999 V2000
    7.7164   -7.2145    0.0000 O   0  0  0  0  0  0  0  0  0  0  0  0
    8.2013   -6.5471    0.0000 C   0  0  0  0  0  0  0  0  0  0  0  0
    7.7164   -5.8796    0.0000 O   0  0  0  0  0  0  0  0  0  0  0  0
    6.9318   -6.1346    0.0000 C   0  0  0  0  0  0  0  0  0  0  0  0
    6.9318   -6.9596    0.0000 C   0  0  0  0  0  0  0  0  0  0  0  0
    6.2173   -5.7221    0.0000 C   0  0  0  0  0  0  0  0  0  0  0  0
    5.5028   -6.1346    0.0000 C   0  0  0  0  0  0  0  0  0  0  0  0
    5.5028   -6.9596    0.0000 C   0  0  0  0  0  0  0  0  0  0  0  0
    6.2173   -7.3721    0.0000 C   0  0  0  0  0  0  0  0  0  0  0  0
    2.8043   -6.5471    0.0000 O   0  0  0  0  0  0  0  0  0  0  0  0
    3.2893   -5.8796    0.0000 C   0  0  0  0  0  0  0  0  0  0  0  0
    4.0739   -6.1346    0.0000 C   0  0  1  0  0  0  0  0  0  0  0  0
    4.0739   -6.9596    0.0000 C   0  0  2  0  0  0  0  0  0  0  0  0
    3.2893   -7.2145    0.0000 C   0  0  0  0  0  0  0  0  0  0  0  0
    4.7884   -7.3721    0.0000 C   0  0  2  0  0  0  0  0  0  0  0  0
    4.7884   -5.7221    0.0000 C   0  0  2  0  0  0  0  0  0  0  0  0
    3.0343   -7.9991    0.0000 O   0  0  0  0  0  0  0  0  0  0  0  0
    4.7884   -4.8971    0.0000 O   0  0  0  0  0  0  0  0  0  0  0  0
    6.2173   -4.8971    0.0000 O   0  0  0  0  0  0  0  0  0  0  0  0
    5.5028   -4.4846    0.0000 C   0  0  2  0  0  0  0  0  0  0  0  0
    5.5028   -3.6596    0.0000 C   0  0  1  0  0  0  0  0  0  0  0  0
    6.2173   -3.2471    0.0000 C   0  0  2  0  0  0  0  0  0  0  0  0
    6.9318   -3.6596    0.0000 C   0  0  1  0  0  0  0  0  0  0  0  0
    6.9318   -4.4846    0.0000 C   0  0  1  0  0  0  0  0  0  0  0  0
    7.6462   -4.8971    0.0000 C   0  0  0  0  0  0  0  0  0  0  0  0
    8.3607   -4.4846    0.0000 O   0  0  0  0  0  0  0  0  0  0  0  0
    7.6462   -3.2471    0.0000 O   0  0  0  0  0  0  0  0  0  0  0  0
    6.2173   -2.4221    0.0000 O   0  0  0  0  0  0  0  0  0  0  0  0
    4.7884   -3.2471    0.0000 O   0  0  0  0  0  0  0  0  0  0  0  0
    4.7884   -8.1971    0.0000 C   0  0  0  0  0  0  0  0  0  0  0  0
    5.5028   -8.6096    0.0000 C   0  0  0  0  0  0  0  0  0  0  0  0
    5.5028   -9.4346    0.0000 C   0  0  0  0  0  0  0  0  0  0  0  0
    4.7884   -9.8471    0.0000 C   0  0  0  0  0  0  0  0  0  0  0  0
    4.0739   -9.4346    0.0000 C   0  0  0  0  0  0  0  0  0  0  0  0
    4.0739   -8.6096    0.0000 C   0  0  0  0  0  0  0  0  0  0  0  0
    3.3594   -9.8471    0.0000 O   0  0  0  0  0  0  0  0  0  0  0  0
    2.6450   -9.4346    0.0000 C   0  0  0  0  0  0  0  0  0  0  0  0
    6.2173   -9.8471    0.0000 O   0  0  0  0  0  0  0  0  0  0  0  0
    6.9318   -9.4346    0.0000 C   0  0  0  0  0  0  0  0  0  0  0  0
    4.7884  -10.6721    0.0000 O   0  0  0  0  0  0  0  0  0  0  0  0
    3.9877   -5.3141    0.0000 H   0  0  0  0  0  0  0  0  0  0  0  0
    3.9877   -7.7800    0.0000 H   0  0  0  0  0  0  0  0  0  0  0  0
  1  2  1  0  0  0  0
  2  3  1  0  0  0  0
  3  4  1  0  0  0  0
  4  5  1  0  0  0  0
  1  5  1  0  0  0  0
  6  7  1  0  0  0  0
  7  8  2  0  0  0  0
  8  9  1  0  0  0  0
  5  9  2  0  0  0  0
  4  6  2  0  0  0  0
 10 11  1  0  0  0  0
 11 12  1  0  0  0  0
 12 13  1  0  0  0  0
 13 14  1  0  0  0  0
 10 14  1  0  0  0  0
 12 16  1  0  0  0  0
 13 15  1  0  0  0  0
  7 16  1  0  0  0  0
  8 15  1  0  0  0  0
 14 17  2  0  0  0  0
 19 20  1  0  0  0  0
 20 21  1  0  0  0  0
 21 22  1  0  0  0  0
 22 23  1  0  0  0  0
 23 24  1  0  0  0  0
 19 24  1  0  0  0  0
 25 26  1  0  0  0  0
 24 25  1  1  0  0  0
 23 27  1  6  0  0  0
 22 28  1  1  0  0  0
 21 29  1  6  0  0  0
 20 18  1  1  0  0  0
 16 18  1  6  0  0  0
 30 31  1  0  0  0  0
 31 32  2  0  0  0  0
 32 33  1  0  0  0  0
 33 34  2  0  0  0  0
 34 35  1  0  0  0  0
 30 35  2  0  0  0  0
 36 37  1  0  0  0  0
 34 36  1  0  0  0  0
 38 39  1  0  0  0  0
 32 38  1  0  0  0  0
 33 40  1  0  0  0  0
 15 30  1  1  0  0  0
 12 41  1  1  0  0  0
 13 42  1  6  0  0  0
M  END
>  <cdx:fragmentId>
555

$$$$
