300516.cdx
  Mrv1902 05222410212D          

 23 25  0  0  0  0            999 V2000
    5.7997   -6.3408    0.0000 C   0  0  0  0  0  0  0  0  0  0  0  0
    5.7997   -7.1658    0.0000 C   0  0  0  0  0  0  0  0  0  0  0  0
    5.0852   -7.5783    0.0000 C   0  0  0  0  0  0  0  0  0  0  0  0
    4.3707   -7.1658    0.0000 C   0  0  0  0  0  0  0  0  0  0  0  0
    3.6563   -7.5783    0.0000 C   0  0  0  0  0  0  0  0  0  0  0  0
    2.9418   -7.1658    0.0000 C   0  0  0  0  0  0  0  0  0  0  0  0
    2.9418   -6.3408    0.0000 C   0  0  0  0  0  0  0  0  0  0  0  0
    3.6563   -5.9283    0.0000 C   0  0  0  0  0  0  0  0  0  0  0  0
    4.3707   -6.3408    0.0000 C   0  0  0  0  0  0  0  0  0  0  0  0
    5.0852   -5.9283    0.0000 O   0  0  0  0  0  0  0  0  0  0  0  0
    5.0852   -8.4033    0.0000 O   0  0  0  0  0  0  0  0  0  0  0  0
    6.5141   -5.9283    0.0000 C   0  0  0  0  0  0  0  0  0  0  0  0
    7.2286   -6.3408    0.0000 C   0  0  0  0  0  0  0  0  0  0  0  0
    7.9431   -5.9283    0.0000 C   0  0  0  0  0  0  0  0  0  0  0  0
    7.9431   -5.1033    0.0000 C   0  0  0  0  0  0  0  0  0  0  0  0
    7.2286   -4.6908    0.0000 C   0  0  0  0  0  0  0  0  0  0  0  0
    6.5141   -5.1033    0.0000 C   0  0  0  0  0  0  0  0  0  0  0  0
    8.6575   -4.6908    0.0000 O   0  0  0  0  0  0  0  0  0  0  0  0
    9.3720   -5.1033    0.0000 C   0  0  0  0  0  0  0  0  0  0  0  0
    2.2273   -5.9283    0.0000 O   0  0  0  0  0  0  0  0  0  0  0  0
    3.6563   -8.4033    0.0000 O   0  0  0  0  0  0  0  0  0  0  0  0
    6.5141   -7.5783    0.0000 O   0  0  0  0  0  0  0  0  0  0  0  0
    7.2286   -3.8658    0.0000 O   0  0  0  0  0  0  0  0  0  0  0  0
  1  2  2  0  0  0  0
  2  3  1  0  0  0  0
  3  4  1  0  0  0  0
  4  5  1  0  0  0  0
  5  6  2  0  0  0  0
  6  7  1  0  0  0  0
  7  8  2  0  0  0  0
  8  9  1  0  0  0  0
  4  9  2  0  0  0  0
  9 10  1  0  0  0  0
  1 10  1  0  0  0  0
  3 11  2  0  0  0  0
 12 13  1  0  0  0  0
 13 14  2  0  0  0  0
 14 15  1  0  0  0  0
 15 16  2  0  0  0  0
 16 17  1  0  0  0  0
 12 17  2  0  0  0  0
 18 19  1  0  0  0  0
 15 18  1  0  0  0  0
  1 12  1  0  0  0  0
  7 20  1  0  0  0  0
  5 21  1  0  0  0  0
  2 22  1  0  0  0  0
 16 23  1  0  0  0  0
M  END
>  <cdx:fragmentId>
780

$$$$
