300530.cdx
  Mrv1902 05222410252D          

 13 14  0  0  0  0            999 V2000
    8.0004   -4.8899    0.0000 O   0  0  0  0  0  0  0  0  0  0  0  0
    7.7455   -5.6745    0.0000 C   0  0  0  0  0  0  0  0  0  0  0  0
    6.9385   -5.8460    0.0000 C   0  0  0  0  0  0  0  0  0  0  0  0
    3.7555   -6.4731    0.0000 O   0  0  0  0  0  0  0  0  0  0  0  0
    5.8990   -7.7106    0.0000 C   0  0  0  0  0  0  0  0  0  0  0  0
    5.1845   -8.1231    0.0000 C   0  0  0  0  0  0  0  0  0  0  0  0
    4.4700   -7.7106    0.0000 C   0  0  0  0  0  0  0  0  0  0  0  0
    4.4700   -6.8856    0.0000 C   0  0  0  0  0  0  0  0  0  0  0  0
    5.1845   -6.4731    0.0000 C   0  0  0  0  0  0  0  0  0  0  0  0
    5.8990   -6.8856    0.0000 C   0  0  0  0  0  0  0  0  0  0  0  0
    6.6836   -6.6306    0.0000 C   0  0  0  0  0  0  0  0  0  0  0  0
    7.1685   -7.2981    0.0000 C   0  0  0  0  0  0  0  0  0  0  0  0
    6.6836   -7.9655    0.0000 N   0  0  0  0  0  0  0  0  0  0  0  0
 11  3  1  0  0  0  0
  2  1  1  0  0  0  0
  3  2  1  0  0  0  0
  8  4  1  0  0  0  0
 10  5  2  0  0  0  0
 13  5  1  0  0  0  0
  6  5  1  0  0  0  0
  7  6  2  0  0  0  0
  8  7  1  0  0  0  0
  9  8  2  0  0  0  0
 10  9  1  0  0  0  0
 11 10  1  0  0  0  0
 12 11  2  0  0  0  0
 13 12  1  0  0  0  0
M  END
>  <cdx:fragmentId>
1757

$$$$
