300528.cdx
  Mrv1902 05222410212D          

 19 18  0  0  0  0            999 V2000
    3.1506   -6.7533    0.0000 C   0  0  0  0  0  0  0  0  0  0  0  0
    2.4361   -7.1658    0.0000 C   0  0  0  0  0  0  0  0  0  0  0  0
    1.7217   -6.7533    0.0000 C   0  0  0  0  0  0  0  0  0  0  0  0
    1.0072   -7.1658    0.0000 C   0  0  0  0  0  0  0  0  0  0  0  0
    0.2927   -6.7533    0.0000 C   0  0  0  0  0  0  0  0  0  0  0  0
   -0.4218   -7.1658    0.0000 C   0  0  0  0  0  0  0  0  0  0  0  0
    3.1506   -5.9283    0.0000 O   0  0  0  0  0  0  0  0  0  0  0  0
    3.8651   -7.1658    0.0000 O   0  0  0  0  0  0  0  0  0  0  0  0
    4.5795   -6.7533    0.0000 C   0  0  0  0  0  0  0  0  0  0  0  0
    5.2940   -7.1658    0.0000 C   0  0  0  0  0  0  0  0  0  0  0  0
    6.0085   -6.7533    0.0000 C   0  0  0  0  0  0  0  0  0  0  0  0
    6.7230   -7.1658    0.0000 C   0  0  0  0  0  0  0  0  0  0  0  0
    7.4374   -6.7533    0.0000 C   0  0  0  0  0  0  0  0  0  0  0  0
    8.1519   -7.1658    0.0000 C   0  0  0  0  0  0  0  0  0  0  0  0
    8.8664   -6.7533    0.0000 C   0  0  0  0  0  0  0  0  0  0  0  0
    9.5808   -7.1658    0.0000 C   0  0  0  0  0  0  0  0  0  0  0  0
   10.2953   -6.7533    0.0000 C   0  0  0  0  0  0  0  0  0  0  0  0
   11.0098   -7.1658    0.0000 C   0  0  0  0  0  0  0  0  0  0  0  0
   11.7243   -6.7533    0.0000 C   0  0  0  0  0  0  0  0  0  0  0  0
  1  2  1  0  0  0  0
  2  3  1  0  0  0  0
  3  4  1  0  0  0  0
  4  5  1  0  0  0  0
  5  6  2  0  0  0  0
  1  7  2  0  0  0  0
  1  8  1  0  0  0  0
  9 10  1  0  0  0  0
 10 11  1  0  0  0  0
 11 12  1  0  0  0  0
 12 13  1  0  0  0  0
 13 14  1  0  0  0  0
 14 15  1  0  0  0  0
 15 16  1  0  0  0  0
 16 17  1  0  0  0  0
 17 18  1  0  0  0  0
 18 19  2  0  0  0  0
  8  9  1  0  0  0  0
M  END
>  <cdx:fragmentId>
1662

$$$$
