300579.cdx
  Mrv1902 05222410282D          

 20 22  0  0  0  0            999 V2000
    4.6868   -5.3419    0.0000 C   0  0  0  0  0  0  0  0  0  0  0  0
    4.6868   -6.1669    0.0000 C   0  0  0  0  0  0  0  0  0  0  0  0
    6.1157   -6.1669    0.0000 C   0  0  0  0  0  0  0  0  0  0  0  0
    6.1157   -5.3419    0.0000 C   0  0  0  0  0  0  0  0  0  0  0  0
    5.4013   -4.9294    0.0000 C   0  0  0  0  0  0  0  0  0  0  0  0
    6.8302   -6.5794    0.0000 C   0  0  0  0  0  0  0  0  0  0  0  0
    7.5447   -6.1669    0.0000 C   0  0  0  0  0  0  0  0  0  0  0  0
    7.5447   -5.3419    0.0000 C   0  0  0  0  0  0  0  0  0  0  0  0
    6.8302   -4.9294    0.0000 C   0  0  0  0  0  0  0  0  0  0  0  0
    8.2592   -4.9294    0.0000 C   0  0  0  0  0  0  0  0  0  0  0  0
    8.2592   -4.1044    0.0000 C   0  0  0  0  0  0  0  0  0  0  0  0
    7.5447   -3.6919    0.0000 C   0  0  0  0  0  0  0  0  0  0  0  0
    6.8302   -4.1044    0.0000 C   0  0  0  0  0  0  0  0  0  0  0  0
    6.1157   -4.5169    0.0000 C   0  0  0  0  0  0  0  0  0  0  0  0
    5.4013   -6.5794    0.0000 C   0  0  0  0  0  0  0  0  0  0  0  0
    4.8179   -7.1627    0.0000 C   0  0  0  0  0  0  0  0  0  0  0  0
    5.9846   -7.1627    0.0000 C   0  0  0  0  0  0  0  0  0  0  0  0
    8.9736   -3.6919    0.0000 C   0  0  0  0  0  0  0  0  0  0  0  0
    9.6881   -4.1044    0.0000 C   0  0  0  0  0  0  0  0  0  0  0  0
    8.9736   -2.8669    0.0000 C   0  0  0  0  0  0  0  0  0  0  0  0
  1  2  1  0  0  0  0
  3  4  1  0  0  0  0
  4  5  1  0  0  0  0
  5  1  1  0  0  0  0
  3  6  1  0  0  0  0
  6  7  1  0  0  0  0
  7  8  1  0  0  0  0
  8  9  2  0  0  0  0
  9  4  1  0  0  0  0
  8 10  1  0  0  0  0
 10 11  2  0  0  0  0
 11 12  1  0  0  0  0
 12 13  2  0  0  0  0
 13  9  1  0  0  0  0
  4 14  1  0  0  0  0
  2 15  1  0  0  0  0
  3 15  1  0  0  0  0
 15 16  1  0  0  0  0
 15 17  1  0  0  0  0
 11 18  1  0  0  0  0
 18 19  1  0  0  0  0
 18 20  1  0  0  0  0
M  END
>  <cdx:fragmentId>
201

$$$$
