300504.cdx
  Mrv1902 05222410222D          

 21 22  0  0  0  0            999 V2000
    8.5223   -8.0591    0.0000 O   0  0  0  0  0  0  0  0  0  0  0  0
    8.8734   -6.2989    0.0000 O   0  0  0  0  0  0  0  0  0  0  0  0
    5.7144   -7.5675    0.0000 O   0  0  0  0  0  0  0  0  0  0  0  0
    6.4340   -7.9710    0.0000 C   0  0  0  0  0  0  0  0  0  0  0  0
    7.8912   -4.8378    0.0000 O   0  0  0  0  0  0  0  0  0  0  0  0
    7.3078   -5.4211    0.0000 C   0  0  0  0  0  0  0  0  0  0  0  0
    7.4044   -6.2405    0.0000 C   0  0  2  0  0  0  0  0  0  0  0  0
    8.1240   -6.6439    0.0000 C   0  0  2  0  0  0  0  0  0  0  0  0
    7.9626   -7.4530    0.0000 C   0  0  1  0  0  0  0  0  0  0  0  0
    7.1433   -7.5496    0.0000 C   0  0  1  0  0  0  0  0  0  0  0  0
    6.7983   -6.8002    0.0000 O   0  0  0  0  0  0  0  0  0  0  0  0
    7.1536   -8.3745    0.0000 O   0  0  0  0  0  0  0  0  0  0  0  0
    4.2960   -8.4104    0.0000 C   0  0  0  0  0  0  0  0  0  0  0  0
    5.7559  -10.8673    0.0000 O   0  0  0  0  0  0  0  0  0  0  0  0
    7.1744  -10.0244    0.0000 O   0  0  0  0  0  0  0  0  0  0  0  0
    5.0156   -8.8139    0.0000 C   0  0  2  0  0  0  0  0  0  0  0  0
    5.0260   -9.6388    0.0000 C   0  0  0  0  0  0  0  0  0  0  0  0
    5.7456  -10.0423    0.0000 C   0  0  1  0  0  0  0  0  0  0  0  0
    6.4548   -9.6209    0.0000 C   0  0  2  0  0  0  0  0  0  0  0  0
    6.4444   -8.7959    0.0000 C   0  0  2  0  0  0  0  0  0  0  0  0
    5.7248   -8.3925    0.0000 O   0  0  0  0  0  0  0  0  0  0  0  0
 20 12  1  6  0  0  0
 10 12  1  1  0  0  0
  9  1  1  6  0  0  0
  8  2  1  1  0  0  0
 10  4  1  6  0  0  0
  4  3  1  0  0  0  0
  7  6  1  6  0  0  0
  6  5  1  0  0  0  0
 11  7  1  0  0  0  0
  8  7  1  0  0  0  0
  9  8  1  0  0  0  0
 10  9  1  0  0  0  0
 11 10  1  0  0  0  0
 16 13  1  1  0  0  0
 18 14  1  1  0  0  0
 19 15  1  6  0  0  0
 21 16  1  0  0  0  0
 17 16  1  0  0  0  0
 18 17  1  0  0  0  0
 19 18  1  0  0  0  0
 20 19  1  0  0  0  0
 21 20  1  0  0  0  0
M  END
>  <cdx:fragmentId>
253

$$$$
