300584.cdx
  Mrv1902 05222410272D          

 16 16  0  0  0  0            999 V2000
    6.2354   -7.5364    0.0000 C   0  0  0  0  0  0  0  0  0  0  0  0
    6.2354   -6.7114    0.0000 C   0  0  0  0  0  0  0  0  0  0  0  0
    5.5209   -6.2989    0.0000 C   0  0  0  0  0  0  0  0  0  0  0  0
    4.8064   -6.7114    0.0000 C   0  0  0  0  0  0  0  0  0  0  0  0
    4.0919   -6.2989    0.0000 C   0  0  0  0  0  0  0  0  0  0  0  0
    3.3775   -6.7114    0.0000 C   0  0  0  0  0  0  0  0  0  0  0  0
    3.3775   -7.5364    0.0000 C   0  0  0  0  0  0  0  0  0  0  0  0
    4.8064   -7.5364    0.0000 O   0  0  0  0  0  0  0  0  0  0  0  0
    6.9498   -6.2989    0.0000 C   0  0  0  0  0  0  0  0  0  0  0  0
    6.9498   -5.4739    0.0000 C   0  0  0  0  0  0  0  0  0  0  0  0
    7.6643   -5.0614    0.0000 C   0  0  0  0  0  0  0  0  0  0  0  0
    8.3788   -5.4739    0.0000 C   0  0  0  0  0  0  0  0  0  0  0  0
    8.3788   -6.2989    0.0000 C   0  0  0  0  0  0  0  0  0  0  0  0
    7.6643   -6.7114    0.0000 C   0  0  0  0  0  0  0  0  0  0  0  0
    9.0932   -5.0614    0.0000 C   0  0  0  0  0  0  0  0  0  0  0  0
    2.6630   -6.2989    0.0000 C   0  0  0  0  0  0  0  0  0  0  0  0
  1  2  2  0  0  0  0
  2  3  1  0  0  0  0
  3  4  1  0  0  0  0
  4  5  1  0  0  0  0
  5  6  2  0  0  0  0
  6  7  1  0  0  0  0
  4  8  1  0  0  0  0
  9 10  1  0  0  0  0
 10 11  1  0  0  0  0
 11 12  2  0  0  0  0
 12 13  1  0  0  0  0
 13 14  1  0  0  0  0
  9 14  1  0  0  0  0
 12 15  1  0  0  0  0
  2  9  1  0  0  0  0
  6 16  1  0  0  0  0
M  END
>  <cdx:fragmentId>
4873

$$$$
