30054.cdx
  Mrv1902 05222410182D          

 18 20  0  0  0  0            999 V2000
    7.0100   -7.3689    0.0000 C   0  0  0  0  0  0  0  0  0  0  0  0
    7.0100   -8.1939    0.0000 C   0  0  0  0  0  0  0  0  0  0  0  0
    7.7245   -8.6064    0.0000 C   0  0  0  0  0  0  0  0  0  0  0  0
    7.7245   -9.4314    0.0000 C   0  0  0  0  0  0  0  0  0  0  0  0
    7.0100   -9.8439    0.0000 C   0  0  0  0  0  0  0  0  0  0  0  0
    8.4390   -9.8439    0.0000 C   0  0  0  0  0  0  0  0  0  0  0  0
    7.0100  -10.6689    0.0000 O   0  0  0  0  0  0  0  0  0  0  0  0
    6.2956   -6.9564    0.0000 C   0  0  1  0  0  0  0  0  0  0  0  0
    5.5825   -6.7100    0.0000 C   0  0  0  0  0  0  0  0  0  0  0  0
    7.0100   -6.5439    0.0000 C   0  0  0  0  0  0  0  0  0  0  0  0
    4.9500   -7.1225    0.0000 C   0  0  2  0  0  0  0  0  0  0  0  0
    5.3625   -5.9400    0.0000 C   0  0  2  0  0  0  0  0  0  0  0  0
    6.3708   -5.8150    0.0000 C   0  0  0  0  0  0  0  0  0  0  0  0
    6.4625   -7.6725    0.0000 C   0  0  0  0  0  0  0  0  0  0  0  0
    5.9387   -5.6984    0.0000 C   0  0  0  0  0  0  0  0  0  0  0  0
    6.8043   -5.9664    0.0000 C   0  0  0  0  0  0  0  0  0  0  0  0
    3.9873   -7.3689    0.0000 H   0  0  0  0  0  0  0  0  0  0  0  0
    4.7018   -5.3626    0.0000 H   0  0  0  0  0  0  0  0  0  0  0  0
  1  2  1  0  0  0  0
  2  3  1  0  0  0  0
  3  4  2  0  0  0  0
  4  5  1  0  0  0  0
  4  6  1  0  0  0  0
  5  7  1  0  0  0  0
  8  9  1  0  0  0  0
  8 10  1  0  0  0  0
  9 11  1  0  0  0  0
  9 12  1  0  0  0  0
 12 11  1  0  0  0  0
 12 13  1  0  0  0  0
 10 13  1  0  0  0  0
 10 14  1  0  0  0  0
 11 14  1  0  0  0  0
  8  1  1  0  0  0  0
  9 15  1  0  0  0  0
  8 16  1  6  0  0  0
 11 17  1  1  0  0  0
 12 18  1  1  0  0  0
M  END
>  <cdx:fragmentId>
46

$$$$
