300542.cdx
  Mrv1902 05222410272D          

 19 20  0  0  0  0            999 V2000
    7.6149   -4.3295    0.0000 C   0  0  0  0  0  0  0  0  0  0  0  0
    7.6149   -5.1545    0.0000 C   0  0  0  0  0  0  0  0  0  0  0  0
    6.9004   -5.5670    0.0000 C   0  0  0  0  0  0  0  0  0  0  0  0
    6.1859   -5.1545    0.0000 C   0  0  0  0  0  0  0  0  0  0  0  0
    5.4715   -5.5670    0.0000 C   0  0  0  0  0  0  0  0  0  0  0  0
    4.7570   -5.1545    0.0000 C   0  0  0  0  0  0  0  0  0  0  0  0
    4.7570   -4.3295    0.0000 C   0  0  0  0  0  0  0  0  0  0  0  0
    5.4715   -3.9170    0.0000 C   0  0  0  0  0  0  0  0  0  0  0  0
    6.1859   -4.3295    0.0000 C   0  0  0  0  0  0  0  0  0  0  0  0
    6.9004   -3.9170    0.0000 O   0  0  0  0  0  0  0  0  0  0  0  0
    8.3294   -3.9170    0.0000 O   0  0  0  0  0  0  0  0  0  0  0  0
    5.4715   -6.3920    0.0000 O   0  0  0  0  0  0  0  0  0  0  0  0
    4.7570   -6.8045    0.0000 C   0  0  0  0  0  0  0  0  0  0  0  0
    4.7570   -7.6295    0.0000 C   0  0  0  0  0  0  0  0  0  0  0  0
    4.0425   -8.0420    0.0000 C   0  0  0  0  0  0  0  0  0  0  0  0
    4.0425   -8.8670    0.0000 C   0  0  0  0  0  0  0  0  0  0  0  0
    3.3281   -7.6295    0.0000 C   0  0  0  0  0  0  0  0  0  0  0  0
    4.0425   -3.9170    0.0000 O   0  0  0  0  0  0  0  0  0  0  0  0
    3.3281   -4.3295    0.0000 C   0  0  0  0  0  0  0  0  0  0  0  0
  1  2  1  0  0  0  0
  2  3  2  0  0  0  0
  3  4  1  0  0  0  0
  4  5  1  0  0  0  0
  5  6  2  0  0  0  0
  6  7  1  0  0  0  0
  7  8  2  0  0  0  0
  8  9  1  0  0  0  0
  4  9  2  0  0  0  0
  9 10  1  0  0  0  0
  1 10  1  0  0  0  0
  1 11  2  0  0  0  0
 13 14  1  0  0  0  0
 14 15  2  0  0  0  0
 15 16  1  0  0  0  0
 12 13  1  0  0  0  0
 15 17  1  0  0  0  0
  5 12  1  0  0  0  0
 18 19  1  0  0  0  0
  7 18  1  0  0  0  0
M  END
>  <cdx:fragmentId>
2504

$$$$
