300559.cdx
  Mrv1902 05222410202D          

 13 14  0  0  0  0            999 V2000
    7.2577   -5.5670    0.0000 C   0  0  0  0  0  0  0  0  0  0  0  0
    7.2577   -6.3920    0.0000 C   0  0  0  0  0  0  0  0  0  0  0  0
    6.5432   -6.8045    0.0000 C   0  0  0  0  0  0  0  0  0  0  0  0
    5.8287   -6.3920    0.0000 C   0  0  0  0  0  0  0  0  0  0  0  0
    5.1142   -6.8045    0.0000 C   0  0  0  0  0  0  0  0  0  0  0  0
    4.3998   -6.3920    0.0000 C   0  0  0  0  0  0  0  0  0  0  0  0
    4.3998   -5.5670    0.0000 C   0  0  0  0  0  0  0  0  0  0  0  0
    5.1142   -5.1545    0.0000 C   0  0  0  0  0  0  0  0  0  0  0  0
    5.8287   -5.5670    0.0000 C   0  0  0  0  0  0  0  0  0  0  0  0
    6.5432   -5.1545    0.0000 O   0  0  0  0  0  0  0  0  0  0  0  0
    7.9721   -5.1545    0.0000 O   0  0  0  0  0  0  0  0  0  0  0  0
    3.6853   -5.1545    0.0000 C   0  0  0  0  0  0  0  0  0  0  0  0
    5.1142   -7.6295    0.0000 C   0  0  0  0  0  0  0  0  0  0  0  0
  1  2  1  0  0  0  0
  2  3  1  0  0  0  0
  3  4  1  0  0  0  0
  4  5  1  0  0  0  0
  5  6  1  0  0  0  0
  6  7  1  0  0  0  0
  7  8  1  0  0  0  0
  8  9  1  0  0  0  0
  4  9  1  0  0  0  0
  9 10  1  0  0  0  0
  1 10  1  0  0  0  0
  1 11  2  0  0  0  0
  7 12  1  0  0  0  0
  5 13  1  0  0  0  0
M  END
>  <cdx:fragmentId>
3633

$$$$
