300596.cdx
  Mrv1902 05222410262D          

 25 26  0  0  0  0            999 V2000
    6.2956   -9.0469    0.0000 C   0  0  2  0  0  0  0  0  0  0  0  0
    5.8079   -9.7124    0.0000 C   0  0  0  0  0  0  0  0  0  0  0  0
    6.2902  -10.3818    0.0000 C   0  0  0  0  0  0  0  0  0  0  0  0
    7.0758  -10.1300    0.0000 N   0  0  0  0  0  0  0  0  0  0  0  0
    7.0791   -9.3050    0.0000 C   0  0  2  0  0  0  0  0  0  0  0  0
    7.8594  -10.3881    0.0000 C   0  0  0  0  0  0  0  0  0  0  0  0
    8.3470   -9.7227    0.0000 C   0  0  0  0  0  0  0  0  0  0  0  0
    7.8648   -9.0533    0.0000 C   0  0  0  0  0  0  0  0  0  0  0  0
    6.0438   -8.2613    0.0000 O   0  0  0  0  0  0  0  0  0  0  0  0
    5.2375   -8.0865    0.0000 C   0  0  0  0  0  0  0  0  0  0  0  0
    4.6830   -8.6973    0.0000 O   0  0  0  0  0  0  0  0  0  0  0  0
    4.9858   -7.3008    0.0000 C   0  0  0  0  0  0  0  0  0  0  0  0
    8.1229   -8.2697    0.0000 C   0  0  0  0  0  0  0  0  0  0  0  0
    8.9306   -8.1014    0.0000 O   0  0  0  0  0  0  0  0  0  0  0  0
    9.1887   -7.3179    0.0000 C   0  0  0  0  0  0  0  0  0  0  0  0
    8.6391   -6.7025    0.0000 O   0  0  0  0  0  0  0  0  0  0  0  0
    9.9963   -7.1496    0.0000 C   0  0  0  0  0  0  0  0  0  0  0  0
   10.7932   -6.9361    0.0000 C   0  0  1  0  0  0  0  0  0  0  0  0
   10.1873   -7.9522    0.0000 O   0  0  0  0  0  0  0  0  0  0  0  0
    9.8054   -6.3470    0.0000 C   0  0  0  0  0  0  0  0  0  0  0  0
   10.4050   -5.7803    0.0000 C   0  0  0  0  0  0  0  0  0  0  0  0
    9.0148   -6.1111    0.0000 C   0  0  0  0  0  0  0  0  0  0  0  0
   11.3766   -7.5194    0.0000 C   0  0  0  0  0  0  0  0  0  0  0  0
   11.0068   -6.1392    0.0000 O   0  0  0  0  0  0  0  0  0  0  0  0
    7.0825   -8.4800    0.0000 H   0  0  0  0  0  0  0  0  0  0  0  0
  1  2  1  0  0  0  0
  2  3  1  0  0  0  0
  3  4  1  0  0  0  0
  4  5  1  0  0  0  0
  5  1  1  0  0  0  0
  4  6  1  0  0  0  0
  6  7  1  0  0  0  0
  7  8  2  0  0  0  0
  8  5  1  0  0  0  0
  1  9  1  1  0  0  0
  9 10  1  0  0  0  0
 10 11  2  0  0  0  0
 10 12  1  0  0  0  0
  8 13  1  0  0  0  0
 13 14  1  0  0  0  0
 14 15  1  0  0  0  0
 15 16  2  0  0  0  0
 15 17  1  0  0  0  0
 17 18  1  0  0  0  0
 17 19  1  1  0  0  0
 17 20  1  0  0  0  0
 20 21  1  0  0  0  0
 20 22  1  0  0  0  0
 18 23  1  0  0  0  0
 18 24  1  6  0  0  0
  5 25  1  6  0  0  0
M  END
>  <cdx:fragmentId>
5

$$$$
