300597.cdx
  Mrv1902 05222410262D          

 21 21  0  0  0  0            999 V2000
   13.0442   -7.2469    0.0000 O   0  0  0  0  0  0  0  0  0  0  0  0
   12.3297   -6.8344    0.0000 C   0  0  0  0  0  0  0  0  0  0  0  0
   11.6152   -7.2469    0.0000 C   0  0  0  0  0  0  0  0  0  0  0  0
   10.9007   -6.8344    0.0000 C   0  0  0  0  0  0  0  0  0  0  0  0
    7.3284   -9.7219    0.0000 C   0  0  0  0  0  0  0  0  0  0  0  0
    6.6139   -9.3094    0.0000 O   0  0  0  0  0  0  0  0  0  0  0  0
    4.4705   -8.0719    0.0000 C   0  0  0  0  0  0  0  0  0  0  0  0
    5.1850   -8.4844    0.0000 C   0  0  0  0  0  0  0  0  0  0  0  0
    5.8994   -8.0719    0.0000 O   0  0  0  0  0  0  0  0  0  0  0  0
    7.3284   -7.2469    0.0000 C   0  0  0  0  0  0  0  0  0  0  0  0
    6.6139   -8.4844    0.0000 C   0  0  2  0  0  0  0  0  0  0  0  0
    7.3284   -8.0719    0.0000 C   0  0  0  0  0  0  0  0  0  0  0  0
    8.0429   -8.4844    0.0000 O   0  0  0  0  0  0  0  0  0  0  0  0
   10.1863   -9.7219    0.0000 C   0  0  0  0  0  0  0  0  0  0  0  0
    9.4718   -9.3094    0.0000 O   0  0  0  0  0  0  0  0  0  0  0  0
    9.4718   -6.8344    0.0000 C   0  0  0  0  0  0  0  0  0  0  0  0
    8.7573   -7.2469    0.0000 C   0  0  0  0  0  0  0  0  0  0  0  0
    8.7573   -8.0719    0.0000 C   0  0  0  0  0  0  0  0  0  0  0  0
    9.4718   -8.4844    0.0000 C   0  0  0  0  0  0  0  0  0  0  0  0
   10.1863   -8.0719    0.0000 C   0  0  0  0  0  0  0  0  0  0  0  0
   10.1863   -7.2469    0.0000 C   0  0  0  0  0  0  0  0  0  0  0  0
  2  1  2  0  0  0  0
  3  2  1  0  0  0  0
  4  3  2  0  0  0  0
 21  4  1  0  0  0  0
  6  5  1  0  0  0  0
 11  6  1  6  0  0  0
  8  7  1  0  0  0  0
  9  8  1  0  0  0  0
 11  9  1  0  0  0  0
 12 10  2  0  0  0  0
 12 11  1  0  0  0  0
 13 12  1  0  0  0  0
 18 13  1  0  0  0  0
 15 14  1  0  0  0  0
 19 15  1  0  0  0  0
 16 21  1  0  0  0  0
 17 16  2  0  0  0  0
 18 17  1  0  0  0  0
 19 18  2  0  0  0  0
 20 19  1  0  0  0  0
 21 20  2  0  0  0  0
M  END
>  <cdx:fragmentId>
3798

$$$$
