300541.cdx
  Mrv1902 05222410262D          

 44 47  0  0  0  0            999 V2000
    9.3431   -4.1998    0.0000 C   0  0  0  0  0  0  0  0  0  0  0  0
    8.6286   -4.6123    0.0000 C   0  0  0  0  0  0  0  0  0  0  0  0
    7.9142   -4.1998    0.0000 C   0  0  0  0  0  0  0  0  0  0  0  0
    9.3431   -3.3748    0.0000 O   0  0  0  0  0  0  0  0  0  0  0  0
   10.0576   -4.6123    0.0000 O   0  0  0  0  0  0  0  0  0  0  0  0
    6.3065   -5.6043    0.0000 N   0  0  0  0  0  0  0  0  0  0  0  0
    7.1135   -5.4328    0.0000 C   0  0  0  0  0  0  0  0  0  0  0  0
    7.1997   -4.6123    0.0000 C   0  0  0  0  0  0  0  0  0  0  0  0
    6.4460   -4.2767    0.0000 C   0  0  0  0  0  0  0  0  0  0  0  0
    5.8940   -4.8898    0.0000 C   0  0  0  0  0  0  0  0  0  0  0  0
    5.0735   -4.8036    0.0000 O   0  0  0  0  0  0  0  0  0  0  0  0
    6.2745   -3.4698    0.0000 C   0  0  0  0  0  0  0  0  0  0  0  0
    7.7266   -5.9848    0.0000 C   0  0  0  0  0  0  0  0  0  0  0  0
    6.8014   -7.1273    0.0000 N   0  0  0  0  0  0  0  0  0  0  0  0
    7.5550   -6.7918    0.0000 C   0  0  0  0  0  0  0  0  0  0  0  0
    8.1071   -7.4049    0.0000 C   0  0  0  0  0  0  0  0  0  0  0  0
    7.6946   -8.1193    0.0000 C   0  0  0  0  0  0  0  0  0  0  0  0
    6.8876   -7.9478    0.0000 C   0  0  0  0  0  0  0  0  0  0  0  0
    8.0301   -8.8730    0.0000 C   0  0  0  0  0  0  0  0  0  0  0  0
    6.2745   -8.4999    0.0000 C   0  0  0  0  0  0  0  0  0  0  0  0
    6.4460   -9.3068    0.0000 O   0  0  0  0  0  0  0  0  0  0  0  0
    4.8224   -8.7298    0.0000 N   0  0  0  0  0  0  0  0  0  0  0  0
    5.4899   -8.2449    0.0000 C   0  0  0  0  0  0  0  0  0  0  0  0
    5.2349   -7.4603    0.0000 C   0  0  0  0  0  0  0  0  0  0  0  0
    4.4099   -7.4603    0.0000 C   0  0  0  0  0  0  0  0  0  0  0  0
    4.1550   -8.2449    0.0000 C   0  0  0  0  0  0  0  0  0  0  0  0
    3.9250   -6.7929    0.0000 C   0  0  0  0  0  0  0  0  0  0  0  0
    3.3704   -8.4999    0.0000 C   0  0  0  0  0  0  0  0  0  0  0  0
    2.9161   -7.1016    0.0000 N   0  0  0  0  0  0  0  0  0  0  0  0
    2.7870   -7.9165    0.0000 C   0  0  0  0  0  0  0  0  0  0  0  0
    1.9722   -8.0455    0.0000 C   0  0  0  0  0  0  0  0  0  0  0  0
    1.5976   -7.3105    0.0000 C   0  0  0  0  0  0  0  0  0  0  0  0
    2.1810   -6.7271    0.0000 C   0  0  0  0  0  0  0  0  0  0  0  0
    2.0519   -5.9123    0.0000 O   0  0  0  0  0  0  0  0  0  0  0  0
    0.7828   -7.1814    0.0000 C   0  0  0  0  0  0  0  0  0  0  0  0
    1.5597   -8.7600    0.0000 C   0  0  0  0  0  0  0  0  0  0  0  0
    0.7347   -8.7600    0.0000 C   0  0  0  0  0  0  0  0  0  0  0  0
    5.7199   -6.7929    0.0000 C   0  0  0  0  0  0  0  0  0  0  0  0
    5.3843   -6.0392    0.0000 C   0  0  0  0  0  0  0  0  0  0  0  0
    8.9275   -7.3186    0.0000 C   0  0  0  0  0  0  0  0  0  0  0  0
    9.4125   -7.9861    0.0000 C   0  0  0  0  0  0  0  0  0  0  0  0
   10.2330   -7.8998    0.0000 C   0  0  0  0  0  0  0  0  0  0  0  0
   10.5685   -7.1462    0.0000 O   0  0  0  0  0  0  0  0  0  0  0  0
   10.7179   -8.5673    0.0000 O   0  0  0  0  0  0  0  0  0  0  0  0
  1  2  1  0  0  0  0
  2  3  1  0  0  0  0
  1  4  2  0  0  0  0
  1  5  1  0  0  0  0
  6  7  1  0  0  0  0
  7  8  1  0  0  0  0
  8  9  2  0  0  0  0
  9 10  1  0  0  0  0
  6 10  1  0  0  0  0
 10 11  2  0  0  0  0
  9 12  1  0  0  0  0
 14 15  1  0  0  0  0
 15 16  2  0  0  0  0
 16 17  1  0  0  0  0
 17 18  2  0  0  0  0
 14 18  1  0  0  0  0
 17 19  1  0  0  0  0
 20 21  2  0  0  0  0
 22 23  1  0  0  0  0
 23 24  2  0  0  0  0
 24 25  1  0  0  0  0
 25 26  2  0  0  0  0
 22 26  1  0  0  0  0
 20 23  1  0  0  0  0
 25 27  1  0  0  0  0
 29 30  1  0  0  0  0
 30 31  1  0  0  0  0
 31 32  2  0  0  0  0
 32 33  1  0  0  0  0
 29 33  1  0  0  0  0
 33 34  2  0  0  0  0
 32 35  1  0  0  0  0
 36 37  2  0  0  0  0
 31 36  1  0  0  0  0
 28 30  2  0  0  0  0
 26 28  1  0  0  0  0
 38 39  2  0  0  0  0
 24 38  1  0  0  0  0
 18 20  1  0  0  0  0
 40 41  1  0  0  0  0
 42 43  2  0  0  0  0
 42 44  1  0  0  0  0
 41 42  1  0  0  0  0
 16 40  1  0  0  0  0
 13 15  1  0  0  0  0
  7 13  2  0  0  0  0
  3  8  1  0  0  0  0
M  END
>  <cdx:fragmentId>
2416

$$$$
