300522.cdx
  Mrv1902 05222410232D          

 28 32  0  0  0  0            999 V2000
    6.1692   -7.8261    0.0000 C   0  0  0  0  0  0  0  0  0  0  0  0
    5.3442   -7.8261    0.0000 C   0  0  0  0  0  0  0  0  0  0  0  0
    4.8897   -8.5146    0.0000 C   0  0  0  0  0  0  0  0  0  0  0  0
    4.0680   -8.5886    0.0000 C   0  0  0  0  0  0  0  0  0  0  0  0
    3.4979   -7.9922    0.0000 C   0  0  0  0  0  0  0  0  0  0  0  0
    3.6086   -7.1747    0.0000 C   0  0  0  0  0  0  0  0  0  0  0  0
    4.3168   -6.7516    0.0000 C   0  0  0  0  0  0  0  0  0  0  0  0
    5.0892   -7.0415    0.0000 C   0  0  0  0  0  0  0  0  0  0  0  0
    5.7567   -6.5565    0.0000 C   0  0  0  0  0  0  0  0  0  0  0  0
    6.4241   -7.0415    0.0000 C   0  0  0  0  0  0  0  0  0  0  0  0
    7.2311   -6.8699    0.0000 C   0  0  0  0  0  0  0  0  0  0  0  0
    7.7831   -7.4830    0.0000 C   0  0  0  0  0  0  0  0  0  0  0  0
    7.5282   -8.2676    0.0000 C   0  0  0  0  0  0  0  0  0  0  0  0
    6.7212   -8.4392    0.0000 C   0  0  0  0  0  0  0  0  0  0  0  0
    6.0664   -7.1546    0.0000 O   0  0  0  0  0  0  0  0  0  0  0  0
    6.5722   -6.6991    0.0000 C   0  0  0  0  0  0  0  0  0  0  0  0
    4.5669   -7.9763    0.0000 C   0  0  0  0  0  0  0  0  0  0  0  0
    5.7567   -5.7315    0.0000 C   0  0  0  0  0  0  0  0  0  0  0  0
    5.0422   -5.3190    0.0000 O   0  0  0  0  0  0  0  0  0  0  0  0
    6.4711   -5.3190    0.0000 O   0  0  0  0  0  0  0  0  0  0  0  0
    7.6436   -6.1555    0.0000 C   0  0  0  0  0  0  0  0  0  0  0  0
    7.2311   -5.4410    0.0000 O   0  0  0  0  0  0  0  0  0  0  0  0
    8.4686   -6.1555    0.0000 O   0  0  0  0  0  0  0  0  0  0  0  0
    6.3763   -5.8977    0.0000 O   0  0  0  0  0  0  0  0  0  0  0  0
    2.8941   -6.7622    0.0000 C   0  0  0  0  0  0  0  0  0  0  0  0
    2.7132   -8.2472    0.0000 O   0  0  0  0  0  0  0  0  0  0  0  0
    6.4711   -4.4940    0.0000 C   0  0  0  0  0  0  0  0  0  0  0  0
    8.8811   -5.4410    0.0000 C   0  0  0  0  0  0  0  0  0  0  0  0
  1  2  1  0  0  0  0
  2  3  1  0  0  0  0
  3  4  1  0  0  0  0
  4  5  1  0  0  0  0
  5  6  1  0  0  0  0
  6  7  1  0  0  0  0
  7  8  1  0  0  0  0
  8  9  1  0  0  0  0
  9 10  1  0  0  0  0
 10 11  1  0  0  0  0
 11 12  1  0  0  0  0
 12 13  1  0  0  0  0
 13 14  1  0  0  0  0
 15 16  1  0  0  0  0
  1 14  1  0  0  0  0
  1 15  1  0  0  0  0
 11 16  1  0  0  0  0
  8 17  1  0  0  0  0
  5 17  1  0  0  0  0
  1 10  1  0  0  0  0
  2  8  1  0  0  0  0
 18 19  2  0  0  0  0
 18 20  1  0  0  0  0
  9 18  1  0  0  0  0
 21 22  2  0  0  0  0
 21 23  1  0  0  0  0
 11 21  1  0  0  0  0
 16 24  2  0  0  0  0
  6 25  2  0  0  0  0
  5 26  1  0  0  0  0
 20 27  1  0  0  0  0
 23 28  1  0  0  0  0
M  END
>  <cdx:fragmentId>
1173

$$$$
