300574.cdx
  Mrv1902 05222410182D          

 14 14  0  0  0  0            999 V2000
    9.2556   -6.5269    0.0000 C   0  0  0  0  0  0  0  0  0  0  0  0
    7.4432   -6.3074    0.0000 O   0  0  0  0  0  0  0  0  0  0  0  0
    8.8783   -5.7932    0.0000 O   0  0  0  0  0  0  0  0  0  0  0  0
    8.0543   -5.7531    0.0000 C   0  0  0  0  0  0  0  0  0  0  0  0
    7.8797   -4.9468    0.0000 C   0  0  0  0  0  0  0  0  0  0  0  0
    7.0557   -4.9067    0.0000 C   0  0  0  0  0  0  0  0  0  0  0  0
    6.9255   -2.0526    0.0000 O   0  0  0  0  0  0  0  0  0  0  0  0
    5.1592   -4.2983    0.0000 C   0  0  0  0  0  0  0  0  0  0  0  0
    5.3355   -2.4849    0.0000 C   0  0  0  0  0  0  0  0  0  0  0  0
    7.1608   -3.5037    0.0000 O   0  0  0  0  0  0  0  0  0  0  0  0
    6.6734   -2.8381    0.0000 C   0  0  0  0  0  0  0  0  0  0  0  0
    5.8898   -3.0960    0.0000 C   0  0  0  0  0  0  0  0  0  0  0  0
    5.8929   -3.9210    0.0000 C   0  0  0  0  0  0  0  0  0  0  0  0
    6.6784   -4.1730    0.0000 C   0  0  2  0  0  0  0  0  0  0  0  0
  3  1  1  0  0  0  0
  4  2  2  0  0  0  0
  4  3  1  0  0  0  0
  5  4  1  0  0  0  0
  6  5  1  0  0  0  0
 14  6  1  1  0  0  0
 11  7  2  0  0  0  0
 13  8  1  0  0  0  0
 12  9  1  0  0  0  0
 10 14  1  0  0  0  0
 11 10  1  0  0  0  0
 12 11  1  0  0  0  0
 13 12  2  0  0  0  0
 14 13  1  0  0  0  0
M  END
>  <cdx:fragmentId>
74

$$$$
