300512.cdx
  Mrv1902 05222410222D          

 15 16  0  0  0  0            999 V2000
    6.4601   -6.6948    0.0000 C   0  0  0  0  0  0  0  0  0  0  0  0
    5.8151   -7.2092    0.0000 C   0  0  0  0  0  0  0  0  0  0  0  0
    5.0107   -7.0256    0.0000 C   0  0  0  0  0  0  0  0  0  0  0  0
    4.6528   -6.2823    0.0000 C   0  0  0  0  0  0  0  0  0  0  0  0
    5.0107   -5.5390    0.0000 C   0  0  0  0  0  0  0  0  0  0  0  0
    5.8151   -5.3554    0.0000 C   0  0  0  0  0  0  0  0  0  0  0  0
    6.4601   -5.8698    0.0000 C   0  0  0  0  0  0  0  0  0  0  0  0
    7.2851   -5.8698    0.0000 C   0  0  0  0  0  0  0  0  0  0  0  0
    7.2851   -6.6948    0.0000 C   0  0  0  0  0  0  0  0  0  0  0  0
    5.9986   -8.0135    0.0000 C   0  0  0  0  0  0  0  0  0  0  0  0
    7.4986   -5.0729    0.0000 C   0  0  0  0  0  0  0  0  0  0  0  0
    8.0820   -5.6563    0.0000 C   0  0  0  0  0  0  0  0  0  0  0  0
    3.9383   -5.8698    0.0000 C   0  0  0  0  0  0  0  0  0  0  0  0
    3.9383   -6.6948    0.0000 C   0  0  0  0  0  0  0  0  0  0  0  0
    3.2239   -6.2823    0.0000 C   0  0  0  0  0  0  0  0  0  0  0  0
  1  2  1  0  0  0  0
  2  3  1  0  0  0  0
  3  4  1  0  0  0  0
  4  5  1  0  0  0  0
  5  6  1  0  0  0  0
  6  7  1  0  0  0  0
  7  8  1  0  0  0  0
  8  9  1  0  0  0  0
  1  9  1  0  0  0  0
  1  7  1  0  0  0  0
  2 10  2  0  0  0  0
  8 11  1  0  0  0  0
  8 12  1  0  0  0  0
  4 13  1  0  0  0  0
 14 15  2  0  0  0  0
  4 14  1  0  0  0  0
M  END
>  <cdx:fragmentId>
507

$$$$
