300505.cdx
  Mrv1902 05222410222D          

 12 13  0  0  0  0            999 V2000
    7.0162   -5.4671    0.0000 O   0  0  0  0  0  0  0  0  0  0  0  0
    7.5011   -6.1346    0.0000 C   0  0  0  0  0  0  0  0  0  0  0  0
    7.0162   -6.8020    0.0000 C   0  0  0  0  0  0  0  0  0  0  0  0
    6.2315   -6.5471    0.0000 C   0  0  0  0  0  0  0  0  0  0  0  0
    6.2315   -5.7221    0.0000 C   0  0  0  0  0  0  0  0  0  0  0  0
    5.5171   -5.3096    0.0000 C   0  0  0  0  0  0  0  0  0  0  0  0
    4.8026   -5.7221    0.0000 C   0  0  0  0  0  0  0  0  0  0  0  0
    4.8026   -6.5471    0.0000 C   0  0  0  0  0  0  0  0  0  0  0  0
    5.5171   -6.9596    0.0000 C   0  0  0  0  0  0  0  0  0  0  0  0
    7.2711   -7.5866    0.0000 O   0  0  0  0  0  0  0  0  0  0  0  0
    4.0881   -5.3096    0.0000 O   0  0  0  0  0  0  0  0  0  0  0  0
    5.5171   -7.7846    0.0000 O   0  0  0  0  0  0  0  0  0  0  0  0
  1  2  1  0  0  0  0
  2  3  1  0  0  0  0
  3  4  1  0  0  0  0
  4  5  1  0  0  0  0
  1  5  1  0  0  0  0
  6  7  1  0  0  0  0
  7  8  2  0  0  0  0
  8  9  1  0  0  0  0
  4  9  2  0  0  0  0
  5  6  2  0  0  0  0
  3 10  2  0  0  0  0
  7 11  1  0  0  0  0
  9 12  1  0  0  0  0
M  END
>  <cdx:fragmentId>
303

$$$$
