300593.cdx
  Mrv1902 05222410282D          

 33 36  0  0  0  0            999 V2000
    2.1859   -4.1546    0.0000 C   0  0  0  0  0  0  0  0  0  0  0  0
    1.4714   -4.5671    0.0000 C   0  0  0  0  0  0  0  0  0  0  0  0
    2.1859   -3.3296    0.0000 O   0  0  0  0  0  0  0  0  0  0  0  0
    2.9004   -4.5671    0.0000 O   0  0  0  0  0  0  0  0  0  0  0  0
    3.6149   -4.1546    0.0000 C   0  0  0  0  0  0  0  0  0  0  0  0
    5.0438   -4.1546    0.0000 O   0  0  0  0  0  0  0  0  0  0  0  0
    4.3293   -4.5671    0.0000 C   0  0  1  0  0  0  0  0  0  0  0  0
    4.3293   -5.3921    0.0000 C   0  0  2  0  0  0  0  0  0  0  0  0
    5.0438   -5.8046    0.0000 C   0  0  1  0  0  0  0  0  0  0  0  0
    5.7583   -5.3921    0.0000 C   0  0  2  0  0  0  0  0  0  0  0  0
    5.7583   -4.5671    0.0000 C   0  0  2  0  0  0  0  0  0  0  0  0
    6.4727   -4.1546    0.0000 O   0  0  0  0  0  0  0  0  0  0  0  0
   10.0451   -4.5671    0.0000 C   0  0  0  0  0  0  0  0  0  0  0  0
   10.0451   -5.3921    0.0000 C   0  0  0  0  0  0  0  0  0  0  0  0
    9.3306   -5.8046    0.0000 C   0  0  0  0  0  0  0  0  0  0  0  0
    8.6162   -5.3921    0.0000 C   0  0  0  0  0  0  0  0  0  0  0  0
    7.9017   -5.8046    0.0000 C   0  0  0  0  0  0  0  0  0  0  0  0
    7.1872   -5.3921    0.0000 C   0  0  0  0  0  0  0  0  0  0  0  0
    7.1872   -4.5671    0.0000 C   0  0  0  0  0  0  0  0  0  0  0  0
    7.9017   -4.1546    0.0000 C   0  0  0  0  0  0  0  0  0  0  0  0
    8.6162   -4.5671    0.0000 C   0  0  0  0  0  0  0  0  0  0  0  0
    9.3306   -4.1546    0.0000 O   0  0  0  0  0  0  0  0  0  0  0  0
    9.3306   -6.6296    0.0000 O   0  0  0  0  0  0  0  0  0  0  0  0
   10.7596   -5.8046    0.0000 C   0  0  0  0  0  0  0  0  0  0  0  0
   11.4740   -5.3921    0.0000 C   0  0  0  0  0  0  0  0  0  0  0  0
   12.1885   -5.8046    0.0000 C   0  0  0  0  0  0  0  0  0  0  0  0
   12.1885   -6.6296    0.0000 C   0  0  0  0  0  0  0  0  0  0  0  0
   11.4740   -7.0421    0.0000 C   0  0  0  0  0  0  0  0  0  0  0  0
   10.7596   -6.6296    0.0000 C   0  0  0  0  0  0  0  0  0  0  0  0
   12.9030   -7.0421    0.0000 O   0  0  0  0  0  0  0  0  0  0  0  0
    6.4727   -5.8046    0.0000 O   0  0  0  0  0  0  0  0  0  0  0  0
    5.0438   -6.6296    0.0000 O   0  0  0  0  0  0  0  0  0  0  0  0
    3.6149   -5.8046    0.0000 O   0  0  0  0  0  0  0  0  0  0  0  0
  1  2  1  0  0  0  0
  1  3  2  0  0  0  0
  1  4  1  0  0  0  0
  6  7  1  0  0  0  0
  7  8  1  0  0  0  0
  8  9  1  0  0  0  0
  9 10  1  0  0  0  0
 10 11  1  0  0  0  0
  6 11  1  0  0  0  0
 13 14  2  0  0  0  0
 14 15  1  0  0  0  0
 15 16  1  0  0  0  0
 16 17  1  0  0  0  0
 17 18  2  0  0  0  0
 18 19  1  0  0  0  0
 19 20  2  0  0  0  0
 20 21  1  0  0  0  0
 16 21  2  0  0  0  0
 21 22  1  0  0  0  0
 13 22  1  0  0  0  0
 15 23  2  0  0  0  0
 24 25  1  0  0  0  0
 25 26  2  0  0  0  0
 26 27  1  0  0  0  0
 27 28  2  0  0  0  0
 28 29  1  0  0  0  0
 24 29  2  0  0  0  0
 27 30  1  0  0  0  0
 14 24  1  0  0  0  0
 12 19  1  0  0  0  0
 11 12  1  1  0  0  0
 10 31  1  6  0  0  0
  9 32  1  1  0  0  0
  8 33  1  6  0  0  0
  7  5  1  1  0  0  0
  4  5  1  0  0  0  0
M  END
>  <cdx:fragmentId>
5768

$$$$
