300583.cdx
  Mrv1902 05222410262D          

 11 12  0  0  0  0            999 V2000
    6.9464   -5.5172    0.0000 C   0  0  0  0  0  0  0  0  0  0  0  0
    7.6609   -5.9297    0.0000 C   0  0  0  0  0  0  0  0  0  0  0  0
    7.6609   -6.7547    0.0000 C   0  0  0  0  0  0  0  0  0  0  0  0
    6.9464   -7.1672    0.0000 C   0  0  0  0  0  0  0  0  0  0  0  0
    6.2319   -6.7547    0.0000 C   0  0  0  0  0  0  0  0  0  0  0  0
    5.5175   -7.1672    0.0000 C   0  0  0  0  0  0  0  0  0  0  0  0
    4.8030   -6.7547    0.0000 C   0  0  0  0  0  0  0  0  0  0  0  0
    4.8030   -5.9297    0.0000 C   0  0  0  0  0  0  0  0  0  0  0  0
    5.5175   -5.5172    0.0000 C   0  0  0  0  0  0  0  0  0  0  0  0
    6.2319   -5.9297    0.0000 C   0  0  0  0  0  0  0  0  0  0  0  0
    4.0885   -7.1672    0.0000 C   0  0  0  0  0  0  0  0  0  0  0  0
  1  2  1  0  0  0  0
  2  3  1  0  0  0  0
  3  4  1  0  0  0  0
  4  5  1  0  0  0  0
  5  6  1  0  0  0  0
  6  7  2  0  0  0  0
  7  8  1  0  0  0  0
  8  9  2  0  0  0  0
  9 10  1  0  0  0  0
  1 10  1  0  0  0  0
  5 10  2  0  0  0  0
  7 11  1  0  0  0  0
M  END
>  <cdx:fragmentId>
4837

$$$$
