300531.cdx
  Mrv1902 05222410252D          

 28 30  0  0  0  0            999 V2000
    6.2354   -6.3408    0.0000 C   0  0  0  0  0  0  0  0  0  0  0  0
    6.2354   -7.1658    0.0000 C   0  0  0  0  0  0  0  0  0  0  0  0
    5.5209   -7.5783    0.0000 C   0  0  0  0  0  0  0  0  0  0  0  0
    4.8064   -7.1658    0.0000 C   0  0  0  0  0  0  0  0  0  0  0  0
    4.0919   -7.5783    0.0000 C   0  0  0  0  0  0  0  0  0  0  0  0
    3.3775   -7.1658    0.0000 C   0  0  0  0  0  0  0  0  0  0  0  0
    3.3775   -6.3408    0.0000 C   0  0  0  0  0  0  0  0  0  0  0  0
    4.0919   -5.9283    0.0000 C   0  0  0  0  0  0  0  0  0  0  0  0
    4.8064   -6.3408    0.0000 C   0  0  0  0  0  0  0  0  0  0  0  0
    5.5209   -5.9283    0.0000 O   0  0  0  0  0  0  0  0  0  0  0  0
    5.5209   -8.4033    0.0000 O   0  0  0  0  0  0  0  0  0  0  0  0
    4.0919   -5.1033    0.0000 O   0  0  0  0  0  0  0  0  0  0  0  0
    3.3775   -4.6908    0.0000 C   0  0  0  0  0  0  0  0  0  0  0  0
    2.6630   -5.9283    0.0000 O   0  0  0  0  0  0  0  0  0  0  0  0
    1.9485   -6.3408    0.0000 C   0  0  0  0  0  0  0  0  0  0  0  0
    6.9498   -7.5783    0.0000 O   0  0  0  0  0  0  0  0  0  0  0  0
    7.6643   -7.1658    0.0000 C   0  0  0  0  0  0  0  0  0  0  0  0
    4.0919   -8.4033    0.0000 O   0  0  0  0  0  0  0  0  0  0  0  0
    6.9498   -5.9283    0.0000 C   0  0  0  0  0  0  0  0  0  0  0  0
    7.6643   -6.3408    0.0000 C   0  0  0  0  0  0  0  0  0  0  0  0
    8.3788   -5.9283    0.0000 C   0  0  0  0  0  0  0  0  0  0  0  0
    8.3788   -5.1033    0.0000 C   0  0  0  0  0  0  0  0  0  0  0  0
    7.6643   -4.6908    0.0000 C   0  0  0  0  0  0  0  0  0  0  0  0
    6.9498   -5.1033    0.0000 C   0  0  0  0  0  0  0  0  0  0  0  0
    9.0932   -4.6908    0.0000 O   0  0  0  0  0  0  0  0  0  0  0  0
    9.8077   -5.1033    0.0000 C   0  0  0  0  0  0  0  0  0  0  0  0
    9.0932   -6.3408    0.0000 O   0  0  0  0  0  0  0  0  0  0  0  0
    9.8077   -5.9283    0.0000 C   0  0  0  0  0  0  0  0  0  0  0  0
  1  2  2  0  0  0  0
  2  3  1  0  0  0  0
  3  4  1  0  0  0  0
  4  5  1  0  0  0  0
  5  6  2  0  0  0  0
  6  7  1  0  0  0  0
  7  8  2  0  0  0  0
  8  9  1  0  0  0  0
  4  9  2  0  0  0  0
  9 10  1  0  0  0  0
  1 10  1  0  0  0  0
  3 11  2  0  0  0  0
 12 13  1  0  0  0  0
  8 12  1  0  0  0  0
 14 15  1  0  0  0  0
  7 14  1  0  0  0  0
 16 17  1  0  0  0  0
  2 16  1  0  0  0  0
  5 18  1  0  0  0  0
 19 20  1  0  0  0  0
 20 21  2  0  0  0  0
 21 22  1  0  0  0  0
 22 23  2  0  0  0  0
 23 24  1  0  0  0  0
 19 24  2  0  0  0  0
 25 26  1  0  0  0  0
 22 25  1  0  0  0  0
 27 28  1  0  0  0  0
 21 27  1  0  0  0  0
  1 19  1  0  0  0  0
M  END
>  <cdx:fragmentId>
1799

$$$$
