300543.cdx
  Mrv1902 05222410272D          

 25 27  0  0  0  0            999 V2000
    6.2354   -6.1346    0.0000 C   0  0  0  0  0  0  0  0  0  0  0  0
    6.2354   -6.9596    0.0000 C   0  0  0  0  0  0  0  0  0  0  0  0
    5.5209   -7.3721    0.0000 C   0  0  0  0  0  0  0  0  0  0  0  0
    4.8064   -6.9596    0.0000 C   0  0  0  0  0  0  0  0  0  0  0  0
    4.0919   -7.3721    0.0000 C   0  0  0  0  0  0  0  0  0  0  0  0
    3.3775   -6.9596    0.0000 C   0  0  0  0  0  0  0  0  0  0  0  0
    3.3775   -6.1346    0.0000 C   0  0  0  0  0  0  0  0  0  0  0  0
    4.0919   -5.7221    0.0000 C   0  0  0  0  0  0  0  0  0  0  0  0
    4.8064   -6.1346    0.0000 C   0  0  0  0  0  0  0  0  0  0  0  0
    5.5209   -5.7221    0.0000 O   0  0  0  0  0  0  0  0  0  0  0  0
    5.5209   -8.1971    0.0000 O   0  0  0  0  0  0  0  0  0  0  0  0
    2.6630   -5.7221    0.0000 O   0  0  0  0  0  0  0  0  0  0  0  0
    1.9485   -6.1346    0.0000 C   0  0  0  0  0  0  0  0  0  0  0  0
    2.6630   -7.3721    0.0000 O   0  0  0  0  0  0  0  0  0  0  0  0
    1.9485   -6.9596    0.0000 C   0  0  0  0  0  0  0  0  0  0  0  0
    6.9498   -5.7221    0.0000 C   0  0  0  0  0  0  0  0  0  0  0  0
    7.6643   -6.1346    0.0000 C   0  0  0  0  0  0  0  0  0  0  0  0
    8.3788   -5.7221    0.0000 C   0  0  0  0  0  0  0  0  0  0  0  0
    8.3788   -4.8971    0.0000 C   0  0  0  0  0  0  0  0  0  0  0  0
    7.6643   -4.4846    0.0000 C   0  0  0  0  0  0  0  0  0  0  0  0
    6.9498   -4.8971    0.0000 C   0  0  0  0  0  0  0  0  0  0  0  0
    9.0932   -4.4846    0.0000 O   0  0  0  0  0  0  0  0  0  0  0  0
    9.8077   -4.8971    0.0000 C   0  0  0  0  0  0  0  0  0  0  0  0
    9.0932   -6.1346    0.0000 O   0  0  0  0  0  0  0  0  0  0  0  0
    4.0919   -8.1971    0.0000 O   0  0  0  0  0  0  0  0  0  0  0  0
  1  2  1  0  0  0  0
  2  3  1  0  0  0  0
  3  4  1  0  0  0  0
  4  5  1  0  0  0  0
  5  6  2  0  0  0  0
  6  7  1  0  0  0  0
  7  8  2  0  0  0  0
  8  9  1  0  0  0  0
  4  9  2  0  0  0  0
  9 10  1  0  0  0  0
  1 10  1  0  0  0  0
  3 11  2  0  0  0  0
 12 13  1  0  0  0  0
  7 12  1  0  0  0  0
 14 15  1  0  0  0  0
  6 14  1  0  0  0  0
 16 17  1  0  0  0  0
 17 18  2  0  0  0  0
 18 19  1  0  0  0  0
 19 20  2  0  0  0  0
 20 21  1  0  0  0  0
 16 21  2  0  0  0  0
 22 23  1  0  0  0  0
 19 22  1  0  0  0  0
 18 24  1  0  0  0  0
  1 16  1  0  0  0  0
  5 25  1  0  0  0  0
M  END
>  <cdx:fragmentId>
2566

$$$$
