300527.cdx
  Mrv1902 05222410252D          

 24 25  0  0  0  0            999 V2000
    7.7947   -6.7533    0.0000 C   0  0  1  0  0  0  0  0  0  0  0  0
    7.7947   -7.5783    0.0000 C   0  0  0  0  0  0  0  0  0  0  0  0
    7.0802   -7.9908    0.0000 C   0  0  2  0  0  0  0  0  0  0  0  0
    6.3657   -7.5783    0.0000 C   0  0  1  0  0  0  0  0  0  0  0  0
    6.3657   -6.7533    0.0000 C   0  0  1  0  0  0  0  0  0  0  0  0
    7.0802   -6.3408    0.0000 C   0  0  0  0  0  0  0  0  0  0  0  0
    8.5091   -6.3408    0.0000 C   0  0  0  0  0  0  0  0  0  0  0  0
    8.5091   -5.5158    0.0000 O   0  0  0  0  0  0  0  0  0  0  0  0
    9.2236   -6.7533    0.0000 O   0  0  0  0  0  0  0  0  0  0  0  0
    5.6512   -6.3408    0.0000 O   0  0  0  0  0  0  0  0  0  0  0  0
    4.9368   -6.7533    0.0000 C   0  0  0  0  0  0  0  0  0  0  0  0
    4.2223   -6.3408    0.0000 C   0  0  0  0  0  0  0  0  0  0  0  0
    4.2223   -5.5158    0.0000 C   0  0  0  0  0  0  0  0  0  0  0  0
    3.5078   -5.1033    0.0000 C   0  0  0  0  0  0  0  0  0  0  0  0
    2.7934   -5.5158    0.0000 C   0  0  0  0  0  0  0  0  0  0  0  0
    2.7934   -6.3408    0.0000 C   0  0  0  0  0  0  0  0  0  0  0  0
    3.5078   -6.7533    0.0000 C   0  0  0  0  0  0  0  0  0  0  0  0
    4.9368   -7.5783    0.0000 O   0  0  0  0  0  0  0  0  0  0  0  0
    2.0789   -6.7533    0.0000 O   0  0  0  0  0  0  0  0  0  0  0  0
    2.0789   -5.1033    0.0000 O   0  0  0  0  0  0  0  0  0  0  0  0
    3.5078   -4.2783    0.0000 O   0  0  0  0  0  0  0  0  0  0  0  0
    5.6512   -7.9908    0.0000 O   0  0  0  0  0  0  0  0  0  0  0  0
    7.0802   -8.8158    0.0000 O   0  0  0  0  0  0  0  0  0  0  0  0
    7.7947   -5.9283    0.0000 O   0  0  0  0  0  0  0  0  0  0  0  0
  1  2  1  0  0  0  0
  2  3  1  0  0  0  0
  3  4  1  0  0  0  0
  4  5  1  0  0  0  0
  5  6  1  0  0  0  0
  1  6  1  0  0  0  0
  7  8  2  0  0  0  0
  7  9  1  0  0  0  0
  1  7  1  0  0  0  0
 11 12  1  0  0  0  0
 12 13  1  0  0  0  0
 13 14  2  0  0  0  0
 14 15  1  0  0  0  0
 15 16  2  0  0  0  0
 16 17  1  0  0  0  0
 12 17  2  0  0  0  0
 11 18  2  0  0  0  0
 16 19  1  0  0  0  0
 15 20  1  0  0  0  0
 14 21  1  0  0  0  0
 10 11  1  0  0  0  0
  5 10  1  6  0  0  0
  4 22  1  6  0  0  0
  3 23  1  1  0  0  0
  1 24  1  6  0  0  0
M  END
>  <cdx:fragmentId>
1591

$$$$
