300590.cdx
  Mrv1902 05222410272D          

 40 43  0  0  0  0            999 V2000
    8.3822   -5.4739    0.0000 C   0  0  2  0  0  0  0  0  0  0  0  0
    8.3822   -6.2989    0.0000 C   0  0  2  0  0  0  0  0  0  0  0  0
    9.0967   -6.7114    0.0000 C   0  0  2  0  0  0  0  0  0  0  0  0
    9.8112   -6.2989    0.0000 C   0  0  0  0  0  0  0  0  0  0  0  0
    9.8112   -5.4739    0.0000 C   0  0  0  0  0  0  0  0  0  0  0  0
    9.0967   -5.0614    0.0000 O   0  0  0  0  0  0  0  0  0  0  0  0
    7.6677   -6.7114    0.0000 C   0  0  1  0  0  0  0  0  0  0  0  0
    9.0967   -7.5364    0.0000 C   0  0  0  0  0  0  0  0  0  0  0  0
    8.3822   -7.9489    0.0000 C   0  0  0  0  0  0  0  0  0  0  0  0
    7.6677   -7.5364    0.0000 O   0  0  0  0  0  0  0  0  0  0  0  0
    9.8112   -7.9489    0.0000 C   0  0  0  0  0  0  0  0  0  0  0  0
    9.8112   -8.7739    0.0000 O   0  0  0  0  0  0  0  0  0  0  0  0
   10.5256   -7.5364    0.0000 O   0  0  0  0  0  0  0  0  0  0  0  0
    6.9533   -6.2989    0.0000 O   0  0  0  0  0  0  0  0  0  0  0  0
    5.5243   -6.2989    0.0000 O   0  0  0  0  0  0  0  0  0  0  0  0
    6.2388   -6.7114    0.0000 C   0  0  2  0  0  0  0  0  0  0  0  0
    6.2388   -7.5364    0.0000 C   0  0  1  0  0  0  0  0  0  0  0  0
    5.5243   -7.9489    0.0000 C   0  0  2  0  0  0  0  0  0  0  0  0
    4.8099   -7.5364    0.0000 C   0  0  1  0  0  0  0  0  0  0  0  0
    4.8099   -6.7114    0.0000 C   0  0  1  0  0  0  0  0  0  0  0  0
    4.0954   -6.2989    0.0000 C   0  0  0  0  0  0  0  0  0  0  0  0
    3.3809   -6.7114    0.0000 O   0  0  0  0  0  0  0  0  0  0  0  0
    2.6664   -6.2989    0.0000 C   0  0  0  0  0  0  0  0  0  0  0  0
    1.9520   -6.7114    0.0000 C   0  0  0  0  0  0  0  0  0  0  0  0
    1.2375   -6.2989    0.0000 C   0  0  0  0  0  0  0  0  0  0  0  0
    2.6664   -5.4739    0.0000 O   0  0  0  0  0  0  0  0  0  0  0  0
    1.2375   -5.4739    0.0000 C   0  0  0  0  0  0  0  0  0  0  0  0
    1.9520   -5.0614    0.0000 C   0  0  0  0  0  0  0  0  0  0  0  0
    1.9520   -4.2364    0.0000 C   0  0  0  0  0  0  0  0  0  0  0  0
    1.2375   -3.8239    0.0000 C   0  0  0  0  0  0  0  0  0  0  0  0
    0.5230   -4.2364    0.0000 C   0  0  0  0  0  0  0  0  0  0  0  0
    0.5230   -5.0614    0.0000 C   0  0  0  0  0  0  0  0  0  0  0  0
    4.0954   -7.9489    0.0000 O   0  0  0  0  0  0  0  0  0  0  0  0
    5.5243   -8.7739    0.0000 O   0  0  0  0  0  0  0  0  0  0  0  0
    6.9533   -7.9489    0.0000 O   0  0  0  0  0  0  0  0  0  0  0  0
   10.5256   -5.0614    0.0000 O   0  0  0  0  0  0  0  0  0  0  0  0
    7.6677   -5.0614    0.0000 C   0  0  0  0  0  0  0  0  0  0  0  0
    9.8112   -7.1239    0.0000 H   0  0  0  0  0  0  0  0  0  0  0  0
    7.6677   -5.8864    0.0000 H   0  0  0  0  0  0  0  0  0  0  0  0
   11.2401   -7.9489    0.0000 C   0  0  0  0  0  0  0  0  0  0  0  0
  1  2  1  0  0  0  0
  2  3  1  0  0  0  0
  3  4  1  0  0  0  0
  4  5  1  0  0  0  0
  5  6  1  0  0  0  0
  1  6  1  0  0  0  0
  8  9  2  0  0  0  0
  9 10  1  0  0  0  0
  7 10  1  0  0  0  0
  2  7  1  0  0  0  0
  3  8  1  0  0  0  0
 11 12  2  0  0  0  0
 11 13  1  0  0  0  0
  8 11  1  0  0  0  0
 15 16  1  0  0  0  0
 16 17  1  0  0  0  0
 17 18  1  0  0  0  0
 18 19  1  0  0  0  0
 19 20  1  0  0  0  0
 15 20  1  0  0  0  0
 23 24  1  0  0  0  0
 24 25  2  0  0  0  0
 23 26  2  0  0  0  0
 27 28  1  0  0  0  0
 28 29  2  0  0  0  0
 29 30  1  0  0  0  0
 30 31  2  0  0  0  0
 31 32  1  0  0  0  0
 27 32  2  0  0  0  0
 25 27  1  0  0  0  0
 22 23  1  0  0  0  0
 21 22  1  0  0  0  0
 20 21  1  1  0  0  0
 19 33  1  6  0  0  0
 18 34  1  1  0  0  0
 17 35  1  6  0  0  0
 16 14  1  1  0  0  0
  7 14  1  1  0  0  0
  5 36  2  0  0  0  0
  1 37  1  1  0  0  0
  3 38  1  1  0  0  0
  2 39  1  1  0  0  0
 13 40  1  0  0  0  0
M  END
>  <cdx:fragmentId>
5418

$$$$
