300582.cdx
  Mrv1902 05222410262D          

 26 28  0  0  0  0            999 V2000
    6.2354   -6.7094    0.0000 C   0  0  0  0  0  0  0  0  0  0  0  0
    6.2354   -7.5344    0.0000 C   0  0  0  0  0  0  0  0  0  0  0  0
    5.5209   -7.9469    0.0000 C   0  0  0  0  0  0  0  0  0  0  0  0
    4.8064   -7.5344    0.0000 C   0  0  0  0  0  0  0  0  0  0  0  0
    4.0919   -7.9469    0.0000 C   0  0  0  0  0  0  0  0  0  0  0  0
    3.3775   -7.5344    0.0000 C   0  0  0  0  0  0  0  0  0  0  0  0
    3.3775   -6.7094    0.0000 C   0  0  0  0  0  0  0  0  0  0  0  0
    4.0919   -6.2969    0.0000 C   0  0  0  0  0  0  0  0  0  0  0  0
    4.8064   -6.7094    0.0000 C   0  0  0  0  0  0  0  0  0  0  0  0
    5.5209   -6.2969    0.0000 O   0  0  0  0  0  0  0  0  0  0  0  0
    5.5209   -8.7719    0.0000 O   0  0  0  0  0  0  0  0  0  0  0  0
    2.6630   -7.9469    0.0000 O   0  0  0  0  0  0  0  0  0  0  0  0
    1.9485   -7.5344    0.0000 C   0  0  0  0  0  0  0  0  0  0  0  0
    6.9498   -6.2969    0.0000 C   0  0  0  0  0  0  0  0  0  0  0  0
    7.6643   -6.7094    0.0000 C   0  0  0  0  0  0  0  0  0  0  0  0
    8.3788   -6.2969    0.0000 C   0  0  0  0  0  0  0  0  0  0  0  0
    8.3788   -5.4719    0.0000 C   0  0  0  0  0  0  0  0  0  0  0  0
    7.6643   -5.0594    0.0000 C   0  0  0  0  0  0  0  0  0  0  0  0
    6.9498   -5.4719    0.0000 C   0  0  0  0  0  0  0  0  0  0  0  0
    7.6643   -4.2344    0.0000 O   0  0  0  0  0  0  0  0  0  0  0  0
    8.3788   -3.8219    0.0000 C   0  0  0  0  0  0  0  0  0  0  0  0
    9.0932   -6.7094    0.0000 O   0  0  0  0  0  0  0  0  0  0  0  0
    9.8077   -6.2969    0.0000 C   0  0  0  0  0  0  0  0  0  0  0  0
    9.0932   -5.0594    0.0000 O   0  0  0  0  0  0  0  0  0  0  0  0
    2.6630   -6.2969    0.0000 O   0  0  0  0  0  0  0  0  0  0  0  0
    4.0919   -8.7719    0.0000 O   0  0  0  0  0  0  0  0  0  0  0  0
  1  2  2  0  0  0  0
  2  3  1  0  0  0  0
  3  4  1  0  0  0  0
  4  5  1  0  0  0  0
  5  6  2  0  0  0  0
  6  7  1  0  0  0  0
  7  8  2  0  0  0  0
  8  9  1  0  0  0  0
  4  9  2  0  0  0  0
  9 10  1  0  0  0  0
  1 10  1  0  0  0  0
  3 11  2  0  0  0  0
 12 13  1  0  0  0  0
  6 12  1  0  0  0  0
 14 15  1  0  0  0  0
 15 16  2  0  0  0  0
 16 17  1  0  0  0  0
 17 18  2  0  0  0  0
 18 19  1  0  0  0  0
 14 19  2  0  0  0  0
 20 21  1  0  0  0  0
 18 20  1  0  0  0  0
 22 23  1  0  0  0  0
 16 22  1  0  0  0  0
 17 24  1  0  0  0  0
  1 14  1  0  0  0  0
  7 25  1  0  0  0  0
  5 26  1  0  0  0  0
M  END
>  <cdx:fragmentId>
4751

$$$$
