300551.cdx
  Mrv1902 05222410282D          

 25 27  0  0  0  0            999 V2000
    7.3629   -5.9696    0.0000 C   0  0  0  0  0  0  0  0  0  0  0  0
    7.3629   -6.7946    0.0000 C   0  0  0  0  0  0  0  0  0  0  0  0
    6.6484   -7.2071    0.0000 C   0  0  0  0  0  0  0  0  0  0  0  0
    5.9339   -6.7946    0.0000 C   0  0  0  0  0  0  0  0  0  0  0  0
    5.2194   -7.2071    0.0000 C   0  0  0  0  0  0  0  0  0  0  0  0
    4.5050   -6.7946    0.0000 C   0  0  0  0  0  0  0  0  0  0  0  0
    4.5050   -5.9696    0.0000 C   0  0  0  0  0  0  0  0  0  0  0  0
    5.2194   -5.5571    0.0000 C   0  0  0  0  0  0  0  0  0  0  0  0
    5.9339   -5.9696    0.0000 C   0  0  0  0  0  0  0  0  0  0  0  0
    6.6484   -5.5571    0.0000 O   0  0  0  0  0  0  0  0  0  0  0  0
    6.6484   -8.0321    0.0000 O   0  0  0  0  0  0  0  0  0  0  0  0
    3.7905   -5.5571    0.0000 O   0  0  0  0  0  0  0  0  0  0  0  0
    3.0760   -5.9696    0.0000 C   0  0  0  0  0  0  0  0  0  0  0  0
    3.7905   -7.2071    0.0000 O   0  0  0  0  0  0  0  0  0  0  0  0
    5.2194   -8.0321    0.0000 O   0  0  0  0  0  0  0  0  0  0  0  0
    8.0773   -5.5571    0.0000 C   0  0  0  0  0  0  0  0  0  0  0  0
    8.7918   -5.9696    0.0000 C   0  0  0  0  0  0  0  0  0  0  0  0
    9.5063   -5.5571    0.0000 C   0  0  0  0  0  0  0  0  0  0  0  0
    9.5063   -4.7321    0.0000 C   0  0  0  0  0  0  0  0  0  0  0  0
    8.7918   -4.3196    0.0000 C   0  0  0  0  0  0  0  0  0  0  0  0
    8.0773   -4.7321    0.0000 C   0  0  0  0  0  0  0  0  0  0  0  0
   10.2207   -4.3196    0.0000 O   0  0  0  0  0  0  0  0  0  0  0  0
   10.9352   -4.7321    0.0000 C   0  0  0  0  0  0  0  0  0  0  0  0
   10.2207   -5.9696    0.0000 O   0  0  0  0  0  0  0  0  0  0  0  0
   10.9352   -5.5571    0.0000 C   0  0  0  0  0  0  0  0  0  0  0  0
  1  2  2  0  0  0  0
  2  3  1  0  0  0  0
  3  4  1  0  0  0  0
  4  5  1  0  0  0  0
  5  6  2  0  0  0  0
  6  7  1  0  0  0  0
  7  8  2  0  0  0  0
  8  9  1  0  0  0  0
  4  9  2  0  0  0  0
  9 10  1  0  0  0  0
  1 10  1  0  0  0  0
  3 11  2  0  0  0  0
 12 13  1  0  0  0  0
  7 12  1  0  0  0  0
  6 14  1  0  0  0  0
  5 15  1  0  0  0  0
 16 17  1  0  0  0  0
 17 18  2  0  0  0  0
 18 19  1  0  0  0  0
 19 20  2  0  0  0  0
 20 21  1  0  0  0  0
 16 21  2  0  0  0  0
 22 23  1  0  0  0  0
 19 22  1  0  0  0  0
 24 25  1  0  0  0  0
 18 24  1  0  0  0  0
  1 16  1  0  0  0  0
M  END
>  <cdx:fragmentId>
2908

$$$$
