300525.cdx
  Mrv1902 05222410252D          

 30 32  0  0  0  0            999 V2000
    6.9404   -6.1810    0.0000 C   0  0  1  0  0  0  0  0  0  0  0  0
    7.6549   -5.7685    0.0000 C   0  0  1  0  0  0  0  0  0  0  0  0
    7.6549   -4.9435    0.0000 C   0  0  1  0  0  0  0  0  0  0  0  0
    6.9404   -4.5310    0.0000 C   0  0  0  0  0  0  0  0  0  0  0  0
    6.2259   -4.9435    0.0000 C   0  0  0  0  0  0  0  0  0  0  0  0
    6.2259   -5.7685    0.0000 O   0  0  0  0  0  0  0  0  0  0  0  0
    8.4395   -4.6885    0.0000 C   0  0  1  0  0  0  0  0  0  0  0  0
    8.9244   -5.3560    0.0000 C   0  0  1  0  0  0  0  0  0  0  0  0
    8.4395   -6.0234    0.0000 C   0  0  1  0  0  0  0  0  0  0  0  0
    6.9404   -3.7060    0.0000 C   0  0  0  0  0  0  0  0  0  0  0  0
    7.6549   -3.2935    0.0000 O   0  0  0  0  0  0  0  0  0  0  0  0
    6.2259   -3.2935    0.0000 O   0  0  0  0  0  0  0  0  0  0  0  0
    6.9404   -7.0060    0.0000 O   0  0  0  0  0  0  0  0  0  0  0  0
    5.5115   -7.0060    0.0000 O   0  0  0  0  0  0  0  0  0  0  0  0
    6.2259   -7.4185    0.0000 C   0  0  2  0  0  0  0  0  0  0  0  0
    6.2259   -8.2435    0.0000 C   0  0  1  0  0  0  0  0  0  0  0  0
    5.5115   -8.6560    0.0000 C   0  0  2  0  0  0  0  0  0  0  0  0
    4.7970   -8.2435    0.0000 C   0  0  1  0  0  0  0  0  0  0  0  0
    4.7970   -7.4185    0.0000 C   0  0  1  0  0  0  0  0  0  0  0  0
    4.0825   -7.0060    0.0000 C   0  0  0  0  0  0  0  0  0  0  0  0
    3.3681   -7.4185    0.0000 O   0  0  0  0  0  0  0  0  0  0  0  0
    4.0825   -8.6560    0.0000 O   0  0  0  0  0  0  0  0  0  0  0  0
    5.5115   -9.4810    0.0000 O   0  0  0  0  0  0  0  0  0  0  0  0
    6.9404   -8.6560    0.0000 O   0  0  0  0  0  0  0  0  0  0  0  0
    8.6945   -6.8080    0.0000 C   0  0  0  0  0  0  0  0  0  0  0  0
    9.7494   -5.3560    0.0000 O   0  0  0  0  0  0  0  0  0  0  0  0
    8.6945   -3.9039    0.0000 O   0  0  0  0  0  0  0  0  0  0  0  0
    7.7411   -4.1230    0.0000 H   0  0  0  0  0  0  0  0  0  0  0  0
    7.7411   -6.5889    0.0000 H   0  0  0  0  0  0  0  0  0  0  0  0
    6.2259   -2.4685    0.0000 C   0  0  0  0  0  0  0  0  0  0  0  0
  1  2  1  0  0  0  0
  2  3  1  0  0  0  0
  3  4  1  0  0  0  0
  4  5  2  0  0  0  0
  5  6  1  0  0  0  0
  1  6  1  0  0  0  0
  7  8  1  0  0  0  0
  8  9  1  0  0  0  0
  2  9  1  0  0  0  0
  3  7  1  0  0  0  0
 10 11  2  0  0  0  0
 10 12  1  0  0  0  0
  4 10  1  0  0  0  0
 14 15  1  0  0  0  0
 15 16  1  0  0  0  0
 16 17  1  0  0  0  0
 17 18  1  0  0  0  0
 18 19  1  0  0  0  0
 14 19  1  0  0  0  0
 20 21  1  0  0  0  0
 19 20  1  1  0  0  0
 18 22  1  6  0  0  0
 17 23  1  1  0  0  0
 16 24  1  6  0  0  0
 15 13  1  1  0  0  0
  1 13  1  6  0  0  0
  9 25  1  1  0  0  0
  8 26  1  6  0  0  0
  7 27  1  6  0  0  0
  3 28  1  6  0  0  0
  2 29  1  6  0  0  0
 12 30  1  0  0  0  0
M  END
>  <cdx:fragmentId>
1389

$$$$
