30050.cdx
  Mrv1902 05222410192D          

 16 15  0  0  0  0            999 V2000
    3.3525   -8.2626    0.0000 C   0  0  0  0  0  0  0  0  0  0  0  0
    4.0670   -8.6751    0.0000 C   0  0  0  0  0  0  0  0  0  0  0  0
    4.7815   -8.2626    0.0000 C   0  0  0  0  0  0  0  0  0  0  0  0
    5.4959   -8.6751    0.0000 C   0  0  0  0  0  0  0  0  0  0  0  0
    6.2104   -8.2626    0.0000 C   0  0  0  0  0  0  0  0  0  0  0  0
    6.9249   -8.6751    0.0000 C   0  0  0  0  0  0  0  0  0  0  0  0
    7.6394   -8.2626    0.0000 C   0  0  0  0  0  0  0  0  0  0  0  0
    8.3538   -8.6751    0.0000 C   0  0  0  0  0  0  0  0  0  0  0  0
    9.0683   -8.2626    0.0000 C   0  0  0  0  0  0  0  0  0  0  0  0
    9.7828   -8.6751    0.0000 C   0  0  0  0  0  0  0  0  0  0  0  0
   10.4972   -8.2626    0.0000 C   0  0  0  0  0  0  0  0  0  0  0  0
    4.0670   -9.5001    0.0000 C   0  0  0  0  0  0  0  0  0  0  0  0
    6.9249   -9.5001    0.0000 C   0  0  0  0  0  0  0  0  0  0  0  0
    9.7828   -9.5001    0.0000 C   0  0  0  0  0  0  0  0  0  0  0  0
   10.4972   -7.4376    0.0000 C   0  0  0  0  0  0  0  0  0  0  0  0
   11.2117   -7.0251    0.0000 O   0  0  0  0  0  0  0  0  0  0  0  0
  1  2  1  0  0  0  0
  2  3  2  0  0  0  0
  3  4  1  0  0  0  0
  4  5  1  0  0  0  0
  5  6  1  0  0  0  0
  6  7  2  0  0  0  0
  7  8  1  0  0  0  0
  8  9  1  0  0  0  0
  9 10  1  0  0  0  0
 10 11  2  0  0  0  0
  2 12  1  0  0  0  0
  6 13  1  0  0  0  0
 10 14  1  0  0  0  0
 11 15  1  0  0  0  0
 15 16  1  0  0  0  0
M  END
>  <cdx:fragmentId>
3

$$$$
