300567.cdx
  Mrv1902 05222410192D          

 17 17  0  0  0  0            999 V2000
    8.0537   -3.8977    0.0000 C   0  0  0  0  0  0  0  0  0  0  0  0
    8.7739   -4.3003    0.0000 C   0  0  0  0  0  0  0  0  0  0  0  0
    8.7853   -5.1252    0.0000 C   0  0  0  0  0  0  0  0  0  0  0  0
    8.0766   -5.5476    0.0000 C   0  0  0  0  0  0  0  0  0  0  0  0
    8.0880   -6.3725    0.0000 C   0  0  0  0  0  0  0  0  0  0  0  0
    7.3793   -6.7948    0.0000 C   0  0  0  0  0  0  0  0  0  0  0  0
    6.6592   -6.3923    0.0000 C   0  0  0  0  0  0  0  0  0  0  0  0
    7.3565   -5.1450    0.0000 O   0  0  0  0  0  0  0  0  0  0  0  0
    5.9619   -7.6395    0.0000 O   0  0  0  0  0  0  0  0  0  0  0  0
    7.4250  -10.0945    0.0000 C   0  0  0  0  0  0  0  0  0  0  0  0
    8.1108   -8.0223    0.0000 C   0  0  0  0  0  0  0  0  0  0  0  0
    8.1222   -8.8473    0.0000 C   0  0  0  0  0  0  0  0  0  0  0  0
    7.4135   -9.2696    0.0000 C   0  0  0  0  0  0  0  0  0  0  0  0
    6.6934   -8.8670    0.0000 C   0  0  0  0  0  0  0  0  0  0  0  0
    6.6820   -8.0421    0.0000 C   0  0  0  0  0  0  0  0  0  0  0  0
    7.3907   -7.6198    0.0000 C   0  0  0  0  0  0  0  0  0  0  0  0
    9.4826   -3.8780    0.0000 C   0  0  0  0  0  0  0  0  0  0  0  0
  6 16  1  0  0  0  0
 15  9  1  0  0  0  0
 13 10  1  0  0  0  0
 16 11  2  0  0  0  0
 12 11  1  0  0  0  0
 13 12  2  0  0  0  0
 14 13  1  0  0  0  0
 15 14  2  0  0  0  0
 16 15  1  0  0  0  0
  1  2  1  0  0  0  0
  2  3  2  0  0  0  0
  3  4  1  0  0  0  0
  4  5  1  0  0  0  0
  5  6  1  0  0  0  0
  6  7  1  0  0  0  0
  4  8  2  0  0  0  0
  2 17  1  0  0  0  0
M  END
>  <cdx:fragmentId>
3954

$$$$
