300532.cdx
  Mrv1902 05222410252D          

 13 14  0  0  0  0            999 V2000
    6.8112   -5.4384    0.0000 O   0  0  0  0  0  0  0  0  0  0  0  0
    7.2961   -6.1059    0.0000 C   0  0  0  0  0  0  0  0  0  0  0  0
    6.8112   -6.7733    0.0000 C   0  0  1  0  0  0  0  0  0  0  0  0
    6.0266   -6.5184    0.0000 C   0  0  0  0  0  0  0  0  0  0  0  0
    6.0266   -5.6934    0.0000 C   0  0  0  0  0  0  0  0  0  0  0  0
    5.3121   -5.2809    0.0000 C   0  0  0  0  0  0  0  0  0  0  0  0
    4.5976   -5.6934    0.0000 C   0  0  0  0  0  0  0  0  0  0  0  0
    4.5976   -6.5184    0.0000 C   0  0  0  0  0  0  0  0  0  0  0  0
    5.3121   -6.9309    0.0000 C   0  0  0  0  0  0  0  0  0  0  0  0
    3.8832   -6.9309    0.0000 O   0  0  0  0  0  0  0  0  0  0  0  0
    3.8832   -5.2809    0.0000 C   0  0  0  0  0  0  0  0  0  0  0  0
    7.0661   -7.5579    0.0000 C   0  0  0  0  0  0  0  0  0  0  0  0
    7.8731   -7.7295    0.0000 O   0  0  0  0  0  0  0  0  0  0  0  0
  1  2  1  0  0  0  0
  2  3  1  0  0  0  0
  3  4  1  0  0  0  0
  4  5  1  0  0  0  0
  1  5  1  0  0  0  0
  6  7  1  0  0  0  0
  7  8  2  0  0  0  0
  8  9  1  0  0  0  0
  4  9  2  0  0  0  0
  5  6  2  0  0  0  0
  8 10  1  0  0  0  0
  7 11  1  0  0  0  0
 12 13  1  0  0  0  0
  3 12  1  6  0  0  0
M  END
>  <cdx:fragmentId>
1892

$$$$
