300533.cdx
  Mrv1902 05222410252D          

 17 18  0  0  0  0            999 V2000
    7.8449   -5.9602    0.0000 C   0  0  0  0  0  0  0  0  0  0  0  0
    7.8373   -6.7867    0.0000 C   0  0  0  0  0  0  0  0  0  0  0  0
    7.3202   -5.3249    0.0000 C   0  0  0  0  0  0  0  0  0  0  0  0
    6.5077   -5.1721    0.0000 C   0  0  0  0  0  0  0  0  0  0  0  0
    5.7918   -5.5798    0.0000 C   0  0  0  0  0  0  0  0  0  0  0  0
    5.4940   -6.3492    0.0000 C   0  0  0  0  0  0  0  0  0  0  0  0
    5.7648   -7.1292    0.0000 C   0  0  0  0  0  0  0  0  0  0  0  0
    6.4750   -7.5482    0.0000 C   0  0  0  0  0  0  0  0  0  0  0  0
    7.2866   -7.4030    0.0000 C   0  0  0  0  0  0  0  0  0  0  0  0
    7.6925   -8.1213    0.0000 C   0  0  0  0  0  0  0  0  0  0  0  0
    4.6691   -6.3416    0.0000 N   0  0  0  0  0  0  0  0  0  0  0  0
    5.2138   -4.9911    0.0000 C   0  0  0  0  0  0  0  0  0  0  0  0
    8.6638   -6.7943    0.0000 C   0  0  0  0  0  0  0  0  0  0  0  0
    8.6714   -5.9678    0.0000 C   0  0  0  0  0  0  0  0  0  0  0  0
    8.6790   -5.1428    0.0000 C   0  0  0  0  0  0  0  0  0  0  0  0
    9.4964   -5.9753    0.0000 C   0  0  0  0  0  0  0  0  0  0  0  0
    4.0857   -6.9250    0.0000 O   0  0  0  0  0  0  0  0  0  0  0  0
  1  2  1  0  0  0  0
  1  3  1  0  0  0  0
  3  4  1  0  0  0  0
  4  5  1  0  0  0  0
  5  6  1  0  0  0  0
  6  7  1  0  0  0  0
  7  8  1  0  0  0  0
  8  9  1  0  0  0  0
  2  9  1  0  0  0  0
  9 10  2  0  0  0  0
  6 11  2  0  0  0  0
  5 12  2  0  0  0  0
  2 13  1  0  0  0  0
 13 14  1  0  0  0  0
 14  1  1  0  0  0  0
 14 15  1  0  0  0  0
 14 16  1  0  0  0  0
 11 17  1  0  0  0  0
M  END
>  <cdx:fragmentId>
739

$$$$
