300539.cdx
  Mrv1902 05222410222D          

 22 23  0  0  0  0            999 V2000
    6.4846   -9.2664    0.0000 C   0  0  0  0  0  0  0  0  0  0  0  0
    5.7701   -8.8539    0.0000 C   0  0  0  0  0  0  0  0  0  0  0  0
    5.0557   -9.2664    0.0000 C   0  0  0  0  0  0  0  0  0  0  0  0
    5.0557  -10.0914    0.0000 C   0  0  0  0  0  0  0  0  0  0  0  0
    5.7701  -10.5039    0.0000 C   0  0  0  0  0  0  0  0  0  0  0  0
    6.4846  -10.0914    0.0000 C   0  0  0  0  0  0  0  0  0  0  0  0
    7.1991   -8.8539    0.0000 O   0  0  0  0  0  0  0  0  0  0  0  0
    5.7701   -8.0289    0.0000 C   0  0  2  0  0  0  0  0  0  0  0  0
    4.3412   -8.0289    0.0000 C   0  0  0  0  0  0  0  0  0  0  0  0
    6.4846   -7.6164    0.0000 C   0  0  0  0  0  0  0  0  0  0  0  0
    6.4846   -6.7914    0.0000 C   0  0  0  0  0  0  0  0  0  0  0  0
    7.1991   -6.3789    0.0000 C   0  0  0  0  0  0  0  0  0  0  0  0
    7.9136   -6.7914    0.0000 C   0  0  0  0  0  0  0  0  0  0  0  0
    7.9136   -7.6164    0.0000 C   0  0  0  0  0  0  0  0  0  0  0  0
    7.1991   -8.0289    0.0000 C   0  0  0  0  0  0  0  0  0  0  0  0
    8.6280   -8.0289    0.0000 O   0  0  0  0  0  0  0  0  0  0  0  0
    9.3425   -7.6164    0.0000 C   0  0  0  0  0  0  0  0  0  0  0  0
    8.6280   -5.5539    0.0000 C   0  0  0  0  0  0  0  0  0  0  0  0
    5.7701   -6.3789    0.0000 O   0  0  0  0  0  0  0  0  0  0  0  0
    5.7701   -5.5539    0.0000 C   0  0  0  0  0  0  0  0  0  0  0  0
    5.0557   -7.6164    0.0000 C   0  0  0  0  0  0  0  0  0  0  0  0
    8.6280   -6.3789    0.0000 O   0  0  0  0  0  0  0  0  0  0  0  0
 21  9  2  0  0  0  0
 22 18  1  0  0  0  0
  1  2  1  0  0  0  0
  2  3  2  0  0  0  0
  3  4  1  0  0  0  0
  4  5  2  0  0  0  0
  5  6  1  0  0  0  0
  1  6  2  0  0  0  0
  1  7  1  0  0  0  0
  8 21  1  1  0  0  0
 10 11  1  0  0  0  0
 11 12  2  0  0  0  0
 12 13  1  0  0  0  0
 13 14  2  0  0  0  0
 14 15  1  0  0  0  0
 10 15  2  0  0  0  0
 16 17  1  0  0  0  0
 14 16  1  0  0  0  0
 13 22  1  0  0  0  0
 19 20  1  0  0  0  0
 11 19  1  0  0  0  0
  8 10  1  0  0  0  0
  2  8  1  0  0  0  0
M  END
>  <cdx:fragmentId>
25

$$$$
