300561.cdx
  Mrv1902 05222410182D          

 27 29  0  0  0  0            999 V2000
    6.2354   -5.9736    0.0000 C   0  0  0  0  0  0  0  0  0  0  0  0
    6.2354   -6.7986    0.0000 C   0  0  0  0  0  0  0  0  0  0  0  0
    5.5209   -7.2111    0.0000 C   0  0  0  0  0  0  0  0  0  0  0  0
    4.8064   -6.7986    0.0000 C   0  0  0  0  0  0  0  0  0  0  0  0
    4.0919   -7.2111    0.0000 C   0  0  0  0  0  0  0  0  0  0  0  0
    3.3775   -6.7986    0.0000 C   0  0  0  0  0  0  0  0  0  0  0  0
    3.3775   -5.9736    0.0000 C   0  0  0  0  0  0  0  0  0  0  0  0
    4.0919   -5.5611    0.0000 C   0  0  0  0  0  0  0  0  0  0  0  0
    4.8064   -5.9736    0.0000 C   0  0  0  0  0  0  0  0  0  0  0  0
    5.5209   -5.5611    0.0000 O   0  0  0  0  0  0  0  0  0  0  0  0
    5.5209   -8.0361    0.0000 O   0  0  0  0  0  0  0  0  0  0  0  0
    4.0919   -4.7361    0.0000 O   0  0  0  0  0  0  0  0  0  0  0  0
    3.3775   -4.3236    0.0000 C   0  0  0  0  0  0  0  0  0  0  0  0
    2.6630   -5.5611    0.0000 O   0  0  0  0  0  0  0  0  0  0  0  0
    1.9485   -5.9736    0.0000 C   0  0  0  0  0  0  0  0  0  0  0  0
    4.0919   -8.0361    0.0000 O   0  0  0  0  0  0  0  0  0  0  0  0
    3.3775   -8.4486    0.0000 C   0  0  0  0  0  0  0  0  0  0  0  0
    6.9498   -5.5611    0.0000 C   0  0  0  0  0  0  0  0  0  0  0  0
    7.6643   -5.9736    0.0000 C   0  0  0  0  0  0  0  0  0  0  0  0
    8.3788   -5.5611    0.0000 C   0  0  0  0  0  0  0  0  0  0  0  0
    8.3788   -4.7361    0.0000 C   0  0  0  0  0  0  0  0  0  0  0  0
    7.6643   -4.3236    0.0000 C   0  0  0  0  0  0  0  0  0  0  0  0
    6.9498   -4.7361    0.0000 C   0  0  0  0  0  0  0  0  0  0  0  0
    9.0932   -4.3236    0.0000 O   0  0  0  0  0  0  0  0  0  0  0  0
    9.8077   -4.7361    0.0000 C   0  0  0  0  0  0  0  0  0  0  0  0
    9.0932   -5.9736    0.0000 O   0  0  0  0  0  0  0  0  0  0  0  0
    9.8077   -5.5611    0.0000 C   0  0  0  0  0  0  0  0  0  0  0  0
  1  2  1  0  0  0  0
  2  3  1  0  0  0  0
  3  4  1  0  0  0  0
  4  5  1  0  0  0  0
  5  6  2  0  0  0  0
  6  7  1  0  0  0  0
  7  8  2  0  0  0  0
  8  9  1  0  0  0  0
  4  9  2  0  0  0  0
  9 10  1  0  0  0  0
  1 10  1  0  0  0  0
  3 11  2  0  0  0  0
 12 13  1  0  0  0  0
  8 12  1  0  0  0  0
 14 15  1  0  0  0  0
  7 14  1  0  0  0  0
 16 17  1  0  0  0  0
  5 16  1  0  0  0  0
 18 19  1  0  0  0  0
 19 20  2  0  0  0  0
 20 21  1  0  0  0  0
 21 22  2  0  0  0  0
 22 23  1  0  0  0  0
 18 23  2  0  0  0  0
 24 25  1  0  0  0  0
 21 24  1  0  0  0  0
 26 27  1  0  0  0  0
 20 26  1  0  0  0  0
  1 18  1  0  0  0  0
M  END
>  <cdx:fragmentId>
3759

$$$$
