300508.cdx
  Mrv1902 05222410242D          

 15 16  0  0  0  0            999 V2000
    8.0525   -3.7159    0.0000 N   0  0  0  0  0  0  0  0  0  0  0  0
    8.7670   -4.1284    0.0000 C   0  0  0  0  0  0  0  0  0  0  0  0
    8.7670   -4.9534    0.0000 C   0  0  0  0  0  0  0  0  0  0  0  0
    8.0525   -5.3659    0.0000 C   0  0  0  0  0  0  0  0  0  0  0  0
    7.3380   -4.9534    0.0000 C   0  0  0  0  0  0  0  0  0  0  0  0
    6.6236   -5.3659    0.0000 C   0  0  0  0  0  0  0  0  0  0  0  0
    5.9091   -4.9534    0.0000 C   0  0  0  0  0  0  0  0  0  0  0  0
    5.9091   -4.1284    0.0000 C   0  0  0  0  0  0  0  0  0  0  0  0
    6.6236   -3.7159    0.0000 C   0  0  0  0  0  0  0  0  0  0  0  0
    7.3380   -4.1284    0.0000 C   0  0  0  0  0  0  0  0  0  0  0  0
    9.4815   -3.7159    0.0000 O   0  0  0  0  0  0  0  0  0  0  0  0
    6.6236   -2.8909    0.0000 O   0  0  0  0  0  0  0  0  0  0  0  0
    5.9091   -2.4784    0.0000 C   0  0  0  0  0  0  0  0  0  0  0  0
    8.0525   -6.1909    0.0000 O   0  0  0  0  0  0  0  0  0  0  0  0
    8.7670   -6.6034    0.0000 C   0  0  0  0  0  0  0  0  0  0  0  0
  1  2  1  0  0  0  0
  2  3  1  0  0  0  0
  3  4  2  0  0  0  0
  4  5  1  0  0  0  0
  5  6  1  0  0  0  0
  6  7  2  0  0  0  0
  7  8  1  0  0  0  0
  8  9  2  0  0  0  0
  9 10  1  0  0  0  0
  1 10  1  0  0  0  0
  5 10  2  0  0  0  0
  2 11  2  0  0  0  0
 12 13  1  0  0  0  0
  9 12  1  0  0  0  0
 14 15  1  0  0  0  0
  4 14  1  0  0  0  0
M  END
>  <cdx:fragmentId>
385

$$$$
