300587.cdx
  Mrv1902 05222410282D          

 37 40  0  0  0  0            999 V2000
    8.5290   -4.0162    0.0000 C   0  0  0  0  0  0  0  0  0  0  0  0
    9.0811   -4.6293    0.0000 C   0  0  0  0  0  0  0  0  0  0  0  0
    9.8880   -4.4577    0.0000 C   0  0  0  0  0  0  0  0  0  0  0  0
   10.4401   -5.0708    0.0000 C   0  0  0  0  0  0  0  0  0  0  0  0
   10.1851   -5.8555    0.0000 C   0  0  0  0  0  0  0  0  0  0  0  0
    9.3782   -6.0270    0.0000 C   0  0  0  0  0  0  0  0  0  0  0  0
    8.8261   -5.4139    0.0000 C   0  0  0  0  0  0  0  0  0  0  0  0
    8.7840   -3.2316    0.0000 O   0  0  0  0  0  0  0  0  0  0  0  0
    7.7221   -4.1877    0.0000 O   0  0  0  0  0  0  0  0  0  0  0  0
   11.2470   -4.8993    0.0000 O   0  0  0  0  0  0  0  0  0  0  0  0
   11.7991   -5.5124    0.0000 C   0  0  0  0  0  0  0  0  0  0  0  0
   10.7372   -6.4686    0.0000 O   0  0  0  0  0  0  0  0  0  0  0  0
    5.9680   -6.4648    0.0000 C   0  0  1  0  0  0  0  0  0  0  0  0
    6.6825   -6.0523    0.0000 C   0  0  1  0  0  0  0  0  0  0  0  0
    6.6825   -5.2273    0.0000 C   0  0  1  0  0  0  0  0  0  0  0  0
    5.9680   -4.8148    0.0000 C   0  0  0  0  0  0  0  0  0  0  0  0
    5.2536   -5.2273    0.0000 C   0  0  0  0  0  0  0  0  0  0  0  0
    5.2536   -6.0523    0.0000 O   0  0  0  0  0  0  0  0  0  0  0  0
    7.4671   -4.9723    0.0000 C   0  0  1  0  0  0  0  0  0  0  0  0
    7.9520   -5.6398    0.0000 C   0  0  0  0  0  0  0  0  0  0  0  0
    7.4671   -6.3072    0.0000 C   0  0  1  0  0  0  0  0  0  0  0  0
    5.9680   -7.2898    0.0000 O   0  0  0  0  0  0  0  0  0  0  0  0
    4.5391   -7.2898    0.0000 O   0  0  0  0  0  0  0  0  0  0  0  0
    5.2536   -7.7023    0.0000 C   0  0  2  0  0  0  0  0  0  0  0  0
    5.2536   -8.5273    0.0000 C   0  0  1  0  0  0  0  0  0  0  0  0
    4.5391   -8.9398    0.0000 C   0  0  2  0  0  0  0  0  0  0  0  0
    3.8246   -8.5273    0.0000 C   0  0  1  0  0  0  0  0  0  0  0  0
    3.8246   -7.7023    0.0000 C   0  0  1  0  0  0  0  0  0  0  0  0
    3.1101   -7.2898    0.0000 C   0  0  0  0  0  0  0  0  0  0  0  0
    2.3957   -7.7023    0.0000 O   0  0  0  0  0  0  0  0  0  0  0  0
    3.1101   -8.9398    0.0000 O   0  0  0  0  0  0  0  0  0  0  0  0
    4.5391   -9.7648    0.0000 O   0  0  0  0  0  0  0  0  0  0  0  0
    5.9680   -8.9398    0.0000 O   0  0  0  0  0  0  0  0  0  0  0  0
    7.2956   -7.1142    0.0000 C   0  0  0  0  0  0  0  0  0  0  0  0
    8.0802   -6.8592    0.0000 O   0  0  0  0  0  0  0  0  0  0  0  0
    6.6825   -4.4023    0.0000 H   0  0  0  0  0  0  0  0  0  0  0  0
    6.6825   -6.8773    0.0000 H   0  0  0  0  0  0  0  0  0  0  0  0
  1  2  1  0  0  0  0
  2  3  1  0  0  0  0
  3  4  2  0  0  0  0
  4  5  1  0  0  0  0
  5  6  2  0  0  0  0
  6  7  1  0  0  0  0
  2  7  2  0  0  0  0
  1  8  2  0  0  0  0
  1  9  1  0  0  0  0
 10 11  1  0  0  0  0
  4 10  1  0  0  0  0
  5 12  1  0  0  0  0
 13 14  1  0  0  0  0
 14 15  1  0  0  0  0
 15 16  1  0  0  0  0
 16 17  2  0  0  0  0
 17 18  1  0  0  0  0
 13 18  1  0  0  0  0
 19 20  1  0  0  0  0
 20 21  1  0  0  0  0
 14 21  1  0  0  0  0
 15 19  1  0  0  0  0
 23 24  1  0  0  0  0
 24 25  1  0  0  0  0
 25 26  1  0  0  0  0
 26 27  1  0  0  0  0
 27 28  1  0  0  0  0
 23 28  1  0  0  0  0
 29 30  1  0  0  0  0
 28 29  1  1  0  0  0
 27 31  1  6  0  0  0
 26 32  1  1  0  0  0
 25 33  1  6  0  0  0
 24 22  1  1  0  0  0
 13 22  1  6  0  0  0
 21 34  1  0  0  0  0
 21 35  1  6  0  0  0
 19  9  1  6  0  0  0
 15 36  1  6  0  0  0
 14 37  1  6  0  0  0
M  END
>  <cdx:fragmentId>
5064

$$$$
