300534.cdx
  Mrv1902 05222410242D          

 17 18  0  0  0  0            999 V2000
    6.4566   -5.2079    0.0000 C   0  0  0  0  0  0  0  0  0  0  0  0
    7.1710   -5.6204    0.0000 C   0  0  0  0  0  0  0  0  0  0  0  0
    7.1710   -6.4454    0.0000 C   0  0  0  0  0  0  0  0  0  0  0  0
    6.4566   -6.8579    0.0000 C   0  0  0  0  0  0  0  0  0  0  0  0
    5.7421   -6.4454    0.0000 C   0  0  0  0  0  0  0  0  0  0  0  0
    5.0276   -6.8579    0.0000 C   0  0  0  0  0  0  0  0  0  0  0  0
    4.3131   -6.4454    0.0000 C   0  0  0  0  0  0  0  0  0  0  0  0
    4.3131   -5.6204    0.0000 C   0  0  0  0  0  0  0  0  0  0  0  0
    5.0276   -5.2079    0.0000 C   0  0  0  0  0  0  0  0  0  0  0  0
    5.7421   -5.6204    0.0000 C   0  0  0  0  0  0  0  0  0  0  0  0
    7.8855   -5.2079    0.0000 O   0  0  0  0  0  0  0  0  0  0  0  0
    3.5987   -6.8579    0.0000 C   0  0  0  0  0  0  0  0  0  0  0  0
    5.7421   -7.2704    0.0000 C   0  0  0  0  0  0  0  0  0  0  0  0
    6.0441   -4.4934    0.0000 C   0  0  0  0  0  0  0  0  0  0  0  0
    6.8691   -4.4934    0.0000 C   0  0  0  0  0  0  0  0  0  0  0  0
    5.0276   -7.6829    0.0000 C   0  0  0  0  0  0  0  0  0  0  0  0
    4.3131   -8.0954    0.0000 O   0  0  0  0  0  0  0  0  0  0  0  0
  1  2  1  0  0  0  0
  2  3  1  0  0  0  0
  3  4  1  0  0  0  0
  4  5  1  0  0  0  0
  5  6  1  0  0  0  0
  6  7  1  0  0  0  0
  7  8  1  0  0  0  0
  8  9  1  0  0  0  0
  9 10  1  0  0  0  0
  1 10  1  0  0  0  0
  5 10  1  0  0  0  0
  2 11  1  0  0  0  0
  7 12  2  0  0  0  0
  5 13  1  0  0  0  0
  1 14  1  0  0  0  0
  1 15  1  0  0  0  0
 16 17  1  0  0  0  0
  6 16  1  0  0  0  0
M  END
>  <cdx:fragmentId>
1934

$$$$
