300555.cdx
  Mrv1902 05222410262D          

 23 25  0  0  0  0            999 V2000
    6.7376   -6.1346    0.0000 C   0  0  0  0  0  0  0  0  0  0  0  0
    6.7376   -6.9596    0.0000 C   0  0  0  0  0  0  0  0  0  0  0  0
    6.0231   -7.3721    0.0000 C   0  0  0  0  0  0  0  0  0  0  0  0
    5.3086   -6.9596    0.0000 C   0  0  0  0  0  0  0  0  0  0  0  0
    4.5942   -7.3721    0.0000 C   0  0  0  0  0  0  0  0  0  0  0  0
    3.8797   -6.9596    0.0000 C   0  0  0  0  0  0  0  0  0  0  0  0
    3.8797   -6.1346    0.0000 C   0  0  0  0  0  0  0  0  0  0  0  0
    4.5942   -5.7221    0.0000 C   0  0  0  0  0  0  0  0  0  0  0  0
    5.3086   -6.1346    0.0000 C   0  0  0  0  0  0  0  0  0  0  0  0
    6.0231   -5.7221    0.0000 O   0  0  0  0  0  0  0  0  0  0  0  0
    6.0231   -8.1971    0.0000 O   0  0  0  0  0  0  0  0  0  0  0  0
    7.4520   -5.7221    0.0000 C   0  0  0  0  0  0  0  0  0  0  0  0
    7.4520   -4.8971    0.0000 C   0  0  0  0  0  0  0  0  0  0  0  0
    8.1665   -4.4846    0.0000 C   0  0  0  0  0  0  0  0  0  0  0  0
    8.8810   -4.8971    0.0000 C   0  0  0  0  0  0  0  0  0  0  0  0
    8.8810   -5.7221    0.0000 C   0  0  0  0  0  0  0  0  0  0  0  0
    8.1665   -6.1346    0.0000 C   0  0  0  0  0  0  0  0  0  0  0  0
    6.7376   -4.4846    0.0000 O   0  0  0  0  0  0  0  0  0  0  0  0
    6.0231   -4.8971    0.0000 C   0  0  0  0  0  0  0  0  0  0  0  0
    4.5942   -4.8971    0.0000 O   0  0  0  0  0  0  0  0  0  0  0  0
    3.8797   -4.4846    0.0000 C   0  0  0  0  0  0  0  0  0  0  0  0
    3.1652   -5.7221    0.0000 O   0  0  0  0  0  0  0  0  0  0  0  0
    4.5942   -8.1971    0.0000 O   0  0  0  0  0  0  0  0  0  0  0  0
  1  2  2  0  0  0  0
  2  3  1  0  0  0  0
  3  4  1  0  0  0  0
  4  5  1  0  0  0  0
  5  6  2  0  0  0  0
  6  7  1  0  0  0  0
  7  8  2  0  0  0  0
  8  9  1  0  0  0  0
  4  9  2  0  0  0  0
  9 10  1  0  0  0  0
  1 10  1  0  0  0  0
  3 11  2  0  0  0  0
 12 13  1  0  0  0  0
 13 14  2  0  0  0  0
 14 15  1  0  0  0  0
 15 16  2  0  0  0  0
 16 17  1  0  0  0  0
 12 17  2  0  0  0  0
 18 19  1  0  0  0  0
 13 18  1  0  0  0  0
  1 12  1  0  0  0  0
 20 21  1  0  0  0  0
  8 20  1  0  0  0  0
  7 22  1  0  0  0  0
  5 23  1  0  0  0  0
M  END
>  <cdx:fragmentId>
3158

$$$$
