300540.cdx
  Mrv1902 05222410262D          

 40 41  0  0  0  0            999 V2000
    8.7360   -7.7846    0.0000 O   0  0  0  0  0  0  0  0  0  0  0  0
    8.0215   -7.3721    0.0000 C   0  0  0  0  0  0  0  0  0  0  0  0
    7.3071   -7.7846    0.0000 C   0  0  0  0  0  0  0  0  0  0  0  0
    6.5926   -7.3721    0.0000 C   0  0  2  0  0  0  0  0  0  0  0  0
    5.8781   -7.7846    0.0000 C   0  0  1  0  0  0  0  0  0  0  0  0
    5.1637   -7.3721    0.0000 C   0  0  2  0  0  0  0  0  0  0  0  0
    5.1637   -6.5471    0.0000 C   0  0  2  0  0  0  0  0  0  0  0  0
    5.8781   -6.1346    0.0000 C   0  0  0  0  0  0  0  0  0  0  0  0
    5.8781   -5.3096    0.0000 C   0  0  2  0  0  0  0  0  0  0  0  0
    6.5926   -4.8971    0.0000 C   0  0  0  0  0  0  0  0  0  0  0  0
    7.3071   -5.3096    0.0000 C   0  0  0  0  0  0  0  0  0  0  0  0
    8.0215   -4.8971    0.0000 C   0  0  0  0  0  0  0  0  0  0  0  0
    8.7360   -5.3096    0.0000 C   0  0  0  0  0  0  0  0  0  0  0  0
    8.7360   -6.1346    0.0000 C   0  0  0  0  0  0  0  0  0  0  0  0
    9.4505   -6.5471    0.0000 C   0  0  1  0  0  0  0  0  0  0  0  0
    9.4505   -7.3721    0.0000 C   0  0  1  0  0  0  0  0  0  0  0  0
    8.0215   -6.5471    0.0000 O   0  0  0  0  0  0  0  0  0  0  0  0
    6.5926   -4.0721    0.0000 O   0  0  0  0  0  0  0  0  0  0  0  0
   10.1650   -6.1346    0.0000 C   0  0  0  0  0  0  0  0  0  0  0  0
    9.4505   -4.8971    0.0000 C   0  0  0  0  0  0  0  0  0  0  0  0
    5.1637   -4.8971    0.0000 C   0  0  0  0  0  0  0  0  0  0  0  0
    5.8781   -8.6096    0.0000 C   0  0  0  0  0  0  0  0  0  0  0  0
    6.5926   -6.5471    0.0000 O   0  0  0  0  0  0  0  0  0  0  0  0
   10.1650   -7.7846    0.0000 C   0  0  0  0  0  0  0  0  0  0  0  0
   10.8794   -7.3721    0.0000 C   0  0  0  0  0  0  0  0  0  0  0  0
    4.4492   -6.1346    0.0000 C   0  0  0  0  0  0  0  0  0  0  0  0
    4.4492   -5.3096    0.0000 C   0  0  0  0  0  0  0  0  0  0  0  0
    4.4492   -7.7846    0.0000 O   0  0  0  0  0  0  0  0  0  0  0  0
    3.7347   -6.5471    0.0000 O   0  0  0  0  0  0  0  0  0  0  0  0
    3.7347   -7.3721    0.0000 C   0  0  2  0  0  0  0  0  0  0  0  0
    3.0202   -7.7846    0.0000 C   0  0  1  0  0  0  0  0  0  0  0  0
    2.3058   -7.3721    0.0000 C   0  0  2  0  0  0  0  0  0  0  0  0
    2.3058   -6.5471    0.0000 C   0  0  1  0  0  0  0  0  0  0  0  0
    3.0202   -6.1346    0.0000 C   0  0  1  0  0  0  0  0  0  0  0  0
    3.0202   -5.3096    0.0000 C   0  0  0  0  0  0  0  0  0  0  0  0
    1.5913   -6.1346    0.0000 O   0  0  0  0  0  0  0  0  0  0  0  0
    3.0202   -8.6096    0.0000 O   0  0  0  0  0  0  0  0  0  0  0  0
    1.5913   -7.7846    0.0000 N   0  0  0  0  0  0  0  0  0  0  0  0
    1.5913   -8.6096    0.0000 C   0  0  0  0  0  0  0  0  0  0  0  0
    0.8768   -7.3721    0.0000 C   0  0  0  0  0  0  0  0  0  0  0  0
  1  2  1  0  0  0  0
  2  3  1  0  0  0  0
  3  4  1  0  0  0  0
  4  5  1  0  0  0  0
  5  6  1  0  0  0  0
  6  7  1  0  0  0  0
  7  8  1  0  0  0  0
  8  9  1  0  0  0  0
  9 10  1  0  0  0  0
 10 11  1  0  0  0  0
 11 12  2  0  0  0  0
 12 13  1  0  0  0  0
 13 14  2  0  0  0  0
 14 15  1  0  0  0  0
 15 16  1  0  0  0  0
  1 16  1  0  0  0  0
  2 17  2  0  0  0  0
 10 18  2  0  0  0  0
 15 19  1  6  0  0  0
 13 20  1  0  0  0  0
  9 21  1  1  0  0  0
  5 22  1  6  0  0  0
  4 23  1  6  0  0  0
 24 25  1  0  0  0  0
 16 24  1  1  0  0  0
 26 27  1  0  0  0  0
  7 26  1  1  0  0  0
 29 30  1  0  0  0  0
 30 31  1  0  0  0  0
 31 32  1  0  0  0  0
 32 33  1  0  0  0  0
 33 34  1  0  0  0  0
 29 34  1  0  0  0  0
 34 35  1  1  0  0  0
 33 36  1  6  0  0  0
 31 37  1  6  0  0  0
 38 39  1  0  0  0  0
 38 40  1  0  0  0  0
 32 38  1  1  0  0  0
 30 28  1  1  0  0  0
  6 28  1  1  0  0  0
M  END
>  <cdx:fragmentId>
2231

$$$$
