300503.cdx
  Mrv1902 05222410202D          

 16 16  0  0  0  0            999 V2000
    6.3657   -6.1359    0.0000 C   0  0  0  0  0  0  0  0  0  0  0  0
    6.3657   -6.9609    0.0000 C   0  0  0  0  0  0  0  0  0  0  0  0
    5.6512   -7.3734    0.0000 C   0  0  0  0  0  0  0  0  0  0  0  0
    4.9368   -6.9609    0.0000 C   0  0  0  0  0  0  0  0  0  0  0  0
    4.9368   -6.1359    0.0000 C   0  0  0  0  0  0  0  0  0  0  0  0
    5.6512   -5.7234    0.0000 C   0  0  0  0  0  0  0  0  0  0  0  0
    7.0802   -5.7234    0.0000 O   0  0  0  0  0  0  0  0  0  0  0  0
    5.6512   -4.8984    0.0000 C   0  0  0  0  0  0  0  0  0  0  0  0
    4.2223   -7.3734    0.0000 C   0  0  0  0  0  0  0  0  0  0  0  0
    4.2223   -8.1984    0.0000 C   0  0  0  0  0  0  0  0  0  0  0  0
    3.5078   -7.7859    0.0000 C   0  0  0  0  0  0  0  0  0  0  0  0
    3.5078   -6.9609    0.0000 C   0  0  0  0  0  0  0  0  0  0  0  0
    7.0802   -7.3734    0.0000 C   0  0  0  0  0  0  0  0  0  0  0  0
    7.7947   -7.7859    0.0000 C   0  0  0  0  0  0  0  0  0  0  0  0
    7.0802   -8.1984    0.0000 C   0  0  0  0  0  0  0  0  0  0  0  0
    7.7947   -6.9609    0.0000 C   0  0  0  0  0  0  0  0  0  0  0  0
  1  2  1  0  0  0  0
  2  3  2  0  0  0  0
  3  4  1  0  0  0  0
  4  5  2  0  0  0  0
  5  6  1  0  0  0  0
  1  6  2  0  0  0  0
  1  7  1  0  0  0  0
  6  8  1  0  0  0  0
  9 10  1  0  0  0  0
  9 12  1  0  0  0  0
  9 11  1  0  0  0  0
  4  9  1  0  0  0  0
 13 14  1  0  0  0  0
 13 16  1  0  0  0  0
 13 15  1  0  0  0  0
  2 13  1  0  0  0  0
M  END
>  <cdx:fragmentId>
183

$$$$
