300570.cdx
  Mrv1902 05222410202D          

 24 26  0  0  0  0            999 V2000
    4.8710   -5.6782    0.0000 N   0  0  0  0  0  0  0  0  0  0  0  0
    5.5855   -6.0907    0.0000 C   0  0  0  0  0  0  0  0  0  0  0  0
    5.5855   -6.9157    0.0000 C   0  0  0  0  0  0  0  0  0  0  0  0
    4.8710   -7.3282    0.0000 C   0  0  0  0  0  0  0  0  0  0  0  0
    4.1566   -6.9157    0.0000 C   0  0  0  0  0  0  0  0  0  0  0  0
    3.4421   -7.3282    0.0000 C   0  0  0  0  0  0  0  0  0  0  0  0
    2.7276   -6.9157    0.0000 C   0  0  0  0  0  0  0  0  0  0  0  0
    2.7276   -6.0907    0.0000 C   0  0  0  0  0  0  0  0  0  0  0  0
    3.4421   -5.6782    0.0000 C   0  0  0  0  0  0  0  0  0  0  0  0
    4.1566   -6.0907    0.0000 C   0  0  0  0  0  0  0  0  0  0  0  0
    6.3000   -7.3282    0.0000 C   0  0  0  0  0  0  0  0  0  0  0  0
    6.3000   -8.1532    0.0000 O   0  0  0  0  0  0  0  0  0  0  0  0
    7.0145   -6.9157    0.0000 N   0  0  0  0  0  0  0  0  0  0  0  0
    7.7289   -7.3282    0.0000 C   0  0  0  0  0  0  0  0  0  0  0  0
    9.8723   -6.9157    0.0000 C   0  0  0  0  0  0  0  0  0  0  0  0
    9.1579   -7.3282    0.0000 C   0  0  0  0  0  0  0  0  0  0  0  0
    8.4434   -6.9157    0.0000 C   0  0  0  0  0  0  0  0  0  0  0  0
    8.4434   -6.0907    0.0000 C   0  0  0  0  0  0  0  0  0  0  0  0
    9.1579   -5.6782    0.0000 C   0  0  0  0  0  0  0  0  0  0  0  0
    9.8723   -6.0907    0.0000 N   0  0  0  0  0  0  0  0  0  0  0  0
    4.8710   -8.1532    0.0000 O   0  0  0  0  0  0  0  0  0  0  0  0
    4.8710   -4.8532    0.0000 C   0  0  0  0  0  0  0  0  0  0  0  0
    5.5855   -4.4407    0.0000 C   0  0  0  0  0  0  0  0  0  0  0  0
    2.0132   -7.3282    0.0000 Cl  0  0  0  0  0  0  0  0  0  0  0  0
  1  2  1  0  0  0  0
  2  3  2  0  0  0  0
  3  4  1  0  0  0  0
  4  5  1  0  0  0  0
  5  6  1  0  0  0  0
  6  7  2  0  0  0  0
  7  8  1  0  0  0  0
  8  9  2  0  0  0  0
  9 10  1  0  0  0  0
  1 10  1  0  0  0  0
  5 10  2  0  0  0  0
 11 12  2  0  0  0  0
 11 13  1  0  0  0  0
  3 11  1  0  0  0  0
 15 16  1  0  0  0  0
 16 17  2  0  0  0  0
 17 18  1  0  0  0  0
 18 19  2  0  0  0  0
 19 20  1  0  0  0  0
 15 20  2  0  0  0  0
 14 17  1  0  0  0  0
 13 14  1  0  0  0  0
  4 21  2  0  0  0  0
 22 23  1  0  0  0  0
  1 22  1  0  0  0  0
  7 24  1  0  0  0  0
M  END
>  <cdx:fragmentId>
4139

$$$$
