300586.cdx
  Mrv1902 05222410282D          

 30 32  0  0  0  0            999 V2000
    3.7347   -5.5158    0.0000 C   0  0  0  0  0  0  0  0  0  0  0  0
    3.0202   -5.9283    0.0000 C   0  0  0  0  0  0  0  0  0  0  0  0
    3.0202   -6.7533    0.0000 C   0  0  0  0  0  0  0  0  0  0  0  0
    2.3058   -7.1658    0.0000 C   0  0  0  0  0  0  0  0  0  0  0  0
    1.5913   -6.7533    0.0000 C   0  0  0  0  0  0  0  0  0  0  0  0
    1.5913   -5.9283    0.0000 C   0  0  0  0  0  0  0  0  0  0  0  0
    2.3058   -5.5158    0.0000 C   0  0  0  0  0  0  0  0  0  0  0  0
    3.7347   -4.6908    0.0000 O   0  0  0  0  0  0  0  0  0  0  0  0
    4.4492   -5.9283    0.0000 O   0  0  0  0  0  0  0  0  0  0  0  0
    0.8768   -5.5158    0.0000 O   0  0  0  0  0  0  0  0  0  0  0  0
    0.8768   -7.1658    0.0000 O   0  0  0  0  0  0  0  0  0  0  0  0
    2.3058   -7.9908    0.0000 O   0  0  0  0  0  0  0  0  0  0  0  0
    5.1637   -5.5158    0.0000 C   0  0  0  0  0  0  0  0  0  0  0  0
    6.5926   -5.5158    0.0000 O   0  0  0  0  0  0  0  0  0  0  0  0
    5.8781   -5.9283    0.0000 C   0  0  1  0  0  0  0  0  0  0  0  0
    5.8781   -6.7533    0.0000 C   0  0  2  0  0  0  0  0  0  0  0  0
    6.5926   -7.1658    0.0000 C   0  0  1  0  0  0  0  0  0  0  0  0
    7.3071   -6.7533    0.0000 C   0  0  2  0  0  0  0  0  0  0  0  0
    7.3071   -5.9283    0.0000 C   0  0  2  0  0  0  0  0  0  0  0  0
    8.0215   -5.5158    0.0000 O   0  0  0  0  0  0  0  0  0  0  0  0
    8.7360   -5.9283    0.0000 C   0  0  0  0  0  0  0  0  0  0  0  0
    9.4505   -5.5158    0.0000 C   0  0  0  0  0  0  0  0  0  0  0  0
   10.1650   -5.9283    0.0000 C   0  0  0  0  0  0  0  0  0  0  0  0
   10.1650   -6.7533    0.0000 C   0  0  0  0  0  0  0  0  0  0  0  0
    9.4505   -7.1658    0.0000 C   0  0  0  0  0  0  0  0  0  0  0  0
    8.7360   -6.7533    0.0000 C   0  0  0  0  0  0  0  0  0  0  0  0
   10.8794   -7.1658    0.0000 O   0  0  0  0  0  0  0  0  0  0  0  0
    8.0215   -7.1658    0.0000 O   0  0  0  0  0  0  0  0  0  0  0  0
    6.5926   -7.9908    0.0000 O   0  0  0  0  0  0  0  0  0  0  0  0
    5.1637   -7.1658    0.0000 O   0  0  0  0  0  0  0  0  0  0  0  0
  1  2  1  0  0  0  0
  2  3  1  0  0  0  0
  3  4  2  0  0  0  0
  4  5  1  0  0  0  0
  5  6  2  0  0  0  0
  6  7  1  0  0  0  0
  2  7  2  0  0  0  0
  1  8  2  0  0  0  0
  1  9  1  0  0  0  0
  6 10  1  0  0  0  0
  5 11  1  0  0  0  0
  4 12  1  0  0  0  0
 14 15  1  0  0  0  0
 15 16  1  0  0  0  0
 16 17  1  0  0  0  0
 17 18  1  0  0  0  0
 18 19  1  0  0  0  0
 14 19  1  0  0  0  0
 21 22  1  0  0  0  0
 22 23  2  0  0  0  0
 23 24  1  0  0  0  0
 24 25  2  0  0  0  0
 25 26  1  0  0  0  0
 21 26  2  0  0  0  0
 20 21  1  0  0  0  0
 24 27  1  0  0  0  0
 19 20  1  1  0  0  0
 18 28  1  6  0  0  0
 17 29  1  1  0  0  0
 16 30  1  6  0  0  0
 15 13  1  1  0  0  0
  9 13  1  0  0  0  0
M  END
>  <cdx:fragmentId>
4966

$$$$
