300517.cdx
  Mrv1902 05222410202D          

 23 24  0  0  0  0            999 V2000
    7.9166   -5.5158    0.0000 C   0  0  0  0  0  0  0  0  0  0  0  0
    8.6311   -5.9283    0.0000 C   0  0  0  0  0  0  0  0  0  0  0  0
    8.6311   -6.7533    0.0000 C   0  0  0  0  0  0  0  0  0  0  0  0
    7.9166   -7.1658    0.0000 C   0  0  0  0  0  0  0  0  0  0  0  0
    7.2022   -6.7533    0.0000 C   0  0  0  0  0  0  0  0  0  0  0  0
    7.2022   -5.9283    0.0000 C   0  0  0  0  0  0  0  0  0  0  0  0
    7.9166   -4.6908    0.0000 O   0  0  0  0  0  0  0  0  0  0  0  0
    9.3456   -7.1658    0.0000 O   0  0  0  0  0  0  0  0  0  0  0  0
    9.3456   -5.5158    0.0000 C   0  0  0  0  0  0  0  0  0  0  0  0
   10.0600   -5.9283    0.0000 C   0  0  0  0  0  0  0  0  0  0  0  0
   10.7745   -5.5158    0.0000 C   0  0  0  0  0  0  0  0  0  0  0  0
   10.7745   -4.6908    0.0000 C   0  0  0  0  0  0  0  0  0  0  0  0
   11.4890   -5.9283    0.0000 C   0  0  0  0  0  0  0  0  0  0  0  0
    6.4877   -7.1658    0.0000 C   0  0  0  0  0  0  0  0  0  0  0  0
    5.7732   -6.7533    0.0000 C   0  0  0  0  0  0  0  0  0  0  0  0
    5.0588   -7.1658    0.0000 C   0  0  0  0  0  0  0  0  0  0  0  0
    5.0588   -7.9908    0.0000 C   0  0  0  0  0  0  0  0  0  0  0  0
    4.3443   -8.4033    0.0000 C   0  0  0  0  0  0  0  0  0  0  0  0
    3.6298   -7.9908    0.0000 C   0  0  0  0  0  0  0  0  0  0  0  0
    3.6298   -7.1658    0.0000 C   0  0  0  0  0  0  0  0  0  0  0  0
    4.3443   -6.7533    0.0000 C   0  0  0  0  0  0  0  0  0  0  0  0
    2.9153   -8.4033    0.0000 O   0  0  0  0  0  0  0  0  0  0  0  0
    5.7732   -8.4033    0.0000 O   0  0  0  0  0  0  0  0  0  0  0  0
  1  2  1  0  0  0  0
  2  3  2  0  0  0  0
  3  4  1  0  0  0  0
  4  5  2  0  0  0  0
  5  6  1  0  0  0  0
  1  6  2  0  0  0  0
  1  7  1  0  0  0  0
  3  8  1  0  0  0  0
  9 10  1  0  0  0  0
 10 11  2  0  0  0  0
 11 12  1  0  0  0  0
 11 13  1  0  0  0  0
  2  9  1  0  0  0  0
 14 15  2  0  0  0  0
 16 17  1  0  0  0  0
 17 18  2  0  0  0  0
 18 19  1  0  0  0  0
 19 20  2  0  0  0  0
 20 21  1  0  0  0  0
 16 21  2  0  0  0  0
 19 22  1  0  0  0  0
 17 23  1  0  0  0  0
 15 16  1  0  0  0  0
  5 14  1  0  0  0  0
M  END
>  <cdx:fragmentId>
854

$$$$
