300566.cdx
  Mrv1902 05222410192D          

 17 18  0  0  0  0            999 V2000
    4.3510   -7.3734    0.0000 C   0  0  0  0  0  0  0  0  0  0  0  0
    3.6366   -6.9609    0.0000 C   0  0  0  0  0  0  0  0  0  0  0  0
    3.6366   -6.1359    0.0000 C   0  0  0  0  0  0  0  0  0  0  0  0
    4.3510   -5.7234    0.0000 C   0  0  0  0  0  0  0  0  0  0  0  0
    5.0655   -6.1359    0.0000 C   0  0  0  0  0  0  0  0  0  0  0  0
    5.7800   -5.7234    0.0000 C   0  0  0  0  0  0  0  0  0  0  0  0
    6.4945   -6.1359    0.0000 C   0  0  0  0  0  0  0  0  0  0  0  0
    6.4945   -6.9609    0.0000 C   0  0  0  0  0  0  0  0  0  0  0  0
    5.7800   -7.3734    0.0000 C   0  0  0  0  0  0  0  0  0  0  0  0
    5.0655   -6.9609    0.0000 C   0  0  0  0  0  0  0  0  0  0  0  0
    2.9221   -7.3734    0.0000 O   0  0  0  0  0  0  0  0  0  0  0  0
    5.0655   -7.7859    0.0000 C   0  0  0  0  0  0  0  0  0  0  0  0
    4.3510   -4.8984    0.0000 C   0  0  0  0  0  0  0  0  0  0  0  0
    7.2089   -4.8984    0.0000 C   0  0  0  0  0  0  0  0  0  0  0  0
    7.2089   -5.7234    0.0000 C   0  0  0  0  0  0  0  0  0  0  0  0
    7.9234   -6.1359    0.0000 C   0  0  0  0  0  0  0  0  0  0  0  0
    8.6379   -5.7234    0.0000 O   0  0  0  0  0  0  0  0  0  0  0  0
  1  2  1  0  0  0  0
  2  3  1  0  0  0  0
  3  4  1  0  0  0  0
  4  5  2  0  0  0  0
  5  6  1  0  0  0  0
  6  7  1  0  0  0  0
  7  8  1  0  0  0  0
  8  9  1  0  0  0  0
  9 10  1  0  0  0  0
  1 10  1  0  0  0  0
  5 10  1  0  0  0  0
  2 11  2  0  0  0  0
 10 12  1  0  0  0  0
  4 13  1  0  0  0  0
 14 15  2  0  0  0  0
 15 16  1  0  0  0  0
 16 17  1  0  0  0  0
  7 15  1  0  0  0  0
M  END
>  <cdx:fragmentId>
3900

$$$$
