300501.cdx
  Mrv1902 05222410212D          

 11 12  0  0  0  0            999 V2000
    5.3409   -5.7653    0.0000 C   0  0  0  0  0  0  0  0  0  0  0  0
    4.6264   -6.1778    0.0000 C   0  0  0  0  0  0  0  0  0  0  0  0
    4.6264   -7.0028    0.0000 C   0  0  0  0  0  0  0  0  0  0  0  0
    5.3409   -7.4153    0.0000 C   0  0  0  0  0  0  0  0  0  0  0  0
    6.0553   -7.0028    0.0000 C   0  0  0  0  0  0  0  0  0  0  0  0
    6.7698   -7.4153    0.0000 C   0  0  0  0  0  0  0  0  0  0  0  0
    7.4843   -7.0028    0.0000 C   0  0  0  0  0  0  0  0  0  0  0  0
    7.4843   -6.1778    0.0000 C   0  0  0  0  0  0  0  0  0  0  0  0
    6.7698   -5.7653    0.0000 C   0  0  0  0  0  0  0  0  0  0  0  0
    6.0553   -6.1778    0.0000 C   0  0  0  0  0  0  0  0  0  0  0  0
    3.9119   -5.7653    0.0000 O   0  0  0  0  0  0  0  0  0  0  0  0
  1  2  1  0  0  0  0
  2  3  1  0  0  0  0
  3  4  1  0  0  0  0
  4  5  1  0  0  0  0
  5  6  1  0  0  0  0
  6  7  1  0  0  0  0
  7  8  1  0  0  0  0
  8  9  1  0  0  0  0
  9 10  1  0  0  0  0
  1 10  2  0  0  0  0
  5 10  1  0  0  0  0
  2 11  2  0  0  0  0
M  END
>  <cdx:fragmentId>
5

$$$$
