300569.cdx
  Mrv1902 05222410262D          

 19 19  0  0  0  0            999 V2000
    7.6794   -8.3737    0.0000 C   0  0  0  0  0  0  0  0  0  0  0  0
    8.2627   -7.7904    0.0000 C   0  0  0  0  0  0  0  0  0  0  0  0
    7.8882   -7.0553    0.0000 C   0  0  0  0  0  0  0  0  0  0  0  0
    7.0734   -7.1844    0.0000 C   0  0  1  0  0  0  0  0  0  0  0  0
    6.9443   -7.9992    0.0000 C   0  0  1  0  0  0  0  0  0  0  0  0
    9.0877   -7.7904    0.0000 C   0  0  0  0  0  0  0  0  0  0  0  0
    7.6794   -9.1987    0.0000 C   0  0  0  0  0  0  0  0  0  0  0  0
    8.3007   -6.3408    0.0000 O   0  0  0  0  0  0  0  0  0  0  0  0
    6.7308   -8.7961    0.0000 C   0  0  2  0  0  0  0  0  0  0  0  0
    5.9339   -9.0096    0.0000 C   0  0  0  0  0  0  0  0  0  0  0  0
    5.7204   -9.8065    0.0000 C   0  0  0  0  0  0  0  0  0  0  0  0
    4.8954   -9.8065    0.0000 C   0  0  0  0  0  0  0  0  0  0  0  0
    4.6818  -10.6034    0.0000 C   0  0  0  0  0  0  0  0  0  0  0  0
    7.1433   -9.5106    0.0000 O   0  0  0  0  0  0  0  0  0  0  0  0
    6.1474   -8.2127    0.0000 O   0  0  0  0  0  0  0  0  0  0  0  0
    6.4900   -6.6010    0.0000 C   0  0  0  0  0  0  0  0  0  0  0  0
    6.7035   -5.8041    0.0000 C   0  0  0  0  0  0  0  0  0  0  0  0
    6.1202   -5.2207    0.0000 O   0  0  0  0  0  0  0  0  0  0  0  0
    7.5004   -5.5906    0.0000 O   0  0  0  0  0  0  0  0  0  0  0  0
  1  2  2  0  0  0  0
  2  3  1  0  0  0  0
  3  4  1  0  0  0  0
  4  5  1  0  0  0  0
  5  1  1  0  0  0  0
  2  6  1  0  0  0  0
  1  7  1  0  0  0  0
  3  8  2  0  0  0  0
  5  9  1  0  0  0  0
  9 10  1  0  0  0  0
 10 11  1  0  0  0  0
 11 12  1  0  0  0  0
 12 13  1  0  0  0  0
  9 14  1  1  0  0  0
  5 15  1  1  0  0  0
  4 16  1  1  0  0  0
 16 17  1  0  0  0  0
 17 18  2  0  0  0  0
 17 19  1  0  0  0  0
M  STY  1   1 SUP
M  SAL   1  3  17  18  19
M  SBL   1  1  17
M  SMT   1 COOH
M  SAP   1  1  17  16  1
M  END
>  <cdx:fragmentId>
20

$$$$
