300595.cdx
  Mrv1902 05222410272D          

 21 21  0  0  0  0            999 V2000
    5.6037   -7.2699    0.0000 C   0  0  0  0  0  0  0  0  0  0  0  0
    5.6037   -8.0949    0.0000 C   0  0  0  0  0  0  0  0  0  0  0  0
    6.3182   -8.5074    0.0000 C   0  0  0  0  0  0  0  0  0  0  0  0
    7.0327   -8.0949    0.0000 C   0  0  0  0  0  0  0  0  0  0  0  0
    7.0327   -7.2699    0.0000 C   0  0  0  0  0  0  0  0  0  0  0  0
    6.3182   -6.8574    0.0000 C   0  0  0  0  0  0  0  0  0  0  0  0
    6.3182   -9.3324    0.0000 O   0  0  0  0  0  0  0  0  0  0  0  0
    5.6037   -9.7449    0.0000 C   0  0  0  0  0  0  0  0  0  0  0  0
    7.7471   -8.5074    0.0000 O   0  0  0  0  0  0  0  0  0  0  0  0
    8.4616   -8.0949    0.0000 C   0  0  0  0  0  0  0  0  0  0  0  0
    9.1761   -8.5074    0.0000 C   0  0  2  0  0  0  0  0  0  0  0  0
    8.4616   -7.2699    0.0000 C   0  0  0  0  0  0  0  0  0  0  0  0
    9.8906   -8.0949    0.0000 O   0  0  0  0  0  0  0  0  0  0  0  0
   10.6050   -8.5074    0.0000 C   0  0  0  0  0  0  0  0  0  0  0  0
   11.3195   -8.0949    0.0000 C   0  0  0  0  0  0  0  0  0  0  0  0
    9.1761   -9.3324    0.0000 O   0  0  0  0  0  0  0  0  0  0  0  0
    8.4616   -9.7449    0.0000 C   0  0  0  0  0  0  0  0  0  0  0  0
    4.8893   -6.8574    0.0000 C   0  0  0  0  0  0  0  0  0  0  0  0
    4.1748   -7.2699    0.0000 C   0  0  0  0  0  0  0  0  0  0  0  0
    3.4603   -6.8574    0.0000 C   0  0  0  0  0  0  0  0  0  0  0  0
    2.7458   -7.2699    0.0000 O   0  0  0  0  0  0  0  0  0  0  0  0
  1  2  2  0  0  0  0
  2  3  1  0  0  0  0
  3  4  2  0  0  0  0
  4  5  1  0  0  0  0
  5  6  2  0  0  0  0
  6  1  1  0  0  0  0
  3  7  1  0  0  0  0
  7  8  1  0  0  0  0
  4  9  1  0  0  0  0
  9 10  1  0  0  0  0
 10 11  1  0  0  0  0
 10 12  2  0  0  0  0
 11 13  1  0  0  0  0
 13 14  1  0  0  0  0
 14 15  1  0  0  0  0
 11 16  1  6  0  0  0
 16 17  1  0  0  0  0
  1 18  1  0  0  0  0
 18 19  2  0  0  0  0
 19 20  1  0  0  0  0
 20 21  2  0  0  0  0
M  END
>  <cdx:fragmentId>
3798

$$$$
