300571.cdx
  Mrv1902 05222410202D          

 11 10  0  0  0  0            999 V2000
    7.6643   -5.9277    0.0000 C   0  0  0  0  0  0  0  0  0  0  0  0
    7.6643   -6.7527    0.0000 C   0  0  0  0  0  0  0  0  0  0  0  0
    6.9498   -7.1652    0.0000 C   0  0  0  0  0  0  0  0  0  0  0  0
    6.2354   -6.7527    0.0000 C   0  0  0  0  0  0  0  0  0  0  0  0
    5.5209   -7.1652    0.0000 C   0  0  0  0  0  0  0  0  0  0  0  0
    4.8064   -6.7527    0.0000 C   0  0  0  0  0  0  0  0  0  0  0  0
    4.0919   -7.1652    0.0000 C   0  0  0  0  0  0  0  0  0  0  0  0
    3.3775   -6.7527    0.0000 C   0  0  0  0  0  0  0  0  0  0  0  0
    8.3788   -7.1652    0.0000 C   0  0  0  0  0  0  0  0  0  0  0  0
    4.8064   -5.9277    0.0000 C   0  0  0  0  0  0  0  0  0  0  0  0
    4.0919   -5.5152    0.0000 C   0  0  0  0  0  0  0  0  0  0  0  0
  1  2  1  0  0  0  0
  2  3  1  0  0  0  0
  3  4  1  0  0  0  0
  4  5  1  0  0  0  0
  5  6  1  0  0  0  0
  6  7  1  0  0  0  0
  7  8  1  0  0  0  0
  2  9  1  0  0  0  0
 10 11  1  0  0  0  0
  6 10  1  0  0  0  0
M  END
>  <cdx:fragmentId>
4217

$$$$
