300577.cdx
  Mrv1902 05222410192D          

 34 37  0  0  0  0            999 V2000
    7.6643   -6.1346    0.0000 C   0  0  0  0  0  0  0  0  0  0  0  0
    7.6643   -6.9596    0.0000 C   0  0  0  0  0  0  0  0  0  0  0  0
    6.9498   -7.3721    0.0000 C   0  0  0  0  0  0  0  0  0  0  0  0
    6.2354   -6.9596    0.0000 C   0  0  0  0  0  0  0  0  0  0  0  0
    5.5209   -7.3721    0.0000 C   0  0  0  0  0  0  0  0  0  0  0  0
    4.8064   -6.9596    0.0000 C   0  0  0  0  0  0  0  0  0  0  0  0
    4.8064   -6.1346    0.0000 C   0  0  0  0  0  0  0  0  0  0  0  0
    5.5209   -5.7221    0.0000 C   0  0  0  0  0  0  0  0  0  0  0  0
    6.2354   -6.1346    0.0000 C   0  0  0  0  0  0  0  0  0  0  0  0
    6.9498   -5.7221    0.0000 O   0  0  0  0  0  0  0  0  0  0  0  0
    6.9498   -8.1971    0.0000 O   0  0  0  0  0  0  0  0  0  0  0  0
    4.0919   -7.3721    0.0000 O   0  0  0  0  0  0  0  0  0  0  0  0
    3.3775   -6.1346    0.0000 O   0  0  0  0  0  0  0  0  0  0  0  0
    3.3775   -6.9596    0.0000 C   0  0  2  0  0  0  0  0  0  0  0  0
    2.6630   -7.3721    0.0000 C   0  0  0  0  0  0  0  0  0  0  0  0
    1.9485   -6.9596    0.0000 C   0  0  2  0  0  0  0  0  0  0  0  0
    1.9485   -6.1346    0.0000 C   0  0  1  0  0  0  0  0  0  0  0  0
    2.6630   -5.7221    0.0000 C   0  0  0  0  0  0  0  0  0  0  0  0
    2.6630   -4.8971    0.0000 C   0  0  0  0  0  0  0  0  0  0  0  0
    1.9485   -4.4846    0.0000 O   0  0  0  0  0  0  0  0  0  0  0  0
    1.2341   -5.7221    0.0000 O   0  0  0  0  0  0  0  0  0  0  0  0
    1.2341   -7.3721    0.0000 O   0  0  0  0  0  0  0  0  0  0  0  0
    2.6630   -8.1971    0.0000 O   0  0  0  0  0  0  0  0  0  0  0  0
    8.3788   -7.3721    0.0000 O   0  0  0  0  0  0  0  0  0  0  0  0
    9.0932   -6.9596    0.0000 C   0  0  0  0  0  0  0  0  0  0  0  0
    8.3788   -5.7221    0.0000 C   0  0  0  0  0  0  0  0  0  0  0  0
    8.3788   -4.8971    0.0000 C   0  0  0  0  0  0  0  0  0  0  0  0
    9.0932   -4.4846    0.0000 C   0  0  0  0  0  0  0  0  0  0  0  0
    9.8077   -4.8971    0.0000 C   0  0  0  0  0  0  0  0  0  0  0  0
    9.8077   -5.7221    0.0000 C   0  0  0  0  0  0  0  0  0  0  0  0
    9.0932   -6.1346    0.0000 C   0  0  0  0  0  0  0  0  0  0  0  0
   10.5222   -4.4846    0.0000 O   0  0  0  0  0  0  0  0  0  0  0  0
    4.0919   -5.7221    0.0000 O   0  0  0  0  0  0  0  0  0  0  0  0
    5.5209   -8.1971    0.0000 O   0  0  0  0  0  0  0  0  0  0  0  0
  1  2  2  0  0  0  0
  2  3  1  0  0  0  0
  3  4  1  0  0  0  0
  4  5  1  0  0  0  0
  5  6  2  0  0  0  0
  6  7  1  0  0  0  0
  7  8  2  0  0  0  0
  8  9  1  0  0  0  0
  4  9  2  0  0  0  0
  9 10  1  0  0  0  0
  1 10  1  0  0  0  0
  3 11  2  0  0  0  0
 13 14  1  0  0  0  0
 14 15  1  0  0  0  0
 15 16  1  0  0  0  0
 16 17  1  0  0  0  0
 17 18  1  0  0  0  0
 13 18  1  0  0  0  0
 19 20  1  0  0  0  0
 18 19  1  0  0  0  0
 17 21  1  6  0  0  0
 16 22  1  1  0  0  0
 15 23  1  0  0  0  0
 14 12  1  1  0  0  0
  6 12  1  0  0  0  0
 24 25  1  0  0  0  0
  2 24  1  0  0  0  0
 26 27  1  0  0  0  0
 27 28  2  0  0  0  0
 28 29  1  0  0  0  0
 29 30  2  0  0  0  0
 30 31  1  0  0  0  0
 26 31  2  0  0  0  0
 29 32  1  0  0  0  0
  1 26  1  0  0  0  0
  7 33  1  0  0  0  0
  5 34  1  0  0  0  0
M  END
>  <cdx:fragmentId>
4484

$$$$
