300572.cdx
  Mrv1902 05222410192D          

 22 24  0  0  0  0            999 V2000
    5.3121   -6.1346    0.0000 C   0  0  0  0  0  0  0  0  0  0  0  0
    5.3121   -6.9596    0.0000 C   0  0  0  0  0  0  0  0  0  0  0  0
    4.5976   -7.3721    0.0000 C   0  0  0  0  0  0  0  0  0  0  0  0
    3.8831   -6.9596    0.0000 C   0  0  0  0  0  0  0  0  0  0  0  0
    3.1687   -7.3721    0.0000 C   0  0  0  0  0  0  0  0  0  0  0  0
    2.4542   -6.9596    0.0000 C   0  0  0  0  0  0  0  0  0  0  0  0
    2.4542   -6.1346    0.0000 C   0  0  0  0  0  0  0  0  0  0  0  0
    3.1687   -5.7221    0.0000 C   0  0  0  0  0  0  0  0  0  0  0  0
    3.8831   -6.1346    0.0000 C   0  0  0  0  0  0  0  0  0  0  0  0
    4.5976   -5.7221    0.0000 O   0  0  0  0  0  0  0  0  0  0  0  0
    4.5976   -8.1971    0.0000 O   0  0  0  0  0  0  0  0  0  0  0  0
    6.0265   -5.7221    0.0000 C   0  0  0  0  0  0  0  0  0  0  0  0
    6.7410   -6.1346    0.0000 C   0  0  0  0  0  0  0  0  0  0  0  0
    7.4555   -5.7221    0.0000 C   0  0  0  0  0  0  0  0  0  0  0  0
    7.4555   -4.8971    0.0000 C   0  0  0  0  0  0  0  0  0  0  0  0
    8.1700   -4.4846    0.0000 C   0  0  0  0  0  0  0  0  0  0  0  0
    8.8844   -4.8971    0.0000 C   0  0  0  0  0  0  0  0  0  0  0  0
    8.8844   -5.7221    0.0000 C   0  0  0  0  0  0  0  0  0  0  0  0
    8.1700   -6.1346    0.0000 C   0  0  0  0  0  0  0  0  0  0  0  0
    9.5989   -4.4846    0.0000 O   0  0  0  0  0  0  0  0  0  0  0  0
   10.3134   -4.8971    0.0000 C   0  0  0  0  0  0  0  0  0  0  0  0
    1.7397   -7.3721    0.0000 O   0  0  0  0  0  0  0  0  0  0  0  0
  1  2  2  0  0  0  0
  2  3  1  0  0  0  0
  3  4  1  0  0  0  0
  4  5  1  0  0  0  0
  5  6  2  0  0  0  0
  6  7  1  0  0  0  0
  7  8  2  0  0  0  0
  8  9  1  0  0  0  0
  4  9  2  0  0  0  0
  9 10  1  0  0  0  0
  1 10  1  0  0  0  0
  3 11  2  0  0  0  0
 12 13  1  0  0  0  0
 14 15  1  0  0  0  0
 15 16  2  0  0  0  0
 16 17  1  0  0  0  0
 17 18  2  0  0  0  0
 18 19  1  0  0  0  0
 14 19  2  0  0  0  0
 20 21  1  0  0  0  0
 17 20  1  0  0  0  0
 13 14  1  0  0  0  0
  1 12  1  0  0  0  0
  6 22  1  0  0  0  0
M  END
>  <cdx:fragmentId>
4250

$$$$
