300575.cdx
  Mrv1902 05222410182D          

 16 17  0  0  0  0            999 V2000
    7.6149   -6.5032    0.0000 C   0  0  0  0  0  0  0  0  0  0  0  0
    7.6149   -7.3282    0.0000 C   0  0  0  0  0  0  0  0  0  0  0  0
    6.9004   -7.7407    0.0000 C   0  0  0  0  0  0  0  0  0  0  0  0
    6.1859   -7.3282    0.0000 C   0  0  0  0  0  0  0  0  0  0  0  0
    5.4715   -7.7407    0.0000 C   0  0  0  0  0  0  0  0  0  0  0  0
    4.7570   -7.3282    0.0000 C   0  0  0  0  0  0  0  0  0  0  0  0
    4.7570   -6.5032    0.0000 C   0  0  0  0  0  0  0  0  0  0  0  0
    5.4715   -6.0907    0.0000 C   0  0  0  0  0  0  0  0  0  0  0  0
    6.1859   -6.5032    0.0000 C   0  0  0  0  0  0  0  0  0  0  0  0
    6.9004   -6.0907    0.0000 O   0  0  0  0  0  0  0  0  0  0  0  0
    8.3294   -6.0907    0.0000 O   0  0  0  0  0  0  0  0  0  0  0  0
    5.4715   -5.2657    0.0000 O   0  0  0  0  0  0  0  0  0  0  0  0
    4.7570   -4.8532    0.0000 C   0  0  0  0  0  0  0  0  0  0  0  0
    4.0425   -6.0907    0.0000 O   0  0  0  0  0  0  0  0  0  0  0  0
    3.3281   -6.5032    0.0000 C   0  0  0  0  0  0  0  0  0  0  0  0
    4.0425   -7.7407    0.0000 O   0  0  0  0  0  0  0  0  0  0  0  0
  1  2  1  0  0  0  0
  2  3  2  0  0  0  0
  3  4  1  0  0  0  0
  4  5  1  0  0  0  0
  5  6  2  0  0  0  0
  6  7  1  0  0  0  0
  7  8  2  0  0  0  0
  8  9  1  0  0  0  0
  4  9  2  0  0  0  0
  9 10  1  0  0  0  0
  1 10  1  0  0  0  0
  1 11  2  0  0  0  0
 12 13  1  0  0  0  0
  8 12  1  0  0  0  0
 14 15  1  0  0  0  0
  7 14  1  0  0  0  0
  6 16  1  0  0  0  0
M  END
>  <cdx:fragmentId>
4408

$$$$
