300564.cdx
  Mrv1902 05222410202D          

 16 18  0  0  0  0            999 V2000
    5.1348   -6.4028    0.0000 C   0  0  0  0  0  0  0  0  0  0  0  0
    5.8781   -6.7608    0.0000 C   0  0  0  0  0  0  0  0  0  0  0  0
    6.6214   -6.4028    0.0000 C   0  0  0  0  0  0  0  0  0  0  0  0
    7.2262   -6.9640    0.0000 C   0  0  0  0  0  0  0  0  0  0  0  0
    8.0145   -6.7208    0.0000 C   0  0  0  0  0  0  0  0  0  0  0  0
    8.1981   -5.9165    0.0000 C   0  0  0  0  0  0  0  0  0  0  0  0
    7.5934   -5.3554    0.0000 C   0  0  0  0  0  0  0  0  0  0  0  0
    6.8050   -5.5985    0.0000 C   0  0  0  0  0  0  0  0  0  0  0  0
    6.2906   -4.9535    0.0000 C   0  0  0  0  0  0  0  0  0  0  0  0
    5.4656   -4.9535    0.0000 C   0  0  0  0  0  0  0  0  0  0  0  0
    4.9512   -5.5985    0.0000 C   0  0  0  0  0  0  0  0  0  0  0  0
    4.1629   -5.3554    0.0000 C   0  0  0  0  0  0  0  0  0  0  0  0
    3.5581   -5.9165    0.0000 C   0  0  0  0  0  0  0  0  0  0  0  0
    3.7417   -6.7208    0.0000 C   0  0  0  0  0  0  0  0  0  0  0  0
    4.5301   -6.9640    0.0000 C   0  0  0  0  0  0  0  0  0  0  0  0
    5.8781   -7.5858    0.0000 N   0  0  0  0  0  0  0  0  0  0  0  0
  1  2  1  0  0  0  0
  2  3  1  0  0  0  0
  3  4  2  0  0  0  0
  4  5  1  0  0  0  0
  5  6  2  0  0  0  0
  6  7  1  0  0  0  0
  7  8  2  0  0  0  0
  8  9  1  0  0  0  0
  9 10  2  0  0  0  0
 10 11  1  0  0  0  0
 11 12  2  0  0  0  0
 12 13  1  0  0  0  0
 13 14  2  0  0  0  0
 14 15  1  0  0  0  0
  1 15  2  0  0  0  0
  1 11  1  0  0  0  0
  3  8  1  0  0  0  0
  2 16  1  0  0  0  0
M  END
>  <cdx:fragmentId>
3847

$$$$
