300523.cdx
  Mrv1902 05222410232D          

 18 19  0  0  0  0            999 V2000
    8.2235   -6.0050    0.0000 H   0  0  0  0  0  0  0  0  0  0  0  0
    9.1157   -5.7771    0.0000 C   0  0  0  0  0  0  0  0  0  0  0  0
    7.6153   -8.9606    0.0000 C   0  0  0  0  0  0  0  0  0  0  0  0
    8.0765   -7.6418    0.0000 C   0  0  0  0  0  0  0  0  0  0  0  0
    7.4316   -8.1563    0.0000 C   0  0  0  0  0  0  0  0  0  0  0  0
    6.6272   -7.9729    0.0000 C   0  0  0  0  0  0  0  0  0  0  0  0
    6.2691   -7.2297    0.0000 C   0  0  0  0  0  0  0  0  0  0  0  0
    6.6269   -6.4863    0.0000 C   0  0  1  0  0  0  0  0  0  0  0  0
    7.4312   -6.3026    0.0000 C   0  0  0  0  0  0  0  0  0  0  0  0
    8.0763   -6.8168    0.0000 C   0  0  2  0  0  0  0  0  0  0  0  0
    8.8609   -6.5617    0.0000 C   0  0  2  0  0  0  0  0  0  0  0  0
    9.3460   -7.2291    0.0000 C   0  0  0  0  0  0  0  0  0  0  0  0
    8.8612   -7.8966    0.0000 C   0  0  0  0  0  0  0  0  0  0  0  0
    5.5979   -5.1965    0.0000 O   0  0  0  0  0  0  0  0  0  0  0  0
    5.5291   -6.4247    0.0000 C   0  0  0  0  0  0  0  0  0  0  0  0
    6.1124   -5.8414    0.0000 C   0  0  0  0  0  0  0  0  0  0  0  0
    6.6958   -5.2580    0.0000 C   0  0  0  0  0  0  0  0  0  0  0  0
    6.8405   -5.6894    0.0000 H   0  0  0  0  0  0  0  0  0  0  0  0
 10  1  1  1  0  0  0
 16  8  1  0  0  0  0
 11  2  1  1  0  0  0
  5  3  1  0  0  0  0
 10  4  1  0  0  0  0
 13  4  1  0  0  0  0
  5  4  2  0  0  0  0
  6  5  1  0  0  0  0
  7  6  1  0  0  0  0
  8  7  1  0  0  0  0
  9  8  1  0  0  0  0
 10  9  1  0  0  0  0
 11 10  1  0  0  0  0
 12 11  1  0  0  0  0
 13 12  1  0  0  0  0
 16 14  1  0  0  0  0
 16 15  1  0  0  0  0
 17 16  1  0  0  0  0
  8 18  1  1  0  0  0
M  END
>  <cdx:fragmentId>
1275

$$$$
