300549.cdx
  Mrv1902 05222410182D          

 25 27  0  0  0  0            999 V2000
    6.4442   -6.1346    0.0000 C   0  0  0  0  0  0  0  0  0  0  0  0
    6.4442   -6.9596    0.0000 C   0  0  0  0  0  0  0  0  0  0  0  0
    5.7297   -7.3721    0.0000 C   0  0  0  0  0  0  0  0  0  0  0  0
    5.0152   -6.9596    0.0000 C   0  0  0  0  0  0  0  0  0  0  0  0
    4.3008   -7.3721    0.0000 C   0  0  0  0  0  0  0  0  0  0  0  0
    3.5863   -6.9596    0.0000 C   0  0  0  0  0  0  0  0  0  0  0  0
    3.5863   -6.1346    0.0000 C   0  0  0  0  0  0  0  0  0  0  0  0
    4.3008   -5.7221    0.0000 C   0  0  0  0  0  0  0  0  0  0  0  0
    5.0152   -6.1346    0.0000 C   0  0  0  0  0  0  0  0  0  0  0  0
    5.7297   -5.7221    0.0000 O   0  0  0  0  0  0  0  0  0  0  0  0
    5.7297   -8.1971    0.0000 O   0  0  0  0  0  0  0  0  0  0  0  0
    4.3008   -4.8971    0.0000 O   0  0  0  0  0  0  0  0  0  0  0  0
    3.5863   -4.4846    0.0000 C   0  0  0  0  0  0  0  0  0  0  0  0
    2.8718   -5.7221    0.0000 O   0  0  0  0  0  0  0  0  0  0  0  0
    2.1574   -6.1346    0.0000 C   0  0  0  0  0  0  0  0  0  0  0  0
    2.8718   -7.3721    0.0000 O   0  0  0  0  0  0  0  0  0  0  0  0
    2.1574   -6.9596    0.0000 C   0  0  0  0  0  0  0  0  0  0  0  0
    7.1587   -5.7221    0.0000 C   0  0  0  0  0  0  0  0  0  0  0  0
    7.1587   -4.8971    0.0000 C   0  0  0  0  0  0  0  0  0  0  0  0
    7.8731   -4.4846    0.0000 C   0  0  0  0  0  0  0  0  0  0  0  0
    8.5876   -4.8971    0.0000 C   0  0  0  0  0  0  0  0  0  0  0  0
    8.5876   -5.7221    0.0000 C   0  0  0  0  0  0  0  0  0  0  0  0
    7.8731   -6.1346    0.0000 C   0  0  0  0  0  0  0  0  0  0  0  0
    9.3021   -4.4846    0.0000 O   0  0  0  0  0  0  0  0  0  0  0  0
    4.3008   -8.1971    0.0000 O   0  0  0  0  0  0  0  0  0  0  0  0
  1  2  2  0  0  0  0
  2  3  1  0  0  0  0
  3  4  1  0  0  0  0
  4  5  1  0  0  0  0
  5  6  2  0  0  0  0
  6  7  1  0  0  0  0
  7  8  2  0  0  0  0
  8  9  1  0  0  0  0
  4  9  2  0  0  0  0
  9 10  1  0  0  0  0
  1 10  1  0  0  0  0
  3 11  2  0  0  0  0
 12 13  1  0  0  0  0
  8 12  1  0  0  0  0
 14 15  1  0  0  0  0
  7 14  1  0  0  0  0
 16 17  1  0  0  0  0
  6 16  1  0  0  0  0
 18 19  1  0  0  0  0
 19 20  2  0  0  0  0
 20 21  1  0  0  0  0
 21 22  2  0  0  0  0
 22 23  1  0  0  0  0
 18 23  2  0  0  0  0
 21 24  1  0  0  0  0
  1 18  1  0  0  0  0
  5 25  1  0  0  0  0
M  END
>  <cdx:fragmentId>
2826

$$$$
