300520.cdx
  Mrv1902 05222410242D          

 11 12  0  0  0  0            999 V2000
    6.3657   -5.4147    0.0000 N   0  0  0  0  0  0  0  0  0  0  0  0
    7.0802   -5.8272    0.0000 C   0  0  0  0  0  0  0  0  0  0  0  0
    7.0802   -6.6522    0.0000 C   0  0  0  0  0  0  0  0  0  0  0  0
    6.3657   -7.0647    0.0000 C   0  0  0  0  0  0  0  0  0  0  0  0
    5.6512   -6.6522    0.0000 C   0  0  0  0  0  0  0  0  0  0  0  0
    4.9368   -7.0647    0.0000 C   0  0  0  0  0  0  0  0  0  0  0  0
    4.2223   -6.6522    0.0000 C   0  0  0  0  0  0  0  0  0  0  0  0
    4.2223   -5.8272    0.0000 C   0  0  0  0  0  0  0  0  0  0  0  0
    4.9368   -5.4147    0.0000 C   0  0  0  0  0  0  0  0  0  0  0  0
    5.6512   -5.8272    0.0000 C   0  0  0  0  0  0  0  0  0  0  0  0
    6.3657   -7.8897    0.0000 O   0  0  0  0  0  0  0  0  0  0  0  0
  1  2  1  0  0  0  0
  2  3  2  0  0  0  0
  3  4  1  0  0  0  0
  4  5  1  0  0  0  0
  5  6  1  0  0  0  0
  6  7  2  0  0  0  0
  7  8  1  0  0  0  0
  8  9  2  0  0  0  0
  9 10  1  0  0  0  0
  1 10  1  0  0  0  0
  5 10  2  0  0  0  0
  4 11  2  0  0  0  0
M  END
>  <cdx:fragmentId>
1086

$$$$
