300599.cdx
  Mrv1902 05222410192D          

  8  7  0  0  0  0            999 V2000
    9.9058   -6.2459    0.0000 C   0  0  0  0  0  0  0  0  0  0  0  0
    9.1913   -5.8334    0.0000 C   0  0  0  0  0  0  0  0  0  0  0  0
    8.4769   -6.2459    0.0000 C   0  0  0  0  0  0  0  0  0  0  0  0
    7.7624   -6.6584    0.0000 C   0  0  0  0  0  0  0  0  0  0  0  0
    7.0479   -7.0709    0.0000 C   0  0  0  0  0  0  0  0  0  0  0  0
    6.3334   -6.6584    0.0000 C   0  0  0  0  0  0  0  0  0  0  0  0
    5.6190   -7.0709    0.0000 C   0  0  0  0  0  0  0  0  0  0  0  0
    4.9045   -6.6584    0.0000 Cl  0  0  0  0  0  0  0  0  0  0  0  0
  1  2  1  0  0  0  0
  2  3  1  0  0  0  0
  3  4  3  0  0  0  0
  4  5  1  0  0  0  0
  5  6  1  0  0  0  0
  6  7  1  0  0  0  0
  7  8  1  0  0  0  0
M  END
>  <cdx:fragmentId>
6123

$$$$
