300557.cdx
  Mrv1902 05222410272D          

 21 23  0  0  0  0            999 V2000
    8.1564   -5.6842    0.0000 C   0  0  0  0  0  0  0  0  0  0  0  0
    8.1564   -6.5092    0.0000 C   0  0  0  0  0  0  0  0  0  0  0  0
    7.4419   -6.9217    0.0000 C   0  0  0  0  0  0  0  0  0  0  0  0
    6.7275   -6.5092    0.0000 C   0  0  0  0  0  0  0  0  0  0  0  0
    6.0130   -6.9217    0.0000 C   0  0  0  0  0  0  0  0  0  0  0  0
    5.2985   -6.5092    0.0000 C   0  0  0  0  0  0  0  0  0  0  0  0
    5.2985   -5.6842    0.0000 C   0  0  0  0  0  0  0  0  0  0  0  0
    6.0130   -5.2717    0.0000 C   0  0  0  0  0  0  0  0  0  0  0  0
    6.7275   -5.6842    0.0000 C   0  0  0  0  0  0  0  0  0  0  0  0
    7.4419   -5.2717    0.0000 O   0  0  0  0  0  0  0  0  0  0  0  0
    7.4419   -7.7467    0.0000 O   0  0  0  0  0  0  0  0  0  0  0  0
    8.8709   -5.2717    0.0000 C   0  0  0  0  0  0  0  0  0  0  0  0
    8.8709   -4.4467    0.0000 C   0  0  0  0  0  0  0  0  0  0  0  0
    9.5853   -4.0342    0.0000 C   0  0  0  0  0  0  0  0  0  0  0  0
   10.2998   -4.4467    0.0000 C   0  0  0  0  0  0  0  0  0  0  0  0
   10.2998   -5.2717    0.0000 C   0  0  0  0  0  0  0  0  0  0  0  0
    9.5853   -5.6842    0.0000 C   0  0  0  0  0  0  0  0  0  0  0  0
    4.5840   -5.2717    0.0000 O   0  0  0  0  0  0  0  0  0  0  0  0
    3.8696   -5.6842    0.0000 C   0  0  0  0  0  0  0  0  0  0  0  0
    6.0130   -7.7467    0.0000 O   0  0  0  0  0  0  0  0  0  0  0  0
    5.2985   -8.1592    0.0000 C   0  0  0  0  0  0  0  0  0  0  0  0
  1  2  2  0  0  0  0
  2  3  1  0  0  0  0
  3  4  1  0  0  0  0
  4  5  1  0  0  0  0
  5  6  2  0  0  0  0
  6  7  1  0  0  0  0
  7  8  2  0  0  0  0
  8  9  1  0  0  0  0
  4  9  2  0  0  0  0
  9 10  1  0  0  0  0
  1 10  1  0  0  0  0
  3 11  2  0  0  0  0
 12 13  1  0  0  0  0
 13 14  2  0  0  0  0
 14 15  1  0  0  0  0
 15 16  2  0  0  0  0
 16 17  1  0  0  0  0
 12 17  2  0  0  0  0
  1 12  1  0  0  0  0
 18 19  1  0  0  0  0
  7 18  1  0  0  0  0
 20 21  1  0  0  0  0
  5 20  1  0  0  0  0
M  END
>  <cdx:fragmentId>
3297

$$$$
