300535.cdx
  Mrv1902 05222410242D          

 11 11  0  0  0  0            999 V2000
    6.0265   -6.3408    0.0000 C   0  0  0  0  0  0  0  0  0  0  0  0
    5.3121   -5.9283    0.0000 C   0  0  0  0  0  0  0  0  0  0  0  0
    4.5976   -6.3408    0.0000 C   0  0  0  0  0  0  0  0  0  0  0  0
    4.5976   -7.1658    0.0000 C   0  0  0  0  0  0  0  0  0  0  0  0
    5.3121   -7.5783    0.0000 C   0  0  0  0  0  0  0  0  0  0  0  0
    6.0265   -7.1658    0.0000 N   0  0  0  0  0  0  0  0  0  0  0  0
    6.7410   -5.9283    0.0000 C   0  0  0  0  0  0  0  0  0  0  0  0
    6.7410   -5.1033    0.0000 O   0  0  0  0  0  0  0  0  0  0  0  0
    7.4555   -6.3408    0.0000 O   0  0  0  0  0  0  0  0  0  0  0  0
    3.8831   -7.5783    0.0000 O   0  0  0  0  0  0  0  0  0  0  0  0
    8.1700   -5.9283    0.0000 C   0  0  0  0  0  0  0  0  0  0  0  0
  1  2  1  0  0  0  0
  2  3  2  0  0  0  0
  3  4  1  0  0  0  0
  4  5  2  0  0  0  0
  5  6  1  0  0  0  0
  1  6  2  0  0  0  0
  7  8  2  0  0  0  0
  7  9  1  0  0  0  0
  1  7  1  0  0  0  0
  4 10  1  0  0  0  0
  9 11  1  0  0  0  0
M  END
>  <cdx:fragmentId>
1988

$$$$
