300556.cdx
  Mrv1902 05222410272D          

 19 21  0  0  0  0            999 V2000
    6.7376   -5.3528    0.0000 C   0  0  0  0  0  0  0  0  0  0  0  0
    6.7376   -6.1778    0.0000 C   0  0  0  0  0  0  0  0  0  0  0  0
    6.0231   -6.5903    0.0000 C   0  0  0  0  0  0  0  0  0  0  0  0
    5.3086   -6.1778    0.0000 C   0  0  0  0  0  0  0  0  0  0  0  0
    4.5942   -6.5903    0.0000 C   0  0  0  0  0  0  0  0  0  0  0  0
    3.8797   -6.1778    0.0000 C   0  0  0  0  0  0  0  0  0  0  0  0
    3.8797   -5.3528    0.0000 C   0  0  0  0  0  0  0  0  0  0  0  0
    4.5942   -4.9403    0.0000 C   0  0  0  0  0  0  0  0  0  0  0  0
    5.3086   -5.3528    0.0000 C   0  0  0  0  0  0  0  0  0  0  0  0
    6.0231   -4.9403    0.0000 O   0  0  0  0  0  0  0  0  0  0  0  0
    6.0231   -7.4153    0.0000 O   0  0  0  0  0  0  0  0  0  0  0  0
    7.4520   -6.5903    0.0000 C   0  0  0  0  0  0  0  0  0  0  0  0
    8.1665   -6.1778    0.0000 C   0  0  0  0  0  0  0  0  0  0  0  0
    8.8810   -6.5903    0.0000 C   0  0  0  0  0  0  0  0  0  0  0  0
    8.8810   -7.4153    0.0000 C   0  0  0  0  0  0  0  0  0  0  0  0
    8.1665   -7.8278    0.0000 C   0  0  0  0  0  0  0  0  0  0  0  0
    7.4520   -7.4153    0.0000 C   0  0  0  0  0  0  0  0  0  0  0  0
    3.1652   -4.9403    0.0000 O   0  0  0  0  0  0  0  0  0  0  0  0
    4.5942   -7.4153    0.0000 O   0  0  0  0  0  0  0  0  0  0  0  0
  1  2  2  0  0  0  0
  2  3  1  0  0  0  0
  3  4  1  0  0  0  0
  4  5  1  0  0  0  0
  5  6  2  0  0  0  0
  6  7  1  0  0  0  0
  7  8  2  0  0  0  0
  8  9  1  0  0  0  0
  4  9  2  0  0  0  0
  9 10  1  0  0  0  0
  1 10  1  0  0  0  0
  3 11  2  0  0  0  0
 12 13  1  0  0  0  0
 13 14  2  0  0  0  0
 14 15  1  0  0  0  0
 15 16  2  0  0  0  0
 16 17  1  0  0  0  0
 12 17  2  0  0  0  0
  2 12  1  0  0  0  0
  7 18  1  0  0  0  0
  5 19  1  0  0  0  0
M  END
>  <cdx:fragmentId>
3235

$$$$
