300521.cdx
  Mrv1902 05222410242D          

 16 17  0  0  0  0            999 V2000
    5.6547   -5.7733    0.0000 C   0  0  0  0  0  0  0  0  0  0  0  0
    6.3692   -6.1858    0.0000 C   0  0  0  0  0  0  0  0  0  0  0  0
    6.3692   -7.0108    0.0000 C   0  0  0  0  0  0  0  0  0  0  0  0
    5.6547   -7.4233    0.0000 C   0  0  0  0  0  0  0  0  0  0  0  0
    4.9402   -7.0108    0.0000 C   0  0  0  0  0  0  0  0  0  0  0  0
    4.2257   -7.4233    0.0000 C   0  0  0  0  0  0  0  0  0  0  0  0
    3.5113   -7.0108    0.0000 C   0  0  0  0  0  0  0  0  0  0  0  0
    3.5113   -6.1858    0.0000 C   0  0  0  0  0  0  0  0  0  0  0  0
    4.2257   -5.7733    0.0000 C   0  0  0  0  0  0  0  0  0  0  0  0
    4.9402   -6.1858    0.0000 C   0  0  0  0  0  0  0  0  0  0  0  0
    5.6547   -4.9483    0.0000 O   0  0  0  0  0  0  0  0  0  0  0  0
    7.0836   -8.2483    0.0000 C   0  0  0  0  0  0  0  0  0  0  0  0
    7.0836   -7.4233    0.0000 C   0  0  0  0  0  0  0  0  0  0  0  0
    7.7981   -7.0108    0.0000 C   0  0  0  0  0  0  0  0  0  0  0  0
    4.2257   -8.2483    0.0000 C   0  0  0  0  0  0  0  0  0  0  0  0
    4.9402   -7.8358    0.0000 C   0  0  0  0  0  0  0  0  0  0  0  0
  1  2  1  0  0  0  0
  2  3  1  0  0  0  0
  3  4  1  0  0  0  0
  4  5  1  0  0  0  0
  5  6  1  0  0  0  0
  6  7  1  0  0  0  0
  7  8  1  0  0  0  0
  8  9  1  0  0  0  0
  9 10  2  0  0  0  0
  1 10  1  0  0  0  0
  5 10  1  0  0  0  0
  1 11  1  0  0  0  0
 12 13  2  0  0  0  0
 13 14  1  0  0  0  0
  3 13  1  0  0  0  0
  6 15  1  0  0  0  0
  5 16  1  0  0  0  0
M  END
>  <cdx:fragmentId>
1122

$$$$
