300514.cdx
  Mrv1902 05222410212D          

 26 28  0  0  0  0            999 V2000
    6.2173   -6.1798    0.0000 C   0  0  0  0  0  0  0  0  0  0  0  0
    6.2173   -7.0048    0.0000 C   0  0  0  0  0  0  0  0  0  0  0  0
    5.5028   -7.4173    0.0000 C   0  0  0  0  0  0  0  0  0  0  0  0
    4.7884   -7.0048    0.0000 C   0  0  0  0  0  0  0  0  0  0  0  0
    4.0739   -7.4173    0.0000 C   0  0  0  0  0  0  0  0  0  0  0  0
    3.3594   -7.0048    0.0000 C   0  0  0  0  0  0  0  0  0  0  0  0
    3.3594   -6.1798    0.0000 C   0  0  0  0  0  0  0  0  0  0  0  0
    4.0739   -5.7673    0.0000 C   0  0  0  0  0  0  0  0  0  0  0  0
    4.7884   -6.1798    0.0000 C   0  0  0  0  0  0  0  0  0  0  0  0
    5.5028   -5.7673    0.0000 O   0  0  0  0  0  0  0  0  0  0  0  0
    5.5028   -8.2423    0.0000 O   0  0  0  0  0  0  0  0  0  0  0  0
    4.0739   -4.9423    0.0000 O   0  0  0  0  0  0  0  0  0  0  0  0
    3.3594   -4.5298    0.0000 C   0  0  0  0  0  0  0  0  0  0  0  0
    2.6450   -5.7673    0.0000 O   0  0  0  0  0  0  0  0  0  0  0  0
    1.9305   -6.1798    0.0000 C   0  0  0  0  0  0  0  0  0  0  0  0
    2.6450   -7.4173    0.0000 O   0  0  0  0  0  0  0  0  0  0  0  0
    1.9305   -7.0048    0.0000 C   0  0  0  0  0  0  0  0  0  0  0  0
    4.0739   -8.2423    0.0000 O   0  0  0  0  0  0  0  0  0  0  0  0
    3.3594   -8.6548    0.0000 C   0  0  0  0  0  0  0  0  0  0  0  0
    6.9318   -5.7673    0.0000 C   0  0  0  0  0  0  0  0  0  0  0  0
    6.9318   -4.9423    0.0000 C   0  0  0  0  0  0  0  0  0  0  0  0
    7.6462   -4.5298    0.0000 C   0  0  0  0  0  0  0  0  0  0  0  0
    8.3607   -4.9423    0.0000 C   0  0  0  0  0  0  0  0  0  0  0  0
    8.3607   -5.7673    0.0000 C   0  0  0  0  0  0  0  0  0  0  0  0
    7.6462   -6.1798    0.0000 C   0  0  0  0  0  0  0  0  0  0  0  0
    9.0752   -4.5298    0.0000 O   0  0  0  0  0  0  0  0  0  0  0  0
  1  2  2  0  0  0  0
  2  3  1  0  0  0  0
  3  4  1  0  0  0  0
  4  5  1  0  0  0  0
  5  6  2  0  0  0  0
  6  7  1  0  0  0  0
  7  8  2  0  0  0  0
  8  9  1  0  0  0  0
  4  9  2  0  0  0  0
  9 10  1  0  0  0  0
  1 10  1  0  0  0  0
  3 11  2  0  0  0  0
 12 13  1  0  0  0  0
  8 12  1  0  0  0  0
 14 15  1  0  0  0  0
  7 14  1  0  0  0  0
 16 17  1  0  0  0  0
  6 16  1  0  0  0  0
 18 19  1  0  0  0  0
  5 18  1  0  0  0  0
 20 21  1  0  0  0  0
 21 22  2  0  0  0  0
 22 23  1  0  0  0  0
 23 24  2  0  0  0  0
 24 25  1  0  0  0  0
 20 25  2  0  0  0  0
 23 26  1  0  0  0  0
  1 20  1  0  0  0  0
M  END
>  <cdx:fragmentId>
696

$$$$
