300565.cdx
  Mrv1902 05222410202D          

 35 38  0  0  0  0            999 V2000
    3.8024  -10.2369    0.0000 C   0  0  0  0  0  0  0  0  0  0  0  0
    3.8024  -11.0619    0.0000 C   0  0  0  0  0  0  0  0  0  0  0  0
    4.5169  -11.4744    0.0000 C   0  0  0  0  0  0  0  0  0  0  0  0
    5.2313  -11.0619    0.0000 C   0  0  1  0  0  0  0  0  0  0  0  0
    5.2313  -10.2369    0.0000 C   0  0  2  0  0  0  0  0  0  0  0  0
    4.5169   -9.8244    0.0000 C   0  0  0  0  0  0  0  0  0  0  0  0
    5.9458  -11.4744    0.0000 C   0  0  0  0  0  0  0  0  0  0  0  0
    6.6603  -11.0619    0.0000 C   0  0  0  0  0  0  0  0  0  0  0  0
    6.6603  -10.2369    0.0000 C   0  0  0  0  0  0  0  0  0  0  0  0
    5.9458   -9.8244    0.0000 C   0  0  0  0  0  0  0  0  0  0  0  0
    7.3748   -9.8244    0.0000 C   0  0  1  0  0  0  0  0  0  0  0  0
    7.3748   -8.9994    0.0000 C   0  0  2  0  0  0  0  0  0  0  0  0
    6.6603   -8.5869    0.0000 C   0  0  0  0  0  0  0  0  0  0  0  0
    5.9458   -8.9994    0.0000 C   0  0  0  0  0  0  0  0  0  0  0  0
    8.1594  -10.0793    0.0000 C   0  0  2  0  0  0  0  0  0  0  0  0
    8.6443   -9.4119    0.0000 C   0  0  0  0  0  0  0  0  0  0  0  0
    8.1594   -8.7444    0.0000 C   0  0  2  0  0  0  0  0  0  0  0  0
    4.1044  -12.1888    0.0000 C   0  0  0  0  0  0  0  0  0  0  0  0
    4.9294  -12.1888    0.0000 C   0  0  0  0  0  0  0  0  0  0  0  0
    3.0879  -11.4744    0.0000 O   0  0  0  0  0  0  0  0  0  0  0  0
    7.7895   -7.3642    0.0000 C   0  0  0  0  0  0  0  0  0  0  0  0
    9.8104   -5.3434    0.0000 C   0  0  0  0  0  0  0  0  0  0  0  0
   11.4042   -4.9163    0.0000 O   0  0  0  0  0  0  0  0  0  0  0  0
   11.1906   -5.7132    0.0000 C   0  0  0  0  0  0  0  0  0  0  0  0
   10.3937   -5.9267    0.0000 C   0  0  0  0  0  0  0  0  0  0  0  0
   10.1802   -6.7236    0.0000 C   0  0  0  0  0  0  0  0  0  0  0  0
    9.3833   -6.9371    0.0000 C   0  0  0  0  0  0  0  0  0  0  0  0
    9.1698   -7.7340    0.0000 C   0  0  0  0  0  0  0  0  0  0  0  0
    8.3729   -7.9475    0.0000 C   0  0  2  0  0  0  0  0  0  0  0  0
    8.9844   -8.7444    0.0000 H   0  0  0  0  0  0  0  0  0  0  0  0
    8.4143  -10.8639    0.0000 O   0  0  0  0  0  0  0  0  0  0  0  0
    7.3748  -10.6494    0.0000 C   0  0  0  0  0  0  0  0  0  0  0  0
    7.3748   -8.1744    0.0000 C   0  0  0  0  0  0  0  0  0  0  0  0
    5.2313  -11.8869    0.0000 H   0  0  0  0  0  0  0  0  0  0  0  0
    5.2313   -9.4119    0.0000 C   0  0  0  0  0  0  0  0  0  0  0  0
  1  2  1  0  0  0  0
  2  3  1  0  0  0  0
  3  4  1  0  0  0  0
  4  5  1  0  0  0  0
  5  6  1  0  0  0  0
  6  1  1  0  0  0  0
  4  7  1  0  0  0  0
  7  8  1  0  0  0  0
  8  9  2  0  0  0  0
  9 10  1  0  0  0  0
 10  5  1  0  0  0  0
  9 11  1  0  0  0  0
 11 12  1  0  0  0  0
 12 13  1  0  0  0  0
 13 14  1  0  0  0  0
 14 10  2  0  0  0  0
 11 15  1  0  0  0  0
 15 16  1  0  0  0  0
 16 17  1  0  0  0  0
 17 12  1  0  0  0  0
  3 18  1  0  0  0  0
  3 19  1  0  0  0  0
  2 20  2  0  0  0  0
 29 21  1  6  0  0  0
 17 29  1  0  0  0  0
 25 22  1  0  0  0  0
 24 23  1  0  0  0  0
 25 24  1  0  0  0  0
 26 25  2  0  0  0  0
 27 26  1  0  0  0  0
 28 27  1  0  0  0  0
 29 28  1  0  0  0  0
 17 30  1  6  0  0  0
 15 31  1  6  0  0  0
 11 32  1  6  0  0  0
 12 33  1  1  0  0  0
  4 34  1  6  0  0  0
  5 35  1  1  0  0  0
M  END
>  <cdx:fragmentId>
135

$$$$
