300653.cdx
  Mrv1902 05222410252D          

 18 20  0  0  0  0            999 V2000
    5.1705   -5.1767    0.0000 O   0  0  0  0  0  0  0  0  0  0  0  0
    5.8849   -4.7642    0.0000 C   0  0  0  0  0  0  0  0  0  0  0  0
    6.5994   -5.1767    0.0000 C   0  0  0  0  0  0  0  0  0  0  0  0
    6.5994   -6.0017    0.0000 N   0  0  0  0  0  0  0  0  0  0  0  0
    5.8849   -6.4142    0.0000 C   0  0  0  0  0  0  0  0  0  0  0  0
    5.1705   -6.0017    0.0000 C   0  0  1  0  0  0  0  0  0  0  0  0
    7.3840   -4.9218    0.0000 C   0  0  0  0  0  0  0  0  0  0  0  0
    7.8689   -5.5892    0.0000 C   0  0  0  0  0  0  0  0  0  0  0  0
    7.3840   -6.2566    0.0000 C   0  0  0  0  0  0  0  0  0  0  0  0
    5.0842   -6.8222    0.0000 O   0  0  0  0  0  0  0  0  0  0  0  0
    4.4168   -5.6661    0.0000 C   0  0  0  0  0  0  0  0  0  0  0  0
    3.8648   -6.2792    0.0000 C   0  0  1  0  0  0  0  0  0  0  0  0
    4.2773   -6.9937    0.0000 C   0  0  1  0  0  0  0  0  0  0  0  0
    7.6390   -7.0413    0.0000 C   0  0  0  0  0  0  0  0  0  0  0  0
    8.4459   -7.2128    0.0000 O   0  0  0  0  0  0  0  0  0  0  0  0
    3.9417   -7.7474    0.0000 C   0  0  0  0  0  0  0  0  0  0  0  0
    3.1212   -7.8336    0.0000 O   0  0  0  0  0  0  0  0  0  0  0  0
    3.0443   -6.1930    0.0000 O   0  0  0  0  0  0  0  0  0  0  0  0
  1  2  1  0  0  0  0
  2  3  1  0  0  0  0
  3  4  1  0  0  0  0
  4  5  1  0  0  0  0
  5  6  1  0  0  0  0
  1  6  1  0  0  0  0
  7  8  1  0  0  0  0
  8  9  2  0  0  0  0
  3  7  2  0  0  0  0
  4  9  1  0  0  0  0
 11 12  1  0  0  0  0
 12 13  1  0  0  0  0
 10 13  1  0  0  0  0
  6 10  1  1  0  0  0
  6 11  1  6  0  0  0
 14 15  2  0  0  0  0
  9 14  1  0  0  0  0
 16 17  1  0  0  0  0
 13 16  1  6  0  0  0
 12 18  1  1  0  0  0
M  END
>  <cdx:fragmentId>
56

$$$$
