300637.cdx
  Mrv1902 05222410262D          

 22 21  0  0  0  0            999 V2000
   12.5592   -6.0521    0.0000 C   0  0  0  0  0  0  0  0  0  0  0  0
   11.8448   -6.4646    0.0000 C   0  0  0  0  0  0  0  0  0  0  0  0
   11.1303   -6.0521    0.0000 C   0  0  0  0  0  0  0  0  0  0  0  0
   10.4158   -6.4646    0.0000 C   0  0  0  0  0  0  0  0  0  0  0  0
    9.7013   -6.0521    0.0000 C   0  0  0  0  0  0  0  0  0  0  0  0
    8.9869   -6.4646    0.0000 C   0  0  0  0  0  0  0  0  0  0  0  0
    8.2724   -6.0521    0.0000 C   0  0  0  0  0  0  0  0  0  0  0  0
    7.5579   -6.4646    0.0000 C   0  0  0  0  0  0  0  0  0  0  0  0
    6.8435   -6.0521    0.0000 C   0  0  0  0  0  0  0  0  0  0  0  0
    6.1290   -6.4646    0.0000 C   0  0  0  0  0  0  0  0  0  0  0  0
    5.4145   -6.0521    0.0000 C   0  0  0  0  0  0  0  0  0  0  0  0
    4.7000   -6.4646    0.0000 C   0  0  0  0  0  0  0  0  0  0  0  0
    3.9856   -6.0521    0.0000 C   0  0  0  0  0  0  0  0  0  0  0  0
    3.2711   -6.4646    0.0000 C   0  0  0  0  0  0  0  0  0  0  0  0
    2.5566   -6.0521    0.0000 C   0  0  0  0  0  0  0  0  0  0  0  0
    1.8422   -6.4646    0.0000 C   0  0  0  0  0  0  0  0  0  0  0  0
    1.1277   -6.0521    0.0000 C   0  0  0  0  0  0  0  0  0  0  0  0
    0.4132   -6.4646    0.0000 C   0  0  0  0  0  0  0  0  0  0  0  0
   12.5592   -5.2271    0.0000 O   0  0  0  0  0  0  0  0  0  0  0  0
   13.2737   -6.4646    0.0000 O   0  0  0  0  0  0  0  0  0  0  0  0
    6.1290   -7.2896    0.0000 O   0  0  0  0  0  0  0  0  0  0  0  0
    6.8435   -5.2271    0.0000 O   0  0  0  0  0  0  0  0  0  0  0  0
  1  2  1  0  0  0  0
  2  3  1  0  0  0  0
  3  4  1  0  0  0  0
  4  5  1  0  0  0  0
  5  6  1  0  0  0  0
  6  7  1  0  0  0  0
  7  8  1  0  0  0  0
  8  9  1  0  0  0  0
  9 10  1  0  0  0  0
 10 11  1  0  0  0  0
 11 12  1  0  0  0  0
 12 13  1  0  0  0  0
 13 14  1  0  0  0  0
 14 15  1  0  0  0  0
 15 16  1  0  0  0  0
 16 17  1  0  0  0  0
 17 18  1  0  0  0  0
  1 19  2  0  0  0  0
  1 20  1  0  0  0  0
 10 21  1  0  0  0  0
  9 22  1  0  0  0  0
M  END
>  <cdx:fragmentId>
8517

$$$$
