300698.cdx
  Mrv1902 05222410222D          

 35 39  0  0  0  0            999 V2000
    3.9960   -6.9417    0.0000 C   0  0  0  0  0  0  0  0  0  0  0  0
    4.6672   -6.4619    0.0000 O   0  0  0  0  0  0  0  0  0  0  0  0
    3.9813   -5.4406    0.0000 C   0  0  0  0  0  0  0  0  0  0  0  0
    4.6617   -5.9072    0.0000 O   0  0  0  0  0  0  0  0  0  0  0  0
    8.9699   -6.8707    0.0000 C   0  0  0  0  0  0  0  0  0  0  0  0
    8.9556   -5.4144    0.0000 C   0  0  0  0  0  0  0  0  0  0  0  0
    5.4060   -5.5512    0.0000 C   0  0  0  0  0  0  0  0  0  0  0  0
    5.1847   -4.7565    0.0000 C   0  0  0  0  0  0  0  0  0  0  0  0
    4.4460   -4.3891    0.0000 O   0  0  0  0  0  0  0  0  0  0  0  0
    4.5671   -3.5731    0.0000 C   0  0  0  0  0  0  0  0  0  0  0  0
    5.3806   -3.4361    0.0000 O   0  0  0  0  0  0  0  0  0  0  0  0
    5.7623   -4.1674    0.0000 C   0  0  0  0  0  0  0  0  0  0  0  0
    6.5613   -4.3732    0.0000 C   0  0  0  0  0  0  0  0  0  0  0  0
    6.7826   -5.1679    0.0000 C   0  0  0  0  0  0  0  0  0  0  0  0
    7.6075   -5.1599    0.0000 C   0  0  0  0  0  0  0  0  0  0  0  0
    8.1966   -5.7375    0.0000 C   0  0  1  0  0  0  0  0  0  0  0  0
    8.2046   -6.5625    0.0000 C   0  0  1  0  0  0  0  0  0  0  0  0
    7.6270   -7.1515    0.0000 C   0  0  2  0  0  0  0  0  0  0  0  0
    6.8020   -7.1596    0.0000 C   0  0  0  0  0  0  0  0  0  0  0  0
    6.5963   -7.9585    0.0000 C   0  0  0  0  0  0  0  0  0  0  0  0
    5.8015   -8.1798    0.0000 C   0  0  0  0  0  0  0  0  0  0  0  0
    5.4342   -8.9185    0.0000 O   0  0  0  0  0  0  0  0  0  0  0  0
    4.6181   -8.7974    0.0000 C   0  0  0  0  0  0  0  0  0  0  0  0
    4.4811   -7.9839    0.0000 O   0  0  0  0  0  0  0  0  0  0  0  0
    5.2125   -7.6022    0.0000 C   0  0  0  0  0  0  0  0  0  0  0  0
    5.4182   -6.8032    0.0000 C   0  0  0  0  0  0  0  0  0  0  0  0
    6.2130   -6.5819    0.0000 C   0  0  0  0  0  0  0  0  0  0  0  0
    6.2049   -5.7570    0.0000 C   0  0  0  0  0  0  0  0  0  0  0  0
    8.5964   -9.4287    0.0000 C   0  0  0  0  0  0  0  0  0  0  0  0
    7.9501   -7.9106    0.0000 O   0  0  0  0  0  0  0  0  0  0  0  0
    9.2649   -7.3509    0.0000 O   0  0  0  0  0  0  0  0  0  0  0  0
   10.4070   -8.2096    0.0000 C   0  0  0  0  0  0  0  0  0  0  0  0
    9.9112   -8.8690    0.0000 C   0  0  0  0  0  0  0  0  0  0  0  0
    9.0922   -8.7694    0.0000 C   0  0  0  0  0  0  0  0  0  0  0  0
    8.7691   -8.0103    0.0000 C   0  0  0  0  0  0  0  0  0  0  0  0
 18 30  1  1  0  0  0
 26  2  1  0  0  0  0
  2  1  1  0  0  0  0
  7  4  1  0  0  0  0
  4  3  1  0  0  0  0
 17  5  1  6  0  0  0
 16  6  1  6  0  0  0
 12  8  2  0  0  0  0
 25 21  2  0  0  0  0
 27 19  1  0  0  0  0
 28 14  1  0  0  0  0
 28  7  2  0  0  0  0
  8  7  1  0  0  0  0
  9  8  1  0  0  0  0
 10  9  1  0  0  0  0
 11 10  1  0  0  0  0
 12 11  1  0  0  0  0
 13 12  1  0  0  0  0
 14 13  2  0  0  0  0
 15 14  1  0  0  0  0
 16 15  1  0  0  0  0
 17 16  1  0  0  0  0
 18 17  1  0  0  0  0
 19 18  1  0  0  0  0
 20 19  2  0  0  0  0
 21 20  1  0  0  0  0
 22 21  1  0  0  0  0
 23 22  1  0  0  0  0
 24 23  1  0  0  0  0
 25 24  1  0  0  0  0
 26 25  1  0  0  0  0
 27 26  2  0  0  0  0
 28 27  1  0  0  0  0
 34 29  1  0  0  0  0
 35 30  1  0  0  0  0
 35 31  2  0  0  0  0
 33 32  1  0  0  0  0
 34 33  2  0  0  0  0
 35 34  1  0  0  0  0
M  END
>  <cdx:fragmentId>
883

$$$$
