300668.cdx
  Mrv1902 05222410232D          

 32 36  0  0  0  0            999 V2000
    7.2084  -10.4350    0.0000 C   0  0  1  0  0  0  0  0  0  0  0  0
    7.9228  -10.0225    0.0000 C   0  0  2  0  0  0  0  0  0  0  0  0
    8.7075  -10.2774    0.0000 C   0  0  0  0  0  0  0  0  0  0  0  0
    9.1924   -9.6100    0.0000 C   0  0  1  0  0  0  0  0  0  0  0  0
    9.9770   -9.3551    0.0000 O   0  0  0  0  0  0  0  0  0  0  0  0
    9.9770   -8.5301    0.0000 C   0  0  0  0  0  0  0  0  0  0  0  0
    9.1924   -8.2751    0.0000 O   0  0  0  0  0  0  0  0  0  0  0  0
    8.7075   -8.9426    0.0000 C   0  0  1  0  0  0  0  0  0  0  0  0
    7.9228   -9.1975    0.0000 C   0  0  1  0  0  0  0  0  0  0  0  0
    7.2084   -8.7850    0.0000 C   0  0  0  0  0  0  0  0  0  0  0  0
    6.4939   -9.1975    0.0000 C   0  0  0  0  0  0  0  0  0  0  0  0
    6.4939  -10.0225    0.0000 C   0  0  2  0  0  0  0  0  0  0  0  0
    5.7794  -10.4350    0.0000 C   0  0  1  0  0  0  0  0  0  0  0  0
    5.0649  -10.0225    0.0000 C   0  0  0  0  0  0  0  0  0  0  0  0
    4.3505  -10.4350    0.0000 C   0  0  0  0  0  0  0  0  0  0  0  0
    4.3505  -11.2600    0.0000 C   0  0  0  0  0  0  0  0  0  0  0  0
    5.0649  -11.6725    0.0000 C   0  0  0  0  0  0  0  0  0  0  0  0
    5.7794  -11.2600    0.0000 C   0  0  0  0  0  0  0  0  0  0  0  0
    6.4939  -11.6725    0.0000 C   0  0  0  0  0  0  0  0  0  0  0  0
    7.2084  -11.2600    0.0000 C   0  0  0  0  0  0  0  0  0  0  0  0
    3.6360  -11.6725    0.0000 O   0  0  0  0  0  0  0  0  0  0  0  0
    5.7794   -9.6100    0.0000 C   0  0  0  0  0  0  0  0  0  0  0  0
    7.9228   -8.5788    0.0000 C   0  0  0  0  0  0  0  0  0  0  0  0
   10.3126   -7.7764    0.0000 C   0  0  0  0  0  0  0  0  0  0  0  0
   10.7975   -8.4438    0.0000 C   0  0  0  0  0  0  0  0  0  0  0  0
    8.1516   -8.2322    0.0000 C   0  0  0  0  0  0  0  0  0  0  0  0
    8.4871   -7.4785    0.0000 O   0  0  0  0  0  0  0  0  0  0  0  0
    7.3311   -8.3184    0.0000 C   0  0  0  0  0  0  0  0  0  0  0  0
    7.2084   -9.6100    0.0000 H   0  0  0  0  0  0  0  0  0  0  0  0
    7.9228  -10.8475    0.0000 H   0  0  0  0  0  0  0  0  0  0  0  0
    9.6773  -10.2774    0.0000 H   0  0  0  0  0  0  0  0  0  0  0  0
    6.4939  -10.8475    0.0000 H   0  0  0  0  0  0  0  0  0  0  0  0
  1  2  1  0  0  0  0
  2  3  1  0  0  0  0
  3  4  1  0  0  0  0
  4  5  1  0  0  0  0
  5  6  1  0  0  0  0
  6  7  1  0  0  0  0
  7  8  1  0  0  0  0
  8  9  1  0  0  0  0
  9 10  1  0  0  0  0
 10 11  1  0  0  0  0
 11 12  1  0  0  0  0
 12 13  1  0  0  0  0
 13 14  1  0  0  0  0
 14 15  1  0  0  0  0
 15 16  1  0  0  0  0
 16 17  1  0  0  0  0
 17 18  2  0  0  0  0
 18 19  1  0  0  0  0
 19 20  1  0  0  0  0
  1 20  1  0  0  0  0
  1 12  1  0  0  0  0
  2  9  1  0  0  0  0
  4  8  1  0  0  0  0
 13 18  1  0  0  0  0
 16 21  2  0  0  0  0
 13 22  1  1  0  0  0
  9 23  1  1  0  0  0
  6 24  1  0  0  0  0
  6 25  1  0  0  0  0
 26 27  2  0  0  0  0
 26 28  1  0  0  0  0
  8 26  1  1  0  0  0
  1 29  1  1  0  0  0
  2 30  1  6  0  0  0
  4 31  1  1  0  0  0
 12 32  1  6  0  0  0
M  END
>  <cdx:fragmentId>
1960

$$$$
