300627.cdx
  Mrv1902 05222410282D          

 13 13  0  0  0  0            999 V2000
    5.7725   -6.2629    0.0000 C   0  0  0  0  0  0  0  0  0  0  0  0
    5.9467   -7.0693    0.0000 C   0  0  0  0  0  0  0  0  0  0  0  0
    5.3355   -7.6234    0.0000 C   0  0  0  0  0  0  0  0  0  0  0  0
    8.3019   -8.7685    0.0000 O   0  0  0  0  0  0  0  0  0  0  0  0
    8.8508   -7.0597    0.0000 C   0  0  0  0  0  0  0  0  0  0  0  0
    4.5500   -7.3710    0.0000 O   0  0  0  0  0  0  0  0  0  0  0  0
    8.1098   -5.5970    0.0000 O   0  0  0  0  0  0  0  0  0  0  0  0
    7.3953   -6.0095    0.0000 C   0  0  0  0  0  0  0  0  0  0  0  0
    6.7322   -7.3216    0.0000 C   0  0  1  0  0  0  0  0  0  0  0  0
    6.9897   -8.1054    0.0000 C   0  0  0  0  0  0  0  0  0  0  0  0
    7.8147   -8.1027    0.0000 C   0  0  1  0  0  0  0  0  0  0  0  0
    8.0671   -7.3172    0.0000 C   0  0  0  0  0  0  0  0  0  0  0  0
    7.3980   -6.8345    0.0000 C   0  0  0  0  0  0  0  0  0  0  0  0
 11  4  1  1  0  0  0
 12  5  1  0  0  0  0
  9  2  1  6  0  0  0
 13  8  1  0  0  0  0
  8  7  2  0  0  0  0
 13  9  1  0  0  0  0
 10  9  1  0  0  0  0
 11 10  1  0  0  0  0
 12 11  1  0  0  0  0
 13 12  2  0  0  0  0
  1  2  2  0  0  0  0
  2  3  1  0  0  0  0
  3  6  2  0  0  0  0
M  END
>  <cdx:fragmentId>
7925

$$$$
