300674.cdx
  Mrv1902 05222410212D          

  8  7  0  0  0  0            999 V2000
    4.7181   -6.1655    0.0000 C   0  0  0  0  0  0  0  0  0  0  0  0
    5.4326   -6.5780    0.0000 C   0  0  0  0  0  0  0  0  0  0  0  0
    6.1470   -6.1655    0.0000 C   0  0  0  0  0  0  0  0  0  0  0  0
    7.5760   -6.1655    0.0000 S   0  0  0  0  0  0  0  0  0  0  0  0
    6.8615   -6.5780    0.0000 S   0  0  0  0  0  0  0  0  0  0  0  0
    9.7194   -6.5780    0.0000 C   0  0  0  0  0  0  0  0  0  0  0  0
    9.0049   -6.1655    0.0000 C   0  0  0  0  0  0  0  0  0  0  0  0
    8.2905   -6.5780    0.0000 C   0  0  0  0  0  0  0  0  0  0  0  0
  8  4  1  0  0  0  0
  5  3  1  0  0  0  0
  2  1  2  0  0  0  0
  3  2  1  0  0  0  0
  5  4  1  0  0  0  0
  7  6  1  0  0  0  0
  8  7  2  0  0  0  0
M  END
>  <cdx:fragmentId>
2532

$$$$
