300696.cdx
  Mrv1902 05222410232D          

 42 47  0  0  0  0            999 V2000
    7.9995   -5.4386    0.0000 O   0  0  0  0  0  0  0  0  0  0  0  0
    7.9895   -4.4280    0.0000 C   0  0  2  0  0  0  0  0  0  0  0  0
    8.7040   -4.0155    0.0000 C   0  0  0  0  0  0  0  0  0  0  0  0
    8.7040   -3.1905    0.0000 C   0  0  0  0  0  0  0  0  0  0  0  0
    7.9895   -2.7780    0.0000 C   0  0  2  0  0  0  0  0  0  0  0  0
    7.2750   -3.1905    0.0000 C   0  0  1  0  0  0  0  0  0  0  0  0
    7.2750   -4.0155    0.0000 C   0  0  2  0  0  0  0  0  0  0  0  0
    9.4184   -4.4280    0.0000 C   0  0  0  0  0  0  0  0  0  0  0  0
   10.1329   -4.0155    0.0000 C   0  0  0  0  0  0  0  0  0  0  0  0
   10.1329   -3.1905    0.0000 C   0  0  0  0  0  0  0  0  0  0  0  0
    9.4184   -2.7780    0.0000 O   0  0  0  0  0  0  0  0  0  0  0  0
    9.4184   -5.2530    0.0000 O   0  0  0  0  0  0  0  0  0  0  0  0
    6.5605   -4.4280    0.0000 O   0  0  0  0  0  0  0  0  0  0  0  0
   10.8474   -2.7780    0.0000 C   0  0  0  0  0  0  0  0  0  0  0  0
   11.5618   -3.1905    0.0000 C   0  0  0  0  0  0  0  0  0  0  0  0
   12.2763   -2.7780    0.0000 C   0  0  0  0  0  0  0  0  0  0  0  0
   12.9908   -3.1905    0.0000 C   0  0  0  0  0  0  0  0  0  0  0  0
   13.7053   -2.7780    0.0000 C   0  0  0  0  0  0  0  0  0  0  0  0
   13.7053   -1.9530    0.0000 C   0  0  0  0  0  0  0  0  0  0  0  0
   12.9908   -1.5405    0.0000 C   0  0  0  0  0  0  0  0  0  0  0  0
   12.2763   -1.9530    0.0000 C   0  0  0  0  0  0  0  0  0  0  0  0
    7.9895   -1.9530    0.0000 Cl  0  0  0  0  0  0  0  0  0  0  0  0
    6.5605   -2.7780    0.0000 O   0  0  0  0  0  0  0  0  0  0  0  0
    7.4162   -6.0220    0.0000 C   0  0  0  0  0  0  0  0  0  0  0  0
    6.7017   -5.6095    0.0000 C   0  0  0  0  0  0  0  0  0  0  0  0
    5.9872   -6.0220    0.0000 C   0  0  0  0  0  0  0  0  0  0  0  0
    5.9872   -6.8470    0.0000 C   0  0  0  0  0  0  0  0  0  0  0  0
    6.7017   -7.2595    0.0000 C   0  0  0  0  0  0  0  0  0  0  0  0
    7.4162   -6.8470    0.0000 C   0  0  0  0  0  0  0  0  0  0  0  0
    5.2728   -5.6095    0.0000 C   0  0  0  0  0  0  0  0  0  0  0  0
    4.5583   -6.0220    0.0000 C   0  0  0  0  0  0  0  0  0  0  0  0
    4.5583   -6.8470    0.0000 C   0  0  0  0  0  0  0  0  0  0  0  0
    5.2728   -7.2595    0.0000 O   0  0  0  0  0  0  0  0  0  0  0  0
    5.2728   -4.7845    0.0000 O   0  0  0  0  0  0  0  0  0  0  0  0
    3.8438   -7.2595    0.0000 C   0  0  0  0  0  0  0  0  0  0  0  0
    3.1293   -6.8470    0.0000 C   0  0  0  0  0  0  0  0  0  0  0  0
    2.4149   -7.2595    0.0000 C   0  0  0  0  0  0  0  0  0  0  0  0
    1.7004   -6.8470    0.0000 C   0  0  0  0  0  0  0  0  0  0  0  0
    0.9859   -7.2595    0.0000 C   0  0  0  0  0  0  0  0  0  0  0  0
    0.9859   -8.0845    0.0000 C   0  0  0  0  0  0  0  0  0  0  0  0
    1.7004   -8.4970    0.0000 C   0  0  0  0  0  0  0  0  0  0  0  0
    2.4149   -8.0845    0.0000 C   0  0  0  0  0  0  0  0  0  0  0  0
  2  1  1  1  0  0  0
  2  3  1  0  0  0  0
  3  4  2  0  0  0  0
  4  5  1  0  0  0  0
  5  6  1  0  0  0  0
  6  7  1  0  0  0  0
  7  2  1  0  0  0  0
  3  8  1  0  0  0  0
  8  9  1  0  0  0  0
  9 10  2  0  0  0  0
 10 11  1  0  0  0  0
 11  4  1  0  0  0  0
  8 12  2  0  0  0  0
  7 13  1  1  0  0  0
 10 14  1  0  0  0  0
 14 15  1  0  0  0  0
 15 16  1  0  0  0  0
 16 17  2  0  0  0  0
 17 18  1  0  0  0  0
 18 19  2  0  0  0  0
 19 20  1  0  0  0  0
 20 21  2  0  0  0  0
 21 16  1  0  0  0  0
  5 22  1  6  0  0  0
  6 23  1  1  0  0  0
  1 24  1  0  0  0  0
 24 25  2  0  0  0  0
 25 26  1  0  0  0  0
 26 27  2  0  0  0  0
 27 28  1  0  0  0  0
 28 29  2  0  0  0  0
 29 24  1  0  0  0  0
 26 30  1  0  0  0  0
 30 31  1  0  0  0  0
 31 32  2  0  0  0  0
 32 33  1  0  0  0  0
 33 27  1  0  0  0  0
 30 34  2  0  0  0  0
 32 35  1  0  0  0  0
 35 36  1  0  0  0  0
 36 37  1  0  0  0  0
 37 38  2  0  0  0  0
 38 39  1  0  0  0  0
 39 40  2  0  0  0  0
 40 41  1  0  0  0  0
 41 42  2  0  0  0  0
 42 37  1  0  0  0  0
M  END
>  <cdx:fragmentId>
756

$$$$
