300609.cdx
  Mrv1902 05222410272D          

  9  8  0  0  0  0            999 V2000
    3.3362   -7.0028    0.0000 C   0  0  0  0  0  0  0  0  0  0  0  0
    4.0507   -6.5903    0.0000 C   0  0  0  0  0  0  0  0  0  0  0  0
    4.7652   -7.0028    0.0000 C   0  0  0  0  0  0  0  0  0  0  0  0
    5.4796   -6.5903    0.0000 C   0  0  0  0  0  0  0  0  0  0  0  0
    6.1941   -7.0028    0.0000 C   0  0  0  0  0  0  0  0  0  0  0  0
    6.9086   -6.5903    0.0000 C   0  0  0  0  0  0  0  0  0  0  0  0
    7.6231   -7.0028    0.0000 C   0  0  0  0  0  0  0  0  0  0  0  0
    8.3375   -6.5903    0.0000 C   0  0  0  0  0  0  0  0  0  0  0  0
    4.0507   -5.7653    0.0000 O   0  0  0  0  0  0  0  0  0  0  0  0
  1  2  1  0  0  0  0
  2  3  1  0  0  0  0
  3  4  1  0  0  0  0
  4  5  1  0  0  0  0
  5  6  1  0  0  0  0
  6  7  1  0  0  0  0
  7  8  2  0  0  0  0
  2  9  1  0  0  0  0
M  END
>  <cdx:fragmentId>
6770

$$$$
