300686.cdx
  Mrv1902 05222410252D          

 36 39  0  0  0  0            999 V2000
    7.2697   -7.3652    0.0000 C   0  0  0  0  0  0  0  0  0  0  0  0
    7.9842   -7.7777    0.0000 C   0  0  0  0  0  0  0  0  0  0  0  0
    7.9842   -8.6027    0.0000 C   0  0  0  0  0  0  0  0  0  0  0  0
    7.2697   -9.0152    0.0000 C   0  0  0  0  0  0  0  0  0  0  0  0
    6.5552   -8.6027    0.0000 C   0  0  0  0  0  0  0  0  0  0  0  0
    6.5552   -7.7777    0.0000 C   0  0  0  0  0  0  0  0  0  0  0  0
    7.2697   -6.5402    0.0000 O   0  0  0  0  0  0  0  0  0  0  0  0
    8.6986   -9.0152    0.0000 O   0  0  0  0  0  0  0  0  0  0  0  0
    5.8408   -9.0152    0.0000 C   0  0  0  0  0  0  0  0  0  0  0  0
    5.1263   -8.6027    0.0000 C   0  0  0  0  0  0  0  0  0  0  0  0
    8.9130   -7.2414    0.0000 C   0  0  0  0  0  0  0  0  0  0  0  0
    9.6275   -7.6539    0.0000 C   0  0  0  0  0  0  0  0  0  0  0  0
   10.3419   -7.2414    0.0000 C   0  0  0  0  0  0  0  0  0  0  0  0
   10.3419   -6.4164    0.0000 C   0  0  0  0  0  0  0  0  0  0  0  0
   11.0564   -6.0039    0.0000 C   0  0  0  0  0  0  0  0  0  0  0  0
   11.7709   -6.4164    0.0000 C   0  0  0  0  0  0  0  0  0  0  0  0
   11.7709   -7.2414    0.0000 C   0  0  0  0  0  0  0  0  0  0  0  0
   11.0564   -7.6539    0.0000 C   0  0  0  0  0  0  0  0  0  0  0  0
   12.4853   -7.6539    0.0000 O   0  0  0  0  0  0  0  0  0  0  0  0
   11.0564   -5.1789    0.0000 O   0  0  0  0  0  0  0  0  0  0  0  0
    8.9130   -6.1689    0.0000 C   0  0  0  0  0  0  0  0  0  0  0  0
    8.1985   -5.7564    0.0000 C   0  0  0  0  0  0  0  0  0  0  0  0
    8.1985   -4.9314    0.0000 C   0  0  0  0  0  0  0  0  0  0  0  0
    8.9130   -4.5189    0.0000 C   0  0  0  0  0  0  0  0  0  0  0  0
    9.6275   -4.9314    0.0000 C   0  0  0  0  0  0  0  0  0  0  0  0
    9.6275   -5.7564    0.0000 C   0  0  0  0  0  0  0  0  0  0  0  0
    8.9130   -3.6939    0.0000 O   0  0  0  0  0  0  0  0  0  0  0  0
    7.4840   -6.1689    0.0000 O   0  0  0  0  0  0  0  0  0  0  0  0
    3.6973   -7.7777    0.0000 O   0  0  0  0  0  0  0  0  0  0  0  0
    2.2684  -10.2527    0.0000 O   0  0  0  0  0  0  0  0  0  0  0  0
    4.4118   -9.8402    0.0000 C   0  0  0  0  0  0  0  0  0  0  0  0
    3.6973  -10.2527    0.0000 C   0  0  0  0  0  0  0  0  0  0  0  0
    2.9829   -9.8402    0.0000 C   0  0  0  0  0  0  0  0  0  0  0  0
    2.9829   -9.0152    0.0000 C   0  0  0  0  0  0  0  0  0  0  0  0
    3.6973   -8.6027    0.0000 C   0  0  0  0  0  0  0  0  0  0  0  0
    4.4118   -9.0152    0.0000 C   0  0  0  0  0  0  0  0  0  0  0  0
 35 29  1  0  0  0  0
 33 30  1  0  0  0  0
 36 31  2  0  0  0  0
 32 31  1  0  0  0  0
 33 32  2  0  0  0  0
 34 33  1  0  0  0  0
 35 34  2  0  0  0  0
 36 35  1  0  0  0  0
  1  2  1  0  0  0  0
  2  3  2  0  0  0  0
  3  4  1  0  0  0  0
  4  5  2  0  0  0  0
  5  6  1  0  0  0  0
  1  6  2  0  0  0  0
  1  7  1  0  0  0  0
  3  8  1  0  0  0  0
  9 10  2  0  0  0  0
 10 36  1  0  0  0  0
  5  9  1  0  0  0  0
 11 12  1  0  0  0  0
 13 14  1  0  0  0  0
 14 15  2  0  0  0  0
 15 16  1  0  0  0  0
 16 17  2  0  0  0  0
 17 18  1  0  0  0  0
 13 18  2  0  0  0  0
 17 19  1  0  0  0  0
 15 20  1  0  0  0  0
 12 13  1  0  0  0  0
 21 22  1  0  0  0  0
 22 23  2  0  0  0  0
 23 24  1  0  0  0  0
 24 25  2  0  0  0  0
 25 26  1  0  0  0  0
 21 26  2  0  0  0  0
 24 27  1  0  0  0  0
 22 28  1  0  0  0  0
 11 21  1  0  0  0  0
  2 11  1  0  0  0  0
M  END
>  <cdx:fragmentId>
137

$$$$
