300614.cdx
  Mrv1902 05222410192D          

 23 25  0  0  0  0            999 V2000
    5.9853   -5.8844    0.0000 C   0  0  0  0  0  0  0  0  0  0  0  0
    5.9853   -6.7094    0.0000 C   0  0  0  0  0  0  0  0  0  0  0  0
    5.2708   -7.1219    0.0000 C   0  0  0  0  0  0  0  0  0  0  0  0
    4.5563   -6.7094    0.0000 C   0  0  0  0  0  0  0  0  0  0  0  0
    3.8419   -7.1219    0.0000 C   0  0  0  0  0  0  0  0  0  0  0  0
    3.1274   -6.7094    0.0000 C   0  0  0  0  0  0  0  0  0  0  0  0
    3.1274   -5.8844    0.0000 C   0  0  0  0  0  0  0  0  0  0  0  0
    3.8419   -5.4719    0.0000 C   0  0  0  0  0  0  0  0  0  0  0  0
    4.5563   -5.8844    0.0000 C   0  0  0  0  0  0  0  0  0  0  0  0
    5.2708   -5.4719    0.0000 O   0  0  0  0  0  0  0  0  0  0  0  0
    5.2708   -7.9469    0.0000 O   0  0  0  0  0  0  0  0  0  0  0  0
    3.8419   -4.6469    0.0000 O   0  0  0  0  0  0  0  0  0  0  0  0
    3.1274   -4.2344    0.0000 C   0  0  0  0  0  0  0  0  0  0  0  0
    6.6998   -7.1219    0.0000 C   0  0  0  0  0  0  0  0  0  0  0  0
    7.4142   -6.7094    0.0000 C   0  0  0  0  0  0  0  0  0  0  0  0
    8.1287   -7.1219    0.0000 C   0  0  0  0  0  0  0  0  0  0  0  0
    8.1287   -7.9469    0.0000 C   0  0  0  0  0  0  0  0  0  0  0  0
    7.4142   -8.3594    0.0000 C   0  0  0  0  0  0  0  0  0  0  0  0
    6.6998   -7.9469    0.0000 C   0  0  0  0  0  0  0  0  0  0  0  0
    8.8432   -8.3594    0.0000 O   0  0  0  0  0  0  0  0  0  0  0  0
    9.5576   -7.9469    0.0000 C   0  0  0  0  0  0  0  0  0  0  0  0
    8.8432   -6.7094    0.0000 O   0  0  0  0  0  0  0  0  0  0  0  0
    2.4129   -5.4719    0.0000 O   0  0  0  0  0  0  0  0  0  0  0  0
  1  2  2  0  0  0  0
  2  3  1  0  0  0  0
  3  4  1  0  0  0  0
  4  5  1  0  0  0  0
  5  6  2  0  0  0  0
  6  7  1  0  0  0  0
  7  8  2  0  0  0  0
  8  9  1  0  0  0  0
  4  9  2  0  0  0  0
  9 10  1  0  0  0  0
  1 10  1  0  0  0  0
  3 11  2  0  0  0  0
 12 13  1  0  0  0  0
  8 12  1  0  0  0  0
 14 15  1  0  0  0  0
 15 16  2  0  0  0  0
 16 17  1  0  0  0  0
 17 18  2  0  0  0  0
 18 19  1  0  0  0  0
 14 19  2  0  0  0  0
 20 21  1  0  0  0  0
 17 20  1  0  0  0  0
 16 22  1  0  0  0  0
  2 14  1  0  0  0  0
  7 23  1  0  0  0  0
M  END
>  <cdx:fragmentId>
7065

$$$$
