300681.cdx
  Mrv1902 05222410242D          

 29 30  0  0  0  0            999 V2000
    5.2149  -10.7405    0.0000 C   0  0  0  0  0  0  0  0  0  0  0  0
    4.5004  -11.1530    0.0000 C   0  0  0  0  0  0  0  0  0  0  0  0
    3.7859  -10.7405    0.0000 C   0  0  0  0  0  0  0  0  0  0  0  0
    3.7859   -9.9155    0.0000 C   0  0  0  0  0  0  0  0  0  0  0  0
    5.2149   -9.9155    0.0000 O   0  0  0  0  0  0  0  0  0  0  0  0
    5.9294  -11.1530    0.0000 O   0  0  0  0  0  0  0  0  0  0  0  0
    4.5004  -11.9780    0.0000 C   0  0  0  0  0  0  0  0  0  0  0  0
    5.9294   -9.5030    0.0000 C   0  0  0  0  0  0  0  0  0  0  0  0
    6.6438   -9.9155    0.0000 C   0  0  0  0  0  0  0  0  0  0  0  0
    6.6438  -10.7405    0.0000 C   0  0  0  0  0  0  0  0  0  0  0  0
    7.3583  -11.1530    0.0000 C   0  0  0  0  0  0  0  0  0  0  0  0
    8.0728  -10.7405    0.0000 C   0  0  0  0  0  0  0  0  0  0  0  0
    8.7872  -11.1530    0.0000 C   0  0  0  0  0  0  0  0  0  0  0  0
    9.5017  -10.7405    0.0000 C   0  0  0  0  0  0  0  0  0  0  0  0
    8.7872  -11.9780    0.0000 C   0  0  0  0  0  0  0  0  0  0  0  0
    8.7872   -9.5030    0.0000 C   0  0  1  0  0  0  0  0  0  0  0  0
    8.0728   -9.9155    0.0000 C   0  0  0  0  0  0  0  0  0  0  0  0
    7.3583   -9.5030    0.0000 C   0  0  2  0  0  0  0  0  0  0  0  0
    7.3583   -8.6780    0.0000 C   0  0  1  0  0  0  0  0  0  0  0  0
    8.0728   -8.2655    0.0000 C   0  0  0  0  0  0  0  0  0  0  0  0
    8.7872   -8.6780    0.0000 C   0  0  1  0  0  0  0  0  0  0  0  0
    9.5017   -9.0905    0.0000 O   0  0  0  0  0  0  0  0  0  0  0  0
    8.0728   -7.4405    0.0000 O   0  0  0  0  0  0  0  0  0  0  0  0
    9.1997   -7.9635    0.0000 C   0  0  0  0  0  0  0  0  0  0  0  0
    6.6438   -8.2655    0.0000 O   0  0  0  0  0  0  0  0  0  0  0  0
    6.6438   -7.4405    0.0000 C   0  0  0  0  0  0  0  0  0  0  0  0
    7.3583   -7.0280    0.0000 O   0  0  0  0  0  0  0  0  0  0  0  0
    5.9294   -7.0280    0.0000 C   0  0  0  0  0  0  0  0  0  0  0  0
    9.1997  -10.2174    0.0000 H   0  0  0  0  0  0  0  0  0  0  0  0
  1  2  1  0  0  0  0
  2  3  2  0  0  0  0
  3  4  1  0  0  0  0
  1  5  2  0  0  0  0
  1  6  1  0  0  0  0
  2  7  1  0  0  0  0
  8  9  2  0  0  0  0
  9 10  1  0  0  0  0
 10 11  1  0  0  0  0
 11 12  1  0  0  0  0
 12 13  2  0  0  0  0
 13 14  1  0  0  0  0
 13 15  1  0  0  0  0
 16 17  1  0  0  0  0
 17 18  1  0  0  0  0
 18 19  1  0  0  0  0
 19 20  1  0  0  0  0
 20 21  1  0  0  0  0
 21 22  1  0  0  0  0
 16 22  1  0  0  0  0
 16 21  1  0  0  0  0
 20 23  2  0  0  0  0
 21 24  1  6  0  0  0
 26 27  2  0  0  0  0
 26 28  1  0  0  0  0
 25 26  1  0  0  0  0
 19 25  1  6  0  0  0
 18  9  1  1  0  0  0
  6 10  1  0  0  0  0
 16 29  1  6  0  0  0
M  END
>  <cdx:fragmentId>
2839

$$$$
