300671.cdx
  Mrv1902 05222410232D          

 56 61  0  0  0  0            999 V2000
    8.3003  -15.9830    0.0000 C   0  0  0  0  0  0  0  0  0  0  0  0
    9.0148  -15.5705    0.0000 C   0  0  0  0  0  0  0  0  0  0  0  0
    9.7293  -15.9830    0.0000 C   0  0  0  0  0  0  0  0  0  0  0  0
    8.3003  -16.8080    0.0000 O   0  0  0  0  0  0  0  0  0  0  0  0
    7.5858  -15.5705    0.0000 O   0  0  0  0  0  0  0  0  0  0  0  0
   10.4437  -15.5705    0.0000 C   0  0  0  0  0  0  0  0  0  0  0  0
   11.1582  -15.9830    0.0000 C   0  0  0  0  0  0  0  0  0  0  0  0
   11.8727  -15.5705    0.0000 C   0  0  0  0  0  0  0  0  0  0  0  0
   11.8727  -14.7455    0.0000 C   0  0  0  0  0  0  0  0  0  0  0  0
   11.1582  -14.3330    0.0000 C   0  0  0  0  0  0  0  0  0  0  0  0
   10.4437  -14.7455    0.0000 C   0  0  0  0  0  0  0  0  0  0  0  0
   12.5871  -15.9830    0.0000 O   0  0  0  0  0  0  0  0  0  0  0  0
   13.3016  -15.5705    0.0000 C   0  0  0  0  0  0  0  0  0  0  0  0
   12.5871  -14.3330    0.0000 O   0  0  0  0  0  0  0  0  0  0  0  0
    5.4424  -15.9830    0.0000 O   0  0  0  0  0  0  0  0  0  0  0  0
    6.1569  -15.5705    0.0000 C   0  0  2  0  0  0  0  0  0  0  0  0
    6.8714  -15.9830    0.0000 C   0  0  1  0  0  0  0  0  0  0  0  0
    6.8714  -16.8080    0.0000 C   0  0  2  0  0  0  0  0  0  0  0  0
    6.1569  -17.2205    0.0000 C   0  0  1  0  0  0  0  0  0  0  0  0
    5.4424  -16.8080    0.0000 C   0  0  1  0  0  0  0  0  0  0  0  0
    4.7280  -17.2205    0.0000 C   0  0  0  0  0  0  0  0  0  0  0  0
    4.0135  -16.8080    0.0000 O   0  0  0  0  0  0  0  0  0  0  0  0
    6.1569  -14.7455    0.0000 O   0  0  0  0  0  0  0  0  0  0  0  0
    5.4424  -13.5080    0.0000 C   0  0  0  0  0  0  0  0  0  0  0  0
    5.4424  -14.3330    0.0000 C   0  0  0  0  0  0  0  0  0  0  0  0
    4.7280  -14.7455    0.0000 C   0  0  0  0  0  0  0  0  0  0  0  0
    4.0135  -14.3330    0.0000 C   0  0  0  0  0  0  0  0  0  0  0  0
    3.2990  -14.7455    0.0000 C   0  0  0  0  0  0  0  0  0  0  0  0
    2.5845  -14.3330    0.0000 C   0  0  0  0  0  0  0  0  0  0  0  0
    2.5845  -13.5080    0.0000 C   0  0  0  0  0  0  0  0  0  0  0  0
    3.2990  -13.0955    0.0000 C   0  0  0  0  0  0  0  0  0  0  0  0
    4.0135  -13.5080    0.0000 C   0  0  0  0  0  0  0  0  0  0  0  0
    4.7280  -13.0955    0.0000 O   0  0  0  0  0  0  0  0  0  0  0  0
    1.8701  -13.0955    0.0000 O   0  0  0  0  0  0  0  0  0  0  0  0
    0.4411  -13.0955    0.0000 O   0  0  0  0  0  0  0  0  0  0  0  0
    1.1556  -13.5080    0.0000 C   0  0  2  0  0  0  0  0  0  0  0  0
    1.1556  -14.3330    0.0000 C   0  0  1  0  0  0  0  0  0  0  0  0
    0.4411  -14.7455    0.0000 C   0  0  2  0  0  0  0  0  0  0  0  0
   -0.2733  -14.3330    0.0000 C   0  0  1  0  0  0  0  0  0  0  0  0
   -0.2733  -13.5080    0.0000 C   0  0  1  0  0  0  0  0  0  0  0  0
   -0.9878  -13.0955    0.0000 C   0  0  0  0  0  0  0  0  0  0  0  0
   -1.7023  -13.5080    0.0000 O   0  0  0  0  0  0  0  0  0  0  0  0
   -0.9878  -14.7455    0.0000 O   0  0  0  0  0  0  0  0  0  0  0  0
    0.4411  -15.5705    0.0000 O   0  0  0  0  0  0  0  0  0  0  0  0
    1.8701  -14.7455    0.0000 O   0  0  0  0  0  0  0  0  0  0  0  0
    4.7280  -15.5705    0.0000 O   0  0  0  0  0  0  0  0  0  0  0  0
    6.1569  -13.0955    0.0000 C   0  0  0  0  0  0  0  0  0  0  0  0
    6.1569  -12.2705    0.0000 C   0  0  0  0  0  0  0  0  0  0  0  0
    6.8714  -11.8580    0.0000 C   0  0  0  0  0  0  0  0  0  0  0  0
    7.5858  -12.2705    0.0000 C   0  0  0  0  0  0  0  0  0  0  0  0
    7.5858  -13.0955    0.0000 C   0  0  0  0  0  0  0  0  0  0  0  0
    6.8714  -13.5080    0.0000 C   0  0  0  0  0  0  0  0  0  0  0  0
    8.3003  -11.8580    0.0000 O   0  0  0  0  0  0  0  0  0  0  0  0
    3.2990  -15.5705    0.0000 O   0  0  0  0  0  0  0  0  0  0  0  0
    6.1569  -18.0455    0.0000 O   0  0  0  0  0  0  0  0  0  0  0  0
    7.5858  -17.2205    0.0000 O   0  0  0  0  0  0  0  0  0  0  0  0
  1  2  1  0  0  0  0
  2  3  2  0  0  0  0
  1  4  2  0  0  0  0
  1  5  1  0  0  0  0
  6  7  1  0  0  0  0
  7  8  2  0  0  0  0
  8  9  1  0  0  0  0
  9 10  2  0  0  0  0
 10 11  1  0  0  0  0
  6 11  2  0  0  0  0
 12 13  1  0  0  0  0
  8 12  1  0  0  0  0
  9 14  1  0  0  0  0
  3  6  1  0  0  0  0
 15 16  1  0  0  0  0
 16 17  1  0  0  0  0
 17 18  1  0  0  0  0
 18 19  1  0  0  0  0
 19 20  1  0  0  0  0
 15 20  1  0  0  0  0
 21 22  1  0  0  0  0
 20 21  1  1  0  0  0
 24 25  2  0  0  0  0
 25 26  1  0  0  0  0
 26 27  1  0  0  0  0
 27 28  1  0  0  0  0
 28 29  2  0  0  0  0
 29 30  1  0  0  0  0
 30 31  2  0  0  0  0
 31 32  1  0  0  0  0
 27 32  2  0  0  0  0
 32 33  1  0  0  0  0
 24 33  1  0  0  0  0
 35 36  1  0  0  0  0
 36 37  1  0  0  0  0
 37 38  1  0  0  0  0
 38 39  1  0  0  0  0
 39 40  1  0  0  0  0
 35 40  1  0  0  0  0
 41 42  1  0  0  0  0
 40 41  1  1  0  0  0
 39 43  1  6  0  0  0
 38 44  1  1  0  0  0
 37 45  1  6  0  0  0
 36 34  1  1  0  0  0
 30 34  1  0  0  0  0
 26 46  2  0  0  0  0
 47 48  1  0  0  0  0
 48 49  2  0  0  0  0
 49 50  1  0  0  0  0
 50 51  2  0  0  0  0
 51 52  1  0  0  0  0
 47 52  2  0  0  0  0
 50 53  1  0  0  0  0
 24 47  1  0  0  0  0
 28 54  1  0  0  0  0
 23 25  1  0  0  0  0
 16 23  1  1  0  0  0
 19 55  1  6  0  0  0
 18 56  1  1  0  0  0
 17  5  1  6  0  0  0
M  END
>  <cdx:fragmentId>
2292

$$$$
