300689.cdx
  Mrv1902 05222410212D          

 24 27  0  0  0  0            999 V2000
    2.7084   -7.4357    0.0000 C   0  0  0  0  0  0  0  0  0  0  0  0
    2.7084   -8.2607    0.0000 C   0  0  0  0  0  0  0  0  0  0  0  0
    3.4229   -8.6732    0.0000 C   0  0  0  0  0  0  0  0  0  0  0  0
    4.1374   -8.2607    0.0000 C   0  0  0  0  0  0  0  0  0  0  0  0
    4.1374   -7.4357    0.0000 C   0  0  2  0  0  0  0  0  0  0  0  0
    3.4229   -7.0232    0.0000 C   0  0  0  0  0  0  0  0  0  0  0  0
    1.9939   -8.6732    0.0000 O   0  0  0  0  0  0  0  0  0  0  0  0
    4.8518   -8.6732    0.0000 C   0  0  0  0  0  0  0  0  0  0  0  0
    5.5663   -8.2607    0.0000 C   0  0  0  0  0  0  0  0  0  0  0  0
    5.5663   -7.4357    0.0000 C   0  0  2  0  0  0  0  0  0  0  0  0
    4.8518   -7.0232    0.0000 C   0  0  2  0  0  0  0  0  0  0  0  0
    4.1374   -6.6107    0.0000 C   0  0  0  0  0  0  0  0  0  0  0  0
    6.2808   -7.0232    0.0000 C   0  0  1  0  0  0  0  0  0  0  0  0
    6.2808   -6.1982    0.0000 C   0  0  2  0  0  0  0  0  0  0  0  0
    5.5663   -5.7857    0.0000 C   0  0  0  0  0  0  0  0  0  0  0  0
    4.8518   -6.1982    0.0000 C   0  0  0  0  0  0  0  0  0  0  0  0
    7.0654   -7.2781    0.0000 C   0  0  0  0  0  0  0  0  0  0  0  0
    7.5503   -6.6107    0.0000 C   0  0  0  0  0  0  0  0  0  0  0  0
    7.0654   -5.9432    0.0000 C   0  0  0  0  0  0  0  0  0  0  0  0
    7.2789   -5.1463    0.0000 O   0  0  0  0  0  0  0  0  0  0  0  0
    6.2808   -5.3732    0.0000 C   0  0  0  0  0  0  0  0  0  0  0  0
    6.2808   -7.8482    0.0000 H   0  0  0  0  0  0  0  0  0  0  0  0
    5.6487   -6.8096    0.0000 H   0  0  0  0  0  0  0  0  0  0  0  0
    6.6933   -7.7376    0.0000 H   0  0  0  0  0  0  0  0  0  0  0  0
  1  2  1  0  0  0  0
  2  3  1  0  0  0  0
  3  4  2  0  0  0  0
  4  5  1  0  0  0  0
  5  6  1  0  0  0  0
  6  1  2  0  0  0  0
  2  7  2  0  0  0  0
  4  8  1  0  0  0  0
  8  9  1  0  0  0  0
  9 10  1  0  0  0  0
 10 11  1  0  0  0  0
 11  5  1  0  0  0  0
  5 12  1  1  0  0  0
 10 13  1  0  0  0  0
 13 14  1  0  0  0  0
 14 15  1  0  0  0  0
 15 16  1  0  0  0  0
 16 11  1  0  0  0  0
 13 17  1  0  0  0  0
 17 18  1  0  0  0  0
 18 19  1  0  0  0  0
 19 14  1  0  0  0  0
 19 20  2  0  0  0  0
 14 21  1  1  0  0  0
 10 22  1  1  0  0  0
 11 23  1  6  0  0  0
 13 24  1  6  0  0  0
M  END
>  <cdx:fragmentId>
1426

$$$$
