300673.cdx
  Mrv1902 05222410222D          

 17 18  0  0  0  0            999 V2000
    5.3854  -15.5079    0.0000 C   0  0  2  0  0  0  0  0  0  0  0  0
    5.3854  -14.6829    0.0000 C   0  0  2  0  0  0  0  0  0  0  0  0
    6.0304  -14.1685    0.0000 C   0  0  1  0  0  0  0  0  0  0  0  0
    6.8347  -14.3521    0.0000 C   0  0  0  0  0  0  0  0  0  0  0  0
    7.1926  -15.0954    0.0000 C   0  0  0  0  0  0  0  0  0  0  0  0
    6.8347  -15.8387    0.0000 C   0  0  0  0  0  0  0  0  0  0  0  0
    6.0304  -16.0223    0.0000 C   0  0  0  0  0  0  0  0  0  0  0  0
    4.6709  -14.2704    0.0000 C   0  0  0  0  0  0  0  0  0  0  0  0
    3.9564  -14.6829    0.0000 C   0  0  0  0  0  0  0  0  0  0  0  0
    3.9564  -15.5079    0.0000 C   0  0  0  0  0  0  0  0  0  0  0  0
    4.6709  -15.9204    0.0000 C   0  0  0  0  0  0  0  0  0  0  0  0
    5.8468  -13.3642    0.0000 O   0  0  0  0  0  0  0  0  0  0  0  0
    5.3854  -13.8579    0.0000 C   0  0  0  0  0  0  0  0  0  0  0  0
    7.3491  -16.4837    0.0000 C   0  0  0  0  0  0  0  0  0  0  0  0
    5.0834  -16.6349    0.0000 C   0  0  0  0  0  0  0  0  0  0  0  0
    4.2584  -16.6349    0.0000 C   0  0  0  0  0  0  0  0  0  0  0  0
    5.3854  -16.3329    0.0000 H   0  0  0  0  0  0  0  0  0  0  0  0
  1  2  1  0  0  0  0
  2  3  1  0  0  0  0
  3  4  1  0  0  0  0
  4  5  1  0  0  0  0
  5  6  1  0  0  0  0
  6  7  2  0  0  0  0
  1  7  1  0  0  0  0
  8  9  1  0  0  0  0
  9 10  1  0  0  0  0
 10 11  1  0  0  0  0
  1 11  1  0  0  0  0
  2  8  1  0  0  0  0
  3 12  1  6  0  0  0
  2 13  1  6  0  0  0
  6 14  1  0  0  0  0
 11 15  1  0  0  0  0
 11 16  1  0  0  0  0
  1 17  1  1  0  0  0
M  END
>  <cdx:fragmentId>
2468

$$$$
