300648.cdx
  Mrv1902 05222410212D          

 15 16  0  0  0  0            999 V2000
    4.3280   -6.1242    0.0000 C   0  0  0  0  0  0  0  0  0  0  0  0
    3.6135   -5.7117    0.0000 C   0  0  0  0  0  0  0  0  0  0  0  0
    4.3280   -6.9492    0.0000 O   0  0  0  0  0  0  0  0  0  0  0  0
    5.0425   -5.7117    0.0000 O   0  0  0  0  0  0  0  0  0  0  0  0
    6.4714   -5.7117    0.0000 C   0  0  0  0  0  0  0  0  0  0  0  0
    5.7569   -6.1242    0.0000 C   0  0  0  0  0  0  0  0  0  0  0  0
    5.7569   -6.9492    0.0000 C   0  0  0  0  0  0  0  0  0  0  0  0
    6.4714   -7.3617    0.0000 C   0  0  0  0  0  0  0  0  0  0  0  0
    7.1859   -6.9492    0.0000 C   0  0  0  0  0  0  0  0  0  0  0  0
    7.8745   -6.5335    0.0000 C   0  0  0  0  0  0  0  0  0  0  0  0
    7.8695   -5.7291    0.0000 C   0  0  0  0  0  0  0  0  0  0  0  0
    7.1754   -5.3226    0.0000 C   0  0  0  0  0  0  0  0  0  0  0  0
    7.1859   -6.1242    0.0000 S   0  0  0  0  0  0  0  0  0  0  0  0
    8.0109   -6.1242    0.0000 O   0  0  0  0  0  0  0  0  0  0  0  0
    7.5984   -5.4097    0.0000 O   0  0  0  0  0  0  0  0  0  0  0  0
  1  2  1  0  0  0  0
  1  3  2  0  0  0  0
  1  4  1  0  0  0  0
  5  6  1  0  0  0  0
  6  7  1  0  0  0  0
  7  8  1  0  0  0  0
  8  9  1  0  0  0  0
  9 10  1  0  0  0  0
 10 11  2  0  0  0  0
 11 12  1  0  0  0  0
  5 12  1  0  0  0  0
  5 13  1  0  0  0  0
  9 13  1  0  0  0  0
 13 14  2  0  0  0  0
 13 15  2  0  0  0  0
  4  6  1  0  0  0  0
M  END
>  <cdx:fragmentId>
9195

$$$$
