300608.cdx
  Mrv1902 05222410262D          

 46 50  0  0  0  0            999 V2000
    6.6946   -6.0874    0.0000 O   0  0  0  0  0  0  0  0  0  0  0  0
    8.8604   -8.1264    0.0000 H   0  0  0  0  0  0  0  0  0  0  0  0
   13.1380   -7.2547    0.0000 O   0  0  0  0  0  0  0  0  0  0  0  0
   11.7001   -6.4454    0.0000 O   0  0  0  0  0  0  0  0  0  0  0  0
    9.5523   -6.0563    0.0000 C   0  0  0  0  0  0  0  0  0  0  0  0
    9.5434   -5.2313    0.0000 O   0  0  0  0  0  0  0  0  0  0  0  0
    8.1145   -5.2469    0.0000 O   0  0  0  0  0  0  0  0  0  0  0  0
   12.4370   -8.5000    0.0000 C   0  0  0  0  0  0  0  0  0  0  0  0
   12.4281   -7.6750    0.0000 C   0  0  0  0  0  0  0  0  0  0  0  0
   11.7091   -7.2703    0.0000 C   0  0  0  0  0  0  0  0  0  0  0  0
   10.9992   -7.6906    0.0000 C   0  0  0  0  0  0  0  0  0  0  0  0
   11.7271   -8.9202    0.0000 C   0  0  0  0  0  0  0  0  0  0  0  0
   11.0082   -8.5155    0.0000 C   0  0  0  0  0  0  0  0  0  0  0  0
    8.1775  -11.0216    0.0000 O   0  0  0  0  0  0  0  0  0  0  0  0
    9.6063  -11.0060    0.0000 O   0  0  0  0  0  0  0  0  0  0  0  0
    9.5973  -10.1810    0.0000 C   0  0  0  0  0  0  0  0  0  0  0  0
   10.3073   -9.7608    0.0000 C   0  0  0  0  0  0  0  0  0  0  0  0
   10.2983   -8.9358    0.0000 C   0  0  0  0  0  0  0  0  0  0  0  0
    9.5793   -8.5311    0.0000 O   0  0  0  0  0  0  0  0  0  0  0  0
    7.4495   -9.7919    0.0000 C   0  0  0  0  0  0  0  0  0  0  0  0
    8.1685  -10.1966    0.0000 C   0  0  0  0  0  0  0  0  0  0  0  0
    8.8784   -9.7763    0.0000 C   0  0  0  0  0  0  0  0  0  0  0  0
    8.8694   -8.9514    0.0000 C   0  0  0  0  0  0  0  0  0  0  0  0
    6.7126   -7.7373    0.0000 O   0  0  0  0  0  0  0  0  0  0  0  0
    6.7216   -8.5623    0.0000 O   0  0  0  0  0  0  0  0  0  0  0  0
    7.4405   -8.9670    0.0000 C   0  0  0  0  0  0  0  0  0  0  0  0
    8.1505   -8.5467    0.0000 C   0  0  0  0  0  0  0  0  0  0  0  0
    8.1415   -7.7218    0.0000 C   0  0  2  0  0  0  0  0  0  0  0  0
    8.8514   -7.3015    0.0000 O   0  0  0  0  0  0  0  0  0  0  0  0
    8.8424   -6.4765    0.0000 C   0  0  1  0  0  0  0  0  0  0  0  0
    8.1235   -6.0719    0.0000 C   0  0  2  0  0  0  0  0  0  0  0  0
    7.4136   -6.4921    0.0000 C   0  0  1  0  0  0  0  0  0  0  0  0
    7.4226   -7.3171    0.0000 C   0  0  1  0  0  0  0  0  0  0  0  0
    6.0117   -8.9826    0.0000 C   0  0  0  0  0  0  0  0  0  0  0  0
    5.2928   -8.5779    0.0000 C   0  0  0  0  0  0  0  0  0  0  0  0
    6.0207   -9.8075    0.0000 O   0  0  0  0  0  0  0  0  0  0  0  0
    4.5828   -8.9981    0.0000 C   0  0  0  0  0  0  0  0  0  0  0  0
    3.8639   -8.5935    0.0000 C   0  0  0  0  0  0  0  0  0  0  0  0
    3.8504   -7.7686    0.0000 C   0  0  0  0  0  0  0  0  0  0  0  0
    3.1292   -7.3678    0.0000 C   0  0  0  0  0  0  0  0  0  0  0  0
    2.4216   -7.7686    0.0000 C   0  0  0  0  0  0  0  0  0  0  0  0
    2.4216   -8.5935    0.0000 C   0  0  0  0  0  0  0  0  0  0  0  0
    3.1292   -8.9942    0.0000 C   0  0  0  0  0  0  0  0  0  0  0  0
    1.7089   -7.3531    0.0000 O   0  0  0  0  0  0  0  0  0  0  0  0
    1.7089   -9.0089    0.0000 O   0  0  0  0  0  0  0  0  0  0  0  0
    0.9927   -8.5994    0.0000 C   0  0  0  0  0  0  0  0  0  0  0  0
 32  1  1  1  0  0  0
 28  2  1  6  0  0  0
  9  3  1  0  0  0  0
 10  4  1  0  0  0  0
 30  5  1  1  0  0  0
  6  5  1  0  0  0  0
 31  7  1  6  0  0  0
  8 12  2  0  0  0  0
  9  8  1  0  0  0  0
 10  9  2  0  0  0  0
 11 10  1  0  0  0  0
 13 11  2  0  0  0  0
 13 12  1  0  0  0  0
 18 13  1  0  0  0  0
 14 21  1  0  0  0  0
 16 15  2  0  0  0  0
 16 22  1  0  0  0  0
 17 16  1  0  0  0  0
 18 17  2  0  0  0  0
 19 18  1  0  0  0  0
 23 19  1  0  0  0  0
 20 26  1  0  0  0  0
 21 20  2  0  0  0  0
 22 21  1  0  0  0  0
 23 22  2  0  0  0  0
 27 23  1  0  0  0  0
 33 24  1  6  0  0  0
 26 25  1  0  0  0  0
 27 26  2  0  0  0  0
 28 27  1  0  0  0  0
 28 33  1  0  0  0  0
 29 28  1  0  0  0  0
 30 29  1  0  0  0  0
 31 30  1  0  0  0  0
 32 31  1  0  0  0  0
 33 32  1  0  0  0  0
 25 34  1  0  0  0  0
 34 35  1  0  0  0  0
 34 36  2  0  0  0  0
 35 37  2  0  0  0  0
 37 38  1  0  0  0  0
 38 39  2  0  0  0  0
 39 40  1  0  0  0  0
 40 41  2  0  0  0  0
 41 42  1  0  0  0  0
 42 43  2  0  0  0  0
 43 38  1  0  0  0  0
 41 44  1  0  0  0  0
 42 45  1  0  0  0  0
 45 46  1  0  0  0  0
M  END
>  <cdx:fragmentId>
5

$$$$
