300669.cdx
  Mrv1902 05222410242D          

 40 43  0  0  0  0            999 V2000
    3.9564  -11.0296    0.0000 C   0  0  0  0  0  0  0  0  0  0  0  0
    4.6749  -11.4351    0.0000 C   0  0  0  0  0  0  0  0  0  0  0  0
    5.0944  -12.1455    0.0000 C   0  0  0  0  0  0  0  0  0  0  0  0
    3.9483  -10.2047    0.0000 O   0  0  0  0  0  0  0  0  0  0  0  0
    3.2460  -11.4492    0.0000 O   0  0  0  0  0  0  0  0  0  0  0  0
    6.0794   -8.9461    0.0000 C   0  0  1  0  0  0  0  0  0  0  0  0
    5.3605   -8.5414    0.0000 O   0  0  0  0  0  0  0  0  0  0  0  0
    4.6503   -8.9611    0.0000 C   0  0  0  0  0  0  0  0  0  0  0  0
    4.6581   -9.7861    0.0000 C   0  0  0  0  0  0  0  0  0  0  0  0
    5.3771  -10.1906    0.0000 C   0  0  1  0  0  0  0  0  0  0  0  0
    5.3853  -11.0156    0.0000 C   0  0  1  0  0  0  0  0  0  0  0  0
    6.1038  -11.4210    0.0000 C   0  0  0  0  0  0  0  0  0  0  0  0
    6.8141  -11.0015    0.0000 C   0  0  0  0  0  0  0  0  0  0  0  0
    6.8060  -10.1765    0.0000 C   0  0  2  0  0  0  0  0  0  0  0  0
    7.5164   -9.7570    0.0000 C   0  0  1  0  0  0  0  0  0  0  0  0
    8.3035  -10.0042    0.0000 C   0  0  0  0  0  0  0  0  0  0  0  0
    8.7818   -9.3320    0.0000 C   0  0  0  0  0  0  0  0  0  0  0  0
    8.2903   -8.6694    0.0000 C   0  0  0  0  0  0  0  0  0  0  0  0
    7.5083   -8.9321    0.0000 C   0  0  0  0  0  0  0  0  0  0  0  0
    6.7898   -8.5266    0.0000 C   0  0  0  0  0  0  0  0  0  0  0  0
    6.0875   -9.7711    0.0000 C   0  0  1  0  0  0  0  0  0  0  0  0
    7.9485   -7.3047    0.0000 C   0  0  0  0  0  0  0  0  0  0  0  0
    8.5375   -7.8823    0.0000 C   0  0  2  0  0  0  0  0  0  0  0  0
    9.3428   -7.7028    0.0000 C   0  0  0  0  0  0  0  0  0  0  0  0
    9.5900   -6.9158    0.0000 C   0  0  1  0  0  0  0  0  0  0  0  0
   10.3952   -6.7363    0.0000 C   0  0  2  0  0  0  0  0  0  0  0  0
   10.6009   -5.9373    0.0000 C   0  0  0  0  0  0  0  0  0  0  0  0
    9.8040   -5.7238    0.0000 C   0  0  0  0  0  0  0  0  0  0  0  0
   11.3978   -6.1509    0.0000 C   0  0  0  0  0  0  0  0  0  0  0  0
   10.8066   -5.1384    0.0000 O   0  0  0  0  0  0  0  0  0  0  0  0
   10.9843   -7.3139    0.0000 O   0  0  0  0  0  0  0  0  0  0  0  0
    9.0009   -6.3382    0.0000 O   0  0  0  0  0  0  0  0  0  0  0  0
    3.9318   -8.5557    0.0000 O   0  0  0  0  0  0  0  0  0  0  0  0
    5.3771   -9.3656    0.0000 C   0  0  0  0  0  0  0  0  0  0  0  0
    4.2695  -12.1536    0.0000 C   0  0  0  0  0  0  0  0  0  0  0  0
    6.0713   -8.1212    0.0000 H   0  0  0  0  0  0  0  0  0  0  0  0
    6.8060   -9.3515    0.0000 C   0  0  0  0  0  0  0  0  0  0  0  0
    6.0956  -10.5961    0.0000 H   0  0  0  0  0  0  0  0  0  0  0  0
    5.3934  -11.8405    0.0000 H   0  0  0  0  0  0  0  0  0  0  0  0
    7.5245  -10.5820    0.0000 C   0  0  0  0  0  0  0  0  0  0  0  0
  1  2  1  0  0  0  0
  2  3  1  0  0  0  0
  1  4  2  0  0  0  0
  1  5  1  0  0  0  0
  6  7  1  0  0  0  0
  7  8  1  0  0  0  0
  8  9  1  0  0  0  0
  9 10  1  0  0  0  0
 10 11  1  0  0  0  0
 11 12  1  0  0  0  0
 12 13  1  0  0  0  0
 13 14  1  0  0  0  0
 14 15  1  0  0  0  0
 15 16  1  0  0  0  0
 16 17  1  0  0  0  0
 17 18  1  0  0  0  0
 18 19  2  0  0  0  0
 19 20  1  0  0  0  0
  6 20  1  0  0  0  0
  6 21  1  0  0  0  0
 14 21  1  0  0  0  0
 10 21  1  0  0  0  0
 15 19  1  0  0  0  0
 23 22  1  6  0  0  0
 23 24  1  0  0  0  0
 24 25  1  0  0  0  0
 25 26  1  0  0  0  0
 26 27  1  0  0  0  0
 27 28  1  0  0  0  0
 27 29  1  0  0  0  0
 27 30  1  0  0  0  0
 26 31  1  6  0  0  0
 25 32  1  6  0  0  0
 18 23  1  0  0  0  0
  8 33  2  0  0  0  0
 10 34  1  1  0  0  0
  2 11  1  0  0  0  0
  2 35  1  0  0  0  0
  6 36  1  6  0  0  0
 14 37  1  6  0  0  0
 21 38  1  1  0  0  0
 11 39  1  6  0  0  0
 15 40  1  1  0  0  0
M  END
>  <cdx:fragmentId>
2075

$$$$
