300675.cdx
  Mrv1902 05222410202D          

  8  7  0  0  0  0            999 V2000
    4.9891   -5.9507    0.0000 C   0  0  0  0  0  0  0  0  0  0  0  0
    5.7036   -6.3632    0.0000 C   0  0  0  0  0  0  0  0  0  0  0  0
    6.4181   -5.9507    0.0000 C   0  0  0  0  0  0  0  0  0  0  0  0
    7.8470   -5.9507    0.0000 S   0  0  0  0  0  0  0  0  0  0  0  0
    7.1325   -6.3632    0.0000 S   0  0  0  0  0  0  0  0  0  0  0  0
    9.2760   -5.1257    0.0000 C   0  0  0  0  0  0  0  0  0  0  0  0
    9.2760   -5.9507    0.0000 C   0  0  0  0  0  0  0  0  0  0  0  0
    8.5615   -6.3632    0.0000 C   0  0  0  0  0  0  0  0  0  0  0  0
  8  4  1  0  0  0  0
  5  3  1  0  0  0  0
  2  1  2  0  0  0  0
  3  2  1  0  0  0  0
  5  4  1  0  0  0  0
  7  6  1  0  0  0  0
  8  7  2  0  0  0  0
M  END
>  <cdx:fragmentId>
2557

$$$$
