300683.cdx
  Mrv1902 05222410232D          

 39 42  0  0  0  0            999 V2000
    4.3685   -9.3531    0.0000 C   0  0  0  0  0  0  0  0  0  0  0  0
    3.6541   -9.7656    0.0000 C   0  0  1  0  0  0  0  0  0  0  0  0
    3.6541  -10.5906    0.0000 C   0  0  1  0  0  0  0  0  0  0  0  0
    4.3685  -11.0031    0.0000 C   0  0  0  0  0  0  0  0  0  0  0  0
    5.0830  -10.5906    0.0000 C   0  0  1  0  0  0  0  0  0  0  0  0
    5.7975  -11.0031    0.0000 C   0  0  0  0  0  0  0  0  0  0  0  0
    6.5119  -10.5906    0.0000 C   0  0  0  0  0  0  0  0  0  0  0  0
    6.5119   -9.7656    0.0000 C   0  0  0  0  0  0  0  0  0  0  0  0
    7.2264   -9.3531    0.0000 C   0  0  2  0  0  0  0  0  0  0  0  0
    8.0110   -9.6080    0.0000 C   0  0  0  0  0  0  0  0  0  0  0  0
    8.4960   -8.9406    0.0000 C   0  0  0  0  0  0  0  0  0  0  0  0
    8.0110   -8.2732    0.0000 C   0  0  1  0  0  0  0  0  0  0  0  0
    7.2264   -8.5281    0.0000 C   0  0  1  0  0  0  0  0  0  0  0  0
    6.5119   -8.1156    0.0000 C   0  0  0  0  0  0  0  0  0  0  0  0
    5.7975   -8.5281    0.0000 C   0  0  0  0  0  0  0  0  0  0  0  0
    5.7975   -9.3531    0.0000 C   0  0  2  0  0  0  0  0  0  0  0  0
    5.0830   -9.7656    0.0000 C   0  0  1  0  0  0  0  0  0  0  0  0
    5.7975  -11.8281    0.0000 O   0  0  0  0  0  0  0  0  0  0  0  0
    7.3127   -7.7076    0.0000 C   0  0  0  0  0  0  0  0  0  0  0  0
    5.0830   -8.9406    0.0000 C   0  0  0  0  0  0  0  0  0  0  0  0
    7.2264  -10.1781    0.0000 O   0  0  0  0  0  0  0  0  0  0  0  0
    2.9396  -11.0031    0.0000 O   0  0  0  0  0  0  0  0  0  0  0  0
    2.9396   -9.3531    0.0000 O   0  0  0  0  0  0  0  0  0  0  0  0
    5.0830  -11.4156    0.0000 H   0  0  0  0  0  0  0  0  0  0  0  0
    5.7975  -10.1781    0.0000 H   0  0  0  0  0  0  0  0  0  0  0  0
    8.2660   -7.4885    0.0000 C   0  0  0  0  0  0  0  0  0  0  0  0
    8.4795   -6.6917    0.0000 C   0  0  2  0  0  0  0  0  0  0  0  0
    9.0570   -7.7229    0.0000 O   0  0  0  0  0  0  0  0  0  0  0  0
    7.4750   -7.2542    0.0000 C   0  0  0  0  0  0  0  0  0  0  0  0
    7.8961   -6.1083    0.0000 O   0  0  0  0  0  0  0  0  0  0  0  0
    9.2764   -6.4781    0.0000 C   0  0  0  0  0  0  0  0  0  0  0  0
   11.2972   -4.4573    0.0000 O   0  0  0  0  0  0  0  0  0  0  0  0
   10.5003   -4.6708    0.0000 C   0  0  0  0  0  0  0  0  0  0  0  0
    9.1201   -4.3010    0.0000 C   0  0  0  0  0  0  0  0  0  0  0  0
    8.1097   -5.3114    0.0000 C   0  0  0  0  0  0  0  0  0  0  0  0
   10.2868   -5.4677    0.0000 C   0  0  0  0  0  0  0  0  0  0  0  0
    8.9066   -5.0979    0.0000 C   0  0  0  0  0  0  0  0  0  0  0  0
    9.4899   -5.6812    0.0000 C   0  0  0  0  0  0  0  0  0  0  0  0
    8.7957   -8.0182    0.0000 H   0  0  0  0  0  0  0  0  0  0  0  0
  1  2  1  0  0  0  0
  2  3  1  0  0  0  0
  3  4  1  0  0  0  0
  4  5  1  0  0  0  0
  5  6  1  0  0  0  0
  6  7  1  0  0  0  0
  7  8  2  0  0  0  0
  8  9  1  0  0  0  0
  9 10  1  0  0  0  0
 10 11  1  0  0  0  0
 12 11  1  0  0  0  0
 12 13  1  0  0  0  0
  9 13  1  0  0  0  0
 13 14  1  0  0  0  0
 14 15  1  0  0  0  0
 15 16  1  0  0  0  0
  8 16  1  0  0  0  0
 16 17  1  0  0  0  0
  5 17  1  0  0  0  0
  1 17  1  0  0  0  0
  6 18  2  0  0  0  0
 13 19  1  1  0  0  0
 17 20  1  1  0  0  0
  9 21  1  6  0  0  0
  3 22  1  1  0  0  0
  2 23  1  1  0  0  0
  5 24  1  1  0  0  0
 16 25  1  6  0  0  0
 12 26  1  0  0  0  0
 26 27  1  0  0  0  0
 26 28  1  1  0  0  0
 26 29  1  0  0  0  0
 27 30  1  6  0  0  0
 27 31  1  0  0  0  0
 33 32  1  0  0  0  0
 31 38  1  0  0  0  0
 36 33  1  0  0  0  0
 37 34  1  0  0  0  0
 37 35  1  0  0  0  0
 38 36  1  0  0  0  0
 38 37  1  0  0  0  0
 12 39  1  6  0  0  0
M  END
>  <cdx:fragmentId>
5

$$$$
