300623.cdx
  Mrv1902 05222410262D          

 10 12  0  0  0  0            999 V2000
    5.7961   -6.0780    0.0000 C   0  0  0  0  0  0  0  0  0  0  0  0
    6.5106   -5.6655    0.0000 C   0  0  0  0  0  0  0  0  0  0  0  0
    7.2250   -5.2530    0.0000 O   0  0  0  0  0  0  0  0  0  0  0  0
    7.2250   -6.0780    0.0000 C   0  0  0  0  0  0  0  0  0  0  0  0
    7.2250   -6.9030    0.0000 C   0  0  0  0  0  0  0  0  0  0  0  0
    6.5106   -7.3155    0.0000 C   0  0  0  0  0  0  0  0  0  0  0  0
    5.7961   -6.9030    0.0000 C   0  0  0  0  0  0  0  0  0  0  0  0
    4.9711   -6.9030    0.0000 C   0  0  0  0  0  0  0  0  0  0  0  0
    4.9711   -6.0780    0.0000 C   0  0  0  0  0  0  0  0  0  0  0  0
    4.3877   -7.4864    0.0000 C   0  0  0  0  0  0  0  0  0  0  0  0
  1  2  1  0  0  0  0
  2  3  1  0  0  0  0
  3  4  1  0  0  0  0
  4  5  1  0  0  0  0
  5  6  1  0  0  0  0
  6  7  1  0  0  0  0
  7  8  1  0  0  0  0
  8  9  1  0  0  0  0
  1  9  1  0  0  0  0
  1  7  1  0  0  0  0
  2  4  1  0  0  0  0
  8 10  2  0  0  0  0
M  END
>  <cdx:fragmentId>
7627

$$$$
