300634.cdx
  Mrv1902 05222410262D          

 25 28  0  0  0  0            999 V2000
    5.2239   -9.3205    0.0000 N   0  0  0  0  0  0  0  0  0  0  0  0
    4.4034   -9.4069    0.0000 C   0  0  0  0  0  0  0  0  0  0  0  0
    4.0677   -8.6533    0.0000 C   0  0  0  0  0  0  0  0  0  0  0  0
    4.6806   -8.1011    0.0000 C   0  0  0  0  0  0  0  0  0  0  0  0
    4.6804   -7.2761    0.0000 C   0  0  0  0  0  0  0  0  0  0  0  0
    5.3948   -6.8634    0.0000 C   0  0  0  0  0  0  0  0  0  0  0  0
    6.1094   -7.2758    0.0000 C   0  0  2  0  0  0  0  0  0  0  0  0
    6.1096   -8.1008    0.0000 C   0  0  2  0  0  0  0  0  0  0  0  0
    5.3952   -8.5134    0.0000 C   0  0  2  0  0  0  0  0  0  0  0  0
    6.8238   -6.8631    0.0000 O   0  0  0  0  0  0  0  0  0  0  0  0
    6.8242   -8.5131    0.0000 C   0  0  0  0  0  0  0  0  0  0  0  0
    6.8244   -9.3381    0.0000 C   0  0  0  0  0  0  0  0  0  0  0  0
    7.5389   -9.7504    0.0000 C   0  0  0  0  0  0  0  0  0  0  0  0
    8.2533   -9.3378    0.0000 C   0  0  0  0  0  0  0  0  0  0  0  0
    8.2531   -8.5128    0.0000 C   0  0  0  0  0  0  0  0  0  0  0  0
    7.5385   -8.1004    0.0000 C   0  0  0  0  0  0  0  0  0  0  0  0
    7.5383   -7.2754    0.0000 C   0  0  0  0  0  0  0  0  0  0  0  0
    8.2527   -6.8628    0.0000 O   0  0  0  0  0  0  0  0  0  0  0  0
    5.7761   -9.9334    0.0000 C   0  0  0  0  0  0  0  0  0  0  0  0
    7.5391  -10.5754    0.0000 O   0  0  0  0  0  0  0  0  0  0  0  0
    8.2537  -10.9878    0.0000 C   0  0  0  0  0  0  0  0  0  0  0  0
    8.9679   -9.7501    0.0000 O   0  0  0  0  0  0  0  0  0  0  0  0
    6.1092   -6.4508    0.0000 H   0  0  0  0  0  0  0  0  0  0  0  0
    6.1096   -8.9258    0.0000 H   0  0  0  0  0  0  0  0  0  0  0  0
    5.3952   -7.6884    0.0000 H   0  0  0  0  0  0  0  0  0  0  0  0
  1  2  1  0  0  0  0
  2  3  1  0  0  0  0
  3  4  1  0  0  0  0
  4  5  2  0  0  0  0
  5  6  1  0  0  0  0
  6  7  1  0  0  0  0
  7  8  1  0  0  0  0
  8  9  1  0  0  0  0
  1  9  1  0  0  0  0
  4  9  1  0  0  0  0
 11 12  1  0  0  0  0
 12 13  2  0  0  0  0
 13 14  1  0  0  0  0
 14 15  2  0  0  0  0
 15 16  1  0  0  0  0
 11 16  2  0  0  0  0
 16 17  1  0  0  0  0
 10 17  1  0  0  0  0
 10  7  1  0  0  0  0
 11  8  1  0  0  0  0
 17 18  2  0  0  0  0
  1 19  1  0  0  0  0
 20 21  1  0  0  0  0
 13 20  1  0  0  0  0
 14 22  1  0  0  0  0
  7 23  1  6  0  0  0
  8 24  1  6  0  0  0
  9 25  1  1  0  0  0
M  END
>  <cdx:fragmentId>
5

$$$$
