300659.cdx
  Mrv1902 05222410232D          

 29 33  0  0  0  0            999 V2000
    7.4598   -8.3428    0.0000 C   0  0  2  0  0  0  0  0  0  0  0  0
    8.1743   -7.9303    0.0000 C   0  0  0  0  0  0  0  0  0  0  0  0
    8.3458   -7.1233    0.0000 N   0  0  0  0  0  0  0  0  0  0  0  0
    9.1663   -7.0371    0.0000 C   0  0  0  0  0  0  0  0  0  0  0  0
    9.6512   -6.3697    0.0000 C   0  0  0  0  0  0  0  0  0  0  0  0
   10.4717   -6.4559    0.0000 C   0  0  0  0  0  0  0  0  0  0  0  0
   10.8072   -7.2096    0.0000 C   0  0  0  0  0  0  0  0  0  0  0  0
   10.3223   -7.8770    0.0000 C   0  0  0  0  0  0  0  0  0  0  0  0
    9.5018   -7.7908    0.0000 C   0  0  0  0  0  0  0  0  0  0  0  0
    8.8887   -8.3428    0.0000 C   0  0  0  0  0  0  0  0  0  0  0  0
    8.8887   -9.1678    0.0000 C   0  0  0  0  0  0  0  0  0  0  0  0
    8.1743   -9.5803    0.0000 C   0  0  0  0  0  0  0  0  0  0  0  0
    7.4598   -9.1678    0.0000 N   0  0  0  0  0  0  0  0  0  0  0  0
    6.7453   -9.5803    0.0000 C   0  0  0  0  0  0  0  0  0  0  0  0
    6.0308   -9.1678    0.0000 C   0  0  1  0  0  0  0  0  0  0  0  0
    5.3164   -9.5803    0.0000 C   0  0  1  0  0  0  0  0  0  0  0  0
    4.6019   -9.1678    0.0000 O   0  0  0  0  0  0  0  0  0  0  0  0
    4.6019   -8.3428    0.0000 C   0  0  0  0  0  0  0  0  0  0  0  0
    5.3164   -7.9303    0.0000 C   0  0  0  0  0  0  0  0  0  0  0  0
    6.0308   -8.3428    0.0000 C   0  0  1  0  0  0  0  0  0  0  0  0
    6.7453   -7.9303    0.0000 C   0  0  0  0  0  0  0  0  0  0  0  0
    5.3164   -7.1053    0.0000 C   0  0  0  0  0  0  0  0  0  0  0  0
    6.0308   -6.6928    0.0000 O   0  0  0  0  0  0  0  0  0  0  0  0
    4.6019   -6.6928    0.0000 O   0  0  0  0  0  0  0  0  0  0  0  0
    5.3164  -10.4053    0.0000 C   0  0  0  0  0  0  0  0  0  0  0  0
    7.4598   -7.5178    0.0000 H   0  0  0  0  0  0  0  0  0  0  0  0
    6.0308   -9.9928    0.0000 H   0  0  0  0  0  0  0  0  0  0  0  0
    6.0308   -7.5178    0.0000 H   0  0  0  0  0  0  0  0  0  0  0  0
    4.6019   -5.8678    0.0000 C   0  0  0  0  0  0  0  0  0  0  0  0
  1  2  1  0  0  0  0
  2  3  1  0  0  0  0
  3  4  1  0  0  0  0
  4  5  2  0  0  0  0
  5  6  1  0  0  0  0
  6  7  2  0  0  0  0
  7  8  1  0  0  0  0
  8  9  2  0  0  0  0
  9 10  1  0  0  0  0
 10 11  1  0  0  0  0
 11 12  1  0  0  0  0
 12 13  1  0  0  0  0
 13 14  1  0  0  0  0
 14 15  1  0  0  0  0
 15 16  1  0  0  0  0
 16 17  1  0  0  0  0
 17 18  1  0  0  0  0
 18 19  2  0  0  0  0
 19 20  1  0  0  0  0
 20 21  1  0  0  0  0
  1 21  1  0  0  0  0
  1 13  1  0  0  0  0
  2 10  2  0  0  0  0
  4  9  1  0  0  0  0
 15 20  1  0  0  0  0
 22 23  2  0  0  0  0
 22 24  1  0  0  0  0
 19 22  1  0  0  0  0
 16 25  1  6  0  0  0
  1 26  1  1  0  0  0
 15 27  1  6  0  0  0
 20 28  1  6  0  0  0
 24 29  1  0  0  0  0
M  END
>  <cdx:fragmentId>
966

$$$$
