300670.cdx
  Mrv1902 05222410222D          

 11 10  0  0  0  0            999 V2000
    5.0476  -14.1780    0.0000 C   0  0  0  0  0  0  0  0  0  0  0  0
    4.3331  -14.5905    0.0000 C   0  0  0  0  0  0  0  0  0  0  0  0
    5.0476  -13.3530    0.0000 O   0  0  0  0  0  0  0  0  0  0  0  0
    5.7620  -14.5905    0.0000 N   0  0  0  0  0  0  0  0  0  0  0  0
    6.4765  -14.1780    0.0000 C   0  0  0  0  0  0  0  0  0  0  0  0
    7.1910  -14.5905    0.0000 C   0  0  0  0  0  0  0  0  0  0  0  0
    7.9054  -14.1780    0.0000 C   0  0  0  0  0  0  0  0  0  0  0  0
    5.7620  -15.4155    0.0000 C   0  0  0  0  0  0  0  0  0  0  0  0
    5.0476  -15.8280    0.0000 C   0  0  0  0  0  0  0  0  0  0  0  0
    5.0476  -16.6530    0.0000 C   0  0  0  0  0  0  0  0  0  0  0  0
    3.6186  -14.1780    0.0000 Cl  0  0  0  0  0  0  0  0  0  0  0  0
  1  2  1  0  0  0  0
  1  3  2  0  0  0  0
  1  4  1  0  0  0  0
  5  6  1  0  0  0  0
  6  7  2  0  0  0  0
  4  5  1  0  0  0  0
  8  9  1  0  0  0  0
  9 10  2  0  0  0  0
  4  8  1  0  0  0  0
  2 11  1  0  0  0  0
M  END
>  <cdx:fragmentId>
2190

$$$$
