300687.cdx
  Mrv1902 05222410252D          

 35 38  0  0  0  0            999 V2000
    8.7855   -4.9246    0.0000 C   0  0  0  0  0  0  0  0  0  0  0  0
    8.7855   -5.7496    0.0000 C   0  0  0  0  0  0  0  0  0  0  0  0
    8.0711   -6.1621    0.0000 C   0  0  0  0  0  0  0  0  0  0  0  0
    7.3566   -5.7496    0.0000 C   0  0  0  0  0  0  0  0  0  0  0  0
    6.6421   -6.1621    0.0000 C   0  0  0  0  0  0  0  0  0  0  0  0
    5.9276   -5.7496    0.0000 C   0  0  0  0  0  0  0  0  0  0  0  0
    5.9276   -4.9246    0.0000 C   0  0  0  0  0  0  0  0  0  0  0  0
    6.6421   -4.5121    0.0000 C   0  0  0  0  0  0  0  0  0  0  0  0
    7.3566   -4.9246    0.0000 C   0  0  0  0  0  0  0  0  0  0  0  0
    8.0711   -4.5121    0.0000 O   0  0  0  0  0  0  0  0  0  0  0  0
    8.0711   -6.9871    0.0000 O   0  0  0  0  0  0  0  0  0  0  0  0
    6.6421   -6.9871    0.0000 O   0  0  0  0  0  0  0  0  0  0  0  0
    5.2132   -6.9871    0.0000 O   0  0  0  0  0  0  0  0  0  0  0  0
    5.9276   -7.3996    0.0000 C   0  0  2  0  0  0  0  0  0  0  0  0
    5.9276   -8.2246    0.0000 C   0  0  1  0  0  0  0  0  0  0  0  0
    5.2132   -8.6371    0.0000 C   0  0  2  0  0  0  0  0  0  0  0  0
    4.4987   -8.2246    0.0000 C   0  0  1  0  0  0  0  0  0  0  0  0
    4.4987   -7.3996    0.0000 C   0  0  1  0  0  0  0  0  0  0  0  0
    3.7842   -6.9871    0.0000 C   0  0  0  0  0  0  0  0  0  0  0  0
    3.0698   -7.3996    0.0000 O   0  0  0  0  0  0  0  0  0  0  0  0
    3.7842   -8.6371    0.0000 O   0  0  0  0  0  0  0  0  0  0  0  0
    5.2132   -9.4621    0.0000 O   0  0  0  0  0  0  0  0  0  0  0  0
    6.6421   -8.6371    0.0000 O   0  0  0  0  0  0  0  0  0  0  0  0
    9.5000   -4.5121    0.0000 C   0  0  0  0  0  0  0  0  0  0  0  0
    9.5000   -3.6871    0.0000 C   0  0  0  0  0  0  0  0  0  0  0  0
   10.2145   -3.2746    0.0000 C   0  0  0  0  0  0  0  0  0  0  0  0
   10.9289   -3.6871    0.0000 C   0  0  0  0  0  0  0  0  0  0  0  0
   10.9289   -4.5121    0.0000 C   0  0  0  0  0  0  0  0  0  0  0  0
   10.2145   -4.9246    0.0000 C   0  0  0  0  0  0  0  0  0  0  0  0
    6.6421   -3.6871    0.0000 O   0  0  0  0  0  0  0  0  0  0  0  0
    5.9276   -3.2746    0.0000 C   0  0  0  0  0  0  0  0  0  0  0  0
    5.2132   -4.5121    0.0000 O   0  0  0  0  0  0  0  0  0  0  0  0
    4.4987   -4.9246    0.0000 C   0  0  0  0  0  0  0  0  0  0  0  0
   10.2145   -5.7496    0.0000 O   0  0  0  0  0  0  0  0  0  0  0  0
   10.9289   -6.1621    0.0000 C   0  0  0  0  0  0  0  0  0  0  0  0
  1  2  2  0  0  0  0
  2  3  1  0  0  0  0
  3  4  1  0  0  0  0
  4  5  1  0  0  0  0
  5  6  2  0  0  0  0
  6  7  1  0  0  0  0
  7  8  2  0  0  0  0
  8  9  1  0  0  0  0
  4  9  2  0  0  0  0
  9 10  1  0  0  0  0
  1 10  1  0  0  0  0
  3 11  2  0  0  0  0
 13 14  1  0  0  0  0
 14 15  1  0  0  0  0
 15 16  1  0  0  0  0
 16 17  1  0  0  0  0
 17 18  1  0  0  0  0
 13 18  1  0  0  0  0
 19 20  1  0  0  0  0
 18 19  1  1  0  0  0
 17 21  1  6  0  0  0
 16 22  1  1  0  0  0
 15 23  1  6  0  0  0
 14 12  1  1  0  0  0
  5 12  1  0  0  0  0
 24 25  1  0  0  0  0
 25 26  2  0  0  0  0
 26 27  1  0  0  0  0
 27 28  2  0  0  0  0
 28 29  1  0  0  0  0
 24 29  2  0  0  0  0
  1 24  1  0  0  0  0
 30 31  1  0  0  0  0
  8 30  1  0  0  0  0
 32 33  1  0  0  0  0
  7 32  1  0  0  0  0
 29 34  1  0  0  0  0
 34 35  1  0  0  0  0
M  END
>  <cdx:fragmentId>
238

$$$$
