300656.cdx
  Mrv1902 05222410242D          

 25 27  0  0  0  0            999 V2000
    7.7685   -7.8230    0.0000 C   0  0  0  0  0  0  0  0  0  0  0  0
    7.7685   -8.6480    0.0000 C   0  0  0  0  0  0  0  0  0  0  0  0
    7.0540   -9.0605    0.0000 C   0  0  0  0  0  0  0  0  0  0  0  0
    6.3395   -8.6480    0.0000 C   0  0  0  0  0  0  0  0  0  0  0  0
    5.6251   -9.0605    0.0000 C   0  0  0  0  0  0  0  0  0  0  0  0
    4.9106   -8.6480    0.0000 C   0  0  0  0  0  0  0  0  0  0  0  0
    4.9106   -7.8230    0.0000 C   0  0  0  0  0  0  0  0  0  0  0  0
    5.6251   -7.4105    0.0000 C   0  0  0  0  0  0  0  0  0  0  0  0
    6.3395   -7.8230    0.0000 C   0  0  0  0  0  0  0  0  0  0  0  0
    7.0540   -7.4105    0.0000 O   0  0  0  0  0  0  0  0  0  0  0  0
    7.0540   -9.8855    0.0000 O   0  0  0  0  0  0  0  0  0  0  0  0
    4.1961   -7.4105    0.0000 O   0  0  0  0  0  0  0  0  0  0  0  0
    3.4817   -7.8230    0.0000 C   0  0  0  0  0  0  0  0  0  0  0  0
    5.6251   -9.8855    0.0000 O   0  0  0  0  0  0  0  0  0  0  0  0
    4.9106  -10.2980    0.0000 C   0  0  0  0  0  0  0  0  0  0  0  0
    8.4830   -7.4105    0.0000 C   0  0  0  0  0  0  0  0  0  0  0  0
    9.1974   -7.8230    0.0000 C   0  0  0  0  0  0  0  0  0  0  0  0
    9.9119   -7.4105    0.0000 C   0  0  0  0  0  0  0  0  0  0  0  0
    9.9119   -6.5855    0.0000 C   0  0  0  0  0  0  0  0  0  0  0  0
    9.1974   -6.1730    0.0000 C   0  0  0  0  0  0  0  0  0  0  0  0
    8.4830   -6.5855    0.0000 C   0  0  0  0  0  0  0  0  0  0  0  0
   10.6264   -7.8230    0.0000 O   0  0  0  0  0  0  0  0  0  0  0  0
   11.3408   -7.4105    0.0000 C   0  0  0  0  0  0  0  0  0  0  0  0
   10.6264   -6.1730    0.0000 O   0  0  0  0  0  0  0  0  0  0  0  0
    4.1961   -9.0605    0.0000 O   0  0  0  0  0  0  0  0  0  0  0  0
  1  2  1  0  0  0  0
  2  3  1  0  0  0  0
  3  4  1  0  0  0  0
  4  5  1  0  0  0  0
  5  6  2  0  0  0  0
  6  7  1  0  0  0  0
  7  8  2  0  0  0  0
  8  9  1  0  0  0  0
  4  9  2  0  0  0  0
  9 10  1  0  0  0  0
  1 10  1  0  0  0  0
  3 11  2  0  0  0  0
 12 13  1  0  0  0  0
  7 12  1  0  0  0  0
 14 15  1  0  0  0  0
  5 14  1  0  0  0  0
 16 17  1  0  0  0  0
 17 18  2  0  0  0  0
 18 19  1  0  0  0  0
 19 20  2  0  0  0  0
 20 21  1  0  0  0  0
 16 21  2  0  0  0  0
 22 23  1  0  0  0  0
 18 22  1  0  0  0  0
 19 24  1  0  0  0  0
  1 16  1  0  0  0  0
  6 25  1  0  0  0  0
M  END
>  <cdx:fragmentId>
562

$$$$
