300636.cdx
  Mrv1902 05222410262D          

 43 49  0  0  0  0            999 V2000
    0.8530   -6.9506    0.0000 C   0  0  0  0  0  0  0  0  0  0  0  0
    0.8530   -7.7756    0.0000 C   0  0  0  0  0  0  0  0  0  0  0  0
    1.5675   -8.1881    0.0000 C   0  0  0  0  0  0  0  0  0  0  0  0
    2.2820   -7.7756    0.0000 C   0  0  0  0  0  0  0  0  0  0  0  0
    2.2820   -6.9506    0.0000 C   0  0  0  0  0  0  0  0  0  0  0  0
    1.5675   -6.5381    0.0000 C   0  0  0  0  0  0  0  0  0  0  0  0
    2.9964   -8.1881    0.0000 C   0  0  0  0  0  0  0  0  0  0  0  0
    3.7109   -7.7756    0.0000 C   0  0  0  0  0  0  0  0  0  0  0  0
    4.4254   -8.1881    0.0000 C   0  0  0  0  0  0  0  0  0  0  0  0
    4.4254   -9.0131    0.0000 C   0  0  0  0  0  0  0  0  0  0  0  0
    5.1399   -9.4256    0.0000 C   0  0  0  0  0  0  0  0  0  0  0  0
    5.8543   -9.0131    0.0000 C   0  0  0  0  0  0  0  0  0  0  0  0
    5.8543   -8.1881    0.0000 C   0  0  0  0  0  0  0  0  0  0  0  0
    5.1399   -7.7756    0.0000 O   0  0  0  0  0  0  0  0  0  0  0  0
    6.5688   -9.4256    0.0000 C   0  0  0  0  0  0  0  0  0  0  0  0
    7.2833   -9.0131    0.0000 C   0  0  0  0  0  0  0  0  0  0  0  0
    7.2833   -8.1881    0.0000 C   0  0  0  0  0  0  0  0  0  0  0  0
    6.5688   -7.7756    0.0000 C   0  0  0  0  0  0  0  0  0  0  0  0
    5.1399  -10.2506    0.0000 O   0  0  0  0  0  0  0  0  0  0  0  0
    7.9977   -7.7756    0.0000 O   0  0  0  0  0  0  0  0  0  0  0  0
    6.5688   -6.9506    0.0000 O   0  0  0  0  0  0  0  0  0  0  0  0
    6.5587   -5.9400    0.0000 C   0  0  2  0  0  0  0  0  0  0  0  0
    7.2732   -5.5275    0.0000 C   0  0  0  0  0  0  0  0  0  0  0  0
    7.2732   -4.7025    0.0000 C   0  0  0  0  0  0  0  0  0  0  0  0
    6.5587   -4.2900    0.0000 C   0  0  1  0  0  0  0  0  0  0  0  0
    5.8443   -4.7025    0.0000 C   0  0  1  0  0  0  0  0  0  0  0  0
    5.8443   -5.5275    0.0000 C   0  0  2  0  0  0  0  0  0  0  0  0
    7.9877   -5.9400    0.0000 C   0  0  0  0  0  0  0  0  0  0  0  0
    8.7022   -5.5275    0.0000 C   0  0  0  0  0  0  0  0  0  0  0  0
    8.7022   -4.7025    0.0000 C   0  0  0  0  0  0  0  0  0  0  0  0
    7.9877   -4.2900    0.0000 O   0  0  0  0  0  0  0  0  0  0  0  0
    7.9877   -6.7650    0.0000 O   0  0  0  0  0  0  0  0  0  0  0  0
    5.1298   -5.9400    0.0000 O   0  0  0  0  0  0  0  0  0  0  0  0
    5.8443   -3.8775    0.0000 O   0  0  0  0  0  0  0  0  0  0  0  0
    9.4166   -4.2900    0.0000 C   0  0  0  0  0  0  0  0  0  0  0  0
   10.1311   -4.7025    0.0000 C   0  0  0  0  0  0  0  0  0  0  0  0
   10.8456   -4.2900    0.0000 C   0  0  0  0  0  0  0  0  0  0  0  0
   11.5600   -4.7025    0.0000 C   0  0  0  0  0  0  0  0  0  0  0  0
   12.2745   -4.2900    0.0000 C   0  0  0  0  0  0  0  0  0  0  0  0
   12.2745   -3.4650    0.0000 C   0  0  0  0  0  0  0  0  0  0  0  0
   11.5600   -3.0525    0.0000 C   0  0  0  0  0  0  0  0  0  0  0  0
   10.8456   -3.4650    0.0000 C   0  0  0  0  0  0  0  0  0  0  0  0
    8.7122   -8.1881    0.0000 C   0  0  0  0  0  0  0  0  0  0  0  0
  1  2  2  0  0  0  0
  2  3  1  0  0  0  0
  3  4  2  0  0  0  0
  4  5  1  0  0  0  0
  5  6  2  0  0  0  0
  6  1  1  0  0  0  0
  4  7  1  0  0  0  0
  7  8  1  0  0  0  0
  8  9  1  0  0  0  0
  9 10  2  0  0  0  0
 10 11  1  0  0  0  0
 11 12  1  0  0  0  0
 12 13  2  0  0  0  0
 13 14  1  0  0  0  0
 14  9  1  0  0  0  0
 12 15  1  0  0  0  0
 15 16  2  0  0  0  0
 16 17  1  0  0  0  0
 17 18  2  0  0  0  0
 18 13  1  0  0  0  0
 11 19  2  0  0  0  0
 17 20  1  0  0  0  0
 18 21  1  0  0  0  0
 22 21  1  1  0  0  0
 22 23  1  0  0  0  0
 23 24  2  0  0  0  0
 24 25  1  0  0  0  0
 25 26  1  0  0  0  0
 26 27  1  0  0  0  0
 27 22  1  0  0  0  0
 23 28  1  0  0  0  0
 28 29  1  0  0  0  0
 29 30  2  0  0  0  0
 30 31  1  0  0  0  0
 31 24  1  0  0  0  0
 28 32  2  0  0  0  0
 27 33  1  1  0  0  0
 26 34  1  1  0  0  0
 25 34  1  1  0  0  0
 30 35  1  0  0  0  0
 35 36  1  0  0  0  0
 36 37  1  0  0  0  0
 37 38  2  0  0  0  0
 38 39  1  0  0  0  0
 39 40  2  0  0  0  0
 40 41  1  0  0  0  0
 41 42  2  0  0  0  0
 42 37  1  0  0  0  0
 20 43  1  0  0  0  0
M  END
>  <cdx:fragmentId>
401

$$$$
