300646.cdx
  Mrv1902 05222410242D          

 16 16  0  0  0  0            999 V2000
    4.7652   -5.3528    0.0000 C   0  0  0  0  0  0  0  0  0  0  0  0
    4.0507   -5.7653    0.0000 C   0  0  0  0  0  0  0  0  0  0  0  0
    4.7652   -4.5278    0.0000 O   0  0  0  0  0  0  0  0  0  0  0  0
    5.4796   -5.7653    0.0000 N   0  0  0  0  0  0  0  0  0  0  0  0
    5.4796   -6.5903    0.0000 C   0  0  0  0  0  0  0  0  0  0  0  0
    6.1941   -7.0028    0.0000 C   0  0  0  0  0  0  0  0  0  0  0  0
    6.1941   -7.8278    0.0000 C   0  0  0  0  0  0  0  0  0  0  0  0
    5.4796   -8.2403    0.0000 C   0  0  0  0  0  0  0  0  0  0  0  0
    4.7652   -7.8278    0.0000 C   0  0  0  0  0  0  0  0  0  0  0  0
    4.7652   -7.0028    0.0000 C   0  0  0  0  0  0  0  0  0  0  0  0
    6.1941   -5.3528    0.0000 N   0  0  0  0  0  0  0  0  0  0  0  0
    6.1941   -4.5278    0.0000 C   0  0  0  0  0  0  0  0  0  0  0  0
    6.9086   -5.7653    0.0000 S   0  0  0  0  0  0  0  0  0  0  0  0
    7.6231   -5.3528    0.0000 C   0  0  0  0  0  0  0  0  0  0  0  0
    6.1941   -6.1778    0.0000 S   0  0  0  0  0  0  0  0  0  0  0  0
    6.9086   -6.5903    0.0000 C   0  0  0  0  0  0  0  0  0  0  0  0
  1  2  1  0  0  0  0
  1  3  2  0  0  0  0
  1  4  1  0  0  0  0
  5  6  1  0  0  0  0
  6  7  2  0  0  0  0
  7  8  1  0  0  0  0
  8  9  2  0  0  0  0
  9 10  1  0  0  0  0
  5 10  2  0  0  0  0
  4  5  1  0  0  0  0
 11 12  2  0  0  0  0
 13 14  1  0  0  0  0
 11 13  1  0  0  0  0
 15 16  1  0  0  0  0
 11 15  1  0  0  0  0
  4 11  1  0  0  0  0
M  END
>  <cdx:fragmentId>
9094

$$$$
