300628.cdx
  Mrv1902 05222410192D          

 22 21  0  0  0  0            999 V2000
   15.8870   -4.8421    0.0000 C   0  0  0  0  0  0  0  0  0  0  0  0
   15.1725   -5.2546    0.0000 C   0  0  0  0  0  0  0  0  0  0  0  0
   14.4581   -4.8421    0.0000 C   0  0  0  0  0  0  0  0  0  0  0  0
   13.7436   -5.2546    0.0000 C   0  0  0  0  0  0  0  0  0  0  0  0
   13.0291   -4.8421    0.0000 C   0  0  0  0  0  0  0  0  0  0  0  0
   12.3146   -5.2546    0.0000 C   0  0  0  0  0  0  0  0  0  0  0  0
   11.6002   -4.8421    0.0000 C   0  0  0  0  0  0  0  0  0  0  0  0
   10.8857   -5.2546    0.0000 C   0  0  0  0  0  0  0  0  0  0  0  0
   10.0607   -5.2546    0.0000 C   0  0  0  0  0  0  0  0  0  0  0  0
    9.3462   -4.8421    0.0000 C   0  0  0  0  0  0  0  0  0  0  0  0
    8.6318   -5.2546    0.0000 C   0  0  0  0  0  0  0  0  0  0  0  0
    7.8068   -5.2546    0.0000 C   0  0  0  0  0  0  0  0  0  0  0  0
    7.0923   -4.8421    0.0000 C   0  0  0  0  0  0  0  0  0  0  0  0
    6.3778   -5.2546    0.0000 C   0  0  0  0  0  0  0  0  0  0  0  0
    5.5528   -5.2546    0.0000 C   0  0  0  0  0  0  0  0  0  0  0  0
    4.8383   -4.8421    0.0000 C   0  0  0  0  0  0  0  0  0  0  0  0
    4.1239   -5.2546    0.0000 C   0  0  0  0  0  0  0  0  0  0  0  0
    3.4094   -4.8421    0.0000 C   0  0  0  0  0  0  0  0  0  0  0  0
    2.6949   -5.2546    0.0000 C   0  0  0  0  0  0  0  0  0  0  0  0
    1.9805   -4.8421    0.0000 C   0  0  0  0  0  0  0  0  0  0  0  0
   15.8870   -4.0171    0.0000 O   0  0  0  0  0  0  0  0  0  0  0  0
   16.6015   -5.2546    0.0000 O   0  0  0  0  0  0  0  0  0  0  0  0
  1  2  1  0  0  0  0
  2  3  1  0  0  0  0
  3  4  1  0  0  0  0
  4  5  1  0  0  0  0
  5  6  1  0  0  0  0
  6  7  1  0  0  0  0
  7  8  1  0  0  0  0
  8  9  2  0  0  0  0
  9 10  1  0  0  0  0
 10 11  1  0  0  0  0
 11 12  2  0  0  0  0
 12 13  1  0  0  0  0
 13 14  1  0  0  0  0
 14 15  2  0  0  0  0
 15 16  1  0  0  0  0
 16 17  1  0  0  0  0
 17 18  1  0  0  0  0
 18 19  1  0  0  0  0
 19 20  1  0  0  0  0
  1 21  2  0  0  0  0
  1 22  1  0  0  0  0
M  END
>  <cdx:fragmentId>
7965

$$$$
