300695.cdx
  Mrv1902 05222410242D          

 43 50  0  0  0  0            999 V2000
    7.6781   -7.7694    0.0000 O   0  0  0  0  0  0  0  0  0  0  0  0
    7.6680   -6.7588    0.0000 C   0  0  2  0  0  0  0  0  0  0  0  0
    8.3825   -6.3463    0.0000 C   0  0  0  0  0  0  0  0  0  0  0  0
    8.3825   -5.5213    0.0000 C   0  0  0  0  0  0  0  0  0  0  0  0
    7.6680   -5.1088    0.0000 C   0  0  1  0  0  0  0  0  0  0  0  0
    6.9535   -5.5213    0.0000 C   0  0  1  0  0  0  0  0  0  0  0  0
    6.9535   -6.3463    0.0000 C   0  0  2  0  0  0  0  0  0  0  0  0
    9.0970   -6.7588    0.0000 C   0  0  0  0  0  0  0  0  0  0  0  0
    9.8114   -6.3463    0.0000 C   0  0  0  0  0  0  0  0  0  0  0  0
    9.8114   -5.5213    0.0000 C   0  0  0  0  0  0  0  0  0  0  0  0
    9.0970   -5.1088    0.0000 O   0  0  0  0  0  0  0  0  0  0  0  0
    9.0970   -7.5838    0.0000 O   0  0  0  0  0  0  0  0  0  0  0  0
    6.2391   -6.7588    0.0000 O   0  0  0  0  0  0  0  0  0  0  0  0
    6.9535   -4.6963    0.0000 O   0  0  0  0  0  0  0  0  0  0  0  0
   10.5259   -5.1088    0.0000 C   0  0  0  0  0  0  0  0  0  0  0  0
   11.2404   -5.5213    0.0000 C   0  0  0  0  0  0  0  0  0  0  0  0
   11.9548   -5.1088    0.0000 C   0  0  0  0  0  0  0  0  0  0  0  0
   12.6693   -5.5213    0.0000 C   0  0  0  0  0  0  0  0  0  0  0  0
   13.3838   -5.1088    0.0000 C   0  0  0  0  0  0  0  0  0  0  0  0
   13.3838   -4.2838    0.0000 C   0  0  0  0  0  0  0  0  0  0  0  0
   12.6693   -3.8713    0.0000 C   0  0  0  0  0  0  0  0  0  0  0  0
   11.9548   -4.2838    0.0000 C   0  0  0  0  0  0  0  0  0  0  0  0
    6.9554   -8.3508    0.0000 C   0  0  2  0  0  0  0  0  0  0  0  0
    6.2409   -7.9383    0.0000 C   0  0  1  0  0  0  0  0  0  0  0  0
    5.5264   -8.3508    0.0000 C   0  0  1  0  0  0  0  0  0  0  0  0
    5.5264   -9.1758    0.0000 C   0  0  0  0  0  0  0  0  0  0  0  0
    6.2409   -9.5883    0.0000 C   0  0  0  0  0  0  0  0  0  0  0  0
    6.9554   -9.1758    0.0000 C   0  0  1  0  0  0  0  0  0  0  0  0
    4.8120   -9.5883    0.0000 O   0  0  0  0  0  0  0  0  0  0  0  0
    4.8120  -10.4133    0.0000 C   0  0  0  0  0  0  0  0  0  0  0  0
    5.5264  -10.8258    0.0000 C   0  0  0  0  0  0  0  0  0  0  0  0
    6.2409  -10.4133    0.0000 C   0  0  0  0  0  0  0  0  0  0  0  0
    5.5264   -7.5258    0.0000 O   0  0  0  0  0  0  0  0  0  0  0  0
    6.9554  -10.8258    0.0000 O   0  0  0  0  0  0  0  0  0  0  0  0
    4.0975  -10.8258    0.0000 C   0  0  0  0  0  0  0  0  0  0  0  0
    4.0975  -11.6508    0.0000 C   0  0  0  0  0  0  0  0  0  0  0  0
    3.3830  -12.0633    0.0000 C   0  0  0  0  0  0  0  0  0  0  0  0
    2.6685  -11.6508    0.0000 C   0  0  0  0  0  0  0  0  0  0  0  0
    1.9541  -12.0633    0.0000 C   0  0  0  0  0  0  0  0  0  0  0  0
    1.9541  -12.8883    0.0000 C   0  0  0  0  0  0  0  0  0  0  0  0
    2.6685  -13.3008    0.0000 C   0  0  0  0  0  0  0  0  0  0  0  0
    3.3830  -12.8883    0.0000 C   0  0  0  0  0  0  0  0  0  0  0  0
    7.6698   -9.5883    0.0000 O   0  0  0  0  0  0  0  0  0  0  0  0
  2  1  1  1  0  0  0
  2  3  1  0  0  0  0
  3  4  2  0  0  0  0
  4  5  1  0  0  0  0
  5  6  1  0  0  0  0
  6  7  1  0  0  0  0
  7  2  1  0  0  0  0
  3  8  1  0  0  0  0
  8  9  1  0  0  0  0
  9 10  2  0  0  0  0
 10 11  1  0  0  0  0
 11  4  1  0  0  0  0
  8 12  2  0  0  0  0
  7 13  1  1  0  0  0
  6 14  1  1  0  0  0
  5 14  1  1  0  0  0
 10 15  1  0  0  0  0
 15 16  1  0  0  0  0
 16 17  1  0  0  0  0
 17 18  2  0  0  0  0
 18 19  1  0  0  0  0
 19 20  2  0  0  0  0
 20 21  1  0  0  0  0
 21 22  2  0  0  0  0
 22 17  1  0  0  0  0
 23  1  1  1  0  0  0
 23 24  1  0  0  0  0
 24 25  1  0  0  0  0
 25 26  1  0  0  0  0
 26 27  2  0  0  0  0
 27 28  1  0  0  0  0
 28 23  1  0  0  0  0
 26 29  1  0  0  0  0
 29 30  1  0  0  0  0
 30 31  2  0  0  0  0
 31 32  1  0  0  0  0
 32 27  1  0  0  0  0
 25 33  1  1  0  0  0
 24 33  1  1  0  0  0
 32 34  2  0  0  0  0
 30 35  1  0  0  0  0
 35 36  1  0  0  0  0
 36 37  1  0  0  0  0
 37 38  2  0  0  0  0
 38 39  1  0  0  0  0
 39 40  2  0  0  0  0
 40 41  1  0  0  0  0
 41 42  2  0  0  0  0
 42 37  1  0  0  0  0
 28 43  1  6  0  0  0
M  END
>  <cdx:fragmentId>
756

$$$$
