300641.cdx
  Mrv1902 05222410242D          

 22 21  0  0  0  0            999 V2000
    4.7080   -8.9103    0.0000 C   0  0  0  0  0  0  0  0  0  0  0  0
    5.4225   -8.4978    0.0000 C   0  0  0  0  0  0  0  0  0  0  0  0
    6.1369   -8.9103    0.0000 C   0  0  0  0  0  0  0  0  0  0  0  0
    6.8514   -8.4978    0.0000 C   0  0  0  0  0  0  0  0  0  0  0  0
    7.5659   -8.9103    0.0000 C   0  0  0  0  0  0  0  0  0  0  0  0
    8.2804   -8.4978    0.0000 C   0  0  0  0  0  0  0  0  0  0  0  0
    8.9948   -8.9103    0.0000 C   0  0  0  0  0  0  0  0  0  0  0  0
    9.7093   -8.4978    0.0000 C   0  0  0  0  0  0  0  0  0  0  0  0
   10.4238   -8.9103    0.0000 C   0  0  0  0  0  0  0  0  0  0  0  0
    3.9935   -8.4978    0.0000 O   0  0  0  0  0  0  0  0  0  0  0  0
   11.1382   -8.4978    0.0000 C   0  0  0  0  0  0  0  0  0  0  0  0
    4.7080   -9.7353    0.0000 O   0  0  0  0  0  0  0  0  0  0  0  0
   11.1382   -7.6728    0.0000 C   0  0  0  0  0  0  0  0  0  0  0  0
   11.8527   -7.2603    0.0000 C   0  0  0  0  0  0  0  0  0  0  0  0
   11.8527   -6.4353    0.0000 C   0  0  0  0  0  0  0  0  0  0  0  0
   11.1382   -6.0228    0.0000 C   0  0  0  0  0  0  0  0  0  0  0  0
   11.1382   -5.1978    0.0000 C   0  0  0  0  0  0  0  0  0  0  0  0
   10.4238   -4.7853    0.0000 C   0  0  0  0  0  0  0  0  0  0  0  0
    9.7093   -5.1978    0.0000 C   0  0  0  0  0  0  0  0  0  0  0  0
    8.9948   -4.7853    0.0000 C   0  0  0  0  0  0  0  0  0  0  0  0
    3.2791   -8.9103    0.0000 C   0  0  0  0  0  0  0  0  0  0  0  0
    2.5646   -8.4978    0.0000 C   0  0  0  0  0  0  0  0  0  0  0  0
  1  2  1  0  0  0  0
  2  3  1  0  0  0  0
  3  4  1  0  0  0  0
  4  5  1  0  0  0  0
  5  6  1  0  0  0  0
  6  7  1  0  0  0  0
  7  8  1  0  0  0  0
  8  9  1  0  0  0  0
  1 10  1  0  0  0  0
  9 11  2  0  0  0  0
  1 12  2  0  0  0  0
 11 13  1  0  0  0  0
 13 14  1  0  0  0  0
 14 15  2  0  0  0  0
 15 16  1  0  0  0  0
 16 17  1  0  0  0  0
 17 18  2  0  0  0  0
 18 19  1  0  0  0  0
 19 20  1  0  0  0  0
 10 21  1  0  0  0  0
 21 22  1  0  0  0  0
M  END
>  <cdx:fragmentId>
11736

$$$$
