300665.cdx
  Mrv1902 05222410232D          

 37 40  0  0  0  0            999 V2000
    7.6974   -9.4763    0.0000 C   0  0  0  0  0  0  0  0  0  0  0  0
    8.4119   -9.8888    0.0000 C   0  0  0  0  0  0  0  0  0  0  0  0
    9.1264   -9.4763    0.0000 C   0  0  0  0  0  0  0  0  0  0  0  0
    7.6974   -8.6513    0.0000 O   0  0  0  0  0  0  0  0  0  0  0  0
    6.9830   -9.8888    0.0000 O   0  0  0  0  0  0  0  0  0  0  0  0
    9.8408   -9.8888    0.0000 C   0  0  0  0  0  0  0  0  0  0  0  0
   10.5553   -9.4763    0.0000 C   0  0  0  0  0  0  0  0  0  0  0  0
   11.2698   -9.8888    0.0000 C   0  0  0  0  0  0  0  0  0  0  0  0
   11.2698  -10.7138    0.0000 C   0  0  0  0  0  0  0  0  0  0  0  0
   10.5553  -11.1263    0.0000 C   0  0  0  0  0  0  0  0  0  0  0  0
    9.8408  -10.7138    0.0000 C   0  0  0  0  0  0  0  0  0  0  0  0
   11.9843  -11.1263    0.0000 O   0  0  0  0  0  0  0  0  0  0  0  0
   12.6987  -10.7138    0.0000 C   0  0  0  0  0  0  0  0  0  0  0  0
    5.5540   -8.2388    0.0000 O   0  0  0  0  0  0  0  0  0  0  0  0
    6.2685   -8.6513    0.0000 C   0  0  2  0  0  0  0  0  0  0  0  0
    6.2685   -9.4763    0.0000 C   0  0  1  0  0  0  0  0  0  0  0  0
    5.5540   -9.8888    0.0000 C   0  0  2  0  0  0  0  0  0  0  0  0
    4.8395   -9.4763    0.0000 C   0  0  1  0  0  0  0  0  0  0  0  0
    4.8395   -8.6513    0.0000 C   0  0  1  0  0  0  0  0  0  0  0  0
    4.1251   -8.2388    0.0000 C   0  0  0  0  0  0  0  0  0  0  0  0
    3.4106   -8.6513    0.0000 O   0  0  0  0  0  0  0  0  0  0  0  0
    4.1251   -9.8888    0.0000 O   0  0  0  0  0  0  0  0  0  0  0  0
    5.5540  -10.7138    0.0000 O   0  0  0  0  0  0  0  0  0  0  0  0
    6.9830   -8.2388    0.0000 O   0  0  0  0  0  0  0  0  0  0  0  0
    6.9830   -7.4138    0.0000 C   0  0  1  0  0  0  0  0  0  0  0  0
    7.6974   -7.0013    0.0000 C   0  0  1  0  0  0  0  0  0  0  0  0
    7.6974   -6.1763    0.0000 C   0  0  1  0  0  0  0  0  0  0  0  0
    6.9830   -5.7638    0.0000 C   0  0  0  0  0  0  0  0  0  0  0  0
    6.2685   -6.1763    0.0000 C   0  0  0  0  0  0  0  0  0  0  0  0
    6.2685   -7.0013    0.0000 O   0  0  0  0  0  0  0  0  0  0  0  0
    8.4821   -5.9214    0.0000 C   0  0  0  0  0  0  0  0  0  0  0  0
    8.9670   -6.5888    0.0000 C   0  0  1  0  0  0  0  0  0  0  0  0
    8.4821   -7.2562    0.0000 C   0  0  2  0  0  0  0  0  0  0  0  0
    8.7370   -8.0409    0.0000 C   0  0  0  0  0  0  0  0  0  0  0  0
    9.7920   -6.5888    0.0000 O   0  0  0  0  0  0  0  0  0  0  0  0
    7.7837   -5.3558    0.0000 H   0  0  0  0  0  0  0  0  0  0  0  0
    7.7837   -7.8218    0.0000 H   0  0  0  0  0  0  0  0  0  0  0  0
  1  2  1  0  0  0  0
  2  3  2  0  0  0  0
  1  4  2  0  0  0  0
  1  5  1  0  0  0  0
  6  7  1  0  0  0  0
  7  8  2  0  0  0  0
  8  9  1  0  0  0  0
  9 10  2  0  0  0  0
 10 11  1  0  0  0  0
  6 11  2  0  0  0  0
 12 13  1  0  0  0  0
  9 12  1  0  0  0  0
  3  6  1  0  0  0  0
 14 15  1  0  0  0  0
 15 16  1  0  0  0  0
 16 17  1  0  0  0  0
 17 18  1  0  0  0  0
 18 19  1  0  0  0  0
 14 19  1  0  0  0  0
 20 21  1  0  0  0  0
 19 20  1  1  0  0  0
 18 22  1  6  0  0  0
 17 23  1  1  0  0  0
 25 26  1  0  0  0  0
 26 27  1  0  0  0  0
 27 28  1  0  0  0  0
 28 29  2  0  0  0  0
 29 30  1  0  0  0  0
 25 30  1  0  0  0  0
 31 32  1  0  0  0  0
 32 33  1  0  0  0  0
 26 33  1  0  0  0  0
 27 31  1  0  0  0  0
 33 34  1  6  0  0  0
 32 35  1  6  0  0  0
 25 24  1  6  0  0  0
 15 24  1  1  0  0  0
 16  5  1  6  0  0  0
 27 36  1  6  0  0  0
 26 37  1  6  0  0  0
M  END
>  <cdx:fragmentId>
1796

$$$$
