300630.cdx
  Mrv1902 05222410272D          

 24 27  0  0  0  0            999 V2000
    7.6643   -5.1675    0.0000 C   0  0  0  0  0  0  0  0  0  0  0  0
    8.3787   -4.7550    0.0000 C   0  0  0  0  0  0  0  0  0  0  0  0
    7.6643   -5.9925    0.0000 O   0  0  0  0  0  0  0  0  0  0  0  0
    6.9498   -4.7550    0.0000 O   0  0  0  0  0  0  0  0  0  0  0  0
    4.7308   -6.0925    0.0000 C   0  0  1  0  0  0  0  0  0  0  0  0
    5.4453   -5.6800    0.0000 C   0  0  2  0  0  0  0  0  0  0  0  0
    5.4445   -4.8550    0.0000 C   0  0  0  0  0  0  0  0  0  0  0  0
    4.7299   -4.4428    0.0000 C   0  0  0  0  0  0  0  0  0  0  0  0
    4.0153   -4.8550    0.0000 C   0  0  0  0  0  0  0  0  0  0  0  0
    4.0164   -5.6800    0.0000 N   0  0  0  0  0  0  0  0  0  0  0  0
    3.3019   -6.0925    0.0000 C   0  0  0  0  0  0  0  0  0  0  0  0
    3.3019   -6.9175    0.0000 C   0  0  0  0  0  0  0  0  0  0  0  0
    4.0164   -7.3300    0.0000 C   0  0  0  0  0  0  0  0  0  0  0  0
    4.7308   -6.9175    0.0000 C   0  0  2  0  0  0  0  0  0  0  0  0
    5.4453   -7.3300    0.0000 C   0  0  0  0  0  0  0  0  0  0  0  0
    6.1598   -6.9175    0.0000 C   0  0  0  0  0  0  0  0  0  0  0  0
    6.1598   -6.0925    0.0000 C   0  0  1  0  0  0  0  0  0  0  0  0
    6.2353   -5.1675    0.0000 C   0  0  2  0  0  0  0  0  0  0  0  0
    5.4444   -4.6818    0.0000 C   0  0  0  0  0  0  0  0  0  0  0  0
    4.6536   -5.1675    0.0000 C   0  0  0  0  0  0  0  0  0  0  0  0
    5.4453   -8.1550    0.0000 O   0  0  0  0  0  0  0  0  0  0  0  0
    5.4453   -6.5050    0.0000 O   0  0  0  0  0  0  0  0  0  0  0  0
    4.7308   -7.7425    0.0000 H   0  0  0  0  0  0  0  0  0  0  0  0
    6.9848   -6.0925    0.0000 H   0  0  0  0  0  0  0  0  0  0  0  0
  1  2  1  0  0  0  0
  1  3  2  0  0  0  0
  1  4  1  0  0  0  0
  5  6  1  0  0  0  0
  6  7  1  0  0  0  0
  7  8  1  0  0  0  0
  8  9  1  0  0  0  0
  9 10  1  0  0  0  0
 10 11  1  0  0  0  0
 11 12  1  0  0  0  0
 12 13  1  0  0  0  0
 13 14  1  0  0  0  0
 14 15  1  0  0  0  0
 15 16  1  0  0  0  0
 16 17  1  0  0  0  0
 17 18  1  0  0  0  0
 18 19  1  0  0  0  0
 19 20  1  0  0  0  0
  5 20  1  1  0  0  0
  5 14  1  0  0  0  0
  5 10  1  0  0  0  0
  6 17  1  0  0  0  0
 15 21  2  0  0  0  0
  6 22  1  1  0  0  0
 18  4  1  6  0  0  0
 14 23  1  6  0  0  0
 17 24  1  1  0  0  0
M  END
>  <cdx:fragmentId>
8126

$$$$
