30064.cdx
  Mrv1902 05222410272D          

 15 17  0  0  0  0            999 V2000
    6.0345   -7.3596    0.0000 C   0  0  0  0  0  0  0  0  0  0  0  0
    5.7831   -8.1453    0.0000 C   0  0  1  0  0  0  0  0  0  0  0  0
    6.4527   -8.6273    0.0000 C   0  0  0  0  0  0  0  0  0  0  0  0
    7.1179   -8.1394    0.0000 C   0  0  2  0  0  0  0  0  0  0  0  0
    6.8595   -7.3559    0.0000 C   0  0  0  0  0  0  0  0  0  0  0  0
    5.1178   -8.6273    0.0000 C   0  0  0  0  0  0  0  0  0  0  0  0
    5.3762   -9.4107    0.0000 C   0  0  0  0  0  0  0  0  0  0  0  0
    6.2012   -9.4107    0.0000 C   0  0  1  0  0  0  0  0  0  0  0  0
    6.7111   -9.4107    0.0000 C   0  0  0  0  0  0  0  0  0  0  0  0
    7.5361   -9.4107    0.0000 C   0  0  0  0  0  0  0  0  0  0  0  0
    7.7875   -8.6273    0.0000 C   0  0  0  0  0  0  0  0  0  0  0  0
    5.0686   -7.7328    0.0000 C   0  0  0  0  0  0  0  0  0  0  0  0
    6.6874  -10.0773    0.0000 C   0  0  0  0  0  0  0  0  0  0  0  0
    7.8324   -7.7269    0.0000 C   0  0  0  0  0  0  0  0  0  0  0  0
    5.5466   -6.6943    0.0000 C   0  0  0  0  0  0  0  0  0  0  0  0
  1  2  1  0  0  0  0
  2  3  1  0  0  0  0
  3  4  1  0  0  0  0
  4  5  1  0  0  0  0
  5  1  2  0  0  0  0
  2  6  1  0  0  0  0
  6  7  1  0  0  0  0
  7  8  1  0  0  0  0
  8  3  1  0  0  0  0
  3  9  1  0  0  0  0
  9 10  1  0  0  0  0
 10 11  1  0  0  0  0
 11  4  1  0  0  0  0
  2 12  1  6  0  0  0
  8 13  1  6  0  0  0
  4 14  1  1  0  0  0
  1 15  1  0  0  0  0
M  END
>  <cdx:fragmentId>
5

$$$$
