300645.cdx
  Mrv1902 05222410252D          

 21 20  0  0  0  0            999 V2000
    4.1851  -10.0248    0.0000 C   0  0  0  0  0  0  0  0  0  0  0  0
    3.3601   -8.5959    0.0000 C   0  0  0  0  0  0  0  0  0  0  0  0
    4.4871   -8.0729    0.0000 O   0  0  0  0  0  0  0  0  0  0  0  0
    3.0582   -9.7229    0.0000 O   0  0  0  0  0  0  0  0  0  0  0  0
    9.4884  -10.1354    0.0000 C   0  0  0  0  0  0  0  0  0  0  0  0
    6.6305  -10.1354    0.0000 C   0  0  0  0  0  0  0  0  0  0  0  0
    3.7726   -9.3104    0.0000 C   0  0  0  0  0  0  0  0  0  0  0  0
    4.4871   -8.8979    0.0000 C   0  0  0  0  0  0  0  0  0  0  0  0
    5.2016   -9.3104    0.0000 C   0  0  0  0  0  0  0  0  0  0  0  0
    5.9160   -8.8979    0.0000 C   0  0  0  0  0  0  0  0  0  0  0  0
    6.6305   -9.3104    0.0000 C   0  0  0  0  0  0  0  0  0  0  0  0
    7.3450   -8.8979    0.0000 C   0  0  0  0  0  0  0  0  0  0  0  0
    8.0595   -9.3104    0.0000 C   0  0  0  0  0  0  0  0  0  0  0  0
    8.7739   -8.8979    0.0000 C   0  0  0  0  0  0  0  0  0  0  0  0
    9.4884   -9.3104    0.0000 C   0  0  0  0  0  0  0  0  0  0  0  0
   10.2029   -8.8979    0.0000 C   0  0  0  0  0  0  0  0  0  0  0  0
   10.2029   -8.0729    0.0000 C   0  0  0  0  0  0  0  0  0  0  0  0
   10.9173   -7.6604    0.0000 O   0  0  0  0  0  0  0  0  0  0  0  0
   10.2029   -6.4229    0.0000 O   0  0  0  0  0  0  0  0  0  0  0  0
   11.6318   -6.4229    0.0000 C   0  0  0  0  0  0  0  0  0  0  0  0
   10.9173   -6.8354    0.0000 C   0  0  0  0  0  0  0  0  0  0  0  0
  7  1  1  0  0  0  0
  7  2  1  0  0  0  0
 18 17  1  0  0  0  0
  8  3  1  0  0  0  0
  7  4  1  0  0  0  0
 15  5  1  0  0  0  0
 11  6  1  0  0  0  0
  8  7  1  0  0  0  0
  9  8  1  0  0  0  0
 10  9  1  0  0  0  0
 11 10  1  0  0  0  0
 12 11  2  0  0  0  0
 13 12  1  0  0  0  0
 14 13  1  0  0  0  0
 15 14  1  0  0  0  0
 16 15  2  0  0  0  0
 17 16  1  0  0  0  0
 21 18  1  0  0  0  0
 21 19  2  0  0  0  0
 21 20  1  0  0  0  0
M  END
>  <cdx:fragmentId>
13

$$$$
