300677.cdx
  Mrv1902 05222410212D          

  9  8  0  0  0  0            999 V2000
    4.1134   -4.4055    0.0000 C   0  0  0  0  0  0  0  0  0  0  0  0
    4.8278   -4.8180    0.0000 C   0  0  0  0  0  0  0  0  0  0  0  0
    5.5423   -4.4055    0.0000 C   0  0  0  0  0  0  0  0  0  0  0  0
    7.6857   -4.8180    0.0000 S   0  0  0  0  0  0  0  0  0  0  0  0
    6.9712   -4.4055    0.0000 S   0  0  0  0  0  0  0  0  0  0  0  0
    6.2568   -4.8180    0.0000 S   0  0  0  0  0  0  0  0  0  0  0  0
    9.8291   -4.4055    0.0000 C   0  0  0  0  0  0  0  0  0  0  0  0
    9.1147   -4.8180    0.0000 C   0  0  0  0  0  0  0  0  0  0  0  0
    8.4002   -4.4055    0.0000 C   0  0  0  0  0  0  0  0  0  0  0  0
  9  4  1  0  0  0  0
  6  3  1  0  0  0  0
  2  1  2  0  0  0  0
  3  2  1  0  0  0  0
  5  4  1  0  0  0  0
  6  5  1  0  0  0  0
  8  7  1  0  0  0  0
  9  8  1  0  0  0  0
M  END
>  <cdx:fragmentId>
2604

$$$$
