300605.cdx
  Mrv1902 05222410192D          

 15 16  0  0  0  0            999 V2000
    7.4142   -5.3096    0.0000 C   0  0  0  0  0  0  0  0  0  0  0  0
    7.4142   -6.1346    0.0000 C   0  0  0  0  0  0  0  0  0  0  0  0
    6.6998   -6.5471    0.0000 C   0  0  0  0  0  0  0  0  0  0  0  0
    5.9853   -6.1346    0.0000 C   0  0  0  0  0  0  0  0  0  0  0  0
    5.2708   -6.5471    0.0000 C   0  0  0  0  0  0  0  0  0  0  0  0
    4.5563   -6.1346    0.0000 C   0  0  0  0  0  0  0  0  0  0  0  0
    4.5563   -5.3096    0.0000 C   0  0  0  0  0  0  0  0  0  0  0  0
    5.2708   -4.8971    0.0000 C   0  0  0  0  0  0  0  0  0  0  0  0
    5.9853   -5.3096    0.0000 C   0  0  0  0  0  0  0  0  0  0  0  0
    6.6998   -4.8971    0.0000 O   0  0  0  0  0  0  0  0  0  0  0  0
    6.6998   -7.3721    0.0000 O   0  0  0  0  0  0  0  0  0  0  0  0
    8.1287   -4.8971    0.0000 C   0  0  0  0  0  0  0  0  0  0  0  0
    5.2708   -7.3721    0.0000 C   0  0  0  0  0  0  0  0  0  0  0  0
    4.5563   -7.7846    0.0000 O   0  0  0  0  0  0  0  0  0  0  0  0
    3.8419   -4.8971    0.0000 O   0  0  0  0  0  0  0  0  0  0  0  0
  1  2  2  0  0  0  0
  2  3  1  0  0  0  0
  3  4  1  0  0  0  0
  4  5  1  0  0  0  0
  5  6  2  0  0  0  0
  6  7  1  0  0  0  0
  7  8  2  0  0  0  0
  8  9  1  0  0  0  0
  4  9  2  0  0  0  0
  9 10  1  0  0  0  0
  1 10  1  0  0  0  0
  3 11  2  0  0  0  0
  1 12  1  0  0  0  0
 13 14  1  0  0  0  0
  5 13  1  0  0  0  0
  7 15  1  0  0  0  0
M  END
>  <cdx:fragmentId>
6480

$$$$
