300618.cdx
  Mrv1902 05222410272D          

 20 21  0  0  0  0            999 V2000
    5.3913   -6.6512    0.0000 C   0  0  0  0  0  0  0  0  0  0  0  0
    4.9788   -5.9367    0.0000 C   0  0  0  0  0  0  0  0  0  0  0  0
    4.1538   -5.9367    0.0000 C   0  0  0  0  0  0  0  0  0  0  0  0
    3.7413   -6.6512    0.0000 C   0  0  0  0  0  0  0  0  0  0  0  0
    4.1538   -7.3657    0.0000 C   0  0  0  0  0  0  0  0  0  0  0  0
    4.9788   -7.3657    0.0000 C   0  0  0  0  0  0  0  0  0  0  0  0
    3.7413   -8.0802    0.0000 O   0  0  0  0  0  0  0  0  0  0  0  0
    2.9163   -6.6512    0.0000 C   0  0  0  0  0  0  0  0  0  0  0  0
    5.6213   -8.1033    0.0000 C   0  0  0  0  0  0  0  0  0  0  0  0
    4.8143   -5.0276    0.0000 C   0  0  0  0  0  0  0  0  0  0  0  0
    5.6213   -5.1991    0.0000 C   0  0  0  0  0  0  0  0  0  0  0  0
    6.1733   -4.5861    0.0000 C   0  0  0  0  0  0  0  0  0  0  0  0
    5.8762   -5.9838    0.0000 C   0  0  0  0  0  0  0  0  0  0  0  0
    6.6608   -6.2387    0.0000 C   0  0  0  0  0  0  0  0  0  0  0  0
    6.6608   -7.0637    0.0000 C   0  0  0  0  0  0  0  0  0  0  0  0
    5.8762   -7.3186    0.0000 C   0  0  0  0  0  0  0  0  0  0  0  0
    7.3283   -5.7538    0.0000 O   0  0  0  0  0  0  0  0  0  0  0  0
    8.1682   -6.9098    0.0000 O   0  0  0  0  0  0  0  0  0  0  0  0
    8.7494   -5.6044    0.0000 C   0  0  0  0  0  0  0  0  0  0  0  0
    8.0819   -6.0893    0.0000 C   0  0  0  0  0  0  0  0  0  0  0  0
 17 14  1  0  0  0  0
 16  9  1  0  0  0  0
 13 11  1  0  0  0  0
 11 10  1  0  0  0  0
 12 11  1  0  0  0  0
 16  1  1  0  0  0  0
 13  1  1  0  0  0  0
 14 13  1  0  0  0  0
 15 14  1  0  0  0  0
 16 15  1  0  0  0  0
 20 17  1  0  0  0  0
 20 18  2  0  0  0  0
 20 19  1  0  0  0  0
  1  2  1  0  0  0  0
  2  3  1  0  0  0  0
  3  4  2  0  0  0  0
  4  5  1  0  0  0  0
  5  6  1  0  0  0  0
  1  6  1  0  0  0  0
  5  7  2  0  0  0  0
  4  8  1  0  0  0  0
M  END
>  <cdx:fragmentId>
7343

$$$$
