300676.cdx
  Mrv1902 05222410212D          

  7  6  0  0  0  0            999 V2000
    5.6248   -5.8217    0.0000 C   0  0  0  0  0  0  0  0  0  0  0  0
    6.3393   -6.2342    0.0000 C   0  0  0  0  0  0  0  0  0  0  0  0
    7.0537   -5.8217    0.0000 C   0  0  0  0  0  0  0  0  0  0  0  0
    7.7682   -6.2342    0.0000 S   0  0  0  0  0  0  0  0  0  0  0  0
    8.1807   -5.5198    0.0000 O   0  0  0  0  0  0  0  0  0  0  0  0
    7.3557   -6.9487    0.0000 O   0  0  0  0  0  0  0  0  0  0  0  0
    8.4827   -6.6467    0.0000 C   0  0  0  0  0  0  0  0  0  0  0  0
  1  2  2  0  0  0  0
  2  3  1  0  0  0  0
  4  5  2  0  0  0  0
  4  6  2  0  0  0  0
  4  7  1  0  0  0  0
  3  4  1  0  0  0  0
M  END
>  <cdx:fragmentId>
2578

$$$$
