300657.cdx
  Mrv1902 05222410242D          

 64 70  0  0  0  0            999 V2000
    6.1306   -6.7788    0.0000 C   0  0  0  0  0  0  0  0  0  0  0  0
    6.1306   -7.6037    0.0000 C   0  0  1  0  0  0  0  0  0  0  0  0
    6.8450   -8.0162    0.0000 C   0  0  0  0  0  0  0  0  0  0  0  0
    7.5595   -7.6037    0.0000 C   0  0  1  0  0  0  0  0  0  0  0  0
    7.5595   -6.7788    0.0000 C   0  0  2  0  0  0  0  0  0  0  0  0
    6.8450   -6.3662    0.0000 C   0  0  0  0  0  0  0  0  0  0  0  0
    8.2740   -8.0162    0.0000 C   0  0  2  0  0  0  0  0  0  0  0  0
    8.9884   -7.6037    0.0000 C   0  0  0  0  0  0  0  0  0  0  0  0
    8.9884   -6.7788    0.0000 C   0  0  2  0  0  0  0  0  0  0  0  0
    8.2740   -6.3662    0.0000 C   0  0  1  0  0  0  0  0  0  0  0  0
    9.7029   -6.3662    0.0000 C   0  0  1  0  0  0  0  0  0  0  0  0
    9.7029   -5.5413    0.0000 C   0  0  2  0  0  0  0  0  0  0  0  0
    8.9884   -5.1287    0.0000 C   0  0  0  0  0  0  0  0  0  0  0  0
    8.2740   -5.5413    0.0000 C   0  0  0  0  0  0  0  0  0  0  0  0
   10.4875   -6.6212    0.0000 C   0  0  0  0  0  0  0  0  0  0  0  0
   10.9725   -5.9538    0.0000 C   0  0  1  0  0  0  0  0  0  0  0  0
   10.4875   -5.2863    0.0000 C   0  0  2  0  0  0  0  0  0  0  0  0
    6.4325   -8.7307    0.0000 C   0  0  0  0  0  0  0  0  0  0  0  0
    7.2575   -8.7307    0.0000 C   0  0  0  0  0  0  0  0  0  0  0  0
    5.4161   -8.0162    0.0000 O   0  0  0  0  0  0  0  0  0  0  0  0
    7.5595   -5.9538    0.0000 C   0  0  0  0  0  0  0  0  0  0  0  0
    8.9884   -5.9538    0.0000 H   0  0  0  0  0  0  0  0  0  0  0  0
    9.7029   -4.7162    0.0000 C   0  0  0  0  0  0  0  0  0  0  0  0
   11.7975   -5.9538    0.0000 O   0  0  0  0  0  0  0  0  0  0  0  0
    7.5595   -8.4288    0.0000 H   0  0  0  0  0  0  0  0  0  0  0  0
    8.2740   -8.8413    0.0000 O   0  0  0  0  0  0  0  0  0  0  0  0
    9.7029   -7.1913    0.0000 C   0  0  0  0  0  0  0  0  0  0  0  0
   11.3125   -5.2863    0.0000 H   0  0  0  0  0  0  0  0  0  0  0  0
    8.7214   -9.5344    0.0000 C   0  0  2  0  0  0  0  0  0  0  0  0
    8.3449  -10.2684    0.0000 O   0  0  0  0  0  0  0  0  0  0  0  0
    8.7923  -10.9615    0.0000 C   0  0  1  0  0  0  0  0  0  0  0  0
    9.6163  -10.9206    0.0000 C   0  0  2  0  0  0  0  0  0  0  0  0
    9.9929  -10.1865    0.0000 C   0  0  1  0  0  0  0  0  0  0  0  0
    9.5454   -9.4934    0.0000 C   0  0  1  0  0  0  0  0  0  0  0  0
    8.4158  -11.6956    0.0000 C   0  0  0  0  0  0  0  0  0  0  0  0
   10.8168  -10.1456    0.0000 O   0  0  0  0  0  0  0  0  0  0  0  0
    9.9219   -8.7594    0.0000 O   0  0  0  0  0  0  0  0  0  0  0  0
   10.0638  -11.6137    0.0000 O   0  0  0  0  0  0  0  0  0  0  0  0
    8.8633  -12.3887    0.0000 O   0  0  0  0  0  0  0  0  0  0  0  0
    4.7016   -7.6037    0.0000 C   0  0  2  0  0  0  0  0  0  0  0  0
    4.7016   -6.7788    0.0000 O   0  0  0  0  0  0  0  0  0  0  0  0
    3.9871   -6.3662    0.0000 C   0  0  0  0  0  0  0  0  0  0  0  0
    3.2727   -6.7788    0.0000 C   0  0  2  0  0  0  0  0  0  0  0  0
    3.2727   -7.6037    0.0000 C   0  0  1  0  0  0  0  0  0  0  0  0
    3.9871   -8.0162    0.0000 C   0  0  1  0  0  0  0  0  0  0  0  0
    2.5582   -8.0162    0.0000 O   0  0  0  0  0  0  0  0  0  0  0  0
    2.5582   -6.3662    0.0000 O   0  0  0  0  0  0  0  0  0  0  0  0
    3.9871   -8.8412    0.0000 O   0  0  0  0  0  0  0  0  0  0  0  0
    4.7016   -9.2537    0.0000 C   0  0  0  0  0  0  0  0  0  0  0  0
    4.7016  -10.0787    0.0000 O   0  0  0  0  0  0  0  0  0  0  0  0
    5.4161   -8.8412    0.0000 C   0  0  0  0  0  0  0  0  0  0  0  0
    1.8437   -7.6037    0.0000 C   0  0  0  0  0  0  0  0  0  0  0  0
    1.1293   -8.0162    0.0000 C   0  0  0  0  0  0  0  0  0  0  0  0
    1.8437   -6.7788    0.0000 O   0  0  0  0  0  0  0  0  0  0  0  0
   10.7011   -4.4894    0.0000 C   0  0  2  0  0  0  0  0  0  0  0  0
   10.1177   -3.9061    0.0000 C   0  0  0  0  0  0  0  0  0  0  0  0
   11.4979   -4.2759    0.0000 C   0  0  0  0  0  0  0  0  0  0  0  0
   11.7115   -3.4790    0.0000 C   0  0  0  0  0  0  0  0  0  0  0  0
   12.5084   -3.2655    0.0000 C   0  0  2  0  0  0  0  0  0  0  0  0
   13.0917   -3.8488    0.0000 O   0  0  0  0  0  0  0  0  0  0  0  0
   12.7219   -2.4686    0.0000 C   0  0  0  0  0  0  0  0  0  0  0  0
   11.9250   -2.2551    0.0000 C   0  0  0  0  0  0  0  0  0  0  0  0
   13.5188   -2.6821    0.0000 C   0  0  0  0  0  0  0  0  0  0  0  0
   12.9354   -1.6717    0.0000 O   0  0  0  0  0  0  0  0  0  0  0  0
  1  2  1  0  0  0  0
  2  3  1  0  0  0  0
  3  4  1  0  0  0  0
  4  5  1  0  0  0  0
  5  6  1  0  0  0  0
  6  1  1  0  0  0  0
  4  7  1  0  0  0  0
  7  8  1  0  0  0  0
  8  9  1  0  0  0  0
  9 10  1  0  0  0  0
 10  5  1  0  0  0  0
  9 11  1  0  0  0  0
 11 12  1  0  0  0  0
 12 13  1  0  0  0  0
 13 14  1  0  0  0  0
 14 10  1  0  0  0  0
 11 15  1  0  0  0  0
 15 16  1  0  0  0  0
 16 17  1  0  0  0  0
 17 12  1  0  0  0  0
  3 18  1  0  0  0  0
  3 19  1  0  0  0  0
  2 20  1  1  0  0  0
  5 21  1  1  0  0  0
 10 21  1  1  0  0  0
  9 22  1  1  0  0  0
 12 23  1  1  0  0  0
 16 24  1  1  0  0  0
  4 25  1  6  0  0  0
  7 26  1  6  0  0  0
 11 27  1  6  0  0  0
 17 28  1  6  0  0  0
 29 26  1  1  0  0  0
 29 30  1  0  0  0  0
 30 31  1  0  0  0  0
 31 32  1  0  0  0  0
 32 33  1  0  0  0  0
 33 34  1  0  0  0  0
 34 29  1  0  0  0  0
 31 35  1  1  0  0  0
 33 36  1  1  0  0  0
 34 37  1  6  0  0  0
 32 38  1  6  0  0  0
 35 39  1  0  0  0  0
 40 20  1  1  0  0  0
 40 41  1  0  0  0  0
 41 42  1  0  0  0  0
 42 43  1  0  0  0  0
 43 44  1  0  0  0  0
 44 45  1  0  0  0  0
 45 40  1  0  0  0  0
 44 46  1  1  0  0  0
 43 47  1  6  0  0  0
 45 48  1  6  0  0  0
 48 49  1  0  0  0  0
 49 50  2  0  0  0  0
 49 51  1  0  0  0  0
 46 52  1  0  0  0  0
 52 53  1  0  0  0  0
 52 54  2  0  0  0  0
 17 55  1  0  0  0  0
 55 56  1  6  0  0  0
 55 57  1  0  0  0  0
 57 58  1  0  0  0  0
 58 59  1  0  0  0  0
 59 60  1  1  0  0  0
 59 61  1  0  0  0  0
 61 62  1  0  0  0  0
 61 63  1  0  0  0  0
 61 64  1  0  0  0  0
M  END
>  <cdx:fragmentId>
5

$$$$
