300660.cdx
  Mrv1902 05222410212D          

 29 31  0  0  0  0            999 V2000
    5.2324   -6.9850    0.0000 C   0  0  0  0  0  0  0  0  0  0  0  0
    5.2324   -7.8100    0.0000 C   0  0  0  0  0  0  0  0  0  0  0  0
    5.9469   -8.2225    0.0000 C   0  0  0  0  0  0  0  0  0  0  0  0
    6.6613   -7.8100    0.0000 C   0  0  0  0  0  0  0  0  0  0  0  0
    6.6613   -6.9850    0.0000 C   0  0  0  0  0  0  0  0  0  0  0  0
    5.9469   -6.5725    0.0000 C   0  0  0  0  0  0  0  0  0  0  0  0
    5.9469   -9.0475    0.0000 O   0  0  0  0  0  0  0  0  0  0  0  0
    5.2324   -9.4600    0.0000 C   0  0  0  0  0  0  0  0  0  0  0  0
    7.4460   -8.0649    0.0000 O   0  0  0  0  0  0  0  0  0  0  0  0
    7.9309   -7.3975    0.0000 C   0  0  2  0  0  0  0  0  0  0  0  0
    7.4460   -6.7301    0.0000 C   0  0  2  0  0  0  0  0  0  0  0  0
    4.5179   -6.5725    0.0000 C   0  0  0  0  0  0  0  0  0  0  0  0
    3.8035   -6.9850    0.0000 C   0  0  0  0  0  0  0  0  0  0  0  0
    3.0890   -6.5725    0.0000 C   0  0  0  0  0  0  0  0  0  0  0  0
    7.7009   -5.9454    0.0000 C   0  0  0  0  0  0  0  0  0  0  0  0
    8.7559   -7.3975    0.0000 C   0  0  0  0  0  0  0  0  0  0  0  0
    9.1684   -8.1120    0.0000 C   0  0  0  0  0  0  0  0  0  0  0  0
    9.9934   -8.1120    0.0000 C   0  0  0  0  0  0  0  0  0  0  0  0
   10.4059   -7.3975    0.0000 C   0  0  0  0  0  0  0  0  0  0  0  0
    9.9934   -6.6830    0.0000 C   0  0  0  0  0  0  0  0  0  0  0  0
    9.1684   -6.6830    0.0000 C   0  0  0  0  0  0  0  0  0  0  0  0
   11.2309   -7.3975    0.0000 O   0  0  0  0  0  0  0  0  0  0  0  0
   10.4059   -8.8264    0.0000 O   0  0  0  0  0  0  0  0  0  0  0  0
    9.9934   -9.5409    0.0000 C   0  0  0  0  0  0  0  0  0  0  0  0
    8.4978   -5.7319    0.0000 O   0  0  0  0  0  0  0  0  0  0  0  0
    8.7113   -4.9350    0.0000 C   0  0  0  0  0  0  0  0  0  0  0  0
    8.1280   -4.3517    0.0000 C   0  0  0  0  0  0  0  0  0  0  0  0
    9.5082   -4.7215    0.0000 O   0  0  0  0  0  0  0  0  0  0  0  0
    2.3745   -6.9850    0.0000 O   0  0  0  0  0  0  0  0  0  0  0  0
  1  2  2  0  0  0  0
  2  3  1  0  0  0  0
  3  4  2  0  0  0  0
  4  5  1  0  0  0  0
  5  6  2  0  0  0  0
  6  1  1  0  0  0  0
  3  7  1  0  0  0  0
  7  8  1  0  0  0  0
  4  9  1  0  0  0  0
  9 10  1  0  0  0  0
 10 11  1  0  0  0  0
 11  5  1  0  0  0  0
  1 12  1  0  0  0  0
 12 13  2  0  0  0  0
 13 14  1  0  0  0  0
 11 15  1  1  0  0  0
 10 16  1  6  0  0  0
 16 17  2  0  0  0  0
 17 18  1  0  0  0  0
 18 19  2  0  0  0  0
 19 20  1  0  0  0  0
 20 21  2  0  0  0  0
 21 16  1  0  0  0  0
 19 22  1  0  0  0  0
 18 23  1  0  0  0  0
 23 24  1  0  0  0  0
 15 25  1  0  0  0  0
 25 26  1  0  0  0  0
 26 27  1  0  0  0  0
 26 28  2  0  0  0  0
 14 29  2  0  0  0  0
M  END
>  <cdx:fragmentId>
5

$$$$
