300642.cdx
  Mrv1902 05222410242D          

 15 16  0  0  0  0            999 V2000
    6.4434   -5.2530    0.0000 N   0  0  0  0  0  0  0  0  0  0  0  0
    6.9283   -5.9204    0.0000 C   0  0  0  0  0  0  0  0  0  0  0  0
    6.4434   -6.5879    0.0000 N   0  0  0  0  0  0  0  0  0  0  0  0
    5.6588   -6.3329    0.0000 C   0  0  0  0  0  0  0  0  0  0  0  0
    4.9443   -6.7454    0.0000 N   0  0  0  0  0  0  0  0  0  0  0  0
    4.2298   -6.3329    0.0000 C   0  0  0  0  0  0  0  0  0  0  0  0
    4.2298   -5.5079    0.0000 N   0  0  0  0  0  0  0  0  0  0  0  0
    4.9443   -5.0954    0.0000 C   0  0  0  0  0  0  0  0  0  0  0  0
    5.6588   -5.5079    0.0000 C   0  0  0  0  0  0  0  0  0  0  0  0
    4.9443   -4.2704    0.0000 S   0  0  0  0  0  0  0  0  0  0  0  0
    6.6983   -7.3725    0.0000 C   0  0  0  0  0  0  0  0  0  0  0  0
    7.5053   -7.5440    0.0000 C   0  0  0  0  0  0  0  0  0  0  0  0
    7.7602   -8.3286    0.0000 C   0  0  0  0  0  0  0  0  0  0  0  0
    8.5672   -8.5002    0.0000 C   0  0  0  0  0  0  0  0  0  0  0  0
    3.5153   -6.7454    0.0000 N   0  0  0  0  0  0  0  0  0  0  0  0
  1  2  2  0  0  0  0
  2  3  1  0  0  0  0
  3  4  1  0  0  0  0
  4  5  1  0  0  0  0
  5  6  1  0  0  0  0
  6  7  2  0  0  0  0
  7  8  1  0  0  0  0
  8  9  1  0  0  0  0
  1  9  1  0  0  0  0
  4  9  2  0  0  0  0
  8 10  2  0  0  0  0
 11 12  1  0  0  0  0
 12 13  1  0  0  0  0
 13 14  1  0  0  0  0
  3 11  1  0  0  0  0
  6 15  1  0  0  0  0
M  END
>  <cdx:fragmentId>
8870

$$$$
