300664.cdx
  Mrv1902 05222410222D          

 28 31  0  0  0  0            999 V2000
    8.1009   -7.6842    0.0000 C   0  0  1  0  0  0  0  0  0  0  0  0
    8.1009   -8.5092    0.0000 C   0  0  1  0  0  0  0  0  0  0  0  0
    7.3864   -8.9217    0.0000 C   0  0  0  0  0  0  0  0  0  0  0  0
    6.6720   -8.5092    0.0000 C   0  0  2  0  0  0  0  0  0  0  0  0
    5.9575   -8.9217    0.0000 C   0  0  1  0  0  0  0  0  0  0  0  0
    5.2430   -8.5092    0.0000 C   0  0  0  0  0  0  0  0  0  0  0  0
    5.2430   -7.6842    0.0000 C   0  0  0  0  0  0  0  0  0  0  0  0
    5.9575   -7.2717    0.0000 C   0  0  0  0  0  0  0  0  0  0  0  0
    6.6720   -7.6842    0.0000 C   0  0  1  0  0  0  0  0  0  0  0  0
    7.3864   -7.2717    0.0000 C   0  0  2  0  0  0  0  0  0  0  0  0
    7.3864   -6.4467    0.0000 C   0  0  0  0  0  0  0  0  0  0  0  0
    8.1009   -6.0342    0.0000 C   0  0  1  0  0  0  0  0  0  0  0  0
    8.4422   -6.5493    0.0000 C   0  0  0  0  0  0  0  0  0  0  0  0
    8.4422   -7.1681    0.0000 C   0  0  0  0  0  0  0  0  0  0  0  0
    8.8154   -7.2717    0.0000 C   0  0  1  0  0  0  0  0  0  0  0  0
    8.8154   -6.4467    0.0000 C   0  0  1  0  0  0  0  0  0  0  0  0
    8.8947   -7.8579    0.0000 O   0  0  0  0  0  0  0  0  0  0  0  0
    8.8944   -5.8593    0.0000 C   0  0  0  0  0  0  0  0  0  0  0  0
    6.6720   -6.8592    0.0000 C   0  0  0  0  0  0  0  0  0  0  0  0
    6.3700   -9.6362    0.0000 C   0  0  0  0  0  0  0  0  0  0  0  0
    5.5450   -9.6362    0.0000 C   0  0  0  0  0  0  0  0  0  0  0  0
    9.5298   -6.0342    0.0000 O   0  0  0  0  0  0  0  0  0  0  0  0
    9.5298   -7.6842    0.0000 O   0  0  0  0  0  0  0  0  0  0  0  0
    8.8154   -8.9217    0.0000 O   0  0  0  0  0  0  0  0  0  0  0  0
    6.6720   -9.3342    0.0000 H   0  0  0  0  0  0  0  0  0  0  0  0
    7.3864   -8.0967    0.0000 H   0  0  0  0  0  0  0  0  0  0  0  0
    8.1009   -5.2092    0.0000 H   0  0  0  0  0  0  0  0  0  0  0  0
    5.9575  -10.3507    0.0000 O   0  0  0  0  0  0  0  0  0  0  0  0
  1  2  1  0  0  0  0
  2  3  1  0  0  0  0
  3  4  1  0  0  0  0
  4  5  1  0  0  0  0
  5  6  1  0  0  0  0
  6  7  1  0  0  0  0
  7  8  1  0  0  0  0
  8  9  1  0  0  0  0
  9 10  1  0  0  0  0
 10 11  1  0  0  0  0
 11 12  1  0  0  0  0
 12 13  1  0  0  0  0
 13 14  1  0  0  0  0
 15 16  1  0  0  0  0
  1 14  1  1  0  0  0
  1 15  1  0  0  0  0
 16 12  1  0  0  0  0
  1 10  1  0  0  0  0
  4  9  1  0  0  0  0
 14 17  2  0  0  0  0
 13 18  2  0  0  0  0
  9 19  1  6  0  0  0
  5 20  1  6  0  0  0
  5 21  1  1  0  0  0
 16 22  1  6  0  0  0
 15 23  1  1  0  0  0
  2 24  1  6  0  0  0
  4 25  1  1  0  0  0
 10 26  1  1  0  0  0
 12 27  1  1  0  0  0
 21 28  1  0  0  0  0
M  END
>  <cdx:fragmentId>
1771

$$$$
