300622.cdx
  Mrv1902 05222410262D          

 19 21  0  0  0  0            999 V2000
    7.9631   -8.0169    0.0000 N   0  0  0  0  0  0  0  0  0  0  0  0
    8.6776   -7.6044    0.0000 C   0  0  0  0  0  0  0  0  0  0  0  0
    8.6776   -6.7794    0.0000 C   0  0  0  0  0  0  0  0  0  0  0  0
    7.9631   -6.3669    0.0000 C   0  0  0  0  0  0  0  0  0  0  0  0
    7.2487   -6.7794    0.0000 C   0  0  0  0  0  0  0  0  0  0  0  0
    6.5342   -6.3669    0.0000 C   0  0  0  0  0  0  0  0  0  0  0  0
    5.8197   -6.7794    0.0000 C   0  0  0  0  0  0  0  0  0  0  0  0
    5.8197   -7.6044    0.0000 C   0  0  0  0  0  0  0  0  0  0  0  0
    6.5342   -8.0169    0.0000 C   0  0  0  0  0  0  0  0  0  0  0  0
    7.2487   -7.6044    0.0000 C   0  0  0  0  0  0  0  0  0  0  0  0
    9.3921   -6.3669    0.0000 C   0  0  0  0  0  0  0  0  0  0  0  0
    9.3921   -5.5419    0.0000 C   0  0  0  0  0  0  0  0  0  0  0  0
    8.6776   -5.1294    0.0000 C   0  0  0  0  0  0  0  0  0  0  0  0
    7.9631   -5.5419    0.0000 O   0  0  0  0  0  0  0  0  0  0  0  0
    9.3921   -8.0169    0.0000 O   0  0  0  0  0  0  0  0  0  0  0  0
    8.2651   -4.4149    0.0000 C   0  0  0  0  0  0  0  0  0  0  0  0
    9.0901   -4.4149    0.0000 C   0  0  0  0  0  0  0  0  0  0  0  0
    6.5342   -8.8419    0.0000 O   0  0  0  0  0  0  0  0  0  0  0  0
    5.8197   -9.2544    0.0000 C   0  0  0  0  0  0  0  0  0  0  0  0
  1  2  1  0  0  0  0
  2  3  1  0  0  0  0
  3  4  2  0  0  0  0
  4  5  1  0  0  0  0
  5  6  1  0  0  0  0
  6  7  2  0  0  0  0
  7  8  1  0  0  0  0
  8  9  2  0  0  0  0
  9 10  1  0  0  0  0
  1 10  1  0  0  0  0
  5 10  2  0  0  0  0
 11 12  2  0  0  0  0
 12 13  1  0  0  0  0
 13 14  1  0  0  0  0
  3 11  1  0  0  0  0
  4 14  1  0  0  0  0
  2 15  2  0  0  0  0
 13 16  1  0  0  0  0
 13 17  1  0  0  0  0
 18 19  1  0  0  0  0
  9 18  1  0  0  0  0
M  END
>  <cdx:fragmentId>
7564

$$$$
