300651.cdx
  Mrv1902 05222410252D          

  8  7  0  0  0  0            999 V2000
    6.7230   -6.9596    0.0000 C   0  0  0  0  0  0  0  0  0  0  0  0
    6.0085   -6.5471    0.0000 C   0  0  0  0  0  0  0  0  0  0  0  0
    5.2940   -6.1346    0.0000 C   0  0  0  0  0  0  0  0  0  0  0  0
    4.5795   -5.7221    0.0000 C   0  0  0  0  0  0  0  0  0  0  0  0
    6.7230   -7.7846    0.0000 O   0  0  0  0  0  0  0  0  0  0  0  0
    7.4374   -6.5471    0.0000 O   0  0  0  0  0  0  0  0  0  0  0  0
    4.5795   -4.8971    0.0000 O   0  0  0  0  0  0  0  0  0  0  0  0
    3.8651   -6.1346    0.0000 O   0  0  0  0  0  0  0  0  0  0  0  0
  1  2  1  0  0  0  0
  2  3  3  0  0  0  0
  3  4  1  0  0  0  0
  1  5  2  0  0  0  0
  1  6  1  0  0  0  0
  4  7  2  0  0  0  0
  4  8  1  0  0  0  0
M  END
>  <cdx:fragmentId>
5

$$$$
