300625.cdx
  Mrv1902 05222410272D          

 27 30  0  0  0  0            999 V2000
    7.1103   -6.0108    0.0000 O   0  0  0  0  0  0  0  0  0  0  0  0
    8.5392   -6.0108    0.0000 O   0  0  0  0  0  0  0  0  0  0  0  0
    7.8248   -5.5983    0.0000 C   0  0  2  0  0  0  0  0  0  0  0  0
    7.8248   -4.7733    0.0000 C   0  0  1  0  0  0  0  0  0  0  0  0
    8.5392   -4.3608    0.0000 C   0  0  2  0  0  0  0  0  0  0  0  0
    9.2537   -4.7733    0.0000 C   0  0  1  0  0  0  0  0  0  0  0  0
    9.2537   -5.5983    0.0000 C   0  0  1  0  0  0  0  0  0  0  0  0
    9.9682   -6.0108    0.0000 C   0  0  0  0  0  0  0  0  0  0  0  0
   10.6827   -5.5983    0.0000 O   0  0  0  0  0  0  0  0  0  0  0  0
    9.9682   -4.3608    0.0000 O   0  0  0  0  0  0  0  0  0  0  0  0
    8.5392   -3.5358    0.0000 O   0  0  0  0  0  0  0  0  0  0  0  0
    7.1103   -4.3608    0.0000 O   0  0  0  0  0  0  0  0  0  0  0  0
    7.1103   -9.3108    0.0000 O   0  0  0  0  0  0  0  0  0  0  0  0
    9.9682   -6.8358    0.0000 O   0  0  0  0  0  0  0  0  0  0  0  0
    5.1263   -7.6608    0.0000 C   0  0  0  0  0  0  0  0  0  0  0  0
    5.6112   -8.3283    0.0000 C   0  0  0  0  0  0  0  0  0  0  0  0
    5.6112   -6.9934    0.0000 O   0  0  0  0  0  0  0  0  0  0  0  0
    8.5392   -6.8358    0.0000 O   0  0  0  0  0  0  0  0  0  0  0  0
    7.8248   -7.2483    0.0000 C   0  0  0  0  0  0  0  0  0  0  0  0
    7.1103   -6.8358    0.0000 C   0  0  0  0  0  0  0  0  0  0  0  0
    6.3958   -7.2483    0.0000 C   0  0  0  0  0  0  0  0  0  0  0  0
    6.3958   -8.0733    0.0000 C   0  0  0  0  0  0  0  0  0  0  0  0
    7.1103   -8.4858    0.0000 C   0  0  0  0  0  0  0  0  0  0  0  0
    7.8248   -8.0733    0.0000 C   0  0  0  0  0  0  0  0  0  0  0  0
    8.5392   -8.4858    0.0000 C   0  0  0  0  0  0  0  0  0  0  0  0
    9.2537   -8.0733    0.0000 C   0  0  0  0  0  0  0  0  0  0  0  0
    9.2537   -7.2483    0.0000 C   0  0  0  0  0  0  0  0  0  0  0  0
 23 13  1  0  0  0  0
 20  1  1  0  0  0  0
 27 14  2  0  0  0  0
 21 17  1  0  0  0  0
 22 16  1  0  0  0  0
 17 15  1  0  0  0  0
 16 15  2  0  0  0  0
 27 18  1  0  0  0  0
 19 18  1  0  0  0  0
 24 19  2  0  0  0  0
 20 19  1  0  0  0  0
 21 20  2  0  0  0  0
 22 21  1  0  0  0  0
 23 22  2  0  0  0  0
 24 23  1  0  0  0  0
 25 24  1  0  0  0  0
 26 25  2  0  0  0  0
 27 26  1  0  0  0  0
  2  3  1  0  0  0  0
  3  4  1  0  0  0  0
  4  5  1  0  0  0  0
  5  6  1  0  0  0  0
  6  7  1  0  0  0  0
  2  7  1  0  0  0  0
  8  9  1  0  0  0  0
  7  8  1  1  0  0  0
  6 10  1  6  0  0  0
  5 11  1  1  0  0  0
  4 12  1  6  0  0  0
  3  1  1  1  0  0  0
M  END
>  <cdx:fragmentId>
7786

$$$$
