300626.cdx
  Mrv1902 05222410282D          

 16 15  0  0  0  0            999 V2000
    2.2106   -4.8819    0.0000 C   0  0  0  0  0  0  0  0  0  0  0  0
    2.9250   -5.2944    0.0000 C   0  0  0  0  0  0  0  0  0  0  0  0
    3.6395   -4.8819    0.0000 C   0  0  0  0  0  0  0  0  0  0  0  0
    4.3540   -5.2944    0.0000 C   0  0  0  0  0  0  0  0  0  0  0  0
    5.0685   -4.8819    0.0000 C   0  0  0  0  0  0  0  0  0  0  0  0
    5.7829   -5.2944    0.0000 C   0  0  0  0  0  0  0  0  0  0  0  0
    6.4974   -4.8819    0.0000 C   0  0  0  0  0  0  0  0  0  0  0  0
    7.2119   -5.2944    0.0000 C   0  0  0  0  0  0  0  0  0  0  0  0
    7.9263   -4.8819    0.0000 C   0  0  0  0  0  0  0  0  0  0  0  0
    8.6408   -5.2944    0.0000 C   0  0  0  0  0  0  0  0  0  0  0  0
    9.3553   -4.8819    0.0000 C   0  0  0  0  0  0  0  0  0  0  0  0
   10.0698   -5.2944    0.0000 C   0  0  0  0  0  0  0  0  0  0  0  0
   10.7842   -4.8819    0.0000 C   0  0  0  0  0  0  0  0  0  0  0  0
   11.4987   -5.2944    0.0000 C   0  0  0  0  0  0  0  0  0  0  0  0
   12.2132   -4.8819    0.0000 C   0  0  0  0  0  0  0  0  0  0  0  0
    7.2119   -6.1194    0.0000 O   0  0  0  0  0  0  0  0  0  0  0  0
  1  2  1  0  0  0  0
  2  3  1  0  0  0  0
  3  4  1  0  0  0  0
  4  5  1  0  0  0  0
  5  6  1  0  0  0  0
  6  7  1  0  0  0  0
  7  8  1  0  0  0  0
  8  9  1  0  0  0  0
  9 10  1  0  0  0  0
 10 11  1  0  0  0  0
 11 12  1  0  0  0  0
 12 13  1  0  0  0  0
 13 14  1  0  0  0  0
 14 15  1  0  0  0  0
  8 16  2  0  0  0  0
M  END
>  <cdx:fragmentId>
7874

$$$$
