300613.cdx
  Mrv1902 05222410202D          

 34 37  0  0  0  0            999 V2000
    9.1312   -7.4335    0.0000 C   0  0  0  0  0  0  0  0  0  0  0  0
    9.1312   -8.2585    0.0000 C   0  0  0  0  0  0  0  0  0  0  0  0
    8.4167   -8.6710    0.0000 C   0  0  0  0  0  0  0  0  0  0  0  0
    8.4167   -9.4960    0.0000 O   0  0  0  0  0  0  0  0  0  0  0  0
    7.7022   -8.2585    0.0000 C   0  0  0  0  0  0  0  0  0  0  0  0
    6.9878   -8.6710    0.0000 C   0  0  0  0  0  0  0  0  0  0  0  0
    6.2733   -8.2585    0.0000 C   0  0  0  0  0  0  0  0  0  0  0  0
    6.2733   -7.4335    0.0000 C   0  0  0  0  0  0  0  0  0  0  0  0
    6.9878   -7.0210    0.0000 C   0  0  0  0  0  0  0  0  0  0  0  0
    7.7022   -7.4335    0.0000 C   0  0  0  0  0  0  0  0  0  0  0  0
    8.4167   -7.0210    0.0000 O   0  0  0  0  0  0  0  0  0  0  0  0
    9.8456   -8.6710    0.0000 C   0  0  0  0  0  0  0  0  0  0  0  0
   10.5601   -8.2585    0.0000 C   0  0  0  0  0  0  0  0  0  0  0  0
   11.2746   -8.6710    0.0000 C   0  0  0  0  0  0  0  0  0  0  0  0
   11.2746   -9.4960    0.0000 C   0  0  0  0  0  0  0  0  0  0  0  0
   10.5601   -9.9085    0.0000 C   0  0  0  0  0  0  0  0  0  0  0  0
    9.8456   -9.4960    0.0000 C   0  0  0  0  0  0  0  0  0  0  0  0
   11.9890   -9.9085    0.0000 O   0  0  0  0  0  0  0  0  0  0  0  0
   12.7035   -9.4960    0.0000 C   0  0  0  0  0  0  0  0  0  0  0  0
   11.9890   -8.2585    0.0000 O   0  0  0  0  0  0  0  0  0  0  0  0
   12.7035   -8.6710    0.0000 C   0  0  0  0  0  0  0  0  0  0  0  0
   10.5601   -7.4335    0.0000 O   0  0  0  0  0  0  0  0  0  0  0  0
    5.5588   -7.0210    0.0000 O   0  0  0  0  0  0  0  0  0  0  0  0
    4.8443   -7.4335    0.0000 C   0  0  1  0  0  0  0  0  0  0  0  0
    4.8443   -8.2585    0.0000 C   0  0  2  0  0  0  0  0  0  0  0  0
    5.5588   -8.6710    0.0000 O   0  0  0  0  0  0  0  0  0  0  0  0
    4.1299   -8.6710    0.0000 C   0  0  1  0  0  0  0  0  0  0  0  0
    4.1299   -9.4960    0.0000 O   0  0  0  0  0  0  0  0  0  0  0  0
    3.4154   -8.2585    0.0000 C   0  0  2  0  0  0  0  0  0  0  0  0
    2.7009   -8.6710    0.0000 O   0  0  0  0  0  0  0  0  0  0  0  0
    3.4154   -7.4335    0.0000 C   0  0  2  0  0  0  0  0  0  0  0  0
    4.1299   -7.0210    0.0000 O   0  0  0  0  0  0  0  0  0  0  0  0
    2.7009   -7.0210    0.0000 C   0  0  0  0  0  0  0  0  0  0  0  0
    1.9865   -7.4335    0.0000 O   0  0  0  0  0  0  0  0  0  0  0  0
  1  2  2  0  0  0  0
  2  3  1  0  0  0  0
  3  4  2  0  0  0  0
  3  5  1  0  0  0  0
  5  6  1  0  0  0  0
  6  7  2  0  0  0  0
  7  8  1  0  0  0  0
  8  9  2  0  0  0  0
  9 10  1  0  0  0  0
  5 10  2  0  0  0  0
 10 11  1  0  0  0  0
  1 11  1  0  0  0  0
  2 12  1  0  0  0  0
 12 13  1  0  0  0  0
 13 14  2  0  0  0  0
 14 15  1  0  0  0  0
 15 16  2  0  0  0  0
 16 17  1  0  0  0  0
 12 17  2  0  0  0  0
 18 19  1  0  0  0  0
 15 18  1  0  0  0  0
 20 21  1  0  0  0  0
 14 20  1  0  0  0  0
 13 22  1  0  0  0  0
 24 23  1  1  0  0  0
 24 25  1  0  0  0  0
 25 26  1  6  0  0  0
 25 27  1  0  0  0  0
 27 28  1  1  0  0  0
 27 29  1  0  0  0  0
 29 30  1  6  0  0  0
 29 31  1  0  0  0  0
 31 32  1  0  0  0  0
 31 33  1  1  0  0  0
 33 34  1  0  0  0  0
 24 32  1  0  0  0  0
  8 23  1  0  0  0  0
M  END
>  <cdx:fragmentId>
5

$$$$
