300644.cdx
  Mrv1902 05222410262D          

 21 21  0  0  0  0            999 V2000
    5.2332   -5.9283    0.0000 C   0  0  0  0  0  0  0  0  0  0  0  0
    4.5187   -6.3408    0.0000 C   0  0  0  0  0  0  0  0  0  0  0  0
    5.2332   -5.1033    0.0000 O   0  0  0  0  0  0  0  0  0  0  0  0
    5.9476   -6.3408    0.0000 O   0  0  0  0  0  0  0  0  0  0  0  0
    3.8042   -5.9283    0.0000 O   0  0  0  0  0  0  0  0  0  0  0  0
    3.0898   -6.3408    0.0000 C   0  0  0  0  0  0  0  0  0  0  0  0
    3.0898   -7.1658    0.0000 C   0  0  0  0  0  0  0  0  0  0  0  0
    2.3753   -7.5783    0.0000 C   0  0  0  0  0  0  0  0  0  0  0  0
    1.6608   -7.1658    0.0000 C   0  0  0  0  0  0  0  0  0  0  0  0
    1.6608   -6.3408    0.0000 C   0  0  0  0  0  0  0  0  0  0  0  0
    2.3753   -5.9283    0.0000 C   0  0  0  0  0  0  0  0  0  0  0  0
    0.9464   -7.5783    0.0000 Cl  0  0  0  0  0  0  0  0  0  0  0  0
    3.8042   -7.5783    0.0000 Cl  0  0  0  0  0  0  0  0  0  0  0  0
    6.6621   -5.9283    0.0000 C   0  0  0  0  0  0  0  0  0  0  0  0
    7.3766   -6.3408    0.0000 C   0  0  0  0  0  0  0  0  0  0  0  0
    8.0911   -5.9283    0.0000 C   0  0  0  0  0  0  0  0  0  0  0  0
    8.8055   -6.3408    0.0000 C   0  0  0  0  0  0  0  0  0  0  0  0
    9.5200   -5.9283    0.0000 C   0  0  0  0  0  0  0  0  0  0  0  0
   10.2345   -6.3408    0.0000 C   0  0  0  0  0  0  0  0  0  0  0  0
   10.9489   -5.9283    0.0000 C   0  0  0  0  0  0  0  0  0  0  0  0
   10.2345   -7.1658    0.0000 C   0  0  0  0  0  0  0  0  0  0  0  0
  1  2  1  0  0  0  0
  1  3  2  0  0  0  0
  1  4  1  0  0  0  0
  6  7  1  0  0  0  0
  7  8  2  0  0  0  0
  8  9  1  0  0  0  0
  9 10  2  0  0  0  0
 10 11  1  0  0  0  0
  6 11  2  0  0  0  0
  5  6  1  0  0  0  0
  9 12  1  0  0  0  0
  7 13  1  0  0  0  0
  2  5  1  0  0  0  0
 14 15  1  0  0  0  0
 15 16  1  0  0  0  0
 16 17  1  0  0  0  0
 17 18  1  0  0  0  0
 18 19  1  0  0  0  0
 19 20  1  0  0  0  0
 19 21  1  0  0  0  0
  4 14  1  0  0  0  0
M  END
>  <cdx:fragmentId>
8965

$$$$
