300693.cdx
  Mrv1902 05222410252D          

 23 26  0  0  0  0            999 V2000
    4.0463   -6.4914    0.0000 C   0  0  0  0  0  0  0  0  0  0  0  0
    3.3318   -6.9039    0.0000 C   0  0  0  0  0  0  0  0  0  0  0  0
    3.3318   -7.7289    0.0000 C   0  0  0  0  0  0  0  0  0  0  0  0
    4.0463   -8.1414    0.0000 C   0  0  0  0  0  0  0  0  0  0  0  0
    4.7607   -7.7289    0.0000 C   0  0  0  0  0  0  0  0  0  0  0  0
    5.4752   -8.1414    0.0000 C   0  0  0  0  0  0  0  0  0  0  0  0
    6.1897   -7.7289    0.0000 C   0  0  0  0  0  0  0  0  0  0  0  0
    6.1897   -6.9039    0.0000 C   0  0  1  0  0  0  0  0  0  0  0  0
    6.9042   -6.4914    0.0000 C   0  0  2  0  0  0  0  0  0  0  0  0
    7.6888   -6.7463    0.0000 C   0  0  0  0  0  0  0  0  0  0  0  0
    8.1737   -6.0789    0.0000 C   0  0  0  0  0  0  0  0  0  0  0  0
    7.6888   -5.4114    0.0000 C   0  0  0  0  0  0  0  0  0  0  0  0
    6.9042   -5.6664    0.0000 C   0  0  1  0  0  0  0  0  0  0  0  0
    6.1897   -5.2539    0.0000 C   0  0  0  0  0  0  0  0  0  0  0  0
    5.4752   -5.6664    0.0000 C   0  0  0  0  0  0  0  0  0  0  0  0
    5.4752   -6.4914    0.0000 C   0  0  2  0  0  0  0  0  0  0  0  0
    4.7607   -6.9039    0.0000 C   0  0  1  0  0  0  0  0  0  0  0  0
    7.9437   -4.6268    0.0000 O   0  0  0  0  0  0  0  0  0  0  0  0
    6.9904   -4.8459    0.0000 C   0  0  0  0  0  0  0  0  0  0  0  0
    4.7607   -6.0789    0.0000 C   0  0  0  0  0  0  0  0  0  0  0  0
    6.1897   -6.0789    0.0000 H   0  0  0  0  0  0  0  0  0  0  0  0
    5.4752   -7.3164    0.0000 H   0  0  0  0  0  0  0  0  0  0  0  0
    6.9042   -7.3164    0.0000 H   0  0  0  0  0  0  0  0  0  0  0  0
  1  2  1  0  0  0  0
  2  3  1  0  0  0  0
  3  4  1  0  0  0  0
  4  5  1  0  0  0  0
  5  6  1  0  0  0  0
  6  7  1  0  0  0  0
  7  8  1  0  0  0  0
  8  9  1  0  0  0  0
  9 10  1  0  0  0  0
 10 11  1  0  0  0  0
 11 12  1  0  0  0  0
 12 13  1  0  0  0  0
  9 13  1  0  0  0  0
 13 14  1  0  0  0  0
 14 15  1  0  0  0  0
 15 16  1  0  0  0  0
  8 16  1  0  0  0  0
 16 17  1  0  0  0  0
  5 17  1  0  0  0  0
  1 17  1  0  0  0  0
 12 18  2  0  0  0  0
 13 19  1  1  0  0  0
 17 20  1  1  0  0  0
  8 21  1  1  0  0  0
 16 22  1  6  0  0  0
  9 23  1  6  0  0  0
M  END
>  <cdx:fragmentId>
481

$$$$
