300667.cdx
  Mrv1902 05222410222D          

 12 11  0  0  0  0            999 V2000
    8.4414   -8.5416    0.0000 C   0  0  0  0  0  0  0  0  0  0  0  0
    9.1559   -8.9541    0.0000 N   0  0  0  0  0  0  0  0  0  0  0  0
    8.4414   -7.7166    0.0000 O   0  0  0  0  0  0  0  0  0  0  0  0
    7.7270   -8.9541    0.0000 O   0  0  0  0  0  0  0  0  0  0  0  0
    9.8704   -8.5416    0.0000 C   0  0  0  0  0  0  0  0  0  0  0  0
    7.0125   -8.5416    0.0000 N   0  0  0  0  0  0  0  0  0  0  0  0
    6.2980   -8.9541    0.0000 C   0  0  0  0  0  0  0  0  0  0  0  0
    5.5836   -8.5416    0.0000 C   0  0  0  0  0  0  0  0  0  0  0  0
    5.1711   -7.8271    0.0000 C   0  0  0  0  0  0  0  0  0  0  0  0
    4.8691   -8.9541    0.0000 S   0  0  0  0  0  0  0  0  0  0  0  0
    4.1546   -8.5416    0.0000 C   0  0  0  0  0  0  0  0  0  0  0  0
    5.9961   -7.8271    0.0000 C   0  0  0  0  0  0  0  0  0  0  0  0
  1  2  1  0  0  0  0
  1  3  2  0  0  0  0
  1  4  1  0  0  0  0
  2  5  1  0  0  0  0
  7  8  1  0  0  0  0
  8  9  1  0  0  0  0
 10 11  1  0  0  0  0
  8 10  1  0  0  0  0
  8 12  1  0  0  0  0
  6  7  2  0  0  0  0
  4  6  1  0  0  0  0
M  END
>  <cdx:fragmentId>
1936

$$$$
