300666.cdx
  Mrv1902 05222410222D          

 17 17  0  0  0  0            999 V2000
    5.4568   -9.3023    0.0000 C   0  0  0  0  0  0  0  0  0  0  0  0
    5.4507   -8.4773    0.0000 C   0  0  0  0  0  0  0  0  0  0  0  0
    6.1621   -8.0595    0.0000 C   0  0  0  0  0  0  0  0  0  0  0  0
    6.8796   -8.4667    0.0000 C   0  0  0  0  0  0  0  0  0  0  0  0
    6.8857   -9.2917    0.0000 C   0  0  0  0  0  0  0  0  0  0  0  0
    6.1743   -9.7095    0.0000 C   0  0  0  0  0  0  0  0  0  0  0  0
    4.7454   -9.7200    0.0000 O   0  0  0  0  0  0  0  0  0  0  0  0
    4.7332   -8.0701    0.0000 C   0  0  0  0  0  0  0  0  0  0  0  0
    4.0218   -8.4879    0.0000 O   0  0  0  0  0  0  0  0  0  0  0  0
    7.5910   -8.0490    0.0000 C   0  0  0  0  0  0  0  0  0  0  0  0
    8.3085   -8.4562    0.0000 C   0  0  0  0  0  0  0  0  0  0  0  0
    7.5849   -7.2240    0.0000 O   0  0  0  0  0  0  0  0  0  0  0  0
    9.0199   -8.0384    0.0000 N   0  0  0  0  0  0  0  0  0  0  0  0
    9.7374   -8.4456    0.0000 C   0  0  0  0  0  0  0  0  0  0  0  0
   10.1499   -7.7311    0.0000 C   0  0  0  0  0  0  0  0  0  0  0  0
   10.4549   -8.8528    0.0000 C   0  0  0  0  0  0  0  0  0  0  0  0
    9.3249   -9.1601    0.0000 C   0  0  0  0  0  0  0  0  0  0  0  0
  1  2  1  0  0  0  0
  2  3  2  0  0  0  0
  3  4  1  0  0  0  0
  4  5  2  0  0  0  0
  5  6  1  0  0  0  0
  1  6  2  0  0  0  0
  1  7  1  0  0  0  0
  8  9  1  0  0  0  0
  2  8  1  0  0  0  0
 10 11  1  0  0  0  0
 10 12  1  0  0  0  0
 14 15  1  0  0  0  0
 14 17  1  0  0  0  0
 14 16  1  0  0  0  0
 13 14  1  0  0  0  0
 11 13  1  0  0  0  0
  4 10  1  0  0  0  0
M  END
>  <cdx:fragmentId>
1871

$$$$
