300652.cdx
  Mrv1902 05222410242D          

  9  9  0  0  0  0            999 V2000
    6.2482   -6.5096    0.0000 N   0  0  0  0  0  0  0  0  0  0  0  0
    6.8002   -5.8965    0.0000 C   0  0  0  0  0  0  0  0  0  0  0  0
    7.5539   -6.2320    0.0000 C   0  0  0  0  0  0  0  0  0  0  0  0
    7.4677   -7.0525    0.0000 C   0  0  0  0  0  0  0  0  0  0  0  0
    6.6607   -7.2240    0.0000 C   0  0  0  0  0  0  0  0  0  0  0  0
    8.2684   -5.8195    0.0000 C   0  0  0  0  0  0  0  0  0  0  0  0
    8.2684   -4.9945    0.0000 O   0  0  0  0  0  0  0  0  0  0  0  0
    8.9828   -6.2320    0.0000 O   0  0  0  0  0  0  0  0  0  0  0  0
    5.4277   -6.4233    0.0000 C   0  0  0  0  0  0  0  0  0  0  0  0
  1  2  1  0  0  0  0
  2  3  1  0  0  0  0
  3  4  1  0  0  0  0
  4  5  1  0  0  0  0
  1  5  1  0  0  0  0
  6  7  2  0  0  0  0
  6  8  1  0  0  0  0
  3  6  1  0  0  0  0
  1  9  1  0  0  0  0
M  END
>  <cdx:fragmentId>
28

$$$$
