300678.cdx
  Mrv1902 05222410262D          

 10  9  0  0  0  0            999 V2000
    8.4718   -4.9417    0.0000 C   0  0  0  0  0  0  0  0  0  0  0  0
    7.7573   -5.3542    0.0000 C   0  0  2  0  0  0  0  0  0  0  0  0
    7.7573   -6.1792    0.0000 C   0  0  0  0  0  0  0  0  0  0  0  0
    8.4718   -4.1167    0.0000 O   0  0  0  0  0  0  0  0  0  0  0  0
    9.1862   -5.3542    0.0000 O   0  0  0  0  0  0  0  0  0  0  0  0
    8.4718   -6.5917    0.0000 S   0  0  0  0  0  0  0  0  0  0  0  0
    7.0428   -4.9417    0.0000 N   0  0  0  0  0  0  0  0  0  0  0  0
    6.3284   -5.3542    0.0000 C   0  0  0  0  0  0  0  0  0  0  0  0
    5.6139   -4.9417    0.0000 C   0  0  0  0  0  0  0  0  0  0  0  0
    4.8994   -5.3542    0.0000 C   0  0  0  0  0  0  0  0  0  0  0  0
  1  2  1  0  0  0  0
  2  3  1  0  0  0  0
  1  4  2  0  0  0  0
  1  5  1  0  0  0  0
  3  6  1  0  0  0  0
  8  9  1  0  0  0  0
  9 10  2  0  0  0  0
  7  8  1  0  0  0  0
  2  7  1  6  0  0  0
M  END
>  <cdx:fragmentId>
2619

$$$$
