300692.cdx
  Mrv1902 05222410252D          

 45 51  0  0  0  0            999 V2000
    8.4379   -7.3311    0.0000 O   0  0  0  0  0  0  0  0  0  0  0  0
    8.4278   -6.3204    0.0000 C   0  0  2  0  0  0  0  0  0  0  0  0
    9.1423   -5.9079    0.0000 C   0  0  0  0  0  0  0  0  0  0  0  0
    9.1423   -5.0829    0.0000 C   0  0  0  0  0  0  0  0  0  0  0  0
    8.4278   -4.6704    0.0000 C   0  0  1  0  0  0  0  0  0  0  0  0
    7.7134   -5.0829    0.0000 C   0  0  1  0  0  0  0  0  0  0  0  0
    7.7134   -5.9079    0.0000 C   0  0  2  0  0  0  0  0  0  0  0  0
    9.8568   -6.3204    0.0000 C   0  0  0  0  0  0  0  0  0  0  0  0
   10.5713   -5.9079    0.0000 C   0  0  0  0  0  0  0  0  0  0  0  0
   10.5713   -5.0829    0.0000 C   0  0  0  0  0  0  0  0  0  0  0  0
    9.8568   -4.6704    0.0000 O   0  0  0  0  0  0  0  0  0  0  0  0
    9.8568   -7.1454    0.0000 O   0  0  0  0  0  0  0  0  0  0  0  0
    6.9989   -6.3204    0.0000 O   0  0  0  0  0  0  0  0  0  0  0  0
    7.7134   -4.2579    0.0000 O   0  0  0  0  0  0  0  0  0  0  0  0
   11.2857   -4.6704    0.0000 C   0  0  0  0  0  0  0  0  0  0  0  0
   12.0002   -5.0829    0.0000 C   0  0  0  0  0  0  0  0  0  0  0  0
   12.7147   -4.6704    0.0000 C   0  0  0  0  0  0  0  0  0  0  0  0
   13.4291   -5.0829    0.0000 C   0  0  0  0  0  0  0  0  0  0  0  0
   14.1436   -4.6704    0.0000 C   0  0  0  0  0  0  0  0  0  0  0  0
   14.1436   -3.8454    0.0000 C   0  0  0  0  0  0  0  0  0  0  0  0
   13.4291   -3.4329    0.0000 C   0  0  0  0  0  0  0  0  0  0  0  0
   12.7147   -3.8454    0.0000 C   0  0  0  0  0  0  0  0  0  0  0  0
    7.7234   -7.7436    0.0000 C   0  0  0  0  0  0  0  0  0  0  0  0
    7.0090   -7.3311    0.0000 C   0  0  0  0  0  0  0  0  0  0  0  0
    6.2945   -7.7436    0.0000 C   0  0  0  0  0  0  0  0  0  0  0  0
    6.2945   -8.5686    0.0000 C   0  0  0  0  0  0  0  0  0  0  0  0
    7.0090   -8.9811    0.0000 C   0  0  0  0  0  0  0  0  0  0  0  0
    7.7234   -8.5686    0.0000 C   0  0  0  0  0  0  0  0  0  0  0  0
    8.4379   -8.9811    0.0000 O   0  0  0  0  0  0  0  0  0  0  0  0
    5.5800   -8.9811    0.0000 C   0  0  0  0  0  0  0  0  0  0  0  0
    4.8655   -8.5686    0.0000 C   0  0  0  0  0  0  0  0  0  0  0  0
    4.1511   -8.9811    0.0000 C   0  0  0  0  0  0  0  0  0  0  0  0
    3.4366   -8.5686    0.0000 O   0  0  0  0  0  0  0  0  0  0  0  0
    2.7221   -8.9811    0.0000 C   0  0  0  0  0  0  0  0  0  0  0  0
    2.7221   -9.8061    0.0000 C   0  0  0  0  0  0  0  0  0  0  0  0
    3.4366  -10.2186    0.0000 C   0  0  0  0  0  0  0  0  0  0  0  0
    4.1511   -9.8061    0.0000 C   0  0  0  0  0  0  0  0  0  0  0  0
    2.0077   -8.5686    0.0000 C   0  0  0  0  0  0  0  0  0  0  0  0
    1.2932   -8.9811    0.0000 C   0  0  0  0  0  0  0  0  0  0  0  0
    1.2932   -9.8061    0.0000 C   0  0  0  0  0  0  0  0  0  0  0  0
    2.0077  -10.2186    0.0000 C   0  0  0  0  0  0  0  0  0  0  0  0
    3.4366  -11.0436    0.0000 O   0  0  0  0  0  0  0  0  0  0  0  0
    0.5787   -8.5686    0.0000 O   0  0  0  0  0  0  0  0  0  0  0  0
    0.5787   -7.7436    0.0000 C   0  0  0  0  0  0  0  0  0  0  0  0
    8.4379   -9.8061    0.0000 C   0  0  0  0  0  0  0  0  0  0  0  0
  2  1  1  1  0  0  0
  2  3  1  0  0  0  0
  3  4  2  0  0  0  0
  4  5  1  0  0  0  0
  5  6  1  0  0  0  0
  6  7  1  0  0  0  0
  7  2  1  0  0  0  0
  3  8  1  0  0  0  0
  8  9  1  0  0  0  0
  9 10  2  0  0  0  0
 10 11  1  0  0  0  0
 11  4  1  0  0  0  0
  8 12  2  0  0  0  0
  7 13  1  1  0  0  0
  6 14  1  1  0  0  0
  5 14  1  1  0  0  0
 10 15  1  0  0  0  0
 15 16  1  0  0  0  0
 16 17  1  0  0  0  0
 17 18  2  0  0  0  0
 18 19  1  0  0  0  0
 19 20  2  0  0  0  0
 20 21  1  0  0  0  0
 21 22  2  0  0  0  0
 22 17  1  0  0  0  0
  1 23  1  0  0  0  0
 23 24  2  0  0  0  0
 24 25  1  0  0  0  0
 25 26  2  0  0  0  0
 26 27  1  0  0  0  0
 27 28  2  0  0  0  0
 28 23  1  0  0  0  0
 28 29  1  0  0  0  0
 26 30  1  0  0  0  0
 30 31  1  0  0  0  0
 31 32  1  0  0  0  0
 32 33  1  0  0  0  0
 33 34  1  0  0  0  0
 34 35  2  0  0  0  0
 35 36  1  0  0  0  0
 36 37  1  0  0  0  0
 37 32  2  0  0  0  0
 34 38  1  0  0  0  0
 38 39  2  0  0  0  0
 39 40  1  0  0  0  0
 40 41  2  0  0  0  0
 41 35  1  0  0  0  0
 36 42  2  0  0  0  0
 39 43  1  0  0  0  0
 43 44  1  0  0  0  0
 29 45  1  0  0  0  0
M  END
>  <cdx:fragmentId>
582

$$$$
