300661.cdx
  Mrv1902 05222410202D          

 43 48  0  0  0  0            999 V2000
    8.0942   -7.2943    0.0000 O   0  0  0  0  0  0  0  0  0  0  0  0
    6.6923   -4.8039    0.0000 O   0  0  0  0  0  0  0  0  0  0  0  0
    5.9554   -6.8584    0.0000 C   0  0  0  0  0  0  0  0  0  0  0  0
    5.9644   -6.0335    0.0000 C   0  0  0  0  0  0  0  0  0  0  0  0
    6.6833   -5.6288    0.0000 C   0  0  0  0  0  0  0  0  0  0  0  0
    7.3933   -6.0491    0.0000 C   0  0  0  0  0  0  0  0  0  0  0  0
    7.3843   -6.8740    0.0000 C   0  0  0  0  0  0  0  0  0  0  0  0
    6.6653   -7.2787    0.0000 C   0  0  0  0  0  0  0  0  0  0  0  0
    3.3763   -7.4904    0.0000 O   0  0  0  0  0  0  0  0  0  0  0  0
    4.8321   -5.0311    0.0000 O   0  0  0  0  0  0  0  0  0  0  0  0
    5.5241   -7.1013    0.0000 C   0  0  0  0  0  0  0  0  0  0  0  0
    5.5331   -6.2763    0.0000 C   0  0  0  0  0  0  0  0  0  0  0  0
    4.8231   -5.8560    0.0000 C   0  0  0  0  0  0  0  0  0  0  0  0
    4.1042   -6.2607    0.0000 C   0  0  0  0  0  0  0  0  0  0  0  0
    4.0952   -7.0857    0.0000 C   0  0  0  0  0  0  0  0  0  0  0  0
    4.8051   -7.5059    0.0000 C   0  0  0  0  0  0  0  0  0  0  0  0
   11.3601  -11.8941    0.0000 O   0  0  0  0  0  0  0  0  0  0  0  0
   11.3913   -9.0364    0.0000 O   0  0  0  0  0  0  0  0  0  0  0  0
   10.1461   -9.7373    0.0000 C   0  0  0  0  0  0  0  0  0  0  0  0
   10.9710   -9.7463    0.0000 C   0  0  0  0  0  0  0  0  0  0  0  0
   11.3757  -10.4652    0.0000 C   0  0  0  0  0  0  0  0  0  0  0  0
   10.9554  -11.1752    0.0000 C   0  0  0  0  0  0  0  0  0  0  0  0
   10.1305  -11.1662    0.0000 C   0  0  0  0  0  0  0  0  0  0  0  0
    9.7258  -10.4473    0.0000 C   0  0  0  0  0  0  0  0  0  0  0  0
    5.4791  -11.2260    0.0000 O   0  0  0  0  0  0  0  0  0  0  0  0
    6.9259   -9.5917    0.0000 C   0  0  0  0  0  0  0  0  0  0  0  0
    6.2070   -9.9964    0.0000 C   0  0  0  0  0  0  0  0  0  0  0  0
    6.1980  -10.8213    0.0000 C   0  0  0  0  0  0  0  0  0  0  0  0
    6.9079  -11.2416    0.0000 C   0  0  0  0  0  0  0  0  0  0  0  0
    7.6269  -10.8369    0.0000 C   0  0  0  0  0  0  0  0  0  0  0  0
    7.6359  -10.0120    0.0000 C   0  0  0  0  0  0  0  0  0  0  0  0
    8.4232   -9.7656    0.0000 C   0  0  0  0  0  0  0  0  0  0  0  0
    8.9008  -10.4383    0.0000 C   0  0  0  0  0  0  0  0  0  0  0  0
    8.4087  -11.1004    0.0000 O   0  0  0  0  0  0  0  0  0  0  0  0
    3.3493   -9.9652    0.0000 C   0  0  0  0  0  0  0  0  0  0  0  0
    4.7961   -8.3309    0.0000 C   0  0  1  0  0  0  0  0  0  0  0  0
    4.0772   -8.7356    0.0000 C   0  0  0  0  0  0  0  0  0  0  0  0
    4.0682   -9.5605    0.0000 C   0  0  0  0  0  0  0  0  0  0  0  0
    4.7782   -9.9808    0.0000 C   0  0  0  0  0  0  0  0  0  0  0  0
    5.4971   -9.5761    0.0000 C   0  0  2  0  0  0  0  0  0  0  0  0
    5.5061   -8.7512    0.0000 C   0  0  2  0  0  0  0  0  0  0  0  0
    7.3663   -8.5239    0.0000 O   0  0  0  0  0  0  0  0  0  0  0  0
    6.6564   -8.1037    0.0000 C   0  0  0  0  0  0  0  0  0  0  0  0
 43  8  1  0  0  0  0
  7  1  1  0  0  0  0
  5  2  1  0  0  0  0
  8  3  2  0  0  0  0
  4  3  1  0  0  0  0
  5  4  2  0  0  0  0
  6  5  1  0  0  0  0
  7  6  2  0  0  0  0
  8  7  1  0  0  0  0
 41 43  1  1  0  0  0
 36 16  1  6  0  0  0
 15  9  1  0  0  0  0
 13 10  1  0  0  0  0
 16 11  2  0  0  0  0
 12 11  1  0  0  0  0
 13 12  2  0  0  0  0
 14 13  1  0  0  0  0
 15 14  2  0  0  0  0
 16 15  1  0  0  0  0
 40 27  1  6  0  0  0
 33 24  1  0  0  0  0
 22 17  1  0  0  0  0
 20 18  1  0  0  0  0
 24 19  2  0  0  0  0
 20 19  1  0  0  0  0
 21 20  2  0  0  0  0
 22 21  1  0  0  0  0
 23 22  2  0  0  0  0
 24 23  1  0  0  0  0
 28 25  1  0  0  0  0
 30 29  2  0  0  0  0
 31 26  2  0  0  0  0
 27 26  1  0  0  0  0
 28 27  2  0  0  0  0
 29 28  1  0  0  0  0
 34 30  1  0  0  0  0
 31 30  1  0  0  0  0
 32 31  1  0  0  0  0
 33 32  2  0  0  0  0
 34 33  1  0  0  0  0
 38 35  1  0  0  0  0
 41 36  1  0  0  0  0
 37 36  1  0  0  0  0
 38 37  1  0  0  0  0
 39 38  2  0  0  0  0
 40 39  1  0  0  0  0
 41 40  1  0  0  0  0
 43 42  2  0  0  0  0
M  END
>  <cdx:fragmentId>
1085

$$$$
