300647.cdx
  Mrv1902 05222410252D          

 15 16  0  0  0  0            999 V2000
    7.6265   -5.7733    0.0000 C   0  0  0  0  0  0  0  0  0  0  0  0
    8.3410   -5.3608    0.0000 C   0  0  0  0  0  0  0  0  0  0  0  0
    7.6265   -6.5983    0.0000 O   0  0  0  0  0  0  0  0  0  0  0  0
    6.9120   -5.3608    0.0000 O   0  0  0  0  0  0  0  0  0  0  0  0
    5.4831   -5.3608    0.0000 C   0  0  0  0  0  0  0  0  0  0  0  0
    6.1975   -5.7733    0.0000 C   0  0  0  0  0  0  0  0  0  0  0  0
    6.1975   -6.5983    0.0000 C   0  0  0  0  0  0  0  0  0  0  0  0
    5.4831   -7.0108    0.0000 C   0  0  0  0  0  0  0  0  0  0  0  0
    4.7686   -6.5983    0.0000 C   0  0  0  0  0  0  0  0  0  0  0  0
    4.0541   -7.0108    0.0000 C   0  0  0  0  0  0  0  0  0  0  0  0
    3.3397   -6.5983    0.0000 C   0  0  0  0  0  0  0  0  0  0  0  0
    3.3397   -5.7733    0.0000 C   0  0  0  0  0  0  0  0  0  0  0  0
    4.0541   -5.3608    0.0000 C   0  0  0  0  0  0  0  0  0  0  0  0
    4.7686   -5.7733    0.0000 C   0  0  0  0  0  0  0  0  0  0  0  0
    4.7686   -7.4233    0.0000 C   0  0  0  0  0  0  0  0  0  0  0  0
  1  2  1  0  0  0  0
  1  3  2  0  0  0  0
  1  4  1  0  0  0  0
  5  6  1  0  0  0  0
  6  7  1  0  0  0  0
  7  8  1  0  0  0  0
  8  9  1  0  0  0  0
  9 10  1  0  0  0  0
 10 11  1  0  0  0  0
 11 12  1  0  0  0  0
 12 13  1  0  0  0  0
 13 14  2  0  0  0  0
  5 14  1  0  0  0  0
  9 14  1  0  0  0  0
  9 15  1  0  0  0  0
  4  6  1  0  0  0  0
M  END
>  <cdx:fragmentId>
9147

$$$$
