300685.cdx
  Mrv1902 05222410242D          

  8  7  0  0  0  0            999 V2000
    7.5035   -6.5706    0.0000 N   0  0  0  0  0  0  0  0  0  0  0  0
    6.7890   -6.1581    0.0000 O   0  0  0  0  0  0  0  0  0  0  0  0
    8.2180   -6.1581    0.0000 O   0  0  0  0  0  0  0  0  0  0  0  0
    6.0746   -6.5706    0.0000 C   0  0  0  0  0  0  0  0  0  0  0  0
    5.3601   -6.1581    0.0000 C   0  0  0  0  0  0  0  0  0  0  0  0
    4.6456   -6.5706    0.0000 C   0  0  0  0  0  0  0  0  0  0  0  0
    3.9312   -6.1581    0.0000 C   0  0  0  0  0  0  0  0  0  0  0  0
    3.2167   -6.5706    0.0000 C   0  0  0  0  0  0  0  0  0  0  0  0
  1  2  1  0  0  0  0
  1  3  2  0  0  0  0
  4  5  1  0  0  0  0
  5  6  1  0  0  0  0
  6  7  1  0  0  0  0
  7  8  1  0  0  0  0
  2  4  1  0  0  0  0
M  END
>  <cdx:fragmentId>
80

$$$$
