300649.cdx
  Mrv1902 05222410202D          

 12 12  0  0  0  0            999 V2000
    7.2658   -5.9283    0.0000 C   0  0  0  0  0  0  0  0  0  0  0  0
    7.9803   -6.3408    0.0000 C   0  0  0  0  0  0  0  0  0  0  0  0
    6.5513   -6.3408    0.0000 C   0  0  0  0  0  0  0  0  0  0  0  0
    5.8369   -5.9283    0.0000 C   0  0  0  0  0  0  0  0  0  0  0  0
    5.1224   -6.3408    0.0000 C   0  0  0  0  0  0  0  0  0  0  0  0
    5.1224   -7.1658    0.0000 C   0  0  0  0  0  0  0  0  0  0  0  0
    5.8369   -7.5783    0.0000 C   0  0  0  0  0  0  0  0  0  0  0  0
    6.5513   -7.1658    0.0000 C   0  0  0  0  0  0  0  0  0  0  0  0
    4.4079   -7.5783    0.0000 O   0  0  0  0  0  0  0  0  0  0  0  0
    3.6935   -7.1658    0.0000 C   0  0  0  0  0  0  0  0  0  0  0  0
    4.4079   -5.9283    0.0000 O   0  0  0  0  0  0  0  0  0  0  0  0
    7.2658   -5.1033    0.0000 O   0  0  0  0  0  0  0  0  0  0  0  0
  1  2  1  0  0  0  0
  3  4  1  0  0  0  0
  4  5  2  0  0  0  0
  5  6  1  0  0  0  0
  6  7  2  0  0  0  0
  7  8  1  0  0  0  0
  3  8  2  0  0  0  0
  9 10  1  0  0  0  0
  6  9  1  0  0  0  0
  5 11  1  0  0  0  0
  1  3  1  0  0  0  0
  1 12  2  0  0  0  0
M  END
>  <cdx:fragmentId>
9240

$$$$
