300629.cdx
  Mrv1902 05222410182D          

 25 28  0  0  0  0            999 V2000
    7.6643   -5.2095    0.0000 C   0  0  0  0  0  0  0  0  0  0  0  0
    8.3787   -4.7970    0.0000 C   0  0  0  0  0  0  0  0  0  0  0  0
    7.6643   -6.0345    0.0000 O   0  0  0  0  0  0  0  0  0  0  0  0
    6.9498   -4.7970    0.0000 O   0  0  0  0  0  0  0  0  0  0  0  0
    4.7308   -6.1346    0.0000 C   0  0  2  0  0  0  0  0  0  0  0  0
    5.4453   -5.7221    0.0000 C   0  0  2  0  0  0  0  0  0  0  0  0
    5.4445   -4.8971    0.0000 C   0  0  2  0  0  0  0  0  0  0  0  0
    4.7299   -4.4848    0.0000 C   0  0  0  0  0  0  0  0  0  0  0  0
    4.0153   -4.8971    0.0000 C   0  0  0  0  0  0  0  0  0  0  0  0
    4.0164   -5.7221    0.0000 N   0  0  0  0  0  0  0  0  0  0  0  0
    3.3019   -6.1346    0.0000 C   0  0  0  0  0  0  0  0  0  0  0  0
    3.3019   -6.9596    0.0000 C   0  0  0  0  0  0  0  0  0  0  0  0
    4.0164   -7.3721    0.0000 C   0  0  0  0  0  0  0  0  0  0  0  0
    4.7308   -6.9596    0.0000 C   0  0  2  0  0  0  0  0  0  0  0  0
    5.4453   -7.3721    0.0000 C   0  0  0  0  0  0  0  0  0  0  0  0
    6.1598   -6.9596    0.0000 C   0  0  0  0  0  0  0  0  0  0  0  0
    6.1598   -6.1346    0.0000 C   0  0  1  0  0  0  0  0  0  0  0  0
    6.2353   -5.2095    0.0000 C   0  0  2  0  0  0  0  0  0  0  0  0
    5.4444   -4.7238    0.0000 C   0  0  0  0  0  0  0  0  0  0  0  0
    4.6536   -5.2095    0.0000 C   0  0  0  0  0  0  0  0  0  0  0  0
    5.4453   -8.1971    0.0000 O   0  0  0  0  0  0  0  0  0  0  0  0
    6.1590   -4.4846    0.0000 O   0  0  0  0  0  0  0  0  0  0  0  0
    5.4453   -6.5471    0.0000 H   0  0  0  0  0  0  0  0  0  0  0  0
    4.7308   -7.7846    0.0000 H   0  0  0  0  0  0  0  0  0  0  0  0
    6.9848   -6.1346    0.0000 H   0  0  0  0  0  0  0  0  0  0  0  0
  1  2  1  0  0  0  0
  1  3  2  0  0  0  0
  1  4  1  0  0  0  0
  5  6  1  0  0  0  0
  6  7  1  0  0  0  0
  7  8  1  0  0  0  0
  8  9  1  0  0  0  0
  9 10  1  0  0  0  0
 10 11  1  0  0  0  0
 11 12  1  0  0  0  0
 12 13  1  0  0  0  0
 13 14  1  0  0  0  0
 14 15  1  0  0  0  0
 15 16  1  0  0  0  0
 16 17  1  0  0  0  0
 17 18  1  0  0  0  0
 18 19  1  0  0  0  0
 19 20  1  0  0  0  0
  5 20  1  6  0  0  0
  5 14  1  0  0  0  0
  5 10  1  0  0  0  0
  6 17  1  0  0  0  0
 15 21  2  0  0  0  0
  7 22  1  6  0  0  0
 18  4  1  6  0  0  0
  6 23  1  1  0  0  0
 14 24  1  6  0  0  0
 17 25  1  1  0  0  0
M  END
>  <cdx:fragmentId>
8043

$$$$
