300680.cdx
  Mrv1902 05222410242D          

 17 18  0  0  0  0            999 V2000
    6.5141  -14.1267    0.0000 C   0  0  0  0  0  0  0  0  0  0  0  0
    6.5141  -14.9517    0.0000 C   0  0  0  0  0  0  0  0  0  0  0  0
    5.7997  -15.3642    0.0000 C   0  0  0  0  0  0  0  0  0  0  0  0
    5.0852  -14.9517    0.0000 C   0  0  0  0  0  0  0  0  0  0  0  0
    4.3707  -15.3642    0.0000 C   0  0  0  0  0  0  0  0  0  0  0  0
    3.6563  -14.9517    0.0000 C   0  0  0  0  0  0  0  0  0  0  0  0
    3.6563  -14.1267    0.0000 C   0  0  0  0  0  0  0  0  0  0  0  0
    4.3707  -13.7142    0.0000 C   0  0  0  0  0  0  0  0  0  0  0  0
    5.0852  -14.1267    0.0000 C   0  0  0  0  0  0  0  0  0  0  0  0
    5.7997  -13.7142    0.0000 O   0  0  0  0  0  0  0  0  0  0  0  0
    5.7997  -16.1892    0.0000 O   0  0  0  0  0  0  0  0  0  0  0  0
    7.2286  -13.7142    0.0000 C   0  0  0  0  0  0  0  0  0  0  0  0
    7.9431  -14.1267    0.0000 C   0  0  0  0  0  0  0  0  0  0  0  0
    8.6575  -13.7142    0.0000 C   0  0  0  0  0  0  0  0  0  0  0  0
    7.9431  -14.9517    0.0000 O   0  0  0  0  0  0  0  0  0  0  0  0
    4.3707  -16.1892    0.0000 C   0  0  0  0  0  0  0  0  0  0  0  0
    2.9418  -13.7142    0.0000 O   0  0  0  0  0  0  0  0  0  0  0  0
  1  2  2  0  0  0  0
  2  3  1  0  0  0  0
  3  4  1  0  0  0  0
  4  5  1  0  0  0  0
  5  6  2  0  0  0  0
  6  7  1  0  0  0  0
  7  8  2  0  0  0  0
  8  9  1  0  0  0  0
  4  9  2  0  0  0  0
  9 10  1  0  0  0  0
  1 10  1  0  0  0  0
  3 11  2  0  0  0  0
 12 13  1  0  0  0  0
 13 14  1  0  0  0  0
 13 15  2  0  0  0  0
  1 12  1  0  0  0  0
  5 16  1  0  0  0  0
  7 17  1  0  0  0  0
M  END
>  <cdx:fragmentId>
2753

$$$$
