30060.cdx
  Mrv1902 05222410272D          

 16 17  0  0  0  0            999 V2000
    5.7868  -10.3801    0.0000 C   0  0  0  0  0  0  0  0  0  0  0  0
    5.7868  -11.2051    0.0000 C   0  0  0  0  0  0  0  0  0  0  0  0
    6.5013  -11.6176    0.0000 C   0  0  0  0  0  0  0  0  0  0  0  0
    7.2157  -11.2051    0.0000 C   0  0  0  0  0  0  0  0  0  0  0  0
    7.2157  -10.3801    0.0000 C   0  0  0  0  0  0  0  0  0  0  0  0
    6.5013   -9.9676    0.0000 C   0  0  0  0  0  0  0  0  0  0  0  0
    6.5013  -12.4426    0.0000 C   0  0  0  0  0  0  0  0  0  0  0  0
    6.5013   -9.1426    0.0000 C   0  0  1  0  0  0  0  0  0  0  0  0
    7.3263   -9.1426    0.0000 C   0  0  0  0  0  0  0  0  0  0  0  0
    7.5812   -8.3580    0.0000 C   0  0  1  0  0  0  0  0  0  0  0  0
    6.9138   -7.8731    0.0000 C   0  0  0  0  0  0  0  0  0  0  0  0
    6.2463   -8.3580    0.0000 C   0  0  0  0  0  0  0  0  0  0  0  0
    8.1232   -9.3562    0.0000 C   0  0  0  0  0  0  0  0  0  0  0  0
    7.7388   -9.8571    0.0000 C   0  0  0  0  0  0  0  0  0  0  0  0
    5.7044   -9.3562    0.0000 C   0  0  0  0  0  0  0  0  0  0  0  0
    8.3658   -8.1031    0.0000 O   0  0  0  0  0  0  0  0  0  0  0  0
  1  2  2  0  0  0  0
  2  3  1  0  0  0  0
  3  4  2  0  0  0  0
  4  5  1  0  0  0  0
  5  6  2  0  0  0  0
  6  1  1  0  0  0  0
  3  7  1  0  0  0  0
  6  8  1  0  0  0  0
  8  9  1  0  0  0  0
  9 10  1  0  0  0  0
 10 11  1  0  0  0  0
 11 12  1  0  0  0  0
 12  8  1  0  0  0  0
  9 13  1  0  0  0  0
  9 14  1  0  0  0  0
  8 15  1  1  0  0  0
 10 16  1  1  0  0  0
M  END
>  <cdx:fragmentId>
5

$$$$
