30063.cdx
  Mrv1902 05222410262D          

 18 18  0  0  0  0            999 V2000
    6.0481   -6.0626    0.0000 C   0  0  0  0  0  0  0  0  0  0  0  0
    6.0481   -6.8876    0.0000 C   0  0  1  0  0  0  0  0  0  0  0  0
    6.7625   -7.3001    0.0000 Br  0  0  0  0  0  0  0  0  0  0  0  0
    7.4770   -6.8876    0.0000 C   0  0  2  0  0  0  0  0  0  0  0  0
    7.4770   -6.0626    0.0000 C   0  0  1  0  0  0  0  0  0  0  0  0
    6.7625   -5.6501    0.0000 C   0  0  0  0  0  0  0  0  0  0  0  0
    5.3336   -7.3001    0.0000 C   0  0  2  0  0  0  0  0  0  0  0  0
    5.3336   -8.1251    0.0000 C   0  0  0  0  0  0  0  0  0  0  0  0
    6.0481   -8.5376    0.0000 C   0  0  0  0  0  0  0  0  0  0  0  0
    6.7625   -8.1251    0.0000 C   0  0  2  0  0  0  0  0  0  0  0  0
    7.4770   -8.5376    0.0000 C   0  0  1  0  0  0  0  0  0  0  0  0
    8.1915   -7.3001    0.0000 C   0  0  0  0  0  0  0  0  0  0  0  0
    8.3014   -8.1866    0.0000 C   0  0  0  0  0  0  0  0  0  0  0  0
    7.4271   -9.3611    0.0000 Br  0  0  0  0  0  0  0  0  0  0  0  0
    8.1915   -5.6501    0.0000 Br  0  0  0  0  0  0  0  0  0  0  0  0
    6.0481   -7.7126    0.0000 Br  0  0  0  0  0  0  0  0  0  0  0  0
    4.6191   -6.8876    0.0000 Br  0  0  0  0  0  0  0  0  0  0  0  0
    6.7625   -6.4751    0.0000 Br  0  0  0  0  0  0  0  0  0  0  0  0
  1  2  1  0  0  0  0
  2  3  1  1  0  0  0
  4  5  1  0  0  0  0
  5  6  1  0  0  0  0
  6  1  1  0  0  0  0
  2  7  1  0  0  0  0
  7  8  1  0  0  0  0
  8  9  1  0  0  0  0
  9 10  1  0  0  0  0
 10 11  1  0  0  0  0
  4 12  1  0  0  0  0
 11 13  1  0  0  0  0
 12 13  1  0  0  0  0
 11 14  1  1  0  0  0
  5 15  1  1  0  0  0
 10 16  1  1  0  0  0
  7 17  1  6  0  0  0
  4 18  1  6  0  0  0
M  END
>  <cdx:fragmentId>
5

$$$$
