300691.cdx
  Mrv1902 05222410242D          

 23 26  0  0  0  0            999 V2000
    4.4503   -6.2930    0.0000 C   0  0  0  0  0  0  0  0  0  0  0  0
    3.7359   -6.7055    0.0000 C   0  0  0  0  0  0  0  0  0  0  0  0
    3.7359   -7.5305    0.0000 C   0  0  0  0  0  0  0  0  0  0  0  0
    4.4503   -7.9430    0.0000 C   0  0  0  0  0  0  0  0  0  0  0  0
    5.1648   -7.5305    0.0000 C   0  0  0  0  0  0  0  0  0  0  0  0
    5.8793   -7.9430    0.0000 C   0  0  0  0  0  0  0  0  0  0  0  0
    6.5938   -7.5305    0.0000 C   0  0  0  0  0  0  0  0  0  0  0  0
    6.5938   -6.7055    0.0000 C   0  0  1  0  0  0  0  0  0  0  0  0
    7.3082   -6.2930    0.0000 C   0  0  2  0  0  0  0  0  0  0  0  0
    8.0929   -6.5480    0.0000 C   0  0  0  0  0  0  0  0  0  0  0  0
    8.5778   -5.8805    0.0000 C   0  0  0  0  0  0  0  0  0  0  0  0
    8.0929   -5.2131    0.0000 C   0  0  0  0  0  0  0  0  0  0  0  0
    7.3082   -5.4680    0.0000 C   0  0  1  0  0  0  0  0  0  0  0  0
    6.5938   -5.0555    0.0000 C   0  0  0  0  0  0  0  0  0  0  0  0
    5.8793   -5.4680    0.0000 C   0  0  0  0  0  0  0  0  0  0  0  0
    5.8793   -6.2930    0.0000 C   0  0  2  0  0  0  0  0  0  0  0  0
    5.1648   -6.7055    0.0000 C   0  0  1  0  0  0  0  0  0  0  0  0
    3.0214   -7.9430    0.0000 O   0  0  0  0  0  0  0  0  0  0  0  0
    7.3945   -4.6475    0.0000 C   0  0  0  0  0  0  0  0  0  0  0  0
    5.1648   -5.8805    0.0000 C   0  0  0  0  0  0  0  0  0  0  0  0
    6.5938   -5.8805    0.0000 H   0  0  0  0  0  0  0  0  0  0  0  0
    5.8793   -7.1180    0.0000 H   0  0  0  0  0  0  0  0  0  0  0  0
    7.3082   -7.1180    0.0000 H   0  0  0  0  0  0  0  0  0  0  0  0
  1  2  1  0  0  0  0
  2  3  1  0  0  0  0
  3  4  1  0  0  0  0
  4  5  2  0  0  0  0
  5  6  1  0  0  0  0
  6  7  1  0  0  0  0
  7  8  1  0  0  0  0
  8  9  1  0  0  0  0
  9 10  1  0  0  0  0
 10 11  1  0  0  0  0
 11 12  2  0  0  0  0
 12 13  1  0  0  0  0
  9 13  1  0  0  0  0
 13 14  1  0  0  0  0
 14 15  1  0  0  0  0
 15 16  1  0  0  0  0
  8 16  1  0  0  0  0
 16 17  1  0  0  0  0
  5 17  1  0  0  0  0
  1 17  1  0  0  0  0
  3 18  2  0  0  0  0
 13 19  1  1  0  0  0
 17 20  1  1  0  0  0
  8 21  1  1  0  0  0
 16 22  1  6  0  0  0
  9 23  1  6  0  0  0
M  END
>  <cdx:fragmentId>
406

$$$$
