30066.cdx
  Mrv1902 05222410282D          

 10 10  0  0  0  0            999 V2000
    6.6118   -6.0764    0.0000 C   0  0  0  0  0  0  0  0  0  0  0  0
    6.6118   -6.9014    0.0000 C   0  0  0  0  0  0  0  0  0  0  0  0
    7.3263   -7.3139    0.0000 C   0  0  0  0  0  0  0  0  0  0  0  0
    8.0407   -6.9014    0.0000 C   0  0  0  0  0  0  0  0  0  0  0  0
    8.0407   -6.0764    0.0000 C   0  0  0  0  0  0  0  0  0  0  0  0
    7.3263   -5.6639    0.0000 C   0  0  0  0  0  0  0  0  0  0  0  0
    7.3263   -8.1389    0.0000 C   0  0  0  0  0  0  0  0  0  0  0  0
    7.3263   -4.8389    0.0000 C   0  0  0  0  0  0  0  0  0  0  0  0
    6.6118   -4.4264    0.0000 C   0  0  0  0  0  0  0  0  0  0  0  0
    8.0407   -4.4264    0.0000 C   0  0  0  0  0  0  0  0  0  0  0  0
  1  2  2  0  0  0  0
  2  3  1  0  0  0  0
  3  4  2  0  0  0  0
  4  5  1  0  0  0  0
  5  6  2  0  0  0  0
  6  1  1  0  0  0  0
  3  7  1  0  0  0  0
  6  8  1  0  0  0  0
  8  9  2  0  0  0  0
  8 10  1  0  0  0  0
M  END
>  <cdx:fragmentId>
5

$$$$
