300615.cdx
  Mrv1902 05222410182D          

 16 17  0  0  0  0            999 V2000
    5.8383   -5.1570    0.0000 C   0  0  0  0  0  0  0  0  0  0  0  0
    6.5535   -5.5683    0.0000 C   0  0  0  0  0  0  0  0  0  0  0  0
    6.5549   -6.3933    0.0000 C   0  0  0  0  0  0  0  0  0  0  0  0
    5.8411   -6.8070    0.0000 C   0  0  0  0  0  0  0  0  0  0  0  0
    5.1259   -6.3957    0.0000 C   0  0  2  0  0  0  0  0  0  0  0  0
    4.4122   -6.8094    0.0000 C   0  0  2  0  0  0  0  0  0  0  0  0
    3.6970   -6.3981    0.0000 C   0  0  0  0  0  0  0  0  0  0  0  0
    3.6956   -5.5731    0.0000 C   0  0  0  0  0  0  0  0  0  0  0  0
    4.4094   -5.1594    0.0000 C   0  0  0  0  0  0  0  0  0  0  0  0
    5.1245   -5.5707    0.0000 C   0  0  0  0  0  0  0  0  0  0  0  0
    7.2672   -5.1546    0.0000 O   0  0  0  0  0  0  0  0  0  0  0  0
    7.2714   -7.6296    0.0000 C   0  0  0  0  0  0  0  0  0  0  0  0
    7.2700   -6.8046    0.0000 C   0  0  0  0  0  0  0  0  0  0  0  0
    7.9838   -6.3909    0.0000 C   0  0  0  0  0  0  0  0  0  0  0  0
    4.4136   -7.6344    0.0000 C   0  0  0  0  0  0  0  0  0  0  0  0
    5.1273   -7.2207    0.0000 C   0  0  0  0  0  0  0  0  0  0  0  0
  1  2  1  0  0  0  0
  2  3  1  0  0  0  0
  3  4  1  0  0  0  0
  4  5  1  0  0  0  0
  5  6  1  0  0  0  0
  6  7  1  0  0  0  0
  7  8  1  0  0  0  0
  8  9  1  0  0  0  0
  9 10  1  0  0  0  0
  1 10  1  0  0  0  0
  5 10  1  0  0  0  0
  2 11  2  0  0  0  0
 12 13  1  0  0  0  0
 13 14  1  0  0  0  0
  3 13  2  0  0  0  0
  6 15  1  1  0  0  0
  5 16  1  1  0  0  0
M  END
>  <cdx:fragmentId>
7138

$$$$
