300601.cdx
  Mrv1902 05222410182D          

 18 19  0  0  0  0            999 V2000
    5.9017   -9.3872    0.0000 H   0  0  0  0  0  0  0  0  0  0  0  0
    5.8732   -6.9124    0.0000 C   0  0  0  0  0  0  0  0  0  0  0  0
    5.1920   -9.8079    0.0000 C   0  0  0  0  0  0  0  0  0  0  0  0
    5.8922   -8.5623    0.0000 C   0  0  1  0  0  0  0  0  0  0  0  0
    5.1826   -8.9829    0.0000 C   0  0  0  0  0  0  0  0  0  0  0  0
    4.4634   -8.5787    0.0000 C   0  0  0  0  0  0  0  0  0  0  0  0
    4.4539   -7.7538    0.0000 C   0  0  0  0  0  0  0  0  0  0  0  0
    5.1636   -7.3331    0.0000 C   0  0  0  0  0  0  0  0  0  0  0  0
    5.8827   -7.7373    0.0000 C   0  0  1  0  0  0  0  0  0  0  0  0
    6.5924   -7.3166    0.0000 C   0  0  0  0  0  0  0  0  0  0  0  0
    7.3116   -7.7209    0.0000 C   0  0  0  0  0  0  0  0  0  0  0  0
    7.3211   -8.5458    0.0000 C   0  0  1  0  0  0  0  0  0  0  0  0
    6.6114   -8.9665    0.0000 C   0  0  0  0  0  0  0  0  0  0  0  0
    8.7594   -9.3543    0.0000 O   0  0  0  0  0  0  0  0  0  0  0  0
    8.0402   -8.9501    0.0000 C   0  0  0  0  0  0  0  0  0  0  0  0
    7.6360   -9.6692    0.0000 C   0  0  0  0  0  0  0  0  0  0  0  0
    8.4445   -8.2309    0.0000 C   0  0  0  0  0  0  0  0  0  0  0  0
    7.3306   -9.3708    0.0000 H   0  0  0  0  0  0  0  0  0  0  0  0
  4  1  1  6  0  0  0
 12 15  1  0  0  0  0
  9  2  1  1  0  0  0
  5  3  1  0  0  0  0
  9  4  1  0  0  0  0
 13  4  1  0  0  0  0
  5  4  1  0  0  0  0
  6  5  2  0  0  0  0
  7  6  1  0  0  0  0
  8  7  1  0  0  0  0
  9  8  1  0  0  0  0
 10  9  1  0  0  0  0
 11 10  1  0  0  0  0
 12 11  1  0  0  0  0
 13 12  1  0  0  0  0
 15 14  1  0  0  0  0
 15 16  1  0  0  0  0
 15 17  1  0  0  0  0
 12 18  1  1  0  0  0
M  END
>  <cdx:fragmentId>
13

$$$$
