300612.cdx
  Mrv1902 05222410202D          

 17 16  0  0  0  0            999 V2000
    0.8735   -6.1121    0.0000 C   0  0  0  0  0  0  0  0  0  0  0  0
    1.5879   -6.5246    0.0000 C   0  0  0  0  0  0  0  0  0  0  0  0
    2.3024   -6.1121    0.0000 C   0  0  0  0  0  0  0  0  0  0  0  0
    3.0169   -6.5246    0.0000 C   0  0  0  0  0  0  0  0  0  0  0  0
    3.7314   -6.1121    0.0000 C   0  0  0  0  0  0  0  0  0  0  0  0
    4.4458   -6.5246    0.0000 C   0  0  0  0  0  0  0  0  0  0  0  0
    5.1603   -6.1121    0.0000 C   0  0  0  0  0  0  0  0  0  0  0  0
    5.8748   -6.5246    0.0000 C   0  0  0  0  0  0  0  0  0  0  0  0
    6.5892   -6.1121    0.0000 C   0  0  0  0  0  0  0  0  0  0  0  0
    7.3037   -6.5246    0.0000 C   0  0  0  0  0  0  0  0  0  0  0  0
    8.0182   -6.1121    0.0000 C   0  0  0  0  0  0  0  0  0  0  0  0
    8.7327   -6.5246    0.0000 C   0  0  0  0  0  0  0  0  0  0  0  0
    9.4471   -6.1121    0.0000 C   0  0  0  0  0  0  0  0  0  0  0  0
   10.1616   -6.5246    0.0000 C   0  0  0  0  0  0  0  0  0  0  0  0
   10.8761   -6.1121    0.0000 C   0  0  0  0  0  0  0  0  0  0  0  0
   11.5905   -6.5246    0.0000 C   0  0  0  0  0  0  0  0  0  0  0  0
    0.1590   -6.5246    0.0000 O   0  0  0  0  0  0  0  0  0  0  0  0
  1  2  1  0  0  0  0
  2  3  1  0  0  0  0
  3  4  1  0  0  0  0
  4  5  1  0  0  0  0
  5  6  1  0  0  0  0
  6  7  1  0  0  0  0
  7  8  2  0  0  0  0
  8  9  1  0  0  0  0
  9 10  1  0  0  0  0
 10 11  1  0  0  0  0
 11 12  2  0  0  0  0
 12 13  1  0  0  0  0
 13 14  1  0  0  0  0
 14 15  1  0  0  0  0
 15 16  1  0  0  0  0
  1 17  2  0  0  0  0
M  END
>  <cdx:fragmentId>
6900

$$$$
