300604.cdx
  Mrv1902 05222410192D          

 30 32  0  0  0  0            999 V2000
    6.1941   -5.9736    0.0000 C   0  0  0  0  0  0  0  0  0  0  0  0
    6.1941   -6.7986    0.0000 C   0  0  0  0  0  0  0  0  0  0  0  0
    5.4796   -7.2111    0.0000 C   0  0  0  0  0  0  0  0  0  0  0  0
    4.7652   -6.7986    0.0000 C   0  0  0  0  0  0  0  0  0  0  0  0
    4.0507   -7.2111    0.0000 C   0  0  0  0  0  0  0  0  0  0  0  0
    3.3362   -6.7986    0.0000 C   0  0  0  0  0  0  0  0  0  0  0  0
    3.3362   -5.9736    0.0000 C   0  0  0  0  0  0  0  0  0  0  0  0
    4.0507   -5.5611    0.0000 C   0  0  0  0  0  0  0  0  0  0  0  0
    4.7652   -5.9736    0.0000 C   0  0  0  0  0  0  0  0  0  0  0  0
    5.4796   -5.5611    0.0000 O   0  0  0  0  0  0  0  0  0  0  0  0
    5.4796   -8.0361    0.0000 O   0  0  0  0  0  0  0  0  0  0  0  0
    4.0507   -4.7361    0.0000 O   0  0  0  0  0  0  0  0  0  0  0  0
    3.3362   -4.3236    0.0000 C   0  0  0  0  0  0  0  0  0  0  0  0
    2.6218   -7.2111    0.0000 O   0  0  0  0  0  0  0  0  0  0  0  0
    1.9073   -6.7986    0.0000 C   0  0  0  0  0  0  0  0  0  0  0  0
    4.0507   -8.0361    0.0000 O   0  0  0  0  0  0  0  0  0  0  0  0
    3.3362   -8.4486    0.0000 C   0  0  0  0  0  0  0  0  0  0  0  0
    6.9086   -7.2111    0.0000 O   0  0  0  0  0  0  0  0  0  0  0  0
    7.6231   -6.7986    0.0000 C   0  0  0  0  0  0  0  0  0  0  0  0
    2.6218   -5.5611    0.0000 O   0  0  0  0  0  0  0  0  0  0  0  0
    6.9086   -5.5611    0.0000 C   0  0  0  0  0  0  0  0  0  0  0  0
    7.6231   -5.9736    0.0000 C   0  0  0  0  0  0  0  0  0  0  0  0
    8.3375   -5.5611    0.0000 C   0  0  0  0  0  0  0  0  0  0  0  0
    8.3375   -4.7361    0.0000 C   0  0  0  0  0  0  0  0  0  0  0  0
    7.6231   -4.3236    0.0000 C   0  0  0  0  0  0  0  0  0  0  0  0
    6.9086   -4.7361    0.0000 C   0  0  0  0  0  0  0  0  0  0  0  0
    9.0520   -4.3236    0.0000 O   0  0  0  0  0  0  0  0  0  0  0  0
    9.7665   -4.7361    0.0000 C   0  0  0  0  0  0  0  0  0  0  0  0
    9.0520   -5.9736    0.0000 O   0  0  0  0  0  0  0  0  0  0  0  0
    9.7665   -5.5611    0.0000 C   0  0  0  0  0  0  0  0  0  0  0  0
  1  2  2  0  0  0  0
  2  3  1  0  0  0  0
  3  4  1  0  0  0  0
  4  5  1  0  0  0  0
  5  6  2  0  0  0  0
  6  7  1  0  0  0  0
  7  8  2  0  0  0  0
  8  9  1  0  0  0  0
  4  9  2  0  0  0  0
  9 10  1  0  0  0  0
  1 10  1  0  0  0  0
  3 11  2  0  0  0  0
 12 13  1  0  0  0  0
  8 12  1  0  0  0  0
 14 15  1  0  0  0  0
  6 14  1  0  0  0  0
 16 17  1  0  0  0  0
  5 16  1  0  0  0  0
 18 19  1  0  0  0  0
  2 18  1  0  0  0  0
  7 20  1  0  0  0  0
 21 22  1  0  0  0  0
 22 23  2  0  0  0  0
 23 24  1  0  0  0  0
 24 25  2  0  0  0  0
 25 26  1  0  0  0  0
 21 26  2  0  0  0  0
 27 28  1  0  0  0  0
 24 27  1  0  0  0  0
 29 30  1  0  0  0  0
 23 29  1  0  0  0  0
  1 21  1  0  0  0  0
M  END
>  <cdx:fragmentId>
6384

$$$$
