300639.cdx
  Mrv1902 05222410192D          

 21 20  0  0  0  0            999 V2000
    0.3694   -6.0246    0.0000 C   0  0  0  0  0  0  0  0  0  0  0  0
    1.0839   -5.6121    0.0000 O   0  0  0  0  0  0  0  0  0  0  0  0
    1.7983   -6.8496    0.0000 O   0  0  0  0  0  0  0  0  0  0  0  0
   13.9443   -5.6121    0.0000 C   0  0  0  0  0  0  0  0  0  0  0  0
   13.2299   -6.0246    0.0000 C   0  0  0  0  0  0  0  0  0  0  0  0
   12.5154   -5.6121    0.0000 C   0  0  0  0  0  0  0  0  0  0  0  0
   11.8009   -6.0246    0.0000 C   0  0  0  0  0  0  0  0  0  0  0  0
   11.0865   -5.6121    0.0000 C   0  0  0  0  0  0  0  0  0  0  0  0
   10.3720   -6.0246    0.0000 C   0  0  0  0  0  0  0  0  0  0  0  0
    9.6575   -6.4371    0.0000 C   0  0  0  0  0  0  0  0  0  0  0  0
    8.9431   -6.8496    0.0000 C   0  0  0  0  0  0  0  0  0  0  0  0
    8.2286   -6.4371    0.0000 C   0  0  0  0  0  0  0  0  0  0  0  0
    7.5141   -6.0246    0.0000 C   0  0  0  0  0  0  0  0  0  0  0  0
    6.7996   -5.6121    0.0000 C   0  0  0  0  0  0  0  0  0  0  0  0
    6.0852   -6.0246    0.0000 C   0  0  0  0  0  0  0  0  0  0  0  0
    5.3707   -5.6121    0.0000 C   0  0  0  0  0  0  0  0  0  0  0  0
    4.6562   -6.0246    0.0000 C   0  0  0  0  0  0  0  0  0  0  0  0
    3.9418   -5.6121    0.0000 C   0  0  0  0  0  0  0  0  0  0  0  0
    3.2273   -6.0246    0.0000 C   0  0  0  0  0  0  0  0  0  0  0  0
    2.5128   -5.6121    0.0000 C   0  0  0  0  0  0  0  0  0  0  0  0
    1.7983   -6.0246    0.0000 C   0  0  0  0  0  0  0  0  0  0  0  0
  2  1  1  0  0  0  0
 21  2  1  0  0  0  0
 21  3  2  0  0  0  0
  5  4  1  0  0  0  0
  6  5  1  0  0  0  0
  7  6  1  0  0  0  0
  8  7  1  0  0  0  0
  9  8  1  0  0  0  0
 10  9  3  0  0  0  0
 11 10  1  0  0  0  0
 12 11  1  0  0  0  0
 13 12  3  0  0  0  0
 14 13  1  0  0  0  0
 15 14  1  0  0  0  0
 16 15  1  0  0  0  0
 17 16  1  0  0  0  0
 18 17  1  0  0  0  0
 19 18  1  0  0  0  0
 20 19  1  0  0  0  0
 21 20  1  0  0  0  0
M  END
>  <cdx:fragmentId>
8658

$$$$
