300638.cdx
  Mrv1902 05222410192D          

 23 22  0  0  0  0            999 V2000
   12.6967   -5.7496    0.0000 C   0  0  0  0  0  0  0  0  0  0  0  0
   11.9823   -6.1621    0.0000 C   0  0  0  0  0  0  0  0  0  0  0  0
   11.2678   -5.7496    0.0000 C   0  0  0  0  0  0  0  0  0  0  0  0
   10.5533   -6.1621    0.0000 C   0  0  0  0  0  0  0  0  0  0  0  0
    9.8388   -5.7496    0.0000 C   0  0  0  0  0  0  0  0  0  0  0  0
    9.1244   -6.1621    0.0000 C   0  0  0  0  0  0  0  0  0  0  0  0
    8.4099   -5.7496    0.0000 C   0  0  0  0  0  0  0  0  0  0  0  0
    7.6954   -6.1621    0.0000 C   0  0  0  0  0  0  0  0  0  0  0  0
    6.9810   -5.7496    0.0000 C   0  0  0  0  0  0  0  0  0  0  0  0
    6.2665   -6.1621    0.0000 C   0  0  0  0  0  0  0  0  0  0  0  0
    5.5520   -5.7496    0.0000 C   0  0  0  0  0  0  0  0  0  0  0  0
    4.8375   -6.1621    0.0000 C   0  0  0  0  0  0  0  0  0  0  0  0
    4.1231   -5.7496    0.0000 C   0  0  0  0  0  0  0  0  0  0  0  0
    3.4086   -6.1621    0.0000 C   0  0  0  0  0  0  0  0  0  0  0  0
    2.6941   -5.7496    0.0000 C   0  0  0  0  0  0  0  0  0  0  0  0
    1.9797   -6.1621    0.0000 C   0  0  0  0  0  0  0  0  0  0  0  0
    1.2652   -5.7496    0.0000 C   0  0  0  0  0  0  0  0  0  0  0  0
    0.5507   -6.1621    0.0000 C   0  0  0  0  0  0  0  0  0  0  0  0
   12.6967   -4.9246    0.0000 O   0  0  0  0  0  0  0  0  0  0  0  0
   13.4112   -6.1621    0.0000 O   0  0  0  0  0  0  0  0  0  0  0  0
    5.5520   -4.9246    0.0000 O   0  0  0  0  0  0  0  0  0  0  0  0
    6.2665   -6.9871    0.0000 O   0  0  0  0  0  0  0  0  0  0  0  0
    6.9810   -4.9246    0.0000 O   0  0  0  0  0  0  0  0  0  0  0  0
  1  2  1  0  0  0  0
  2  3  1  0  0  0  0
  3  4  1  0  0  0  0
  4  5  1  0  0  0  0
  5  6  1  0  0  0  0
  6  7  1  0  0  0  0
  7  8  1  0  0  0  0
  8  9  1  0  0  0  0
  9 10  1  0  0  0  0
 10 11  1  0  0  0  0
 11 12  1  0  0  0  0
 12 13  2  0  0  0  0
 13 14  1  0  0  0  0
 14 15  1  0  0  0  0
 15 16  1  0  0  0  0
 16 17  1  0  0  0  0
 17 18  1  0  0  0  0
  1 19  2  0  0  0  0
  1 20  1  0  0  0  0
 11 21  1  0  0  0  0
 10 22  1  0  0  0  0
  9 23  1  0  0  0  0
M  END
>  <cdx:fragmentId>
8586

$$$$
