300624.cdx
  Mrv1902 05222410272D          

 38 40  0  0  0  0            999 V2000
    7.0366   -8.3071    0.0000 O   0  0  0  0  0  0  0  0  0  0  0  0
    6.3269   -7.8864    0.0000 C   0  0  0  0  0  0  0  0  0  0  0  0
    5.6077   -8.2908    0.0000 C   0  0  0  0  0  0  0  0  0  0  0  0
    4.8980   -7.8701    0.0000 C   0  0  0  0  0  0  0  0  0  0  0  0
    6.3363   -7.0615    0.0000 O   0  0  0  0  0  0  0  0  0  0  0  0
    4.1789   -8.2745    0.0000 C   0  0  0  0  0  0  0  0  0  0  0  0
    4.1695   -9.0994    0.0000 C   0  0  0  0  0  0  0  0  0  0  0  0
    3.4504   -9.5037    0.0000 C   0  0  0  0  0  0  0  0  0  0  0  0
    2.7406   -9.0831    0.0000 C   0  0  0  0  0  0  0  0  0  0  0  0
    2.7500   -8.2581    0.0000 C   0  0  0  0  0  0  0  0  0  0  0  0
    3.4692   -7.8538    0.0000 C   0  0  0  0  0  0  0  0  0  0  0  0
    3.4409  -10.3287    0.0000 O   0  0  0  0  0  0  0  0  0  0  0  0
    2.7218  -10.7330    0.0000 C   0  0  0  0  0  0  0  0  0  0  0  0
    2.0215   -9.4874    0.0000 O   0  0  0  0  0  0  0  0  0  0  0  0
   10.5577  -10.3737    0.0000 C   0  0  0  0  0  0  0  0  0  0  0  0
   10.5529  -11.1987    0.0000 C   0  0  0  0  0  0  0  0  0  0  0  0
   11.2650  -11.6153    0.0000 C   0  0  0  0  0  0  0  0  0  0  0  0
   11.9818  -11.2069    0.0000 C   0  0  0  0  0  0  0  0  0  0  0  0
   11.2745   -9.9653    0.0000 O   0  0  0  0  0  0  0  0  0  0  0  0
    9.8456   -9.9571    0.0000 O   0  0  0  0  0  0  0  0  0  0  0  0
    9.1311   -9.5446    0.0000 H   0  0  0  0  0  0  0  0  0  0  0  0
    9.1311   -7.0696    0.0000 H   0  0  0  0  0  0  0  0  0  0  0  0
   11.2746   -5.0071    0.0000 C   0  0  0  0  0  0  0  0  0  0  0  0
    9.8456   -5.0071    0.0000 O   0  0  0  0  0  0  0  0  0  0  0  0
   10.5601   -5.4196    0.0000 C   0  0  0  0  0  0  0  0  0  0  0  0
   10.5601   -6.2446    0.0000 O   0  0  0  0  0  0  0  0  0  0  0  0
    9.8456   -6.6571    0.0000 C   0  0  0  0  0  0  0  0  0  0  0  0
    7.9340   -9.6890    0.0000 C   0  0  0  0  0  0  0  0  0  0  0  0
    8.3465   -8.9745    0.0000 C   0  0  1  0  0  0  0  0  0  0  0  0
    7.8616   -8.3071    0.0000 C   0  0  2  0  0  0  0  0  0  0  0  0
    8.3465   -7.6396    0.0000 C   0  0  0  0  0  0  0  0  0  0  0  0
   10.5601   -8.7196    0.0000 O   0  0  0  0  0  0  0  0  0  0  0  0
   10.5601   -7.8946    0.0000 C   0  0  0  0  0  0  0  0  0  0  0  0
    9.8456   -7.4821    0.0000 C   0  0  0  0  0  0  0  0  0  0  0  0
    9.1311   -7.8946    0.0000 C   0  0  2  0  0  0  0  0  0  0  0  0
    9.1311   -8.7196    0.0000 C   0  0  2  0  0  0  0  0  0  0  0  0
    9.8456   -9.1321    0.0000 C   0  0  2  0  0  0  0  0  0  0  0  0
   11.2602  -12.4403    0.0000 C   0  0  0  0  0  0  0  0  0  0  0  0
 36 21  1  1  0  0  0
 35 22  1  1  0  0  0
 37 20  1  1  0  0  0
 34 27  1  0  0  0  0
 27 26  1  0  0  0  0
 26 25  1  0  0  0  0
 25 23  1  0  0  0  0
 25 24  2  0  0  0  0
 30  1  1  1  0  0  0
 29 28  1  1  0  0  0
 35 31  1  0  0  0  0
 36 29  1  0  0  0  0
 30 29  1  0  0  0  0
 31 30  1  0  0  0  0
 37 32  1  0  0  0  0
 33 32  1  0  0  0  0
 34 33  2  0  0  0  0
 35 34  1  0  0  0  0
 36 35  1  0  0  0  0
 37 36  1  0  0  0  0
  2  3  1  0  0  0  0
  3  4  2  0  0  0  0
  2  5  2  0  0  0  0
  6  7  1  0  0  0  0
  7  8  2  0  0  0  0
  8  9  1  0  0  0  0
  9 10  2  0  0  0  0
 10 11  1  0  0  0  0
  6 11  2  0  0  0  0
 12 13  1  0  0  0  0
  8 12  1  0  0  0  0
  9 14  1  0  0  0  0
  4  6  1  0  0  0  0
  1  2  1  0  0  0  0
 15 16  1  0  0  0  0
 16 17  1  0  0  0  0
 17 18  1  0  0  0  0
 15 19  2  0  0  0  0
 15 20  1  0  0  0  0
 17 38  1  0  0  0  0
M  END
>  <cdx:fragmentId>
7704

$$$$
