300684.cdx
  Mrv1902 05222410252D          

 21 23  0  0  0  0            999 V2000
    5.6188   -5.2073    0.0000 O   0  0  0  0  0  0  0  0  0  0  0  0
    5.6927   -6.0289    0.0000 C   0  0  2  0  0  0  0  0  0  0  0  0
    6.4971   -6.2125    0.0000 C   0  0  2  0  0  0  0  0  0  0  0  0
    6.9202   -5.5043    0.0000 C   0  0  0  0  0  0  0  0  0  0  0  0
    6.3774   -4.8830    0.0000 C   0  0  0  0  0  0  0  0  0  0  0  0
    4.2631   -6.2884    0.0000 C   0  0  0  0  0  0  0  0  0  0  0  0
    3.7782   -6.9558    0.0000 C   0  0  0  0  0  0  0  0  0  0  0  0
    4.2631   -7.6233    0.0000 C   0  0  0  0  0  0  0  0  0  0  0  0
    5.0477   -7.3683    0.0000 C   0  0  1  0  0  0  0  0  0  0  0  0
    5.6927   -7.8827    0.0000 C   0  0  2  0  0  0  0  0  0  0  0  0
    6.4971   -7.6991    0.0000 C   0  0  0  0  0  0  0  0  0  0  0  0
    6.8550   -6.9558    0.0000 C   0  0  0  0  0  0  0  0  0  0  0  0
    5.0477   -6.5433    0.0000 C   0  0  2  0  0  0  0  0  0  0  0  0
    6.5610   -4.0787    0.0000 O   0  0  0  0  0  0  0  0  0  0  0  0
    4.0082   -5.5038    0.0000 O   0  0  0  0  0  0  0  0  0  0  0  0
    7.7419   -5.4303    0.0000 C   0  0  0  0  0  0  0  0  0  0  0  0
    5.0477   -5.7183    0.0000 C   0  0  0  0  0  0  0  0  0  0  0  0
    5.5092   -8.6870    0.0000 C   0  0  0  0  0  0  0  0  0  0  0  0
    7.3221   -6.2125    0.0000 H   0  0  0  0  0  0  0  0  0  0  0  0
    4.9004   -8.1801    0.0000 H   0  0  0  0  0  0  0  0  0  0  0  0
    5.6927   -6.8539    0.0000 H   0  0  0  0  0  0  0  0  0  0  0  0
  1  2  1  0  0  0  0
  2  3  1  0  0  0  0
  3  4  1  0  0  0  0
  4  5  1  0  0  0  0
  1  5  1  0  0  0  0
  6  7  1  0  0  0  0
  7  8  2  0  0  0  0
  8  9  1  0  0  0  0
  9 10  1  0  0  0  0
 10 11  1  0  0  0  0
 11 12  1  0  0  0  0
  6 13  1  0  0  0  0
  9 13  1  0  0  0  0
  2 13  1  0  0  0  0
  3 12  1  0  0  0  0
  5 14  2  0  0  0  0
  6 15  2  0  0  0  0
  4 16  2  0  0  0  0
 13 17  1  6  0  0  0
 10 18  1  6  0  0  0
  3 19  1  1  0  0  0
  9 20  1  1  0  0  0
  2 21  1  1  0  0  0
M  END
>  <cdx:fragmentId>
15

$$$$
