300619.cdx
  Mrv1902 05222410272D          

 35 38  0  0  0  0            999 V2000
    7.5437   -5.9689    0.0000 C   0  0  0  0  0  0  0  0  0  0  0  0
    8.1271   -6.5522    0.0000 C   0  0  0  0  0  0  0  0  0  0  0  0
    8.9240   -6.3387    0.0000 C   0  0  0  0  0  0  0  0  0  0  0  0
    7.7572   -5.1720    0.0000 O   0  0  0  0  0  0  0  0  0  0  0  0
    6.7591   -6.2238    0.0000 O   0  0  0  0  0  0  0  0  0  0  0  0
    9.5073   -6.9221    0.0000 C   0  0  0  0  0  0  0  0  0  0  0  0
   10.3042   -6.7086    0.0000 C   0  0  0  0  0  0  0  0  0  0  0  0
   10.8876   -7.2919    0.0000 C   0  0  0  0  0  0  0  0  0  0  0  0
   10.6740   -8.0888    0.0000 C   0  0  0  0  0  0  0  0  0  0  0  0
    9.8772   -8.3023    0.0000 C   0  0  0  0  0  0  0  0  0  0  0  0
    9.2938   -7.7190    0.0000 C   0  0  0  0  0  0  0  0  0  0  0  0
    4.6469   -5.8293    0.0000 C   0  0  1  0  0  0  0  0  0  0  0  0
    5.3614   -5.4168    0.0000 C   0  0  1  0  0  0  0  0  0  0  0  0
    5.3614   -4.5918    0.0000 C   0  0  0  0  0  0  0  0  0  0  0  0
    4.6469   -4.1793    0.0000 C   0  0  0  0  0  0  0  0  0  0  0  0
    3.9324   -4.5918    0.0000 C   0  0  0  0  0  0  0  0  0  0  0  0
    3.9324   -5.4168    0.0000 O   0  0  0  0  0  0  0  0  0  0  0  0
    6.1460   -4.3369    0.0000 C   0  0  1  0  0  0  0  0  0  0  0  0
    6.6309   -5.0043    0.0000 C   0  0  0  0  0  0  0  0  0  0  0  0
    6.1460   -5.6718    0.0000 C   0  0  2  0  0  0  0  0  0  0  0  0
    4.6469   -6.6543    0.0000 O   0  0  0  0  0  0  0  0  0  0  0  0
    3.2180   -6.6543    0.0000 O   0  0  0  0  0  0  0  0  0  0  0  0
    3.9324   -7.0668    0.0000 C   0  0  2  0  0  0  0  0  0  0  0  0
    3.9324   -7.8918    0.0000 C   0  0  1  0  0  0  0  0  0  0  0  0
    3.2180   -8.3043    0.0000 C   0  0  2  0  0  0  0  0  0  0  0  0
    2.5035   -7.8918    0.0000 C   0  0  1  0  0  0  0  0  0  0  0  0
    2.5035   -7.0668    0.0000 C   0  0  1  0  0  0  0  0  0  0  0  0
    1.7890   -6.6543    0.0000 C   0  0  0  0  0  0  0  0  0  0  0  0
    1.0745   -7.0668    0.0000 O   0  0  0  0  0  0  0  0  0  0  0  0
    1.7890   -8.3043    0.0000 O   0  0  0  0  0  0  0  0  0  0  0  0
    3.2180   -9.1293    0.0000 O   0  0  0  0  0  0  0  0  0  0  0  0
    4.6469   -8.3043    0.0000 O   0  0  0  0  0  0  0  0  0  0  0  0
    5.9745   -6.4788    0.0000 C   0  0  0  0  0  0  0  0  0  0  0  0
    6.4009   -3.5523    0.0000 O   0  0  0  0  0  0  0  0  0  0  0  0
    5.4476   -6.2373    0.0000 H   0  0  0  0  0  0  0  0  0  0  0  0
  1  2  1  0  0  0  0
  2  3  2  0  0  0  0
  1  4  2  0  0  0  0
  1  5  1  0  0  0  0
  6  7  1  0  0  0  0
  7  8  2  0  0  0  0
  8  9  1  0  0  0  0
  9 10  2  0  0  0  0
 10 11  1  0  0  0  0
  6 11  2  0  0  0  0
  3  6  1  0  0  0  0
 12 13  1  0  0  0  0
 13 14  1  0  0  0  0
 14 15  1  0  0  0  0
 15 16  2  0  0  0  0
 16 17  1  0  0  0  0
 12 17  1  0  0  0  0
 18 19  1  0  0  0  0
 19 20  1  0  0  0  0
 13 20  1  0  0  0  0
 14 18  1  0  0  0  0
 22 23  1  0  0  0  0
 23 24  1  0  0  0  0
 24 25  1  0  0  0  0
 25 26  1  0  0  0  0
 26 27  1  0  0  0  0
 22 27  1  0  0  0  0
 28 29  1  0  0  0  0
 27 28  1  1  0  0  0
 26 30  1  6  0  0  0
 25 31  1  1  0  0  0
 24 32  1  6  0  0  0
 23 21  1  1  0  0  0
 12 21  1  6  0  0  0
 20 33  1  1  0  0  0
 18 34  1  6  0  0  0
 20  5  1  6  0  0  0
 13 35  1  6  0  0  0
M  END
>  <cdx:fragmentId>
7442

$$$$
