300611.cdx
  Mrv1902 05222410192D          

 19 18  0  0  0  0            999 V2000
   10.4809   -6.5471    0.0000 C   0  0  0  0  0  0  0  0  0  0  0  0
    9.7665   -6.9596    0.0000 C   0  0  0  0  0  0  0  0  0  0  0  0
    9.0520   -6.5471    0.0000 C   0  0  0  0  0  0  0  0  0  0  0  0
    8.3375   -6.9596    0.0000 C   0  0  0  0  0  0  0  0  0  0  0  0
    7.6231   -6.5471    0.0000 C   0  0  0  0  0  0  0  0  0  0  0  0
    6.9086   -6.9596    0.0000 C   0  0  0  0  0  0  0  0  0  0  0  0
    6.1941   -6.5471    0.0000 C   0  0  0  0  0  0  0  0  0  0  0  0
    5.4796   -6.9596    0.0000 C   0  0  0  0  0  0  0  0  0  0  0  0
    4.7652   -6.5471    0.0000 C   0  0  0  0  0  0  0  0  0  0  0  0
    4.0507   -6.9596    0.0000 C   0  0  0  0  0  0  0  0  0  0  0  0
    3.3362   -6.5471    0.0000 C   0  0  0  0  0  0  0  0  0  0  0  0
    2.6218   -6.9596    0.0000 C   0  0  0  0  0  0  0  0  0  0  0  0
    1.9073   -6.5471    0.0000 C   0  0  0  0  0  0  0  0  0  0  0  0
    1.1928   -6.9596    0.0000 C   0  0  0  0  0  0  0  0  0  0  0  0
    0.4783   -6.5471    0.0000 C   0  0  0  0  0  0  0  0  0  0  0  0
   -0.2361   -6.9596    0.0000 C   0  0  0  0  0  0  0  0  0  0  0  0
   10.4809   -5.7221    0.0000 O   0  0  0  0  0  0  0  0  0  0  0  0
   11.1954   -6.9596    0.0000 O   0  0  0  0  0  0  0  0  0  0  0  0
   11.9099   -6.5471    0.0000 C   0  0  0  0  0  0  0  0  0  0  0  0
  1  2  1  0  0  0  0
  2  3  1  0  0  0  0
  3  4  1  0  0  0  0
  4  5  1  0  0  0  0
  5  6  1  0  0  0  0
  6  7  1  0  0  0  0
  7  8  2  0  0  0  0
  8  9  1  0  0  0  0
  9 10  1  0  0  0  0
 10 11  2  0  0  0  0
 11 12  1  0  0  0  0
 12 13  1  0  0  0  0
 13 14  2  0  0  0  0
 14 15  1  0  0  0  0
 15 16  1  0  0  0  0
  1 17  2  0  0  0  0
  1 18  1  0  0  0  0
 18 19  1  0  0  0  0
M  END
>  <cdx:fragmentId>
6841

$$$$
