300699.cdx
  Mrv1902 05222410222D          

 25 27  0  0  0  0            999 V2000
    8.6971  -11.9754    0.0000 C   0  0  0  0  0  0  0  0  0  0  0  0
    8.7034  -11.1504    0.0000 C   0  0  0  0  0  0  0  0  0  0  0  0
    7.9921  -10.7325    0.0000 C   0  0  0  0  0  0  0  0  0  0  0  0
    7.2745  -11.1395    0.0000 C   0  0  0  0  0  0  0  0  0  0  0  0
    6.5632  -10.7216    0.0000 C   0  0  0  0  0  0  0  0  0  0  0  0
    5.8456  -11.1286    0.0000 C   0  0  0  0  0  0  0  0  0  0  0  0
    5.8393  -11.9536    0.0000 C   0  0  0  0  0  0  0  0  0  0  0  0
    6.5506  -12.3715    0.0000 C   0  0  0  0  0  0  0  0  0  0  0  0
    7.2682  -11.9645    0.0000 C   0  0  0  0  0  0  0  0  0  0  0  0
    7.9795  -12.3824    0.0000 O   0  0  0  0  0  0  0  0  0  0  0  0
    5.0528  -12.2025    0.0000 O   0  0  0  0  0  0  0  0  0  0  0  0
    5.0630  -10.8677    0.0000 C   0  0  0  0  0  0  0  0  0  0  0  0
    4.5730  -11.5314    0.0000 C   0  0  0  0  0  0  0  0  0  0  0  0
    9.4084  -12.3933    0.0000 O   0  0  0  0  0  0  0  0  0  0  0  0
    8.7223   -8.6755    0.0000 C   0  0  0  0  0  0  0  0  0  0  0  0
   10.1701   -6.2114    0.0000 C   0  0  0  0  0  0  0  0  0  0  0  0
    9.4650   -4.9685    0.0000 C   0  0  0  0  0  0  0  0  0  0  0  0
    9.4587   -5.7935    0.0000 C   0  0  0  0  0  0  0  0  0  0  0  0
    8.7412   -6.2005    0.0000 C   0  0  0  0  0  0  0  0  0  0  0  0
    8.7349   -7.0255    0.0000 C   0  0  0  0  0  0  0  0  0  0  0  0
    8.0173   -7.4326    0.0000 C   0  0  0  0  0  0  0  0  0  0  0  0
    8.0110   -8.2575    0.0000 C   0  0  0  0  0  0  0  0  0  0  0  0
    7.2934   -8.6646    0.0000 C   0  0  0  0  0  0  0  0  0  0  0  0
    7.2871   -9.4896    0.0000 C   0  0  0  0  0  0  0  0  0  0  0  0
    6.5695   -9.8966    0.0000 O   0  0  0  0  0  0  0  0  0  0  0  0
 22 15  1  0  0  0  0
 18 16  1  0  0  0  0
 25 24  1  0  0  0  0
 18 17  2  0  0  0  0
 19 18  1  0  0  0  0
 20 19  2  0  0  0  0
 21 20  1  0  0  0  0
 22 21  1  0  0  0  0
 23 22  2  0  0  0  0
 24 23  1  0  0  0  0
  1  2  1  0  0  0  0
  2  3  2  0  0  0  0
  3  4  1  0  0  0  0
  4  5  1  0  0  0  0
  5  6  2  0  0  0  0
  6  7  1  0  0  0  0
  7  8  2  0  0  0  0
  8  9  1  0  0  0  0
  4  9  2  0  0  0  0
  9 10  1  0  0  0  0
  1 10  1  0  0  0  0
 12 13  2  0  0  0  0
 11 13  1  0  0  0  0
  6 12  1  0  0  0  0
  7 11  1  0  0  0  0
  1 14  2  0  0  0  0
  5 25  1  0  0  0  0
M  END
>  <cdx:fragmentId>
984

$$$$
