300655.cdx
  Mrv1902 05222410242D          

 10  9  0  0  0  0            999 V2000
    3.8651  -11.8064    0.0000 C   0  0  0  0  0  0  0  0  0  0  0  0
    4.5795  -11.3939    0.0000 C   0  0  0  0  0  0  0  0  0  0  0  0
    5.2940  -11.8064    0.0000 C   0  0  0  0  0  0  0  0  0  0  0  0
    6.0085  -11.3939    0.0000 C   0  0  0  0  0  0  0  0  0  0  0  0
    6.7230  -11.8064    0.0000 C   0  0  0  0  0  0  0  0  0  0  0  0
    7.4374  -11.3939    0.0000 C   0  0  0  0  0  0  0  0  0  0  0  0
    3.8651  -12.6314    0.0000 O   0  0  0  0  0  0  0  0  0  0  0  0
    3.1506  -11.3939    0.0000 O   0  0  0  0  0  0  0  0  0  0  0  0
    7.4374  -10.5689    0.0000 O   0  0  0  0  0  0  0  0  0  0  0  0
    8.1519  -11.8064    0.0000 O   0  0  0  0  0  0  0  0  0  0  0  0
  1  2  1  0  0  0  0
  2  3  1  0  0  0  0
  3  4  1  0  0  0  0
  4  5  1  0  0  0  0
  5  6  1  0  0  0  0
  1  7  2  0  0  0  0
  1  8  1  0  0  0  0
  6  9  2  0  0  0  0
  6 10  1  0  0  0  0
M  END
>  <cdx:fragmentId>
532

$$$$
