30078.cdx
  Mrv1902 05222410192D          

 18 18  0  0  0  0            999 V2000
    5.6768   -7.3826    0.0000 C   0  0  0  0  0  0  0  0  0  0  0  0
    5.6768   -8.2076    0.0000 C   0  0  2  0  0  0  0  0  0  0  0  0
    7.1057   -8.2076    0.0000 C   0  0  1  0  0  0  0  0  0  0  0  0
    7.1057   -7.3826    0.0000 C   0  0  1  0  0  0  0  0  0  0  0  0
    6.3913   -6.9701    0.0000 C   0  0  0  0  0  0  0  0  0  0  0  0
    6.3913   -9.4451    0.0000 C   0  0  1  0  0  0  0  0  0  0  0  0
    7.1057   -9.8576    0.0000 C   0  0  2  0  0  0  0  0  0  0  0  0
    7.8202   -9.4451    0.0000 C   0  0  0  0  0  0  0  0  0  0  0  0
    7.8202   -8.6201    0.0000 C   0  0  0  0  0  0  0  0  0  0  0  0
    4.9623   -8.6201    0.0000 C   0  0  2  0  0  0  0  0  0  0  0  0
    5.6768   -9.8576    0.0000 C   0  0  0  0  0  0  0  0  0  0  0  0
    4.9623   -9.4451    0.0000 C   0  0  0  0  0  0  0  0  0  0  0  0
    6.3913   -7.7951    0.0000 Br  0  0  0  0  0  0  0  0  0  0  0  0
    7.8202   -6.9701    0.0000 Br  0  0  0  0  0  0  0  0  0  0  0  0
    6.3913   -8.6201    0.0000 Br  0  0  0  0  0  0  0  0  0  0  0  0
    7.1057   -9.0326    0.0000 Br  0  0  0  0  0  0  0  0  0  0  0  0
    4.2479   -8.2076    0.0000 Br  0  0  0  0  0  0  0  0  0  0  0  0
    7.1057  -10.6826    0.0000 Br  0  0  0  0  0  0  0  0  0  0  0  0
  1  2  1  0  0  0  0
  3  4  1  0  0  0  0
  4  5  1  0  0  0  0
  5  1  1  0  0  0  0
  6  7  1  0  0  0  0
  7  8  1  0  0  0  0
  8  9  1  0  0  0  0
  9  3  1  0  0  0  0
  2 10  1  0  0  0  0
  6 11  1  0  0  0  0
 10 12  1  0  0  0  0
 11 12  1  0  0  0  0
  2 13  1  1  0  0  0
  4 14  1  1  0  0  0
  3 15  1  1  0  0  0
  6 16  1  1  0  0  0
 10 17  1  6  0  0  0
  7 18  1  6  0  0  0
M  END
>  <cdx:fragmentId>
5

$$$$
