300747.cdx
  Mrv1902 05222410282D          

 34 37  0  0  0  0            999 V2000
    4.3637   -8.6900    0.0000 C   0  0  0  0  0  0  0  0  0  0  0  0
    4.3637   -9.5150    0.0000 C   0  0  0  0  0  0  0  0  0  0  0  0
    5.0781   -9.9275    0.0000 C   0  0  1  0  0  0  0  0  0  0  0  0
    5.7926   -9.5150    0.0000 C   0  0  2  0  0  0  0  0  0  0  0  0
    5.7926   -8.6900    0.0000 C   0  0  1  0  0  0  0  0  0  0  0  0
    5.0781   -8.2775    0.0000 C   0  0  0  0  0  0  0  0  0  0  0  0
    6.5071   -9.9275    0.0000 C   0  0  0  0  0  0  0  0  0  0  0  0
    7.2216   -9.5150    0.0000 C   0  0  0  0  0  0  0  0  0  0  0  0
    7.2216   -8.6900    0.0000 C   0  0  1  0  0  0  0  0  0  0  0  0
    6.5071   -8.2775    0.0000 C   0  0  1  0  0  0  0  0  0  0  0  0
    7.9360   -8.2775    0.0000 C   0  0  2  0  0  0  0  0  0  0  0  0
    7.9360   -7.4525    0.0000 C   0  0  1  0  0  0  0  0  0  0  0  0
    7.2216   -7.0400    0.0000 C   0  0  0  0  0  0  0  0  0  0  0  0
    6.5071   -7.4525    0.0000 C   0  0  0  0  0  0  0  0  0  0  0  0
    8.6505   -8.6900    0.0000 C   0  0  0  0  0  0  0  0  0  0  0  0
    9.3650   -8.2775    0.0000 C   0  0  0  0  0  0  0  0  0  0  0  0
    9.3650   -7.4525    0.0000 C   0  0  2  0  0  0  0  0  0  0  0  0
    8.6505   -7.0400    0.0000 C   0  0  0  0  0  0  0  0  0  0  0  0
    3.6492   -9.9275    0.0000 O   0  0  0  0  0  0  0  0  0  0  0  0
   10.0794   -7.0400    0.0000 C   0  0  0  0  0  0  0  0  0  0  0  0
   10.7939   -7.4525    0.0000 C   0  0  0  0  0  0  0  0  0  0  0  0
   11.5084   -7.0400    0.0000 C   0  0  0  0  0  0  0  0  0  0  0  0
   12.2229   -7.4525    0.0000 C   0  0  0  0  0  0  0  0  0  0  0  0
   12.9373   -7.0400    0.0000 C   0  0  0  0  0  0  0  0  0  0  0  0
   12.2229   -8.2775    0.0000 C   0  0  0  0  0  0  0  0  0  0  0  0
    4.6656  -10.6420    0.0000 O   0  0  0  0  0  0  0  0  0  0  0  0
    5.7926  -10.3400    0.0000 C   0  0  0  0  0  0  0  0  0  0  0  0
    6.5071   -9.1025    0.0000 C   0  0  0  0  0  0  0  0  0  0  0  0
    7.9360   -9.1025    0.0000 C   0  0  0  0  0  0  0  0  0  0  0  0
    9.3650   -6.6275    0.0000 C   0  0  0  0  0  0  0  0  0  0  0  0
    5.4906  -10.6420    0.0000 C   0  0  0  0  0  0  0  0  0  0  0  0
    5.7926   -7.8650    0.0000 H   0  0  0  0  0  0  0  0  0  0  0  0
    7.2216   -7.8650    0.0000 H   0  0  0  0  0  0  0  0  0  0  0  0
    7.9360   -6.6275    0.0000 C   0  0  0  0  0  0  0  0  0  0  0  0
  1  2  1  0  0  0  0
  2  3  1  0  0  0  0
  3  4  1  0  0  0  0
  4  5  1  0  0  0  0
  5  6  1  0  0  0  0
  6  1  1  0  0  0  0
  4  7  1  0  0  0  0
  7  8  1  0  0  0  0
  8  9  1  0  0  0  0
  9 10  1  0  0  0  0
 10  5  1  0  0  0  0
  9 11  1  0  0  0  0
 11 12  1  0  0  0  0
 12 13  1  0  0  0  0
 13 14  1  0  0  0  0
 14 10  1  0  0  0  0
 11 15  1  0  0  0  0
 15 16  1  0  0  0  0
 16 17  1  0  0  0  0
 17 18  1  0  0  0  0
 18 12  1  0  0  0  0
  2 19  2  0  0  0  0
 17 20  1  6  0  0  0
 20 21  1  0  0  0  0
 21 22  1  0  0  0  0
 22 23  2  0  0  0  0
 23 24  1  0  0  0  0
 23 25  1  0  0  0  0
  3 26  1  1  0  0  0
  4 27  1  1  0  0  0
 10 28  1  1  0  0  0
 11 29  1  1  0  0  0
 17 30  1  1  0  0  0
  3 31  1  6  0  0  0
  5 32  1  6  0  0  0
  9 33  1  6  0  0  0
 12 34  1  6  0  0  0
M  END
>  <cdx:fragmentId>
5

$$$$
