300716.cdx
  Mrv1902 05222410212D          

 40 43  0  0  0  0            999 V2000
    7.9946  -10.7155    0.0000 O   0  0  0  0  0  0  0  0  0  0  0  0
    8.8196  -10.7168    0.0000 C   0  0  0  0  0  0  0  0  0  0  0  0
    9.0758   -9.9326    0.0000 C   0  0  1  0  0  0  0  0  0  0  0  0
    8.4092   -9.4466    0.0000 C   0  0  2  0  0  0  0  0  0  0  0  0
    7.7410   -9.9304    0.0000 C   0  0  0  0  0  0  0  0  0  0  0  0
    9.3034  -11.3851    0.0000 O   0  0  0  0  0  0  0  0  0  0  0  0
    9.8609   -9.6790    0.0000 C   0  0  0  0  0  0  0  0  0  0  0  0
   10.0337   -8.8723    0.0000 C   0  0  0  0  0  0  0  0  0  0  0  0
    9.4215   -8.3192    0.0000 C   0  0  0  0  0  0  0  0  0  0  0  0
    9.5944   -7.5125    0.0000 C   0  0  0  0  0  0  0  0  0  0  0  0
   10.3794   -7.2589    0.0000 C   0  0  0  0  0  0  0  0  0  0  0  0
   10.9916   -7.8119    0.0000 C   0  0  0  0  0  0  0  0  0  0  0  0
   10.8188   -8.6186    0.0000 C   0  0  0  0  0  0  0  0  0  0  0  0
    8.9822   -6.9595    0.0000 O   0  0  0  0  0  0  0  0  0  0  0  0
    9.1551   -6.1528    0.0000 C   0  0  0  0  0  0  0  0  0  0  0  0
   10.5523   -6.4522    0.0000 O   0  0  0  0  0  0  0  0  0  0  0  0
    8.4105   -8.6216    0.0000 C   0  0  0  0  0  0  0  0  0  0  0  0
    7.6967   -8.2079    0.0000 C   0  0  0  0  0  0  0  0  0  0  0  0
    6.9816   -8.6193    0.0000 C   0  0  0  0  0  0  0  0  0  0  0  0
    6.2678   -8.2056    0.0000 C   0  0  0  0  0  0  0  0  0  0  0  0
    6.2692   -7.3806    0.0000 C   0  0  0  0  0  0  0  0  0  0  0  0
    6.9843   -6.9693    0.0000 C   0  0  0  0  0  0  0  0  0  0  0  0
    7.6981   -7.3829    0.0000 C   0  0  0  0  0  0  0  0  0  0  0  0
    6.9857   -6.1443    0.0000 O   0  0  0  0  0  0  0  0  0  0  0  0
    6.2719   -5.7306    0.0000 C   0  0  0  0  0  0  0  0  0  0  0  0
    4.8389   -8.2032    0.0000 C   0  0  0  0  0  0  0  0  0  0  0  0
    5.5527   -8.6169    0.0000 C   0  0  0  0  0  0  0  0  0  0  0  0
    5.5513   -9.4419    0.0000 C   0  0  0  0  0  0  0  0  0  0  0  0
    4.8402   -7.3782    0.0000 O   0  0  0  0  0  0  0  0  0  0  0  0
    4.1237   -8.6146    0.0000 C   0  0  0  0  0  0  0  0  0  0  0  0
    3.4099   -8.2009    0.0000 C   0  0  0  0  0  0  0  0  0  0  0  0
    2.6948   -8.6122    0.0000 C   0  0  0  0  0  0  0  0  0  0  0  0
    2.6934   -9.4372    0.0000 C   0  0  0  0  0  0  0  0  0  0  0  0
    3.4072   -9.8509    0.0000 C   0  0  0  0  0  0  0  0  0  0  0  0
    4.1224   -9.4396    0.0000 C   0  0  0  0  0  0  0  0  0  0  0  0
    1.9810   -8.1985    0.0000 O   0  0  0  0  0  0  0  0  0  0  0  0
    1.2658   -8.6099    0.0000 C   0  0  0  0  0  0  0  0  0  0  0  0
    1.9783   -9.8485    0.0000 O   0  0  0  0  0  0  0  0  0  0  0  0
    6.2651   -9.8556    0.0000 O   0  0  0  0  0  0  0  0  0  0  0  0
    5.5554   -6.9669    0.0000 O   0  0  0  0  0  0  0  0  0  0  0  0
  1  2  1  0  0  0  0
  2  3  1  0  0  0  0
  3  4  1  0  0  0  0
  4  5  1  0  0  0  0
  1  5  1  0  0  0  0
  2  6  2  0  0  0  0
  8  9  1  0  0  0  0
  9 10  2  0  0  0  0
 10 11  1  0  0  0  0
 11 12  2  0  0  0  0
 12 13  1  0  0  0  0
  8 13  2  0  0  0  0
 14 15  1  0  0  0  0
 10 14  1  0  0  0  0
 11 16  1  0  0  0  0
  7  8  1  0  0  0  0
  3  7  1  1  0  0  0
 18 19  1  0  0  0  0
 19 20  2  0  0  0  0
 20 21  1  0  0  0  0
 21 22  2  0  0  0  0
 22 23  1  0  0  0  0
 18 23  2  0  0  0  0
 24 25  1  0  0  0  0
 22 24  1  0  0  0  0
 26 27  1  0  0  0  0
 27 28  1  0  0  0  0
 26 29  2  0  0  0  0
 30 31  1  0  0  0  0
 31 32  2  0  0  0  0
 32 33  1  0  0  0  0
 33 34  2  0  0  0  0
 34 35  1  0  0  0  0
 30 35  2  0  0  0  0
 36 37  1  0  0  0  0
 32 36  1  0  0  0  0
 33 38  1  0  0  0  0
 26 30  1  0  0  0  0
 28 39  1  0  0  0  0
 20 27  1  0  0  0  0
 21 40  1  0  0  0  0
 17 18  1  0  0  0  0
  4 17  1  6  0  0  0
M  END
>  <cdx:fragmentId>
63

$$$$
