300769.cdx
  Mrv1902 05222410272D          

 27 28  0  0  0  0            999 V2000
   11.0036   -6.8609    0.0000 C   0  0  0  0  0  0  0  0  0  0  0  0
   10.2916   -7.2777    0.0000 C   0  0  0  0  0  0  0  0  0  0  0  0
    9.5746   -6.8696    0.0000 C   0  0  0  0  0  0  0  0  0  0  0  0
   11.7205   -7.2690    0.0000 O   0  0  0  0  0  0  0  0  0  0  0  0
    8.8627   -7.2864    0.0000 C   0  0  0  0  0  0  0  0  0  0  0  0
    8.8677   -8.1114    0.0000 C   0  0  0  0  0  0  0  0  0  0  0  0
    8.1558   -8.5282    0.0000 C   0  0  0  0  0  0  0  0  0  0  0  0
    7.4388   -8.1201    0.0000 C   0  0  0  0  0  0  0  0  0  0  0  0
    7.4338   -7.2951    0.0000 C   0  0  0  0  0  0  0  0  0  0  0  0
    8.1457   -6.8783    0.0000 C   0  0  0  0  0  0  0  0  0  0  0  0
    8.1608   -9.3532    0.0000 O   0  0  0  0  0  0  0  0  0  0  0  0
    8.8778   -9.7614    0.0000 C   0  0  0  0  0  0  0  0  0  0  0  0
    5.2981   -8.5177    0.0000 C   0  0  0  0  0  0  0  0  0  0  0  0
    5.2869   -9.3426    0.0000 C   0  0  0  0  0  0  0  0  0  0  0  0
    4.5670   -9.7455    0.0000 C   0  0  0  0  0  0  0  0  0  0  0  0
    3.8581   -9.3234    0.0000 C   0  0  0  0  0  0  0  0  0  0  0  0
    3.8692   -8.4984    0.0000 C   0  0  0  0  0  0  0  0  0  0  0  0
    4.5892   -8.0956    0.0000 C   0  0  0  0  0  0  0  0  0  0  0  0
    4.5559  -10.5704    0.0000 O   0  0  0  0  0  0  0  0  0  0  0  0
    5.2647  -10.9925    0.0000 C   0  0  0  0  0  0  0  0  0  0  0  0
    3.1382   -9.7262    0.0000 O   0  0  0  0  0  0  0  0  0  0  0  0
    6.7491   -6.8871    0.0000 O   0  0  0  0  0  0  0  0  0  0  0  0
    5.3314   -6.0429    0.0000 O   0  0  0  0  0  0  0  0  0  0  0  0
    5.3203   -6.8678    0.0000 C   0  0  0  0  0  0  0  0  0  0  0  0
    6.0291   -7.2899    0.0000 C   0  0  2  0  0  0  0  0  0  0  0  0
    6.0180   -8.1148    0.0000 C   0  0  1  0  0  0  0  0  0  0  0  0
    6.7269   -8.5369    0.0000 O   0  0  0  0  0  0  0  0  0  0  0  0
 25 22  1  1  0  0  0
 24 23  1  0  0  0  0
 26 13  1  0  0  0  0
 26 27  1  1  0  0  0
 25 24  1  0  0  0  0
 26 25  1  0  0  0  0
  1  2  1  0  0  0  0
  2  3  2  0  0  0  0
  1  4  2  0  0  0  0
  5  6  1  0  0  0  0
  6  7  2  0  0  0  0
  7  8  1  0  0  0  0
  8  9  2  0  0  0  0
  9 10  1  0  0  0  0
  5 10  2  0  0  0  0
 11 12  1  0  0  0  0
  7 11  1  0  0  0  0
 13 14  1  0  0  0  0
 14 15  2  0  0  0  0
 15 16  1  0  0  0  0
 16 17  2  0  0  0  0
 17 18  1  0  0  0  0
 13 18  2  0  0  0  0
 19 20  1  0  0  0  0
 15 19  1  0  0  0  0
 16 21  1  0  0  0  0
  8 27  1  0  0  0  0
  3  5  1  0  0  0  0
M  END
>  <cdx:fragmentId>
535

$$$$
