300770.cdx
  Mrv1902 05222410192D          

 29 30  0  0  0  0            999 V2000
    7.0349   -6.9596    0.0000 C   0  0  0  0  0  0  0  0  0  0  0  0
    7.0349   -7.7846    0.0000 C   0  0  0  0  0  0  0  0  0  0  0  0
    7.7494   -8.1971    0.0000 C   0  0  0  0  0  0  0  0  0  0  0  0
    8.4638   -7.7846    0.0000 C   0  0  0  0  0  0  0  0  0  0  0  0
    8.4638   -6.9596    0.0000 C   0  0  0  0  0  0  0  0  0  0  0  0
    7.7494   -6.5471    0.0000 N   0  0  0  0  0  0  0  0  0  0  0  0
    6.3204   -6.5471    0.0000 O   0  0  0  0  0  0  0  0  0  0  0  0
    9.1783   -8.1971    0.0000 C   0  0  0  0  0  0  0  0  0  0  0  0
    9.8928   -7.7846    0.0000 C   0  0  0  0  0  0  0  0  0  0  0  0
   10.6073   -8.1971    0.0000 C   0  0  0  0  0  0  0  0  0  0  0  0
   10.6073   -9.0221    0.0000 C   0  0  0  0  0  0  0  0  0  0  0  0
    9.8928   -9.4346    0.0000 C   0  0  0  0  0  0  0  0  0  0  0  0
    9.1783   -9.0221    0.0000 C   0  0  0  0  0  0  0  0  0  0  0  0
   11.3217   -9.4346    0.0000 O   0  0  0  0  0  0  0  0  0  0  0  0
    7.7494   -9.0221    0.0000 O   0  0  0  0  0  0  0  0  0  0  0  0
    7.7494   -5.7221    0.0000 O   0  0  0  0  0  0  0  0  0  0  0  0
    6.3204   -8.1971    0.0000 C   0  0  0  0  0  0  0  0  0  0  0  0
    5.6060   -7.7846    0.0000 C   0  0  0  0  0  0  0  0  0  0  0  0
    4.8915   -8.1971    0.0000 C   0  0  0  0  0  0  0  0  0  0  0  0
    4.1770   -7.7846    0.0000 C   0  0  0  0  0  0  0  0  0  0  0  0
    3.4625   -8.1971    0.0000 C   0  0  0  0  0  0  0  0  0  0  0  0
    2.7481   -7.7846    0.0000 C   0  0  0  0  0  0  0  0  0  0  0  0
    2.0336   -8.1971    0.0000 C   0  0  0  0  0  0  0  0  0  0  0  0
    1.3191   -7.7846    0.0000 C   0  0  0  0  0  0  0  0  0  0  0  0
    0.6047   -8.1971    0.0000 C   0  0  0  0  0  0  0  0  0  0  0  0
   -0.1098   -7.7846    0.0000 C   0  0  0  0  0  0  0  0  0  0  0  0
    6.3204   -9.0221    0.0000 O   0  0  0  0  0  0  0  0  0  0  0  0
    1.3191   -6.9596    0.0000 C   0  0  0  0  0  0  0  0  0  0  0  0
    2.7481   -6.9596    0.0000 C   0  0  0  0  0  0  0  0  0  0  0  0
  1  2  1  0  0  0  0
  2  3  2  0  0  0  0
  3  4  1  0  0  0  0
  4  5  2  0  0  0  0
  5  6  1  0  0  0  0
  1  6  1  0  0  0  0
  1  7  2  0  0  0  0
  8  9  1  0  0  0  0
  9 10  2  0  0  0  0
 10 11  1  0  0  0  0
 11 12  2  0  0  0  0
 12 13  1  0  0  0  0
  8 13  2  0  0  0  0
 11 14  1  0  0  0  0
  4  8  1  0  0  0  0
  3 15  1  0  0  0  0
  6 16  1  0  0  0  0
 17 18  1  0  0  0  0
 18 19  2  0  0  0  0
 19 20  1  0  0  0  0
 20 21  2  0  0  0  0
 21 22  1  0  0  0  0
 22 23  2  0  0  0  0
 23 24  1  0  0  0  0
 24 25  1  0  0  0  0
 25 26  1  0  0  0  0
 17 27  2  0  0  0  0
 24 28  1  0  0  0  0
 22 29  1  0  0  0  0
  2 17  1  0  0  0  0
M  END
>  <cdx:fragmentId>
533

$$$$
