300786.cdx
  Mrv1902 05222410272D          

 15 15  0  0  0  0            999 V2000
    6.4144   -8.8231    0.0000 C   0  0  0  0  0  0  0  0  0  0  0  0
    5.6999   -9.2356    0.0000 N   0  0  0  0  0  0  0  0  0  0  0  0
    7.1288   -9.2356    0.0000 N   0  0  0  0  0  0  0  0  0  0  0  0
    7.8433   -8.8231    0.0000 C   0  0  0  0  0  0  0  0  0  0  0  0
    7.1288  -10.0606    0.0000 C   0  0  0  0  0  0  0  0  0  0  0  0
    5.6999  -10.0606    0.0000 C   0  0  0  0  0  0  0  0  0  0  0  0
    4.9854   -8.8231    0.0000 C   0  0  0  0  0  0  0  0  0  0  0  0
    6.4144   -7.9981    0.0000 C   0  0  0  0  0  0  0  0  0  0  0  0
    5.6999   -7.5856    0.0000 C   0  0  0  0  0  0  0  0  0  0  0  0
    5.6999   -6.7606    0.0000 C   0  0  0  0  0  0  0  0  0  0  0  0
    6.4144   -6.3481    0.0000 C   0  0  0  0  0  0  0  0  0  0  0  0
    7.1288   -6.7606    0.0000 C   0  0  0  0  0  0  0  0  0  0  0  0
    7.1288   -7.5856    0.0000 C   0  0  0  0  0  0  0  0  0  0  0  0
    6.4144   -5.5231    0.0000 O   0  0  0  0  0  0  0  0  0  0  0  0
    5.6999   -5.1106    0.0000 C   0  0  0  0  0  0  0  0  0  0  0  0
  1  2  1  0  0  0  0
  1  3  1  0  0  0  0
  3  4  1  0  0  0  0
  3  5  1  0  0  0  0
  2  6  1  0  0  0  0
  2  7  1  0  0  0  0
  8  9  1  0  0  0  0
  9 10  2  0  0  0  0
 10 11  1  0  0  0  0
 11 12  2  0  0  0  0
 12 13  1  0  0  0  0
  8 13  2  0  0  0  0
 14 15  1  0  0  0  0
 11 14  1  0  0  0  0
  1  8  1  0  0  0  0
M  END
>  <cdx:fragmentId>
1576

$$$$
