300727.cdx
  Mrv1902 05222410252D          

 22 24  0  0  0  0            999 V2000
    9.0474   -8.8836    0.0000 H   0  0  0  0  0  0  0  0  0  0  0  0
    6.1753  -10.5061    0.0000 O   0  0  0  0  0  0  0  0  0  0  0  0
    7.6042   -8.8561    0.0000 O   0  0  0  0  0  0  0  0  0  0  0  0
    4.7463   -8.0311    0.0000 O   0  0  0  0  0  0  0  0  0  0  0  0
    7.7758   -7.2241    0.0000 O   0  0  0  0  0  0  0  0  0  0  0  0
    9.0087   -6.4234    0.0000 O   0  0  0  0  0  0  0  0  0  0  0  0
    6.8898  -10.0936    0.0000 C   0  0  0  0  0  0  0  0  0  0  0  0
    6.8898   -9.2686    0.0000 C   0  0  1  0  0  0  0  0  0  0  0  0
    7.6042   -9.6811    0.0000 C   0  0  0  0  0  0  0  0  0  0  0  0
    8.3187   -9.2686    0.0000 C   0  0  0  0  0  0  0  0  0  0  0  0
    9.7388   -8.0631    0.0000 C   0  0  0  0  0  0  0  0  0  0  0  0
    8.5962   -7.1379    0.0000 C   0  0  0  0  0  0  0  0  0  0  0  0
    8.9318   -7.8915    0.0000 C   0  0  0  0  0  0  0  0  0  0  0  0
    8.3187   -8.4436    0.0000 C   0  0  1  0  0  0  0  0  0  0  0  0
    7.6042   -8.0311    0.0000 C   0  0  1  0  0  0  0  0  0  0  0  0
    6.8898   -7.6186    0.0000 H   0  0  0  0  0  0  0  0  0  0  0  0
    6.8898   -8.4436    0.0000 C   0  0  1  0  0  0  0  0  0  0  0  0
    6.1753   -7.2061    0.0000 C   0  0  0  0  0  0  0  0  0  0  0  0
    6.1753   -8.0311    0.0000 C   0  0  2  0  0  0  0  0  0  0  0  0
    5.4608   -8.4436    0.0000 C   0  0  0  0  0  0  0  0  0  0  0  0
    5.4608   -9.2686    0.0000 C   0  0  0  0  0  0  0  0  0  0  0  0
    6.1753   -9.6811    0.0000 C   0  0  1  0  0  0  0  0  0  0  0  0
 14  1  1  1  0  0  0
  5 15  1  0  0  0  0
 22  2  1  6  0  0  0
 15  3  1  1  0  0  0
 20  4  2  0  0  0  0
 12  5  1  0  0  0  0
 12  6  2  0  0  0  0
 22  8  1  0  0  0  0
 17  8  1  0  0  0  0
  8  7  1  6  0  0  0
  9  8  1  0  0  0  0
 10  9  1  0  0  0  0
 14 10  1  0  0  0  0
 13 11  2  0  0  0  0
 13 12  1  0  0  0  0
 14 13  1  0  0  0  0
 15 14  1  0  0  0  0
 17 15  1  0  0  0  0
 17 16  1  1  0  0  0
 19 17  1  0  0  0  0
 19 18  1  1  0  0  0
 20 19  1  0  0  0  0
 21 20  1  0  0  0  0
 22 21  1  0  0  0  0
M  END
>  <cdx:fragmentId>
5

$$$$
