300722.cdx
  Mrv1902 05222410242D          

 17 18  0  0  0  0            999 V2000
    4.1640   -7.2640    0.0000 C   0  0  0  0  0  0  0  0  0  0  0  0
    4.8785   -6.8515    0.0000 C   0  0  0  0  0  0  0  0  0  0  0  0
    5.5930   -7.2640    0.0000 C   0  0  0  0  0  0  0  0  0  0  0  0
    3.4495   -6.8515    0.0000 O   0  0  0  0  0  0  0  0  0  0  0  0
    4.8785   -6.0265    0.0000 C   0  0  0  0  0  0  0  0  0  0  0  0
    8.5210   -5.7716    0.0000 C   0  0  0  0  0  0  0  0  0  0  0  0
    9.0059   -6.4390    0.0000 C   0  0  0  0  0  0  0  0  0  0  0  0
    8.5210   -7.1065    0.0000 C   0  0  0  0  0  0  0  0  0  0  0  0
    7.7364   -6.8515    0.0000 C   0  0  0  0  0  0  0  0  0  0  0  0
    7.0219   -7.2640    0.0000 C   0  0  0  0  0  0  0  0  0  0  0  0
    6.3074   -6.8515    0.0000 C   0  0  1  0  0  0  0  0  0  0  0  0
    6.3074   -6.0265    0.0000 C   0  0  0  0  0  0  0  0  0  0  0  0
    7.0219   -5.6140    0.0000 C   0  0  2  0  0  0  0  0  0  0  0  0
    7.7364   -6.0265    0.0000 C   0  0  1  0  0  0  0  0  0  0  0  0
    7.0219   -4.7890    0.0000 C   0  0  0  0  0  0  0  0  0  0  0  0
    8.7759   -7.8911    0.0000 C   0  0  0  0  0  0  0  0  0  0  0  0
    7.8226   -5.2061    0.0000 H   0  0  0  0  0  0  0  0  0  0  0  0
  1  2  1  0  0  0  0
  2  3  2  0  0  0  0
  1  4  1  0  0  0  0
  2  5  1  0  0  0  0
  6  7  1  0  0  0  0
  7  8  1  0  0  0  0
  8  9  2  0  0  0  0
  9 10  1  0  0  0  0
 10 11  1  0  0  0  0
 11 12  1  0  0  0  0
 12 13  1  0  0  0  0
 13 14  1  0  0  0  0
  6 14  1  0  0  0  0
  9 14  1  0  0  0  0
 13 15  1  1  0  0  0
  8 16  1  0  0  0  0
 11  3  1  6  0  0  0
 14 17  1  6  0  0  0
M  END
>  <cdx:fragmentId>
2690

$$$$
