300761.cdx
  Mrv1902 05222410182D          

 71 78  0  0  0  0            999 V2000
    4.6850   -7.6429    0.0000 C   0  0  0  0  0  0  0  0  0  0  0  0
    3.9803   -8.0719    0.0000 C   0  0  0  0  0  0  0  0  0  0  0  0
    3.9994   -8.8967    0.0000 C   0  0  1  0  0  0  0  0  0  0  0  0
    4.7233   -9.2925    0.0000 C   0  0  1  0  0  0  0  0  0  0  0  0
    5.4280   -8.8635    0.0000 C   0  0  2  0  0  0  0  0  0  0  0  0
    6.1518   -9.2593    0.0000 C   0  0  0  0  0  0  0  0  0  0  0  0
    6.8565   -8.8303    0.0000 C   0  0  0  0  0  0  0  0  0  0  0  0
    6.8374   -8.0055    0.0000 C   0  0  1  0  0  0  0  0  0  0  0  0
    7.5421   -7.5765    0.0000 C   0  0  2  0  0  0  0  0  0  0  0  0
    8.2659   -7.9723    0.0000 C   0  0  0  0  0  0  0  0  0  0  0  0
    8.9706   -7.5433    0.0000 C   0  0  0  0  0  0  0  0  0  0  0  0
    8.9515   -6.7186    0.0000 C   0  0  1  0  0  0  0  0  0  0  0  0
    9.6562   -6.2896    0.0000 C   0  0  0  0  0  0  0  0  0  0  0  0
    9.6370   -5.4648    0.0000 C   0  0  0  0  0  0  0  0  0  0  0  0
    8.9131   -5.0690    0.0000 C   0  0  0  0  0  0  0  0  0  0  0  0
    8.2084   -5.4980    0.0000 C   0  0  0  0  0  0  0  0  0  0  0  0
    8.2276   -6.3228    0.0000 C   0  0  1  0  0  0  0  0  0  0  0  0
    7.5229   -6.7518    0.0000 C   0  0  0  0  0  0  0  0  0  0  0  0
    6.7990   -6.3560    0.0000 C   0  0  0  0  0  0  0  0  0  0  0  0
    6.0943   -6.7850    0.0000 C   0  0  0  0  0  0  0  0  0  0  0  0
    6.1135   -7.6097    0.0000 C   0  0  2  0  0  0  0  0  0  0  0  0
    5.4088   -8.0387    0.0000 C   0  0  1  0  0  0  0  0  0  0  0  0
    5.4088   -7.2137    0.0000 C   0  0  0  0  0  0  0  0  0  0  0  0
    8.4841   -4.3643    0.0000 C   0  0  0  0  0  0  0  0  0  0  0  0
    9.3089   -4.3452    0.0000 C   0  0  0  0  0  0  0  0  0  0  0  0
    9.6753   -7.1144    0.0000 C   0  0  0  0  0  0  0  0  0  0  0  0
    7.5612   -8.4013    0.0000 C   0  0  0  0  0  0  0  0  0  0  0  0
    6.8374   -7.1805    0.0000 C   0  0  0  0  0  0  0  0  0  0  0  0
    4.3108  -10.0070    0.0000 C   0  0  0  0  0  0  0  0  0  0  0  0
    5.4472   -9.6883    0.0000 H   0  0  0  0  0  0  0  0  0  0  0  0
    7.5037   -5.9270    0.0000 H   0  0  0  0  0  0  0  0  0  0  0  0
    6.1135   -8.4347    0.0000 H   0  0  0  0  0  0  0  0  0  0  0  0
    3.2947   -9.3257    0.0000 O   0  0  0  0  0  0  0  0  0  0  0  0
    0.3993   -7.7425    0.0000 O   0  0  0  0  0  0  0  0  0  0  0  0
    0.4376   -9.3921    0.0000 O   0  0  0  0  0  0  0  0  0  0  0  0
    1.8853  -10.1837    0.0000 O   0  0  0  0  0  0  0  0  0  0  0  0
    1.0848   -6.4888    0.0000 O   0  0  0  0  0  0  0  0  0  0  0  0
    1.8087   -6.8846    0.0000 C   0  0  0  0  0  0  0  0  0  0  0  0
    2.5709   -8.9299    0.0000 C   0  0  1  0  0  0  0  0  0  0  0  0
    1.8662   -9.3589    0.0000 C   0  0  1  0  0  0  0  0  0  0  0  0
    1.1423   -8.9631    0.0000 C   0  0  2  0  0  0  0  0  0  0  0  0
    1.1231   -8.1383    0.0000 C   0  0  1  0  0  0  0  0  0  0  0  0
    1.8278   -7.7093    0.0000 C   0  0  2  0  0  0  0  0  0  0  0  0
    2.5517   -8.1051    0.0000 O   0  0  0  0  0  0  0  0  0  0  0  0
    5.1358  -10.0070    0.0000 C   0  0  0  0  0  0  0  0  0  0  0  0
   10.3800   -6.6854    0.0000 O   0  0  0  0  0  0  0  0  0  0  0  0
    9.6945   -7.9391    0.0000 O   0  0  0  0  0  0  0  0  0  0  0  0
    4.7233  -10.7214    0.0000 O   0  0  0  0  0  0  0  0  0  0  0  0
    5.9608  -10.0070    0.0000 O   0  0  0  0  0  0  0  0  0  0  0  0
   11.0934   -7.0997    0.0000 C   0  0  2  0  0  0  0  0  0  0  0  0
   11.1011   -7.9246    0.0000 O   0  0  0  0  0  0  0  0  0  0  0  0
   11.8194   -8.3305    0.0000 C   0  0  1  0  0  0  0  0  0  0  0  0
   12.5300   -7.9113    0.0000 C   0  0  2  0  0  0  0  0  0  0  0  0
   12.5223   -7.0863    0.0000 C   0  0  1  0  0  0  0  0  0  0  0  0
   11.8040   -6.6805    0.0000 C   0  0  1  0  0  0  0  0  0  0  0  0
   11.8271   -9.1554    0.0000 C   0  0  0  0  0  0  0  0  0  0  0  0
   13.2329   -6.6672    0.0000 O   0  0  0  0  0  0  0  0  0  0  0  0
   13.2483   -8.3171    0.0000 O   0  0  0  0  0  0  0  0  0  0  0  0
   11.7963   -5.8556    0.0000 O   0  0  0  0  0  0  0  0  0  0  0  0
   12.5454   -9.5612    0.0000 O   0  0  0  0  0  0  0  0  0  0  0  0
   12.5531  -10.3862    0.0000 C   0  0  2  0  0  0  0  0  0  0  0  0
   11.8368  -10.7954    0.0000 O   0  0  0  0  0  0  0  0  0  0  0  0
   11.8368  -11.6204    0.0000 C   0  0  1  0  0  0  0  0  0  0  0  0
   12.5531  -12.0362    0.0000 C   0  0  2  0  0  0  0  0  0  0  0  0
   13.2694  -11.6204    0.0000 C   0  0  1  0  0  0  0  0  0  0  0  0
   13.2694  -10.7954    0.0000 C   0  0  1  0  0  0  0  0  0  0  0  0
   11.1218  -12.0321    0.0000 C   0  0  0  0  0  0  0  0  0  0  0  0
   13.9844  -12.0321    0.0000 O   0  0  0  0  0  0  0  0  0  0  0  0
   12.5531  -12.8612    0.0000 O   0  0  0  0  0  0  0  0  0  0  0  0
   13.9830  -10.3813    0.0000 O   0  0  0  0  0  0  0  0  0  0  0  0
   11.1209  -12.8571    0.0000 O   0  0  0  0  0  0  0  0  0  0  0  0
 39 33  1  1  0  0  0
 42 34  1  6  0  0  0
 41 35  1  1  0  0  0
 40 36  1  6  0  0  0
 43 38  1  1  0  0  0
 38 37  1  0  0  0  0
 44 39  1  0  0  0  0
 40 39  1  0  0  0  0
 41 40  1  0  0  0  0
 42 41  1  0  0  0  0
 43 42  1  0  0  0  0
 44 43  1  0  0  0  0
  1  2  1  0  0  0  0
  2  3  1  0  0  0  0
  3  4  1  0  0  0  0
  4  5  1  0  0  0  0
  5  6  1  0  0  0  0
  6  7  1  0  0  0  0
  7  8  1  0  0  0  0
  8  9  1  0  0  0  0
  9 10  1  0  0  0  0
 10 11  1  0  0  0  0
 11 12  1  0  0  0  0
 12 13  1  0  0  0  0
 13 14  1  0  0  0  0
 14 15  1  0  0  0  0
 15 16  1  0  0  0  0
 16 17  1  0  0  0  0
 12 17  1  0  0  0  0
 17 18  1  0  0  0  0
  9 18  1  0  0  0  0
 18 19  2  0  0  0  0
 19 20  1  0  0  0  0
 20 21  1  0  0  0  0
  8 21  1  0  0  0  0
 21 22  1  0  0  0  0
  5 22  1  0  0  0  0
  1 22  1  0  0  0  0
 22 23  1  1  0  0  0
 15 24  1  0  0  0  0
 15 25  1  0  0  0  0
 12 26  1  1  0  0  0
  9 27  1  6  0  0  0
  8 28  1  1  0  0  0
  4 29  1  1  0  0  0
  3 33  1  1  0  0  0
  5 30  1  6  0  0  0
 17 31  1  1  0  0  0
 21 32  1  6  0  0  0
  4 45  1  6  0  0  0
 26 46  1  0  0  0  0
 26 47  2  0  0  0  0
 45 48  1  0  0  0  0
 45 49  2  0  0  0  0
 50 46  1  1  0  0  0
 50 51  1  0  0  0  0
 51 52  1  0  0  0  0
 52 53  1  0  0  0  0
 53 54  1  0  0  0  0
 54 55  1  0  0  0  0
 55 50  1  0  0  0  0
 52 56  1  1  0  0  0
 54 57  1  1  0  0  0
 53 58  1  6  0  0  0
 55 59  1  6  0  0  0
 56 60  1  0  0  0  0
 61 60  1  1  0  0  0
 61 62  1  0  0  0  0
 62 63  1  0  0  0  0
 63 64  1  0  0  0  0
 64 65  1  0  0  0  0
 65 66  1  0  0  0  0
 66 61  1  0  0  0  0
 63 67  1  1  0  0  0
 65 68  1  1  0  0  0
 64 69  1  6  0  0  0
 66 70  1  6  0  0  0
 67 71  1  0  0  0  0
M  END
>  <cdx:fragmentId>
94679

$$$$
