300781.cdx
  Mrv1902 05222410262D          

 19 19  0  0  0  0            999 V2000
    9.9833   -7.5876    0.0000 C   0  0  0  0  0  0  0  0  0  0  0  0
    9.9833   -6.7626    0.0000 C   0  0  0  0  0  0  0  0  0  0  0  0
   10.6978   -6.3501    0.0000 C   0  0  0  0  0  0  0  0  0  0  0  0
   11.4122   -6.7626    0.0000 C   0  0  0  0  0  0  0  0  0  0  0  0
   11.4122   -7.5876    0.0000 C   0  0  0  0  0  0  0  0  0  0  0  0
   10.6978   -8.0001    0.0000 C   0  0  0  0  0  0  0  0  0  0  0  0
    9.2688   -8.8251    0.0000 C   0  0  0  0  0  0  0  0  0  0  0  0
    9.2688   -8.0001    0.0000 C   0  0  0  0  0  0  0  0  0  0  0  0
    8.5544   -7.5876    0.0000 C   0  0  0  0  0  0  0  0  0  0  0  0
    7.8399   -8.0001    0.0000 C   0  0  0  0  0  0  0  0  0  0  0  0
    7.1254   -7.5876    0.0000 C   0  0  0  0  0  0  0  0  0  0  0  0
    6.4109   -8.0001    0.0000 C   0  0  0  0  0  0  0  0  0  0  0  0
    5.6965   -7.5876    0.0000 C   0  0  0  0  0  0  0  0  0  0  0  0
    4.9820   -8.0001    0.0000 C   0  0  0  0  0  0  0  0  0  0  0  0
    4.2675   -7.5876    0.0000 C   0  0  0  0  0  0  0  0  0  0  0  0
    3.5531   -8.0001    0.0000 C   0  0  0  0  0  0  0  0  0  0  0  0
    2.8386   -7.5876    0.0000 C   0  0  0  0  0  0  0  0  0  0  0  0
    2.1241   -8.0001    0.0000 C   0  0  0  0  0  0  0  0  0  0  0  0
    1.4096   -7.5876    0.0000 C   0  0  0  0  0  0  0  0  0  0  0  0
  1  2  1  0  0  0  0
  2  3  2  0  0  0  0
  3  4  1  0  0  0  0
  4  5  2  0  0  0  0
  5  6  1  0  0  0  0
  1  6  2  0  0  0  0
  7  8  1  0  0  0  0
  8  9  1  0  0  0  0
  9 10  1  0  0  0  0
 10 11  1  0  0  0  0
 11 12  1  0  0  0  0
 12 13  1  0  0  0  0
 13 14  1  0  0  0  0
 14 15  1  0  0  0  0
 15 16  1  0  0  0  0
 16 17  1  0  0  0  0
 17 18  1  0  0  0  0
 18 19  1  0  0  0  0
  1  8  1  0  0  0  0
M  END
>  <cdx:fragmentId>
1317

$$$$
