300772.cdx
  Mrv1902 05222410202D          

 49 56  0  0  0  0            999 V2000
   10.7661   -8.6248    0.0000 O   0  0  0  0  0  0  0  0  0  0  0  0
    9.4091   -9.0725    0.0000 O   0  0  0  0  0  0  0  0  0  0  0  0
    9.9189   -6.2414    0.0000 C   0  0  2  0  0  0  0  0  0  0  0  0
    9.1446   -6.9542    0.0000 C   0  0  0  0  0  0  0  0  0  0  0  0
    8.3611   -7.2127    0.0000 C   0  0  1  0  0  0  0  0  0  0  0  0
    7.6448   -6.8034    0.0000 C   0  0  0  0  0  0  0  0  0  0  0  0
    6.9322   -7.2192    0.0000 C   0  0  0  0  0  0  0  0  0  0  0  0
    6.9359   -8.0441    0.0000 C   0  0  1  0  0  0  0  0  0  0  0  0
    6.2196   -7.6349    0.0000 C   0  0  0  0  0  0  0  0  0  0  0  0
    6.2233   -8.4599    0.0000 C   0  0  1  0  0  0  0  0  0  0  0  0
    5.5070   -8.0506    0.0000 C   0  0  0  0  0  0  0  0  0  0  0  0
    4.7944   -8.4663    0.0000 C   0  0  0  0  0  0  0  0  0  0  0  0
    4.7982   -9.2913    0.0000 C   0  0  1  0  0  0  0  0  0  0  0  0
    5.5145   -9.7006    0.0000 C   0  0  0  0  0  0  0  0  0  0  0  0
    6.2271   -9.2849    0.0000 C   0  0  2  0  0  0  0  0  0  0  0  0
    6.9434   -9.6941    0.0000 C   0  0  0  0  0  0  0  0  0  0  0  0
    7.6560   -9.2784    0.0000 C   0  0  0  0  0  0  0  0  0  0  0  0
    7.6523   -8.4534    0.0000 C   0  0  1  0  0  0  0  0  0  0  0  0
    8.3649   -8.0377    0.0000 C   0  0  2  0  0  0  0  0  0  0  0  0
    9.1506   -8.2891    0.0000 C   0  0  2  0  0  0  0  0  0  0  0  0
    9.6325   -7.6194    0.0000 C   0  0  2  0  0  0  0  0  0  0  0  0
   10.3954   -7.4203    0.0000 O   0  0  0  0  0  0  0  0  0  0  0  0
   10.8900   -5.9950    0.0000 C   0  0  1  0  0  0  0  0  0  0  0  0
   10.5875   -4.8950    0.0000 C   0  0  0  0  0  0  0  0  0  0  0  0
    9.5811   -5.1989    0.0000 C   0  0  0  0  0  0  0  0  0  0  0  0
   11.8250   -6.7375    0.0000 O   0  0  0  0  0  0  0  0  0  0  0  0
    4.0856   -9.7071    0.0000 O   0  0  0  0  0  0  0  0  0  0  0  0
    3.3805   -8.4642    0.0000 O   0  0  0  0  0  0  0  0  0  0  0  0
    3.3742   -9.2892    0.0000 C   0  0  2  0  0  0  0  0  0  0  0  0
    2.6567   -9.6962    0.0000 C   0  0  1  0  0  0  0  0  0  0  0  0
    1.9453   -9.2783    0.0000 C   0  0  2  0  0  0  0  0  0  0  0  0
    1.9516   -8.4533    0.0000 C   0  0  1  0  0  0  0  0  0  0  0  0
    2.6692   -8.0463    0.0000 C   0  0  0  0  0  0  0  0  0  0  0  0
    1.2403   -8.0354    0.0000 O   0  0  0  0  0  0  0  0  0  0  0  0
    1.2278   -9.6854    0.0000 O   0  0  0  0  0  0  0  0  0  0  0  0
    2.6504  -10.5212    0.0000 O   0  0  0  0  0  0  0  0  0  0  0  0
    8.3686   -8.8627    0.0000 C   0  0  0  0  0  0  0  0  0  0  0  0
    5.9302  -10.4132    0.0000 C   0  0  0  0  0  0  0  0  0  0  0  0
    5.1052  -10.4169    0.0000 C   0  0  0  0  0  0  0  0  0  0  0  0
    8.3574   -6.3877    0.0000 C   0  0  0  0  0  0  0  0  0  0  0  0
    9.1221   -6.0279    0.0000 C   0  0  0  0  0  0  0  0  0  0  0  0
    6.2308  -10.1099    0.0000 H   0  0  0  0  0  0  0  0  0  0  0  0
    7.6485   -7.6284    0.0000 H   0  0  0  0  0  0  0  0  0  0  0  0
   10.4754  -10.0238    0.0000 C   0  0  0  0  0  0  0  0  0  0  0  0
   10.2169   -9.2404    0.0000 C   0  0  0  0  0  0  0  0  0  0  0  0
   11.6045   -5.5825    0.0000 C   0  0  0  0  0  0  0  0  0  0  0  0
   12.3189   -5.9950    0.0000 C   0  0  0  0  0  0  0  0  0  0  0  0
   11.6045   -4.7575    0.0000 C   0  0  0  0  0  0  0  0  0  0  0  0
   12.3189   -5.1700    0.0000 O   0  0  0  0  0  0  0  0  0  0  0  0
 45  1  2  0  0  0  0
 45 44  1  0  0  0  0
 45  2  1  0  0  0  0
  3  4  1  0  0  0  0
  4  5  1  0  0  0  0
  5  6  1  0  0  0  0
  6  7  1  0  0  0  0
  7  8  1  0  0  0  0
  8  9  1  1  0  0  0
 10  9  1  1  0  0  0
 10 11  1  0  0  0  0
 11 12  1  0  0  0  0
 12 13  1  0  0  0  0
 13 14  1  0  0  0  0
 14 15  1  0  0  0  0
 15 16  1  0  0  0  0
 16 17  1  0  0  0  0
 17 18  1  0  0  0  0
 18 19  1  0  0  0  0
 19 20  1  0  0  0  0
 20 21  1  0  0  0  0
 21 22  1  1  0  0  0
 22 23  1  0  0  0  0
 23 24  1  0  0  0  0
 24 25  1  0  0  0  0
  3 25  1  0  0  0  0
  3 26  1  0  0  0  0
 23 26  1  0  0  0  0
  4 21  1  0  0  0  0
  5 19  1  0  0  0  0
  8 10  1  0  0  0  0
  8 18  1  0  0  0  0
 10 15  1  0  0  0  0
 28 29  1  0  0  0  0
 29 30  1  0  0  0  0
 30 31  1  0  0  0  0
 31 32  1  0  0  0  0
 32 33  1  0  0  0  0
 28 33  1  0  0  0  0
 32 34  1  6  0  0  0
 31 35  1  1  0  0  0
 30 36  1  6  0  0  0
 29 27  1  1  0  0  0
 13 27  1  1  0  0  0
 19 37  1  6  0  0  0
 14 38  1  0  0  0  0
 14 39  1  0  0  0  0
  5 40  1  1  0  0  0
  3 41  1  1  0  0  0
 20  2  1  6  0  0  0
 15 42  1  6  0  0  0
 18 43  1  1  0  0  0
 23 46  1  6  0  0  0
 46 47  1  0  0  0  0
 46 48  1  0  0  0  0
 46 49  1  0  0  0  0
M  END
>  <cdx:fragmentId>
795

$$$$
