30076.cdx
  Mrv1902 05222410262D          

  7  7  0  0  0  0            999 V2000
    7.4578   -4.8135    0.0000 N   0  0  0  0  0  0  0  0  0  0  0  0
    7.4458   -5.6384    0.0000 C   0  0  0  0  0  0  0  0  0  0  0  0
    8.1542   -6.0612    0.0000 C   0  0  0  0  0  0  0  0  0  0  0  0
    8.1422   -6.8862    0.0000 C   0  0  0  0  0  0  0  0  0  0  0  0
    7.4218   -7.2882    0.0000 C   0  0  0  0  0  0  0  0  0  0  0  0
    6.7134   -6.8654    0.0000 C   0  0  0  0  0  0  0  0  0  0  0  0
    6.7254   -6.0405    0.0000 C   0  0  0  0  0  0  0  0  0  0  0  0
  1  2  1  0  0  0  0
  2  3  1  0  0  0  0
  3  4  2  0  0  0  0
  4  5  1  0  0  0  0
  5  6  2  0  0  0  0
  6  7  1  0  0  0  0
  2  7  2  0  0  0  0
M  END
>  <cdx:fragmentId>
1123

$$$$
