300719.cdx
  Mrv1902 05222410252D          

 11 11  0  0  0  0            999 V2000
    6.4416   -7.1658    0.0000 C   0  0  0  0  0  0  0  0  0  0  0  0
    5.7271   -6.7533    0.0000 C   0  0  0  0  0  0  0  0  0  0  0  0
    5.7271   -5.9283    0.0000 C   0  0  0  0  0  0  0  0  0  0  0  0
    6.4416   -5.5158    0.0000 C   0  0  0  0  0  0  0  0  0  0  0  0
    7.1561   -5.9283    0.0000 C   0  0  0  0  0  0  0  0  0  0  0  0
    7.1561   -6.7533    0.0000 N   0  0  0  0  0  0  0  0  0  0  0  0
    7.8706   -7.1658    0.0000 C   0  0  0  0  0  0  0  0  0  0  0  0
    5.0127   -5.5158    0.0000 O   0  0  0  0  0  0  0  0  0  0  0  0
    4.2982   -5.9283    0.0000 C   0  0  0  0  0  0  0  0  0  0  0  0
    5.0127   -7.1658    0.0000 O   0  0  0  0  0  0  0  0  0  0  0  0
    4.2982   -6.7533    0.0000 C   0  0  0  0  0  0  0  0  0  0  0  0
  1  2  1  0  0  0  0
  2  3  2  0  0  0  0
  3  4  1  0  0  0  0
  4  5  2  0  0  0  0
  5  6  1  0  0  0  0
  1  6  1  0  0  0  0
  6  7  1  0  0  0  0
  8  9  1  0  0  0  0
  3  8  1  0  0  0  0
 10 11  1  0  0  0  0
  2 10  1  0  0  0  0
M  END
>  <cdx:fragmentId>
2358

$$$$
