300724.cdx
  Mrv1902 05222410252D          

 41 45  0  0  0  0            999 V2000
    4.4732   -7.4895    0.0000 O   0  0  0  0  0  0  0  0  0  0  0  0
    4.9345   -8.1734    0.0000 C   0  0  0  0  0  0  0  0  0  0  0  0
    5.7275   -7.9460    0.0000 O   0  0  0  0  0  0  0  0  0  0  0  0
    5.7563   -7.1215    0.0000 C   0  0  0  0  0  0  0  0  0  0  0  0
    4.9811   -6.8394    0.0000 C   0  0  0  0  0  0  0  0  0  0  0  0
    6.3883   -6.5912    0.0000 C   0  0  0  0  0  0  0  0  0  0  0  0
    6.2451   -5.7788    0.0000 C   0  0  0  0  0  0  0  0  0  0  0  0
    5.4698   -5.4966    0.0000 C   0  0  0  0  0  0  0  0  0  0  0  0
    4.8378   -6.0269    0.0000 C   0  0  0  0  0  0  0  0  0  0  0  0
    5.3266   -4.6841    0.0000 C   0  0  0  0  0  0  0  0  0  0  0  0
    4.5513   -4.4020    0.0000 C   0  0  0  0  0  0  0  0  0  0  0  0
    3.9193   -4.9323    0.0000 C   0  0  0  0  0  0  0  0  0  0  0  0
    3.1441   -4.6501    0.0000 C   0  0  0  0  0  0  0  0  0  0  0  0
    2.5121   -5.1804    0.0000 C   0  0  0  0  0  0  0  0  0  0  0  0
    2.6554   -5.9929    0.0000 C   0  0  0  0  0  0  0  0  0  0  0  0
    3.4306   -6.2750    0.0000 C   0  0  0  0  0  0  0  0  0  0  0  0
    4.0626   -5.7447    0.0000 C   0  0  0  0  0  0  0  0  0  0  0  0
    6.9595   -5.3663    0.0000 C   0  0  0  0  0  0  0  0  0  0  0  0
    6.9595   -4.5413    0.0000 O   0  0  0  0  0  0  0  0  0  0  0  0
    7.6740   -5.7788    0.0000 O   0  0  0  0  0  0  0  0  0  0  0  0
    5.8569   -4.0522    0.0000 N   0  3  0  0  0  0  0  0  0  0  0  0
    5.5747   -3.2769    0.0000 O   0  0  0  0  0  0  0  0  0  0  0  0
    6.6693   -4.1954    0.0000 O   0  5  0  0  0  0  0  0  0  0  0  0
    3.0008   -3.8376    0.0000 O   0  0  0  0  0  0  0  0  0  0  0  0
    2.2256   -3.5555    0.0000 C   0  0  0  0  0  0  0  0  0  0  0  0
    7.6740   -6.6038    0.0000 C   0  0  1  0  0  0  0  0  0  0  0  0
    8.3885   -7.0163    0.0000 C   0  0  0  0  0  0  0  0  0  0  0  0
    9.1030   -6.6038    0.0000 C   0  0  0  0  0  0  0  0  0  0  0  0
    9.8174   -7.0163    0.0000 C   0  0  0  0  0  0  0  0  0  0  0  0
    9.8174   -7.8413    0.0000 C   0  0  0  0  0  0  0  0  0  0  0  0
    9.1030   -8.2538    0.0000 C   0  0  0  0  0  0  0  0  0  0  0  0
    9.1030   -9.0788    0.0000 C   0  0  0  0  0  0  0  0  0  0  0  0
    8.3885   -9.4913    0.0000 C   0  0  0  0  0  0  0  0  0  0  0  0
    7.6740   -9.0788    0.0000 C   0  0  0  0  0  0  0  0  0  0  0  0
    7.6740   -8.2538    0.0000 C   0  0  0  0  0  0  0  0  0  0  0  0
    6.9595   -7.8413    0.0000 C   0  0  0  0  0  0  0  0  0  0  0  0
    6.9595   -7.0163    0.0000 C   0  0  0  0  0  0  0  0  0  0  0  0
    6.2451   -8.2538    0.0000 C   0  0  0  0  0  0  0  0  0  0  0  0
    9.8174   -9.4913    0.0000 C   0  0  0  0  0  0  0  0  0  0  0  0
    9.1030   -5.7788    0.0000 C   0  0  0  0  0  0  0  0  0  0  0  0
    9.8174   -5.3663    0.0000 O   0  0  0  0  0  0  0  0  0  0  0  0
  1  2  1  0  0  0  0
  2  3  1  0  0  0  0
  3  4  1  0  0  0  0
  4  5  1  0  0  0  0
  1  5  1  0  0  0  0
  6  7  1  0  0  0  0
  7  8  2  0  0  0  0
  8  9  1  0  0  0  0
  5  9  2  0  0  0  0
  4  6  2  0  0  0  0
 10 11  2  0  0  0  0
 11 12  1  0  0  0  0
 12 13  2  0  0  0  0
 13 14  1  0  0  0  0
 14 15  2  0  0  0  0
 15 16  1  0  0  0  0
 16 17  2  0  0  0  0
 12 17  1  0  0  0  0
  8 10  1  0  0  0  0
  9 17  1  0  0  0  0
 18 19  2  0  0  0  0
 18 20  1  0  0  0  0
  7 18  1  0  0  0  0
 21 22  2  0  0  0  0
 21 23  1  0  0  0  0
 10 21  1  0  0  0  0
 24 25  1  0  0  0  0
 13 24  1  0  0  0  0
 26 27  1  0  0  0  0
 27 28  2  0  0  0  0
 28 29  1  0  0  0  0
 29 30  1  0  0  0  0
 30 31  1  0  0  0  0
 31 32  2  0  0  0  0
 32 33  1  0  0  0  0
 33 34  1  0  0  0  0
 34 35  1  0  0  0  0
 35 36  2  0  0  0  0
 36 37  1  0  0  0  0
 26 37  1  0  0  0  0
 36 38  1  0  0  0  0
 32 39  1  0  0  0  0
 40 41  2  0  0  0  0
 28 40  1  0  0  0  0
 26 20  1  1  0  0  0
M  CHG  2  21   1  23  -1
M  END
>  <cdx:fragmentId>
2791

$$$$
