300725.cdx
  Mrv1902 05222410252D          

 17 19  0  0  0  0            999 V2000
    7.0768   -5.9771    0.0000 C   0  0  0  0  0  0  0  0  0  0  0  0
    7.5617   -6.6446    0.0000 C   0  0  0  0  0  0  0  0  0  0  0  0
    7.0768   -7.3120    0.0000 C   0  0  0  0  0  0  0  0  0  0  0  0
    6.2922   -7.0571    0.0000 C   0  0  0  0  0  0  0  0  0  0  0  0
    5.6472   -7.5715    0.0000 C   0  0  0  0  0  0  0  0  0  0  0  0
    4.8429   -7.3879    0.0000 C   0  0  0  0  0  0  0  0  0  0  0  0
    4.4849   -6.6446    0.0000 C   0  0  0  0  0  0  0  0  0  0  0  0
    4.8429   -5.9013    0.0000 C   0  0  0  0  0  0  0  0  0  0  0  0
    5.6472   -5.7177    0.0000 C   0  0  0  0  0  0  0  0  0  0  0  0
    6.2922   -6.2321    0.0000 C   0  0  0  0  0  0  0  0  0  0  0  0
    5.0860   -5.1129    0.0000 C   0  0  0  0  0  0  0  0  0  0  0  0
    6.2083   -8.1762    0.0000 O   0  0  0  0  0  0  0  0  0  0  0  0
    6.9053   -5.1702    0.0000 O   0  0  0  0  0  0  0  0  0  0  0  0
    7.6899   -5.4251    0.0000 C   0  0  0  0  0  0  0  0  0  0  0  0
    5.4040   -8.3598    0.0000 C   0  0  0  0  0  0  0  0  0  0  0  0
    4.5249   -4.5082    0.0000 C   0  0  0  0  0  0  0  0  0  0  0  0
    5.3292   -4.3246    0.0000 C   0  0  0  0  0  0  0  0  0  0  0  0
  1  2  1  0  0  0  0
  2  3  1  0  0  0  0
  3  4  1  0  0  0  0
  4  5  1  0  0  0  0
  5  6  1  0  0  0  0
  6  7  1  0  0  0  0
  7  8  1  0  0  0  0
  8  9  1  0  0  0  0
  9 10  1  0  0  0  0
  1 10  1  0  0  0  0
  4 10  1  0  0  0  0
  8 11  1  0  0  0  0
  9 11  1  0  0  0  0
  5 12  1  0  0  0  0
  1 13  1  0  0  0  0
  1 14  1  0  0  0  0
  5 15  1  0  0  0  0
 11 16  1  0  0  0  0
 11 17  1  0  0  0  0
M  END
>  <cdx:fragmentId>
2928

$$$$
