300709.cdx
  Mrv1902 05222410232D          

 10 10  0  0  0  0            999 V2000
    5.0689   -7.1888    0.0000 O   0  0  0  0  0  0  0  0  0  0  0  0
    5.0689   -6.3638    0.0000 C   0  0  0  0  0  0  0  0  0  0  0  0
    5.8535   -6.1088    0.0000 C   0  0  1  0  0  0  0  0  0  0  0  0
    6.3384   -6.7763    0.0000 C   0  0  1  0  0  0  0  0  0  0  0  0
    5.8535   -7.4437    0.0000 C   0  0  0  0  0  0  0  0  0  0  0  0
    4.4014   -5.8788    0.0000 O   0  0  0  0  0  0  0  0  0  0  0  0
    6.1084   -5.3242    0.0000 O   0  0  0  0  0  0  0  0  0  0  0  0
    7.0529   -6.3638    0.0000 O   0  0  0  0  0  0  0  0  0  0  0  0
    7.0529   -7.1888    0.0000 C   0  0  0  0  0  0  0  0  0  0  0  0
    7.7673   -6.7763    0.0000 O   0  0  0  0  0  0  0  0  0  0  0  0
  1  2  1  0  0  0  0
  2  3  1  0  0  0  0
  3  4  1  0  0  0  0
  4  5  1  0  0  0  0
  1  5  1  0  0  0  0
  2  6  1  0  0  0  0
  3  7  1  6  0  0  0
  4  8  1  6  0  0  0
  9 10  1  0  0  0  0
  4  9  1  1  0  0  0
M  END
>  <cdx:fragmentId>
1487

$$$$
