300778.cdx
  Mrv1902 05222410272D          

 17 18  0  0  0  0            999 V2000
    9.2723   -6.7959    0.0000 N   0  0  0  0  0  0  0  0  0  0  0  0
    8.5578   -7.2084    0.0000 C   0  0  0  0  0  0  0  0  0  0  0  0
    8.5578   -8.0334    0.0000 C   0  0  0  0  0  0  0  0  0  0  0  0
    7.8433   -8.4459    0.0000 C   0  0  0  0  0  0  0  0  0  0  0  0
    7.1288   -8.0334    0.0000 C   0  0  0  0  0  0  0  0  0  0  0  0
    7.1288   -7.2084    0.0000 C   0  0  0  0  0  0  0  0  0  0  0  0
    7.8433   -6.7959    0.0000 C   0  0  0  0  0  0  0  0  0  0  0  0
    9.2723   -8.4459    0.0000 C   0  0  0  0  0  0  0  0  0  0  0  0
    6.4144   -8.4459    0.0000 C   0  0  0  0  0  0  0  0  0  0  0  0
    5.6999   -8.0334    0.0000 C   0  0  0  0  0  0  0  0  0  0  0  0
    4.9854   -8.4459    0.0000 C   0  0  0  0  0  0  0  0  0  0  0  0
    4.2710   -8.0334    0.0000 C   0  0  0  0  0  0  0  0  0  0  0  0
    4.2710   -7.2084    0.0000 C   0  0  0  0  0  0  0  0  0  0  0  0
    4.9854   -6.7959    0.0000 C   0  0  0  0  0  0  0  0  0  0  0  0
    5.6999   -7.2084    0.0000 C   0  0  0  0  0  0  0  0  0  0  0  0
    3.5565   -8.4459    0.0000 C   0  0  0  0  0  0  0  0  0  0  0  0
    3.5565   -6.7959    0.0000 N   0  0  0  0  0  0  0  0  0  0  0  0
  1  2  1  0  0  0  0
  2  3  1  0  0  0  0
  3  4  2  0  0  0  0
  4  5  1  0  0  0  0
  5  6  2  0  0  0  0
  6  7  1  0  0  0  0
  2  7  2  0  0  0  0
  3  8  1  0  0  0  0
 10 11  1  0  0  0  0
 11 12  2  0  0  0  0
 12 13  1  0  0  0  0
 13 14  2  0  0  0  0
 14 15  1  0  0  0  0
 10 15  2  0  0  0  0
 12 16  1  0  0  0  0
 13 17  1  0  0  0  0
  9 10  1  0  0  0  0
  5  9  1  0  0  0  0
M  END
>  <cdx:fragmentId>
1173

$$$$
