300746.cdx
  Mrv1902 05222410282D          

 34 37  0  0  0  0            999 V2000
    4.6195   -8.5830    0.0000 C   0  0  0  0  0  0  0  0  0  0  0  0
    3.9050   -8.9955    0.0000 C   0  0  0  0  0  0  0  0  0  0  0  0
    3.9050   -9.8205    0.0000 C   0  0  0  0  0  0  0  0  0  0  0  0
    4.6195  -10.2330    0.0000 C   0  0  1  0  0  0  0  0  0  0  0  0
    5.3340   -9.8205    0.0000 C   0  0  1  0  0  0  0  0  0  0  0  0
    6.0485  -10.2330    0.0000 C   0  0  0  0  0  0  0  0  0  0  0  0
    6.7629   -9.8205    0.0000 C   0  0  0  0  0  0  0  0  0  0  0  0
    6.7629   -8.9955    0.0000 C   0  0  2  0  0  0  0  0  0  0  0  0
    7.4774   -8.5830    0.0000 C   0  0  1  0  0  0  0  0  0  0  0  0
    8.2620   -8.8380    0.0000 C   0  0  0  0  0  0  0  0  0  0  0  0
    8.7469   -8.1705    0.0000 C   0  0  0  0  0  0  0  0  0  0  0  0
    8.2620   -7.5031    0.0000 C   0  0  2  0  0  0  0  0  0  0  0  0
    7.4774   -7.7580    0.0000 C   0  0  2  0  0  0  0  0  0  0  0  0
    6.7629   -7.3455    0.0000 C   0  0  0  0  0  0  0  0  0  0  0  0
    6.0485   -7.7580    0.0000 C   0  0  0  0  0  0  0  0  0  0  0  0
    6.0485   -8.5830    0.0000 C   0  0  1  0  0  0  0  0  0  0  0  0
    5.3340   -8.9955    0.0000 C   0  0  2  0  0  0  0  0  0  0  0  0
    3.1906  -10.2330    0.0000 O   0  0  0  0  0  0  0  0  0  0  0  0
    7.9649   -6.1054    0.0000 C   0  0  0  0  0  0  0  0  0  0  0  0
    8.5170   -6.7185    0.0000 C   0  0  2  0  0  0  0  0  0  0  0  0
    9.3239   -6.5469    0.0000 C   0  0  0  0  0  0  0  0  0  0  0  0
    9.5789   -5.7623    0.0000 C   0  0  0  0  0  0  0  0  0  0  0  0
   10.3858   -5.5908    0.0000 C   0  0  0  0  0  0  0  0  0  0  0  0
   10.6408   -4.8062    0.0000 C   0  0  0  0  0  0  0  0  0  0  0  0
   10.0887   -4.1931    0.0000 C   0  0  0  0  0  0  0  0  0  0  0  0
   11.4477   -4.6346    0.0000 C   0  0  0  0  0  0  0  0  0  0  0  0
    7.4774   -9.4080    0.0000 C   0  0  0  0  0  0  0  0  0  0  0  0
    6.0485   -9.4080    0.0000 C   0  0  0  0  0  0  0  0  0  0  0  0
    5.3340  -10.6455    0.0000 C   0  0  0  0  0  0  0  0  0  0  0  0
    4.6195  -11.0580    0.0000 C   0  0  0  0  0  0  0  0  0  0  0  0
    6.7629   -8.1705    0.0000 H   0  0  0  0  0  0  0  0  0  0  0  0
    5.3340   -8.1705    0.0000 H   0  0  0  0  0  0  0  0  0  0  0  0
    7.4774   -6.9330    0.0000 C   0  0  0  0  0  0  0  0  0  0  0  0
    9.0589   -7.2895    0.0000 H   0  0  0  0  0  0  0  0  0  0  0  0
  1  2  1  0  0  0  0
  2  3  1  0  0  0  0
  3  4  1  0  0  0  0
  4  5  1  0  0  0  0
  5  6  1  0  0  0  0
  6  7  1  0  0  0  0
  7  8  1  0  0  0  0
  8  9  1  0  0  0  0
  9 10  1  0  0  0  0
 10 11  1  0  0  0  0
 11 12  1  0  0  0  0
 12 13  1  0  0  0  0
  9 13  1  0  0  0  0
 13 14  1  0  0  0  0
 14 15  1  0  0  0  0
 15 16  1  0  0  0  0
  8 16  1  0  0  0  0
 16 17  1  0  0  0  0
  5 17  1  0  0  0  0
  1 17  1  0  0  0  0
  3 18  2  0  0  0  0
 20 19  1  6  0  0  0
 20 21  1  0  0  0  0
 21 22  1  0  0  0  0
 22 23  1  0  0  0  0
 23 24  2  0  0  0  0
 24 25  1  0  0  0  0
 24 26  1  0  0  0  0
 12 20  1  0  0  0  0
  9 27  1  1  0  0  0
 16 28  1  1  0  0  0
  5 29  1  1  0  0  0
  4 30  1  1  0  0  0
  8 31  1  6  0  0  0
 17 32  1  6  0  0  0
 13 33  1  6  0  0  0
 12 34  1  1  0  0  0
M  END
>  <cdx:fragmentId>
5876

$$$$
