300748.cdx
  Mrv1902 05222410192D          

 37 38  0  0  0  0            999 V2000
    1.7970   -6.4060    0.0000 C   0  0  0  0  0  0  0  0  0  0  0  0
    2.5125   -6.8167    0.0000 C   0  0  2  0  0  0  0  0  0  0  0  0
    2.5146   -7.6417    0.0000 C   0  0  0  0  0  0  0  0  0  0  0  0
    1.8012   -8.0560    0.0000 C   0  0  0  0  0  0  0  0  0  0  0  0
    1.7949   -5.5810    0.0000 O   0  0  0  0  0  0  0  0  0  0  0  0
    1.0836   -6.8203    0.0000 O   0  0  0  0  0  0  0  0  0  0  0  0
    3.2260   -6.4024    0.0000 N   0  0  0  0  0  0  0  0  0  0  0  0
    3.9415   -6.8131    0.0000 C   0  0  0  0  0  0  0  0  0  0  0  0
    4.6549   -6.3988    0.0000 C   0  0  0  0  0  0  0  0  0  0  0  0
    5.3704   -6.8095    0.0000 C   0  0  2  0  0  0  0  0  0  0  0  0
    3.9435   -7.6381    0.0000 O   0  0  0  0  0  0  0  0  0  0  0  0
    5.3725   -7.6345    0.0000 C   0  0  0  0  0  0  0  0  0  0  0  0
    6.0880   -8.0452    0.0000 C   0  0  0  0  0  0  0  0  0  0  0  0
    6.0900   -8.8702    0.0000 C   0  0  0  0  0  0  0  0  0  0  0  0
    5.3766   -9.2845    0.0000 C   0  0  0  0  0  0  0  0  0  0  0  0
    4.6611   -8.8738    0.0000 C   0  0  0  0  0  0  0  0  0  0  0  0
    4.6590   -8.0488    0.0000 C   0  0  0  0  0  0  0  0  0  0  0  0
    6.0838   -6.3952    0.0000 N   0  0  0  0  0  0  0  0  0  0  0  0
    6.7993   -6.8059    0.0000 C   0  0  0  0  0  0  0  0  0  0  0  0
    7.5128   -6.3916    0.0000 C   0  0  2  0  0  0  0  0  0  0  0  0
    7.5107   -5.5666    0.0000 C   0  0  0  0  0  0  0  0  0  0  0  0
    6.8014   -7.6309    0.0000 O   0  0  0  0  0  0  0  0  0  0  0  0
    8.2283   -6.8023    0.0000 N   0  0  0  0  0  0  0  0  0  0  0  0
    8.9417   -6.3880    0.0000 C   0  0  0  0  0  0  0  0  0  0  0  0
    9.6572   -6.7987    0.0000 C   0  0  2  0  0  0  0  0  0  0  0  0
    9.6593   -7.6237    0.0000 C   0  0  0  0  0  0  0  0  0  0  0  0
   10.3748   -8.0344    0.0000 C   0  0  0  0  0  0  0  0  0  0  0  0
    8.9396   -5.5630    0.0000 O   0  0  0  0  0  0  0  0  0  0  0  0
   10.3706   -6.3844    0.0000 N   0  0  0  0  0  0  0  0  0  0  0  0
   11.0861   -6.7951    0.0000 C   0  0  0  0  0  0  0  0  0  0  0  0
   11.0882   -7.6201    0.0000 O   0  0  0  0  0  0  0  0  0  0  0  0
   12.5541   -6.7145    0.0000 N   0  0  0  0  0  0  0  0  0  0  0  0
   11.7996   -6.3809    0.0000 C   0  0  0  0  0  0  0  0  0  0  0  0
   11.8838   -5.5602    0.0000 C   0  0  0  0  0  0  0  0  0  0  0  0
   12.6903   -5.3866    0.0000 C   0  0  0  0  0  0  0  0  0  0  0  0
   13.1046   -6.1000    0.0000 C   0  0  0  0  0  0  0  0  0  0  0  0
    8.2241   -5.1523    0.0000 O   0  0  0  0  0  0  0  0  0  0  0  0
  1  2  1  0  0  0  0
  2  3  1  1  0  0  0
  3  4  1  0  0  0  0
  1  5  2  0  0  0  0
  1  6  1  0  0  0  0
  8  9  1  0  0  0  0
  9 10  1  0  0  0  0
  8 11  2  0  0  0  0
 12 13  1  0  0  0  0
 13 14  2  0  0  0  0
 14 15  1  0  0  0  0
 15 16  2  0  0  0  0
 16 17  1  0  0  0  0
 12 17  2  0  0  0  0
 10 12  1  1  0  0  0
 19 20  1  0  0  0  0
 20 21  1  6  0  0  0
 19 22  2  0  0  0  0
 24 25  1  0  0  0  0
 25 26  1  1  0  0  0
 26 27  1  0  0  0  0
 24 28  2  0  0  0  0
 30 31  2  0  0  0  0
 32 33  1  0  0  0  0
 33 34  2  0  0  0  0
 34 35  1  0  0  0  0
 35 36  2  0  0  0  0
 32 36  1  0  0  0  0
 30 33  1  0  0  0  0
 29 30  1  0  0  0  0
 25 29  1  0  0  0  0
 23 24  1  0  0  0  0
 20 23  1  0  0  0  0
 21 37  1  0  0  0  0
 18 19  1  0  0  0  0
 10 18  1  0  0  0  0
  7  8  1  0  0  0  0
  2  7  1  0  0  0  0
M  END
>  <cdx:fragmentId>
6046

$$$$
