300710.cdx
  Mrv1902 05222410222D          

 17 16  0  0  0  0            999 V2000
   13.2309   -4.7193    0.0000 C   0  0  0  0  0  0  0  0  0  0  0  0
   12.5165   -5.1318    0.0000 C   0  0  0  0  0  0  0  0  0  0  0  0
   11.8020   -4.7193    0.0000 C   0  0  0  0  0  0  0  0  0  0  0  0
   11.0875   -5.1318    0.0000 C   0  0  0  0  0  0  0  0  0  0  0  0
   10.3731   -4.7193    0.0000 C   0  0  0  0  0  0  0  0  0  0  0  0
    9.6586   -5.1318    0.0000 C   0  0  0  0  0  0  0  0  0  0  0  0
    8.9441   -4.7193    0.0000 C   0  0  0  0  0  0  0  0  0  0  0  0
    8.2296   -5.1318    0.0000 C   0  0  0  0  0  0  0  0  0  0  0  0
    7.4046   -5.1318    0.0000 C   0  0  0  0  0  0  0  0  0  0  0  0
    6.6902   -4.7193    0.0000 C   0  0  0  0  0  0  0  0  0  0  0  0
    5.9757   -5.1318    0.0000 C   0  0  0  0  0  0  0  0  0  0  0  0
    5.1507   -5.1318    0.0000 C   0  0  0  0  0  0  0  0  0  0  0  0
    4.4362   -4.7193    0.0000 C   0  0  0  0  0  0  0  0  0  0  0  0
    3.7218   -5.1318    0.0000 C   0  0  0  0  0  0  0  0  0  0  0  0
    2.8968   -5.1318    0.0000 C   0  0  0  0  0  0  0  0  0  0  0  0
    2.1823   -4.7193    0.0000 C   0  0  0  0  0  0  0  0  0  0  0  0
    1.4678   -5.1318    0.0000 C   0  0  0  0  0  0  0  0  0  0  0  0
  1  2  2  0  0  0  0
  2  3  1  0  0  0  0
  3  4  1  0  0  0  0
  4  5  1  0  0  0  0
  5  6  1  0  0  0  0
  6  7  1  0  0  0  0
  7  8  1  0  0  0  0
  8  9  2  0  0  0  0
  9 10  1  0  0  0  0
 10 11  1  0  0  0  0
 11 12  2  0  0  0  0
 12 13  1  0  0  0  0
 13 14  1  0  0  0  0
 14 15  2  0  0  0  0
 15 16  1  0  0  0  0
 16 17  1  0  0  0  0
M  END
>  <cdx:fragmentId>
1519

$$$$
