300790.cdx
  Mrv1902 05222410282D          

 10 11  0  0  0  0            999 V2000
    6.8202   -6.8351    0.0000 S   0  0  0  0  0  0  0  0  0  0  0  0
    7.3051   -7.5026    0.0000 C   0  0  0  0  0  0  0  0  0  0  0  0
    6.8202   -8.1700    0.0000 N   0  0  0  0  0  0  0  0  0  0  0  0
    6.0356   -7.9151    0.0000 C   0  0  0  0  0  0  0  0  0  0  0  0
    6.0356   -7.0901    0.0000 C   0  0  0  0  0  0  0  0  0  0  0  0
    5.3211   -8.3276    0.0000 C   0  0  0  0  0  0  0  0  0  0  0  0
    4.6067   -7.9151    0.0000 C   0  0  0  0  0  0  0  0  0  0  0  0
    4.6067   -7.0901    0.0000 C   0  0  0  0  0  0  0  0  0  0  0  0
    5.3211   -6.6776    0.0000 C   0  0  0  0  0  0  0  0  0  0  0  0
    8.1301   -7.5026    0.0000 O   0  0  0  0  0  0  0  0  0  0  0  0
  1  2  1  0  0  0  0
  2  3  1  0  0  0  0
  3  4  1  0  0  0  0
  4  5  1  0  0  0  0
  1  5  1  0  0  0  0
  6  7  1  0  0  0  0
  7  8  2  0  0  0  0
  8  9  1  0  0  0  0
  5  9  2  0  0  0  0
  4  6  2  0  0  0  0
  2 10  2  0  0  0  0
M  END
>  <cdx:fragmentId>
1808

$$$$
