300745.cdx
  Mrv1902 05222410272D          

 85 94  0  0  0  0            999 V2000
   12.1974   -9.3074    0.0000 C   0  0  0  0  0  0  0  0  0  0  0  0
   12.9119   -8.8949    0.0000 C   0  0  0  0  0  0  0  0  0  0  0  0
   13.6264   -9.3074    0.0000 C   0  0  0  0  0  0  0  0  0  0  0  0
   13.6264  -10.1324    0.0000 C   0  0  0  0  0  0  0  0  0  0  0  0
   12.9119  -10.5449    0.0000 C   0  0  2  0  0  0  0  0  0  0  0  0
   12.9119  -11.3699    0.0000 C   0  0  1  0  0  0  0  0  0  0  0  0
   12.1974  -11.7824    0.0000 C   0  0  0  0  0  0  0  0  0  0  0  0
   11.4829  -11.3699    0.0000 C   0  0  1  0  0  0  0  0  0  0  0  0
   10.7685  -11.7824    0.0000 C   0  0  2  0  0  0  0  0  0  0  0  0
   10.7685  -12.6074    0.0000 C   0  0  0  0  0  0  0  0  0  0  0  0
   10.0540  -13.0199    0.0000 C   0  0  0  0  0  0  0  0  0  0  0  0
    9.3395  -12.6074    0.0000 C   0  0  1  0  0  0  0  0  0  0  0  0
    8.6251  -13.0199    0.0000 C   0  0  0  0  0  0  0  0  0  0  0  0
    7.9106  -12.6074    0.0000 C   0  0  2  0  0  0  0  0  0  0  0  0
    7.9106  -11.7824    0.0000 C   0  0  0  0  0  0  0  0  0  0  0  0
    8.6251  -11.3699    0.0000 C   0  0  0  0  0  0  0  0  0  0  0  0
    9.3395  -11.7824    0.0000 C   0  0  2  0  0  0  0  0  0  0  0  0
   10.0540  -11.3699    0.0000 C   0  0  1  0  0  0  0  0  0  0  0  0
   10.0540  -10.5449    0.0000 C   0  0  0  0  0  0  0  0  0  0  0  0
   10.7685  -10.1324    0.0000 C   0  0  0  0  0  0  0  0  0  0  0  0
   11.4829  -10.5449    0.0000 C   0  0  0  0  0  0  0  0  0  0  0  0
   12.1974  -10.1324    0.0000 C   0  0  2  0  0  0  0  0  0  0  0  0
   13.6562  -11.0261    0.0000 C   0  0  0  0  0  0  0  0  0  0  0  0
   13.6562  -11.8511    0.0000 O   0  0  0  0  0  0  0  0  0  0  0  0
   14.3706  -10.6136    0.0000 O   0  0  0  0  0  0  0  0  0  0  0  0
    9.3395  -10.9574    0.0000 C   0  0  0  0  0  0  0  0  0  0  0  0
    9.0376  -13.7344    0.0000 C   0  0  0  0  0  0  0  0  0  0  0  0
    8.2126  -13.7344    0.0000 C   0  0  0  0  0  0  0  0  0  0  0  0
   10.7685  -10.9574    0.0000 C   0  0  0  0  0  0  0  0  0  0  0  0
   11.4829  -12.1949    0.0000 C   0  0  0  0  0  0  0  0  0  0  0  0
   12.4994   -8.1805    0.0000 C   0  0  0  0  0  0  0  0  0  0  0  0
   13.3244   -8.1805    0.0000 C   0  0  0  0  0  0  0  0  0  0  0  0
   12.9524  -12.1676    0.0000 O   0  0  0  0  0  0  0  0  0  0  0  0
    9.3395  -13.4324    0.0000 H   0  0  0  0  0  0  0  0  0  0  0  0
   12.1974  -10.9574    0.0000 H   0  0  0  0  0  0  0  0  0  0  0  0
   15.0851  -11.8511    0.0000 O   0  0  0  0  0  0  0  0  0  0  0  0
   15.0851  -11.0261    0.0000 C   0  0  2  0  0  0  0  0  0  0  0  0
   15.7996  -10.6136    0.0000 C   0  0  1  0  0  0  0  0  0  0  0  0
   16.5140  -11.0261    0.0000 C   0  0  2  0  0  0  0  0  0  0  0  0
   16.5140  -11.8511    0.0000 C   0  0  2  0  0  0  0  0  0  0  0  0
   15.7996  -12.2636    0.0000 C   0  0  0  0  0  0  0  0  0  0  0  0
   17.2285  -12.2636    0.0000 O   0  0  0  0  0  0  0  0  0  0  0  0
   17.2285  -10.6136    0.0000 O   0  0  0  0  0  0  0  0  0  0  0  0
   15.7996   -9.7886    0.0000 O   0  0  0  0  0  0  0  0  0  0  0  0
   17.2285   -9.7886    0.0000 O   0  0  0  0  0  0  0  0  0  0  0  0
   16.5140   -9.3761    0.0000 C   0  0  2  0  0  0  0  0  0  0  0  0
   16.5140   -8.5511    0.0000 C   0  0  1  0  0  0  0  0  0  0  0  0
   17.2285   -8.1386    0.0000 C   0  0  1  0  0  0  0  0  0  0  0  0
   17.9430   -8.5511    0.0000 C   0  0  2  0  0  0  0  0  0  0  0  0
   17.9430   -9.3761    0.0000 C   0  0  2  0  0  0  0  0  0  0  0  0
   18.6575   -8.1386    0.0000 O   0  0  0  0  0  0  0  0  0  0  0  0
   19.3719   -9.3761    0.0000 O   0  0  0  0  0  0  0  0  0  0  0  0
   19.3719   -8.5511    0.0000 C   0  0  2  0  0  0  0  0  0  0  0  0
   20.0864   -8.1386    0.0000 C   0  0  1  0  0  0  0  0  0  0  0  0
   20.8009   -8.5511    0.0000 C   0  0  2  0  0  0  0  0  0  0  0  0
   20.8009   -9.3761    0.0000 C   0  0  1  0  0  0  0  0  0  0  0  0
   20.0864   -9.7886    0.0000 C   0  0  0  0  0  0  0  0  0  0  0  0
   21.5153   -9.7886    0.0000 O   0  0  0  0  0  0  0  0  0  0  0  0
   21.5153   -8.1386    0.0000 O   0  0  0  0  0  0  0  0  0  0  0  0
   20.0864   -7.3136    0.0000 O   0  0  0  0  0  0  0  0  0  0  0  0
   18.6575   -9.7886    0.0000 C   0  0  0  0  0  0  0  0  0  0  0  0
   17.2285   -7.3136    0.0000 O   0  0  0  0  0  0  0  0  0  0  0  0
   15.7996   -8.1386    0.0000 O   0  0  0  0  0  0  0  0  0  0  0  0
    5.7676  -13.8456    0.0000 O   0  0  0  0  0  0  0  0  0  0  0  0
    4.3382  -13.0213    0.0000 O   0  0  0  0  0  0  0  0  0  0  0  0
    4.3374  -11.3713    0.0000 O   0  0  0  0  0  0  0  0  0  0  0  0
    5.0513  -10.1335    0.0000 O   0  0  0  0  0  0  0  0  0  0  0  0
    5.7660  -10.5456    0.0000 C   0  0  0  0  0  0  0  0  0  0  0  0
    5.7664  -11.3706    0.0000 C   0  0  2  0  0  0  0  0  0  0  0  0
    5.0521  -11.7835    0.0000 C   0  0  2  0  0  0  0  0  0  0  0  0
    5.0525  -12.6085    0.0000 C   0  0  1  0  0  0  0  0  0  0  0  0
    5.7672  -13.0206    0.0000 C   0  0  2  0  0  0  0  0  0  0  0  0
    6.4814  -12.6078    0.0000 C   0  0  1  0  0  0  0  0  0  0  0  0
    6.4810  -11.7828    0.0000 O   0  0  0  0  0  0  0  0  0  0  0  0
    7.1961  -13.0199    0.0000 O   0  0  0  0  0  0  0  0  0  0  0  0
   22.2385   -8.5637    0.0000 C   0  0  1  0  0  0  0  0  0  0  0  0
   22.9529   -8.1512    0.0000 C   0  0  2  0  0  0  0  0  0  0  0  0
   22.9529   -7.3262    0.0000 O   0  0  0  0  0  0  0  0  0  0  0  0
   23.6674   -8.5637    0.0000 C   0  0  1  0  0  0  0  0  0  0  0  0
   24.3819   -8.1512    0.0000 O   0  0  0  0  0  0  0  0  0  0  0  0
   23.6674   -9.3887    0.0000 C   0  0  2  0  0  0  0  0  0  0  0  0
   24.3819   -9.8012    0.0000 O   0  0  0  0  0  0  0  0  0  0  0  0
   22.9529   -9.8012    0.0000 C   0  0  0  0  0  0  0  0  0  0  0  0
   22.2385   -9.3887    0.0000 O   0  0  0  0  0  0  0  0  0  0  0  0
   10.0540  -12.1949    0.0000 H   0  0  0  0  0  0  0  0  0  0  0  0
 73 75  1  1  0  0  0
 72 64  1  6  0  0  0
 71 65  1  1  0  0  0
 70 66  1  6  0  0  0
 69 68  1  1  0  0  0
 68 67  1  0  0  0  0
 74 69  1  0  0  0  0
 70 69  1  0  0  0  0
 71 70  1  0  0  0  0
 72 71  1  0  0  0  0
 73 72  1  0  0  0  0
 74 73  1  0  0  0  0
  1  2  1  0  0  0  0
  2  3  1  0  0  0  0
  3  4  1  0  0  0  0
  4  5  1  0  0  0  0
  5  6  1  0  0  0  0
  6  7  1  0  0  0  0
  7  8  1  0  0  0  0
  8  9  1  0  0  0  0
  9 10  1  0  0  0  0
 10 11  1  0  0  0  0
 11 12  1  0  0  0  0
 12 13  1  0  0  0  0
 13 14  1  0  0  0  0
 14 15  1  0  0  0  0
 15 16  1  0  0  0  0
 16 17  1  0  0  0  0
 12 17  1  0  0  0  0
 17 18  1  0  0  0  0
  9 18  1  0  0  0  0
 18 19  1  0  0  0  0
 19 20  1  0  0  0  0
 20 21  2  0  0  0  0
  8 21  1  0  0  0  0
 21 22  1  0  0  0  0
  5 22  1  0  0  0  0
  1 22  1  0  0  0  0
 23 24  2  0  0  0  0
 23 25  1  0  0  0  0
  5 23  1  1  0  0  0
 14 75  1  1  0  0  0
 17 26  1  1  0  0  0
 13 27  1  0  0  0  0
 13 28  1  0  0  0  0
  9 29  1  1  0  0  0
  8 30  1  6  0  0  0
  2 31  1  0  0  0  0
  2 32  1  0  0  0  0
  6 33  1  6  0  0  0
 12 34  1  6  0  0  0
 22 35  1  1  0  0  0
 36 37  1  0  0  0  0
 37 38  1  0  0  0  0
 38 39  1  0  0  0  0
 39 40  1  0  0  0  0
 40 41  1  0  0  0  0
 36 41  1  0  0  0  0
 40 42  1  1  0  0  0
 39 43  1  1  0  0  0
 45 46  1  0  0  0  0
 46 47  1  0  0  0  0
 47 48  1  0  0  0  0
 48 49  1  0  0  0  0
 49 50  1  0  0  0  0
 45 50  1  0  0  0  0
 52 53  1  0  0  0  0
 53 54  1  0  0  0  0
 54 55  1  0  0  0  0
 55 56  1  0  0  0  0
 56 57  1  0  0  0  0
 52 57  1  0  0  0  0
 56 58  1  6  0  0  0
 55 59  1  1  0  0  0
 54 60  1  6  0  0  0
 53 51  1  1  0  0  0
 49 51  1  1  0  0  0
 50 61  1  6  0  0  0
 48 62  1  6  0  0  0
 47 63  1  6  0  0  0
 46 44  1  1  0  0  0
 38 44  1  6  0  0  0
 37 25  1  1  0  0  0
 76 77  1  0  0  0  0
 77 78  1  6  0  0  0
 77 79  1  0  0  0  0
 79 80  1  1  0  0  0
 79 81  1  0  0  0  0
 81 82  1  6  0  0  0
 81 83  1  0  0  0  0
 83 84  1  0  0  0  0
 76 84  1  0  0  0  0
 76 59  1  1  0  0  0
 18 85  1  6  0  0  0
M  END
>  <cdx:fragmentId>
5361

$$$$
