300777.cdx
  Mrv1902 05222410182D          

 10 10  0  0  0  0            999 V2000
    8.5586   -5.1851    0.0000 N   0  0  0  0  0  0  0  0  0  0  0  0
    7.8441   -5.5976    0.0000 C   0  0  0  0  0  0  0  0  0  0  0  0
    7.8441   -6.4226    0.0000 C   0  0  0  0  0  0  0  0  0  0  0  0
    7.1296   -6.8351    0.0000 C   0  0  0  0  0  0  0  0  0  0  0  0
    6.4152   -6.4226    0.0000 C   0  0  0  0  0  0  0  0  0  0  0  0
    6.4152   -5.5976    0.0000 C   0  0  0  0  0  0  0  0  0  0  0  0
    7.1296   -5.1851    0.0000 C   0  0  0  0  0  0  0  0  0  0  0  0
    5.7007   -5.1851    0.0000 C   0  0  0  0  0  0  0  0  0  0  0  0
    8.5586   -6.8351    0.0000 O   0  0  0  0  0  0  0  0  0  0  0  0
    9.2731   -6.4226    0.0000 C   0  0  0  0  0  0  0  0  0  0  0  0
  1  2  1  0  0  0  0
  2  3  1  0  0  0  0
  3  4  2  0  0  0  0
  4  5  1  0  0  0  0
  5  6  2  0  0  0  0
  6  7  1  0  0  0  0
  2  7  2  0  0  0  0
  6  8  1  0  0  0  0
  9 10  1  0  0  0  0
  3  9  1  0  0  0  0
M  END
>  <cdx:fragmentId>
1123

$$$$
