300784.cdx
  Mrv1902 05222410282D          

 18 19  0  0  0  0            999 V2000
    5.3700   -6.7533    0.0000 C   0  0  0  0  0  0  0  0  0  0  0  0
    5.3700   -7.5783    0.0000 C   0  0  0  0  0  0  0  0  0  0  0  0
    4.6555   -7.9908    0.0000 C   0  0  0  0  0  0  0  0  0  0  0  0
    3.9411   -7.5783    0.0000 C   0  0  0  0  0  0  0  0  0  0  0  0
    3.9411   -6.7533    0.0000 C   0  0  0  0  0  0  0  0  0  0  0  0
    4.6555   -6.3408    0.0000 C   0  0  0  0  0  0  0  0  0  0  0  0
    6.0845   -6.3408    0.0000 O   0  0  0  0  0  0  0  0  0  0  0  0
    6.7989   -6.7533    0.0000 C   0  0  0  0  0  0  0  0  0  0  0  0
    7.5134   -6.3408    0.0000 C   0  0  0  0  0  0  0  0  0  0  0  0
    8.2279   -6.7533    0.0000 C   0  0  0  0  0  0  0  0  0  0  0  0
    8.2279   -7.5783    0.0000 C   0  0  0  0  0  0  0  0  0  0  0  0
    7.5134   -7.9908    0.0000 C   0  0  0  0  0  0  0  0  0  0  0  0
    6.7989   -7.5783    0.0000 C   0  0  0  0  0  0  0  0  0  0  0  0
    8.9424   -7.9908    0.0000 N   0  3  0  0  0  0  0  0  0  0  0  0
    8.9424   -8.8158    0.0000 O   0  0  0  0  0  0  0  0  0  0  0  0
    9.6568   -7.5783    0.0000 O   0  5  0  0  0  0  0  0  0  0  0  0
    3.2266   -7.9908    0.0000 Cl  0  0  0  0  0  0  0  0  0  0  0  0
    6.0845   -7.9908    0.0000 Cl  0  0  0  0  0  0  0  0  0  0  0  0
  1  2  1  0  0  0  0
  2  3  2  0  0  0  0
  3  4  1  0  0  0  0
  4  5  2  0  0  0  0
  5  6  1  0  0  0  0
  1  6  2  0  0  0  0
  8  9  1  0  0  0  0
  9 10  2  0  0  0  0
 10 11  1  0  0  0  0
 11 12  2  0  0  0  0
 12 13  1  0  0  0  0
  8 13  2  0  0  0  0
  7  8  1  0  0  0  0
 14 15  2  0  0  0  0
 14 16  1  0  0  0  0
 11 14  1  0  0  0  0
  1  7  1  0  0  0  0
  4 17  1  0  0  0  0
  2 18  1  0  0  0  0
M  CHG  2  14   1  16  -1
M  END
>  <cdx:fragmentId>
1470

$$$$
