300797.cdx
  Mrv1902 05222410262D          

 11 11  0  0  0  0            999 V2000
    7.3411   -7.5364    0.0000 C   0  0  0  0  0  0  0  0  0  0  0  0
    6.6266   -7.9489    0.0000 C   0  0  0  0  0  0  0  0  0  0  0  0
    7.3411   -6.7114    0.0000 O   0  0  0  0  0  0  0  0  0  0  0  0
    8.0556   -7.9489    0.0000 O   0  0  0  0  0  0  0  0  0  0  0  0
    5.9122   -7.5364    0.0000 C   0  0  0  0  0  0  0  0  0  0  0  0
    5.1977   -7.9489    0.0000 C   0  0  0  0  0  0  0  0  0  0  0  0
    4.4832   -7.5364    0.0000 C   0  0  0  0  0  0  0  0  0  0  0  0
    4.4832   -6.7114    0.0000 C   0  0  0  0  0  0  0  0  0  0  0  0
    5.1977   -6.2989    0.0000 C   0  0  0  0  0  0  0  0  0  0  0  0
    5.9122   -6.7114    0.0000 C   0  0  0  0  0  0  0  0  0  0  0  0
    6.6266   -8.7739    0.0000 O   0  0  0  0  0  0  0  0  0  0  0  0
  1  2  1  0  0  0  0
  1  3  2  0  0  0  0
  1  4  1  0  0  0  0
  5  6  1  0  0  0  0
  6  7  2  0  0  0  0
  7  8  1  0  0  0  0
  8  9  2  0  0  0  0
  9 10  1  0  0  0  0
  5 10  2  0  0  0  0
  2  5  1  0  0  0  0
  2 11  2  0  0  0  0
M  END
>  <cdx:fragmentId>
2231

$$$$
