300785.cdx
  Mrv1902 05222410282D          

 15 15  0  0  0  0            999 V2000
    5.3427   -8.7660    0.0000 C   0  0  0  0  0  0  0  0  0  0  0  0
    4.6282   -8.3535    0.0000 C   0  0  0  0  0  0  0  0  0  0  0  0
    3.9137   -8.7660    0.0000 C   0  0  0  0  0  0  0  0  0  0  0  0
    4.6282   -7.5285    0.0000 N   0  0  0  0  0  0  0  0  0  0  0  0
    6.0571   -8.3535    0.0000 C   0  0  0  0  0  0  0  0  0  0  0  0
    6.0571   -7.5285    0.0000 C   0  0  0  0  0  0  0  0  0  0  0  0
    6.7716   -7.1160    0.0000 C   0  0  0  0  0  0  0  0  0  0  0  0
    7.4861   -7.5285    0.0000 C   0  0  0  0  0  0  0  0  0  0  0  0
    7.4861   -8.3535    0.0000 C   0  0  0  0  0  0  0  0  0  0  0  0
    6.7716   -8.7660    0.0000 C   0  0  0  0  0  0  0  0  0  0  0  0
    8.2006   -7.1160    0.0000 C   0  0  0  0  0  0  0  0  0  0  0  0
    8.2006   -8.7660    0.0000 O   0  0  0  0  0  0  0  0  0  0  0  0
    8.9150   -8.3535    0.0000 C   0  0  0  0  0  0  0  0  0  0  0  0
    5.3427   -7.1160    0.0000 O   0  0  0  0  0  0  0  0  0  0  0  0
    5.3427   -6.2910    0.0000 C   0  0  0  0  0  0  0  0  0  0  0  0
  1  2  1  0  0  0  0
  2  3  1  0  0  0  0
  2  4  1  0  0  0  0
  5  6  1  0  0  0  0
  6  7  2  0  0  0  0
  7  8  1  0  0  0  0
  8  9  2  0  0  0  0
  9 10  1  0  0  0  0
  5 10  2  0  0  0  0
  8 11  1  0  0  0  0
 12 13  1  0  0  0  0
  9 12  1  0  0  0  0
 14 15  1  0  0  0  0
  6 14  1  0  0  0  0
  1  5  1  0  0  0  0
M  END
>  <cdx:fragmentId>
1523

$$$$
