300731.cdx
  Mrv1902 05222410252D          

 31 35  0  0  0  0            999 V2000
   10.1167   -4.2620    0.0000 O   0  0  0  0  0  0  0  0  0  0  0  0
   10.6017   -4.9294    0.0000 C   0  0  0  0  0  0  0  0  0  0  0  0
   10.1167   -5.5969    0.0000 O   0  0  0  0  0  0  0  0  0  0  0  0
    9.3321   -5.3419    0.0000 C   0  0  0  0  0  0  0  0  0  0  0  0
    9.3321   -4.5169    0.0000 C   0  0  0  0  0  0  0  0  0  0  0  0
    8.6176   -5.7544    0.0000 C   0  0  0  0  0  0  0  0  0  0  0  0
    7.9032   -5.3419    0.0000 C   0  0  0  0  0  0  0  0  0  0  0  0
    7.9032   -4.5169    0.0000 C   0  0  0  0  0  0  0  0  0  0  0  0
    8.6176   -4.1044    0.0000 C   0  0  0  0  0  0  0  0  0  0  0  0
    7.1025   -6.5749    0.0000 O   0  0  0  0  0  0  0  0  0  0  0  0
    6.2955   -6.7464    0.0000 C   0  0  0  0  0  0  0  0  0  0  0  0
    5.8830   -6.0320    0.0000 C   0  0  1  0  0  0  0  0  0  0  0  0
    6.4350   -5.4189    0.0000 C   0  0  1  0  0  0  0  0  0  0  0  0
    7.1887   -5.7544    0.0000 C   0  0  1  0  0  0  0  0  0  0  0  0
    5.2156   -4.8759    0.0000 O   0  0  0  0  0  0  0  0  0  0  0  0
    5.1293   -5.6964    0.0000 C   0  0  2  0  0  0  0  0  0  0  0  0
    6.0225   -4.7044    0.0000 C   0  0  0  0  0  0  0  0  0  0  0  0
    4.4149   -6.1089    0.0000 C   0  0  0  0  0  0  0  0  0  0  0  0
    4.4149   -6.9339    0.0000 C   0  0  0  0  0  0  0  0  0  0  0  0
    3.7004   -7.3464    0.0000 C   0  0  0  0  0  0  0  0  0  0  0  0
    2.9859   -6.9339    0.0000 C   0  0  0  0  0  0  0  0  0  0  0  0
    2.9859   -6.1089    0.0000 C   0  0  0  0  0  0  0  0  0  0  0  0
    3.7004   -5.6964    0.0000 C   0  0  0  0  0  0  0  0  0  0  0  0
    2.2714   -5.6964    0.0000 O   0  0  0  0  0  0  0  0  0  0  0  0
    1.5570   -6.1089    0.0000 C   0  0  0  0  0  0  0  0  0  0  0  0
    2.2714   -7.3464    0.0000 O   0  0  0  0  0  0  0  0  0  0  0  0
    1.5570   -6.9339    0.0000 C   0  0  0  0  0  0  0  0  0  0  0  0
    3.7004   -8.1714    0.0000 O   0  0  0  0  0  0  0  0  0  0  0  0
    2.9859   -8.5839    0.0000 C   0  0  0  0  0  0  0  0  0  0  0  0
    6.9871   -4.8058    0.0000 H   0  0  0  0  0  0  0  0  0  0  0  0
    5.3310   -6.6451    0.0000 H   0  0  0  0  0  0  0  0  0  0  0  0
  1  2  1  0  0  0  0
  2  3  1  0  0  0  0
  3  4  1  0  0  0  0
  4  5  1  0  0  0  0
  1  5  1  0  0  0  0
  6  7  1  0  0  0  0
  7  8  2  0  0  0  0
  8  9  1  0  0  0  0
  5  9  2  0  0  0  0
  4  6  2  0  0  0  0
 10 11  1  0  0  0  0
 11 12  1  0  0  0  0
 12 13  1  0  0  0  0
 13 14  1  0  0  0  0
 10 14  1  0  0  0  0
 15 16  1  0  0  0  0
 15 17  1  0  0  0  0
 12 16  1  0  0  0  0
 13 17  1  0  0  0  0
 18 19  1  0  0  0  0
 19 20  2  0  0  0  0
 20 21  1  0  0  0  0
 21 22  2  0  0  0  0
 22 23  1  0  0  0  0
 18 23  2  0  0  0  0
 24 25  1  0  0  0  0
 22 24  1  0  0  0  0
 26 27  1  0  0  0  0
 21 26  1  0  0  0  0
 28 29  1  0  0  0  0
 20 28  1  0  0  0  0
 16 18  1  1  0  0  0
 14  7  1  1  0  0  0
 13 30  1  1  0  0  0
 12 31  1  1  0  0  0
M  END
>  <cdx:fragmentId>
3352

$$$$
