300759.cdx
  Mrv1902 05222410192D          

 25 27  0  0  0  0            999 V2000
    7.4316   -8.3071    0.0000 C   0  0  0  0  0  0  0  0  0  0  0  0
    7.4316   -9.1321    0.0000 C   0  0  0  0  0  0  0  0  0  0  0  0
    6.7171   -9.5446    0.0000 C   0  0  0  0  0  0  0  0  0  0  0  0
    6.0027   -9.1321    0.0000 C   0  0  0  0  0  0  0  0  0  0  0  0
    5.2882   -9.5446    0.0000 C   0  0  0  0  0  0  0  0  0  0  0  0
    4.5737   -9.1321    0.0000 C   0  0  0  0  0  0  0  0  0  0  0  0
    4.5737   -8.3071    0.0000 C   0  0  0  0  0  0  0  0  0  0  0  0
    5.2882   -7.8946    0.0000 C   0  0  0  0  0  0  0  0  0  0  0  0
    6.0027   -8.3071    0.0000 C   0  0  0  0  0  0  0  0  0  0  0  0
    6.7171   -7.8946    0.0000 O   0  0  0  0  0  0  0  0  0  0  0  0
    6.7171  -10.3696    0.0000 O   0  0  0  0  0  0  0  0  0  0  0  0
    3.8593   -7.8946    0.0000 O   0  0  0  0  0  0  0  0  0  0  0  0
    3.1448   -8.3071    0.0000 C   0  0  0  0  0  0  0  0  0  0  0  0
    8.1461   -9.5446    0.0000 O   0  0  0  0  0  0  0  0  0  0  0  0
    8.8606   -9.1321    0.0000 C   0  0  0  0  0  0  0  0  0  0  0  0
    8.1461   -7.8946    0.0000 C   0  0  0  0  0  0  0  0  0  0  0  0
    8.8606   -8.3071    0.0000 C   0  0  0  0  0  0  0  0  0  0  0  0
    9.5750   -7.8946    0.0000 C   0  0  0  0  0  0  0  0  0  0  0  0
    9.5750   -7.0696    0.0000 C   0  0  0  0  0  0  0  0  0  0  0  0
    8.8606   -6.6571    0.0000 C   0  0  0  0  0  0  0  0  0  0  0  0
    8.1461   -7.0696    0.0000 C   0  0  0  0  0  0  0  0  0  0  0  0
   10.2895   -6.6571    0.0000 O   0  0  0  0  0  0  0  0  0  0  0  0
   11.0040   -7.0696    0.0000 C   0  0  0  0  0  0  0  0  0  0  0  0
   10.2895   -8.3071    0.0000 O   0  0  0  0  0  0  0  0  0  0  0  0
    5.2882  -10.3696    0.0000 O   0  0  0  0  0  0  0  0  0  0  0  0
  1  2  2  0  0  0  0
  2  3  1  0  0  0  0
  3  4  1  0  0  0  0
  4  5  1  0  0  0  0
  5  6  2  0  0  0  0
  6  7  1  0  0  0  0
  7  8  2  0  0  0  0
  8  9  1  0  0  0  0
  4  9  2  0  0  0  0
  9 10  1  0  0  0  0
  1 10  1  0  0  0  0
  3 11  2  0  0  0  0
 12 13  1  0  0  0  0
  7 12  1  0  0  0  0
 14 15  1  0  0  0  0
  2 14  1  0  0  0  0
 16 17  1  0  0  0  0
 17 18  2  0  0  0  0
 18 19  1  0  0  0  0
 19 20  2  0  0  0  0
 20 21  1  0  0  0  0
 16 21  2  0  0  0  0
 22 23  1  0  0  0  0
 19 22  1  0  0  0  0
 18 24  1  0  0  0  0
  1 16  1  0  0  0  0
  5 25  1  0  0  0  0
M  END
>  <cdx:fragmentId>
7214

$$$$
