300795.cdx
  Mrv1902 05222410262D          

 19 20  0  0  0  0            999 V2000
    7.8806   -5.9716    0.0000 C   0  0  0  0  0  0  0  0  0  0  0  0
    7.1661   -6.3841    0.0000 C   0  0  0  0  0  0  0  0  0  0  0  0
    7.1661   -7.2091    0.0000 C   0  0  0  0  0  0  0  0  0  0  0  0
    6.4517   -7.6216    0.0000 C   0  0  0  0  0  0  0  0  0  0  0  0
    5.7372   -7.2091    0.0000 C   0  0  0  0  0  0  0  0  0  0  0  0
    5.7372   -6.3841    0.0000 C   0  0  0  0  0  0  0  0  0  0  0  0
    6.4517   -5.9716    0.0000 C   0  0  0  0  0  0  0  0  0  0  0  0
    8.5951   -5.5591    0.0000 N   0  0  0  0  0  0  0  0  0  0  0  0
    5.0227   -5.9716    0.0000 N   0  3  0  0  0  0  0  0  0  0  0  0
    5.0227   -5.1466    0.0000 O   0  0  0  0  0  0  0  0  0  0  0  0
    4.3083   -6.3841    0.0000 O   0  5  0  0  0  0  0  0  0  0  0  0
    7.8806   -7.6216    0.0000 C   0  0  0  0  0  0  0  0  0  0  0  0
    7.8806   -8.4466    0.0000 C   0  0  0  0  0  0  0  0  0  0  0  0
    8.5951   -8.8591    0.0000 C   0  0  0  0  0  0  0  0  0  0  0  0
    8.5951   -9.6841    0.0000 C   0  0  0  0  0  0  0  0  0  0  0  0
    7.8806  -10.0966    0.0000 C   0  0  0  0  0  0  0  0  0  0  0  0
    7.1661   -9.6841    0.0000 C   0  0  0  0  0  0  0  0  0  0  0  0
    7.1661   -8.8591    0.0000 N   0  0  0  0  0  0  0  0  0  0  0  0
    6.4517   -8.4466    0.0000 C   0  0  0  0  0  0  0  0  0  0  0  0
  1  2  1  0  0  0  0
  2  3  1  0  0  0  0
  3  4  2  0  0  0  0
  4  5  1  0  0  0  0
  5  6  2  0  0  0  0
  6  7  1  0  0  0  0
  2  7  2  0  0  0  0
  1  8  3  0  0  0  0
  9 10  2  0  0  0  0
  9 11  1  0  0  0  0
  6  9  1  0  0  0  0
 13 14  1  0  0  0  0
 14 15  2  0  0  0  0
 15 16  1  0  0  0  0
 16 17  2  0  0  0  0
 17 18  1  0  0  0  0
 13 18  1  0  0  0  0
 18 19  1  0  0  0  0
 12 13  2  0  0  0  0
  3 12  1  0  0  0  0
M  CHG  2   9   1  11  -1
M  END
>  <cdx:fragmentId>
2022

$$$$
