300730.cdx
  Mrv1902 05222410252D          

 14 15  0  0  0  0            999 V2000
    5.4571   -3.9939    0.0000 C   0  0  0  0  0  0  0  0  0  0  0  0
    6.1716   -4.4064    0.0000 O   0  0  0  0  0  0  0  0  0  0  0  0
    6.8861   -6.4689    0.0000 C   0  0  0  0  0  0  0  0  0  0  0  0
    6.1716   -6.8814    0.0000 C   0  0  0  0  0  0  0  0  0  0  0  0
    5.4571   -6.4689    0.0000 C   0  0  0  0  0  0  0  0  0  0  0  0
    5.4571   -5.6439    0.0000 C   0  0  0  0  0  0  0  0  0  0  0  0
    6.1716   -5.2314    0.0000 C   0  0  0  0  0  0  0  0  0  0  0  0
    6.8861   -5.6439    0.0000 C   0  0  0  0  0  0  0  0  0  0  0  0
    7.6707   -5.3890    0.0000 C   0  0  0  0  0  0  0  0  0  0  0  0
    8.1556   -6.0564    0.0000 C   0  0  0  0  0  0  0  0  0  0  0  0
    7.6707   -6.7239    0.0000 N   0  0  0  0  0  0  0  0  0  0  0  0
    9.5396   -4.2613    0.0000 N   0  0  0  0  0  0  0  0  0  0  0  0
    7.9256   -4.6044    0.0000 C   0  0  0  0  0  0  0  0  0  0  0  0
    8.7326   -4.4329    0.0000 C   0  0  0  0  0  0  0  0  0  0  0  0
 13  9  1  0  0  0  0
  7  2  1  0  0  0  0
  2  1  1  0  0  0  0
  8  3  2  0  0  0  0
 11  3  1  0  0  0  0
  4  3  1  0  0  0  0
  5  4  2  0  0  0  0
  6  5  1  0  0  0  0
  7  6  2  0  0  0  0
  8  7  1  0  0  0  0
  9  8  1  0  0  0  0
 10  9  2  0  0  0  0
 11 10  1  0  0  0  0
 14 12  3  0  0  0  0
 14 13  1  0  0  0  0
M  END
>  <cdx:fragmentId>
3277

$$$$
