300715.cdx
  Mrv1902 05222410202D          

 40 43  0  0  0  0            999 V2000
    5.4954   -8.1142    0.0000 O   0  0  0  0  0  0  0  0  0  0  0  0
    5.4954  -10.5892    0.0000 O   0  0  0  0  0  0  0  0  0  0  0  0
    2.6375  -10.5892    0.0000 O   0  0  0  0  0  0  0  0  0  0  0  0
    1.9230   -9.3517    0.0000 C   0  0  0  0  0  0  0  0  0  0  0  0
    2.6375   -8.9392    0.0000 O   0  0  0  0  0  0  0  0  0  0  0  0
    4.7809  -10.1767    0.0000 C   0  0  0  0  0  0  0  0  0  0  0  0
    4.0664  -10.5892    0.0000 C   0  0  0  0  0  0  0  0  0  0  0  0
    3.3519  -10.1767    0.0000 C   0  0  0  0  0  0  0  0  0  0  0  0
    3.3519   -9.3517    0.0000 C   0  0  0  0  0  0  0  0  0  0  0  0
    4.0664   -8.9392    0.0000 C   0  0  0  0  0  0  0  0  0  0  0  0
    4.7809   -9.3517    0.0000 C   0  0  0  0  0  0  0  0  0  0  0  0
    6.2098  -10.1767    0.0000 C   0  0  0  0  0  0  0  0  0  0  0  0
    6.2098   -9.3517    0.0000 C   0  0  0  0  0  0  0  0  0  0  0  0
    5.4954   -8.9392    0.0000 C   0  0  0  0  0  0  0  0  0  0  0  0
    6.9243   -8.9392    0.0000 O   0  0  0  0  0  0  0  0  0  0  0  0
    7.6388   -7.7017    0.0000 C   0  0  0  0  0  0  0  0  0  0  0  0
    8.3532   -8.1142    0.0000 O   0  0  0  0  0  0  0  0  0  0  0  0
    8.3532  -10.5892    0.0000 C   0  0  0  0  0  0  0  0  0  0  0  0
    7.6388  -10.1767    0.0000 C   0  0  0  0  0  0  0  0  0  0  0  0
    7.6388   -9.3517    0.0000 C   0  0  0  0  0  0  0  0  0  0  0  0
    8.3532   -8.9392    0.0000 C   0  0  0  0  0  0  0  0  0  0  0  0
    9.0677   -9.3517    0.0000 C   0  0  0  0  0  0  0  0  0  0  0  0
    9.0677  -10.1767    0.0000 C   0  0  0  0  0  0  0  0  0  0  0  0
    9.7822  -10.5892    0.0000 C   0  0  0  0  0  0  0  0  0  0  0  0
   10.6559   -5.5763    0.0000 O   0  0  0  0  0  0  0  0  0  0  0  0
   12.4655   -7.2637    0.0000 C   0  0  0  0  0  0  0  0  0  0  0  0
   11.8821   -6.6804    0.0000 O   0  0  0  0  0  0  0  0  0  0  0  0
    9.5282   -7.4452    0.0000 C   0  0  0  0  0  0  0  0  0  0  0  0
    9.6998   -6.6382    0.0000 C   0  0  0  0  0  0  0  0  0  0  0  0
   10.4844   -6.3833    0.0000 C   0  0  0  0  0  0  0  0  0  0  0  0
   11.0975   -6.9353    0.0000 C   0  0  0  0  0  0  0  0  0  0  0  0
   10.9259   -7.7423    0.0000 C   0  0  0  0  0  0  0  0  0  0  0  0
   10.1413   -7.9972    0.0000 C   0  0  0  0  0  0  0  0  0  0  0  0
    9.9698   -8.8042    0.0000 C   0  0  0  0  0  0  0  0  0  0  0  0
   11.4219  -11.3192    0.0000 O   0  0  0  0  0  0  0  0  0  0  0  0
   11.3899   -9.1847    0.0000 C   0  0  0  0  0  0  0  0  0  0  0  0
   10.5829   -9.3562    0.0000 C   0  0  1  0  0  0  0  0  0  0  0  0
   10.4967  -10.1767    0.0000 C   0  0  2  0  0  0  0  0  0  0  0  0
   11.2503  -10.5123    0.0000 C   0  0  0  0  0  0  0  0  0  0  0  0
   11.8024   -9.8992    0.0000 O   0  0  0  0  0  0  0  0  0  0  0  0
 38 24  1  6  0  0  0
 24 23  1  0  0  0  0
 20 15  1  0  0  0  0
 15 13  1  0  0  0  0
 14  1  1  0  0  0  0
 12  2  1  0  0  0  0
 14 11  1  0  0  0  0
  8  3  1  0  0  0  0
  9  5  1  0  0  0  0
  5  4  1  0  0  0  0
 11  6  2  0  0  0  0
  7  6  1  0  0  0  0
  8  7  2  0  0  0  0
  9  8  1  0  0  0  0
 10  9  2  0  0  0  0
 11 10  1  0  0  0  0
 13 12  1  0  0  0  0
 14 13  1  0  0  0  0
 21 17  1  0  0  0  0
 17 16  1  0  0  0  0
 23 18  2  0  0  0  0
 19 18  1  0  0  0  0
 20 19  2  0  0  0  0
 21 20  1  0  0  0  0
 22 21  2  0  0  0  0
 23 22  1  0  0  0  0
 37 34  1  1  0  0  0
 34 33  1  0  0  0  0
 30 25  1  0  0  0  0
 31 27  1  0  0  0  0
 27 26  1  0  0  0  0
 33 28  2  0  0  0  0
 29 28  1  0  0  0  0
 30 29  2  0  0  0  0
 31 30  1  0  0  0  0
 32 31  2  0  0  0  0
 33 32  1  0  0  0  0
 39 35  2  0  0  0  0
 40 36  1  0  0  0  0
 37 36  1  0  0  0  0
 38 37  1  0  0  0  0
 39 38  1  0  0  0  0
 40 39  1  0  0  0  0
M  END
>  <cdx:fragmentId>
63

$$$$
