300787.cdx
  Mrv1902 05222410272D          

 21 21  0  0  0  0            999 V2000
    8.2006   -8.7660    0.0000 C   0  0  0  0  0  0  0  0  0  0  0  0
    7.4861   -8.3535    0.0000 C   0  0  0  0  0  0  0  0  0  0  0  0
    6.7716   -8.7660    0.0000 C   0  0  0  0  0  0  0  0  0  0  0  0
    8.2006   -9.5910    0.0000 O   0  0  0  0  0  0  0  0  0  0  0  0
    8.9150   -8.3535    0.0000 O   0  0  0  0  0  0  0  0  0  0  0  0
    6.0571   -8.3535    0.0000 C   0  0  0  0  0  0  0  0  0  0  0  0
    5.3427   -8.7660    0.0000 C   0  0  0  0  0  0  0  0  0  0  0  0
    4.6282   -8.3535    0.0000 C   0  0  0  0  0  0  0  0  0  0  0  0
    4.6282   -7.5285    0.0000 C   0  0  0  0  0  0  0  0  0  0  0  0
    5.3427   -7.1160    0.0000 C   0  0  0  0  0  0  0  0  0  0  0  0
    6.0571   -7.5285    0.0000 C   0  0  0  0  0  0  0  0  0  0  0  0
    3.9137   -7.1160    0.0000 O   0  0  0  0  0  0  0  0  0  0  0  0
    5.3427   -6.2910    0.0000 C   0  0  0  0  0  0  0  0  0  0  0  0
    5.3427   -5.4660    0.0000 C   0  0  0  0  0  0  0  0  0  0  0  0
    3.9137   -8.7660    0.0000 C   0  0  0  0  0  0  0  0  0  0  0  0
    3.1993   -9.1785    0.0000 C   0  0  0  0  0  0  0  0  0  0  0  0
    9.6295   -8.7660    0.0000 C   0  0  0  0  0  0  0  0  0  0  0  0
    6.1677   -6.2910    0.0000 C   0  0  0  0  0  0  0  0  0  0  0  0
    4.5177   -6.2910    0.0000 C   0  0  0  0  0  0  0  0  0  0  0  0
    3.5012   -8.0515    0.0000 C   0  0  0  0  0  0  0  0  0  0  0  0
    4.3262   -9.4804    0.0000 C   0  0  0  0  0  0  0  0  0  0  0  0
  1  2  1  0  0  0  0
  2  3  1  0  0  0  0
  1  4  2  0  0  0  0
  1  5  1  0  0  0  0
  6  7  1  0  0  0  0
  7  8  2  0  0  0  0
  8  9  1  0  0  0  0
  9 10  2  0  0  0  0
 10 11  1  0  0  0  0
  6 11  2  0  0  0  0
  9 12  1  0  0  0  0
 13 14  1  0  0  0  0
 10 13  1  0  0  0  0
 15 16  1  0  0  0  0
  8 15  1  0  0  0  0
  3  6  1  0  0  0  0
  5 17  1  0  0  0  0
 13 18  1  0  0  0  0
 13 19  1  0  0  0  0
 15 20  1  0  0  0  0
 15 21  1  0  0  0  0
M  END
>  <cdx:fragmentId>
1621

$$$$
