300743.cdx
  Mrv1902 05222410262D          

 67 74  0  0  0  0            999 V2000
   12.8817   -7.6288    0.0000 C   0  0  0  0  0  0  0  0  0  0  0  0
   13.5962   -7.2163    0.0000 C   0  0  0  0  0  0  0  0  0  0  0  0
   14.3107   -7.6288    0.0000 C   0  0  0  0  0  0  0  0  0  0  0  0
   14.3107   -8.4538    0.0000 C   0  0  0  0  0  0  0  0  0  0  0  0
   13.5962   -8.8663    0.0000 C   0  0  2  0  0  0  0  0  0  0  0  0
   13.5962   -9.6913    0.0000 C   0  0  1  0  0  0  0  0  0  0  0  0
   12.8817  -10.1038    0.0000 C   0  0  0  0  0  0  0  0  0  0  0  0
   12.1672   -9.6913    0.0000 C   0  0  1  0  0  0  0  0  0  0  0  0
   11.4528  -10.1038    0.0000 C   0  0  2  0  0  0  0  0  0  0  0  0
   11.4528  -10.9288    0.0000 C   0  0  0  0  0  0  0  0  0  0  0  0
   10.7383  -11.3413    0.0000 C   0  0  0  0  0  0  0  0  0  0  0  0
   10.0238  -10.9288    0.0000 C   0  0  1  0  0  0  0  0  0  0  0  0
    9.3094  -11.3413    0.0000 C   0  0  0  0  0  0  0  0  0  0  0  0
    8.5949  -10.9288    0.0000 C   0  0  2  0  0  0  0  0  0  0  0  0
    8.5949  -10.1038    0.0000 C   0  0  0  0  0  0  0  0  0  0  0  0
    9.3094   -9.6913    0.0000 C   0  0  0  0  0  0  0  0  0  0  0  0
   10.0238  -10.1038    0.0000 C   0  0  2  0  0  0  0  0  0  0  0  0
   10.7383   -9.6913    0.0000 C   0  0  1  0  0  0  0  0  0  0  0  0
   10.7383   -8.8663    0.0000 C   0  0  0  0  0  0  0  0  0  0  0  0
   11.4528   -8.4538    0.0000 C   0  0  0  0  0  0  0  0  0  0  0  0
   12.1672   -8.8663    0.0000 C   0  0  0  0  0  0  0  0  0  0  0  0
   12.8817   -8.4538    0.0000 C   0  0  2  0  0  0  0  0  0  0  0  0
   14.3542   -9.2924    0.0000 C   0  0  0  0  0  0  0  0  0  0  0  0
   14.3542  -10.1174    0.0000 O   0  0  0  0  0  0  0  0  0  0  0  0
   15.0687   -8.8799    0.0000 O   0  0  0  0  0  0  0  0  0  0  0  0
   10.0238   -9.2788    0.0000 C   0  0  0  0  0  0  0  0  0  0  0  0
    9.7219  -12.0557    0.0000 C   0  0  0  0  0  0  0  0  0  0  0  0
    8.8969  -12.0557    0.0000 C   0  0  0  0  0  0  0  0  0  0  0  0
   11.4528   -9.2788    0.0000 C   0  0  0  0  0  0  0  0  0  0  0  0
   12.1672  -10.5163    0.0000 C   0  0  0  0  0  0  0  0  0  0  0  0
   13.1837   -6.5018    0.0000 C   0  0  0  0  0  0  0  0  0  0  0  0
   14.0087   -6.5018    0.0000 C   0  0  0  0  0  0  0  0  0  0  0  0
   13.6229  -10.5026    0.0000 O   0  0  0  0  0  0  0  0  0  0  0  0
   10.0238  -11.7538    0.0000 H   0  0  0  0  0  0  0  0  0  0  0  0
   12.8817   -9.2788    0.0000 H   0  0  0  0  0  0  0  0  0  0  0  0
   15.7832  -10.1174    0.0000 O   0  0  0  0  0  0  0  0  0  0  0  0
   15.7832   -9.2924    0.0000 C   0  0  2  0  0  0  0  0  0  0  0  0
   16.4976   -8.8799    0.0000 C   0  0  1  0  0  0  0  0  0  0  0  0
   17.2121   -9.2924    0.0000 C   0  0  2  0  0  0  0  0  0  0  0  0
   17.2121  -10.1174    0.0000 C   0  0  2  0  0  0  0  0  0  0  0  0
   16.4976  -10.5299    0.0000 C   0  0  0  0  0  0  0  0  0  0  0  0
   16.4976   -8.0549    0.0000 O   0  0  0  0  0  0  0  0  0  0  0  0
   17.9266   -8.0549    0.0000 O   0  0  0  0  0  0  0  0  0  0  0  0
   17.2121   -7.6424    0.0000 C   0  0  2  0  0  0  0  0  0  0  0  0
   17.2121   -6.8174    0.0000 C   0  0  1  0  0  0  0  0  0  0  0  0
   17.9266   -6.4049    0.0000 C   0  0  1  0  0  0  0  0  0  0  0  0
   18.6410   -6.8174    0.0000 C   0  0  2  0  0  0  0  0  0  0  0  0
   18.6410   -7.6424    0.0000 C   0  0  2  0  0  0  0  0  0  0  0  0
   19.3555   -8.0549    0.0000 C   0  0  0  0  0  0  0  0  0  0  0  0
   19.3555   -6.4049    0.0000 O   0  0  0  0  0  0  0  0  0  0  0  0
   17.9266   -5.5799    0.0000 O   0  0  0  0  0  0  0  0  0  0  0  0
   16.4976   -6.4049    0.0000 O   0  0  0  0  0  0  0  0  0  0  0  0
   17.9266  -10.5299    0.0000 O   0  0  0  0  0  0  0  0  0  0  0  0
   17.9266   -8.8799    0.0000 O   0  0  0  0  0  0  0  0  0  0  0  0
    6.4485  -12.1612    0.0000 O   0  0  0  0  0  0  0  0  0  0  0  0
    5.0225  -11.3311    0.0000 O   0  0  0  0  0  0  0  0  0  0  0  0
    5.0284   -9.6811    0.0000 O   0  0  0  0  0  0  0  0  0  0  0  0
    5.7473   -8.4462    0.0000 O   0  0  0  0  0  0  0  0  0  0  0  0
    6.4603   -8.8612    0.0000 C   0  0  0  0  0  0  0  0  0  0  0  0
    6.4574   -9.6862    0.0000 C   0  0  2  0  0  0  0  0  0  0  0  0
    5.7414  -10.0962    0.0000 C   0  0  2  0  0  0  0  0  0  0  0  0
    5.7385  -10.9211    0.0000 C   0  0  1  0  0  0  0  0  0  0  0  0
    6.4515  -11.3362    0.0000 C   0  0  2  0  0  0  0  0  0  0  0  0
    7.1674  -10.9262    0.0000 C   0  0  1  0  0  0  0  0  0  0  0  0
    7.1704  -10.1012    0.0000 O   0  0  0  0  0  0  0  0  0  0  0  0
    7.8804  -11.3413    0.0000 O   0  0  0  0  0  0  0  0  0  0  0  0
   10.7383  -10.5163    0.0000 H   0  0  0  0  0  0  0  0  0  0  0  0
 64 66  1  1  0  0  0
 63 55  1  6  0  0  0
 62 56  1  1  0  0  0
 61 57  1  6  0  0  0
 60 59  1  1  0  0  0
 59 58  1  0  0  0  0
 65 60  1  0  0  0  0
 61 60  1  0  0  0  0
 62 61  1  0  0  0  0
 63 62  1  0  0  0  0
 64 63  1  0  0  0  0
 65 64  1  0  0  0  0
  1  2  1  0  0  0  0
  2  3  1  0  0  0  0
  3  4  1  0  0  0  0
  4  5  1  0  0  0  0
  5  6  1  0  0  0  0
  6  7  1  0  0  0  0
  7  8  1  0  0  0  0
  8  9  1  0  0  0  0
  9 10  1  0  0  0  0
 10 11  1  0  0  0  0
 11 12  1  0  0  0  0
 12 13  1  0  0  0  0
 13 14  1  0  0  0  0
 14 15  1  0  0  0  0
 15 16  1  0  0  0  0
 16 17  1  0  0  0  0
 12 17  1  0  0  0  0
 17 18  1  0  0  0  0
  9 18  1  0  0  0  0
 18 19  1  0  0  0  0
 19 20  1  0  0  0  0
 20 21  2  0  0  0  0
  8 21  1  0  0  0  0
 21 22  1  0  0  0  0
  5 22  1  0  0  0  0
  1 22  1  0  0  0  0
 23 24  2  0  0  0  0
 23 25  1  0  0  0  0
  5 23  1  1  0  0  0
 14 66  1  1  0  0  0
 17 26  1  1  0  0  0
 13 27  1  0  0  0  0
 13 28  1  0  0  0  0
  9 29  1  1  0  0  0
  8 30  1  6  0  0  0
  2 31  1  0  0  0  0
  2 32  1  0  0  0  0
  6 33  1  6  0  0  0
 12 34  1  6  0  0  0
 22 35  1  1  0  0  0
 36 37  1  0  0  0  0
 37 38  1  0  0  0  0
 38 39  1  0  0  0  0
 39 40  1  0  0  0  0
 40 41  1  0  0  0  0
 36 41  1  0  0  0  0
 43 44  1  0  0  0  0
 44 45  1  0  0  0  0
 45 46  1  0  0  0  0
 46 47  1  0  0  0  0
 47 48  1  0  0  0  0
 43 48  1  0  0  0  0
 48 49  1  6  0  0  0
 47 50  1  1  0  0  0
 46 51  1  6  0  0  0
 45 52  1  6  0  0  0
 44 42  1  1  0  0  0
 38 42  1  6  0  0  0
 40 53  1  1  0  0  0
 39 54  1  1  0  0  0
 37 25  1  1  0  0  0
 18 67  1  6  0  0  0
M  END
>  <cdx:fragmentId>
5141

$$$$
