300721.cdx
  Mrv1902 05222410232D          

 51 54  0  0  0  0            999 V2000
   13.5034   -7.4469    0.0000 O   0  0  0  0  0  0  0  0  0  0  0  0
   10.3288   -8.6757    0.0000 O   0  0  0  0  0  0  0  0  0  0  0  0
   11.0432   -9.0882    0.0000 C   0  0  0  0  0  0  0  0  0  0  0  0
   11.1953   -6.2140    0.0000 O   0  0  0  0  0  0  0  0  0  0  0  0
   11.9490   -6.5495    0.0000 C   0  0  0  0  0  0  0  0  0  0  0  0
   11.7577  -11.1507    0.0000 O   0  0  0  0  0  0  0  0  0  0  0  0
   10.3288  -11.9757    0.0000 O   0  0  0  0  0  0  0  0  0  0  0  0
    8.8998  -11.1507    0.0000 O   0  0  0  0  0  0  0  0  0  0  0  0
    3.1841  -11.1507    0.0000 O   0  0  0  0  0  0  0  0  0  0  0  0
    2.4696   -9.9132    0.0000 C   0  0  0  0  0  0  0  0  0  0  0  0
    3.1841   -9.5007    0.0000 O   0  0  0  0  0  0  0  0  0  0  0  0
    3.8985  -12.3882    0.0000 C   0  0  0  0  0  0  0  0  0  0  0  0
    4.6130  -11.9757    0.0000 O   0  0  0  0  0  0  0  0  0  0  0  0
    5.3275  -10.7382    0.0000 C   0  0  0  0  0  0  0  0  0  0  0  0
    4.6130  -11.1507    0.0000 C   0  0  0  0  0  0  0  0  0  0  0  0
    3.8985  -10.7382    0.0000 C   0  0  0  0  0  0  0  0  0  0  0  0
    3.8985   -9.9132    0.0000 C   0  0  0  0  0  0  0  0  0  0  0  0
    4.6130   -9.5007    0.0000 C   0  0  0  0  0  0  0  0  0  0  0  0
    5.3275   -9.9132    0.0000 C   0  0  0  0  0  0  0  0  0  0  0  0
    7.4709   -8.6757    0.0000 O   0  0  0  0  0  0  0  0  0  0  0  0
    6.0419   -9.5007    0.0000 C   0  0  0  0  0  0  0  0  0  0  0  0
    6.7564   -9.9132    0.0000 C   0  0  0  0  0  0  0  0  0  0  0  0
    7.4709   -9.5007    0.0000 C   0  0  0  0  0  0  0  0  0  0  0  0
    8.1854   -9.9132    0.0000 O   0  0  0  0  0  0  0  0  0  0  0  0
    8.8998   -9.5007    0.0000 C   0  0  0  0  0  0  0  0  0  0  0  0
    9.6143   -9.9132    0.0000 C   0  0  2  0  0  0  0  0  0  0  0  0
    9.6143  -10.7382    0.0000 C   0  0  2  0  0  0  0  0  0  0  0  0
   10.3288  -11.1507    0.0000 C   0  0  1  0  0  0  0  0  0  0  0  0
   11.0432  -10.7382    0.0000 C   0  0  2  0  0  0  0  0  0  0  0  0
   11.0432   -9.9132    0.0000 C   0  0  2  0  0  0  0  0  0  0  0  0
   10.3288   -9.5007    0.0000 O   0  0  0  0  0  0  0  0  0  0  0  0
   11.7577   -9.5007    0.0000 O   0  0  0  0  0  0  0  0  0  0  0  0
   12.0352   -7.3700    0.0000 C   0  0  2  0  0  0  0  0  0  0  0  0
   12.7497   -7.7825    0.0000 C   0  0  2  0  0  0  0  0  0  0  0  0
   12.5782   -8.5895    0.0000 C   0  0  1  0  0  0  0  0  0  0  0  0
   11.7577   -8.6757    0.0000 C   0  0  2  0  0  0  0  0  0  0  0  0
   11.4222   -7.9220    0.0000 O   0  0  0  0  0  0  0  0  0  0  0  0
   17.6509  -11.7343    0.0000 O   0  0  0  0  0  0  0  0  0  0  0  0
   18.6613  -10.7239    0.0000 C   0  0  0  0  0  0  0  0  0  0  0  0
   18.0780  -10.1405    0.0000 O   0  0  0  0  0  0  0  0  0  0  0  0
   15.6873  -10.7811    0.0000 C   0  0  0  0  0  0  0  0  0  0  0  0
   16.2706  -11.3645    0.0000 C   0  0  0  0  0  0  0  0  0  0  0  0
   17.0675  -11.1510    0.0000 C   0  0  0  0  0  0  0  0  0  0  0  0
   17.2811  -10.3541    0.0000 C   0  0  0  0  0  0  0  0  0  0  0  0
   16.6977   -9.7707    0.0000 C   0  0  0  0  0  0  0  0  0  0  0  0
   15.9008   -9.9842    0.0000 C   0  0  0  0  0  0  0  0  0  0  0  0
   13.1302   -9.2026    0.0000 O   0  0  0  0  0  0  0  0  0  0  0  0
   14.1921   -8.2464    0.0000 O   0  0  0  0  0  0  0  0  0  0  0  0
   15.3174   -9.4009    0.0000 C   0  0  0  0  0  0  0  0  0  0  0  0
   14.5206   -9.6144    0.0000 C   0  0  0  0  0  0  0  0  0  0  0  0
   13.9372   -9.0310    0.0000 C   0  0  0  0  0  0  0  0  0  0  0  0
 35 47  1  6  0  0  0
 34  1  1  1  0  0  0
 36  3  1  1  0  0  0
  3  2  1  0  0  0  0
 33  5  1  6  0  0  0
  5  4  1  0  0  0  0
 36 32  1  6  0  0  0
 30 32  1  6  0  0  0
 29  6  1  6  0  0  0
 28  7  1  1  0  0  0
 27  8  1  6  0  0  0
 26 25  1  1  0  0  0
 25 24  1  0  0  0  0
 24 23  1  0  0  0  0
 21 19  1  0  0  0  0
 16  9  1  0  0  0  0
 17 11  1  0  0  0  0
 11 10  1  0  0  0  0
 15 13  1  0  0  0  0
 13 12  1  0  0  0  0
 19 14  2  0  0  0  0
 15 14  1  0  0  0  0
 16 15  2  0  0  0  0
 17 16  1  0  0  0  0
 18 17  2  0  0  0  0
 19 18  1  0  0  0  0
 23 20  2  0  0  0  0
 22 21  2  0  0  0  0
 23 22  1  0  0  0  0
 31 26  1  0  0  0  0
 27 26  1  0  0  0  0
 28 27  1  0  0  0  0
 29 28  1  0  0  0  0
 30 29  1  0  0  0  0
 31 30  1  0  0  0  0
 37 33  1  0  0  0  0
 34 33  1  0  0  0  0
 35 34  1  0  0  0  0
 36 35  1  0  0  0  0
 37 36  1  0  0  0  0
 49 46  1  0  0  0  0
 43 38  1  0  0  0  0
 44 40  1  0  0  0  0
 40 39  1  0  0  0  0
 46 41  2  0  0  0  0
 42 41  1  0  0  0  0
 43 42  2  0  0  0  0
 44 43  1  0  0  0  0
 45 44  2  0  0  0  0
 46 45  1  0  0  0  0
 51 47  1  0  0  0  0
 51 48  2  0  0  0  0
 50 49  2  0  0  0  0
 51 50  1  0  0  0  0
M  END
>  <cdx:fragmentId>
2578

$$$$
