300703.cdx
  Mrv1902 05222410212D          

 49 54  0  0  0  0            999 V2000
    1.6699   -7.0723    0.0000 C   0  0  0  0  0  0  0  0  0  0  0  0
    1.6699   -7.8973    0.0000 C   0  0  0  0  0  0  0  0  0  0  0  0
    2.3843   -8.3098    0.0000 C   0  0  0  0  0  0  0  0  0  0  0  0
    3.0988   -7.8973    0.0000 C   0  0  0  0  0  0  0  0  0  0  0  0
    3.0988   -7.0723    0.0000 C   0  0  0  0  0  0  0  0  0  0  0  0
    2.3843   -6.6598    0.0000 C   0  0  0  0  0  0  0  0  0  0  0  0
    3.8133   -6.6598    0.0000 C   0  0  0  0  0  0  0  0  0  0  0  0
    4.5277   -7.0723    0.0000 C   0  0  0  0  0  0  0  0  0  0  0  0
    5.2422   -6.6598    0.0000 C   0  0  0  0  0  0  0  0  0  0  0  0
    0.9554   -6.6598    0.0000 O   0  0  0  0  0  0  0  0  0  0  0  0
    0.9554   -8.3098    0.0000 O   0  0  0  0  0  0  0  0  0  0  0  0
    0.9554   -9.1348    0.0000 C   0  0  0  0  0  0  0  0  0  0  0  0
    5.9567   -7.0723    0.0000 O   0  0  0  0  0  0  0  0  0  0  0  0
    6.6712   -6.6598    0.0000 C   0  0  0  0  0  0  0  0  0  0  0  0
    6.6712   -5.8348    0.0000 C   0  0  0  0  0  0  0  0  0  0  0  0
    5.9567   -5.4223    0.0000 C   0  0  0  0  0  0  0  0  0  0  0  0
    5.2422   -5.8348    0.0000 C   0  0  0  0  0  0  0  0  0  0  0  0
    5.9567   -4.5973    0.0000 O   0  0  0  0  0  0  0  0  0  0  0  0
    7.3856   -7.0723    0.0000 C   0  0  0  0  0  0  0  0  0  0  0  0
    8.1001   -6.6598    0.0000 C   0  0  0  0  0  0  0  0  0  0  0  0
    8.1001   -5.8348    0.0000 C   0  0  0  0  0  0  0  0  0  0  0  0
    7.3856   -5.4223    0.0000 C   0  0  0  0  0  0  0  0  0  0  0  0
    8.8146   -5.4223    0.0000 O   0  0  0  0  0  0  0  0  0  0  0  0
    8.8146   -4.5973    0.0000 C   0  0  0  0  0  0  0  0  0  0  0  0
    8.8146   -7.0723    0.0000 O   0  0  0  0  0  0  0  0  0  0  0  0
    8.8371   -7.9271    0.0000 C   0  0  1  0  0  0  0  0  0  0  0  0
    8.1226   -8.3396    0.0000 C   0  0  1  0  0  0  0  0  0  0  0  0
    8.1226   -9.1646    0.0000 C   0  0  1  0  0  0  0  0  0  0  0  0
    8.8371   -9.5771    0.0000 C   0  0  1  0  0  0  0  0  0  0  0  0
    9.5516   -9.1646    0.0000 C   0  0  0  0  0  0  0  0  0  0  0  0
    9.5516   -8.3396    0.0000 C   0  0  0  0  0  0  0  0  0  0  0  0
   10.2660   -9.5771    0.0000 C   0  0  0  0  0  0  0  0  0  0  0  0
   10.9805   -9.1646    0.0000 C   0  0  0  0  0  0  0  0  0  0  0  0
   10.9805   -8.3396    0.0000 C   0  0  0  0  0  0  0  0  0  0  0  0
   10.2660   -7.9271    0.0000 O   0  0  0  0  0  0  0  0  0  0  0  0
   10.2660  -10.4021    0.0000 O   0  0  0  0  0  0  0  0  0  0  0  0
    7.4082   -7.9271    0.0000 O   0  0  0  0  0  0  0  0  0  0  0  0
    7.4082   -9.5771    0.0000 O   0  0  0  0  0  0  0  0  0  0  0  0
    8.8371  -10.4021    0.0000 O   0  0  0  0  0  0  0  0  0  0  0  0
   11.6950   -7.9271    0.0000 C   0  0  0  0  0  0  0  0  0  0  0  0
   12.4095   -8.3396    0.0000 C   0  0  0  0  0  0  0  0  0  0  0  0
   13.1239   -7.9271    0.0000 C   0  0  0  0  0  0  0  0  0  0  0  0
   13.8384   -8.3396    0.0000 C   0  0  0  0  0  0  0  0  0  0  0  0
   14.5529   -7.9271    0.0000 C   0  0  0  0  0  0  0  0  0  0  0  0
   14.5529   -7.1021    0.0000 C   0  0  0  0  0  0  0  0  0  0  0  0
   13.8384   -6.6896    0.0000 C   0  0  0  0  0  0  0  0  0  0  0  0
   13.1239   -7.1021    0.0000 C   0  0  0  0  0  0  0  0  0  0  0  0
   15.2673   -6.6896    0.0000 O   0  0  0  0  0  0  0  0  0  0  0  0
   15.9818   -7.1021    0.0000 C   0  0  0  0  0  0  0  0  0  0  0  0
  1  2  2  0  0  0  0
  2  3  1  0  0  0  0
  3  4  2  0  0  0  0
  4  5  1  0  0  0  0
  5  6  2  0  0  0  0
  6  1  1  0  0  0  0
  5  7  1  0  0  0  0
  7  8  1  0  0  0  0
  8  9  1  0  0  0  0
  1 10  1  0  0  0  0
  2 11  1  0  0  0  0
 11 12  1  0  0  0  0
  9 13  1  0  0  0  0
 13 14  1  0  0  0  0
 14 15  2  0  0  0  0
 15 16  1  0  0  0  0
 16 17  1  0  0  0  0
 17  9  2  0  0  0  0
 16 18  2  0  0  0  0
 14 19  1  0  0  0  0
 19 20  2  0  0  0  0
 20 21  1  0  0  0  0
 21 22  2  0  0  0  0
 22 15  1  0  0  0  0
 21 23  1  0  0  0  0
 23 24  1  0  0  0  0
 20 25  1  0  0  0  0
 26 25  1  6  0  0  0
 26 27  1  0  0  0  0
 27 28  1  0  0  0  0
 28 29  1  0  0  0  0
 29 30  1  0  0  0  0
 30 31  2  0  0  0  0
 31 26  1  0  0  0  0
 30 32  1  0  0  0  0
 32 33  1  0  0  0  0
 33 34  2  0  0  0  0
 34 35  1  0  0  0  0
 35 31  1  0  0  0  0
 32 36  2  0  0  0  0
 27 37  1  1  0  0  0
 28 38  1  1  0  0  0
 29 39  1  1  0  0  0
 34 40  1  0  0  0  0
 40 41  1  0  0  0  0
 41 42  1  0  0  0  0
 42 43  2  0  0  0  0
 43 44  1  0  0  0  0
 44 45  2  0  0  0  0
 45 46  1  0  0  0  0
 46 47  2  0  0  0  0
 47 42  1  0  0  0  0
 45 48  1  0  0  0  0
 48 49  1  0  0  0  0
M  END
>  <cdx:fragmentId>
896

$$$$
