300735.cdx
  Mrv1902 05222410232D          

 69 76  0  0  0  0            999 V2000
    6.8998   -4.8100    0.0000 C   0  0  1  0  0  0  0  0  0  0  0  0
    7.6143   -4.3975    0.0000 C   0  0  1  0  0  0  0  0  0  0  0  0
    8.3288   -4.8100    0.0000 C   0  0  0  0  0  0  0  0  0  0  0  0
    8.3288   -5.6350    0.0000 C   0  0  0  0  0  0  0  0  0  0  0  0
    7.6143   -6.0475    0.0000 C   0  0  2  0  0  0  0  0  0  0  0  0
    7.6143   -6.8725    0.0000 C   0  0  0  0  0  0  0  0  0  0  0  0
    6.8998   -7.2850    0.0000 C   0  0  0  0  0  0  0  0  0  0  0  0
    6.1854   -6.8725    0.0000 C   0  0  1  0  0  0  0  0  0  0  0  0
    5.4709   -7.2850    0.0000 C   0  0  2  0  0  0  0  0  0  0  0  0
    5.4709   -8.1100    0.0000 C   0  0  0  0  0  0  0  0  0  0  0  0
    4.7564   -8.5225    0.0000 C   0  0  0  0  0  0  0  0  0  0  0  0
    4.0420   -8.1100    0.0000 C   0  0  1  0  0  0  0  0  0  0  0  0
    3.3275   -8.5225    0.0000 C   0  0  0  0  0  0  0  0  0  0  0  0
    2.6130   -8.1100    0.0000 C   0  0  2  0  0  0  0  0  0  0  0  0
    2.6130   -7.2850    0.0000 C   0  0  1  0  0  0  0  0  0  0  0  0
    3.3275   -6.8725    0.0000 C   0  0  0  0  0  0  0  0  0  0  0  0
    4.0420   -7.2850    0.0000 C   0  0  2  0  0  0  0  0  0  0  0  0
    4.7564   -6.8725    0.0000 C   0  0  1  0  0  0  0  0  0  0  0  0
    4.7564   -6.0475    0.0000 C   0  0  0  0  0  0  0  0  0  0  0  0
    5.4709   -5.6350    0.0000 C   0  0  0  0  0  0  0  0  0  0  0  0
    6.1854   -6.0475    0.0000 C   0  0  0  0  0  0  0  0  0  0  0  0
    6.8998   -5.6350    0.0000 C   0  0  2  0  0  0  0  0  0  0  0  0
    8.3288   -6.4600    0.0000 C   0  0  0  0  0  0  0  0  0  0  0  0
    8.3288   -7.2850    0.0000 O   0  0  0  0  0  0  0  0  0  0  0  0
    4.0420   -6.4600    0.0000 C   0  0  0  0  0  0  0  0  0  0  0  0
    3.7400   -9.2370    0.0000 C   0  0  0  0  0  0  0  0  0  0  0  0
    2.9150   -9.2370    0.0000 C   0  0  0  0  0  0  0  0  0  0  0  0
    5.4709   -6.4600    0.0000 C   0  0  0  0  0  0  0  0  0  0  0  0
    6.1854   -7.6975    0.0000 C   0  0  0  0  0  0  0  0  0  0  0  0
    7.6143   -3.5725    0.0000 C   0  0  0  0  0  0  0  0  0  0  0  0
    6.1854   -4.3975    0.0000 C   0  0  0  0  0  0  0  0  0  0  0  0
    1.8985   -6.8725    0.0000 O   0  0  0  0  0  0  0  0  0  0  0  0
    1.8985   -8.5225    0.0000 O   0  0  0  0  0  0  0  0  0  0  0  0
    4.0420   -8.9350    0.0000 H   0  0  0  0  0  0  0  0  0  0  0  0
    6.8998   -6.4600    0.0000 H   0  0  0  0  0  0  0  0  0  0  0  0
   11.1860   -8.9355    0.0000 O   0  0  0  0  0  0  0  0  0  0  0  0
   10.4734  -10.1741    0.0000 O   0  0  0  0  0  0  0  0  0  0  0  0
   11.1872   -9.7605    0.0000 C   0  0  2  0  0  0  0  0  0  0  0  0
   11.9023  -10.1720    0.0000 C   0  0  1  0  0  0  0  0  0  0  0  0
   11.9036  -10.9970    0.0000 C   0  0  2  0  0  0  0  0  0  0  0  0
   11.1897  -11.4105    0.0000 C   0  0  1  0  0  0  0  0  0  0  0  0
   10.4746  -10.9991    0.0000 C   0  0  1  0  0  0  0  0  0  0  0  0
    9.7608  -11.4127    0.0000 C   0  0  0  0  0  0  0  0  0  0  0  0
   12.6187  -11.4084    0.0000 O   0  0  0  0  0  0  0  0  0  0  0  0
   12.6161   -9.7584    0.0000 O   0  0  0  0  0  0  0  0  0  0  0  0
   11.1935  -13.8855    0.0000 O   0  0  0  0  0  0  0  0  0  0  0  0
    9.7658  -14.7127    0.0000 O   0  0  0  0  0  0  0  0  0  0  0  0
    8.3356  -13.8899    0.0000 O   0  0  0  0  0  0  0  0  0  0  0  0
    8.3331  -12.2399    0.0000 C   0  0  0  0  0  0  0  0  0  0  0  0
    9.0482  -12.6513    0.0000 C   0  0  1  0  0  0  0  0  0  0  0  0
    9.0494  -13.4763    0.0000 C   0  0  1  0  0  0  0  0  0  0  0  0
    9.7645  -13.8877    0.0000 C   0  0  2  0  0  0  0  0  0  0  0  0
   10.4784  -13.4741    0.0000 C   0  0  2  0  0  0  0  0  0  0  0  0
   10.4771  -12.6491    0.0000 C   0  0  1  0  0  0  0  0  0  0  0  0
    9.7620  -12.2377    0.0000 O   0  0  0  0  0  0  0  0  0  0  0  0
   11.1910  -12.2355    0.0000 O   0  0  0  0  0  0  0  0  0  0  0  0
   10.4716   -8.5229    0.0000 C   0  0  0  0  0  0  0  0  0  0  0  0
   10.4724   -5.2229    0.0000 O   0  0  0  0  0  0  0  0  0  0  0  0
   11.9011   -6.0482    0.0000 O   0  0  0  0  0  0  0  0  0  0  0  0
   11.9007   -7.6982    0.0000 O   0  0  0  0  0  0  0  0  0  0  0  0
   10.4718   -7.6979    0.0000 C   0  0  2  0  0  0  0  0  0  0  0  0
   11.1864   -7.2855    0.0000 C   0  0  2  0  0  0  0  0  0  0  0  0
   11.1866   -6.4605    0.0000 C   0  0  1  0  0  0  0  0  0  0  0  0
   10.4722   -6.0479    0.0000 C   0  0  2  0  0  0  0  0  0  0  0  0
    9.7576   -6.4602    0.0000 C   0  0  1  0  0  0  0  0  0  0  0  0
    9.7574   -7.2852    0.0000 O   0  0  0  0  0  0  0  0  0  0  0  0
    9.0433   -6.0475    0.0000 O   0  0  0  0  0  0  0  0  0  0  0  0
    4.7564   -7.6975    0.0000 H   0  0  0  0  0  0  0  0  0  0  0  0
    9.0463  -11.0002    0.0000 O   0  0  0  0  0  0  0  0  0  0  0  0
 65 67  1  1  0  0  0
 61 57  1  1  0  0  0
 57 36  1  0  0  0  0
 54 56  1  1  0  0  0
 53 46  1  6  0  0  0
 52 47  1  6  0  0  0
 51 48  1  1  0  0  0
 50 49  1  6  0  0  0
 55 50  1  0  0  0  0
 51 50  1  0  0  0  0
 52 51  1  0  0  0  0
 53 52  1  0  0  0  0
 54 53  1  0  0  0  0
 55 54  1  0  0  0  0
 37 38  1  0  0  0  0
 64 58  1  6  0  0  0
 63 59  1  1  0  0  0
 62 60  1  6  0  0  0
 66 61  1  0  0  0  0
 62 61  1  0  0  0  0
 63 62  1  0  0  0  0
 64 63  1  0  0  0  0
  1  2  1  0  0  0  0
  2  3  1  0  0  0  0
  3  4  1  0  0  0  0
  4  5  1  0  0  0  0
  5  6  1  0  0  0  0
  6  7  1  0  0  0  0
  7  8  1  0  0  0  0
  8  9  1  0  0  0  0
  9 10  1  0  0  0  0
 10 11  1  0  0  0  0
 11 12  1  0  0  0  0
 12 13  1  0  0  0  0
 13 14  1  0  0  0  0
 14 15  1  0  0  0  0
 15 16  1  0  0  0  0
 16 17  1  0  0  0  0
 12 17  1  0  0  0  0
 17 18  1  0  0  0  0
  9 18  1  0  0  0  0
 18 19  1  0  0  0  0
 19 20  1  0  0  0  0
 20 21  2  0  0  0  0
  8 21  1  0  0  0  0
 21 22  1  0  0  0  0
  5 22  1  0  0  0  0
  1 22  1  0  0  0  0
 23 24  2  0  0  0  0
 23 67  1  0  0  0  0
  5 23  1  1  0  0  0
 17 25  1  1  0  0  0
 13 26  1  0  0  0  0
 13 27  1  0  0  0  0
  9 28  1  1  0  0  0
  8 29  1  6  0  0  0
  2 30  1  6  0  0  0
  1 31  1  1  0  0  0
 15 32  1  6  0  0  0
 14 33  1  1  0  0  0
 12 34  1  6  0  0  0
 22 35  1  1  0  0  0
 65 64  1  0  0  0  0
 66 65  1  0  0  0  0
 38 39  1  0  0  0  0
 39 40  1  0  0  0  0
 40 41  1  0  0  0  0
 41 42  1  0  0  0  0
 37 42  1  0  0  0  0
 41 56  1  6  0  0  0
 42 43  1  1  0  0  0
 40 44  1  1  0  0  0
 39 45  1  6  0  0  0
 38 36  1  1  0  0  0
 18 68  1  6  0  0  0
 43 69  1  0  0  0  0
M  END
>  <cdx:fragmentId>
3662

$$$$
