300780.cdx
  Mrv1902 05222410262D          

 13 13  0  0  0  0            999 V2000
    8.3591   -5.6066    0.0000 O   0  0  0  0  0  0  0  0  0  0  0  0
    8.3635   -4.7816    0.0000 C   0  0  0  0  0  0  0  0  0  0  0  0
    6.9302   -5.5991    0.0000 C   0  0  0  0  0  0  0  0  0  0  0  0
    6.9345   -4.7741    0.0000 C   0  0  0  0  0  0  0  0  0  0  0  0
    9.0801   -4.3728    0.0000 C   0  0  0  0  0  0  0  0  0  0  0  0
    6.2222   -4.3579    0.0000 C   0  0  0  0  0  0  0  0  0  0  0  0
    7.6425   -6.0153    0.0000 C   0  0  0  0  0  0  0  0  0  0  0  0
    8.3505   -7.2565    0.0000 C   0  0  0  0  0  0  0  0  0  0  0  0
    8.3462   -8.0815    0.0000 C   0  0  0  0  0  0  0  0  0  0  0  0
    7.6296   -8.4903    0.0000 C   0  0  0  0  0  0  0  0  0  0  0  0
    6.9173   -8.0741    0.0000 C   0  0  0  0  0  0  0  0  0  0  0  0
    6.9216   -7.2491    0.0000 C   0  0  0  0  0  0  0  0  0  0  0  0
    7.6382   -6.8403    0.0000 C   0  0  0  0  0  0  0  0  0  0  0  0
 13  7  1  0  0  0  0
  7  1  1  0  0  0  0
  7  3  1  0  0  0  0
 13  8  2  0  0  0  0
  9  8  1  0  0  0  0
 10  9  2  0  0  0  0
 11 10  1  0  0  0  0
 12 11  2  0  0  0  0
 13 12  1  0  0  0  0
  2  5  1  0  0  0  0
  1  2  1  0  0  0  0
  3  4  1  0  0  0  0
  4  6  2  0  0  0  0
M  END
>  <cdx:fragmentId>
1276

$$$$
