300788.cdx
  Mrv1902 05222410182D          

 27 30  0  0  0  0            999 V2000
    9.1645   -7.7946    0.0000 C   0  0  0  0  0  0  0  0  0  0  0  0
    8.6796   -8.4621    0.0000 N   0  0  0  0  0  0  0  0  0  0  0  0
    7.8949   -8.2071    0.0000 C   0  0  0  0  0  0  0  0  0  0  0  0
    7.8949   -7.3821    0.0000 C   0  0  0  0  0  0  0  0  0  0  0  0
    8.6796   -7.1272    0.0000 N   0  0  0  0  0  0  0  0  0  0  0  0
    7.1805   -8.6196    0.0000 C   0  0  0  0  0  0  0  0  0  0  0  0
    6.4660   -8.2071    0.0000 C   0  0  0  0  0  0  0  0  0  0  0  0
    6.4660   -7.3821    0.0000 C   0  0  0  0  0  0  0  0  0  0  0  0
    7.1805   -6.9696    0.0000 C   0  0  0  0  0  0  0  0  0  0  0  0
    5.7515   -8.6196    0.0000 N   0  0  0  0  0  0  0  0  0  0  0  0
    9.9895   -7.7946    0.0000 C   0  0  0  0  0  0  0  0  0  0  0  0
    5.0370   -8.2071    0.0000 C   0  0  0  0  0  0  0  0  0  0  0  0
    4.3226   -8.6196    0.0000 C   0  0  0  0  0  0  0  0  0  0  0  0
    4.3226   -9.4446    0.0000 C   0  0  0  0  0  0  0  0  0  0  0  0
    3.6081   -9.8571    0.0000 C   0  0  0  0  0  0  0  0  0  0  0  0
    2.8936   -9.4446    0.0000 C   0  0  0  0  0  0  0  0  0  0  0  0
    2.8936   -8.6196    0.0000 C   0  0  0  0  0  0  0  0  0  0  0  0
    3.6081   -8.2071    0.0000 C   0  0  0  0  0  0  0  0  0  0  0  0
    2.1792   -9.8571    0.0000 O   0  0  0  0  0  0  0  0  0  0  0  0
    1.4647   -9.4446    0.0000 C   0  0  0  0  0  0  0  0  0  0  0  0
    8.9345   -6.3426    0.0000 C   0  0  0  0  0  0  0  0  0  0  0  0
    9.7415   -6.1710    0.0000 C   0  0  0  0  0  0  0  0  0  0  0  0
    9.9964   -5.3864    0.0000 C   0  0  0  0  0  0  0  0  0  0  0  0
   10.8034   -5.2149    0.0000 C   0  0  0  0  0  0  0  0  0  0  0  0
   11.3554   -5.8280    0.0000 C   0  0  0  0  0  0  0  0  0  0  0  0
   11.1005   -6.6126    0.0000 C   0  0  0  0  0  0  0  0  0  0  0  0
   10.2935   -6.7841    0.0000 C   0  0  0  0  0  0  0  0  0  0  0  0
  1  2  2  0  0  0  0
  2  3  1  0  0  0  0
  3  4  1  0  0  0  0
  4  5  1  0  0  0  0
  1  5  1  0  0  0  0
  6  7  1  0  0  0  0
  7  8  2  0  0  0  0
  8  9  1  0  0  0  0
  4  9  2  0  0  0  0
  3  6  2  0  0  0  0
  7 10  1  0  0  0  0
  1 11  1  0  0  0  0
 13 14  1  0  0  0  0
 14 15  2  0  0  0  0
 15 16  1  0  0  0  0
 16 17  2  0  0  0  0
 17 18  1  0  0  0  0
 13 18  2  0  0  0  0
 19 20  1  0  0  0  0
 16 19  1  0  0  0  0
 12 13  1  0  0  0  0
 10 12  1  0  0  0  0
 21 22  1  0  0  0  0
 22 23  1  0  0  0  0
 23 24  2  0  0  0  0
 24 25  1  0  0  0  0
 25 26  2  0  0  0  0
 26 27  1  0  0  0  0
 22 27  2  0  0  0  0
  5 21  1  0  0  0  0
M  END
>  <cdx:fragmentId>
1719

$$$$
