300754.cdx
  Mrv1902 05222410262D          

 46 52  0  0  0  0            999 V2000
    7.2622   -9.7233    0.0000 C   0  0  1  0  0  0  0  0  0  0  0  0
    7.9766   -9.3108    0.0000 C   0  0  2  0  0  0  0  0  0  0  0  0
    8.7612   -9.5658    0.0000 C   0  0  0  0  0  0  0  0  0  0  0  0
    9.2462   -8.8983    0.0000 C   0  0  2  0  0  0  0  0  0  0  0  0
   10.0308   -8.6434    0.0000 O   0  0  0  0  0  0  0  0  0  0  0  0
   10.0308   -7.8184    0.0000 C   0  0  2  0  0  0  0  0  0  0  0  0
    9.2462   -7.5634    0.0000 C   0  0  2  0  0  0  0  0  0  0  0  0
    8.7612   -8.2309    0.0000 C   0  0  2  0  0  0  0  0  0  0  0  0
    7.9766   -8.4858    0.0000 C   0  0  1  0  0  0  0  0  0  0  0  0
    7.2622   -8.0733    0.0000 C   0  0  0  0  0  0  0  0  0  0  0  0
    6.5477   -8.4858    0.0000 C   0  0  0  0  0  0  0  0  0  0  0  0
    6.5477   -9.3108    0.0000 C   0  0  2  0  0  0  0  0  0  0  0  0
    5.8332   -9.7233    0.0000 C   0  0  1  0  0  0  0  0  0  0  0  0
    5.1187   -9.3108    0.0000 C   0  0  1  0  0  0  0  0  0  0  0  0
    4.4043   -9.7233    0.0000 C   0  0  2  0  0  0  0  0  0  0  0  0
    4.4043  -10.5483    0.0000 C   0  0  1  0  0  0  0  0  0  0  0  0
    5.1187  -10.9608    0.0000 C   0  0  0  0  0  0  0  0  0  0  0  0
    5.8332  -10.5483    0.0000 C   0  0  0  0  0  0  0  0  0  0  0  0
    6.5477  -10.9608    0.0000 C   0  0  0  0  0  0  0  0  0  0  0  0
    7.2622  -10.5483    0.0000 C   0  0  0  0  0  0  0  0  0  0  0  0
    9.9446   -6.9979    0.0000 O   0  0  0  0  0  0  0  0  0  0  0  0
   10.7845   -8.1539    0.0000 C   0  0  0  0  0  0  0  0  0  0  0  0
   11.4519   -7.6690    0.0000 C   0  0  0  0  0  0  0  0  0  0  0  0
   11.3657   -6.8485    0.0000 C   0  0  2  0  0  0  0  0  0  0  0  0
   10.6120   -6.5130    0.0000 C   0  0  0  0  0  0  0  0  0  0  0  0
    8.3487   -7.5164    0.0000 O   0  0  0  0  0  0  0  0  0  0  0  0
    3.6898   -9.3108    0.0000 O   0  0  0  0  0  0  0  0  0  0  0  0
    3.6898  -10.9608    0.0000 O   0  0  0  0  0  0  0  0  0  0  0  0
    5.8332   -8.8983    0.0000 C   0  0  0  0  0  0  0  0  0  0  0  0
    7.9766   -7.6608    0.0000 C   0  0  0  0  0  0  0  0  0  0  0  0
    8.9912   -6.7788    0.0000 C   0  0  0  0  0  0  0  0  0  0  0  0
   12.0331   -6.3636    0.0000 C   0  0  0  0  0  0  0  0  0  0  0  0
    7.2622   -8.8983    0.0000 H   0  0  0  0  0  0  0  0  0  0  0  0
    7.9766  -10.1358    0.0000 H   0  0  0  0  0  0  0  0  0  0  0  0
    9.7311   -9.5658    0.0000 H   0  0  0  0  0  0  0  0  0  0  0  0
    6.5477  -10.1358    0.0000 H   0  0  0  0  0  0  0  0  0  0  0  0
    3.4689   -8.5122    0.0000 O   0  0  0  0  0  0  0  0  0  0  0  0
    2.6212   -7.0966    0.0000 O   0  0  0  0  0  0  0  0  0  0  0  0
    3.4233   -5.6546    0.0000 O   0  0  0  0  0  0  0  0  0  0  0  0
    4.6721   -6.3493    0.0000 C   0  0  0  0  0  0  0  0  0  0  0  0
    3.8472   -6.3624    0.0000 C   0  0  2  0  0  0  0  0  0  0  0  0
    3.4461   -7.0834    0.0000 C   0  0  1  0  0  0  0  0  0  0  0  0
    3.8700   -7.7912    0.0000 C   0  0  2  0  0  0  0  0  0  0  0  0
    4.6949   -7.7780    0.0000 C   0  0  1  0  0  0  0  0  0  0  0  0
    5.0959   -7.0571    0.0000 O   0  0  0  0  0  0  0  0  0  0  0  0
    5.1187   -8.4858    0.0000 O   0  0  0  0  0  0  0  0  0  0  0  0
 44 46  1  1  0  0  0
 43 37  1  6  0  0  0
 42 38  1  1  0  0  0
 41 39  1  6  0  0  0
 45 40  1  0  0  0  0
 41 40  1  0  0  0  0
 42 41  1  0  0  0  0
 43 42  1  0  0  0  0
 44 43  1  0  0  0  0
 45 44  1  0  0  0  0
  1  2  1  0  0  0  0
  2  3  1  0  0  0  0
  3  4  1  0  0  0  0
  4  5  1  0  0  0  0
  6  5  1  6  0  0  0
  6  7  1  0  0  0  0
  7  8  1  0  0  0  0
  8  9  1  0  0  0  0
  9 10  1  0  0  0  0
 10 11  1  0  0  0  0
 11 12  1  0  0  0  0
 12 13  1  0  0  0  0
 13 14  1  0  0  0  0
 14 15  1  0  0  0  0
 15 16  1  0  0  0  0
 16 17  1  0  0  0  0
 17 18  1  0  0  0  0
 18 19  2  0  0  0  0
 19 20  1  0  0  0  0
  1 20  1  0  0  0  0
  1 12  1  0  0  0  0
  2  9  1  0  0  0  0
  4  8  1  0  0  0  0
 13 18  1  0  0  0  0
 22 23  1  0  0  0  0
 23 24  1  0  0  0  0
 24 25  1  0  0  0  0
 21 25  1  0  0  0  0
  6 21  1  0  0  0  0
  6 22  1  0  0  0  0
  8 26  1  6  0  0  0
 15 27  1  6  0  0  0
 16 28  1  1  0  0  0
 14 46  1  1  0  0  0
 13 29  1  1  0  0  0
  9 30  1  1  0  0  0
  7 31  1  6  0  0  0
 24 32  1  6  0  0  0
  1 33  1  1  0  0  0
  2 34  1  6  0  0  0
  4 35  1  6  0  0  0
 12 36  1  6  0  0  0
M  END
>  <cdx:fragmentId>
6644

$$$$
