300765.cdx
  Mrv1902 05222410192D          

 18 20  0  0  0  0            999 V2000
    6.4643   -3.5463    0.0000 C   0  0  0  0  0  0  0  0  0  0  0  0
    8.7191   -5.7915    0.0000 C   0  0  0  0  0  0  0  0  0  0  0  0
    8.0827   -6.3165    0.0000 C   0  0  0  0  0  0  0  0  0  0  0  0
    7.2632   -4.4560    0.0000 C   0  0  0  0  0  0  0  0  0  0  0  0
    7.1451   -5.6997    0.0000 O   0  0  0  0  0  0  0  0  0  0  0  0
    7.9462   -5.5028    0.0000 C   0  0  0  0  0  0  0  0  0  0  0  0
    8.2918   -4.7537    0.0000 C   0  0  2  0  0  0  0  0  0  0  0  0
    7.9216   -4.0164    0.0000 C   0  0  0  0  0  0  0  0  0  0  0  0
    7.1143   -3.8462    0.0000 C   0  0  0  0  0  0  0  0  0  0  0  0
    6.4779   -4.3712    0.0000 C   0  0  1  0  0  0  0  0  0  0  0  0
    5.7567   -3.9706    0.0000 C   0  0  0  0  0  0  0  0  0  0  0  0
    5.0492   -4.3949    0.0000 C   0  0  0  0  0  0  0  0  0  0  0  0
    5.0629   -5.2198    0.0000 C   0  0  0  0  0  0  0  0  0  0  0  0
    5.7841   -5.6204    0.0000 C   0  0  2  0  0  0  0  0  0  0  0  0
    6.4916   -5.1961    0.0000 C   0  0  1  0  0  0  0  0  0  0  0  0
    5.0902   -6.8695    0.0000 O   0  0  0  0  0  0  0  0  0  0  0  0
    5.7977   -6.4453    0.0000 C   0  0  0  0  0  0  0  0  0  0  0  0
    9.1168   -4.7537    0.0000 H   0  0  0  0  0  0  0  0  0  0  0  0
 14 17  1  6  0  0  0
 10  1  1  6  0  0  0
  6  2  1  0  0  0  0
  6  3  1  0  0  0  0
 15 10  1  0  0  0  0
  7  4  1  0  0  0  0
 15  4  1  0  0  0  0
 15  5  1  1  0  0  0
  6  5  1  0  0  0  0
  7  6  1  0  0  0  0
  8  7  1  0  0  0  0
  9  8  1  0  0  0  0
 10  9  1  0  0  0  0
 11 10  1  0  0  0  0
 12 11  1  0  0  0  0
 13 12  1  0  0  0  0
 14 13  1  0  0  0  0
 15 14  1  0  0  0  0
 17 16  1  0  0  0  0
  7 18  1  6  0  0  0
M  END
>  <cdx:fragmentId>
327

$$$$
