300712.cdx
  Mrv1902 05222410222D          

 48 54  0  0  0  0            999 V2000
   10.3905   -6.3326    0.0000 O   0  0  0  0  0  0  0  0  0  0  0  0
    9.9056   -5.6651    0.0000 C   0  0  0  0  0  0  0  0  0  0  0  0
    9.1210   -5.9201    0.0000 C   0  0  0  0  0  0  0  0  0  0  0  0
    9.1210   -6.7451    0.0000 C   0  0  0  0  0  0  0  0  0  0  0  0
    9.9056   -7.0000    0.0000 C   0  0  0  0  0  0  0  0  0  0  0  0
    8.4065   -7.1576    0.0000 C   0  0  0  0  0  0  0  0  0  0  0  0
    7.6920   -6.7451    0.0000 C   0  0  0  0  0  0  0  0  0  0  0  0
    7.6920   -5.9201    0.0000 C   0  0  0  0  0  0  0  0  0  0  0  0
    8.4065   -5.5076    0.0000 C   0  0  0  0  0  0  0  0  0  0  0  0
    6.9775   -5.5076    0.0000 C   0  0  0  0  0  0  0  0  0  0  0  0
    6.2631   -5.9201    0.0000 C   0  0  0  0  0  0  0  0  0  0  0  0
    6.2631   -6.7451    0.0000 C   0  0  0  0  0  0  0  0  0  0  0  0
    6.9775   -7.1576    0.0000 C   0  0  0  0  0  0  0  0  0  0  0  0
   10.1605   -4.8805    0.0000 O   0  0  0  0  0  0  0  0  0  0  0  0
    8.4065   -7.9826    0.0000 O   0  0  0  0  0  0  0  0  0  0  0  0
    6.9775   -7.9826    0.0000 O   0  0  0  0  0  0  0  0  0  0  0  0
    7.6920   -8.3951    0.0000 C   0  0  2  0  0  0  0  0  0  0  0  0
    7.6920   -9.2201    0.0000 C   0  0  1  0  0  0  0  0  0  0  0  0
    6.9775   -9.6326    0.0000 C   0  0  2  0  0  0  0  0  0  0  0  0
    6.2631   -9.2201    0.0000 C   0  0  1  0  0  0  0  0  0  0  0  0
    6.2631   -8.3951    0.0000 C   0  0  1  0  0  0  0  0  0  0  0  0
    5.5486   -7.9826    0.0000 C   0  0  0  0  0  0  0  0  0  0  0  0
    4.8341   -8.3951    0.0000 O   0  0  0  0  0  0  0  0  0  0  0  0
    4.1197   -7.1576    0.0000 O   0  0  0  0  0  0  0  0  0  0  0  0
    4.1197   -7.9826    0.0000 C   0  0  2  0  0  0  0  0  0  0  0  0
    3.4052   -8.3951    0.0000 C   0  0  1  0  0  0  0  0  0  0  0  0
    2.6907   -7.9826    0.0000 C   0  0  2  0  0  0  0  0  0  0  0  0
    2.6907   -7.1576    0.0000 C   0  0  2  0  0  0  0  0  0  0  0  0
    3.4052   -6.7451    0.0000 C   0  0  0  0  0  0  0  0  0  0  0  0
    1.9762   -6.7451    0.0000 O   0  0  0  0  0  0  0  0  0  0  0  0
    1.9762   -8.3951    0.0000 O   0  0  0  0  0  0  0  0  0  0  0  0
    3.4052   -9.2201    0.0000 O   0  0  0  0  0  0  0  0  0  0  0  0
    5.5486   -9.6326    0.0000 O   0  0  0  0  0  0  0  0  0  0  0  0
    6.9775  -10.4576    0.0000 O   0  0  0  0  0  0  0  0  0  0  0  0
    8.4065   -9.6326    0.0000 O   0  0  0  0  0  0  0  0  0  0  0  0
    5.5486   -5.5076    0.0000 O   0  0  0  0  0  0  0  0  0  0  0  0
    4.8341   -5.9201    0.0000 C   0  0  0  0  0  0  0  0  0  0  0  0
    5.5486   -7.1576    0.0000 O   0  0  0  0  0  0  0  0  0  0  0  0
    4.8341   -6.7451    0.0000 C   0  0  0  0  0  0  0  0  0  0  0  0
    8.2350   -2.2256    0.0000 O   0  0  0  0  0  0  0  0  0  0  0  0
    7.4145   -2.1393    0.0000 C   0  0  0  0  0  0  0  0  0  0  0  0
    7.0789   -2.8930    0.0000 O   0  0  0  0  0  0  0  0  0  0  0  0
    7.6920   -3.4451    0.0000 C   0  0  0  0  0  0  0  0  0  0  0  0
    8.4065   -3.0326    0.0000 C   0  0  0  0  0  0  0  0  0  0  0  0
    7.6920   -4.2701    0.0000 C   0  0  0  0  0  0  0  0  0  0  0  0
    8.4065   -4.6826    0.0000 C   0  0  0  0  0  0  0  0  0  0  0  0
    9.1210   -4.2701    0.0000 C   0  0  0  0  0  0  0  0  0  0  0  0
    9.1210   -3.4451    0.0000 C   0  0  0  0  0  0  0  0  0  0  0  0
  1  2  1  0  0  0  0
  2  3  1  0  0  0  0
  3  4  1  0  0  0  0
  4  5  1  0  0  0  0
  1  5  1  0  0  0  0
  6  7  1  0  0  0  0
  7  8  1  0  0  0  0
  8  9  1  0  0  0  0
  3  9  2  0  0  0  0
  4  6  2  0  0  0  0
 10 11  1  0  0  0  0
 11 12  2  0  0  0  0
 12 13  1  0  0  0  0
  7 13  2  0  0  0  0
  8 10  2  0  0  0  0
  2 14  2  0  0  0  0
 16 17  1  0  0  0  0
 17 18  1  0  0  0  0
 18 19  1  0  0  0  0
 19 20  1  0  0  0  0
 20 21  1  0  0  0  0
 16 21  1  0  0  0  0
 24 25  1  0  0  0  0
 25 26  1  0  0  0  0
 26 27  1  0  0  0  0
 27 28  1  0  0  0  0
 28 29  1  0  0  0  0
 24 29  1  0  0  0  0
 28 30  1  1  0  0  0
 27 31  1  1  0  0  0
 26 32  1  6  0  0  0
 25 23  1  1  0  0  0
 22 23  1  0  0  0  0
 21 22  1  1  0  0  0
 20 33  1  6  0  0  0
 19 34  1  1  0  0  0
 18 35  1  6  0  0  0
 17 15  1  1  0  0  0
  6 15  1  0  0  0  0
 36 37  1  0  0  0  0
 11 36  1  0  0  0  0
 38 39  1  0  0  0  0
 12 38  1  0  0  0  0
 40 41  1  0  0  0  0
 41 42  1  0  0  0  0
 42 43  1  0  0  0  0
 43 44  1  0  0  0  0
 40 44  1  0  0  0  0
 45 46  1  0  0  0  0
 46 47  2  0  0  0  0
 47 48  1  0  0  0  0
 44 48  2  0  0  0  0
 43 45  2  0  0  0  0
  9 46  1  0  0  0  0
M  END
>  <cdx:fragmentId>
1619

$$$$
