300756.cdx
  Mrv1902 05222410262D          

 79 88  0  0  0  0            999 V2000
    4.1407   -8.6265    0.0000 O   0  0  0  0  0  0  0  0  0  0  0  0
    2.9049   -7.9090    0.0000 O   0  0  0  0  0  0  0  0  0  0  0  0
    3.3157   -8.6245    0.0000 C   0  0  2  0  0  0  0  0  0  0  0  0
    2.9014   -9.3379    0.0000 C   0  0  1  0  0  0  0  0  0  0  0  0
    2.0764   -9.3359    0.0000 C   0  0  2  0  0  0  0  0  0  0  0  0
    1.6657   -8.6204    0.0000 C   0  0  1  0  0  0  0  0  0  0  0  0
    2.0799   -7.9070    0.0000 C   0  0  1  0  0  0  0  0  0  0  0  0
    1.6692   -7.1915    0.0000 C   0  0  0  0  0  0  0  0  0  0  0  0
    0.8442   -7.1894    0.0000 O   0  0  0  0  0  0  0  0  0  0  0  0
    0.8407   -8.6184    0.0000 O   0  0  0  0  0  0  0  0  0  0  0  0
    1.6621  -10.0493    0.0000 O   0  0  0  0  0  0  0  0  0  0  0  0
    3.3121  -10.0534    0.0000 O   0  0  0  0  0  0  0  0  0  0  0  0
   10.5284   -9.0176    0.0000 C   0  0  1  0  0  0  0  0  0  0  0  0
   11.2428   -8.6051    0.0000 C   0  0  2  0  0  0  0  0  0  0  0  0
   12.0275   -8.8601    0.0000 C   0  0  0  0  0  0  0  0  0  0  0  0
   12.5124   -8.1926    0.0000 C   0  0  2  0  0  0  0  0  0  0  0  0
   13.2970   -7.9377    0.0000 O   0  0  0  0  0  0  0  0  0  0  0  0
   13.2970   -7.1127    0.0000 C   0  0  2  0  0  0  0  0  0  0  0  0
   12.5124   -6.8578    0.0000 C   0  0  2  0  0  0  0  0  0  0  0  0
   12.0275   -7.5252    0.0000 C   0  0  2  0  0  0  0  0  0  0  0  0
   11.2428   -7.7801    0.0000 C   0  0  1  0  0  0  0  0  0  0  0  0
   10.5284   -7.3676    0.0000 C   0  0  0  0  0  0  0  0  0  0  0  0
    9.8139   -7.7801    0.0000 C   0  0  0  0  0  0  0  0  0  0  0  0
    9.8139   -8.6051    0.0000 C   0  0  2  0  0  0  0  0  0  0  0  0
    9.0994   -9.0176    0.0000 C   0  0  1  0  0  0  0  0  0  0  0  0
    8.3850   -8.6051    0.0000 C   0  0  0  0  0  0  0  0  0  0  0  0
    7.6705   -9.0176    0.0000 C   0  0  0  0  0  0  0  0  0  0  0  0
    7.6705   -9.8426    0.0000 C   0  0  1  0  0  0  0  0  0  0  0  0
    8.3850  -10.2551    0.0000 C   0  0  0  0  0  0  0  0  0  0  0  0
    9.0994   -9.8426    0.0000 C   0  0  0  0  0  0  0  0  0  0  0  0
    9.8139  -10.2551    0.0000 C   0  0  0  0  0  0  0  0  0  0  0  0
   10.5284   -9.8426    0.0000 C   0  0  0  0  0  0  0  0  0  0  0  0
   13.2970   -6.2877    0.0000 O   0  0  0  0  0  0  0  0  0  0  0  0
   14.0816   -7.3676    0.0000 C   0  0  0  0  0  0  0  0  0  0  0  0
   14.5666   -6.7002    0.0000 C   0  0  0  0  0  0  0  0  0  0  0  0
   14.0816   -6.0328    0.0000 C   0  0  2  0  0  0  0  0  0  0  0  0
    9.0994   -8.1926    0.0000 C   0  0  0  0  0  0  0  0  0  0  0  0
   11.0996   -6.9677    0.0000 C   0  0  0  0  0  0  0  0  0  0  0  0
   12.2574   -6.0731    0.0000 C   0  0  0  0  0  0  0  0  0  0  0  0
   13.9101   -5.2258    0.0000 C   0  0  0  0  0  0  0  0  0  0  0  0
   14.6947   -5.4807    0.0000 C   0  0  0  0  0  0  0  0  0  0  0  0
   15.4793   -5.7357    0.0000 O   0  0  0  0  0  0  0  0  0  0  0  0
   10.5284   -8.1926    0.0000 H   0  0  0  0  0  0  0  0  0  0  0  0
   11.2428   -9.4301    0.0000 H   0  0  0  0  0  0  0  0  0  0  0  0
   12.9973   -8.8601    0.0000 H   0  0  0  0  0  0  0  0  0  0  0  0
   11.6658   -6.7837    0.0000 H   0  0  0  0  0  0  0  0  0  0  0  0
    9.8139   -9.4301    0.0000 H   0  0  0  0  0  0  0  0  0  0  0  0
    4.0981  -10.2498    0.0000 O   0  0  0  0  0  0  0  0  0  0  0  0
    4.8180   -7.3636    0.0000 O   0  0  0  0  0  0  0  0  0  0  0  0
    5.5317   -7.7775    0.0000 C   0  0  0  0  0  0  0  0  0  0  0  0
    6.9560  -10.2551    0.0000 O   0  0  0  0  0  0  0  0  0  0  0  0
    5.5302   -8.6025    0.0000 C   0  0  2  0  0  0  0  0  0  0  0  0
    4.8149   -9.0136    0.0000 C   0  0  2  0  0  0  0  0  0  0  0  0
    4.8134   -9.8386    0.0000 C   0  0  1  0  0  0  0  0  0  0  0  0
    5.5271  -10.2524    0.0000 C   0  0  2  0  0  0  0  0  0  0  0  0
    6.2423   -9.8413    0.0000 C   0  0  1  0  0  0  0  0  0  0  0  0
    6.2439   -9.0163    0.0000 O   0  0  0  0  0  0  0  0  0  0  0  0
    5.5255  -11.0774    0.0000 O   0  0  0  0  0  0  0  0  0  0  0  0
    2.6676  -11.0721    0.0000 C   0  0  0  0  0  0  0  0  0  0  0  0
    2.6645  -12.7221    0.0000 O   0  0  0  0  0  0  0  0  0  0  0  0
    4.0919  -13.5498    0.0000 O   0  0  0  0  0  0  0  0  0  0  0  0
    5.5224  -12.7274    0.0000 O   0  0  0  0  0  0  0  0  0  0  0  0
    3.3813  -11.4859    0.0000 C   0  0  1  0  0  0  0  0  0  0  0  0
    3.3798  -12.3109    0.0000 C   0  0  1  0  0  0  0  0  0  0  0  0
    4.0935  -12.7248    0.0000 C   0  0  2  0  0  0  0  0  0  0  0  0
    4.8087  -12.3136    0.0000 C   0  0  2  0  0  0  0  0  0  0  0  0
    4.8103  -11.4886    0.0000 C   0  0  1  0  0  0  0  0  0  0  0  0
    4.0966  -11.0748    0.0000 O   0  0  0  0  0  0  0  0  0  0  0  0
   16.9162   -5.7226    0.0000 O   0  0  0  0  0  0  0  0  0  0  0  0
   16.1987   -5.3155    0.0000 C   0  0  2  0  0  0  0  0  0  0  0  0
   16.1924   -4.4905    0.0000 C   0  0  1  0  0  0  0  0  0  0  0  0
   16.9038   -4.0726    0.0000 C   0  0  2  0  0  0  0  0  0  0  0  0
   17.6213   -4.4797    0.0000 C   0  0  1  0  0  0  0  0  0  0  0  0
   17.6276   -5.3047    0.0000 C   0  0  1  0  0  0  0  0  0  0  0  0
   18.3451   -5.7118    0.0000 C   0  0  0  0  0  0  0  0  0  0  0  0
   19.0565   -5.2939    0.0000 O   0  0  0  0  0  0  0  0  0  0  0  0
   18.3327   -4.0618    0.0000 O   0  0  0  0  0  0  0  0  0  0  0  0
   16.8975   -3.2477    0.0000 O   0  0  0  0  0  0  0  0  0  0  0  0
   15.4749   -4.0834    0.0000 O   0  0  0  0  0  0  0  0  0  0  0  0
 67 58  1  1  0  0  0
 55 58  1  6  0  0  0
 54 48  1  1  0  0  0
 52 50  1  1  0  0  0
 50 49  1  0  0  0  0
 56 51  1  1  0  0  0
 53  1  1  6  0  0  0
 57 52  1  0  0  0  0
 53 52  1  0  0  0  0
 54 53  1  0  0  0  0
 55 54  1  0  0  0  0
 56 55  1  0  0  0  0
 57 56  1  0  0  0  0
 63 59  1  6  0  0  0
 64 60  1  1  0  0  0
 65 61  1  6  0  0  0
 66 62  1  6  0  0  0
 68 63  1  0  0  0  0
 64 63  1  0  0  0  0
 65 64  1  0  0  0  0
 66 65  1  0  0  0  0
 67 66  1  0  0  0  0
 68 67  1  0  0  0  0
  2  3  1  0  0  0  0
  3  4  1  0  0  0  0
  4  5  1  0  0  0  0
  5  6  1  0  0  0  0
  6  7  1  0  0  0  0
  2  7  1  0  0  0  0
  8  9  1  0  0  0  0
  7  8  1  1  0  0  0
  6 10  1  6  0  0  0
  5 11  1  1  0  0  0
  4 12  1  6  0  0  0
  3  1  1  1  0  0  0
 13 14  1  0  0  0  0
 14 15  1  0  0  0  0
 15 16  1  0  0  0  0
 16 17  1  0  0  0  0
 17 18  1  0  0  0  0
 18 19  1  0  0  0  0
 19 20  1  0  0  0  0
 20 21  1  0  0  0  0
 21 22  1  0  0  0  0
 22 23  1  0  0  0  0
 23 24  1  0  0  0  0
 24 25  1  0  0  0  0
 25 26  1  0  0  0  0
 26 27  1  0  0  0  0
 27 28  1  0  0  0  0
 28 29  1  0  0  0  0
 29 30  1  0  0  0  0
 30 31  2  0  0  0  0
 31 32  1  0  0  0  0
 13 32  1  0  0  0  0
 13 24  1  0  0  0  0
 25 30  1  0  0  0  0
 14 21  1  0  0  0  0
 16 20  1  0  0  0  0
 34 35  1  0  0  0  0
 35 36  1  0  0  0  0
 33 36  1  0  0  0  0
 18 33  1  6  0  0  0
 18 34  1  1  0  0  0
 25 37  1  1  0  0  0
 21 38  1  1  0  0  0
 19 39  1  6  0  0  0
 36 40  1  1  0  0  0
 41 42  1  0  0  0  0
 36 41  1  6  0  0  0
 28 51  1  1  0  0  0
 13 43  1  1  0  0  0
 14 44  1  6  0  0  0
 16 45  1  6  0  0  0
 20 46  1  6  0  0  0
 24 47  1  6  0  0  0
 69 70  1  0  0  0  0
 70 71  1  0  0  0  0
 71 72  1  0  0  0  0
 72 73  1  0  0  0  0
 73 74  1  0  0  0  0
 69 74  1  0  0  0  0
 75 76  1  0  0  0  0
 74 75  1  1  0  0  0
 73 77  1  6  0  0  0
 72 78  1  1  0  0  0
 71 79  1  6  0  0  0
 70 42  1  1  0  0  0
M  END
>  <cdx:fragmentId>
65

$$$$
