300749.cdx
  Mrv1902 05222410192D          

 42 44  0  0  0  0            999 V2000
    2.7196   -9.0214    0.0000 C   0  0  0  0  0  0  0  0  0  0  0  0
    2.0157   -8.5910    0.0000 C   0  0  0  0  0  0  0  0  0  0  0  0
    2.6989   -9.8461    0.0000 O   0  0  0  0  0  0  0  0  0  0  0  0
    3.4442   -8.6269    0.0000 O   0  0  0  0  0  0  0  0  0  0  0  0
    4.1481   -9.0572    0.0000 C   0  0  0  0  0  0  0  0  0  0  0  0
    8.4336   -9.1649    0.0000 N   0  0  0  0  0  0  0  0  0  0  0  0
    7.7297   -8.7346    0.0000 C   0  0  0  0  0  0  0  0  0  0  0  0
    7.7504   -7.9098    0.0000 C   0  0  1  0  0  0  0  0  0  0  0  0
    7.0465   -7.4795    0.0000 N   0  0  0  0  0  0  0  0  0  0  0  0
    7.0672   -6.6548    0.0000 C   0  0  0  0  0  0  0  0  0  0  0  0
    6.3633   -6.2245    0.0000 C   0  0  0  0  0  0  0  0  0  0  0  0
    5.6387   -6.6189    0.0000 C   0  0  1  0  0  0  0  0  0  0  0  0
    5.6180   -7.4436    0.0000 N   0  0  0  0  0  0  0  0  0  0  0  0
    4.8934   -7.8381    0.0000 C   0  0  0  0  0  0  0  0  0  0  0  0
    4.8727   -8.6628    0.0000 C   0  0  1  0  0  0  0  0  0  0  0  0
    5.5766   -9.0931    0.0000 N   0  0  0  0  0  0  0  0  0  0  0  0
    5.5559   -9.9179    0.0000 C   0  0  0  0  0  0  0  0  0  0  0  0
    6.2598  -10.3482    0.0000 C   0  0  1  0  0  0  0  0  0  0  0  0
    6.9844   -9.9537    0.0000 N   0  0  0  0  0  0  0  0  0  0  0  0
    7.6882  -10.3841    0.0000 C   0  0  0  0  0  0  0  0  0  0  0  0
    8.4128   -9.9896    0.0000 C   0  0  2  0  0  0  0  0  0  0  0  0
    9.1908  -10.2642    0.0000 C   0  0  1  0  0  0  0  0  0  0  0  0
    9.6924   -9.6091    0.0000 C   0  0  1  0  0  0  0  0  0  0  0  0
    9.2243   -8.9297    0.0000 C   0  0  0  0  0  0  0  0  0  0  0  0
    4.9348   -6.1886    0.0000 C   0  0  0  0  0  0  0  0  0  0  0  0
    4.2102   -6.5830    0.0000 C   0  0  0  0  0  0  0  0  0  0  0  0
    3.5064   -6.1527    0.0000 C   0  0  0  0  0  0  0  0  0  0  0  0
    3.5271   -5.3280    0.0000 C   0  0  0  0  0  0  0  0  0  0  0  0
    4.2517   -4.9335    0.0000 C   0  0  0  0  0  0  0  0  0  0  0  0
    4.9556   -5.3639    0.0000 C   0  0  0  0  0  0  0  0  0  0  0  0
    7.6675  -11.2088    0.0000 O   0  0  0  0  0  0  0  0  0  0  0  0
    4.8313  -10.3123    0.0000 O   0  0  0  0  0  0  0  0  0  0  0  0
    4.1895   -7.4078    0.0000 O   0  0  0  0  0  0  0  0  0  0  0  0
    7.7918   -6.2604    0.0000 O   0  0  0  0  0  0  0  0  0  0  0  0
    7.0051   -9.1290    0.0000 O   0  0  0  0  0  0  0  0  0  0  0  0
    6.2390  -11.1729    0.0000 C   0  0  0  0  0  0  0  0  0  0  0  0
    8.4750   -7.5154    0.0000 C   0  0  0  0  0  0  0  0  0  0  0  0
    9.1789   -7.9457    0.0000 C   0  0  0  0  0  0  0  0  0  0  0  0
   10.5171   -9.6299    0.0000 Cl  0  0  0  0  0  0  0  0  0  0  0  0
    9.4260  -11.0550    0.0000 Cl  0  0  0  0  0  0  0  0  0  0  0  0
    8.4965  -10.8104    0.0000 H   0  0  0  0  0  0  0  0  0  0  0  0
    5.5144  -11.5673    0.0000 C   0  0  0  0  0  0  0  0  0  0  0  0
  1  2  1  0  0  0  0
  1  3  2  0  0  0  0
  1  4  1  0  0  0  0
  6  7  1  0  0  0  0
  7  8  1  0  0  0  0
  8  9  1  0  0  0  0
  9 10  1  0  0  0  0
 10 11  1  0  0  0  0
 11 12  1  0  0  0  0
 12 13  1  0  0  0  0
 13 14  1  0  0  0  0
 14 15  1  0  0  0  0
 15 16  1  0  0  0  0
 16 17  1  0  0  0  0
 17 18  1  0  0  0  0
 18 19  1  0  0  0  0
 19 20  1  0  0  0  0
 20 21  1  0  0  0  0
 21 22  1  0  0  0  0
 22 23  1  0  0  0  0
 23 24  1  0  0  0  0
  6 24  1  0  0  0  0
  6 21  1  0  0  0  0
 25 26  1  0  0  0  0
 26 27  2  0  0  0  0
 27 28  1  0  0  0  0
 28 29  2  0  0  0  0
 29 30  1  0  0  0  0
 25 30  2  0  0  0  0
 12 25  1  1  0  0  0
 20 31  2  0  0  0  0
 17 32  2  0  0  0  0
 14 33  2  0  0  0  0
 10 34  2  0  0  0  0
  7 35  2  0  0  0  0
 18 36  1  1  0  0  0
 37 38  1  0  0  0  0
  8 37  1  1  0  0  0
 23 39  1  1  0  0  0
 22 40  1  1  0  0  0
 15  5  1  1  0  0  0
  4  5  1  0  0  0  0
 21 41  1  6  0  0  0
 36 42  1  0  0  0  0
M  END
>  <cdx:fragmentId>
6116

$$$$
