300793.cdx
  Mrv1902 05222410272D          

 11 11  0  0  0  0            999 V2000
    7.2773   -7.2091    0.0000 C   0  0  0  0  0  0  0  0  0  0  0  0
    6.5628   -7.6216    0.0000 C   0  0  0  0  0  0  0  0  0  0  0  0
    5.8483   -7.2091    0.0000 C   0  0  0  0  0  0  0  0  0  0  0  0
    5.1338   -7.6216    0.0000 C   0  0  0  0  0  0  0  0  0  0  0  0
    5.1338   -8.4466    0.0000 C   0  0  0  0  0  0  0  0  0  0  0  0
    5.8483   -8.8591    0.0000 C   0  0  0  0  0  0  0  0  0  0  0  0
    6.5628   -8.4466    0.0000 C   0  0  0  0  0  0  0  0  0  0  0  0
    7.2773   -6.3841    0.0000 O   0  0  0  0  0  0  0  0  0  0  0  0
    7.9917   -7.6216    0.0000 O   0  0  0  0  0  0  0  0  0  0  0  0
    4.4194   -7.2091    0.0000 O   0  0  0  0  0  0  0  0  0  0  0  0
    8.7062   -7.2091    0.0000 C   0  0  0  0  0  0  0  0  0  0  0  0
  1  2  1  0  0  0  0
  2  3  1  0  0  0  0
  3  4  2  0  0  0  0
  4  5  1  0  0  0  0
  5  6  2  0  0  0  0
  6  7  1  0  0  0  0
  2  7  2  0  0  0  0
  1  8  2  0  0  0  0
  1  9  1  0  0  0  0
  4 10  1  0  0  0  0
  9 11  1  0  0  0  0
M  END
>  <cdx:fragmentId>
1950

$$$$
