300717.cdx
  Mrv1902 05222410212D          

 53 58  0  0  0  0            999 V2000
   11.5930   -6.0871    0.0000 O   0  0  0  0  0  0  0  0  0  0  0  0
   12.0125   -6.7976    0.0000 C   0  0  0  0  0  0  0  0  0  0  0  0
   11.4664   -7.4160    0.0000 C   0  0  1  0  0  0  0  0  0  0  0  0
   10.7095   -7.0878    0.0000 C   0  0  2  0  0  0  0  0  0  0  0  0
   10.7878   -6.2665    0.0000 C   0  0  0  0  0  0  0  0  0  0  0  0
   12.8338   -6.8758    0.0000 O   0  0  0  0  0  0  0  0  0  0  0  0
   11.6458   -8.2213    0.0000 C   0  0  0  0  0  0  0  0  0  0  0  0
    9.3444  -10.5674    0.0000 O   0  0  0  0  0  0  0  0  0  0  0  0
    9.8358  -11.2300    0.0000 C   0  0  1  0  0  0  0  0  0  0  0  0
   10.6179  -10.9675    0.0000 C   0  0  2  0  0  0  0  0  0  0  0  0
   10.6099  -10.1425    0.0000 C   0  0  0  0  0  0  0  0  0  0  0  0
   11.2175   -9.5845    0.0000 C   0  0  0  0  0  0  0  0  0  0  0  0
   11.0382   -8.7793    0.0000 C   0  0  0  0  0  0  0  0  0  0  0  0
   10.2511   -8.5320    0.0000 C   0  0  0  0  0  0  0  0  0  0  0  0
    9.6434   -9.0900    0.0000 C   0  0  0  0  0  0  0  0  0  0  0  0
    9.8228   -9.8952    0.0000 C   0  0  0  0  0  0  0  0  0  0  0  0
    8.8563   -8.8427    0.0000 O   0  0  0  0  0  0  0  0  0  0  0  0
    8.6769   -8.0374    0.0000 C   0  0  0  0  0  0  0  0  0  0  0  0
   11.2900  -11.4459    0.0000 C   0  0  0  0  0  0  0  0  0  0  0  0
   11.2118  -12.2671    0.0000 O   0  0  0  0  0  0  0  0  0  0  0  0
    9.5885  -12.0171    0.0000 C   0  0  0  0  0  0  0  0  0  0  0  0
   10.1465  -12.6248    0.0000 C   0  0  0  0  0  0  0  0  0  0  0  0
    9.8992  -13.4119    0.0000 C   0  0  0  0  0  0  0  0  0  0  0  0
    9.0940  -13.5913    0.0000 C   0  0  0  0  0  0  0  0  0  0  0  0
    8.5360  -12.9836    0.0000 C   0  0  0  0  0  0  0  0  0  0  0  0
    8.7833  -12.1965    0.0000 C   0  0  0  0  0  0  0  0  0  0  0  0
   10.4572  -14.0195    0.0000 O   0  0  0  0  0  0  0  0  0  0  0  0
   10.2099  -14.8066    0.0000 C   0  0  0  0  0  0  0  0  0  0  0  0
    8.8467  -14.3783    0.0000 O   0  0  0  0  0  0  0  0  0  0  0  0
    9.9991   -7.5073    0.0000 C   0  0  0  0  0  0  0  0  0  0  0  0
    9.2807   -7.1018    0.0000 C   0  0  0  0  0  0  0  0  0  0  0  0
    8.5702   -7.5212    0.0000 C   0  0  0  0  0  0  0  0  0  0  0  0
    7.8518   -7.1157    0.0000 C   0  0  0  0  0  0  0  0  0  0  0  0
    7.8437   -6.2907    0.0000 C   0  0  0  0  0  0  0  0  0  0  0  0
    8.5542   -5.8713    0.0000 C   0  0  0  0  0  0  0  0  0  0  0  0
    9.2726   -6.2768    0.0000 C   0  0  0  0  0  0  0  0  0  0  0  0
    8.5461   -5.0463    0.0000 O   0  0  0  0  0  0  0  0  0  0  0  0
    9.2775   -4.6646    0.0000 C   0  0  0  0  0  0  0  0  0  0  0  0
    7.1253   -5.8852    0.0000 O   0  0  0  0  0  0  0  0  0  0  0  0
    6.4229   -7.1296    0.0000 C   0  0  0  0  0  0  0  0  0  0  0  0
    7.1414   -7.5351    0.0000 C   0  0  0  0  0  0  0  0  0  0  0  0
    7.1494   -8.3601    0.0000 C   0  0  0  0  0  0  0  0  0  0  0  0
    5.7125   -7.5491    0.0000 C   0  0  0  0  0  0  0  0  0  0  0  0
    5.7205   -8.3740    0.0000 C   0  0  0  0  0  0  0  0  0  0  0  0
    5.0101   -8.7935    0.0000 C   0  0  0  0  0  0  0  0  0  0  0  0
    4.2917   -8.3880    0.0000 C   0  0  0  0  0  0  0  0  0  0  0  0
    4.2836   -7.5630    0.0000 C   0  0  0  0  0  0  0  0  0  0  0  0
    4.9940   -7.1436    0.0000 C   0  0  0  0  0  0  0  0  0  0  0  0
    3.5813   -8.8074    0.0000 O   0  0  0  0  0  0  0  0  0  0  0  0
    7.8679   -8.7656    0.0000 O   0  0  0  0  0  0  0  0  0  0  0  0
    6.3717   -6.3062    0.0000 O   0  0  0  0  0  0  0  0  0  0  0  0
    3.5652   -7.1575    0.0000 O   0  0  0  0  0  0  0  0  0  0  0  0
    2.8507   -7.5700    0.0000 C   0  0  0  0  0  0  0  0  0  0  0  0
  1  2  1  0  0  0  0
  2  3  1  0  0  0  0
  3  4  1  0  0  0  0
  4  5  1  0  0  0  0
  1  5  1  0  0  0  0
  2  6  2  0  0  0  0
  8  9  1  0  0  0  0
  9 10  1  0  0  0  0
 10 11  1  0  0  0  0
 11 12  1  0  0  0  0
 12 13  2  0  0  0  0
 13 14  1  0  0  0  0
 14 15  2  0  0  0  0
 15 16  1  0  0  0  0
 11 16  2  0  0  0  0
  8 16  1  0  0  0  0
 17 18  1  0  0  0  0
 15 17  1  0  0  0  0
 19 20  1  0  0  0  0
 10 19  1  6  0  0  0
 21 22  1  0  0  0  0
 22 23  2  0  0  0  0
 23 24  1  0  0  0  0
 24 25  2  0  0  0  0
 25 26  1  0  0  0  0
 21 26  2  0  0  0  0
 27 28  1  0  0  0  0
 23 27  1  0  0  0  0
 24 29  1  0  0  0  0
  9 21  1  1  0  0  0
  7 13  1  0  0  0  0
  3  7  1  6  0  0  0
 31 32  1  0  0  0  0
 32 33  2  0  0  0  0
 33 34  1  0  0  0  0
 34 35  2  0  0  0  0
 35 36  1  0  0  0  0
 31 36  2  0  0  0  0
 37 38  1  0  0  0  0
 35 37  1  0  0  0  0
 34 39  1  0  0  0  0
 40 41  1  0  0  0  0
 41 42  1  0  0  0  0
 43 44  1  0  0  0  0
 44 45  2  0  0  0  0
 45 46  1  0  0  0  0
 46 47  2  0  0  0  0
 47 48  1  0  0  0  0
 43 48  2  0  0  0  0
 46 49  1  0  0  0  0
 40 43  1  0  0  0  0
 42 50  1  0  0  0  0
 40 51  1  0  0  0  0
 33 41  1  0  0  0  0
 30 31  1  0  0  0  0
  4 30  1  1  0  0  0
 47 52  1  0  0  0  0
 52 53  1  0  0  0  0
M  END
>  <cdx:fragmentId>
19

$$$$
