300782.cdx
  Mrv1902 05222410272D          

 18 19  0  0  0  0            999 V2000
    6.7288   -5.9795    0.0000 C   0  0  0  0  0  0  0  0  0  0  0  0
    6.7288   -6.8045    0.0000 C   0  0  0  0  0  0  0  0  0  0  0  0
    6.0143   -7.2170    0.0000 C   0  0  0  0  0  0  0  0  0  0  0  0
    5.2998   -6.8045    0.0000 C   0  0  0  0  0  0  0  0  0  0  0  0
    5.2998   -5.9795    0.0000 C   0  0  0  0  0  0  0  0  0  0  0  0
    6.0143   -5.5670    0.0000 C   0  0  0  0  0  0  0  0  0  0  0  0
    7.4432   -5.5670    0.0000 N   0  3  0  0  0  0  0  0  0  0  0  0
    7.4432   -4.7420    0.0000 O   0  0  0  0  0  0  0  0  0  0  0  0
    8.1577   -5.9795    0.0000 O   0  5  0  0  0  0  0  0  0  0  0  0
    7.4432   -7.2170    0.0000 O   0  0  0  0  0  0  0  0  0  0  0  0
    7.4432   -8.0420    0.0000 C   0  0  0  0  0  0  0  0  0  0  0  0
    6.7288   -8.4545    0.0000 C   0  0  0  0  0  0  0  0  0  0  0  0
    6.7288   -9.2795    0.0000 C   0  0  0  0  0  0  0  0  0  0  0  0
    7.4432   -9.6920    0.0000 C   0  0  0  0  0  0  0  0  0  0  0  0
    8.1577   -9.2795    0.0000 C   0  0  0  0  0  0  0  0  0  0  0  0
    8.1577   -8.4545    0.0000 C   0  0  0  0  0  0  0  0  0  0  0  0
    7.4432  -10.5170    0.0000 C   0  0  0  0  0  0  0  0  0  0  0  0
    4.5854   -7.2170    0.0000 F   0  0  0  0  0  0  0  0  0  0  0  0
  1  2  1  0  0  0  0
  2  3  2  0  0  0  0
  3  4  1  0  0  0  0
  4  5  2  0  0  0  0
  5  6  1  0  0  0  0
  1  6  2  0  0  0  0
  7  8  2  0  0  0  0
  7  9  1  0  0  0  0
  1  7  1  0  0  0  0
 11 12  1  0  0  0  0
 12 13  2  0  0  0  0
 13 14  1  0  0  0  0
 14 15  2  0  0  0  0
 15 16  1  0  0  0  0
 11 16  2  0  0  0  0
 10 11  1  0  0  0  0
 14 17  1  0  0  0  0
  2 10  1  0  0  0  0
  4 18  1  0  0  0  0
M  CHG  2   7   1   9  -1
M  END
>  <cdx:fragmentId>
1367

$$$$
