300774.cdx
  Mrv1902 05222410192D          

 17 18  0  0  0  0            999 V2000
    3.6254   -7.2615    0.0000 C   0  0  0  0  0  0  0  0  0  0  0  0
    2.9109   -7.6740    0.0000 C   0  0  0  0  0  0  0  0  0  0  0  0
    4.3399   -7.6740    0.0000 S   0  0  0  0  0  0  0  0  0  0  0  0
    4.7524   -6.9595    0.0000 O   0  0  0  0  0  0  0  0  0  0  0  0
    3.9274   -8.3885    0.0000 O   0  0  0  0  0  0  0  0  0  0  0  0
    5.0544   -8.0865    0.0000 O   0  0  0  0  0  0  0  0  0  0  0  0
    7.9824   -6.5941    0.0000 O   0  0  0  0  0  0  0  0  0  0  0  0
    8.4673   -7.2615    0.0000 C   0  0  0  0  0  0  0  0  0  0  0  0
    7.9824   -7.9289    0.0000 C   0  0  0  0  0  0  0  0  0  0  0  0
    7.1978   -7.6740    0.0000 C   0  0  0  0  0  0  0  0  0  0  0  0
    7.1978   -6.8490    0.0000 C   0  0  0  0  0  0  0  0  0  0  0  0
    6.4833   -6.4365    0.0000 C   0  0  0  0  0  0  0  0  0  0  0  0
    5.7688   -6.8490    0.0000 C   0  0  0  0  0  0  0  0  0  0  0  0
    5.7688   -7.6740    0.0000 C   0  0  0  0  0  0  0  0  0  0  0  0
    6.4833   -8.0865    0.0000 C   0  0  0  0  0  0  0  0  0  0  0  0
    8.5955   -8.4810    0.0000 C   0  0  0  0  0  0  0  0  0  0  0  0
    7.8109   -8.7359    0.0000 C   0  0  0  0  0  0  0  0  0  0  0  0
  1  2  1  0  0  0  0
  3  4  2  0  0  0  0
  3  5  2  0  0  0  0
  3  6  1  0  0  0  0
  1  3  1  0  0  0  0
  7  8  1  0  0  0  0
  8  9  1  0  0  0  0
  9 10  1  0  0  0  0
 10 11  1  0  0  0  0
  7 11  1  0  0  0  0
 12 13  1  0  0  0  0
 13 14  2  0  0  0  0
 14 15  1  0  0  0  0
 10 15  2  0  0  0  0
 11 12  2  0  0  0  0
  9 16  1  0  0  0  0
  9 17  1  0  0  0  0
  6 14  1  0  0  0  0
M  END
>  <cdx:fragmentId>
1029

$$$$
