300779.cdx
  Mrv1902 05222410272D          

 17 18  0  0  0  0            999 V2000
    8.9185   -6.5405    0.0000 N   0  0  0  0  0  0  0  0  0  0  0  0
    8.2040   -6.9530    0.0000 C   0  0  0  0  0  0  0  0  0  0  0  0
    8.2040   -7.7780    0.0000 C   0  0  0  0  0  0  0  0  0  0  0  0
    7.4895   -8.1905    0.0000 C   0  0  0  0  0  0  0  0  0  0  0  0
    6.7750   -7.7780    0.0000 C   0  0  0  0  0  0  0  0  0  0  0  0
    6.7750   -6.9530    0.0000 C   0  0  0  0  0  0  0  0  0  0  0  0
    7.4895   -6.5405    0.0000 C   0  0  0  0  0  0  0  0  0  0  0  0
    6.0606   -8.1905    0.0000 N   0  0  0  0  0  0  0  0  0  0  0  0
    5.3461   -7.7780    0.0000 N   0  0  0  0  0  0  0  0  0  0  0  0
    4.6316   -8.1905    0.0000 C   0  0  0  0  0  0  0  0  0  0  0  0
    4.6316   -9.0155    0.0000 C   0  0  0  0  0  0  0  0  0  0  0  0
    3.9172   -9.4280    0.0000 C   0  0  0  0  0  0  0  0  0  0  0  0
    3.2027   -9.0155    0.0000 C   0  0  0  0  0  0  0  0  0  0  0  0
    3.2027   -8.1905    0.0000 C   0  0  0  0  0  0  0  0  0  0  0  0
    3.9172   -7.7780    0.0000 C   0  0  0  0  0  0  0  0  0  0  0  0
    8.9185   -5.7155    0.0000 C   0  0  0  0  0  0  0  0  0  0  0  0
    9.6329   -6.9530    0.0000 C   0  0  0  0  0  0  0  0  0  0  0  0
  1  2  1  0  0  0  0
  2  3  1  0  0  0  0
  3  4  2  0  0  0  0
  4  5  1  0  0  0  0
  5  6  2  0  0  0  0
  6  7  1  0  0  0  0
  2  7  2  0  0  0  0
  8  9  2  0  0  0  0
 10 11  1  0  0  0  0
 11 12  2  0  0  0  0
 12 13  1  0  0  0  0
 13 14  2  0  0  0  0
 14 15  1  0  0  0  0
 10 15  2  0  0  0  0
  9 10  1  0  0  0  0
  5  8  1  0  0  0  0
  1 16  1  0  0  0  0
  1 17  1  0  0  0  0
M  END
>  <cdx:fragmentId>
1228

$$$$
