300740.cdx
  Mrv1902 05222410262D          

 44 45  0  0  0  0            999 V2000
   14.3008  -14.7159    0.0000 C   0  0  0  0  0  0  0  0  0  0  0  0
   13.5863  -15.1284    0.0000 C   0  0  0  0  0  0  0  0  0  0  0  0
   12.8718  -14.7159    0.0000 C   0  0  0  0  0  0  0  0  0  0  0  0
   12.8718  -13.8909    0.0000 C   0  0  0  0  0  0  0  0  0  0  0  0
   13.5863  -13.4784    0.0000 C   0  0  0  0  0  0  0  0  0  0  0  0
   14.3008  -13.8909    0.0000 C   0  0  2  0  0  0  0  0  0  0  0  0
   15.0153  -15.1284    0.0000 O   0  0  0  0  0  0  0  0  0  0  0  0
   12.0468  -13.8909    0.0000 C   0  0  0  0  0  0  0  0  0  0  0  0
   12.4593  -13.1765    0.0000 C   0  0  0  0  0  0  0  0  0  0  0  0
   13.5863  -15.9534    0.0000 C   0  0  0  0  0  0  0  0  0  0  0  0
   12.1574  -15.1284    0.0000 C   0  0  0  0  0  0  0  0  0  0  0  0
   11.4429  -14.7159    0.0000 C   0  0  0  0  0  0  0  0  0  0  0  0
   10.7284  -15.1284    0.0000 C   0  0  0  0  0  0  0  0  0  0  0  0
   10.0140  -14.7159    0.0000 C   0  0  0  0  0  0  0  0  0  0  0  0
    9.2995  -15.1284    0.0000 C   0  0  0  0  0  0  0  0  0  0  0  0
    8.5850  -14.7159    0.0000 C   0  0  0  0  0  0  0  0  0  0  0  0
    7.8706  -15.1284    0.0000 C   0  0  0  0  0  0  0  0  0  0  0  0
    7.1561  -14.7159    0.0000 C   0  0  0  0  0  0  0  0  0  0  0  0
    6.4416  -15.1284    0.0000 C   0  0  0  0  0  0  0  0  0  0  0  0
    5.7271  -14.7159    0.0000 C   0  0  0  0  0  0  0  0  0  0  0  0
    5.0127  -15.1284    0.0000 C   0  0  0  0  0  0  0  0  0  0  0  0
    4.2982  -14.7159    0.0000 C   0  0  0  0  0  0  0  0  0  0  0  0
    3.5837  -15.1284    0.0000 C   0  0  0  0  0  0  0  0  0  0  0  0
    2.8693  -14.7159    0.0000 C   0  0  0  0  0  0  0  0  0  0  0  0
    2.1548  -15.1284    0.0000 C   0  0  0  0  0  0  0  0  0  0  0  0
    1.4403  -14.7159    0.0000 C   0  0  0  0  0  0  0  0  0  0  0  0
    0.7258  -15.1284    0.0000 C   0  0  0  0  0  0  0  0  0  0  0  0
    0.0114  -14.7159    0.0000 C   0  0  0  0  0  0  0  0  0  0  0  0
    1.4403  -13.8909    0.0000 C   0  0  0  0  0  0  0  0  0  0  0  0
    4.2982  -13.8909    0.0000 C   0  0  0  0  0  0  0  0  0  0  0  0
    7.8706  -15.9534    0.0000 C   0  0  0  0  0  0  0  0  0  0  0  0
   10.7284  -15.9534    0.0000 C   0  0  0  0  0  0  0  0  0  0  0  0
   -0.7031  -15.1284    0.0000 C   0  0  0  0  0  0  0  0  0  0  0  0
   -1.4176  -14.7159    0.0000 C   0  0  0  0  0  0  0  0  0  0  0  0
   -2.1320  -15.1284    0.0000 C   0  0  0  0  0  0  0  0  0  0  0  0
   -2.1320  -15.9534    0.0000 C   0  0  2  0  0  0  0  0  0  0  0  0
   -1.4176  -16.3659    0.0000 C   0  0  0  0  0  0  0  0  0  0  0  0
   -0.7031  -15.9534    0.0000 C   0  0  0  0  0  0  0  0  0  0  0  0
   -2.8465  -14.7159    0.0000 O   0  0  0  0  0  0  0  0  0  0  0  0
    0.1219  -15.9534    0.0000 C   0  0  0  0  0  0  0  0  0  0  0  0
   -0.2906  -16.6679    0.0000 C   0  0  0  0  0  0  0  0  0  0  0  0
   -1.4176  -13.8909    0.0000 C   0  0  0  0  0  0  0  0  0  0  0  0
   -2.8465  -16.3659    0.0000 O   0  0  0  0  0  0  0  0  0  0  0  0
   15.0153  -13.4784    0.0000 O   0  0  0  0  0  0  0  0  0  0  0  0
  1  2  1  0  0  0  0
  2  3  2  0  0  0  0
  3  4  1  0  0  0  0
  4  5  1  0  0  0  0
  5  6  1  0  0  0  0
  1  6  1  0  0  0  0
  1  7  2  0  0  0  0
  4  8  1  0  0  0  0
  4  9  1  0  0  0  0
  2 10  1  0  0  0  0
 11 12  2  0  0  0  0
 12 13  1  0  0  0  0
 13 14  2  0  0  0  0
 14 15  1  0  0  0  0
 15 16  2  0  0  0  0
 16 17  1  0  0  0  0
 17 18  2  0  0  0  0
 18 19  1  0  0  0  0
 19 20  2  0  0  0  0
 20 21  1  0  0  0  0
 21 22  2  0  0  0  0
 22 23  1  0  0  0  0
 23 24  2  0  0  0  0
 24 25  1  0  0  0  0
 25 26  2  0  0  0  0
 26 27  1  0  0  0  0
 27 28  2  0  0  0  0
 26 29  1  0  0  0  0
 22 30  1  0  0  0  0
 17 31  1  0  0  0  0
 13 32  1  0  0  0  0
 33 34  2  0  0  0  0
 34 35  1  0  0  0  0
 35 36  1  0  0  0  0
 36 37  1  0  0  0  0
 37 38  1  0  0  0  0
 33 38  1  0  0  0  0
 35 39  2  0  0  0  0
 38 40  1  0  0  0  0
 38 41  1  0  0  0  0
 34 42  1  0  0  0  0
 36 43  1  6  0  0  0
 28 33  1  0  0  0  0
  3 11  1  0  0  0  0
  6 44  1  6  0  0  0
M  END
>  <cdx:fragmentId>
4561

$$$$
