300700.cdx
  Mrv1902 05222410212D          

 16 17  0  0  0  0            999 V2000
    5.8345   -6.2282    0.0000 N   0  0  0  0  0  0  0  0  0  0  0  0
    5.8345   -7.0532    0.0000 C   0  0  0  0  0  0  0  0  0  0  0  0
    5.1200   -7.4657    0.0000 N   0  0  0  0  0  0  0  0  0  0  0  0
    4.4055   -7.0532    0.0000 C   0  0  0  0  0  0  0  0  0  0  0  0
    4.4055   -6.2282    0.0000 N   0  0  0  0  0  0  0  0  0  0  0  0
    5.1200   -5.8157    0.0000 C   0  0  0  0  0  0  0  0  0  0  0  0
    6.5489   -7.4657    0.0000 N   0  0  0  0  0  0  0  0  0  0  0  0
    7.2634   -7.0532    0.0000 C   0  0  0  0  0  0  0  0  0  0  0  0
    7.2634   -6.2282    0.0000 C   0  0  0  0  0  0  0  0  0  0  0  0
    7.9779   -5.8157    0.0000 C   0  0  0  0  0  0  0  0  0  0  0  0
    8.6924   -6.2282    0.0000 C   0  0  0  0  0  0  0  0  0  0  0  0
    8.6924   -7.0532    0.0000 C   0  0  0  0  0  0  0  0  0  0  0  0
    7.9779   -7.4657    0.0000 C   0  0  0  0  0  0  0  0  0  0  0  0
    6.5489   -5.8157    0.0000 Cl  0  0  0  0  0  0  0  0  0  0  0  0
    5.1200   -4.9907    0.0000 Cl  0  0  0  0  0  0  0  0  0  0  0  0
    3.6911   -7.4657    0.0000 Cl  0  0  0  0  0  0  0  0  0  0  0  0
  1  2  1  0  0  0  0
  2  3  2  0  0  0  0
  3  4  1  0  0  0  0
  4  5  2  0  0  0  0
  5  6  1  0  0  0  0
  1  6  2  0  0  0  0
  2  7  1  0  0  0  0
  8  9  1  0  0  0  0
  9 10  2  0  0  0  0
 10 11  1  0  0  0  0
 11 12  2  0  0  0  0
 12 13  1  0  0  0  0
  8 13  2  0  0  0  0
  9 14  1  0  0  0  0
  7  8  1  0  0  0  0
  6 15  1  0  0  0  0
  4 16  1  0  0  0  0
M  END
>  <cdx:fragmentId>
1081

$$$$
