300744.cdx
  Mrv1902 05222410272D          

 76 84  0  0  0  0            999 V2000
   12.9814   -9.4175    0.0000 C   0  0  0  0  0  0  0  0  0  0  0  0
   13.6959   -9.0050    0.0000 C   0  0  0  0  0  0  0  0  0  0  0  0
   14.4103   -9.4175    0.0000 C   0  0  0  0  0  0  0  0  0  0  0  0
   14.4103  -10.2425    0.0000 C   0  0  0  0  0  0  0  0  0  0  0  0
   13.6959  -10.6550    0.0000 C   0  0  2  0  0  0  0  0  0  0  0  0
   13.6959  -11.4800    0.0000 C   0  0  1  0  0  0  0  0  0  0  0  0
   12.9814  -11.8925    0.0000 C   0  0  0  0  0  0  0  0  0  0  0  0
   12.2669  -11.4800    0.0000 C   0  0  1  0  0  0  0  0  0  0  0  0
   11.5525  -11.8925    0.0000 C   0  0  2  0  0  0  0  0  0  0  0  0
   11.5525  -12.7175    0.0000 C   0  0  0  0  0  0  0  0  0  0  0  0
   10.8380  -13.1300    0.0000 C   0  0  0  0  0  0  0  0  0  0  0  0
   10.1235  -12.7175    0.0000 C   0  0  1  0  0  0  0  0  0  0  0  0
    9.4090  -13.1300    0.0000 C   0  0  0  0  0  0  0  0  0  0  0  0
    8.6946  -12.7175    0.0000 C   0  0  2  0  0  0  0  0  0  0  0  0
    8.6946  -11.8925    0.0000 C   0  0  0  0  0  0  0  0  0  0  0  0
    9.4090  -11.4800    0.0000 C   0  0  0  0  0  0  0  0  0  0  0  0
   10.1235  -11.8925    0.0000 C   0  0  2  0  0  0  0  0  0  0  0  0
   10.8380  -11.4800    0.0000 C   0  0  1  0  0  0  0  0  0  0  0  0
   10.8380  -10.6550    0.0000 C   0  0  0  0  0  0  0  0  0  0  0  0
   11.5525  -10.2425    0.0000 C   0  0  0  0  0  0  0  0  0  0  0  0
   12.2669  -10.6550    0.0000 C   0  0  0  0  0  0  0  0  0  0  0  0
   12.9814  -10.2425    0.0000 C   0  0  2  0  0  0  0  0  0  0  0  0
   14.4402  -11.1362    0.0000 C   0  0  0  0  0  0  0  0  0  0  0  0
   14.4402  -11.9612    0.0000 O   0  0  0  0  0  0  0  0  0  0  0  0
   15.1546  -10.7237    0.0000 O   0  0  0  0  0  0  0  0  0  0  0  0
   10.1235  -11.0675    0.0000 C   0  0  0  0  0  0  0  0  0  0  0  0
    9.8215  -13.8445    0.0000 C   0  0  0  0  0  0  0  0  0  0  0  0
    8.9965  -13.8445    0.0000 C   0  0  0  0  0  0  0  0  0  0  0  0
   11.5525  -11.0675    0.0000 C   0  0  0  0  0  0  0  0  0  0  0  0
   12.2669  -12.3050    0.0000 C   0  0  0  0  0  0  0  0  0  0  0  0
   13.2834   -8.2905    0.0000 C   0  0  0  0  0  0  0  0  0  0  0  0
   14.1084   -8.2905    0.0000 C   0  0  0  0  0  0  0  0  0  0  0  0
   13.7364  -12.2776    0.0000 O   0  0  0  0  0  0  0  0  0  0  0  0
   10.1235  -13.5425    0.0000 H   0  0  0  0  0  0  0  0  0  0  0  0
   12.9814  -11.0675    0.0000 H   0  0  0  0  0  0  0  0  0  0  0  0
   15.8691  -11.9612    0.0000 O   0  0  0  0  0  0  0  0  0  0  0  0
   15.8691  -11.1362    0.0000 C   0  0  2  0  0  0  0  0  0  0  0  0
   16.5836  -10.7237    0.0000 C   0  0  1  0  0  0  0  0  0  0  0  0
   17.2980  -11.1362    0.0000 C   0  0  2  0  0  0  0  0  0  0  0  0
   17.2980  -11.9612    0.0000 C   0  0  2  0  0  0  0  0  0  0  0  0
   16.5836  -12.3737    0.0000 C   0  0  0  0  0  0  0  0  0  0  0  0
   18.0125  -12.3737    0.0000 O   0  0  0  0  0  0  0  0  0  0  0  0
   18.0125  -10.7237    0.0000 O   0  0  0  0  0  0  0  0  0  0  0  0
   16.5836   -9.8987    0.0000 O   0  0  0  0  0  0  0  0  0  0  0  0
   18.0125   -9.8987    0.0000 O   0  0  0  0  0  0  0  0  0  0  0  0
   17.2980   -9.4862    0.0000 C   0  0  2  0  0  0  0  0  0  0  0  0
   17.2980   -8.6612    0.0000 C   0  0  1  0  0  0  0  0  0  0  0  0
   18.0125   -8.2487    0.0000 C   0  0  1  0  0  0  0  0  0  0  0  0
   18.7270   -8.6612    0.0000 C   0  0  2  0  0  0  0  0  0  0  0  0
   18.7270   -9.4862    0.0000 C   0  0  2  0  0  0  0  0  0  0  0  0
   19.4415   -8.2487    0.0000 O   0  0  0  0  0  0  0  0  0  0  0  0
   20.1559   -9.4862    0.0000 O   0  0  0  0  0  0  0  0  0  0  0  0
   20.1559   -8.6612    0.0000 C   0  0  2  0  0  0  0  0  0  0  0  0
   20.8704   -8.2487    0.0000 C   0  0  1  0  0  0  0  0  0  0  0  0
   21.5849   -8.6612    0.0000 C   0  0  2  0  0  0  0  0  0  0  0  0
   21.5849   -9.4862    0.0000 C   0  0  1  0  0  0  0  0  0  0  0  0
   20.8704   -9.8987    0.0000 C   0  0  0  0  0  0  0  0  0  0  0  0
   22.2993   -9.8987    0.0000 O   0  0  0  0  0  0  0  0  0  0  0  0
   22.2993   -8.2487    0.0000 O   0  0  0  0  0  0  0  0  0  0  0  0
   20.8704   -7.4237    0.0000 O   0  0  0  0  0  0  0  0  0  0  0  0
   19.4415   -9.8987    0.0000 C   0  0  0  0  0  0  0  0  0  0  0  0
   18.0125   -7.4237    0.0000 O   0  0  0  0  0  0  0  0  0  0  0  0
   16.5836   -8.2487    0.0000 O   0  0  0  0  0  0  0  0  0  0  0  0
    6.5516  -13.9557    0.0000 O   0  0  0  0  0  0  0  0  0  0  0  0
    5.1222  -13.1314    0.0000 O   0  0  0  0  0  0  0  0  0  0  0  0
    5.1214  -11.4814    0.0000 O   0  0  0  0  0  0  0  0  0  0  0  0
    5.8353  -10.2435    0.0000 O   0  0  0  0  0  0  0  0  0  0  0  0
    6.5500  -10.6557    0.0000 C   0  0  0  0  0  0  0  0  0  0  0  0
    6.5504  -11.4807    0.0000 C   0  0  2  0  0  0  0  0  0  0  0  0
    5.8361  -11.8935    0.0000 C   0  0  2  0  0  0  0  0  0  0  0  0
    5.8365  -12.7185    0.0000 C   0  0  1  0  0  0  0  0  0  0  0  0
    6.5512  -13.1307    0.0000 C   0  0  2  0  0  0  0  0  0  0  0  0
    7.2654  -12.7178    0.0000 C   0  0  1  0  0  0  0  0  0  0  0  0
    7.2650  -11.8928    0.0000 O   0  0  0  0  0  0  0  0  0  0  0  0
    7.9801  -13.1300    0.0000 O   0  0  0  0  0  0  0  0  0  0  0  0
   10.8380  -12.3050    0.0000 H   0  0  0  0  0  0  0  0  0  0  0  0
 73 75  1  1  0  0  0
 72 64  1  6  0  0  0
 71 65  1  1  0  0  0
 70 66  1  6  0  0  0
 69 68  1  1  0  0  0
 68 67  1  0  0  0  0
 74 69  1  0  0  0  0
 70 69  1  0  0  0  0
 71 70  1  0  0  0  0
 72 71  1  0  0  0  0
 73 72  1  0  0  0  0
 74 73  1  0  0  0  0
  1  2  1  0  0  0  0
  2  3  1  0  0  0  0
  3  4  1  0  0  0  0
  4  5  1  0  0  0  0
  5  6  1  0  0  0  0
  6  7  1  0  0  0  0
  7  8  1  0  0  0  0
  8  9  1  0  0  0  0
  9 10  1  0  0  0  0
 10 11  1  0  0  0  0
 11 12  1  0  0  0  0
 12 13  1  0  0  0  0
 13 14  1  0  0  0  0
 14 15  1  0  0  0  0
 15 16  1  0  0  0  0
 16 17  1  0  0  0  0
 12 17  1  0  0  0  0
 17 18  1  0  0  0  0
  9 18  1  0  0  0  0
 18 19  1  0  0  0  0
 19 20  1  0  0  0  0
 20 21  2  0  0  0  0
  8 21  1  0  0  0  0
 21 22  1  0  0  0  0
  5 22  1  0  0  0  0
  1 22  1  0  0  0  0
 23 24  2  0  0  0  0
 23 25  1  0  0  0  0
  5 23  1  1  0  0  0
 14 75  1  1  0  0  0
 17 26  1  1  0  0  0
 13 27  1  0  0  0  0
 13 28  1  0  0  0  0
  9 29  1  1  0  0  0
  8 30  1  6  0  0  0
  2 31  1  0  0  0  0
  2 32  1  0  0  0  0
  6 33  1  6  0  0  0
 12 34  1  6  0  0  0
 22 35  1  1  0  0  0
 36 37  1  0  0  0  0
 37 38  1  0  0  0  0
 38 39  1  0  0  0  0
 39 40  1  0  0  0  0
 40 41  1  0  0  0  0
 36 41  1  0  0  0  0
 40 42  1  1  0  0  0
 39 43  1  1  0  0  0
 45 46  1  0  0  0  0
 46 47  1  0  0  0  0
 47 48  1  0  0  0  0
 48 49  1  0  0  0  0
 49 50  1  0  0  0  0
 45 50  1  0  0  0  0
 52 53  1  0  0  0  0
 53 54  1  0  0  0  0
 54 55  1  0  0  0  0
 55 56  1  0  0  0  0
 56 57  1  0  0  0  0
 52 57  1  0  0  0  0
 56 58  1  6  0  0  0
 55 59  1  1  0  0  0
 54 60  1  6  0  0  0
 53 51  1  1  0  0  0
 49 51  1  1  0  0  0
 50 61  1  6  0  0  0
 48 62  1  6  0  0  0
 47 63  1  6  0  0  0
 46 44  1  1  0  0  0
 38 44  1  6  0  0  0
 37 25  1  1  0  0  0
 18 76  1  6  0  0  0
M  END
>  <cdx:fragmentId>
5361

$$$$
