300775.cdx
  Mrv1902 05222410182D          

  9  9  0  0  0  0            999 V2000
    6.2699   -7.2091    0.0000 C   0  0  0  0  0  0  0  0  0  0  0  0
    5.5554   -7.6216    0.0000 C   0  0  0  0  0  0  0  0  0  0  0  0
    4.8410   -7.2091    0.0000 C   0  0  0  0  0  0  0  0  0  0  0  0
    4.1265   -7.6216    0.0000 C   0  0  0  0  0  0  0  0  0  0  0  0
    4.1265   -8.4466    0.0000 C   0  0  0  0  0  0  0  0  0  0  0  0
    4.8410   -8.8591    0.0000 C   0  0  0  0  0  0  0  0  0  0  0  0
    5.5554   -8.4466    0.0000 C   0  0  0  0  0  0  0  0  0  0  0  0
    6.2699   -6.3841    0.0000 O   0  0  0  0  0  0  0  0  0  0  0  0
    6.9844   -7.6216    0.0000 N   0  0  0  0  0  0  0  0  0  0  0  0
  1  2  1  0  0  0  0
  2  3  1  0  0  0  0
  3  4  2  0  0  0  0
  4  5  1  0  0  0  0
  5  6  2  0  0  0  0
  6  7  1  0  0  0  0
  2  7  2  0  0  0  0
  1  8  2  0  0  0  0
  1  9  1  0  0  0  0
M  END
>  <cdx:fragmentId>
1071

$$$$
