300762.cdx
  Mrv1902 05222410182D          

 68 75  0  0  0  0            999 V2000
    7.4633   -7.7530    0.0000 C   0  0  0  0  0  0  0  0  0  0  0  0
    6.7586   -8.1820    0.0000 C   0  0  0  0  0  0  0  0  0  0  0  0
    6.7778   -9.0067    0.0000 C   0  0  1  0  0  0  0  0  0  0  0  0
    7.5017   -9.4025    0.0000 C   0  0  1  0  0  0  0  0  0  0  0  0
    8.2064   -8.9735    0.0000 C   0  0  2  0  0  0  0  0  0  0  0  0
    8.9302   -9.3693    0.0000 C   0  0  0  0  0  0  0  0  0  0  0  0
    9.6349   -8.9403    0.0000 C   0  0  0  0  0  0  0  0  0  0  0  0
    9.6158   -8.1156    0.0000 C   0  0  1  0  0  0  0  0  0  0  0  0
   10.3204   -7.6866    0.0000 C   0  0  2  0  0  0  0  0  0  0  0  0
   11.0443   -8.0824    0.0000 C   0  0  0  0  0  0  0  0  0  0  0  0
   11.7490   -7.6534    0.0000 C   0  0  0  0  0  0  0  0  0  0  0  0
   11.7298   -6.8286    0.0000 C   0  0  1  0  0  0  0  0  0  0  0  0
   12.4345   -6.3996    0.0000 C   0  0  0  0  0  0  0  0  0  0  0  0
   12.4154   -5.5748    0.0000 C   0  0  0  0  0  0  0  0  0  0  0  0
   11.6915   -5.1790    0.0000 C   0  0  0  0  0  0  0  0  0  0  0  0
   10.9868   -5.6080    0.0000 C   0  0  0  0  0  0  0  0  0  0  0  0
   11.0060   -6.4328    0.0000 C   0  0  1  0  0  0  0  0  0  0  0  0
   10.3013   -6.8618    0.0000 C   0  0  0  0  0  0  0  0  0  0  0  0
    9.5774   -6.4660    0.0000 C   0  0  0  0  0  0  0  0  0  0  0  0
    8.8727   -6.8950    0.0000 C   0  0  0  0  0  0  0  0  0  0  0  0
    8.8919   -7.7198    0.0000 C   0  0  2  0  0  0  0  0  0  0  0  0
    8.1872   -8.1488    0.0000 C   0  0  1  0  0  0  0  0  0  0  0  0
    8.1872   -7.3238    0.0000 C   0  0  0  0  0  0  0  0  0  0  0  0
   11.2625   -4.4744    0.0000 C   0  0  0  0  0  0  0  0  0  0  0  0
   12.0873   -4.4552    0.0000 C   0  0  0  0  0  0  0  0  0  0  0  0
   12.4537   -7.2244    0.0000 O   0  0  0  0  0  0  0  0  0  0  0  0
   10.3396   -8.5114    0.0000 C   0  0  0  0  0  0  0  0  0  0  0  0
    9.6158   -7.2906    0.0000 C   0  0  0  0  0  0  0  0  0  0  0  0
    7.0892  -10.1170    0.0000 C   0  0  0  0  0  0  0  0  0  0  0  0
    8.2255   -9.7983    0.0000 H   0  0  0  0  0  0  0  0  0  0  0  0
   10.2821   -6.0370    0.0000 H   0  0  0  0  0  0  0  0  0  0  0  0
    8.8919   -8.5448    0.0000 H   0  0  0  0  0  0  0  0  0  0  0  0
    6.0731   -9.4357    0.0000 O   0  0  0  0  0  0  0  0  0  0  0  0
    3.2149   -7.7863    0.0000 O   0  0  0  0  0  0  0  0  0  0  0  0
    3.2152   -9.4363    0.0000 O   0  0  0  0  0  0  0  0  0  0  0  0
    4.6443  -10.2610    0.0000 O   0  0  0  0  0  0  0  0  0  0  0  0
    3.9291   -6.5487    0.0000 O   0  0  0  0  0  0  0  0  0  0  0  0
    4.6437   -6.9610    0.0000 C   0  0  0  0  0  0  0  0  0  0  0  0
    5.3586   -9.0234    0.0000 C   0  0  1  0  0  0  0  0  0  0  0  0
    4.6442   -9.4360    0.0000 C   0  0  1  0  0  0  0  0  0  0  0  0
    3.9296   -9.0237    0.0000 C   0  0  2  0  0  0  0  0  0  0  0  0
    3.9294   -8.1987    0.0000 C   0  0  1  0  0  0  0  0  0  0  0  0
    4.6438   -7.7860    0.0000 C   0  0  2  0  0  0  0  0  0  0  0  0
    5.3584   -8.1984    0.0000 O   0  0  0  0  0  0  0  0  0  0  0  0
    7.9142  -10.1170    0.0000 C   0  0  0  0  0  0  0  0  0  0  0  0
    7.5017  -10.8315    0.0000 O   0  0  0  0  0  0  0  0  0  0  0  0
    5.3581   -6.5484    0.0000 O   0  0  0  0  0  0  0  0  0  0  0  0
    3.9299  -10.6737    0.0000 C   0  0  2  0  0  0  0  0  0  0  0  0
    3.2060  -10.2780    0.0000 O   0  0  0  0  0  0  0  0  0  0  0  0
    2.5014  -10.7071    0.0000 C   0  0  1  0  0  0  0  0  0  0  0  0
    2.5207  -11.5319    0.0000 C   0  0  2  0  0  0  0  0  0  0  0  0
    3.2447  -11.9276    0.0000 C   0  0  1  0  0  0  0  0  0  0  0  0
    3.9493  -11.4984    0.0000 C   0  0  1  0  0  0  0  0  0  0  0  0
    1.7775  -10.3115    0.0000 C   0  0  0  0  0  0  0  0  0  0  0  0
    3.2640  -12.7523    0.0000 O   0  0  0  0  0  0  0  0  0  0  0  0
    4.6732  -11.8941    0.0000 O   0  0  0  0  0  0  0  0  0  0  0  0
    1.8161  -11.9610    0.0000 O   0  0  0  0  0  0  0  0  0  0  0  0
    1.0728  -10.7406    0.0000 O   0  0  0  0  0  0  0  0  0  0  0  0
    4.6926  -12.7188    0.0000 C   0  0  2  0  0  0  0  0  0  0  0  0
    3.9736  -13.1234    0.0000 O   0  0  0  0  0  0  0  0  0  0  0  0
    3.9736  -13.9484    0.0000 C   0  0  2  0  0  0  0  0  0  0  0  0
    4.6926  -14.3687    0.0000 C   0  0  1  0  0  0  0  0  0  0  0  0
    5.4115  -13.9484    0.0000 C   0  0  2  0  0  0  0  0  0  0  0  0
    5.4115  -13.1234    0.0000 C   0  0  1  0  0  0  0  0  0  0  0  0
    4.6926  -15.1937    0.0000 O   0  0  0  0  0  0  0  0  0  0  0  0
    6.1271  -14.3589    0.0000 O   0  0  0  0  0  0  0  0  0  0  0  0
    6.1237  -12.7070    0.0000 O   0  0  0  0  0  0  0  0  0  0  0  0
    3.2580  -14.3589    0.0000 C   0  0  0  0  0  0  0  0  0  0  0  0
 39 33  1  1  0  0  0
 42 34  1  6  0  0  0
 41 35  1  1  0  0  0
 40 36  1  6  0  0  0
 43 38  1  1  0  0  0
 38 37  1  0  0  0  0
 44 39  1  0  0  0  0
 40 39  1  0  0  0  0
 41 40  1  0  0  0  0
 42 41  1  0  0  0  0
 43 42  1  0  0  0  0
 44 43  1  0  0  0  0
  1  2  1  0  0  0  0
  2  3  1  0  0  0  0
  3  4  1  0  0  0  0
  4  5  1  0  0  0  0
  5  6  1  0  0  0  0
  6  7  1  0  0  0  0
  7  8  1  0  0  0  0
  8  9  1  0  0  0  0
  9 10  1  0  0  0  0
 10 11  1  0  0  0  0
 11 12  1  0  0  0  0
 12 13  1  0  0  0  0
 13 14  1  0  0  0  0
 14 15  1  0  0  0  0
 15 16  1  0  0  0  0
 16 17  1  0  0  0  0
 12 17  1  0  0  0  0
 17 18  1  0  0  0  0
  9 18  1  0  0  0  0
 18 19  2  0  0  0  0
 19 20  1  0  0  0  0
 20 21  1  0  0  0  0
  8 21  1  0  0  0  0
 21 22  1  0  0  0  0
  5 22  1  0  0  0  0
  1 22  1  0  0  0  0
 22 23  1  1  0  0  0
 15 24  1  0  0  0  0
 15 25  1  0  0  0  0
 12 26  1  1  0  0  0
  9 27  1  6  0  0  0
  8 28  1  1  0  0  0
  4 29  1  1  0  0  0
  3 33  1  1  0  0  0
  5 30  1  6  0  0  0
 17 31  1  1  0  0  0
 21 32  1  6  0  0  0
  4 45  1  6  0  0  0
 29 46  1  0  0  0  0
 38 47  2  0  0  0  0
 48 36  1  1  0  0  0
 48 49  1  0  0  0  0
 49 50  1  0  0  0  0
 50 51  1  0  0  0  0
 51 52  1  0  0  0  0
 52 53  1  0  0  0  0
 53 48  1  0  0  0  0
 50 54  1  1  0  0  0
 52 55  1  1  0  0  0
 53 56  1  6  0  0  0
 51 57  1  6  0  0  0
 54 58  1  0  0  0  0
 59 56  1  1  0  0  0
 59 60  1  0  0  0  0
 60 61  1  0  0  0  0
 61 62  1  0  0  0  0
 62 63  1  0  0  0  0
 63 64  1  0  0  0  0
 64 59  1  0  0  0  0
 62 65  1  1  0  0  0
 63 66  1  6  0  0  0
 64 67  1  6  0  0  0
 61 68  1  6  0  0  0
M  END
>  <cdx:fragmentId>
94679

$$$$
