30079.cdx
  Mrv1902 05222410192D          

 22 25  0  0  0  0            999 V2000
    5.1268   -6.2139    0.0000 C   0  0  0  0  0  0  0  0  0  0  0  0
    5.1268   -7.0389    0.0000 C   0  0  0  0  0  0  0  0  0  0  0  0
    5.8413   -7.4514    0.0000 C   0  0  0  0  0  0  0  0  0  0  0  0
    6.5557   -7.0389    0.0000 C   0  0  0  0  0  0  0  0  0  0  0  0
    6.5557   -6.2139    0.0000 C   0  0  0  0  0  0  0  0  0  0  0  0
    5.8413   -5.8014    0.0000 N   0  0  0  0  0  0  0  0  0  0  0  0
    7.2702   -7.4514    0.0000 C   0  0  1  0  0  0  0  0  0  0  0  0
    7.9847   -7.0389    0.0000 C   0  0  1  0  0  0  0  0  0  0  0  0
    7.9847   -6.2139    0.0000 C   0  0  2  0  0  0  0  0  0  0  0  0
    7.2702   -5.8014    0.0000 C   0  0  0  0  0  0  0  0  0  0  0  0
    7.2702   -8.2764    0.0000 N   0  0  0  0  0  0  0  0  0  0  0  0
    7.9847   -8.6889    0.0000 C   0  0  0  0  0  0  0  0  0  0  0  0
    8.6992   -8.2764    0.0000 C   0  0  0  0  0  0  0  0  0  0  0  0
    8.6992   -7.4514    0.0000 C   0  0  0  0  0  0  0  0  0  0  0  0
    4.4123   -5.8014    0.0000 O   0  0  0  0  0  0  0  0  0  0  0  0
    6.5557   -8.6889    0.0000 C   0  0  0  0  0  0  0  0  0  0  0  0
    6.9025   -6.9300    0.0000 C   0  0  0  0  0  0  0  0  0  0  0  0
    7.3700   -6.1050    0.0000 C   0  0  0  0  0  0  0  0  0  0  0  0
    6.9025   -6.5175    0.0000 C   0  0  1  0  0  0  0  0  0  0  0  0
    8.6992   -6.6264    0.0000 H   0  0  0  0  0  0  0  0  0  0  0  0
    8.5681   -5.6305    0.0000 H   0  0  0  0  0  0  0  0  0  0  0  0
    6.6890   -5.7206    0.0000 C   0  0  0  0  0  0  0  0  0  0  0  0
  1  2  1  0  0  0  0
  2  3  2  0  0  0  0
  3  4  1  0  0  0  0
  4  5  2  0  0  0  0
  5  6  1  0  0  0  0
  6  1  1  0  0  0  0
  4  7  1  0  0  0  0
  7  8  1  0  0  0  0
  8  9  1  0  0  0  0
  9 10  1  0  0  0  0
 10  5  1  0  0  0  0
  7 11  1  6  0  0  0
 11 12  1  0  0  0  0
 12 13  1  0  0  0  0
 13 14  1  0  0  0  0
 14  8  1  0  0  0  0
  1 15  2  0  0  0  0
 11 16  1  0  0  0  0
  7 17  1  0  0  0  0
  9 18  1  0  0  0  0
 17 19  1  0  0  0  0
 19 18  1  0  0  0  0
  8 20  1  6  0  0  0
  9 21  1  6  0  0  0
 19 22  1  6  0  0  0
M  END
>  <cdx:fragmentId>
5

$$$$
