300798.cdx
  Mrv1902 05222410202D          

 18 19  0  0  0  0            999 V2000
    6.2021   -7.1658    0.0000 C   0  0  0  0  0  0  0  0  0  0  0  0
    5.4876   -7.5783    0.0000 C   0  0  0  0  0  0  0  0  0  0  0  0
    5.4876   -8.4033    0.0000 C   0  0  0  0  0  0  0  0  0  0  0  0
    4.7732   -8.8158    0.0000 C   0  0  0  0  0  0  0  0  0  0  0  0
    4.0587   -8.4033    0.0000 C   0  0  0  0  0  0  0  0  0  0  0  0
    4.0587   -7.5783    0.0000 C   0  0  0  0  0  0  0  0  0  0  0  0
    4.7732   -7.1658    0.0000 C   0  0  0  0  0  0  0  0  0  0  0  0
    6.2021   -6.3408    0.0000 O   0  0  0  0  0  0  0  0  0  0  0  0
    6.9166   -7.5783    0.0000 O   0  0  0  0  0  0  0  0  0  0  0  0
    3.3442   -7.1658    0.0000 O   0  0  0  0  0  0  0  0  0  0  0  0
    6.2021   -8.8158    0.0000 O   0  0  0  0  0  0  0  0  0  0  0  0
    7.6311   -7.1658    0.0000 C   0  0  0  0  0  0  0  0  0  0  0  0
    8.3455   -7.5783    0.0000 C   0  0  0  0  0  0  0  0  0  0  0  0
    9.0600   -7.1658    0.0000 C   0  0  0  0  0  0  0  0  0  0  0  0
    9.7745   -7.5783    0.0000 C   0  0  0  0  0  0  0  0  0  0  0  0
    9.7745   -8.4033    0.0000 C   0  0  0  0  0  0  0  0  0  0  0  0
    9.0600   -8.8158    0.0000 C   0  0  0  0  0  0  0  0  0  0  0  0
    8.3455   -8.4033    0.0000 C   0  0  0  0  0  0  0  0  0  0  0  0
  1  2  1  0  0  0  0
  2  3  1  0  0  0  0
  3  4  2  0  0  0  0
  4  5  1  0  0  0  0
  5  6  2  0  0  0  0
  6  7  1  0  0  0  0
  2  7  2  0  0  0  0
  1  8  2  0  0  0  0
  1  9  1  0  0  0  0
  6 10  1  0  0  0  0
  3 11  1  0  0  0  0
 12 13  1  0  0  0  0
 13 14  1  0  0  0  0
 14 15  2  0  0  0  0
 15 16  1  0  0  0  0
 16 17  2  0  0  0  0
 17 18  1  0  0  0  0
 13 18  2  0  0  0  0
  9 12  1  0  0  0  0
M  END
>  <cdx:fragmentId>
2258

$$$$
