300773.cdx
  Mrv1902 05222410202D          

 18 20  0  0  0  0            999 V2000
    7.6733   -6.3397    0.0000 N   0  0  0  0  0  0  0  0  0  0  0  0
    8.3408   -6.8246    0.0000 C   0  0  0  0  0  0  0  0  0  0  0  0
    8.0858   -7.6092    0.0000 C   0  0  0  0  0  0  0  0  0  0  0  0
    7.2608   -7.6092    0.0000 C   0  0  0  0  0  0  0  0  0  0  0  0
    6.7088   -8.2223    0.0000 C   0  0  0  0  0  0  0  0  0  0  0  0
    5.9018   -8.0508    0.0000 C   0  0  0  0  0  0  0  0  0  0  0  0
    5.6469   -7.2662    0.0000 C   0  0  0  0  0  0  0  0  0  0  0  0
    6.1989   -6.6531    0.0000 C   0  0  0  0  0  0  0  0  0  0  0  0
    7.0059   -6.8246    0.0000 C   0  0  0  0  0  0  0  0  0  0  0  0
    9.1477   -6.6531    0.0000 C   0  0  0  0  0  0  0  0  0  0  0  0
    8.6379   -8.2223    0.0000 C   0  0  0  0  0  0  0  0  0  0  0  0
    9.4448   -8.0508    0.0000 C   0  0  0  0  0  0  0  0  0  0  0  0
    9.6998   -7.2662    0.0000 N   0  0  0  0  0  0  0  0  0  0  0  0
    9.4027   -5.8685    0.0000 C   0  0  0  0  0  0  0  0  0  0  0  0
    8.8506   -5.2554    0.0000 O   0  0  0  0  0  0  0  0  0  0  0  0
   10.2096   -5.6969    0.0000 O   0  0  0  0  0  0  0  0  0  0  0  0
    5.3498   -8.6639    0.0000 O   0  0  0  0  0  0  0  0  0  0  0  0
   10.4646   -4.9123    0.0000 C   0  0  0  0  0  0  0  0  0  0  0  0
  1  2  1  0  0  0  0
  2  3  2  0  0  0  0
  3  4  1  0  0  0  0
  4  5  1  0  0  0  0
  5  6  2  0  0  0  0
  6  7  1  0  0  0  0
  7  8  2  0  0  0  0
  8  9  1  0  0  0  0
  1  9  1  0  0  0  0
  4  9  2  0  0  0  0
 11 12  2  0  0  0  0
 12 13  1  0  0  0  0
 10 13  2  0  0  0  0
  2 10  1  0  0  0  0
  3 11  1  0  0  0  0
 14 15  2  0  0  0  0
 14 16  1  0  0  0  0
 10 14  1  0  0  0  0
  6 17  1  0  0  0  0
 16 18  1  0  0  0  0
M  END
>  <cdx:fragmentId>
957

$$$$
