300753.cdx
  Mrv1902 05222410282D          

 42 45  0  0  0  0            999 V2000
    8.2352   -7.2698    0.0000 C   0  0  0  0  0  0  0  0  0  0  0  0
    8.9441   -7.6919    0.0000 C   0  0  0  0  0  0  0  0  0  0  0  0
    8.9330   -8.5168    0.0000 C   0  0  0  0  0  0  0  0  0  0  0  0
    8.2130   -8.9197    0.0000 C   0  0  0  0  0  0  0  0  0  0  0  0
    7.5042   -8.4976    0.0000 C   0  0  2  0  0  0  0  0  0  0  0  0
    6.7842   -8.9005    0.0000 C   0  0  0  0  0  0  0  0  0  0  0  0
    6.0754   -8.4784    0.0000 C   0  0  1  0  0  0  0  0  0  0  0  0
    6.0865   -7.6535    0.0000 C   0  0  0  0  0  0  0  0  0  0  0  0
    6.8064   -7.2506    0.0000 C   0  0  0  0  0  0  0  0  0  0  0  0
    7.5153   -7.6727    0.0000 C   0  0  1  0  0  0  0  0  0  0  0  0
    9.6640   -7.2890    0.0000 O   0  0  0  0  0  0  0  0  0  0  0  0
    5.7583   -9.6012    0.0000 C   0  0  0  0  0  0  0  0  0  0  0  0
    5.3554   -8.8812    0.0000 C   0  0  0  0  0  0  0  0  0  0  0  0
    4.6479   -9.3085    0.0000 O   0  0  0  0  0  0  0  0  0  0  0  0
    3.9514   -8.0609    0.0000 O   0  0  0  0  0  0  0  0  0  0  0  0
    3.9395   -8.8858    0.0000 C   0  0  2  0  0  0  0  0  0  0  0  0
    3.2191   -9.2880    0.0000 C   0  0  1  0  0  0  0  0  0  0  0  0
    2.5107   -8.8652    0.0000 C   0  0  2  0  0  0  0  0  0  0  0  0
    2.5226   -8.0403    0.0000 C   0  0  1  0  0  0  0  0  0  0  0  0
    3.2429   -7.6382    0.0000 C   0  0  1  0  0  0  0  0  0  0  0  0
    3.2548   -6.8132    0.0000 C   0  0  0  0  0  0  0  0  0  0  0  0
    2.5463   -6.3905    0.0000 O   0  0  0  0  0  0  0  0  0  0  0  0
    1.8141   -7.6176    0.0000 O   0  0  0  0  0  0  0  0  0  0  0  0
    1.7904   -9.2674    0.0000 O   0  0  0  0  0  0  0  0  0  0  0  0
    3.2073  -10.1129    0.0000 O   0  0  0  0  0  0  0  0  0  0  0  0
    9.6419   -8.9389    0.0000 O   0  0  0  0  0  0  0  0  0  0  0  0
   10.3729   -7.7111    0.0000 O   0  0  0  0  0  0  0  0  0  0  0  0
   10.3618   -8.5360    0.0000 C   0  0  2  0  0  0  0  0  0  0  0  0
   11.0707   -8.9581    0.0000 C   0  0  1  0  0  0  0  0  0  0  0  0
   11.7906   -8.5553    0.0000 C   0  0  2  0  0  0  0  0  0  0  0  0
   11.8017   -7.7303    0.0000 C   0  0  1  0  0  0  0  0  0  0  0  0
   11.0929   -7.3083    0.0000 C   0  0  1  0  0  0  0  0  0  0  0  0
   11.1040   -6.4833    0.0000 C   0  0  0  0  0  0  0  0  0  0  0  0
   11.8239   -6.0805    0.0000 O   0  0  0  0  0  0  0  0  0  0  0  0
   12.5217   -7.3275    0.0000 O   0  0  0  0  0  0  0  0  0  0  0  0
   12.4995   -8.9773    0.0000 O   0  0  0  0  0  0  0  0  0  0  0  0
   11.0596   -9.7830    0.0000 O   0  0  0  0  0  0  0  0  0  0  0  0
    7.5264   -6.8478    0.0000 C   0  0  0  0  0  0  0  0  0  0  0  0
    8.2019   -9.7446    0.0000 C   0  0  0  0  0  0  0  0  0  0  0  0
    7.4931   -9.3225    0.0000 H   0  0  0  0  0  0  0  0  0  0  0  0
    4.9407   -8.1681    0.0000 C   0  0  0  0  0  0  0  0  0  0  0  0
    6.0631   -9.3033    0.0000 H   0  0  0  0  0  0  0  0  0  0  0  0
  1  2  1  0  0  0  0
  2  3  1  0  0  0  0
  3  4  2  0  0  0  0
  4  5  1  0  0  0  0
  5  6  1  0  0  0  0
  7  6  1  0  0  0  0
  7  8  1  0  0  0  0
  8  9  1  0  0  0  0
  9 10  1  0  0  0  0
  1 10  1  0  0  0  0
  5 10  1  0  0  0  0
  2 11  2  0  0  0  0
 12 13  1  0  0  0  0
 15 16  1  0  0  0  0
 16 17  1  0  0  0  0
 17 18  1  0  0  0  0
 18 19  1  0  0  0  0
 19 20  1  0  0  0  0
 15 20  1  0  0  0  0
 21 22  1  0  0  0  0
 20 21  1  1  0  0  0
 19 23  1  6  0  0  0
 18 24  1  1  0  0  0
 17 25  1  6  0  0  0
 16 14  1  1  0  0  0
 13 14  1  0  0  0  0
  7 13  1  0  0  0  0
 27 28  1  0  0  0  0
 28 29  1  0  0  0  0
 29 30  1  0  0  0  0
 30 31  1  0  0  0  0
 31 32  1  0  0  0  0
 27 32  1  0  0  0  0
 33 34  1  0  0  0  0
 32 33  1  6  0  0  0
 31 35  1  1  0  0  0
 30 36  1  6  0  0  0
 29 37  1  1  0  0  0
 28 26  1  6  0  0  0
  3 26  1  0  0  0  0
 10 38  1  6  0  0  0
  4 39  1  0  0  0  0
  5 40  1  1  0  0  0
 13 41  1  0  0  0  0
  7 42  1  1  0  0  0
M  END
>  <cdx:fragmentId>
35

$$$$
