300791.cdx
  Mrv1902 05222410282D          

 16 18  0  0  0  0            999 V2000
    6.4178   -6.9530    0.0000 N   0  0  0  0  0  0  0  0  0  0  0  0
    7.1323   -6.5405    0.0000 C   0  0  0  0  0  0  0  0  0  0  0  0
    7.8468   -6.9530    0.0000 C   0  0  0  0  0  0  0  0  0  0  0  0
    7.8468   -7.7780    0.0000 C   0  0  0  0  0  0  0  0  0  0  0  0
    7.1323   -8.1905    0.0000 C   0  0  0  0  0  0  0  0  0  0  0  0
    7.1323   -9.0155    0.0000 C   0  0  0  0  0  0  0  0  0  0  0  0
    6.4178   -9.4280    0.0000 C   0  0  0  0  0  0  0  0  0  0  0  0
    5.7033   -9.0155    0.0000 C   0  0  0  0  0  0  0  0  0  0  0  0
    5.7033   -8.1905    0.0000 C   0  0  0  0  0  0  0  0  0  0  0  0
    6.4178   -7.7780    0.0000 C   0  0  0  0  0  0  0  0  0  0  0  0
    4.9889   -7.7780    0.0000 C   0  0  0  0  0  0  0  0  0  0  0  0
    4.2744   -8.1905    0.0000 C   0  0  0  0  0  0  0  0  0  0  0  0
    4.2744   -9.0155    0.0000 C   0  0  0  0  0  0  0  0  0  0  0  0
    4.9889   -9.4280    0.0000 C   0  0  0  0  0  0  0  0  0  0  0  0
    8.5612   -8.1905    0.0000 C   0  0  0  0  0  0  0  0  0  0  0  0
    7.1323   -5.7155    0.0000 C   0  0  0  0  0  0  0  0  0  0  0  0
  1  2  2  0  0  0  0
  2  3  1  0  0  0  0
  3  4  2  0  0  0  0
  4  5  1  0  0  0  0
  5  6  2  0  0  0  0
  6  7  1  0  0  0  0
  7  8  2  0  0  0  0
  8  9  1  0  0  0  0
  9 10  2  0  0  0  0
  1 10  1  0  0  0  0
  5 10  1  0  0  0  0
 11 12  2  0  0  0  0
 12 13  1  0  0  0  0
 13 14  2  0  0  0  0
  8 14  1  0  0  0  0
  9 11  1  0  0  0  0
  4 15  1  0  0  0  0
  2 16  1  0  0  0  0
M  END
>  <cdx:fragmentId>
1841

$$$$
