300771.cdx
  Mrv1902 05222410192D          

 55 61  0  0  0  0            999 V2000
   11.6722   -9.2937    0.0000 C   0  0  0  0  0  0  0  0  0  0  0  0
   12.2243   -8.6806    0.0000 C   0  0  0  0  0  0  0  0  0  0  0  0
   11.9272  -10.0784    0.0000 O   0  0  0  0  0  0  0  0  0  0  0  0
   10.8653   -9.1222    0.0000 O   0  0  0  0  0  0  0  0  0  0  0  0
   10.6103   -7.0027    0.0000 C   0  0  2  0  0  0  0  0  0  0  0  0
    9.8257   -7.2576    0.0000 C   0  0  1  0  0  0  0  0  0  0  0  0
    9.1112   -6.8451    0.0000 C   0  0  0  0  0  0  0  0  0  0  0  0
    8.3968   -7.2576    0.0000 C   0  0  0  0  0  0  0  0  0  0  0  0
    8.3968   -8.0826    0.0000 C   0  0  1  0  0  0  0  0  0  0  0  0
    7.6823   -7.6701    0.0000 C   0  0  0  0  0  0  0  0  0  0  0  0
    7.6823   -8.4951    0.0000 C   0  0  1  0  0  0  0  0  0  0  0  0
    6.9678   -8.0826    0.0000 C   0  0  0  0  0  0  0  0  0  0  0  0
    6.2533   -8.4951    0.0000 C   0  0  0  0  0  0  0  0  0  0  0  0
    6.2533   -9.3201    0.0000 C   0  0  1  0  0  0  0  0  0  0  0  0
    6.9678   -9.7326    0.0000 C   0  0  0  0  0  0  0  0  0  0  0  0
    7.6823   -9.3201    0.0000 C   0  0  2  0  0  0  0  0  0  0  0  0
    8.3968   -9.7326    0.0000 C   0  0  0  0  0  0  0  0  0  0  0  0
    9.1112   -9.3201    0.0000 C   0  0  0  0  0  0  0  0  0  0  0  0
    9.1112   -8.4951    0.0000 C   0  0  1  0  0  0  0  0  0  0  0  0
    9.8257   -8.0826    0.0000 C   0  0  2  0  0  0  0  0  0  0  0  0
   10.6103   -8.3376    0.0000 C   0  0  2  0  0  0  0  0  0  0  0  0
   11.0952   -7.6701    0.0000 C   0  0  2  0  0  0  0  0  0  0  0  0
   11.9194   -7.7072    0.0000 O   0  0  0  0  0  0  0  0  0  0  0  0
    5.5389   -9.7326    0.0000 O   0  0  0  0  0  0  0  0  0  0  0  0
    4.8244   -8.4951    0.0000 O   0  0  0  0  0  0  0  0  0  0  0  0
    4.8244   -9.3201    0.0000 C   0  0  2  0  0  0  0  0  0  0  0  0
    4.1099   -9.7326    0.0000 C   0  0  1  0  0  0  0  0  0  0  0  0
    3.3955   -9.3201    0.0000 C   0  0  2  0  0  0  0  0  0  0  0  0
    3.3955   -8.4951    0.0000 C   0  0  1  0  0  0  0  0  0  0  0  0
    4.1099   -8.0826    0.0000 C   0  0  0  0  0  0  0  0  0  0  0  0
    2.6810   -8.0826    0.0000 O   0  0  0  0  0  0  0  0  0  0  0  0
    2.6810   -9.7326    0.0000 O   0  0  0  0  0  0  0  0  0  0  0  0
    4.1099  -10.5576    0.0000 O   0  0  0  0  0  0  0  0  0  0  0  0
    9.8257   -8.9076    0.0000 C   0  0  0  0  0  0  0  0  0  0  0  0
    7.3803  -10.4471    0.0000 C   0  0  0  0  0  0  0  0  0  0  0  0
    6.5553  -10.4471    0.0000 C   0  0  0  0  0  0  0  0  0  0  0  0
    9.8257   -6.4326    0.0000 C   0  0  0  0  0  0  0  0  0  0  0  0
    7.6823  -10.1451    0.0000 H   0  0  0  0  0  0  0  0  0  0  0  0
    9.1112   -7.6701    0.0000 H   0  0  0  0  0  0  0  0  0  0  0  0
    9.1112   -6.0201    0.0000 O   0  0  0  0  0  0  0  0  0  0  0  0
    9.1112   -5.1951    0.0000 C   0  0  0  0  0  0  0  0  0  0  0  0
    9.8257   -4.7826    0.0000 O   0  0  0  0  0  0  0  0  0  0  0  0
    8.3968   -4.7826    0.0000 C   0  0  0  0  0  0  0  0  0  0  0  0
   10.8653   -6.2181    0.0000 C   0  0  2  0  0  0  0  0  0  0  0  0
   11.4252   -6.8737    0.0000 H   0  0  0  0  0  0  0  0  0  0  0  0
   11.6762   -6.3695    0.0000 C   0  0  0  0  0  0  0  0  0  0  0  0
   12.0709   -5.6451    0.0000 C   0  0  0  0  0  0  0  0  0  0  0  0
   11.5038   -5.0459    0.0000 C   0  0  1  0  0  0  0  0  0  0  0  0
   10.7587   -5.4000    0.0000 O   0  0  0  0  0  0  0  0  0  0  0  0
   10.0438   -6.1420    0.0000 C   0  0  0  0  0  0  0  0  0  0  0  0
   11.0913   -4.3314    0.0000 H   0  0  0  0  0  0  0  0  0  0  0  0
   11.9075   -4.5100    0.0000 C   0  0  0  0  0  0  0  0  0  0  0  0
   11.3241   -3.9266    0.0000 C   0  0  0  0  0  0  0  0  0  0  0  0
   12.4909   -5.0934    0.0000 C   0  0  0  0  0  0  0  0  0  0  0  0
   12.4909   -3.9266    0.0000 O   0  0  0  0  0  0  0  0  0  0  0  0
  1  2  1  0  0  0  0
  1  3  2  0  0  0  0
  1  4  1  0  0  0  0
  5  6  1  0  0  0  0
  6  7  1  0  0  0  0
  7  8  1  0  0  0  0
  8  9  1  0  0  0  0
  9 10  1  1  0  0  0
 11 10  1  1  0  0  0
 11 12  1  0  0  0  0
 12 13  1  0  0  0  0
 13 14  1  0  0  0  0
 14 15  1  0  0  0  0
 15 16  1  0  0  0  0
 16 17  1  0  0  0  0
 17 18  1  0  0  0  0
 18 19  1  0  0  0  0
 19 20  1  0  0  0  0
 20 21  1  0  0  0  0
 21 22  1  0  0  0  0
 22 23  1  1  0  0  0
  5 22  1  0  0  0  0
  6 20  1  0  0  0  0
  9 11  1  0  0  0  0
  9 19  1  0  0  0  0
 11 16  1  0  0  0  0
 25 26  1  0  0  0  0
 26 27  1  0  0  0  0
 27 28  1  0  0  0  0
 28 29  1  0  0  0  0
 29 30  1  0  0  0  0
 25 30  1  0  0  0  0
 29 31  1  6  0  0  0
 28 32  1  1  0  0  0
 27 33  1  6  0  0  0
 26 24  1  1  0  0  0
 14 24  1  1  0  0  0
 20 34  1  6  0  0  0
 15 35  1  0  0  0  0
 15 36  1  0  0  0  0
  6 37  1  1  0  0  0
 21  4  1  6  0  0  0
 16 38  1  6  0  0  0
 19 39  1  1  0  0  0
 37 40  1  0  0  0  0
 40 41  1  0  0  0  0
 41 42  2  0  0  0  0
 41 43  1  0  0  0  0
  5 44  1  0  0  0  0
  5 45  1  6  0  0  0
 44 46  1  0  0  0  0
 46 47  1  0  0  0  0
 47 48  1  0  0  0  0
 48 49  1  0  0  0  0
 49 44  1  0  0  0  0
 44 50  1  6  0  0  0
 48 51  1  6  0  0  0
 48 52  1  0  0  0  0
 52 53  1  0  0  0  0
 52 54  1  0  0  0  0
 52 55  1  0  0  0  0
M  END
>  <cdx:fragmentId>
795

$$$$
