300755.cdx
  Mrv1902 05222410272D          

 13 14  0  0  0  0            999 V2000
    8.8546   -7.9143    0.0000 O   0  0  0  0  0  0  0  0  0  0  0  0
    8.8442   -7.0894    0.0000 O   0  0  0  0  0  0  0  0  0  0  0  0
    5.8444   -8.9920    0.0000 O   0  0  0  0  0  0  0  0  0  0  0  0
    6.8812   -8.7643    0.0000 O   0  0  0  0  0  0  0  0  0  0  0  0
    6.8499   -6.2895    0.0000 C   0  0  0  0  0  0  0  0  0  0  0  0
    5.5961   -7.5430    0.0000 C   0  0  0  0  0  0  0  0  0  0  0  0
    6.0894   -8.2042    0.0000 C   0  0  1  0  0  0  0  0  0  0  0  0
    6.0726   -6.8694    0.0000 O   0  0  0  0  0  0  0  0  0  0  0  0
    6.8708   -7.9394    0.0000 C   0  0  1  0  0  0  0  0  0  0  0  0
    6.8604   -7.1145    0.0000 C   0  0  2  0  0  0  0  0  0  0  0  0
    7.6417   -6.8496    0.0000 O   0  0  0  0  0  0  0  0  0  0  0  0
    8.1350   -7.5109    0.0000 B   0  5  1  0  0  0  0  0  0  0  0  0
    7.6586   -8.1844    0.0000 O   0  0  0  0  0  0  0  0  0  0  0  0
 12  1  1  6  0  0  0
 12  2  1  1  0  0  0
  7  3  1  1  0  0  0
  9  4  1  1  0  0  0
 10  5  1  1  0  0  0
  7  9  1  0  0  0  0
  8 10  1  0  0  0  0
  8  6  1  0  0  0  0
  7  6  1  0  0  0  0
  9 13  1  6  0  0  0
 10  9  1  0  0  0  0
 10 11  1  6  0  0  0
 12 11  1  0  0  0  0
 13 12  1  0  0  0  0
M  CHG  1  12  -1
M  END
>  <cdx:fragmentId>
5

$$$$
