300750.cdx
  Mrv1902 05222410272D          

 22 25  0  0  0  0            999 V2000
    6.3074  -11.4971    0.0000 C   0  0  0  0  0  0  0  0  0  0  0  0
    6.3074  -12.3221    0.0000 C   0  0  0  0  0  0  0  0  0  0  0  0
    5.5930  -12.7346    0.0000 C   0  0  0  0  0  0  0  0  0  0  0  0
    4.8785  -12.3221    0.0000 C   0  0  0  0  0  0  0  0  0  0  0  0
    4.1640  -12.7346    0.0000 C   0  0  0  0  0  0  0  0  0  0  0  0
    3.4495  -12.3221    0.0000 C   0  0  0  0  0  0  0  0  0  0  0  0
    3.4495  -11.4971    0.0000 C   0  0  0  0  0  0  0  0  0  0  0  0
    4.1640  -11.0846    0.0000 C   0  0  0  0  0  0  0  0  0  0  0  0
    4.8785  -11.4971    0.0000 C   0  0  0  0  0  0  0  0  0  0  0  0
    5.5930  -11.0846    0.0000 O   0  0  0  0  0  0  0  0  0  0  0  0
    2.7351  -11.0846    0.0000 O   0  0  0  0  0  0  0  0  0  0  0  0
    9.2355  -13.8145    0.0000 O   0  0  0  0  0  0  0  0  0  0  0  0
    9.7204  -13.1471    0.0000 C   0  0  0  0  0  0  0  0  0  0  0  0
    9.2355  -12.4796    0.0000 O   0  0  0  0  0  0  0  0  0  0  0  0
    8.4508  -12.7346    0.0000 C   0  0  0  0  0  0  0  0  0  0  0  0
    8.4508  -13.5596    0.0000 C   0  0  0  0  0  0  0  0  0  0  0  0
    7.7364  -12.3221    0.0000 C   0  0  0  0  0  0  0  0  0  0  0  0
    7.0219  -12.7346    0.0000 C   0  0  0  0  0  0  0  0  0  0  0  0
    7.0219  -13.5596    0.0000 C   0  0  0  0  0  0  0  0  0  0  0  0
    7.7364  -13.9721    0.0000 C   0  0  0  0  0  0  0  0  0  0  0  0
    6.3074  -13.9721    0.0000 O   0  0  0  0  0  0  0  0  0  0  0  0
    5.5930  -13.5596    0.0000 C   0  0  0  0  0  0  0  0  0  0  0  0
  1  2  1  0  0  0  0
  2  3  1  0  0  0  0
  3  4  1  0  0  0  0
  4  5  1  0  0  0  0
  5  6  2  0  0  0  0
  6  7  1  0  0  0  0
  7  8  2  0  0  0  0
  8  9  1  0  0  0  0
  4  9  2  0  0  0  0
  9 10  1  0  0  0  0
  1 10  1  0  0  0  0
  7 11  1  0  0  0  0
 12 13  1  0  0  0  0
 13 14  1  0  0  0  0
 14 15  1  0  0  0  0
 15 16  1  0  0  0  0
 12 16  1  0  0  0  0
 17 18  1  0  0  0  0
 18 19  2  0  0  0  0
 19 20  1  0  0  0  0
 16 20  2  0  0  0  0
 15 17  2  0  0  0  0
 21 22  1  0  0  0  0
 19 21  1  0  0  0  0
  2 18  1  0  0  0  0
M  END
>  <cdx:fragmentId>
6265

$$$$
