300723.cdx
  Mrv1902 05222410242D          

 18 19  0  0  0  0            999 V2000
    6.5868   -7.8527    0.0000 C   0  0  0  0  0  0  0  0  0  0  0  0
    6.0167   -8.4490    0.0000 C   0  0  0  0  0  0  0  0  0  0  0  0
    5.2734   -8.0910    0.0000 C   0  0  0  0  0  0  0  0  0  0  0  0
    5.3841   -7.2735    0.0000 C   0  0  0  0  0  0  0  0  0  0  0  0
    4.7628   -6.7307    0.0000 C   0  0  0  0  0  0  0  0  0  0  0  0
    4.7998   -5.9065    0.0000 C   0  0  0  0  0  0  0  0  0  0  0  0
    5.4673   -5.4216    0.0000 C   0  0  0  0  0  0  0  0  0  0  0  0
    6.2625   -5.6411    0.0000 C   0  0  1  0  0  0  0  0  0  0  0  0
    6.5868   -6.3997    0.0000 C   0  0  2  0  0  0  0  0  0  0  0  0
    7.3498   -6.7139    0.0000 O   0  0  0  0  0  0  0  0  0  0  0  0
    7.3498   -7.5389    0.0000 C   0  0  0  0  0  0  0  0  0  0  0  0
    6.1958   -7.1262    0.0000 C   0  0  0  0  0  0  0  0  0  0  0  0
    8.0642   -7.9514    0.0000 O   0  0  0  0  0  0  0  0  0  0  0  0
    6.5387   -4.2391    0.0000 C   0  0  0  0  0  0  0  0  0  0  0  0
    6.8053   -5.0198    0.0000 C   0  0  0  0  0  0  0  0  0  0  0  0
    7.6148   -5.1793    0.0000 C   0  0  0  0  0  0  0  0  0  0  0  0
    4.0042   -7.0550    0.0000 C   0  0  0  0  0  0  0  0  0  0  0  0
    7.1663   -5.8125    0.0000 H   0  0  0  0  0  0  0  0  0  0  0  0
  1  2  1  0  0  0  0
  2  3  1  0  0  0  0
  3  4  1  0  0  0  0
  4  5  2  0  0  0  0
  5  6  1  0  0  0  0
  6  7  1  0  0  0  0
  7  8  1  0  0  0  0
  8  9  1  0  0  0  0
  9 10  1  0  0  0  0
 10 11  1  0  0  0  0
  1 11  1  0  0  0  0
  1 12  2  0  0  0  0
  9 12  1  0  0  0  0
 11 13  2  0  0  0  0
 14 15  2  0  0  0  0
 15 16  1  0  0  0  0
  8 15  1  6  0  0  0
  5 17  1  0  0  0  0
  9 18  1  1  0  0  0
M  END
>  <cdx:fragmentId>
2734

$$$$
