300763.cdx
  Mrv1902 05222410182D          

 64 70  0  0  0  0            999 V2000
    4.6475   -8.6350    0.0000 C   0  0  0  0  0  0  0  0  0  0  0  0
    4.0406  -10.9554    0.0000 C   0  0  1  0  0  0  0  0  0  0  0  0
    4.4757  -10.2544    0.0000 C   0  0  1  0  0  0  0  0  0  0  0  0
    4.0862   -9.5272    0.0000 C   0  0  1  0  0  0  0  0  0  0  0  0
    3.2616   -9.5009    0.0000 C   0  0  0  0  0  0  0  0  0  0  0  0
    2.8266  -10.2018    0.0000 C   0  0  0  0  0  0  0  0  0  0  0  0
    3.2161  -10.9291    0.0000 O   0  0  0  0  0  0  0  0  0  0  0  0
    1.6580   -8.0201    0.0000 C   0  0  0  0  0  0  0  0  0  0  0  0
    5.3003  -10.2807    0.0000 C   0  0  0  0  0  0  0  0  0  0  0  0
    5.6898  -11.0080    0.0000 C   0  0  0  0  0  0  0  0  0  0  0  0
    9.6412   -7.3388    0.0000 O   0  0  0  0  0  0  0  0  0  0  0  0
   10.3448   -8.5825    0.0000 O   0  0  0  0  0  0  0  0  0  0  0  0
   10.3520   -7.7575    0.0000 C   0  0  2  0  0  0  0  0  0  0  0  0
   11.0700   -7.3512    0.0000 C   0  0  1  0  0  0  0  0  0  0  0  0
   11.7809   -7.7699    0.0000 C   0  0  2  0  0  0  0  0  0  0  0  0
   11.7737   -8.5949    0.0000 C   0  0  1  0  0  0  0  0  0  0  0  0
   11.0557   -9.0012    0.0000 C   0  0  1  0  0  0  0  0  0  0  0  0
   11.0485   -9.8261    0.0000 C   0  0  0  0  0  0  0  0  0  0  0  0
   11.7594  -10.2448    0.0000 O   0  0  0  0  0  0  0  0  0  0  0  0
   12.4846   -9.0136    0.0000 O   0  0  0  0  0  0  0  0  0  0  0  0
   12.4989   -7.3637    0.0000 O   0  0  0  0  0  0  0  0  0  0  0  0
   11.0772   -6.5263    0.0000 O   0  0  0  0  0  0  0  0  0  0  0  0
    5.3466   -8.9850    0.0000 C   0  0  0  0  0  0  0  0  0  0  0  0
    7.4880   -6.1183    0.0000 C   0  0  0  0  0  0  0  0  0  0  0  0
    8.2057   -6.5252    0.0000 C   0  0  0  0  0  0  0  0  0  0  0  0
    5.2571  -13.1105    0.0000 O   0  0  0  0  0  0  0  0  0  0  0  0
    4.4341  -14.5405    0.0000 O   0  0  0  0  0  0  0  0  0  0  0  0
    2.7841  -14.5428    0.0000 O   0  0  0  0  0  0  0  0  0  0  0  0
    1.5456  -13.8301    0.0000 O   0  0  0  0  0  0  0  0  0  0  0  0
    1.9571  -13.1150    0.0000 C   0  0  0  0  0  0  0  0  0  0  0  0
    2.7821  -13.1139    0.0000 C   0  0  2  0  0  0  0  0  0  0  0  0
    3.1956  -13.8278    0.0000 C   0  0  2  0  0  0  0  0  0  0  0  0
    4.0206  -13.8266    0.0000 C   0  0  1  0  0  0  0  0  0  0  0  0
    4.4321  -13.1116    0.0000 C   0  0  2  0  0  0  0  0  0  0  0  0
    4.0186  -12.3977    0.0000 C   0  0  1  0  0  0  0  0  0  0  0  0
    3.1937  -12.3988    0.0000 O   0  0  0  0  0  0  0  0  0  0  0  0
    4.4302  -11.6827    0.0000 O   0  0  0  0  0  0  0  0  0  0  0  0
    2.0475   -8.7473    0.0000 O   0  0  0  0  0  0  0  0  0  0  0  0
    3.3072   -8.0727    0.0000 O   0  0  0  0  0  0  0  0  0  0  0  0
    2.8721   -8.7736    0.0000 C   0  0  0  0  0  0  0  0  0  0  0  0
    5.3545   -7.3728    0.0000 N   0  0  0  0  0  0  0  0  0  0  0  0
    5.3479   -6.5478    0.0000 C   0  0  0  0  0  0  0  0  0  0  0  0
    4.6302   -6.1410    0.0000 C   0  0  0  0  0  0  0  0  0  0  0  0
    4.6433   -7.7910    0.0000 C   0  0  1  0  0  0  0  0  0  0  0  0
    2.6528   -6.9817    0.0000 C   0  0  0  0  0  0  0  0  0  0  0  0
    1.8316   -6.9020    0.0000 C   0  0  0  0  0  0  0  0  0  0  0  0
    1.4901   -6.1510    0.0000 C   0  0  0  0  0  0  0  0  0  0  0  0
    1.9697   -5.4798    0.0000 C   0  0  0  0  0  0  0  0  0  0  0  0
    2.7909   -5.5595    0.0000 C   0  0  0  0  0  0  0  0  0  0  0  0
    3.1324   -6.3105    0.0000 C   0  0  0  0  0  0  0  0  0  0  0  0
    3.9190   -6.5592    0.0000 C   0  0  0  0  0  0  0  0  0  0  0  0
    3.9256   -7.3842    0.0000 C   0  0  0  0  0  0  0  0  0  0  0  0
    3.1430   -7.6453    0.0000 N   0  0  0  0  0  0  0  0  0  0  0  0
    6.0722   -7.7796    0.0000 C   0  0  0  0  0  0  0  0  0  0  0  0
    6.7834   -7.3615    0.0000 C   0  0  0  0  0  0  0  0  0  0  0  0
    6.0787   -8.6046    0.0000 O   0  0  0  0  0  0  0  0  0  0  0  0
    6.8030   -9.8364    0.0000 O   0  0  0  0  0  0  0  0  0  0  0  0
    6.7965   -9.0114    0.0000 C   0  0  0  0  0  0  0  0  0  0  0  0
    8.9365   -8.5819    0.0000 O   0  0  0  0  0  0  0  0  0  0  0  0
    8.2254   -9.0001    0.0000 C   0  0  0  0  0  0  0  0  0  0  0  0
    7.5076   -8.5933    0.0000 C   0  0  0  0  0  0  0  0  0  0  0  0
    7.5011   -7.7683    0.0000 C   0  0  2  0  0  0  0  0  0  0  0  0
    8.2123   -7.3501    0.0000 C   0  0  2  0  0  0  0  0  0  0  0  0
    8.9300   -7.7570    0.0000 C   0  0  2  0  0  0  0  0  0  0  0  0
 56 23  1  0  0  0  0
 63 25  1  1  0  0  0
 25 24  2  0  0  0  0
 62 55  1  1  0  0  0
 54 41  1  0  0  0  0
 44  1  1  6  0  0  0
 35 37  1  1  0  0  0
 34 26  1  6  0  0  0
 33 27  1  1  0  0  0
 32 28  1  6  0  0  0
 31 30  1  1  0  0  0
 30 29  1  0  0  0  0
 36 31  1  0  0  0  0
 32 31  1  0  0  0  0
 33 32  1  0  0  0  0
 34 33  1  0  0  0  0
 35 34  1  0  0  0  0
 36 35  1  0  0  0  0
 40 38  1  0  0  0  0
 38  8  1  0  0  0  0
 40 39  2  0  0  0  0
  2  3  1  0  0  0  0
 51 43  1  0  0  0  0
 52 44  1  0  0  0  0
 44 41  1  0  0  0  0
 42 41  1  0  0  0  0
 43 42  1  0  0  0  0
 50 45  2  0  0  0  0
 53 45  1  0  0  0  0
 46 45  1  0  0  0  0
 47 46  2  0  0  0  0
 48 47  1  0  0  0  0
 49 48  2  0  0  0  0
 50 49  1  0  0  0  0
 51 50  1  0  0  0  0
 52 51  2  0  0  0  0
 53 52  1  0  0  0  0
 55 54  1  0  0  0  0
 64 11  1  6  0  0  0
 61 58  1  0  0  0  0
 58 56  1  0  0  0  0
 58 57  2  0  0  0  0
 64 59  1  0  0  0  0
 60 59  1  0  0  0  0
 61 60  2  0  0  0  0
 62 61  1  0  0  0  0
 63 62  1  0  0  0  0
 64 63  1  0  0  0  0
  3  4  1  0  0  0  0
  4  5  1  0  0  0  0
  5  6  2  0  0  0  0
  6  7  1  0  0  0  0
  2  7  1  0  0  0  0
  2 37  1  6  0  0  0
  5 40  1  0  0  0  0
  9 10  2  0  0  0  0
  3  9  1  1  0  0  0
  4  1  1  1  0  0  0
 12 13  1  0  0  0  0
 13 14  1  0  0  0  0
 14 15  1  0  0  0  0
 15 16  1  0  0  0  0
 16 17  1  0  0  0  0
 12 17  1  0  0  0  0
 18 19  1  0  0  0  0
 17 18  1  1  0  0  0
 16 20  1  6  0  0  0
 15 21  1  1  0  0  0
 14 22  1  6  0  0  0
 13 11  1  1  0  0  0
M  END
>  <cdx:fragmentId>
95

$$$$
