300751.cdx
  Mrv1902 05222410272D          

 23 25  0  0  0  0            999 V2000
    7.4639  -13.7219    0.0000 C   0  0  0  0  0  0  0  0  0  0  0  0
    7.4639  -12.8969    0.0000 C   0  0  0  0  0  0  0  0  0  0  0  0
    8.1784  -12.4844    0.0000 C   0  0  0  0  0  0  0  0  0  0  0  0
    8.8928  -12.8969    0.0000 C   0  0  0  0  0  0  0  0  0  0  0  0
    8.8928  -13.7219    0.0000 C   0  0  0  0  0  0  0  0  0  0  0  0
    8.1784  -14.1344    0.0000 C   0  0  0  0  0  0  0  0  0  0  0  0
    6.7494  -14.1344    0.0000 O   0  0  0  0  0  0  0  0  0  0  0  0
    9.6073  -12.4844    0.0000 O   0  0  0  0  0  0  0  0  0  0  0  0
    8.1784  -14.9594    0.0000 O   0  0  0  0  0  0  0  0  0  0  0  0
    6.7494  -11.6594    0.0000 C   0  0  0  0  0  0  0  0  0  0  0  0
    6.7494  -12.4844    0.0000 C   0  0  2  0  0  0  0  0  0  0  0  0
    6.0350  -12.8969    0.0000 C   0  0  0  0  0  0  0  0  0  0  0  0
    5.3205  -12.4844    0.0000 C   0  0  0  0  0  0  0  0  0  0  0  0
    4.6060  -12.8969    0.0000 C   0  0  0  0  0  0  0  0  0  0  0  0
    3.8915  -12.4844    0.0000 C   0  0  0  0  0  0  0  0  0  0  0  0
    3.8915  -11.6594    0.0000 C   0  0  0  0  0  0  0  0  0  0  0  0
    4.6060  -11.2469    0.0000 C   0  0  0  0  0  0  0  0  0  0  0  0
    5.3205  -11.6594    0.0000 C   0  0  0  0  0  0  0  0  0  0  0  0
    6.0350  -11.2469    0.0000 O   0  0  0  0  0  0  0  0  0  0  0  0
    4.6060  -10.4219    0.0000 O   0  0  0  0  0  0  0  0  0  0  0  0
    3.8915  -10.0094    0.0000 C   0  0  0  0  0  0  0  0  0  0  0  0
    3.1771  -11.2469    0.0000 O   0  0  0  0  0  0  0  0  0  0  0  0
    2.4626  -11.6594    0.0000 C   0  0  0  0  0  0  0  0  0  0  0  0
  1  2  1  0  0  0  0
  2  3  2  0  0  0  0
  3  4  1  0  0  0  0
  4  5  1  0  0  0  0
  5  6  2  0  0  0  0
  1  6  1  0  0  0  0
  1  7  2  0  0  0  0
  4  8  2  0  0  0  0
  6  9  1  0  0  0  0
 10 11  1  0  0  0  0
 11 12  1  0  0  0  0
 12 13  1  0  0  0  0
 13 14  1  0  0  0  0
 14 15  2  0  0  0  0
 15 16  1  0  0  0  0
 16 17  2  0  0  0  0
 17 18  1  0  0  0  0
 13 18  2  0  0  0  0
 18 19  1  0  0  0  0
 10 19  1  0  0  0  0
 20 21  1  0  0  0  0
 17 20  1  0  0  0  0
 22 23  1  0  0  0  0
 16 22  1  0  0  0  0
 11  2  1  1  0  0  0
M  END
>  <cdx:fragmentId>
6335

$$$$
