300794.cdx
  Mrv1902 05222410262D          

 12 12  0  0  0  0            999 V2000
    7.5487   -7.2091    0.0000 C   0  0  0  0  0  0  0  0  0  0  0  0
    6.8343   -7.6216    0.0000 C   0  0  0  0  0  0  0  0  0  0  0  0
    6.1198   -7.2091    0.0000 C   0  0  0  0  0  0  0  0  0  0  0  0
    5.4053   -7.6216    0.0000 C   0  0  0  0  0  0  0  0  0  0  0  0
    5.4053   -8.4466    0.0000 C   0  0  0  0  0  0  0  0  0  0  0  0
    6.1198   -8.8591    0.0000 C   0  0  0  0  0  0  0  0  0  0  0  0
    6.8343   -8.4466    0.0000 C   0  0  0  0  0  0  0  0  0  0  0  0
    7.5487   -6.3841    0.0000 O   0  0  0  0  0  0  0  0  0  0  0  0
    8.2632   -7.6216    0.0000 O   0  0  0  0  0  0  0  0  0  0  0  0
    4.6908   -8.8591    0.0000 C   0  0  0  0  0  0  0  0  0  0  0  0
    3.9764   -8.4466    0.0000 O   0  0  0  0  0  0  0  0  0  0  0  0
    8.9777   -7.2091    0.0000 C   0  0  0  0  0  0  0  0  0  0  0  0
  1  2  1  0  0  0  0
  2  3  1  0  0  0  0
  3  4  2  0  0  0  0
  4  5  1  0  0  0  0
  5  6  2  0  0  0  0
  6  7  1  0  0  0  0
  2  7  2  0  0  0  0
  1  8  2  0  0  0  0
  1  9  1  0  0  0  0
 10 11  2  0  0  0  0
  5 10  1  0  0  0  0
  9 12  1  0  0  0  0
M  END
>  <cdx:fragmentId>
1984

$$$$
