300799.cdx
  Mrv1902 05222410202D          

  8  8  0  0  0  0            999 V2000
    6.9915   -8.4047    0.0000 C   0  0  0  0  0  0  0  0  0  0  0  0
    7.7059   -7.9922    0.0000 S   0  0  0  0  0  0  0  0  0  0  0  0
    6.2770   -7.9922    0.0000 C   0  0  0  0  0  0  0  0  0  0  0  0
    5.5625   -8.4047    0.0000 C   0  0  0  0  0  0  0  0  0  0  0  0
    4.8481   -7.9922    0.0000 C   0  0  0  0  0  0  0  0  0  0  0  0
    4.8481   -7.1672    0.0000 C   0  0  0  0  0  0  0  0  0  0  0  0
    5.5625   -6.7547    0.0000 C   0  0  0  0  0  0  0  0  0  0  0  0
    6.2770   -7.1672    0.0000 C   0  0  0  0  0  0  0  0  0  0  0  0
  1  2  1  0  0  0  0
  3  4  1  0  0  0  0
  4  5  2  0  0  0  0
  5  6  1  0  0  0  0
  6  7  2  0  0  0  0
  7  8  1  0  0  0  0
  3  8  2  0  0  0  0
  1  3  1  0  0  0  0
M  END
>  <cdx:fragmentId>
2320

$$$$
