300713.cdx
  Mrv1902 05222410222D          

 18 19  0  0  0  0            999 V2000
    6.7745   -5.1695    0.0000 C   0  0  0  0  0  0  0  0  0  0  0  0
    7.4889   -4.7570    0.0000 N   0  0  0  0  0  0  0  0  0  0  0  0
    8.2034   -5.1695    0.0000 C   0  0  0  0  0  0  0  0  0  0  0  0
    8.2034   -5.9945    0.0000 C   0  0  0  0  0  0  0  0  0  0  0  0
    7.4889   -6.4070    0.0000 C   0  0  0  0  0  0  0  0  0  0  0  0
    6.7745   -5.9945    0.0000 N   0  0  0  0  0  0  0  0  0  0  0  0
    6.0600   -4.7570    0.0000 O   0  0  0  0  0  0  0  0  0  0  0  0
    8.9179   -4.7570    0.0000 O   0  0  0  0  0  0  0  0  0  0  0  0
    8.9179   -6.4070    0.0000 C   0  0  0  0  0  0  0  0  0  0  0  0
    5.3063   -6.0714    0.0000 O   0  0  0  0  0  0  0  0  0  0  0  0
    6.0600   -6.4070    0.0000 C   0  0  2  0  0  0  0  0  0  0  0  0
    5.9738   -7.2275    0.0000 C   0  0  2  0  0  0  0  0  0  0  0  0
    5.1668   -7.3990    0.0000 C   0  0  1  0  0  0  0  0  0  0  0  0
    4.7543   -6.6845    0.0000 C   0  0  1  0  0  0  0  0  0  0  0  0
    3.9338   -6.5983    0.0000 C   0  0  0  0  0  0  0  0  0  0  0  0
    3.4489   -7.2657    0.0000 O   0  0  0  0  0  0  0  0  0  0  0  0
    4.8312   -8.1527    0.0000 O   0  0  0  0  0  0  0  0  0  0  0  0
    6.5868   -7.7795    0.0000 O   0  0  0  0  0  0  0  0  0  0  0  0
  1  2  1  0  0  0  0
  2  3  1  0  0  0  0
  3  4  1  0  0  0  0
  4  5  2  0  0  0  0
  5  6  1  0  0  0  0
  1  6  1  0  0  0  0
  1  7  2  0  0  0  0
  3  8  2  0  0  0  0
  4  9  1  0  0  0  0
 10 11  1  0  0  0  0
 11 12  1  0  0  0  0
 12 13  1  0  0  0  0
 13 14  1  0  0  0  0
 10 14  1  0  0  0  0
 15 16  1  0  0  0  0
 14 15  1  1  0  0  0
 13 17  1  6  0  0  0
 12 18  1  1  0  0  0
 11  6  1  1  0  0  0
M  END
>  <cdx:fragmentId>
1750

$$$$
