300783.cdx
  Mrv1902 05222410262D          

 10 10  0  0  0  0            999 V2000
    4.2710   -7.1672    0.0000 C   0  0  0  0  0  0  0  0  0  0  0  0
    4.9854   -6.7547    0.0000 C   0  0  0  0  0  0  0  0  0  0  0  0
    8.5578   -7.1672    0.0000 C   0  0  0  0  0  0  0  0  0  0  0  0
    7.8433   -6.7547    0.0000 C   0  0  0  0  0  0  0  0  0  0  0  0
    5.6999   -7.9922    0.0000 C   0  0  0  0  0  0  0  0  0  0  0  0
    6.4144   -8.4047    0.0000 C   0  0  0  0  0  0  0  0  0  0  0  0
    7.1288   -7.9922    0.0000 C   0  0  0  0  0  0  0  0  0  0  0  0
    7.1288   -7.1672    0.0000 C   0  0  0  0  0  0  0  0  0  0  0  0
    6.4144   -6.7547    0.0000 C   0  0  0  0  0  0  0  0  0  0  0  0
    5.6999   -7.1672    0.0000 C   0  0  0  0  0  0  0  0  0  0  0  0
 10  2  1  0  0  0  0
  2  1  1  0  0  0  0
  8  4  1  0  0  0  0
  4  3  1  0  0  0  0
 10  5  2  0  0  0  0
  6  5  1  0  0  0  0
  7  6  2  0  0  0  0
  8  7  1  0  0  0  0
  9  8  2  0  0  0  0
 10  9  1  0  0  0  0
M  END
>  <cdx:fragmentId>
1425

$$$$
