300738.cdx
  Mrv1902 05222410222D          

 69 76  0  0  0  0            999 V2000
    6.7046   -4.2323    0.0000 C   0  0  1  0  0  0  0  0  0  0  0  0
    7.4190   -3.8198    0.0000 C   0  0  1  0  0  0  0  0  0  0  0  0
    8.1335   -4.2323    0.0000 C   0  0  0  0  0  0  0  0  0  0  0  0
    8.1335   -5.0573    0.0000 C   0  0  0  0  0  0  0  0  0  0  0  0
    7.4190   -5.4698    0.0000 C   0  0  2  0  0  0  0  0  0  0  0  0
    7.4190   -6.2948    0.0000 C   0  0  0  0  0  0  0  0  0  0  0  0
    6.7046   -6.7073    0.0000 C   0  0  0  0  0  0  0  0  0  0  0  0
    5.9901   -6.2948    0.0000 C   0  0  1  0  0  0  0  0  0  0  0  0
    5.2756   -6.7073    0.0000 C   0  0  2  0  0  0  0  0  0  0  0  0
    5.2756   -7.5323    0.0000 C   0  0  0  0  0  0  0  0  0  0  0  0
    4.5612   -7.9448    0.0000 C   0  0  0  0  0  0  0  0  0  0  0  0
    3.8467   -7.5323    0.0000 C   0  0  2  0  0  0  0  0  0  0  0  0
    2.4177   -7.5323    0.0000 C   0  0  2  0  0  0  0  0  0  0  0  0
    2.4177   -6.7073    0.0000 C   0  0  0  0  0  0  0  0  0  0  0  0
    3.1322   -6.2948    0.0000 C   0  0  0  0  0  0  0  0  0  0  0  0
    3.8467   -6.7073    0.0000 C   0  0  2  0  0  0  0  0  0  0  0  0
    4.5612   -6.2948    0.0000 C   0  0  1  0  0  0  0  0  0  0  0  0
    4.5612   -5.4698    0.0000 C   0  0  0  0  0  0  0  0  0  0  0  0
    5.2756   -5.0573    0.0000 C   0  0  0  0  0  0  0  0  0  0  0  0
    5.9901   -5.4698    0.0000 C   0  0  0  0  0  0  0  0  0  0  0  0
    6.7046   -5.0573    0.0000 C   0  0  2  0  0  0  0  0  0  0  0  0
    8.1335   -5.8823    0.0000 C   0  0  0  0  0  0  0  0  0  0  0  0
    8.1335   -6.7073    0.0000 O   0  0  0  0  0  0  0  0  0  0  0  0
    3.8467   -5.8823    0.0000 C   0  0  0  0  0  0  0  0  0  0  0  0
    5.9901   -7.1198    0.0000 C   0  0  0  0  0  0  0  0  0  0  0  0
    7.4190   -2.9948    0.0000 C   0  0  0  0  0  0  0  0  0  0  0  0
    5.9901   -3.8198    0.0000 C   0  0  0  0  0  0  0  0  0  0  0  0
    3.1322   -9.3737    0.0000 O   0  0  0  0  0  0  0  0  0  0  0  0
    1.7033   -7.9448    0.0000 O   0  0  0  0  0  0  0  0  0  0  0  0
    3.8467   -8.3573    0.0000 H   0  0  0  0  0  0  0  0  0  0  0  0
    6.7046   -5.8823    0.0000 H   0  0  0  0  0  0  0  0  0  0  0  0
   10.9947   -8.3548    0.0000 O   0  0  0  0  0  0  0  0  0  0  0  0
   10.2780   -9.5910    0.0000 O   0  0  0  0  0  0  0  0  0  0  0  0
   10.9932   -9.1798    0.0000 C   0  0  2  0  0  0  0  0  0  0  0  0
   11.7070   -9.5936    0.0000 C   0  0  1  0  0  0  0  0  0  0  0  0
   11.7055  -10.4186    0.0000 C   0  0  2  0  0  0  0  0  0  0  0  0
   10.9903  -10.8298    0.0000 C   0  0  1  0  0  0  0  0  0  0  0  0
   10.2766  -10.4160    0.0000 C   0  0  1  0  0  0  0  0  0  0  0  0
    8.8476  -10.4135    0.0000 O   0  0  0  0  0  0  0  0  0  0  0  0
   12.4192  -10.8324    0.0000 O   0  0  0  0  0  0  0  0  0  0  0  0
   12.4222   -9.1824    0.0000 O   0  0  0  0  0  0  0  0  0  0  0  0
    2.7197   -8.6592    0.0000 C   0  0  0  0  0  0  0  0  0  0  0  0
    3.5447   -8.6592    0.0000 C   0  0  0  0  0  0  0  0  0  0  0  0
    3.1322   -7.9448    0.0000 C   0  0  1  0  0  0  0  0  0  0  0  0
   10.9859  -13.3048    0.0000 O   0  0  0  0  0  0  0  0  0  0  0  0
    9.5554  -14.1272    0.0000 O   0  0  0  0  0  0  0  0  0  0  0  0
    8.1280  -13.2997    0.0000 O   0  0  0  0  0  0  0  0  0  0  0  0
    8.1309  -11.6497    0.0000 C   0  0  0  0  0  0  0  0  0  0  0  0
    8.8447  -12.0635    0.0000 C   0  0  1  0  0  0  0  0  0  0  0  0
    8.8432  -12.8885    0.0000 C   0  0  1  0  0  0  0  0  0  0  0  0
    9.5569  -13.3022    0.0000 C   0  0  2  0  0  0  0  0  0  0  0  0
   10.2721  -12.8910    0.0000 C   0  0  2  0  0  0  0  0  0  0  0  0
   10.2736  -12.0660    0.0000 C   0  0  1  0  0  0  0  0  0  0  0  0
    9.5599  -11.6522    0.0000 O   0  0  0  0  0  0  0  0  0  0  0  0
   10.9888  -11.6548    0.0000 O   0  0  0  0  0  0  0  0  0  0  0  0
    9.5613  -10.8273    0.0000 C   0  0  0  0  0  0  0  0  0  0  0  0
   10.2798   -7.9431    0.0000 C   0  0  0  0  0  0  0  0  0  0  0  0
   10.2760   -4.6431    0.0000 O   0  0  0  0  0  0  0  0  0  0  0  0
   11.7059   -5.4665    0.0000 O   0  0  0  0  0  0  0  0  0  0  0  0
   11.7078   -7.1165    0.0000 O   0  0  0  0  0  0  0  0  0  0  0  0
   10.2788   -7.1181    0.0000 C   0  0  2  0  0  0  0  0  0  0  0  0
   10.9928   -6.7048    0.0000 C   0  0  2  0  0  0  0  0  0  0  0  0
   10.9919   -5.8798    0.0000 C   0  0  1  0  0  0  0  0  0  0  0  0
   10.2769   -5.4681    0.0000 C   0  0  2  0  0  0  0  0  0  0  0  0
    9.5629   -5.8815    0.0000 C   0  0  1  0  0  0  0  0  0  0  0  0
    9.5639   -6.7065    0.0000 O   0  0  0  0  0  0  0  0  0  0  0  0
    8.8480   -5.4698    0.0000 O   0  0  0  0  0  0  0  0  0  0  0  0
    5.2756   -5.8823    0.0000 C   0  0  0  0  0  0  0  0  0  0  0  0
    4.5612   -7.1198    0.0000 H   0  0  0  0  0  0  0  0  0  0  0  0
 44 42  1  0  0  0  0
 65 67  1  1  0  0  0
 42 28  1  0  0  0  0
 44 43  1  1  0  0  0
 61 57  1  1  0  0  0
 57 32  1  0  0  0  0
 53 55  1  1  0  0  0
 52 45  1  6  0  0  0
 51 46  1  6  0  0  0
 50 47  1  1  0  0  0
 49 48  1  6  0  0  0
 54 49  1  0  0  0  0
 50 49  1  0  0  0  0
 51 50  1  0  0  0  0
 52 51  1  0  0  0  0
 53 52  1  0  0  0  0
 54 53  1  0  0  0  0
 56 39  1  0  0  0  0
 33 34  1  0  0  0  0
 64 58  1  6  0  0  0
 63 59  1  1  0  0  0
 62 60  1  6  0  0  0
 66 61  1  0  0  0  0
 62 61  1  0  0  0  0
 63 62  1  0  0  0  0
 64 63  1  0  0  0  0
  1  2  1  0  0  0  0
  2  3  1  0  0  0  0
  3  4  1  0  0  0  0
  4  5  1  0  0  0  0
  5  6  1  0  0  0  0
  6  7  1  0  0  0  0
  7  8  1  0  0  0  0
  8  9  1  0  0  0  0
  9 10  1  0  0  0  0
 10 11  1  0  0  0  0
 11 12  1  0  0  0  0
 12 44  1  0  0  0  0
 44 13  1  0  0  0  0
 13 14  1  0  0  0  0
 14 15  1  0  0  0  0
 15 16  1  0  0  0  0
 12 16  1  0  0  0  0
 16 17  1  0  0  0  0
  9 17  1  0  0  0  0
 17 18  1  0  0  0  0
 18 19  1  0  0  0  0
 19 20  2  0  0  0  0
  8 20  1  0  0  0  0
 20 21  1  0  0  0  0
  5 21  1  0  0  0  0
  1 21  1  0  0  0  0
 22 23  2  0  0  0  0
 22 67  1  0  0  0  0
  5 22  1  1  0  0  0
 16 24  1  1  0  0  0
  8 25  1  6  0  0  0
  2 26  1  6  0  0  0
  1 27  1  1  0  0  0
 13 29  1  1  0  0  0
 12 30  1  6  0  0  0
 21 31  1  1  0  0  0
 65 64  1  0  0  0  0
 66 65  1  0  0  0  0
 34 35  1  0  0  0  0
 35 36  1  0  0  0  0
 36 37  1  0  0  0  0
 37 38  1  0  0  0  0
 33 38  1  0  0  0  0
 37 55  1  6  0  0  0
 38 56  1  1  0  0  0
 36 40  1  1  0  0  0
 35 41  1  6  0  0  0
 34 32  1  1  0  0  0
  9 68  1  1  0  0  0
 17 69  1  6  0  0  0
M  END
>  <cdx:fragmentId>
5

$$$$
