300742.cdx
  Mrv1902 05222410262D          

 57 63  0  0  0  0            999 V2000
    8.5637   -6.9334    0.0000 C   0  0  0  0  0  0  0  0  0  0  0  0
    9.2782   -6.5209    0.0000 C   0  0  0  0  0  0  0  0  0  0  0  0
    9.9927   -6.9334    0.0000 C   0  0  0  0  0  0  0  0  0  0  0  0
    9.9927   -7.7584    0.0000 C   0  0  0  0  0  0  0  0  0  0  0  0
    9.2782   -8.1709    0.0000 C   0  0  2  0  0  0  0  0  0  0  0  0
    9.2782   -8.9959    0.0000 C   0  0  1  0  0  0  0  0  0  0  0  0
    8.5637   -9.4084    0.0000 C   0  0  0  0  0  0  0  0  0  0  0  0
    7.8492   -8.9959    0.0000 C   0  0  1  0  0  0  0  0  0  0  0  0
    7.1348   -9.4084    0.0000 C   0  0  2  0  0  0  0  0  0  0  0  0
    7.1348  -10.2334    0.0000 C   0  0  0  0  0  0  0  0  0  0  0  0
    6.4203  -10.6459    0.0000 C   0  0  0  0  0  0  0  0  0  0  0  0
    5.7058  -10.2334    0.0000 C   0  0  1  0  0  0  0  0  0  0  0  0
    4.9914  -10.6459    0.0000 C   0  0  0  0  0  0  0  0  0  0  0  0
    4.2769  -10.2334    0.0000 C   0  0  2  0  0  0  0  0  0  0  0  0
    4.2769   -9.4084    0.0000 C   0  0  0  0  0  0  0  0  0  0  0  0
    4.9914   -8.9959    0.0000 C   0  0  0  0  0  0  0  0  0  0  0  0
    5.7058   -9.4084    0.0000 C   0  0  2  0  0  0  0  0  0  0  0  0
    6.4203   -8.9959    0.0000 C   0  0  1  0  0  0  0  0  0  0  0  0
    6.4203   -8.1709    0.0000 C   0  0  0  0  0  0  0  0  0  0  0  0
    7.1348   -7.7584    0.0000 C   0  0  0  0  0  0  0  0  0  0  0  0
    7.8492   -8.1709    0.0000 C   0  0  0  0  0  0  0  0  0  0  0  0
    8.5637   -7.7584    0.0000 C   0  0  2  0  0  0  0  0  0  0  0  0
    9.9676   -8.5697    0.0000 C   0  0  0  0  0  0  0  0  0  0  0  0
    9.9676   -9.3947    0.0000 O   0  0  0  0  0  0  0  0  0  0  0  0
   10.6821   -8.1572    0.0000 O   0  0  0  0  0  0  0  0  0  0  0  0
    5.7058   -8.5834    0.0000 C   0  0  0  0  0  0  0  0  0  0  0  0
    5.4039  -11.3604    0.0000 C   0  0  0  0  0  0  0  0  0  0  0  0
    4.5789  -11.3604    0.0000 C   0  0  0  0  0  0  0  0  0  0  0  0
    7.1348   -8.5834    0.0000 C   0  0  0  0  0  0  0  0  0  0  0  0
    7.8492   -9.8209    0.0000 C   0  0  0  0  0  0  0  0  0  0  0  0
    8.8657   -5.8065    0.0000 C   0  0  0  0  0  0  0  0  0  0  0  0
    9.6907   -5.8065    0.0000 C   0  0  0  0  0  0  0  0  0  0  0  0
    9.3189   -9.8897    0.0000 O   0  0  0  0  0  0  0  0  0  0  0  0
    5.7058  -11.0584    0.0000 H   0  0  0  0  0  0  0  0  0  0  0  0
    8.5637   -8.5834    0.0000 H   0  0  0  0  0  0  0  0  0  0  0  0
   11.3965   -9.3947    0.0000 O   0  0  0  0  0  0  0  0  0  0  0  0
   11.3965   -8.5697    0.0000 C   0  0  2  0  0  0  0  0  0  0  0  0
   12.1110   -8.1572    0.0000 C   0  0  1  0  0  0  0  0  0  0  0  0
   12.8255   -8.5697    0.0000 C   0  0  2  0  0  0  0  0  0  0  0  0
   12.8255   -9.3947    0.0000 C   0  0  2  0  0  0  0  0  0  0  0  0
   12.1110   -9.8072    0.0000 C   0  0  0  0  0  0  0  0  0  0  0  0
   13.5399   -9.8072    0.0000 O   0  0  0  0  0  0  0  0  0  0  0  0
   13.5399   -8.1572    0.0000 O   0  0  0  0  0  0  0  0  0  0  0  0
   12.1110   -7.3322    0.0000 O   0  0  0  0  0  0  0  0  0  0  0  0
    2.1317  -11.4679    0.0000 O   0  0  0  0  0  0  0  0  0  0  0  0
    0.7045  -10.6399    0.0000 O   0  0  0  0  0  0  0  0  0  0  0  0
    0.7080   -8.9899    0.0000 O   0  0  0  0  0  0  0  0  0  0  0  0
    1.4252   -7.7539    0.0000 O   0  0  0  0  0  0  0  0  0  0  0  0
    2.1387   -8.1679    0.0000 C   0  0  0  0  0  0  0  0  0  0  0  0
    2.1370   -8.9929    0.0000 C   0  0  2  0  0  0  0  0  0  0  0  0
    1.4216   -9.4039    0.0000 C   0  0  2  0  0  0  0  0  0  0  0  0
    1.4199  -10.2289    0.0000 C   0  0  1  0  0  0  0  0  0  0  0  0
    2.1335  -10.6429    0.0000 C   0  0  2  0  0  0  0  0  0  0  0  0
    2.8488  -10.2319    0.0000 C   0  0  1  0  0  0  0  0  0  0  0  0
    2.8506   -9.4069    0.0000 O   0  0  0  0  0  0  0  0  0  0  0  0
    3.5624  -10.6459    0.0000 O   0  0  0  0  0  0  0  0  0  0  0  0
    6.4203   -9.8209    0.0000 H   0  0  0  0  0  0  0  0  0  0  0  0
 54 56  1  1  0  0  0
 53 45  1  6  0  0  0
 52 46  1  1  0  0  0
 51 47  1  6  0  0  0
 50 49  1  1  0  0  0
 49 48  1  0  0  0  0
 55 50  1  0  0  0  0
 51 50  1  0  0  0  0
 52 51  1  0  0  0  0
 53 52  1  0  0  0  0
 54 53  1  0  0  0  0
 55 54  1  0  0  0  0
  1  2  1  0  0  0  0
  2  3  1  0  0  0  0
  3  4  1  0  0  0  0
  4  5  1  0  0  0  0
  5  6  1  0  0  0  0
  6  7  1  0  0  0  0
  7  8  1  0  0  0  0
  8  9  1  0  0  0  0
  9 10  1  0  0  0  0
 10 11  1  0  0  0  0
 11 12  1  0  0  0  0
 12 13  1  0  0  0  0
 13 14  1  0  0  0  0
 14 15  1  0  0  0  0
 15 16  1  0  0  0  0
 16 17  1  0  0  0  0
 12 17  1  0  0  0  0
 17 18  1  0  0  0  0
  9 18  1  0  0  0  0
 18 19  1  0  0  0  0
 19 20  1  0  0  0  0
 20 21  2  0  0  0  0
  8 21  1  0  0  0  0
 21 22  1  0  0  0  0
  5 22  1  0  0  0  0
  1 22  1  0  0  0  0
 23 24  2  0  0  0  0
 23 25  1  0  0  0  0
  5 23  1  1  0  0  0
 14 56  1  1  0  0  0
 17 26  1  1  0  0  0
 13 27  1  0  0  0  0
 13 28  1  0  0  0  0
  9 29  1  1  0  0  0
  8 30  1  6  0  0  0
  2 31  1  0  0  0  0
  2 32  1  0  0  0  0
  6 33  1  6  0  0  0
 12 34  1  6  0  0  0
 22 35  1  1  0  0  0
 36 37  1  0  0  0  0
 37 38  1  0  0  0  0
 38 39  1  0  0  0  0
 39 40  1  0  0  0  0
 40 41  1  0  0  0  0
 36 41  1  0  0  0  0
 40 42  1  1  0  0  0
 39 43  1  1  0  0  0
 38 44  1  6  0  0  0
 37 25  1  1  0  0  0
 18 57  1  6  0  0  0
M  END
>  <cdx:fragmentId>
4953

$$$$
