300704.cdx
  Mrv1902 05222410222D          

 49 54  0  0  0  0            999 V2000
    6.6732   -6.6378    0.0000 C   0  0  0  0  0  0  0  0  0  0  0  0
    6.6732   -5.8128    0.0000 C   0  0  0  0  0  0  0  0  0  0  0  0
    7.3876   -7.0503    0.0000 C   0  0  0  0  0  0  0  0  0  0  0  0
    8.1021   -6.6378    0.0000 C   0  0  0  0  0  0  0  0  0  0  0  0
    8.1021   -5.8128    0.0000 C   0  0  0  0  0  0  0  0  0  0  0  0
    7.3876   -5.4003    0.0000 C   0  0  0  0  0  0  0  0  0  0  0  0
    8.8166   -5.4003    0.0000 O   0  0  0  0  0  0  0  0  0  0  0  0
    8.8166   -4.5753    0.0000 C   0  0  0  0  0  0  0  0  0  0  0  0
    8.8166   -7.0503    0.0000 O   0  0  0  0  0  0  0  0  0  0  0  0
    8.8391   -7.9052    0.0000 C   0  0  1  0  0  0  0  0  0  0  0  0
    8.1246   -8.3177    0.0000 C   0  0  1  0  0  0  0  0  0  0  0  0
    8.1246   -9.1427    0.0000 C   0  0  1  0  0  0  0  0  0  0  0  0
    8.8391   -9.5552    0.0000 C   0  0  1  0  0  0  0  0  0  0  0  0
    9.5536   -9.1427    0.0000 C   0  0  0  0  0  0  0  0  0  0  0  0
    9.5536   -8.3177    0.0000 C   0  0  0  0  0  0  0  0  0  0  0  0
   10.2680   -9.5552    0.0000 C   0  0  0  0  0  0  0  0  0  0  0  0
   10.9825   -9.1427    0.0000 C   0  0  0  0  0  0  0  0  0  0  0  0
   10.9825   -8.3177    0.0000 C   0  0  0  0  0  0  0  0  0  0  0  0
   10.2680   -7.9052    0.0000 O   0  0  0  0  0  0  0  0  0  0  0  0
   10.2680  -10.3802    0.0000 O   0  0  0  0  0  0  0  0  0  0  0  0
    7.4102   -7.9052    0.0000 O   0  0  0  0  0  0  0  0  0  0  0  0
    7.4102   -9.5552    0.0000 O   0  0  0  0  0  0  0  0  0  0  0  0
    8.8391  -10.3802    0.0000 O   0  0  0  0  0  0  0  0  0  0  0  0
   11.6970   -7.9052    0.0000 C   0  0  0  0  0  0  0  0  0  0  0  0
   12.4115   -8.3177    0.0000 C   0  0  0  0  0  0  0  0  0  0  0  0
   13.1259   -7.9052    0.0000 C   0  0  0  0  0  0  0  0  0  0  0  0
   13.8404   -8.3177    0.0000 C   0  0  0  0  0  0  0  0  0  0  0  0
   14.5549   -7.9052    0.0000 C   0  0  0  0  0  0  0  0  0  0  0  0
   14.5549   -7.0802    0.0000 C   0  0  0  0  0  0  0  0  0  0  0  0
   13.8404   -6.6677    0.0000 C   0  0  0  0  0  0  0  0  0  0  0  0
   13.1259   -7.0802    0.0000 C   0  0  0  0  0  0  0  0  0  0  0  0
   15.2693   -6.6677    0.0000 O   0  0  0  0  0  0  0  0  0  0  0  0
    5.9587   -5.4003    0.0000 O   0  0  0  0  0  0  0  0  0  0  0  0
    5.2442   -5.8128    0.0000 C   0  0  0  0  0  0  0  0  0  0  0  0
    5.2442   -6.6378    0.0000 C   0  0  0  0  0  0  0  0  0  0  0  0
    5.9587   -7.0503    0.0000 C   0  0  0  0  0  0  0  0  0  0  0  0
    5.9587   -7.8753    0.0000 O   0  0  0  0  0  0  0  0  0  0  0  0
    4.5297   -5.4003    0.0000 C   0  0  0  0  0  0  0  0  0  0  0  0
    3.8153   -5.8128    0.0000 C   0  0  0  0  0  0  0  0  0  0  0  0
    3.1008   -5.4003    0.0000 C   0  0  0  0  0  0  0  0  0  0  0  0
    3.1008   -4.5753    0.0000 C   0  0  0  0  0  0  0  0  0  0  0  0
    2.3863   -4.1628    0.0000 C   0  0  0  0  0  0  0  0  0  0  0  0
    1.6719   -4.5753    0.0000 C   0  0  0  0  0  0  0  0  0  0  0  0
    1.6719   -5.4003    0.0000 C   0  0  0  0  0  0  0  0  0  0  0  0
    2.3863   -5.8128    0.0000 C   0  0  0  0  0  0  0  0  0  0  0  0
    0.9574   -5.8128    0.0000 O   0  0  0  0  0  0  0  0  0  0  0  0
    0.9574   -4.1628    0.0000 O   0  0  0  0  0  0  0  0  0  0  0  0
    0.9574   -3.3378    0.0000 C   0  0  0  0  0  0  0  0  0  0  0  0
   15.9838   -7.0802    0.0000 C   0  0  0  0  0  0  0  0  0  0  0  0
  1  2  2  0  0  0  0
  1  3  1  0  0  0  0
  3  4  2  0  0  0  0
  4  5  1  0  0  0  0
  5  6  2  0  0  0  0
  6  2  1  0  0  0  0
  5  7  1  0  0  0  0
  7  8  1  0  0  0  0
  4  9  1  0  0  0  0
 10  9  1  6  0  0  0
 10 11  1  0  0  0  0
 11 12  1  0  0  0  0
 12 13  1  0  0  0  0
 13 14  1  0  0  0  0
 14 15  2  0  0  0  0
 15 10  1  0  0  0  0
 14 16  1  0  0  0  0
 16 17  1  0  0  0  0
 17 18  2  0  0  0  0
 18 19  1  0  0  0  0
 19 15  1  0  0  0  0
 16 20  2  0  0  0  0
 11 21  1  1  0  0  0
 12 22  1  1  0  0  0
 13 23  1  1  0  0  0
 18 24  1  0  0  0  0
 24 25  1  0  0  0  0
 25 26  1  0  0  0  0
 26 27  2  0  0  0  0
 27 28  1  0  0  0  0
 28 29  2  0  0  0  0
 29 30  1  0  0  0  0
 30 31  2  0  0  0  0
 31 26  1  0  0  0  0
 29 32  1  0  0  0  0
  2 33  1  0  0  0  0
 33 34  1  0  0  0  0
 34 35  2  0  0  0  0
 35 36  1  0  0  0  0
 36  1  1  0  0  0  0
 36 37  2  0  0  0  0
 34 38  1  0  0  0  0
 38 39  1  0  0  0  0
 39 40  1  0  0  0  0
 40 41  2  0  0  0  0
 41 42  1  0  0  0  0
 42 43  2  0  0  0  0
 43 44  1  0  0  0  0
 44 45  2  0  0  0  0
 45 40  1  0  0  0  0
 44 46  1  0  0  0  0
 43 47  1  0  0  0  0
 47 48  1  0  0  0  0
 32 49  1  0  0  0  0
M  END
>  <cdx:fragmentId>
1035

$$$$
