300701.cdx
  Mrv1902 05222410202D          

 15 16  0  0  0  0            999 V2000
    9.3971   -6.7059    0.0000 C   0  0  0  0  0  0  0  0  0  0  0  0
    9.3971   -5.8809    0.0000 C   0  0  0  0  0  0  0  0  0  0  0  0
    8.6827   -5.4684    0.0000 C   0  0  0  0  0  0  0  0  0  0  0  0
    7.9682   -5.8809    0.0000 C   0  0  0  0  0  0  0  0  0  0  0  0
    7.2537   -5.4684    0.0000 C   0  0  0  0  0  0  0  0  0  0  0  0
    6.5393   -5.8809    0.0000 C   0  0  0  0  0  0  0  0  0  0  0  0
    6.5393   -6.7059    0.0000 C   0  0  0  0  0  0  0  0  0  0  0  0
    7.2537   -7.1184    0.0000 C   0  0  0  0  0  0  0  0  0  0  0  0
    7.9682   -6.7059    0.0000 C   0  0  0  0  0  0  0  0  0  0  0  0
    8.6827   -7.1184    0.0000 O   0  0  0  0  0  0  0  0  0  0  0  0
    5.8248   -5.4684    0.0000 C   0  0  0  0  0  0  0  0  0  0  0  0
    5.8248   -4.6434    0.0000 O   0  0  0  0  0  0  0  0  0  0  0  0
    5.1103   -5.8809    0.0000 O   0  0  0  0  0  0  0  0  0  0  0  0
    9.8096   -7.4204    0.0000 C   0  0  0  0  0  0  0  0  0  0  0  0
   10.2221   -6.7059    0.0000 C   0  0  0  0  0  0  0  0  0  0  0  0
  1  2  1  0  0  0  0
  2  3  2  0  0  0  0
  3  4  1  0  0  0  0
  4  5  1  0  0  0  0
  5  6  2  0  0  0  0
  6  7  1  0  0  0  0
  7  8  2  0  0  0  0
  8  9  1  0  0  0  0
  4  9  2  0  0  0  0
  9 10  1  0  0  0  0
  1 10  1  0  0  0  0
 11 12  2  0  0  0  0
 11 13  1  0  0  0  0
  6 11  1  0  0  0  0
  1 14  1  0  0  0  0
  1 15  1  0  0  0  0
M  END
>  <cdx:fragmentId>
1118

$$$$
