300741.cdx
  Mrv1902 05222410272D          

 84 92  0  0  0  0            999 V2000
   12.9375   -8.7784    0.0000 C   0  0  0  0  0  0  0  0  0  0  0  0
   13.6520   -8.3659    0.0000 C   0  0  0  0  0  0  0  0  0  0  0  0
   14.3664   -8.7784    0.0000 C   0  0  0  0  0  0  0  0  0  0  0  0
   14.3664   -9.6034    0.0000 C   0  0  0  0  0  0  0  0  0  0  0  0
   13.6520  -10.0159    0.0000 C   0  0  2  0  0  0  0  0  0  0  0  0
   13.6520  -10.8409    0.0000 C   0  0  0  0  0  0  0  0  0  0  0  0
   12.9375  -11.2534    0.0000 C   0  0  0  0  0  0  0  0  0  0  0  0
   12.2230  -10.8409    0.0000 C   0  0  1  0  0  0  0  0  0  0  0  0
   11.5085  -11.2534    0.0000 C   0  0  2  0  0  0  0  0  0  0  0  0
   11.5085  -12.0784    0.0000 C   0  0  0  0  0  0  0  0  0  0  0  0
   10.7941  -12.4909    0.0000 C   0  0  0  0  0  0  0  0  0  0  0  0
   10.0796  -12.0784    0.0000 C   0  0  1  0  0  0  0  0  0  0  0  0
    9.3651  -12.4909    0.0000 C   0  0  1  0  0  0  0  0  0  0  0  0
    8.6507  -12.0784    0.0000 C   0  0  2  0  0  0  0  0  0  0  0  0
    8.6507  -11.2534    0.0000 C   0  0  2  0  0  0  0  0  0  0  0  0
    9.3651  -10.8409    0.0000 C   0  0  0  0  0  0  0  0  0  0  0  0
   10.0796  -11.2534    0.0000 C   0  0  2  0  0  0  0  0  0  0  0  0
   10.7941  -10.8409    0.0000 C   0  0  1  0  0  0  0  0  0  0  0  0
   10.7941  -10.0159    0.0000 C   0  0  0  0  0  0  0  0  0  0  0  0
   11.5085   -9.6034    0.0000 C   0  0  0  0  0  0  0  0  0  0  0  0
   12.2230  -10.0159    0.0000 C   0  0  0  0  0  0  0  0  0  0  0  0
   12.9375   -9.6034    0.0000 C   0  0  2  0  0  0  0  0  0  0  0  0
   14.3664  -10.4284    0.0000 C   0  0  0  0  0  0  0  0  0  0  0  0
   14.3664  -11.2534    0.0000 O   0  0  0  0  0  0  0  0  0  0  0  0
   15.0809  -10.0159    0.0000 O   0  0  0  0  0  0  0  0  0  0  0  0
    7.9362  -12.4909    0.0000 O   0  0  0  0  0  0  0  0  0  0  0  0
    7.2217  -11.2534    0.0000 O   0  0  0  0  0  0  0  0  0  0  0  0
    7.2217  -12.0784    0.0000 C   0  0  2  0  0  0  0  0  0  0  0  0
    6.5072  -12.4909    0.0000 C   0  0  1  0  0  0  0  0  0  0  0  0
    5.7928  -12.0784    0.0000 C   0  0  2  0  0  0  0  0  0  0  0  0
    5.7928  -11.2534    0.0000 C   0  0  1  0  0  0  0  0  0  0  0  0
    6.5072  -10.8409    0.0000 C   0  0  1  0  0  0  0  0  0  0  0  0
    6.5072  -10.0159    0.0000 C   0  0  0  0  0  0  0  0  0  0  0  0
    5.7928   -9.6034    0.0000 O   0  0  0  0  0  0  0  0  0  0  0  0
    5.0783  -10.8409    0.0000 O   0  0  0  0  0  0  0  0  0  0  0  0
    5.0783  -12.4909    0.0000 O   0  0  0  0  0  0  0  0  0  0  0  0
    6.5072  -13.3159    0.0000 O   0  0  0  0  0  0  0  0  0  0  0  0
   10.0796  -10.4284    0.0000 C   0  0  0  0  0  0  0  0  0  0  0  0
   11.5085  -10.4284    0.0000 C   0  0  0  0  0  0  0  0  0  0  0  0
   12.2230  -11.6659    0.0000 C   0  0  0  0  0  0  0  0  0  0  0  0
   13.2395   -7.6515    0.0000 C   0  0  0  0  0  0  0  0  0  0  0  0
   14.0645   -7.6515    0.0000 C   0  0  0  0  0  0  0  0  0  0  0  0
    7.9362  -10.8409    0.0000 O   0  0  0  0  0  0  0  0  0  0  0  0
    9.3659  -13.9348    0.0000 O   0  0  0  0  0  0  0  0  0  0  0  0
    9.3659  -14.7598    0.0000 C   0  0  0  0  0  0  0  0  0  0  0  0
   10.0804  -15.1723    0.0000 O   0  0  0  0  0  0  0  0  0  0  0  0
    8.6514  -15.1723    0.0000 C   0  0  0  0  0  0  0  0  0  0  0  0
   10.0796  -12.9034    0.0000 H   0  0  0  0  0  0  0  0  0  0  0  0
   12.9375  -10.4284    0.0000 H   0  0  0  0  0  0  0  0  0  0  0  0
   15.7954  -11.2534    0.0000 O   0  0  0  0  0  0  0  0  0  0  0  0
   15.7954  -10.4284    0.0000 C   0  0  2  0  0  0  0  0  0  0  0  0
   16.5098  -10.0159    0.0000 C   0  0  1  0  0  0  0  0  0  0  0  0
   17.2243  -10.4284    0.0000 C   0  0  2  0  0  0  0  0  0  0  0  0
   17.2243  -11.2534    0.0000 C   0  0  1  0  0  0  0  0  0  0  0  0
   16.5098  -11.6659    0.0000 C   0  0  1  0  0  0  0  0  0  0  0  0
   16.5098   -9.1909    0.0000 O   0  0  0  0  0  0  0  0  0  0  0  0
   17.9388   -9.1909    0.0000 O   0  0  0  0  0  0  0  0  0  0  0  0
   17.2243   -8.7784    0.0000 C   0  0  2  0  0  0  0  0  0  0  0  0
   17.2243   -7.9534    0.0000 C   0  0  1  0  0  0  0  0  0  0  0  0
   17.9388   -7.5409    0.0000 C   0  0  1  0  0  0  0  0  0  0  0  0
   18.6533   -7.9534    0.0000 C   0  0  2  0  0  0  0  0  0  0  0  0
   18.6533   -8.7784    0.0000 C   0  0  2  0  0  0  0  0  0  0  0  0
   19.3677   -9.1909    0.0000 C   0  0  0  0  0  0  0  0  0  0  0  0
   19.3677   -7.5409    0.0000 O   0  0  0  0  0  0  0  0  0  0  0  0
   17.9388   -6.7159    0.0000 O   0  0  0  0  0  0  0  0  0  0  0  0
   16.5098   -7.5409    0.0000 O   0  0  0  0  0  0  0  0  0  0  0  0
   16.5098  -12.4909    0.0000 C   0  0  0  0  0  0  0  0  0  0  0  0
   17.2243  -12.9034    0.0000 O   0  0  0  0  0  0  0  0  0  0  0  0
   16.5098  -14.1409    0.0000 O   0  0  0  0  0  0  0  0  0  0  0  0
   17.2243  -13.7284    0.0000 C   0  0  2  0  0  0  0  0  0  0  0  0
   17.9388  -14.1409    0.0000 C   0  0  1  0  0  0  0  0  0  0  0  0
   17.9388  -14.9659    0.0000 C   0  0  2  0  0  0  0  0  0  0  0  0
   17.2243  -15.3784    0.0000 C   0  0  1  0  0  0  0  0  0  0  0  0
   16.5098  -14.9659    0.0000 C   0  0  1  0  0  0  0  0  0  0  0  0
   15.7954  -15.3784    0.0000 C   0  0  0  0  0  0  0  0  0  0  0  0
   15.0809  -14.9659    0.0000 O   0  0  0  0  0  0  0  0  0  0  0  0
   17.2243  -16.2034    0.0000 O   0  0  0  0  0  0  0  0  0  0  0  0
   18.6533  -15.3784    0.0000 O   0  0  0  0  0  0  0  0  0  0  0  0
   18.6533  -13.7284    0.0000 O   0  0  0  0  0  0  0  0  0  0  0  0
   17.9388  -11.6659    0.0000 O   0  0  0  0  0  0  0  0  0  0  0  0
   17.9388  -10.0159    0.0000 O   0  0  0  0  0  0  0  0  0  0  0  0
    9.7776  -13.2054    0.0000 C   0  0  0  0  0  0  0  0  0  0  0  0
    8.9526  -13.2054    0.0000 C   0  0  0  0  0  0  0  0  0  0  0  0
   10.7941  -11.6659    0.0000 H   0  0  0  0  0  0  0  0  0  0  0  0
  1  2  1  0  0  0  0
  2  3  1  0  0  0  0
  3  4  1  0  0  0  0
  4  5  1  0  0  0  0
  5  6  1  0  0  0  0
  6  7  1  0  0  0  0
  7  8  1  0  0  0  0
  8  9  1  0  0  0  0
  9 10  1  0  0  0  0
 10 11  1  0  0  0  0
 11 12  1  0  0  0  0
 12 13  1  0  0  0  0
 13 14  1  0  0  0  0
 14 15  1  0  0  0  0
 15 16  1  0  0  0  0
 16 17  1  0  0  0  0
 12 17  1  0  0  0  0
 17 18  1  0  0  0  0
  9 18  1  0  0  0  0
 18 19  1  0  0  0  0
 19 20  1  0  0  0  0
 20 21  2  0  0  0  0
  8 21  1  0  0  0  0
 21 22  1  0  0  0  0
  5 22  1  0  0  0  0
  1 22  1  0  0  0  0
 23 24  2  0  0  0  0
 23 25  1  0  0  0  0
  5 23  1  1  0  0  0
 27 28  1  0  0  0  0
 28 29  1  0  0  0  0
 29 30  1  0  0  0  0
 30 31  1  0  0  0  0
 31 32  1  0  0  0  0
 27 32  1  0  0  0  0
 33 34  1  0  0  0  0
 32 33  1  1  0  0  0
 31 35  1  6  0  0  0
 30 36  1  1  0  0  0
 29 37  1  6  0  0  0
 28 26  1  1  0  0  0
 14 26  1  1  0  0  0
 17 38  1  1  0  0  0
  9 39  1  1  0  0  0
  8 40  1  6  0  0  0
  2 41  1  0  0  0  0
  2 42  1  0  0  0  0
 15 43  1  1  0  0  0
 45 46  2  0  0  0  0
 45 47  1  0  0  0  0
 44 45  1  0  0  0  0
 12 48  1  6  0  0  0
 22 49  1  1  0  0  0
 50 51  1  0  0  0  0
 51 52  1  0  0  0  0
 52 53  1  0  0  0  0
 53 54  1  0  0  0  0
 54 55  1  0  0  0  0
 50 55  1  0  0  0  0
 57 58  1  0  0  0  0
 58 59  1  0  0  0  0
 59 60  1  0  0  0  0
 60 61  1  0  0  0  0
 61 62  1  0  0  0  0
 57 62  1  0  0  0  0
 62 63  1  6  0  0  0
 61 64  1  1  0  0  0
 60 65  1  6  0  0  0
 59 66  1  6  0  0  0
 58 56  1  1  0  0  0
 52 56  1  6  0  0  0
 69 70  1  0  0  0  0
 70 71  1  0  0  0  0
 71 72  1  0  0  0  0
 72 73  1  0  0  0  0
 73 74  1  0  0  0  0
 69 74  1  0  0  0  0
 75 76  1  0  0  0  0
 74 75  1  1  0  0  0
 73 77  1  6  0  0  0
 72 78  1  1  0  0  0
 71 79  1  6  0  0  0
 70 68  1  1  0  0  0
 67 68  1  0  0  0  0
 55 67  1  1  0  0  0
 54 80  1  6  0  0  0
 53 81  1  1  0  0  0
 51 25  1  1  0  0  0
 13 82  1  6  0  0  0
 13 83  1  1  0  0  0
 82 44  1  0  0  0  0
 18 84  1  6  0  0  0
M  END
>  <cdx:fragmentId>
4682

$$$$
