300767.cdx
  Mrv1902 05222410202D          

 14 16  0  0  0  0            999 V2000
    9.3275   -8.7250    0.0000 O   0  0  0  0  0  0  0  0  0  0  0  0
    5.4776   -6.1818    0.0000 C   0  0  0  0  0  0  0  0  0  0  0  0
    5.1420   -6.9355    0.0000 C   0  0  0  0  0  0  0  0  0  0  0  0
    6.2981   -6.2681    0.0000 O   0  0  0  0  0  0  0  0  0  0  0  0
    7.8986   -8.7250    0.0000 O   0  0  0  0  0  0  0  0  0  0  0  0
    7.1841   -8.3125    0.0000 C   0  0  0  0  0  0  0  0  0  0  0  0
    6.4696   -8.7250    0.0000 C   0  0  0  0  0  0  0  0  0  0  0  0
    5.7551   -8.3125    0.0000 C   0  0  0  0  0  0  0  0  0  0  0  0
    5.7551   -7.4875    0.0000 C   0  0  0  0  0  0  0  0  0  0  0  0
    6.4696   -7.0750    0.0000 C   0  0  0  0  0  0  0  0  0  0  0  0
    7.1841   -7.4875    0.0000 C   0  0  0  0  0  0  0  0  0  0  0  0
    7.8986   -7.0750    0.0000 C   0  0  0  0  0  0  0  0  0  0  0  0
    8.6130   -7.4875    0.0000 C   0  0  0  0  0  0  0  0  0  0  0  0
    8.6130   -8.3125    0.0000 C   0  0  0  0  0  0  0  0  0  0  0  0
 14  1  2  0  0  0  0
  9  3  1  0  0  0  0
 10  4  1  0  0  0  0
  4  2  1  0  0  0  0
  3  2  2  0  0  0  0
 14  5  1  0  0  0  0
  6  5  1  0  0  0  0
 11  6  2  0  0  0  0
  7  6  1  0  0  0  0
  8  7  2  0  0  0  0
  9  8  1  0  0  0  0
 10  9  2  0  0  0  0
 11 10  1  0  0  0  0
 12 11  1  0  0  0  0
 13 12  2  0  0  0  0
 14 13  1  0  0  0  0
M  END
>  <cdx:fragmentId>
382

$$$$
