300705.cdx
  Mrv1902 05222410232D          

 42 47  0  0  0  0            999 V2000
    6.3870   -4.3657    0.0000 C   0  0  0  0  0  0  0  0  0  0  0  0
    6.3870   -5.1907    0.0000 C   0  0  0  0  0  0  0  0  0  0  0  0
    7.1015   -5.6032    0.0000 C   0  0  0  0  0  0  0  0  0  0  0  0
    7.8160   -5.1907    0.0000 C   0  0  0  0  0  0  0  0  0  0  0  0
    7.8160   -4.3657    0.0000 C   0  0  0  0  0  0  0  0  0  0  0  0
    7.1015   -3.9532    0.0000 C   0  0  0  0  0  0  0  0  0  0  0  0
    8.5304   -5.6032    0.0000 C   0  0  0  0  0  0  0  0  0  0  0  0
    9.2449   -5.1907    0.0000 C   0  0  0  0  0  0  0  0  0  0  0  0
    9.2449   -4.3657    0.0000 C   0  0  0  0  0  0  0  0  0  0  0  0
    8.5304   -3.9532    0.0000 O   0  0  0  0  0  0  0  0  0  0  0  0
    8.5304   -6.4282    0.0000 O   0  0  0  0  0  0  0  0  0  0  0  0
    9.9594   -3.9532    0.0000 C   0  0  0  0  0  0  0  0  0  0  0  0
   10.6738   -4.3657    0.0000 C   0  0  0  0  0  0  0  0  0  0  0  0
   11.3883   -3.9532    0.0000 C   0  0  0  0  0  0  0  0  0  0  0  0
   12.1028   -4.3657    0.0000 C   0  0  0  0  0  0  0  0  0  0  0  0
   12.8173   -3.9532    0.0000 C   0  0  0  0  0  0  0  0  0  0  0  0
   12.8173   -3.1282    0.0000 C   0  0  0  0  0  0  0  0  0  0  0  0
   12.1028   -2.7157    0.0000 C   0  0  0  0  0  0  0  0  0  0  0  0
   11.3883   -3.1282    0.0000 C   0  0  0  0  0  0  0  0  0  0  0  0
    5.6725   -5.6032    0.0000 O   0  0  0  0  0  0  0  0  0  0  0  0
    7.1015   -7.2532    0.0000 C   0  0  0  0  0  0  0  0  0  0  0  0
    6.3870   -7.6657    0.0000 C   0  0  0  0  0  0  0  0  0  0  0  0
    6.3870   -8.4907    0.0000 C   0  0  0  0  0  0  0  0  0  0  0  0
    7.1015   -8.9032    0.0000 C   0  0  0  0  0  0  0  0  0  0  0  0
    7.8160   -8.4907    0.0000 C   0  0  0  0  0  0  0  0  0  0  0  0
    7.8160   -7.6657    0.0000 C   0  0  0  0  0  0  0  0  0  0  0  0
    7.1015   -9.7282    0.0000 O   0  0  0  0  0  0  0  0  0  0  0  0
    5.6725   -7.2532    0.0000 C   0  0  0  0  0  0  0  0  0  0  0  0
    4.9581   -7.6657    0.0000 C   0  0  0  0  0  0  0  0  0  0  0  0
    4.9581   -8.4907    0.0000 C   0  0  0  0  0  0  0  0  0  0  0  0
    5.6725   -8.9032    0.0000 O   0  0  0  0  0  0  0  0  0  0  0  0
    5.6725   -6.4282    0.0000 O   0  0  0  0  0  0  0  0  0  0  0  0
    4.2436   -8.9032    0.0000 C   0  0  0  0  0  0  0  0  0  0  0  0
    3.5291   -8.4907    0.0000 C   0  0  0  0  0  0  0  0  0  0  0  0
    2.8147   -8.9032    0.0000 C   0  0  0  0  0  0  0  0  0  0  0  0
    2.1002   -8.4907    0.0000 C   0  0  0  0  0  0  0  0  0  0  0  0
    1.3857   -8.9032    0.0000 C   0  0  0  0  0  0  0  0  0  0  0  0
    1.3857   -9.7282    0.0000 C   0  0  0  0  0  0  0  0  0  0  0  0
    2.1002  -10.1407    0.0000 C   0  0  0  0  0  0  0  0  0  0  0  0
    2.8147   -9.7282    0.0000 C   0  0  0  0  0  0  0  0  0  0  0  0
    0.6712  -10.1407    0.0000 O   0  0  0  0  0  0  0  0  0  0  0  0
    0.6712  -10.9657    0.0000 C   0  0  0  0  0  0  0  0  0  0  0  0
  1  2  2  0  0  0  0
  2  3  1  0  0  0  0
  3  4  2  0  0  0  0
  4  5  1  0  0  0  0
  5  6  2  0  0  0  0
  6  1  1  0  0  0  0
  4  7  1  0  0  0  0
  7  8  1  0  0  0  0
  8  9  2  0  0  0  0
  9 10  1  0  0  0  0
 10  5  1  0  0  0  0
  7 11  2  0  0  0  0
  9 12  1  0  0  0  0
 12 13  1  0  0  0  0
 13 14  1  0  0  0  0
 14 15  2  0  0  0  0
 15 16  1  0  0  0  0
 16 17  2  0  0  0  0
 17 18  1  0  0  0  0
 18 19  2  0  0  0  0
 19 14  1  0  0  0  0
  2 20  1  0  0  0  0
 21 22  2  0  0  0  0
 22 23  1  0  0  0  0
 23 24  2  0  0  0  0
 24 25  1  0  0  0  0
 25 26  2  0  0  0  0
 26 21  1  0  0  0  0
 24 27  1  0  0  0  0
 22 28  1  0  0  0  0
 28 29  1  0  0  0  0
 29 30  2  0  0  0  0
 30 31  1  0  0  0  0
 31 23  1  0  0  0  0
 28 32  2  0  0  0  0
 30 33  1  0  0  0  0
 33 34  1  0  0  0  0
 34 35  1  0  0  0  0
 35 36  2  0  0  0  0
 36 37  1  0  0  0  0
 37 38  2  0  0  0  0
 38 39  1  0  0  0  0
 39 40  2  0  0  0  0
 40 35  1  0  0  0  0
 38 41  1  0  0  0  0
 41 42  1  0  0  0  0
  3 21  1  0  0  0  0
M  END
>  <cdx:fragmentId>
1092

$$$$
