300718.cdx
  Mrv1902 05222410252D          

 17 18  0  0  0  0            999 V2000
    9.7828   -7.6207    0.0000 C   0  0  0  0  0  0  0  0  0  0  0  0
   10.3860   -7.0578    0.0000 C   0  0  0  0  0  0  0  0  0  0  0  0
    9.9687   -8.4245    0.0000 O   0  0  0  0  0  0  0  0  0  0  0  0
   11.1750   -7.2987    0.0000 O   0  0  0  0  0  0  0  0  0  0  0  0
    8.9938   -7.3798    0.0000 C   0  0  0  0  0  0  0  0  0  0  0  0
    8.7249   -6.5998    0.0000 C   0  0  0  0  0  0  0  0  0  0  0  0
    7.9000   -6.6146    0.0000 C   0  0  0  0  0  0  0  0  0  0  0  0
    7.6591   -7.4036    0.0000 C   0  0  0  0  0  0  0  0  0  0  0  0
    8.3351   -7.8766    0.0000 S   0  0  0  0  0  0  0  0  0  0  0  0
    6.8792   -7.6725    0.0000 C   0  0  0  0  0  0  0  0  0  0  0  0
    6.6383   -8.4616    0.0000 C   0  0  0  0  0  0  0  0  0  0  0  0
    5.8134   -8.4763    0.0000 C   0  0  0  0  0  0  0  0  0  0  0  0
    5.5445   -7.6964    0.0000 C   0  0  0  0  0  0  0  0  0  0  0  0
    6.2032   -7.1996    0.0000 S   0  0  0  0  0  0  0  0  0  0  0  0
    4.7554   -7.4555    0.0000 C   0  0  0  0  0  0  0  0  0  0  0  0
    3.9664   -7.2146    0.0000 C   0  0  0  0  0  0  0  0  0  0  0  0
    3.1773   -6.9737    0.0000 C   0  0  0  0  0  0  0  0  0  0  0  0
  1  2  1  0  0  0  0
  1  3  1  0  0  0  0
  2  4  1  0  0  0  0
  5  6  2  0  0  0  0
  6  7  1  0  0  0  0
  7  8  2  0  0  0  0
  8  9  1  0  0  0  0
  5  9  1  0  0  0  0
 10 11  2  0  0  0  0
 11 12  1  0  0  0  0
 12 13  2  0  0  0  0
 13 14  1  0  0  0  0
 10 14  1  0  0  0  0
 15 16  3  0  0  0  0
 16 17  1  0  0  0  0
 13 15  1  0  0  0  0
  8 10  1  0  0  0  0
  1  5  1  0  0  0  0
M  END
>  <cdx:fragmentId>
2319

$$$$
