30077.cdx
  Mrv1902 05222410262D          

 14 13  0  0  0  0            999 V2000
    3.4488   -7.4789    0.0000 C   0  0  0  0  0  0  0  0  0  0  0  0
    4.1632   -7.8914    0.0000 C   0  0  0  0  0  0  0  0  0  0  0  0
    4.8777   -7.4789    0.0000 O   0  0  0  0  0  0  0  0  0  0  0  0
    5.5922   -7.8914    0.0000 C   0  0  0  0  0  0  0  0  0  0  0  0
    6.3067   -7.4789    0.0000 C   0  0  0  0  0  0  0  0  0  0  0  0
    7.0211   -7.8914    0.0000 C   0  0  0  0  0  0  0  0  0  0  0  0
    7.7356   -7.4789    0.0000 C   0  0  0  0  0  0  0  0  0  0  0  0
    8.4501   -7.8914    0.0000 C   0  0  0  0  0  0  0  0  0  0  0  0
    9.1645   -7.4789    0.0000 C   0  0  0  0  0  0  0  0  0  0  0  0
    9.8790   -7.8914    0.0000 C   0  0  0  0  0  0  0  0  0  0  0  0
   10.5935   -7.4789    0.0000 C   0  0  0  0  0  0  0  0  0  0  0  0
    4.1632   -8.7164    0.0000 O   0  0  0  0  0  0  0  0  0  0  0  0
    7.0211   -8.7164    0.0000 C   0  0  0  0  0  0  0  0  0  0  0  0
    9.8790   -8.7164    0.0000 C   0  0  0  0  0  0  0  0  0  0  0  0
  1  2  1  0  0  0  0
  2  3  1  0  0  0  0
  3  4  1  0  0  0  0
  4  5  1  0  0  0  0
  5  6  2  0  0  0  0
  6  7  1  0  0  0  0
  7  8  1  0  0  0  0
  8  9  1  0  0  0  0
  9 10  2  0  0  0  0
 10 11  1  0  0  0  0
  2 12  2  0  0  0  0
  6 13  1  0  0  0  0
 10 14  1  0  0  0  0
M  END
>  <cdx:fragmentId>
3

$$$$
