300758.cdx
  Mrv1902 05222410192D          

 25 27  0  0  0  0            999 V2000
    6.6504  -13.5596    0.0000 C   0  0  0  0  0  0  0  0  0  0  0  0
    6.6504  -14.3846    0.0000 C   0  0  0  0  0  0  0  0  0  0  0  0
    5.9360  -14.7971    0.0000 C   0  0  0  0  0  0  0  0  0  0  0  0
    5.2215  -14.3846    0.0000 C   0  0  0  0  0  0  0  0  0  0  0  0
    4.5070  -14.7971    0.0000 C   0  0  0  0  0  0  0  0  0  0  0  0
    3.7925  -14.3846    0.0000 C   0  0  0  0  0  0  0  0  0  0  0  0
    3.7925  -13.5596    0.0000 C   0  0  0  0  0  0  0  0  0  0  0  0
    4.5070  -13.1471    0.0000 C   0  0  0  0  0  0  0  0  0  0  0  0
    5.2215  -13.5596    0.0000 C   0  0  0  0  0  0  0  0  0  0  0  0
    5.9360  -13.1471    0.0000 O   0  0  0  0  0  0  0  0  0  0  0  0
    5.9360  -15.6221    0.0000 O   0  0  0  0  0  0  0  0  0  0  0  0
    3.0781  -14.7971    0.0000 O   0  0  0  0  0  0  0  0  0  0  0  0
    2.3636  -14.3846    0.0000 C   0  0  0  0  0  0  0  0  0  0  0  0
    7.3649  -14.7971    0.0000 O   0  0  0  0  0  0  0  0  0  0  0  0
    8.0794  -14.3846    0.0000 C   0  0  0  0  0  0  0  0  0  0  0  0
    3.0781  -13.1471    0.0000 O   0  0  0  0  0  0  0  0  0  0  0  0
    4.5070  -15.6221    0.0000 O   0  0  0  0  0  0  0  0  0  0  0  0
    7.3649  -13.1471    0.0000 C   0  0  0  0  0  0  0  0  0  0  0  0
    8.0794  -13.5596    0.0000 C   0  0  0  0  0  0  0  0  0  0  0  0
    8.7938  -13.1471    0.0000 C   0  0  0  0  0  0  0  0  0  0  0  0
    8.7938  -12.3221    0.0000 C   0  0  0  0  0  0  0  0  0  0  0  0
    8.0794  -11.9096    0.0000 C   0  0  0  0  0  0  0  0  0  0  0  0
    7.3649  -12.3221    0.0000 C   0  0  0  0  0  0  0  0  0  0  0  0
    9.5083  -11.9096    0.0000 O   0  0  0  0  0  0  0  0  0  0  0  0
    9.5083  -13.5596    0.0000 O   0  0  0  0  0  0  0  0  0  0  0  0
  1  2  2  0  0  0  0
  2  3  1  0  0  0  0
  3  4  1  0  0  0  0
  4  5  1  0  0  0  0
  5  6  2  0  0  0  0
  6  7  1  0  0  0  0
  7  8  2  0  0  0  0
  8  9  1  0  0  0  0
  4  9  2  0  0  0  0
  9 10  1  0  0  0  0
  1 10  1  0  0  0  0
  3 11  2  0  0  0  0
 12 13  1  0  0  0  0
  6 12  1  0  0  0  0
 14 15  1  0  0  0  0
  2 14  1  0  0  0  0
  7 16  1  0  0  0  0
  5 17  1  0  0  0  0
 18 19  1  0  0  0  0
 19 20  2  0  0  0  0
 20 21  1  0  0  0  0
 21 22  2  0  0  0  0
 22 23  1  0  0  0  0
 18 23  2  0  0  0  0
 21 24  1  0  0  0  0
 20 25  1  0  0  0  0
  1 18  1  0  0  0  0
M  END
>  <cdx:fragmentId>
7134

$$$$
