300757.cdx
  Mrv1902 05222410262D          

 22 23  0  0  0  0            999 V2000
    3.4198   -9.0496    0.0000 O   0  0  0  0  0  0  0  0  0  0  0  0
   11.2790   -6.1621    0.0000 O   0  0  0  0  0  0  0  0  0  0  0  0
    9.1356   -6.5746    0.0000 C   0  0  0  0  0  0  0  0  0  0  0  0
    9.8500   -6.1621    0.0000 C   0  0  0  0  0  0  0  0  0  0  0  0
   10.5645   -6.5746    0.0000 C   0  0  0  0  0  0  0  0  0  0  0  0
   10.5645   -7.3996    0.0000 C   0  0  0  0  0  0  0  0  0  0  0  0
    9.8500   -7.8121    0.0000 C   0  0  0  0  0  0  0  0  0  0  0  0
    9.1356   -7.3996    0.0000 C   0  0  0  0  0  0  0  0  0  0  0  0
    6.9921   -8.6371    0.0000 O   0  0  0  0  0  0  0  0  0  0  0  0
    8.4211   -7.8121    0.0000 C   0  0  0  0  0  0  0  0  0  0  0  0
    7.7066   -7.3996    0.0000 C   0  0  0  0  0  0  0  0  0  0  0  0
    6.9921   -7.8121    0.0000 C   0  0  0  0  0  0  0  0  0  0  0  0
    6.2777   -7.3996    0.0000 N   0  0  0  0  0  0  0  0  0  0  0  0
    5.5632   -6.1621    0.0000 O   0  0  0  0  0  0  0  0  0  0  0  0
    4.1343   -6.1621    0.0000 O   0  0  0  0  0  0  0  0  0  0  0  0
    4.1343   -7.8121    0.0000 C   0  0  0  0  0  0  0  0  0  0  0  0
    4.1343   -8.6371    0.0000 C   0  0  0  0  0  0  0  0  0  0  0  0
    4.8487   -9.0496    0.0000 C   0  0  0  0  0  0  0  0  0  0  0  0
    5.5632   -8.6371    0.0000 C   0  0  0  0  0  0  0  0  0  0  0  0
    5.5632   -7.8121    0.0000 C   0  0  0  0  0  0  0  0  0  0  0  0
    4.8487   -7.3996    0.0000 C   0  0  0  0  0  0  0  0  0  0  0  0
    4.8487   -6.5746    0.0000 C   0  0  0  0  0  0  0  0  0  0  0  0
 17  1  1  0  0  0  0
 20 13  1  0  0  0  0
 13 12  1  0  0  0  0
 10  8  1  0  0  0  0
  5  2  1  0  0  0  0
  8  3  2  0  0  0  0
  4  3  1  0  0  0  0
  5  4  2  0  0  0  0
  6  5  1  0  0  0  0
  7  6  2  0  0  0  0
  8  7  1  0  0  0  0
 12  9  2  0  0  0  0
 11 10  2  0  0  0  0
 12 11  1  0  0  0  0
 22 14  1  0  0  0  0
 22 15  2  0  0  0  0
 21 16  2  0  0  0  0
 17 16  1  0  0  0  0
 18 17  2  0  0  0  0
 19 18  1  0  0  0  0
 20 19  2  0  0  0  0
 21 20  1  0  0  0  0
 22 21  1  0  0  0  0
M  END
>  <cdx:fragmentId>
7089

$$$$
