300711.cdx
  Mrv1902 05222410232D          

 31 33  0  0  0  0            999 V2000
    4.3593   -5.4244    0.0000 C   0  0  1  0  0  0  0  0  0  0  0  0
    4.3593   -6.2494    0.0000 C   0  0  0  0  0  0  0  0  0  0  0  0
    5.0737   -6.6619    0.0000 C   0  0  2  0  0  0  0  0  0  0  0  0
    5.7882   -6.2494    0.0000 C   0  0  1  0  0  0  0  0  0  0  0  0
    5.7882   -5.4244    0.0000 C   0  0  2  0  0  0  0  0  0  0  0  0
    5.0737   -5.0119    0.0000 C   0  0  2  0  0  0  0  0  0  0  0  0
    6.5027   -6.6619    0.0000 C   0  0  0  0  0  0  0  0  0  0  0  0
    7.2172   -6.2494    0.0000 C   0  0  0  0  0  0  0  0  0  0  0  0
    7.2172   -5.4244    0.0000 C   0  0  0  0  0  0  0  0  0  0  0  0
    6.5027   -5.0119    0.0000 C   0  0  2  0  0  0  0  0  0  0  0  0
    7.8303   -4.8723    0.0000 C   0  0  0  0  0  0  0  0  0  0  0  0
    7.4947   -4.1187    0.0000 C   0  0  0  0  0  0  0  0  0  0  0  0
    6.6742   -4.2049    0.0000 O   0  0  0  0  0  0  0  0  0  0  0  0
    7.9072   -3.4042    0.0000 O   0  0  0  0  0  0  0  0  0  0  0  0
    8.6271   -5.0859    0.0000 C   0  0  0  0  0  0  0  0  0  0  0  0
    9.2105   -4.5025    0.0000 O   0  0  0  0  0  0  0  0  0  0  0  0
   10.0355   -4.5025    0.0000 C   0  0  0  0  0  0  0  0  0  0  0  0
   10.4480   -5.2170    0.0000 C   0  0  0  0  0  0  0  0  0  0  0  0
   10.4480   -3.7880    0.0000 O   0  0  0  0  0  0  0  0  0  0  0  0
    5.7882   -4.5994    0.0000 H   0  0  0  0  0  0  0  0  0  0  0  0
    4.6612   -4.2974    0.0000 O   0  0  0  0  0  0  0  0  0  0  0  0
    5.4863   -4.2974    0.0000 C   0  0  0  0  0  0  0  0  0  0  0  0
    5.0737   -7.4869    0.0000 O   0  0  0  0  0  0  0  0  0  0  0  0
    5.7882   -7.0744    0.0000 C   0  0  0  0  0  0  0  0  0  0  0  0
    3.6448   -5.0119    0.0000 O   0  0  0  0  0  0  0  0  0  0  0  0
    2.9303   -5.4244    0.0000 C   0  0  0  0  0  0  0  0  0  0  0  0
    2.9303   -6.2494    0.0000 C   0  0  0  0  0  0  0  0  0  0  0  0
    2.2159   -6.6619    0.0000 C   0  0  0  0  0  0  0  0  0  0  0  0
    2.2159   -5.0119    0.0000 O   0  0  0  0  0  0  0  0  0  0  0  0
    1.5014   -6.2494    0.0000 C   0  0  0  0  0  0  0  0  0  0  0  0
    2.2159   -7.4869    0.0000 C   0  0  0  0  0  0  0  0  0  0  0  0
  1  2  1  0  0  0  0
  2  3  1  0  0  0  0
  3  4  1  0  0  0  0
  4  5  1  0  0  0  0
  5  6  1  0  0  0  0
  6  1  1  0  0  0  0
  4  7  1  0  0  0  0
  7  8  1  0  0  0  0
  8  9  1  0  0  0  0
  9 10  1  0  0  0  0
 10  5  1  0  0  0  0
  9 11  2  0  0  0  0
 11 12  1  0  0  0  0
 12 13  1  0  0  0  0
 12 14  2  0  0  0  0
 11 15  1  0  0  0  0
 15 16  1  0  0  0  0
 16 17  1  0  0  0  0
 17 18  1  0  0  0  0
 17 19  2  0  0  0  0
 10 13  1  1  0  0  0
  5 20  1  1  0  0  0
  6 21  1  1  0  0  0
  6 22  1  0  0  0  0
  3 23  1  6  0  0  0
  4 24  1  6  0  0  0
  1 25  1  6  0  0  0
 25 26  1  0  0  0  0
 26 27  1  0  0  0  0
 27 28  1  0  0  0  0
 26 29  2  0  0  0  0
 28 30  1  0  0  0  0
 28 31  1  0  0  0  0
M  END
>  <cdx:fragmentId>
5

$$$$
