300846.cdx
  Mrv1902 05222410202D          

 18 20  0  0  0  0            999 V2000
    5.4876   -7.7555    0.0000 S   0  0  0  0  0  0  0  0  0  0  0  0
    5.4876   -8.5805    0.0000 O   0  0  0  0  0  0  0  0  0  0  0  0
    4.7732   -7.3430    0.0000 O   0  0  0  0  0  0  0  0  0  0  0  0
    6.2021   -7.3430    0.0000 O   0  0  0  0  0  0  0  0  0  0  0  0
    6.2021   -4.8680    0.0000 C   0  0  0  0  0  0  0  0  0  0  0  0
    6.5028   -4.0997    0.0000 N   0  0  0  0  0  0  0  0  0  0  0  0
    7.3278   -4.0997    0.0000 C   0  0  0  0  0  0  0  0  0  0  0  0
    7.6311   -4.8680    0.0000 C   0  0  0  0  0  0  0  0  0  0  0  0
    8.3455   -5.2805    0.0000 C   0  0  0  0  0  0  0  0  0  0  0  0
    8.3455   -6.1055    0.0000 C   0  0  0  0  0  0  0  0  0  0  0  0
    7.6311   -6.5180    0.0000 N   0  3  0  0  0  0  0  0  0  0  0  0
    6.9166   -6.1055    0.0000 C   0  0  0  0  0  0  0  0  0  0  0  0
    6.2021   -6.5180    0.0000 C   0  0  0  0  0  0  0  0  0  0  0  0
    5.4876   -6.1055    0.0000 C   0  0  0  0  0  0  0  0  0  0  0  0
    5.4876   -5.2805    0.0000 C   0  0  0  0  0  0  0  0  0  0  0  0
    6.9166   -5.2805    0.0000 C   0  0  0  0  0  0  0  0  0  0  0  0
    7.2186   -7.2325    0.0000 C   0  0  0  0  0  0  0  0  0  0  0  0
    8.0436   -7.2325    0.0000 C   0  0  0  0  0  0  0  0  0  0  0  0
  1  2  2  0  0  0  0
  1  3  1  0  0  0  0
  1  4  1  0  0  0  0
  5  6  1  0  0  0  0
  6  7  1  0  0  0  0
  7  8  2  0  0  0  0
  8  9  1  0  0  0  0
  9 10  1  0  0  0  0
 10 11  1  0  0  0  0
 11 12  1  0  0  0  0
 12 13  2  0  0  0  0
 13 14  1  0  0  0  0
 14 15  2  0  0  0  0
  5 15  1  0  0  0  0
  5 16  2  0  0  0  0
 12 16  1  0  0  0  0
  8 16  1  0  0  0  0
 11 17  1  0  0  0  0
 11 18  1  0  0  0  0
  4 13  1  0  0  0  0
M  CHG  1  11   1
M  END
>  <cdx:fragmentId>
2360

$$$$
