300835.cdx
  Mrv1902 05222410202D          

 16 17  0  0  0  0            999 V2000
    7.4325   -4.8060    0.0000 C   0  0  0  0  0  0  0  0  0  0  0  0
    9.0146   -5.2747    0.0000 C   0  0  0  0  0  0  0  0  0  0  0  0
    8.4371   -4.2435    0.0000 C   0  0  0  0  0  0  0  0  0  0  0  0
    8.2235   -5.0404    0.0000 N   0  3  0  0  0  0  0  0  0  0  0  0
    7.9686   -5.8250    0.0000 C   0  0  0  0  0  0  0  0  0  0  0  0
    7.1616   -5.9965    0.0000 C   0  0  0  0  0  0  0  0  0  0  0  0
    3.9786   -6.6236    0.0000 O   0  5  0  0  0  0  0  0  0  0  0  0
    6.1221   -7.8611    0.0000 C   0  0  0  0  0  0  0  0  0  0  0  0
    5.4076   -8.2736    0.0000 C   0  0  0  0  0  0  0  0  0  0  0  0
    4.6931   -7.8611    0.0000 C   0  0  0  0  0  0  0  0  0  0  0  0
    4.6931   -7.0361    0.0000 C   0  0  0  0  0  0  0  0  0  0  0  0
    5.4076   -6.6236    0.0000 C   0  0  0  0  0  0  0  0  0  0  0  0
    6.1221   -7.0361    0.0000 C   0  0  0  0  0  0  0  0  0  0  0  0
    6.9067   -6.7811    0.0000 C   0  0  0  0  0  0  0  0  0  0  0  0
    7.3916   -7.4486    0.0000 C   0  0  0  0  0  0  0  0  0  0  0  0
    6.9067   -8.1160    0.0000 N   0  0  0  0  0  0  0  0  0  0  0  0
  4  1  1  0  0  0  0
  4  2  1  0  0  0  0
  4  3  1  0  0  0  0
 14  6  1  0  0  0  0
  5  4  1  0  0  0  0
  6  5  1  0  0  0  0
 11  7  1  0  0  0  0
 13  8  2  0  0  0  0
 16  8  1  0  0  0  0
  9  8  1  0  0  0  0
 10  9  2  0  0  0  0
 11 10  1  0  0  0  0
 12 11  2  0  0  0  0
 13 12  1  0  0  0  0
 14 13  1  0  0  0  0
 15 14  2  0  0  0  0
 16 15  1  0  0  0  0
M  CHG  2   4   1   7  -1
M  END
>  <cdx:fragmentId>
2248

$$$$
