300817.cdx
  Mrv1902 05222410272D          

 13 13  0  0  0  0            999 V2000
    7.8417   -7.3344    0.0000 O   0  0  0  0  0  0  0  0  0  0  0  0
    8.3938   -6.7213    0.0000 C   0  0  0  0  0  0  0  0  0  0  0  0
    7.9813   -6.0068    0.0000 C   0  0  0  0  0  0  0  0  0  0  0  0
    7.1743   -6.1783    0.0000 C   0  0  0  0  0  0  0  0  0  0  0  0
    7.0880   -6.9988    0.0000 C   0  0  0  0  0  0  0  0  0  0  0  0
    9.2142   -6.8075    0.0000 O   0  0  0  0  0  0  0  0  0  0  0  0
    6.3736   -7.4113    0.0000 C   0  0  0  0  0  0  0  0  0  0  0  0
    5.6591   -6.9988    0.0000 C   0  0  0  0  0  0  0  0  0  0  0  0
    4.9446   -7.4113    0.0000 C   0  0  0  0  0  0  0  0  0  0  0  0
    4.2302   -6.9988    0.0000 C   0  0  0  0  0  0  0  0  0  0  0  0
    3.5157   -7.4113    0.0000 C   0  0  0  0  0  0  0  0  0  0  0  0
    6.5612   -5.6263    0.0000 C   0  0  0  0  0  0  0  0  0  0  0  0
    8.3168   -5.2531    0.0000 C   0  0  0  0  0  0  0  0  0  0  0  0
  1  2  1  0  0  0  0
  2  3  1  0  0  0  0
  3  4  2  0  0  0  0
  4  5  1  0  0  0  0
  1  5  1  0  0  0  0
  2  6  2  0  0  0  0
  7  8  1  0  0  0  0
  8  9  1  0  0  0  0
  9 10  1  0  0  0  0
 10 11  1  0  0  0  0
  5  7  2  0  0  0  0
  4 12  1  0  0  0  0
  3 13  1  0  0  0  0
M  END
>  <cdx:fragmentId>
767

$$$$
