30089.cdx
  Mrv1902 05222410262D          

 17 16  0  0  0  0            999 V2000
    9.3002   -9.9654    0.0000 Se  0  0  0  0  0  0  0  0  0  0  0  0
    9.3236   -7.4905    0.0000 O   0  0  0  0  0  0  0  0  0  0  0  0
   10.0263   -8.7347    0.0000 O   0  0  0  0  0  0  0  0  0  0  0  0
    8.5897   -9.5461    0.0000 C   0  0  0  0  0  0  0  0  0  0  0  0
    9.3158   -8.3154    0.0000 C   0  0  0  0  0  0  0  0  0  0  0  0
    7.8947   -7.4769    0.0000 C   0  0  0  0  0  0  0  0  0  0  0  0
    5.0370   -7.4499    0.0000 N   0  0  0  0  0  0  0  0  0  0  0  0
    7.1608   -9.5326    0.0000 O   0  0  0  0  0  0  0  0  0  0  0  0
    4.3030   -9.5055    0.0000 O   0  0  0  0  0  0  0  0  0  0  0  0
    8.5975   -8.7212    0.0000 C   0  0  1  0  0  0  0  0  0  0  0  0
    7.8869   -8.3019    0.0000 N   0  0  0  0  0  0  0  0  0  0  0  0
    7.1686   -8.7076    0.0000 C   0  0  0  0  0  0  0  0  0  0  0  0
    6.4581   -8.2884    0.0000 C   0  0  0  0  0  0  0  0  0  0  0  0
    5.7397   -8.6941    0.0000 C   0  0  0  0  0  0  0  0  0  0  0  0
    5.0292   -8.2749    0.0000 C   0  0  1  0  0  0  0  0  0  0  0  0
    4.3108   -8.6806    0.0000 C   0  0  0  0  0  0  0  0  0  0  0  0
    3.6003   -8.2613    0.0000 O   0  0  0  0  0  0  0  0  0  0  0  0
  4  1  1  0  0  0  0
  5  2  2  0  0  0  0
  5  3  1  0  0  0  0
 10  4  1  0  0  0  0
 10  5  1  0  0  0  0
 11  6  1  0  0  0  0
 15  7  1  1  0  0  0
 12  8  2  0  0  0  0
 16  9  2  0  0  0  0
 10 11  1  6  0  0  0
 12 11  1  0  0  0  0
 13 12  1  0  0  0  0
 14 13  1  0  0  0  0
 15 14  1  0  0  0  0
 16 15  1  0  0  0  0
 17 16  1  0  0  0  0
M  END
>  <cdx:fragmentId>
3

$$$$
