300805.cdx
  Mrv1902 05222410262D          

 13 14  0  0  0  0            999 V2000
    6.0571   -5.3528    0.0000 C   0  0  0  0  0  0  0  0  0  0  0  0
    6.0571   -6.1778    0.0000 C   0  0  0  0  0  0  0  0  0  0  0  0
    5.3427   -6.5903    0.0000 C   0  0  0  0  0  0  0  0  0  0  0  0
    4.6282   -6.1778    0.0000 C   0  0  0  0  0  0  0  0  0  0  0  0
    4.6282   -5.3528    0.0000 C   0  0  0  0  0  0  0  0  0  0  0  0
    5.3427   -4.9403    0.0000 C   0  0  0  0  0  0  0  0  0  0  0  0
    6.7716   -4.9403    0.0000 O   0  0  0  0  0  0  0  0  0  0  0  0
    6.7716   -6.5903    0.0000 C   0  0  0  0  0  0  0  0  0  0  0  0
    7.4861   -6.1778    0.0000 C   0  0  0  0  0  0  0  0  0  0  0  0
    8.2006   -6.5903    0.0000 C   0  0  0  0  0  0  0  0  0  0  0  0
    8.2006   -7.4153    0.0000 C   0  0  0  0  0  0  0  0  0  0  0  0
    7.4861   -7.8278    0.0000 C   0  0  0  0  0  0  0  0  0  0  0  0
    6.7716   -7.4153    0.0000 C   0  0  0  0  0  0  0  0  0  0  0  0
  1  2  1  0  0  0  0
  2  3  1  0  0  0  0
  3  4  1  0  0  0  0
  4  5  1  0  0  0  0
  5  6  1  0  0  0  0
  1  6  1  0  0  0  0
  1  7  2  0  0  0  0
  8  9  1  0  0  0  0
  9 10  1  0  0  0  0
 10 11  1  0  0  0  0
 11 12  1  0  0  0  0
 12 13  1  0  0  0  0
  8 13  1  0  0  0  0
  2  8  2  0  0  0  0
M  END
>  <cdx:fragmentId>
151

$$$$
