300885.cdx
  Mrv1902 05222410202D          

 23 25  0  0  0  0            999 V2000
    5.4158   -8.6811    0.0000 C   0  0  0  0  0  0  0  0  0  0  0  0
    4.7016   -8.2681    0.0000 C   0  0  0  0  0  0  0  0  0  0  0  0
    3.9868   -8.6801    0.0000 C   0  0  0  0  0  0  0  0  0  0  0  0
    3.2726   -8.2671    0.0000 C   0  0  0  0  0  0  0  0  0  0  0  0
    9.8134   -8.2715    0.0000 C   0  0  0  0  0  0  0  0  0  0  0  0
    9.4004   -8.9857    0.0000 C   0  0  0  0  0  0  0  0  0  0  0  0
    8.9906   -4.9710    0.0000 C   0  0  0  0  0  0  0  0  0  0  0  0
    2.5579   -8.6791    0.0000 C   0  0  0  0  0  0  0  0  0  0  0  0
    6.8464   -6.2070    0.0000 O   0  0  0  0  0  0  0  0  0  0  0  0
    9.7037   -7.0340    0.0000 C   0  0  0  0  0  0  0  0  0  0  0  0
    9.7043   -6.2090    0.0000 C   0  0  0  0  0  0  0  0  0  0  0  0
    8.9901   -5.7960    0.0000 C   0  0  0  0  0  0  0  0  0  0  0  0
    8.2753   -6.2080    0.0000 C   0  0  0  0  0  0  0  0  0  0  0  0
    8.2737   -8.6830    0.0000 O   0  0  0  0  0  0  0  0  0  0  0  0
    7.5595   -8.2700    0.0000 C   0  0  0  0  0  0  0  0  0  0  0  0
    6.8447   -8.6820    0.0000 C   0  0  0  0  0  0  0  0  0  0  0  0
    6.1305   -8.2691    0.0000 C   0  0  0  0  0  0  0  0  0  0  0  0
    6.1311   -7.4441    0.0000 C   0  0  0  0  0  0  0  0  0  0  0  0
    6.8458   -7.0320    0.0000 C   0  0  0  0  0  0  0  0  0  0  0  0
    7.5600   -7.4450    0.0000 C   0  0  0  0  0  0  0  0  0  0  0  0
    8.2748   -7.0330    0.0000 C   0  0  0  0  0  0  0  0  0  0  0  0
    8.9890   -7.4460    0.0000 C   0  0  0  0  0  0  0  0  0  0  0  0
    8.9884   -8.2710    0.0000 C   0  0  0  0  0  0  0  0  0  0  0  0
 23  5  1  0  0  0  0
 23  6  1  0  0  0  0
 12  7  1  0  0  0  0
 17  1  1  0  0  0  0
 19  9  1  0  0  0  0
 21 13  2  0  0  0  0
 22 10  2  0  0  0  0
 11 10  1  0  0  0  0
 12 11  2  0  0  0  0
 13 12  1  0  0  0  0
 23 14  1  0  0  0  0
 15 14  1  0  0  0  0
 20 15  2  0  0  0  0
 16 15  1  0  0  0  0
 17 16  2  0  0  0  0
 18 17  1  0  0  0  0
 19 18  2  0  0  0  0
 20 19  1  0  0  0  0
 21 20  1  0  0  0  0
 22 21  1  0  0  0  0
 23 22  1  0  0  0  0
  1  2  1  0  0  0  0
  2  3  1  0  0  0  0
  3  4  1  0  0  0  0
  4  8  1  0  0  0  0
M  END
>  <cdx:fragmentId>
941

$$$$
