300882.cdx
  Mrv1902 05222410222D          

 23 24  0  0  0  0            999 V2000
    7.1833   -5.6722    0.0000 C   0  0  0  0  0  0  0  0  0  0  0  0
    7.1833   -6.4972    0.0000 C   0  0  0  0  0  0  0  0  0  0  0  0
    6.4688   -6.9097    0.0000 C   0  0  0  0  0  0  0  0  0  0  0  0
    5.7544   -6.4972    0.0000 C   0  0  0  0  0  0  0  0  0  0  0  0
    5.0399   -6.9097    0.0000 C   0  0  0  0  0  0  0  0  0  0  0  0
    4.3254   -6.4972    0.0000 C   0  0  0  0  0  0  0  0  0  0  0  0
    4.3254   -5.6722    0.0000 C   0  0  0  0  0  0  0  0  0  0  0  0
    5.0399   -5.2597    0.0000 C   0  0  0  0  0  0  0  0  0  0  0  0
    5.7544   -5.6722    0.0000 C   0  0  0  0  0  0  0  0  0  0  0  0
    6.4688   -5.2597    0.0000 O   0  0  0  0  0  0  0  0  0  0  0  0
    5.0399   -7.7347    0.0000 O   0  0  0  0  0  0  0  0  0  0  0  0
    3.6110   -5.2597    0.0000 C   0  0  0  0  0  0  0  0  0  0  0  0
    2.8965   -5.6722    0.0000 C   0  0  0  0  0  0  0  0  0  0  0  0
    2.1820   -5.2597    0.0000 C   0  0  0  0  0  0  0  0  0  0  0  0
    1.4675   -5.6722    0.0000 C   0  0  0  0  0  0  0  0  0  0  0  0
    0.7531   -5.2597    0.0000 C   0  0  0  0  0  0  0  0  0  0  0  0
    7.8978   -5.2597    0.0000 C   0  0  0  0  0  0  0  0  0  0  0  0
    8.6123   -5.6722    0.0000 C   0  0  0  0  0  0  0  0  0  0  0  0
    9.3267   -5.2597    0.0000 C   0  0  0  0  0  0  0  0  0  0  0  0
   10.0412   -5.6722    0.0000 C   0  0  0  0  0  0  0  0  0  0  0  0
   10.7557   -5.2597    0.0000 C   0  0  0  0  0  0  0  0  0  0  0  0
   10.0412   -6.4972    0.0000 C   0  0  0  0  0  0  0  0  0  0  0  0
    7.1833   -4.8472    0.0000 C   0  0  0  0  0  0  0  0  0  0  0  0
  1  2  1  0  0  0  0
  2  3  2  0  0  0  0
  3  4  1  0  0  0  0
  4  5  1  0  0  0  0
  5  6  2  0  0  0  0
  6  7  1  0  0  0  0
  7  8  2  0  0  0  0
  8  9  1  0  0  0  0
  4  9  2  0  0  0  0
  9 10  1  0  0  0  0
  1 10  1  0  0  0  0
  5 11  1  0  0  0  0
 12 13  1  0  0  0  0
 13 14  1  0  0  0  0
 14 15  1  0  0  0  0
 15 16  1  0  0  0  0
  7 12  1  0  0  0  0
 17 18  1  0  0  0  0
 18 19  1  0  0  0  0
 19 20  2  0  0  0  0
 20 21  1  0  0  0  0
 20 22  1  0  0  0  0
  1 17  1  0  0  0  0
  1 23  1  0  0  0  0
M  END
>  <cdx:fragmentId>
718

$$$$
