300873.cdx
  Mrv1902 05222410232D          

 21 25  0  0  0  0            999 V2000
    4.6091   -4.2900    0.0000 C   0  0  2  0  0  0  0  0  0  0  0  0
    4.6091   -5.1150    0.0000 C   0  0  2  0  0  0  0  0  0  0  0  0
    5.2541   -5.6294    0.0000 C   0  0  1  0  0  0  0  0  0  0  0  0
    6.0584   -5.4458    0.0000 C   0  0  2  0  0  0  0  0  0  0  0  0
    6.4163   -4.7025    0.0000 C   0  0  1  0  0  0  0  0  0  0  0  0
    6.0584   -3.9592    0.0000 C   0  0  0  0  0  0  0  0  0  0  0  0
    5.2541   -3.7756    0.0000 C   0  0  0  0  0  0  0  0  0  0  0  0
    3.9205   -5.5695    0.0000 C   0  0  1  0  0  0  0  0  0  0  0  0
    4.1400   -6.3648    0.0000 C   0  0  1  0  0  0  0  0  0  0  0  0
    4.9642   -6.4018    0.0000 C   0  0  2  0  0  0  0  0  0  0  0  0
    3.7070   -4.7726    0.0000 O   0  0  0  0  0  0  0  0  0  0  0  0
    4.5525   -7.0792    0.0000 O   0  0  0  0  0  0  0  0  0  0  0  0
    5.5475   -6.9851    0.0000 C   0  0  0  0  0  0  0  0  0  0  0  0
    5.8374   -6.2127    0.0000 H   0  0  0  0  0  0  0  0  0  0  0  0
    6.6547   -6.0159    0.0000 O   0  0  0  0  0  0  0  0  0  0  0  0
    7.3812   -5.6250    0.0000 C   0  0  0  0  0  0  0  0  0  0  0  0
    7.2339   -4.8132    0.0000 C   0  0  0  0  0  0  0  0  0  0  0  0
    7.8172   -4.2299    0.0000 C   0  0  0  0  0  0  0  0  0  0  0  0
    8.1781   -5.8385    0.0000 O   0  0  0  0  0  0  0  0  0  0  0  0
    3.8122   -4.0765    0.0000 O   0  0  0  0  0  0  0  0  0  0  0  0
    4.3955   -3.4931    0.0000 C   0  0  0  0  0  0  0  0  0  0  0  0
  1  2  1  0  0  0  0
  2  3  1  0  0  0  0
  3  4  1  0  0  0  0
  4  5  1  0  0  0  0
  5  6  1  0  0  0  0
  6  7  1  0  0  0  0
  7  1  1  0  0  0  0
  2  8  1  0  0  0  0
  8  9  1  0  0  0  0
  9 10  1  0  0  0  0
 10  3  1  0  0  0  0
  8 11  1  1  0  0  0
  2 11  1  1  0  0  0
  9 12  1  1  0  0  0
 10 12  1  1  0  0  0
 10 13  1  0  0  0  0
  3 14  1  6  0  0  0
  4 15  1  6  0  0  0
 15 16  1  0  0  0  0
 16 17  1  0  0  0  0
  5 17  1  1  0  0  0
 17 18  2  0  0  0  0
 16 19  2  0  0  0  0
  1 20  1  0  0  0  0
  1 21  1  6  0  0  0
M  END
>  <cdx:fragmentId>
479

$$$$
