300844.cdx
  Mrv1902 05222410212D          

 12 13  0  0  0  0            999 V2000
    6.5455   -5.1631    0.0000 C   0  0  0  0  0  0  0  0  0  0  0  0
    6.5455   -5.9881    0.0000 C   0  0  0  0  0  0  0  0  0  0  0  0
    7.2600   -6.4006    0.0000 C   0  0  0  0  0  0  0  0  0  0  0  0
    7.9745   -5.9881    0.0000 C   0  0  0  0  0  0  0  0  0  0  0  0
    7.9745   -5.1631    0.0000 C   0  0  0  0  0  0  0  0  0  0  0  0
    7.2600   -4.7506    0.0000 C   0  0  0  0  0  0  0  0  0  0  0  0
    5.8311   -4.7506    0.0000 O   0  0  0  0  0  0  0  0  0  0  0  0
    7.2600   -3.9256    0.0000 C   0  0  0  0  0  0  0  0  0  0  0  0
    7.2600   -7.2256    0.0000 C   0  0  0  0  0  0  0  0  0  0  0  0
    6.5455   -7.6381    0.0000 C   0  0  0  0  0  0  0  0  0  0  0  0
    7.9745   -7.6381    0.0000 C   0  0  0  0  0  0  0  0  0  0  0  0
    8.8538   -5.1777    0.0000 O   0  0  0  0  0  0  0  0  0  0  0  0
  1  2  1  0  0  0  0
  2  3  2  0  0  0  0
  3  4  1  0  0  0  0
  4  5  1  0  0  0  0
  5  6  1  0  0  0  0
  6  1  1  0  0  0  0
  1  7  1  0  0  0  0
  6  8  1  0  0  0  0
  3  9  1  0  0  0  0
  9 10  1  0  0  0  0
  9 11  1  0  0  0  0
  9 12  1  0  0  0  0
 12  6  1  0  0  0  0
M  END
>  <cdx:fragmentId>
1223

$$$$
