300852.cdx
  Mrv1902 05222410202D          

 11 10  0  0  0  0            999 V2000
    7.4861   -6.1346    0.0000 C   0  0  0  0  0  0  0  0  0  0  0  0
    6.7716   -6.5471    0.0000 C   0  0  0  0  0  0  0  0  0  0  0  0
    6.0571   -6.1346    0.0000 C   0  0  0  0  0  0  0  0  0  0  0  0
    5.3427   -6.5471    0.0000 C   0  0  0  0  0  0  0  0  0  0  0  0
    7.4861   -5.3096    0.0000 O   0  0  0  0  0  0  0  0  0  0  0  0
    8.2006   -6.5471    0.0000 O   0  0  0  0  0  0  0  0  0  0  0  0
    5.3427   -7.3721    0.0000 O   0  0  0  0  0  0  0  0  0  0  0  0
    4.6282   -6.1346    0.0000 O   0  0  0  0  0  0  0  0  0  0  0  0
    6.7716   -7.3721    0.0000 C   0  0  0  0  0  0  0  0  0  0  0  0
    8.9150   -6.1346    0.0000 C   0  0  0  0  0  0  0  0  0  0  0  0
    3.9137   -6.5471    0.0000 C   0  0  0  0  0  0  0  0  0  0  0  0
  1  2  1  0  0  0  0
  2  3  1  0  0  0  0
  3  4  1  0  0  0  0
  1  5  2  0  0  0  0
  1  6  1  0  0  0  0
  4  7  2  0  0  0  0
  4  8  1  0  0  0  0
  2  9  2  0  0  0  0
  6 10  1  0  0  0  0
  8 11  1  0  0  0  0
M  END
>  <cdx:fragmentId>
2548

$$$$
