300895.cdx
  Mrv1902 05222410232D          

 44 45  0  0  0  0            999 V2000
   17.8768   -6.5484    0.0000 C   0  0  0  0  0  0  0  0  0  0  0  0
   17.1624   -6.1359    0.0000 C   0  0  0  0  0  0  0  0  0  0  0  0
   16.4479   -6.5484    0.0000 C   0  0  0  0  0  0  0  0  0  0  0  0
   15.7334   -6.1359    0.0000 C   0  0  0  0  0  0  0  0  0  0  0  0
   15.0190   -6.5484    0.0000 C   0  0  0  0  0  0  0  0  0  0  0  0
   14.3045   -6.1359    0.0000 C   0  0  0  0  0  0  0  0  0  0  0  0
   13.5900   -6.5484    0.0000 C   0  0  0  0  0  0  0  0  0  0  0  0
   12.8756   -6.1359    0.0000 C   0  0  0  0  0  0  0  0  0  0  0  0
   12.1611   -6.5484    0.0000 C   0  0  0  0  0  0  0  0  0  0  0  0
   11.4466   -6.1359    0.0000 C   0  0  0  0  0  0  0  0  0  0  0  0
   10.7321   -6.5484    0.0000 C   0  0  0  0  0  0  0  0  0  0  0  0
   10.0177   -6.1359    0.0000 C   0  0  0  0  0  0  0  0  0  0  0  0
    9.3032   -6.5484    0.0000 C   0  0  0  0  0  0  0  0  0  0  0  0
    8.5887   -6.1359    0.0000 C   0  0  0  0  0  0  0  0  0  0  0  0
    7.8743   -6.5484    0.0000 C   0  0  0  0  0  0  0  0  0  0  0  0
    7.1598   -6.1359    0.0000 C   0  0  0  0  0  0  0  0  0  0  0  0
    6.4453   -6.5484    0.0000 C   0  0  0  0  0  0  0  0  0  0  0  0
    5.7308   -6.1359    0.0000 C   0  0  0  0  0  0  0  0  0  0  0  0
    5.0164   -6.5484    0.0000 C   0  0  0  0  0  0  0  0  0  0  0  0
    4.3019   -6.1359    0.0000 C   0  0  0  0  0  0  0  0  0  0  0  0
   17.8768   -7.3734    0.0000 O   0  0  0  0  0  0  0  0  0  0  0  0
    4.3019   -5.3109    0.0000 O   0  0  0  0  0  0  0  0  0  0  0  0
    6.4453   -7.3734    0.0000 C   0  0  0  0  0  0  0  0  0  0  0  0
    9.3032   -7.3734    0.0000 C   0  0  0  0  0  0  0  0  0  0  0  0
   12.8756   -5.3109    0.0000 C   0  0  0  0  0  0  0  0  0  0  0  0
   15.7334   -5.3109    0.0000 C   0  0  0  0  0  0  0  0  0  0  0  0
    3.5874   -6.5484    0.0000 C   0  0  1  0  0  0  0  0  0  0  0  0
    3.1025   -7.2159    0.0000 C   0  0  0  0  0  0  0  0  0  0  0  0
    2.3179   -6.9609    0.0000 C   0  0  0  0  0  0  0  0  0  0  0  0
    2.3179   -6.1359    0.0000 C   0  0  1  0  0  0  0  0  0  0  0  0
    3.1025   -5.8810    0.0000 C   0  0  0  0  0  0  0  0  0  0  0  0
    3.7156   -7.7679    0.0000 C   0  0  0  0  0  0  0  0  0  0  0  0
    2.9310   -8.0228    0.0000 C   0  0  0  0  0  0  0  0  0  0  0  0
    4.3019   -6.9609    0.0000 C   0  0  0  0  0  0  0  0  0  0  0  0
    1.6504   -5.6510    0.0000 O   0  0  0  0  0  0  0  0  0  0  0  0
   18.5913   -6.1359    0.0000 C   0  0  1  0  0  0  0  0  0  0  0  0
   19.0762   -5.4685    0.0000 C   0  0  0  0  0  0  0  0  0  0  0  0
   19.8609   -5.7234    0.0000 C   0  0  0  0  0  0  0  0  0  0  0  0
   19.8609   -6.5484    0.0000 C   0  0  1  0  0  0  0  0  0  0  0  0
   19.0762   -6.8034    0.0000 C   0  0  0  0  0  0  0  0  0  0  0  0
   18.4631   -4.9165    0.0000 C   0  0  0  0  0  0  0  0  0  0  0  0
   19.2478   -4.6615    0.0000 C   0  0  0  0  0  0  0  0  0  0  0  0
   17.8768   -5.7234    0.0000 C   0  0  0  0  0  0  0  0  0  0  0  0
   20.5283   -7.0334    0.0000 O   0  0  0  0  0  0  0  0  0  0  0  0
  1  2  1  0  0  0  0
  2  3  2  0  0  0  0
  3  4  1  0  0  0  0
  4  5  2  0  0  0  0
  5  6  1  0  0  0  0
  6  7  2  0  0  0  0
  7  8  1  0  0  0  0
  8  9  2  0  0  0  0
  9 10  1  0  0  0  0
 10 11  2  0  0  0  0
 11 12  1  0  0  0  0
 12 13  2  0  0  0  0
 13 14  1  0  0  0  0
 14 15  2  0  0  0  0
 15 16  1  0  0  0  0
 16 17  2  0  0  0  0
 17 18  1  0  0  0  0
 18 19  2  0  0  0  0
 19 20  1  0  0  0  0
  1 21  2  0  0  0  0
 20 22  2  0  0  0  0
 17 23  1  0  0  0  0
 13 24  1  0  0  0  0
  8 25  1  0  0  0  0
  4 26  1  0  0  0  0
 27 28  1  0  0  0  0
 28 29  1  0  0  0  0
 29 30  1  0  0  0  0
 30 31  1  0  0  0  0
 27 31  1  0  0  0  0
 28 32  1  0  0  0  0
 28 33  1  0  0  0  0
 27 34  1  6  0  0  0
 30 35  1  6  0  0  0
 27 20  1  1  0  0  0
 36 37  1  0  0  0  0
 37 38  1  0  0  0  0
 38 39  1  0  0  0  0
 39 40  1  0  0  0  0
 36 40  1  0  0  0  0
 37 41  1  0  0  0  0
 37 42  1  0  0  0  0
 36 43  1  6  0  0  0
 39 44  1  6  0  0  0
 36  1  1  1  0  0  0
M  END
>  <cdx:fragmentId>
5

$$$$
