300854.cdx
  Mrv1902 05222410222D          

  8  7  0  0  0  0            999 V2000
    4.6282   -6.4964    0.0000 C   0  0  0  0  0  0  0  0  0  0  0  0
    6.7716   -5.2589    0.0000 C   0  0  0  0  0  0  0  0  0  0  0  0
    5.3427   -6.0839    0.0000 O   0  0  0  0  0  0  0  0  0  0  0  0
    6.0571   -7.3214    0.0000 O   0  0  0  0  0  0  0  0  0  0  0  0
    8.2006   -6.0839    0.0000 C   0  0  0  0  0  0  0  0  0  0  0  0
    7.4861   -6.4964    0.0000 C   0  0  0  0  0  0  0  0  0  0  0  0
    6.7716   -6.0839    0.0000 C   0  0  0  0  0  0  0  0  0  0  0  0
    6.0571   -6.4964    0.0000 C   0  0  0  0  0  0  0  0  0  0  0  0
  3  1  1  0  0  0  0
  7  2  2  0  0  0  0
  8  3  1  0  0  0  0
  8  4  2  0  0  0  0
  6  5  1  0  0  0  0
  7  6  1  0  0  0  0
  8  7  1  0  0  0  0
M  END
>  <cdx:fragmentId>
2613

$$$$
