300809.cdx
  Mrv1902 05222410202D          

 19 20  0  0  0  0            999 V2000
    9.4022   -6.1259    0.0000 C   0  0  0  0  0  0  0  0  0  0  0  0
    9.1347   -6.9063    0.0000 C   0  0  0  0  0  0  0  0  0  0  0  0
    8.3251   -7.0649    0.0000 C   0  0  0  0  0  0  0  0  0  0  0  0
    8.0577   -7.8454    0.0000 C   0  0  0  0  0  0  0  0  0  0  0  0
    7.2481   -8.0040    0.0000 C   0  0  0  0  0  0  0  0  0  0  0  0
    8.8600   -5.5040    0.0000 O   0  0  0  0  0  0  0  0  0  0  0  0
   10.2118   -5.9672    0.0000 O   0  5  0  0  0  0  0  0  0  0  0  0
    4.9161   -9.4190    0.0000 C   0  0  0  0  0  0  0  0  0  0  0  0
    5.3903  -10.0941    0.0000 N   0  0  0  0  0  0  0  0  0  0  0  0
    6.1789   -9.8517    0.0000 C   0  0  2  0  0  0  0  0  0  0  0  0
    6.1921   -9.0268    0.0000 C   0  0  2  0  0  0  0  0  0  0  0  0
    5.4116   -8.7594    0.0000 N   0  0  0  0  0  0  0  0  0  0  0  0
    6.9593  -10.1192    0.0000 C   0  0  0  0  0  0  0  0  0  0  0  0
    6.9807   -8.7845    0.0000 C   0  0  1  0  0  0  0  0  0  0  0  0
    7.4549   -9.4595    0.0000 S   0  0  0  0  0  0  0  0  0  0  0  0
    8.2797   -9.4727    0.0000 O   0  0  0  0  0  0  0  0  0  0  0  0
    4.0912   -9.4058    0.0000 O   0  0  0  0  0  0  0  0  0  0  0  0
    6.2052   -8.2019    0.0000 H   0  0  0  0  0  0  0  0  0  0  0  0
    6.1657  -10.6766    0.0000 H   0  0  0  0  0  0  0  0  0  0  0  0
  1  2  1  0  0  0  0
  2  3  1  0  0  0  0
  3  4  1  0  0  0  0
  4  5  1  0  0  0  0
  1  6  2  0  0  0  0
  1  7  1  0  0  0  0
  8  9  1  0  0  0  0
  9 10  1  0  0  0  0
 10 11  1  0  0  0  0
 11 12  1  0  0  0  0
  8 12  1  0  0  0  0
 14 15  1  0  0  0  0
 13 15  1  0  0  0  0
 10 13  1  0  0  0  0
 11 14  1  0  0  0  0
 15 16  2  0  0  0  0
  8 17  2  0  0  0  0
 14  5  1  6  0  0  0
 11 18  1  1  0  0  0
 10 19  1  1  0  0  0
M  CHG  1   7  -1
M  END
>  <cdx:fragmentId>
373

$$$$
