300823.cdx
  Mrv1902 05222410192D          

 19 20  0  0  0  0            999 V2000
    3.5565   -6.7114    0.0000 C   0  0  0  0  0  0  0  0  0  0  0  0
    4.2710   -7.1239    0.0000 C   0  0  0  0  0  0  0  0  0  0  0  0
    4.9854   -6.7114    0.0000 C   0  0  0  0  0  0  0  0  0  0  0  0
    4.9854   -5.8864    0.0000 C   0  0  0  0  0  0  0  0  0  0  0  0
    4.2710   -5.4739    0.0000 C   0  0  0  0  0  0  0  0  0  0  0  0
    3.5565   -5.8864    0.0000 C   0  0  0  0  0  0  0  0  0  0  0  0
    2.8420   -7.1239    0.0000 O   0  0  0  0  0  0  0  0  0  0  0  0
    5.6999   -7.1239    0.0000 O   0  0  0  0  0  0  0  0  0  0  0  0
    6.4144   -6.7114    0.0000 C   0  0  0  0  0  0  0  0  0  0  0  0
    5.6999   -5.4739    0.0000 C   0  0  0  0  0  0  0  0  0  0  0  0
    6.4144   -5.8864    0.0000 C   0  0  0  0  0  0  0  0  0  0  0  0
    7.1288   -5.4739    0.0000 C   0  0  0  0  0  0  0  0  0  0  0  0
    7.8433   -5.8864    0.0000 C   0  0  0  0  0  0  0  0  0  0  0  0
    8.5578   -5.4739    0.0000 C   0  0  0  0  0  0  0  0  0  0  0  0
    9.2723   -5.8864    0.0000 C   0  0  0  0  0  0  0  0  0  0  0  0
    9.2723   -6.7114    0.0000 C   0  0  0  0  0  0  0  0  0  0  0  0
    8.5578   -7.1239    0.0000 C   0  0  0  0  0  0  0  0  0  0  0  0
    7.8433   -6.7114    0.0000 C   0  0  0  0  0  0  0  0  0  0  0  0
    9.9867   -7.1239    0.0000 O   0  0  0  0  0  0  0  0  0  0  0  0
  1  2  1  0  0  0  0
  2  3  2  0  0  0  0
  3  4  1  0  0  0  0
  4  5  2  0  0  0  0
  5  6  1  0  0  0  0
  1  6  2  0  0  0  0
  1  7  1  0  0  0  0
  8  9  1  0  0  0  0
  3  8  1  0  0  0  0
 10 11  1  0  0  0  0
 11 12  1  0  0  0  0
 13 14  1  0  0  0  0
 14 15  2  0  0  0  0
 15 16  1  0  0  0  0
 16 17  2  0  0  0  0
 17 18  1  0  0  0  0
 13 18  2  0  0  0  0
 16 19  1  0  0  0  0
 12 13  1  0  0  0  0
  4 10  1  0  0  0  0
M  END
>  <cdx:fragmentId>
1209

$$$$
