300880.cdx
  Mrv1902 05222410222D          

 12 13  0  0  0  0            999 V2000
    5.3487   -7.2163    0.0000 C   0  0  1  0  0  0  0  0  0  0  0  0
    6.0632   -6.8038    0.0000 C   0  0  0  0  0  0  0  0  0  0  0  0
    6.0632   -5.9788    0.0000 C   0  0  0  0  0  0  0  0  0  0  0  0
    5.3487   -5.5663    0.0000 C   0  0  2  0  0  0  0  0  0  0  0  0
    4.6343   -5.9788    0.0000 C   0  0  0  0  0  0  0  0  0  0  0  0
    4.6343   -6.8038    0.0000 C   0  0  0  0  0  0  0  0  0  0  0  0
    5.0132   -6.3910    0.0000 C   0  0  0  0  0  0  0  0  0  0  0  0
    6.7777   -7.2163    0.0000 C   0  0  0  0  0  0  0  0  0  0  0  0
    6.4757   -5.2644    0.0000 C   0  0  0  0  0  0  0  0  0  0  0  0
    6.8882   -5.9788    0.0000 C   0  0  0  0  0  0  0  0  0  0  0  0
    5.3487   -8.0413    0.0000 C   0  0  0  0  0  0  0  0  0  0  0  0
    5.3487   -4.7413    0.0000 H   0  0  0  0  0  0  0  0  0  0  0  0
  1  2  1  0  0  0  0
  2  3  1  0  0  0  0
  3  4  1  0  0  0  0
  4  5  1  0  0  0  0
  5  6  1  0  0  0  0
  1  6  1  0  0  0  0
  1  7  1  6  0  0  0
  4  7  1  6  0  0  0
  2  8  2  0  0  0  0
  3  9  1  0  0  0  0
  3 10  1  0  0  0  0
  1 11  1  0  0  0  0
  4 12  1  0  0  0  0
M  END
>  <cdx:fragmentId>
600

$$$$
