300874.cdx
  Mrv1902 05222410252D          

 20 20  0  0  0  0            999 V2000
    5.4112   -6.4763    0.0000 C   0  0  0  0  0  0  0  0  0  0  0  0
    5.4112   -7.3012    0.0000 C   0  0  0  0  0  0  0  0  0  0  0  0
    6.1256   -7.7138    0.0000 N   0  0  0  0  0  0  0  0  0  0  0  0
    6.8401   -7.3012    0.0000 C   0  0  0  0  0  0  0  0  0  0  0  0
    6.8401   -6.4763    0.0000 C   0  0  0  0  0  0  0  0  0  0  0  0
    6.1256   -6.0638    0.0000 C   0  0  0  0  0  0  0  0  0  0  0  0
    6.1256   -8.5388    0.0000 C   0  0  0  0  0  0  0  0  0  0  0  0
    7.5546   -7.7138    0.0000 C   0  0  0  0  0  0  0  0  0  0  0  0
    8.2690   -7.3012    0.0000 C   0  0  0  0  0  0  0  0  0  0  0  0
    4.6967   -7.7138    0.0000 C   0  0  0  0  0  0  0  0  0  0  0  0
    3.9822   -7.3012    0.0000 C   0  0  0  0  0  0  0  0  0  0  0  0
    6.1256   -5.2387    0.0000 H   0  0  0  0  0  0  0  0  0  0  0  0
    3.2677   -7.7138    0.0000 C   0  0  0  0  0  0  0  0  0  0  0  0
    8.9835   -7.7138    0.0000 C   0  0  0  0  0  0  0  0  0  0  0  0
    3.9822   -6.4763    0.0000 O   0  0  0  0  0  0  0  0  0  0  0  0
    8.2690   -6.4763    0.0000 O   0  0  0  0  0  0  0  0  0  0  0  0
    2.5533   -7.3012    0.0000 C   0  0  0  0  0  0  0  0  0  0  0  0
    1.8388   -7.7138    0.0000 C   0  0  0  0  0  0  0  0  0  0  0  0
    9.6980   -7.3012    0.0000 C   0  0  0  0  0  0  0  0  0  0  0  0
   10.4125   -7.7138    0.0000 C   0  0  0  0  0  0  0  0  0  0  0  0
  1  2  1  0  0  0  0
  2  3  1  0  0  0  0
  3  4  1  0  0  0  0
  4  5  1  0  0  0  0
  5  6  1  0  0  0  0
  6  1  1  0  0  0  0
  3  7  1  0  0  0  0
  4  8  1  0  0  0  0
  8  9  1  0  0  0  0
  2 10  1  0  0  0  0
 10 11  1  0  0  0  0
  6 12  1  0  0  0  0
 11 13  1  0  0  0  0
  9 14  1  0  0  0  0
 11 15  2  0  0  0  0
  9 16  2  0  0  0  0
 13 17  1  0  0  0  0
 17 18  1  0  0  0  0
 14 19  1  0  0  0  0
 19 20  1  0  0  0  0
M  END
>  <cdx:fragmentId>
229

$$$$
