300860.cdx
  Mrv1902 05222410252D          

 14 14  0  0  0  0            999 V2000
    6.9200   -6.7533    0.0000 C   0  0  0  0  0  0  0  0  0  0  0  0
    7.6345   -6.3408    0.0000 C   0  0  0  0  0  0  0  0  0  0  0  0
    8.3490   -6.7533    0.0000 C   0  0  0  0  0  0  0  0  0  0  0  0
    9.0634   -6.3408    0.0000 C   0  0  0  0  0  0  0  0  0  0  0  0
    6.9200   -7.5783    0.0000 O   0  0  0  0  0  0  0  0  0  0  0  0
    6.2056   -6.3408    0.0000 C   0  0  0  0  0  0  0  0  0  0  0  0
    6.2056   -5.5158    0.0000 C   0  0  0  0  0  0  0  0  0  0  0  0
    5.4911   -5.1033    0.0000 C   0  0  0  0  0  0  0  0  0  0  0  0
    4.7766   -5.5158    0.0000 C   0  0  0  0  0  0  0  0  0  0  0  0
    4.7766   -6.3408    0.0000 C   0  0  0  0  0  0  0  0  0  0  0  0
    5.4911   -6.7533    0.0000 C   0  0  0  0  0  0  0  0  0  0  0  0
    5.4911   -7.5783    0.0000 O   0  0  0  0  0  0  0  0  0  0  0  0
    4.0621   -5.1033    0.0000 O   0  0  0  0  0  0  0  0  0  0  0  0
    6.9200   -5.1033    0.0000 O   0  0  0  0  0  0  0  0  0  0  0  0
  1  2  1  0  0  0  0
  2  3  1  0  0  0  0
  3  4  1  0  0  0  0
  1  5  2  0  0  0  0
  6  7  1  0  0  0  0
  7  8  2  0  0  0  0
  8  9  1  0  0  0  0
  9 10  2  0  0  0  0
 10 11  1  0  0  0  0
  6 11  2  0  0  0  0
 11 12  1  0  0  0  0
  9 13  1  0  0  0  0
  7 14  1  0  0  0  0
  1  6  1  0  0  0  0
M  END
>  <cdx:fragmentId>
2872

$$$$
