300857.cdx
  Mrv1902 05222410222D          

 24 23  0  0  0  0            999 V2000
   11.5607   -8.8688    0.0000 C   0  0  0  0  0  0  0  0  0  0  0  0
   10.8463   -9.2813    0.0000 C   0  0  0  0  0  0  0  0  0  0  0  0
   10.1318   -8.8688    0.0000 C   0  0  0  0  0  0  0  0  0  0  0  0
    9.4173   -9.2813    0.0000 C   0  0  0  0  0  0  0  0  0  0  0  0
    8.7029   -8.8688    0.0000 C   0  0  0  0  0  0  0  0  0  0  0  0
    7.9884   -9.2813    0.0000 C   0  0  0  0  0  0  0  0  0  0  0  0
    7.2739   -8.8688    0.0000 C   0  0  0  0  0  0  0  0  0  0  0  0
    6.5594   -9.2813    0.0000 C   0  0  0  0  0  0  0  0  0  0  0  0
    5.8450   -8.8688    0.0000 C   0  0  0  0  0  0  0  0  0  0  0  0
    5.1305   -9.2813    0.0000 C   0  0  0  0  0  0  0  0  0  0  0  0
    4.4160   -8.8688    0.0000 O   0  0  0  0  0  0  0  0  0  0  0  0
    3.7016   -9.2813    0.0000 C   0  0  0  0  0  0  0  0  0  0  0  0
    2.9871   -8.8688    0.0000 C   0  0  0  0  0  0  0  0  0  0  0  0
    2.2726   -9.2813    0.0000 C   0  0  0  0  0  0  0  0  0  0  0  0
    1.5581   -8.8688    0.0000 C   0  0  0  0  0  0  0  0  0  0  0  0
    5.1305  -10.1063    0.0000 O   0  0  0  0  0  0  0  0  0  0  0  0
   11.5607   -8.0437    0.0000 C   0  0  0  0  0  0  0  0  0  0  0  0
   12.2752   -7.6313    0.0000 C   0  0  0  0  0  0  0  0  0  0  0  0
   12.2752   -6.8062    0.0000 C   0  0  0  0  0  0  0  0  0  0  0  0
   11.5607   -6.3937    0.0000 C   0  0  0  0  0  0  0  0  0  0  0  0
   11.5607   -5.5687    0.0000 C   0  0  0  0  0  0  0  0  0  0  0  0
   10.8463   -5.1563    0.0000 C   0  0  0  0  0  0  0  0  0  0  0  0
   10.8463   -4.3313    0.0000 C   0  0  0  0  0  0  0  0  0  0  0  0
   10.1318   -3.9188    0.0000 C   0  0  0  0  0  0  0  0  0  0  0  0
  2  1  2  0  0  0  0
  3  2  1  0  0  0  0
  4  3  1  0  0  0  0
  5  4  1  0  0  0  0
  6  5  1  0  0  0  0
  7  6  1  0  0  0  0
  8  7  1  0  0  0  0
  9  8  1  0  0  0  0
 10  9  1  0  0  0  0
 11 10  1  0  0  0  0
 12 11  1  0  0  0  0
 13 12  1  0  0  0  0
 14 13  1  0  0  0  0
 15 14  1  0  0  0  0
 10 16  2  0  0  0  0
  1 17  1  0  0  0  0
 17 18  1  0  0  0  0
 18 19  2  0  0  0  0
 19 20  1  0  0  0  0
 20 21  1  0  0  0  0
 21 22  1  0  0  0  0
 22 23  1  0  0  0  0
 23 24  1  0  0  0  0
M  END
>  <cdx:fragmentId>
3

$$$$
