300861.cdx
  Mrv1902 05222410242D          

 29 31  0  0  0  0            999 V2000
    6.2733   -9.2931    0.0000 C   0  0  0  0  0  0  0  0  0  0  0  0
    6.2733  -10.1181    0.0000 C   0  0  0  0  0  0  0  0  0  0  0  0
    6.9878  -10.5306    0.0000 C   0  0  0  0  0  0  0  0  0  0  0  0
    7.7022  -10.1181    0.0000 C   0  0  0  0  0  0  0  0  0  0  0  0
    8.4167  -10.5306    0.0000 C   0  0  0  0  0  0  0  0  0  0  0  0
    9.1312  -10.1181    0.0000 C   0  0  0  0  0  0  0  0  0  0  0  0
    9.1312   -9.2931    0.0000 C   0  0  0  0  0  0  0  0  0  0  0  0
    8.4167   -8.8806    0.0000 C   0  0  0  0  0  0  0  0  0  0  0  0
    7.7022   -9.2931    0.0000 C   0  0  0  0  0  0  0  0  0  0  0  0
    6.9878   -8.8806    0.0000 O   0  0  0  0  0  0  0  0  0  0  0  0
    6.9878  -11.3556    0.0000 O   0  0  0  0  0  0  0  0  0  0  0  0
    9.1312   -8.4681    0.0000 H   0  0  0  0  0  0  0  0  0  0  0  0
    9.1312   -7.6431    0.0000 O   0  0  0  0  0  0  0  0  0  0  0  0
    8.4167   -8.0556    0.0000 C   0  0  2  0  0  0  0  0  0  0  0  0
    7.7022   -7.6431    0.0000 C   0  0  1  0  0  0  0  0  0  0  0  0
    7.7022   -6.8181    0.0000 C   0  0  2  0  0  0  0  0  0  0  0  0
    8.4167   -6.4056    0.0000 C   0  0  1  0  0  0  0  0  0  0  0  0
    9.1312   -6.8181    0.0000 C   0  0  1  0  0  0  0  0  0  0  0  0
    9.8456   -6.4056    0.0000 C   0  0  0  0  0  0  0  0  0  0  0  0
    9.8456   -5.5806    0.0000 O   0  0  0  0  0  0  0  0  0  0  0  0
    8.4167   -5.5806    0.0000 O   0  0  0  0  0  0  0  0  0  0  0  0
    5.5588   -8.8806    0.0000 C   0  0  0  0  0  0  0  0  0  0  0  0
    4.8443   -9.2931    0.0000 C   0  0  0  0  0  0  0  0  0  0  0  0
    4.1299   -8.8806    0.0000 C   0  0  0  0  0  0  0  0  0  0  0  0
    8.4167  -11.3556    0.0000 C   0  0  0  0  0  0  0  0  0  0  0  0
    9.8456   -8.8806    0.0000 O   0  0  0  0  0  0  0  0  0  0  0  0
   10.5601   -9.2931    0.0000 C   0  0  0  0  0  0  0  0  0  0  0  0
    6.9878   -6.4056    0.0000 O   0  0  0  0  0  0  0  0  0  0  0  0
    6.9878   -8.0556    0.0000 O   0  0  0  0  0  0  0  0  0  0  0  0
 14 12  1  6  0  0  0
  1  2  2  0  0  0  0
  2  3  1  0  0  0  0
  3  4  1  0  0  0  0
  4  5  1  0  0  0  0
  5  6  2  0  0  0  0
  6  7  1  0  0  0  0
  7  8  2  0  0  0  0
  8  9  1  0  0  0  0
  4  9  2  0  0  0  0
  9 10  1  0  0  0  0
  1 10  1  0  0  0  0
  3 11  2  0  0  0  0
 13 14  1  0  0  0  0
 14 15  1  0  0  0  0
 15 16  1  0  0  0  0
 16 17  1  0  0  0  0
 17 18  1  0  0  0  0
 13 18  1  0  0  0  0
 19 20  1  0  0  0  0
 18 19  1  1  0  0  0
 17 21  1  6  0  0  0
 14  8  1  0  0  0  0
 22 23  2  0  0  0  0
 23 24  1  0  0  0  0
  1 22  1  0  0  0  0
  5 25  1  0  0  0  0
 26 27  1  0  0  0  0
  7 26  1  0  0  0  0
 16 28  1  1  0  0  0
 15 29  1  6  0  0  0
M  END
>  <cdx:fragmentId>
5

$$$$
