300898.cdx
  Mrv1902 05222410232D          

 34 33  0  0  0  0            999 V2000
   12.2281   -8.9863    0.0000 C   0  0  0  0  0  0  0  0  0  0  0  0
   11.5137   -8.5738    0.0000 C   0  0  0  0  0  0  0  0  0  0  0  0
   10.7992   -8.9863    0.0000 C   0  0  0  0  0  0  0  0  0  0  0  0
   10.0847   -8.5738    0.0000 C   0  0  0  0  0  0  0  0  0  0  0  0
    9.3703   -8.9863    0.0000 C   0  0  0  0  0  0  0  0  0  0  0  0
    8.6558   -8.5738    0.0000 C   0  0  0  0  0  0  0  0  0  0  0  0
    7.9413   -8.9863    0.0000 C   0  0  0  0  0  0  0  0  0  0  0  0
    7.2269   -8.5738    0.0000 C   0  0  0  0  0  0  0  0  0  0  0  0
    6.5124   -8.9863    0.0000 C   0  0  0  0  0  0  0  0  0  0  0  0
    5.7979   -8.5738    0.0000 C   0  0  0  0  0  0  0  0  0  0  0  0
    5.0834   -8.9863    0.0000 C   0  0  0  0  0  0  0  0  0  0  0  0
    4.3690   -8.5738    0.0000 C   0  0  0  0  0  0  0  0  0  0  0  0
    3.6545   -8.9863    0.0000 C   0  0  0  0  0  0  0  0  0  0  0  0
    2.9400   -8.5738    0.0000 C   0  0  0  0  0  0  0  0  0  0  0  0
    2.2256   -8.9863    0.0000 C   0  0  0  0  0  0  0  0  0  0  0  0
    1.5111   -8.5738    0.0000 C   0  0  0  0  0  0  0  0  0  0  0  0
   12.2281   -9.8113    0.0000 O   0  0  0  0  0  0  0  0  0  0  0  0
   12.9426   -8.5738    0.0000 O   0  0  0  0  0  0  0  0  0  0  0  0
   13.6571   -8.9863    0.0000 C   0  0  0  0  0  0  0  0  0  0  0  0
   14.3716   -8.5738    0.0000 C   0  0  0  0  0  0  0  0  0  0  0  0
   15.0860   -8.9863    0.0000 C   0  0  0  0  0  0  0  0  0  0  0  0
   15.8005   -8.5738    0.0000 C   0  0  0  0  0  0  0  0  0  0  0  0
   16.5150   -8.9863    0.0000 C   0  0  0  0  0  0  0  0  0  0  0  0
   17.2294   -8.5738    0.0000 C   0  0  2  0  0  0  0  0  0  0  0  0
   17.9439   -8.9863    0.0000 C   0  0  1  0  0  0  0  0  0  0  0  0
   18.6584   -8.5738    0.0000 C   0  0  0  0  0  0  0  0  0  0  0  0
   19.3729   -8.1613    0.0000 C   0  0  0  0  0  0  0  0  0  0  0  0
   20.0873   -7.7488    0.0000 C   0  0  0  0  0  0  0  0  0  0  0  0
   20.8018   -7.3363    0.0000 C   0  0  0  0  0  0  0  0  0  0  0  0
   21.5163   -6.9238    0.0000 C   0  0  0  0  0  0  0  0  0  0  0  0
   22.2307   -7.3363    0.0000 C   0  0  0  0  0  0  0  0  0  0  0  0
   22.9452   -6.9238    0.0000 C   0  0  0  0  0  0  0  0  0  0  0  0
   17.9439   -9.8113    0.0000 O   0  0  0  0  0  0  0  0  0  0  0  0
   17.2294   -7.7488    0.0000 O   0  0  0  0  0  0  0  0  0  0  0  0
  1  2  1  0  0  0  0
  2  3  1  0  0  0  0
  3  4  1  0  0  0  0
  4  5  1  0  0  0  0
  5  6  1  0  0  0  0
  6  7  1  0  0  0  0
  7  8  1  0  0  0  0
  8  9  1  0  0  0  0
  9 10  1  0  0  0  0
 10 11  1  0  0  0  0
 11 12  1  0  0  0  0
 12 13  1  0  0  0  0
 13 14  1  0  0  0  0
 14 15  1  0  0  0  0
 15 16  1  0  0  0  0
  1 17  2  0  0  0  0
  1 18  1  0  0  0  0
 19 20  1  0  0  0  0
 20 21  1  0  0  0  0
 21 22  1  0  0  0  0
 22 23  2  0  0  0  0
 23 24  1  0  0  0  0
 24 25  1  0  0  0  0
 25 26  1  0  0  0  0
 26 27  3  0  0  0  0
 27 28  1  0  0  0  0
 28 29  3  0  0  0  0
 29 30  1  0  0  0  0
 30 31  2  0  0  0  0
 31 32  1  0  0  0  0
 25 33  1  1  0  0  0
 24 34  1  1  0  0  0
 18 19  1  0  0  0  0
M  END
>  <cdx:fragmentId>
5

$$$$
