30088.cdx
  Mrv1902 05222410262D          

 18 17  0  0  0  0            999 V2000
    5.4002   -7.7264    0.0000 N   0  0  0  0  0  0  0  0  0  0  0  0
    4.6857   -9.7889    0.0000 O   0  0  0  0  0  0  0  0  0  0  0  0
    7.5436   -9.7889    0.0000 O   0  0  0  0  0  0  0  0  0  0  0  0
   10.4015  -11.4389    0.0000 C   0  0  0  0  0  0  0  0  0  0  0  0
    9.6870  -11.0264    0.0000 Se  0  0  0  0  0  0  0  0  0  0  0  0
    9.6870  -10.2014    0.0000 C   0  0  0  0  0  0  0  0  0  0  0  0
    8.9726   -9.7889    0.0000 C   0  0  0  0  0  0  0  0  0  0  0  0
    9.6870   -7.7264    0.0000 O   0  0  0  0  0  0  0  0  0  0  0  0
    3.9713   -8.5514    0.0000 O   0  0  0  0  0  0  0  0  0  0  0  0
    4.6857   -8.9639    0.0000 C   0  0  0  0  0  0  0  0  0  0  0  0
    5.4002   -8.5514    0.0000 C   0  0  2  0  0  0  0  0  0  0  0  0
    6.1147   -8.9639    0.0000 C   0  0  0  0  0  0  0  0  0  0  0  0
    6.8292   -8.5514    0.0000 C   0  0  0  0  0  0  0  0  0  0  0  0
    7.5436   -8.9639    0.0000 C   0  0  0  0  0  0  0  0  0  0  0  0
    8.2581   -8.5514    0.0000 N   0  0  0  0  0  0  0  0  0  0  0  0
    8.9726   -8.9639    0.0000 C   0  0  2  0  0  0  0  0  0  0  0  0
    9.6870   -8.5514    0.0000 C   0  0  0  0  0  0  0  0  0  0  0  0
   10.4015   -8.9639    0.0000 O   0  0  0  0  0  0  0  0  0  0  0  0
 11  1  1  1  0  0  0
 10  2  2  0  0  0  0
 14  3  2  0  0  0  0
  5  4  1  0  0  0  0
  6  5  1  0  0  0  0
  7  6  1  0  0  0  0
 16  7  1  0  0  0  0
 17  8  2  0  0  0  0
 10  9  1  0  0  0  0
 11 10  1  0  0  0  0
 12 11  1  0  0  0  0
 13 12  1  0  0  0  0
 14 13  1  0  0  0  0
 15 14  1  0  0  0  0
 16 15  1  6  0  0  0
 17 16  1  0  0  0  0
 18 17  1  0  0  0  0
M  END
>  <cdx:fragmentId>
3

$$$$
