300850.cdx
  Mrv1902 05222410212D          

 31 33  0  0  0  0            999 V2000
    9.2277   -5.9975    0.0000 C   0  0  0  0  0  0  0  0  0  0  0  0
    8.5132   -5.5850    0.0000 C   0  0  0  0  0  0  0  0  0  0  0  0
    9.2277   -6.8225    0.0000 C   0  0  0  0  0  0  0  0  0  0  0  0
    8.5132   -7.2350    0.0000 C   0  0  0  0  0  0  0  0  0  0  0  0
    8.5132   -8.0600    0.0000 C   0  0  0  0  0  0  0  0  0  0  0  0
    9.2277   -8.4725    0.0000 C   0  0  0  0  0  0  0  0  0  0  0  0
    9.9421   -8.0600    0.0000 C   0  0  0  0  0  0  0  0  0  0  0  0
    9.9421   -7.2350    0.0000 C   0  0  0  0  0  0  0  0  0  0  0  0
    7.7987   -9.2975    0.0000 O   0  0  0  0  0  0  0  0  0  0  0  0
    8.5132   -9.7100    0.0000 C   0  0  2  0  0  0  0  0  0  0  0  0
    8.5132  -10.5350    0.0000 C   0  0  1  0  0  0  0  0  0  0  0  0
    7.7987  -10.9475    0.0000 C   0  0  2  0  0  0  0  0  0  0  0  0
    7.0843  -10.5350    0.0000 C   0  0  1  0  0  0  0  0  0  0  0  0
    7.0843   -9.7100    0.0000 C   0  0  1  0  0  0  0  0  0  0  0  0
    6.3698  -10.9475    0.0000 O   0  0  0  0  0  0  0  0  0  0  0  0
    7.7987  -11.7725    0.0000 O   0  0  0  0  0  0  0  0  0  0  0  0
    9.2277  -10.9475    0.0000 O   0  0  0  0  0  0  0  0  0  0  0  0
    7.7987   -6.8225    0.0000 O   0  0  0  0  0  0  0  0  0  0  0  0
    9.9421   -5.5850    0.0000 O   0  0  0  0  0  0  0  0  0  0  0  0
    9.2277   -9.2975    0.0000 O   0  0  0  0  0  0  0  0  0  0  0  0
    6.3698   -6.8225    0.0000 O   0  0  0  0  0  0  0  0  0  0  0  0
    4.9409   -5.9975    0.0000 O   0  0  0  0  0  0  0  0  0  0  0  0
    3.5119   -6.8225    0.0000 O   0  0  0  0  0  0  0  0  0  0  0  0
    4.2264   -8.0600    0.0000 C   0  0  0  0  0  0  0  0  0  0  0  0
    4.2264   -7.2350    0.0000 C   0  0  2  0  0  0  0  0  0  0  0  0
    4.9409   -6.8225    0.0000 C   0  0  1  0  0  0  0  0  0  0  0  0
    5.6553   -7.2350    0.0000 C   0  0  2  0  0  0  0  0  0  0  0  0
    5.6553   -8.0600    0.0000 C   0  0  1  0  0  0  0  0  0  0  0  0
    4.9409   -8.4725    0.0000 O   0  0  0  0  0  0  0  0  0  0  0  0
    6.3698   -8.4725    0.0000 O   0  0  0  0  0  0  0  0  0  0  0  0
    6.3698   -9.2975    0.0000 C   0  0  0  0  0  0  0  0  0  0  0  0
  6 20  1  0  0  0  0
 31 30  1  0  0  0  0
 28 30  1  6  0  0  0
 27 21  1  1  0  0  0
 26 22  1  6  0  0  0
 25 23  1  1  0  0  0
 29 24  1  0  0  0  0
 25 24  1  0  0  0  0
 26 25  1  0  0  0  0
 27 26  1  0  0  0  0
 28 27  1  0  0  0  0
 29 28  1  0  0  0  0
  1  2  1  0  0  0  0
  3  4  1  0  0  0  0
  4  5  2  0  0  0  0
  5  6  1  0  0  0  0
  6  7  2  0  0  0  0
  7  8  1  0  0  0  0
  9 10  1  0  0  0  0
 10 11  1  0  0  0  0
 11 12  1  0  0  0  0
 12 13  1  0  0  0  0
 13 14  1  0  0  0  0
  9 14  1  0  0  0  0
 14 31  1  1  0  0  0
 13 15  1  6  0  0  0
 12 16  1  1  0  0  0
 11 17  1  6  0  0  0
 10 20  1  1  0  0  0
  3  8  2  0  0  0  0
  4 18  1  0  0  0  0
  1  3  1  0  0  0  0
  1 19  2  0  0  0  0
M  END
>  <cdx:fragmentId>
39

$$$$
