300884.cdx
  Mrv1902 05222410212D          

 23 23  0  0  0  0            999 V2000
    4.6827   -5.9283    0.0000 C   0  0  0  0  0  0  0  0  0  0  0  0
    5.3971   -6.3408    0.0000 C   0  0  0  0  0  0  0  0  0  0  0  0
    5.3971   -7.1658    0.0000 C   0  0  0  0  0  0  0  0  0  0  0  0
    4.6827   -7.5783    0.0000 C   0  0  0  0  0  0  0  0  0  0  0  0
    3.9682   -7.1658    0.0000 C   0  0  0  0  0  0  0  0  0  0  0  0
    3.9682   -6.3408    0.0000 C   0  0  0  0  0  0  0  0  0  0  0  0
    4.6827   -5.1033    0.0000 O   0  0  0  0  0  0  0  0  0  0  0  0
    6.1116   -7.5783    0.0000 O   0  0  0  0  0  0  0  0  0  0  0  0
    3.2537   -7.5783    0.0000 C   0  0  0  0  0  0  0  0  0  0  0  0
    2.5393   -7.1658    0.0000 C   0  0  0  0  0  0  0  0  0  0  0  0
    1.8248   -7.5783    0.0000 C   0  0  0  0  0  0  0  0  0  0  0  0
    1.1103   -7.1658    0.0000 C   0  0  0  0  0  0  0  0  0  0  0  0
    0.3958   -7.5783    0.0000 C   0  0  0  0  0  0  0  0  0  0  0  0
    6.1116   -5.9283    0.0000 C   0  0  0  0  0  0  0  0  0  0  0  0
    6.8261   -6.3408    0.0000 C   0  0  0  0  0  0  0  0  0  0  0  0
    7.5406   -5.9283    0.0000 C   0  0  0  0  0  0  0  0  0  0  0  0
    8.2550   -6.3408    0.0000 C   0  0  0  0  0  0  0  0  0  0  0  0
    8.9695   -5.9283    0.0000 C   0  0  0  0  0  0  0  0  0  0  0  0
    9.6840   -6.3408    0.0000 C   0  0  0  0  0  0  0  0  0  0  0  0
   10.3984   -5.9283    0.0000 C   0  0  0  0  0  0  0  0  0  0  0  0
   10.3984   -5.1033    0.0000 C   0  0  0  0  0  0  0  0  0  0  0  0
   11.1129   -6.3408    0.0000 C   0  0  0  0  0  0  0  0  0  0  0  0
    7.5406   -5.1033    0.0000 C   0  0  0  0  0  0  0  0  0  0  0  0
  1  2  1  0  0  0  0
  2  3  2  0  0  0  0
  3  4  1  0  0  0  0
  4  5  2  0  0  0  0
  5  6  1  0  0  0  0
  1  6  2  0  0  0  0
  1  7  1  0  0  0  0
  3  8  1  0  0  0  0
  9 10  1  0  0  0  0
 10 11  1  0  0  0  0
 11 12  1  0  0  0  0
 12 13  1  0  0  0  0
  5  9  1  0  0  0  0
 14 15  1  0  0  0  0
 15 16  2  0  0  0  0
 16 17  1  0  0  0  0
 17 18  1  0  0  0  0
 18 19  1  0  0  0  0
 19 20  2  0  0  0  0
 20 21  1  0  0  0  0
 20 22  1  0  0  0  0
 16 23  1  0  0  0  0
  2 14  1  0  0  0  0
M  END
>  <cdx:fragmentId>
865

$$$$
