300883.cdx
  Mrv1902 05222410222D          

 23 24  0  0  0  0            999 V2000
    5.8973   -6.6210    0.0000 C   0  0  0  0  0  0  0  0  0  0  0  0
    6.6117   -7.0335    0.0000 C   0  0  0  0  0  0  0  0  0  0  0  0
    6.6117   -7.8585    0.0000 C   0  0  0  0  0  0  0  0  0  0  0  0
    5.8973   -8.2710    0.0000 C   0  0  0  0  0  0  0  0  0  0  0  0
    5.1828   -7.8585    0.0000 C   0  0  0  0  0  0  0  0  0  0  0  0
    5.1828   -7.0335    0.0000 C   0  0  0  0  0  0  0  0  0  0  0  0
    5.8973   -5.7960    0.0000 O   0  0  0  0  0  0  0  0  0  0  0  0
    7.3262   -8.2710    0.0000 O   0  0  0  0  0  0  0  0  0  0  0  0
    4.4683   -8.2710    0.0000 C   0  0  0  0  0  0  0  0  0  0  0  0
    3.7539   -7.8585    0.0000 C   0  0  0  0  0  0  0  0  0  0  0  0
    3.0394   -8.2710    0.0000 C   0  0  0  0  0  0  0  0  0  0  0  0
    2.3249   -7.8585    0.0000 C   0  0  0  0  0  0  0  0  0  0  0  0
    1.6104   -8.2710    0.0000 C   0  0  0  0  0  0  0  0  0  0  0  0
    7.7549   -6.3735    0.0000 C   0  0  2  0  0  0  0  0  0  0  0  0
    8.4694   -6.7860    0.0000 C   0  0  0  0  0  0  0  0  0  0  0  0
    9.1838   -6.3735    0.0000 C   0  0  0  0  0  0  0  0  0  0  0  0
    9.1838   -5.5485    0.0000 C   0  0  0  0  0  0  0  0  0  0  0  0
    8.4694   -5.1360    0.0000 C   0  0  0  0  0  0  0  0  0  0  0  0
    7.7549   -5.5485    0.0000 C   0  0  1  0  0  0  0  0  0  0  0  0
    7.0404   -4.3110    0.0000 C   0  0  0  0  0  0  0  0  0  0  0  0
    7.0404   -5.1360    0.0000 C   0  0  0  0  0  0  0  0  0  0  0  0
    6.3260   -5.5485    0.0000 C   0  0  0  0  0  0  0  0  0  0  0  0
    9.8983   -6.7860    0.0000 C   0  0  0  0  0  0  0  0  0  0  0  0
  1  2  1  0  0  0  0
  2  3  2  0  0  0  0
  3  4  1  0  0  0  0
  4  5  2  0  0  0  0
  5  6  1  0  0  0  0
  1  6  2  0  0  0  0
  1  7  1  0  0  0  0
  3  8  1  0  0  0  0
  9 10  1  0  0  0  0
 10 11  1  0  0  0  0
 11 12  1  0  0  0  0
 12 13  1  0  0  0  0
  5  9  1  0  0  0  0
 14 15  1  0  0  0  0
 15 16  2  0  0  0  0
 16 17  1  0  0  0  0
 17 18  1  0  0  0  0
 18 19  1  0  0  0  0
 14 19  1  0  0  0  0
 20 21  2  0  0  0  0
 21 22  1  0  0  0  0
 19 21  1  6  0  0  0
 16 23  1  0  0  0  0
 14  2  1  1  0  0  0
M  END
>  <cdx:fragmentId>
792

$$$$
