300833.cdx
  Mrv1902 05222410192D          

 53 57  0  0  0  0            999 V2000
    9.9120  -10.3422    0.0000 C   0  0  2  0  0  0  0  0  0  0  0  0
    9.9126  -11.1672    0.0000 C   0  0  0  0  0  0  0  0  0  0  0  0
    9.1985  -11.5803    0.0000 C   0  0  0  0  0  0  0  0  0  0  0  0
    8.4837  -11.1683    0.0000 C   0  0  0  0  0  0  0  0  0  0  0  0
    7.7695  -11.5814    0.0000 C   0  0  0  0  0  0  0  0  0  0  0  0
    7.0548  -11.1694    0.0000 C   0  0  0  0  0  0  0  0  0  0  0  0
    7.0541  -10.3444    0.0000 C   0  0  0  0  0  0  0  0  0  0  0  0
    7.7683   -9.9314    0.0000 C   0  0  0  0  0  0  0  0  0  0  0  0
    8.4831  -10.3433    0.0000 C   0  0  0  0  0  0  0  0  0  0  0  0
    9.1972   -9.9303    0.0000 O   0  0  0  0  0  0  0  0  0  0  0  0
    9.1991  -12.4053    0.0000 O   0  0  0  0  0  0  0  0  0  0  0  0
   10.6262   -9.9292    0.0000 C   0  0  0  0  0  0  0  0  0  0  0  0
   10.6255   -9.1042    0.0000 C   0  0  0  0  0  0  0  0  0  0  0  0
   11.3397   -8.6911    0.0000 C   0  0  0  0  0  0  0  0  0  0  0  0
   12.0545   -9.1031    0.0000 C   0  0  0  0  0  0  0  0  0  0  0  0
   12.0551   -9.9281    0.0000 C   0  0  0  0  0  0  0  0  0  0  0  0
   11.3410  -10.3411    0.0000 C   0  0  0  0  0  0  0  0  0  0  0  0
   12.7686   -8.6901    0.0000 O   0  0  0  0  0  0  0  0  0  0  0  0
   12.7680   -7.8651    0.0000 C   0  0  0  0  0  0  0  0  0  0  0  0
   11.3391   -7.8662    0.0000 O   0  0  0  0  0  0  0  0  0  0  0  0
    7.7702  -12.4064    0.0000 O   0  0  0  0  0  0  0  0  0  0  0  0
    6.3368   -6.6325    0.0000 O   0  0  0  0  0  0  0  0  0  0  0  0
    4.9085   -7.4586    0.0000 O   0  0  0  0  0  0  0  0  0  0  0  0
    6.3393   -9.9325    0.0000 O   0  0  0  0  0  0  0  0  0  0  0  0
    3.4815   -9.9347    0.0000 O   0  0  0  0  0  0  0  0  0  0  0  0
    2.0519   -9.1108    0.0000 O   0  0  0  0  0  0  0  0  0  0  0  0
    2.0506   -7.4608    0.0000 O   0  0  0  0  0  0  0  0  0  0  0  0
    3.4789   -6.6347    0.0000 C   0  0  0  0  0  0  0  0  0  0  0  0
    3.4796   -7.4597    0.0000 C   0  0  1  0  0  0  0  0  0  0  0  0
    2.7654   -7.8727    0.0000 C   0  0  1  0  0  0  0  0  0  0  0  0
    2.7660   -8.6977    0.0000 C   0  0  2  0  0  0  0  0  0  0  0  0
    3.4808   -9.1097    0.0000 C   0  0  2  0  0  0  0  0  0  0  0  0
    4.1950   -8.6966    0.0000 C   0  0  1  0  0  0  0  0  0  0  0  0
    4.1944   -7.8716    0.0000 O   0  0  0  0  0  0  0  0  0  0  0  0
    4.9098   -9.1086    0.0000 O   0  0  0  0  0  0  0  0  0  0  0  0
    6.3387   -9.1075    0.0000 C   0  0  1  0  0  0  0  0  0  0  0  0
    5.6239   -8.6955    0.0000 C   0  0  1  0  0  0  0  0  0  0  0  0
    5.6233   -7.8705    0.0000 C   0  0  2  0  0  0  0  0  0  0  0  0
    6.3374   -7.4575    0.0000 C   0  0  1  0  0  0  0  0  0  0  0  0
    7.0522   -7.8694    0.0000 C   0  0  2  0  0  0  0  0  0  0  0  0
    7.0529   -8.6944    0.0000 O   0  0  0  0  0  0  0  0  0  0  0  0
    7.7664   -7.4564    0.0000 C   0  0  0  0  0  0  0  0  0  0  0  0
    7.7658   -6.6314    0.0000 O   0  0  0  0  0  0  0  0  0  0  0  0
    9.6065   -5.6944    0.0000 O   0  0  0  0  0  0  0  0  0  0  0  0
   10.0184   -4.9797    0.0000 C   0  0  0  0  0  0  0  0  0  0  0  0
    9.1947   -6.6303    0.0000 O   0  0  0  0  0  0  0  0  0  0  0  0
    9.9063   -2.9172    0.0000 O   0  0  0  0  0  0  0  0  0  0  0  0
   10.6217   -4.1542    0.0000 O   0  0  0  0  0  0  0  0  0  0  0  0
    8.4799   -6.2183    0.0000 C   0  0  0  0  0  0  0  0  0  0  0  0
    8.4793   -5.3933    0.0000 C   0  0  0  0  0  0  0  0  0  0  0  0
    9.1934   -4.9803    0.0000 C   0  0  0  0  0  0  0  0  0  0  0  0
    9.1928   -4.1553    0.0000 C   0  0  0  0  0  0  0  0  0  0  0  0
    9.9070   -3.7422    0.0000 C   0  0  0  0  0  0  0  0  0  0  0  0
 49 43  1  0  0  0  0
 40 42  1  1  0  0  0
 39 22  1  6  0  0  0
 38 23  1  1  0  0  0
 36 24  1  1  0  0  0
 37 35  1  6  0  0  0
 33 35  1  1  0  0  0
 32 25  1  6  0  0  0
 31 26  1  6  0  0  0
 30 27  1  1  0  0  0
 29 28  1  6  0  0  0
 34 29  1  0  0  0  0
 30 29  1  0  0  0  0
 31 30  1  0  0  0  0
 32 31  1  0  0  0  0
 33 32  1  0  0  0  0
 34 33  1  0  0  0  0
 41 36  1  0  0  0  0
 37 36  1  0  0  0  0
 38 37  1  0  0  0  0
 39 38  1  0  0  0  0
 40 39  1  0  0  0  0
 41 40  1  0  0  0  0
 43 42  1  0  0  0  0
 51 44  1  0  0  0  0
 51 45  1  0  0  0  0
 49 46  2  0  0  0  0
 53 47  1  0  0  0  0
 53 48  2  0  0  0  0
 50 49  1  0  0  0  0
 51 50  1  0  0  0  0
 52 51  1  0  0  0  0
 53 52  1  0  0  0  0
  1  2  1  0  0  0  0
  2  3  1  0  0  0  0
  3  4  1  0  0  0  0
  4  5  1  0  0  0  0
  5  6  2  0  0  0  0
  6  7  1  0  0  0  0
  7  8  2  0  0  0  0
  8  9  1  0  0  0  0
  4  9  2  0  0  0  0
  9 10  1  0  0  0  0
  1 10  1  0  0  0  0
  3 11  2  0  0  0  0
 12 13  1  0  0  0  0
 13 14  2  0  0  0  0
 14 15  1  0  0  0  0
 15 16  2  0  0  0  0
 16 17  1  0  0  0  0
 12 17  2  0  0  0  0
 18 19  1  0  0  0  0
 15 18  1  0  0  0  0
 14 20  1  0  0  0  0
  1 12  1  6  0  0  0
  5 21  1  0  0  0  0
 24  7  1  0  0  0  0
M  END
>  <cdx:fragmentId>
65

$$$$
