300828.cdx
  Mrv1902 05222410282D          

 32 36  0  0  0  0            999 V2000
    7.1954   -8.6666    0.0000 H   0  0  0  0  0  0  0  0  0  0  0  0
    6.4809   -7.4291    0.0000 H   0  0  0  0  0  0  0  0  0  0  0  0
    7.9099   -7.4291    0.0000 H   0  0  0  0  0  0  0  0  0  0  0  0
    9.3388   -9.9041    0.0000 O   0  0  0  0  0  0  0  0  0  0  0  0
   10.0538   -9.4926    0.0000 O   0  0  0  0  0  0  0  0  0  0  0  0
    4.3375   -9.4916    0.0000 O   0  0  0  0  0  0  0  0  0  0  0  0
    5.7664  -10.3166    0.0000 O   0  0  0  0  0  0  0  0  0  0  0  0
    6.4809  -10.7291    0.0000 O   0  0  0  0  0  0  0  0  0  0  0  0
    7.9099  -11.5541    0.0000 O   0  0  0  0  0  0  0  0  0  0  0  0
    5.7664   -7.0166    0.0000 C   0  0  0  0  0  0  0  0  0  0  0  0
    6.4809   -9.9041    0.0000 C   0  0  0  0  0  0  0  0  0  0  0  0
    9.3388  -10.7291    0.0000 C   0  0  0  0  0  0  0  0  0  0  0  0
   10.0535   -7.8426    0.0000 O   0  0  0  0  0  0  0  0  0  0  0  0
    7.6046   -9.6860    0.0000 C   0  0  0  0  0  0  0  0  0  0  0  0
    7.9449  -10.2755    0.0000 O   0  0  0  0  0  0  0  0  0  0  0  0
    8.6243  -10.3166    0.0000 C   0  0  1  0  0  0  0  0  0  0  0  0
    7.9099  -10.7291    0.0000 C   0  0  2  0  0  0  0  0  0  0  0  0
    7.1954  -10.3166    0.0000 C   0  0  1  0  0  0  0  0  0  0  0  0
    7.1954   -9.4916    0.0000 C   0  0  2  0  0  0  0  0  0  0  0  0
    6.4809   -9.0791    0.0000 C   0  0  2  0  0  0  0  0  0  0  0  0
    5.7664   -9.4916    0.0000 C   0  0  1  0  0  0  0  0  0  0  0  0
    5.0520   -9.0791    0.0000 C   0  0  2  0  0  0  0  0  0  0  0  0
    5.0520   -8.2541    0.0000 C   0  0  0  0  0  0  0  0  0  0  0  0
    5.7664   -7.8416    0.0000 C   0  0  0  0  0  0  0  0  0  0  0  0
    6.4809   -8.2541    0.0000 C   0  0  2  0  0  0  0  0  0  0  0  0
    7.1954   -7.8416    0.0000 C   0  0  0  0  0  0  0  0  0  0  0  0
    7.9099   -8.2541    0.0000 C   0  0  1  0  0  0  0  0  0  0  0  0
    8.6247   -7.8423    0.0000 O   0  0  0  0  0  0  0  0  0  0  0  0
    9.3391   -8.2551    0.0000 C   0  0  0  0  0  0  0  0  0  0  0  0
    9.3393   -9.0801    0.0000 C   0  0  1  0  0  0  0  0  0  0  0  0
    8.6243   -9.4916    0.0000 C   0  0  1  0  0  0  0  0  0  0  0  0
    7.9099   -9.0791    0.0000 C   0  0  2  0  0  0  0  0  0  0  0  0
 19  1  1  1  0  0  0
 25  2  1  1  0  0  0
 27  3  1  6  0  0  0
 31  4  1  6  0  0  0
 30  5  1  6  0  0  0
 22  6  1  1  0  0  0
 21  7  1  6  0  0  0
 18  8  1  6  0  0  0
 17  9  1  1  0  0  0
 24 10  1  0  0  0  0
 20 11  1  6  0  0  0
 16 12  1  0  0  0  0
 29 13  2  0  0  0  0
 32 27  1  0  0  0  0
 25 20  1  0  0  0  0
 31 16  1  0  0  0  0
 32 19  1  0  0  0  0
 32 14  1  6  0  0  0
 15 14  1  0  0  0  0
 16 15  1  6  0  0  0
 17 16  1  0  0  0  0
 18 17  1  0  0  0  0
 19 18  1  0  0  0  0
 20 19  1  0  0  0  0
 21 20  1  0  0  0  0
 22 21  1  0  0  0  0
 23 22  1  0  0  0  0
 24 23  2  0  0  0  0
 25 24  1  0  0  0  0
 26 25  1  0  0  0  0
 27 26  1  0  0  0  0
 28 27  1  0  0  0  0
 29 28  1  0  0  0  0
 30 29  1  0  0  0  0
 31 30  1  0  0  0  0
 32 31  1  0  0  0  0
M  END
>  <cdx:fragmentId>
5

$$$$
