300822.cdx
  Mrv1902 05222410192D          

 13 13  0  0  0  0            999 V2000
    5.1002   -6.7114    0.0000 C   0  0  0  0  0  0  0  0  0  0  0  0
    4.3858   -7.1239    0.0000 C   0  0  0  0  0  0  0  0  0  0  0  0
    5.1002   -5.8864    0.0000 O   0  0  0  0  0  0  0  0  0  0  0  0
    5.8147   -7.1239    0.0000 O   0  0  0  0  0  0  0  0  0  0  0  0
    3.6713   -6.7114    0.0000 Br  0  0  0  0  0  0  0  0  0  0  0  0
    6.5292   -6.7114    0.0000 C   0  0  0  0  0  0  0  0  0  0  0  0
    7.2437   -7.1239    0.0000 C   0  0  0  0  0  0  0  0  0  0  0  0
    7.9581   -6.7114    0.0000 C   0  0  0  0  0  0  0  0  0  0  0  0
    8.6726   -7.1239    0.0000 C   0  0  0  0  0  0  0  0  0  0  0  0
    9.3871   -6.7114    0.0000 C   0  0  0  0  0  0  0  0  0  0  0  0
    9.3871   -5.8864    0.0000 C   0  0  0  0  0  0  0  0  0  0  0  0
    8.6726   -5.4739    0.0000 C   0  0  0  0  0  0  0  0  0  0  0  0
    7.9581   -5.8864    0.0000 C   0  0  0  0  0  0  0  0  0  0  0  0
  1  2  1  0  0  0  0
  1  3  2  0  0  0  0
  1  4  1  0  0  0  0
  2  5  1  0  0  0  0
  6  7  1  0  0  0  0
  8  9  1  0  0  0  0
  9 10  2  0  0  0  0
 10 11  1  0  0  0  0
 11 12  2  0  0  0  0
 12 13  1  0  0  0  0
  8 13  2  0  0  0  0
  7  8  1  0  0  0  0
  4  6  1  0  0  0  0
M  END
>  <cdx:fragmentId>
1157

$$$$
