300827.cdx
  Mrv1902 05222410192D          

 31 35  0  0  0  0            999 V2000
    6.6264   -6.5983    0.0000 C   0  0  2  0  0  0  0  0  0  0  0  0
    7.3408   -6.1858    0.0000 C   0  0  1  0  0  0  0  0  0  0  0  0
    8.0558   -6.5973    0.0000 C   0  0  2  0  0  0  0  0  0  0  0  0
    8.0556   -7.4223    0.0000 C   0  0  0  0  0  0  0  0  0  0  0  0
    7.3412   -7.8351    0.0000 O   0  0  0  0  0  0  0  0  0  0  0  0
    6.6264   -7.4233    0.0000 C   0  0  2  0  0  0  0  0  0  0  0  0
    5.9119   -7.8358    0.0000 C   0  0  0  0  0  0  0  0  0  0  0  0
    5.1974   -7.4233    0.0000 C   0  0  1  0  0  0  0  0  0  0  0  0
    4.4830   -7.8358    0.0000 C   0  0  0  0  0  0  0  0  0  0  0  0
    3.7685   -7.4233    0.0000 C   0  0  0  0  0  0  0  0  0  0  0  0
    3.7685   -6.5983    0.0000 C   0  0  0  0  0  0  0  0  0  0  0  0
    4.4830   -6.1858    0.0000 C   0  0  2  0  0  0  0  0  0  0  0  0
    5.1974   -6.5983    0.0000 C   0  0  2  0  0  0  0  0  0  0  0  0
    5.9119   -6.1858    0.0000 C   0  0  1  0  0  0  0  0  0  0  0  0
    5.9119   -5.3608    0.0000 C   0  0  2  0  0  0  0  0  0  0  0  0
    6.6264   -4.9483    0.0000 C   0  0  1  0  0  0  0  0  0  0  0  0
    7.3408   -5.3608    0.0000 C   0  0  1  0  0  0  0  0  0  0  0  0
    6.6615   -5.4019    0.0000 O   0  0  0  0  0  0  0  0  0  0  0  0
    6.3211   -5.9914    0.0000 C   0  0  0  0  0  0  0  0  0  0  0  0
    8.7700   -7.8348    0.0000 O   0  0  0  0  0  0  0  0  0  0  0  0
    4.4830   -8.6608    0.0000 C   0  0  0  0  0  0  0  0  0  0  0  0
    8.0553   -4.9483    0.0000 C   0  0  0  0  0  0  0  0  0  0  0  0
    5.1974   -5.7733    0.0000 C   0  0  0  0  0  0  0  0  0  0  0  0
    6.6264   -4.1233    0.0000 O   0  0  0  0  0  0  0  0  0  0  0  0
    5.1974   -4.9483    0.0000 O   0  0  0  0  0  0  0  0  0  0  0  0
    4.4830   -5.3608    0.0000 O   0  0  0  0  0  0  0  0  0  0  0  0
    8.7703   -6.1848    0.0000 O   0  0  0  0  0  0  0  0  0  0  0  0
    8.0553   -5.7733    0.0000 O   0  0  0  0  0  0  0  0  0  0  0  0
    6.6264   -8.2483    0.0000 H   0  0  0  0  0  0  0  0  0  0  0  0
    5.1974   -8.2483    0.0000 H   0  0  0  0  0  0  0  0  0  0  0  0
    5.9119   -7.0108    0.0000 H   0  0  0  0  0  0  0  0  0  0  0  0
  1  2  1  0  0  0  0
  2  3  1  0  0  0  0
  3  4  1  0  0  0  0
  4  5  1  0  0  0  0
  5  6  1  0  0  0  0
  6  7  1  0  0  0  0
  7  8  1  0  0  0  0
  8  9  1  0  0  0  0
  9 10  1  0  0  0  0
 10 11  2  0  0  0  0
 11 12  1  0  0  0  0
 12 13  1  0  0  0  0
 13 14  1  0  0  0  0
 14 15  1  0  0  0  0
 15 16  1  0  0  0  0
 16 17  1  0  0  0  0
 17 18  1  1  0  0  0
 18 19  1  0  0  0  0
  1 19  1  1  0  0  0
  1 14  1  0  0  0  0
  1  6  1  0  0  0  0
  2 17  1  0  0  0  0
  8 13  1  0  0  0  0
  4 20  2  0  0  0  0
  9 21  2  0  0  0  0
 17 22  1  0  0  0  0
 13 23  1  1  0  0  0
 16 24  1  6  0  0  0
 15 25  1  1  0  0  0
 12 26  1  1  0  0  0
  3 27  1  1  0  0  0
  2 28  1  1  0  0  0
  6 29  1  1  0  0  0
  8 30  1  6  0  0  0
 14 31  1  6  0  0  0
M  END
>  <cdx:fragmentId>
1605

$$$$
