300879.cdx
  Mrv1902 05222410212D          

 35 40  0  0  0  0            999 V2000
    6.2584   -9.7989    0.0000 C   0  0  2  0  0  0  0  0  0  0  0  0
    6.9719   -9.3848    0.0000 C   0  0  2  0  0  0  0  0  0  0  0  0
    6.9701   -8.5598    0.0000 C   0  0  0  0  0  0  0  0  0  0  0  0
    7.6836   -8.1458    0.0000 C   0  0  0  0  0  0  0  0  0  0  0  0
    8.3990   -8.5567    0.0000 C   0  0  1  0  0  0  0  0  0  0  0  0
    9.1126   -8.1426    0.0000 C   0  0  2  0  0  0  0  0  0  0  0  0
    9.1107   -7.3176    0.0000 C   0  0  0  0  0  0  0  0  0  0  0  0
    9.8243   -6.9035    0.0000 C   0  0  0  0  0  0  0  0  0  0  0  0
   10.5397   -7.3144    0.0000 C   0  0  0  0  0  0  0  0  0  0  0  0
   10.5415   -8.1394    0.0000 C   0  0  0  0  0  0  0  0  0  0  0  0
    9.8280   -8.5535    0.0000 C   0  0  2  0  0  0  0  0  0  0  0  0
    9.8298   -9.3785    0.0000 C   0  0  0  0  0  0  0  0  0  0  0  0
    9.1163   -9.7926    0.0000 C   0  0  0  0  0  0  0  0  0  0  0  0
    8.4009   -9.3817    0.0000 C   0  0  2  0  0  0  0  0  0  0  0  0
    7.6873   -9.7958    0.0000 C   0  0  1  0  0  0  0  0  0  0  0  0
    7.6891  -10.6208    0.0000 C   0  0  0  0  0  0  0  0  0  0  0  0
    6.9756  -11.0348    0.0000 C   0  0  0  0  0  0  0  0  0  0  0  0
    6.2602  -10.6239    0.0000 C   0  0  1  0  0  0  0  0  0  0  0  0
    5.5467  -11.0380    0.0000 C   0  0  0  0  0  0  0  0  0  0  0  0
    4.8313  -10.6271    0.0000 C   0  0  2  0  0  0  0  0  0  0  0  0
    4.8294   -9.8021    0.0000 C   0  0  0  0  0  0  0  0  0  0  0  0
    5.5430   -9.3880    0.0000 C   0  0  0  0  0  0  0  0  0  0  0  0
    5.3760   -9.9229    0.0000 O   0  0  0  0  0  0  0  0  0  0  0  0
    5.9607  -11.7516    0.0000 C   0  0  0  0  0  0  0  0  0  0  0  0
    5.1357  -11.7534    0.0000 C   0  0  0  0  0  0  0  0  0  0  0  0
    8.4027  -10.2067    0.0000 C   0  0  0  0  0  0  0  0  0  0  0  0
   10.5434   -8.9644    0.0000 C   0  0  0  0  0  0  0  0  0  0  0  0
    9.4102   -6.1899    0.0000 C   0  0  0  0  0  0  0  0  0  0  0  0
   10.2352   -6.1881    0.0000 C   0  0  0  0  0  0  0  0  0  0  0  0
    8.3972   -7.7317    0.0000 C   0  0  0  0  0  0  0  0  0  0  0  0
    6.2565   -8.9739    0.0000 C   0  0  0  0  0  0  0  0  0  0  0  0
    9.1144   -8.9676    0.0000 H   0  0  0  0  0  0  0  0  0  0  0  0
    7.6855   -8.9708    0.0000 H   0  0  0  0  0  0  0  0  0  0  0  0
    6.2620  -11.4489    0.0000 H   0  0  0  0  0  0  0  0  0  0  0  0
    4.1177  -11.0412    0.0000 H   0  0  0  0  0  0  0  0  0  0  0  0
  1  2  1  0  0  0  0
  2  3  1  0  0  0  0
  3  4  1  0  0  0  0
  4  5  1  0  0  0  0
  5  6  1  0  0  0  0
  6  7  1  0  0  0  0
  7  8  1  0  0  0  0
  8  9  1  0  0  0  0
  9 10  1  0  0  0  0
 10 11  1  0  0  0  0
 11 12  1  0  0  0  0
 12 13  1  0  0  0  0
 13 14  1  0  0  0  0
 14 15  1  0  0  0  0
 15 16  1  0  0  0  0
 16 17  1  0  0  0  0
 17 18  1  0  0  0  0
 18 19  1  0  0  0  0
 19 20  1  0  0  0  0
 20 21  1  0  0  0  0
 21 22  1  0  0  0  0
  1 22  1  0  0  0  0
  1 23  1  1  0  0  0
 20 23  1  0  0  0  0
  1 18  1  0  0  0  0
  2 15  1  0  0  0  0
  5 14  1  0  0  0  0
  6 11  1  0  0  0  0
 19 24  1  0  0  0  0
 19 25  1  0  0  0  0
 14 26  1  1  0  0  0
 11 27  1  1  0  0  0
  8 28  1  0  0  0  0
  8 29  1  0  0  0  0
  5 30  1  6  0  0  0
  2 31  1  1  0  0  0
  6 32  1  1  0  0  0
 15 33  1  6  0  0  0
 18 34  1  6  0  0  0
 20 35  1  1  0  0  0
M  END
>  <cdx:fragmentId>
5

$$$$
