300859.cdx
  Mrv1902 05222410242D          

 15 17  0  0  0  0            999 V2000
    6.8343   -7.4256    0.0000 C   0  0  0  0  0  0  0  0  0  0  0  0
    7.5521   -5.3506    0.0000 C   0  0  0  0  0  0  0  0  0  0  0  0
    8.9808   -5.3244    0.0000 C   0  0  0  0  0  0  0  0  0  0  0  0
    8.9959   -6.1492    0.0000 C   0  0  0  0  0  0  0  0  0  0  0  0
    8.2891   -6.5748    0.0000 C   0  0  0  0  0  0  0  0  0  0  0  0
    7.5672   -6.1755    0.0000 C   0  0  0  0  0  0  0  0  0  0  0  0
    6.8604   -6.6010    0.0000 N   0  0  0  0  0  0  0  0  0  0  0  0
    6.1385   -6.2017    0.0000 C   0  0  0  0  0  0  0  0  0  0  0  0
    6.1234   -5.3768    0.0000 C   0  0  0  0  0  0  0  0  0  0  0  0
    6.8302   -4.9513    0.0000 C   0  0  0  0  0  0  0  0  0  0  0  0
    7.1193   -4.1776    0.0000 C   0  0  0  0  0  0  0  0  0  0  0  0
    7.9442   -4.1624    0.0000 N   0  0  0  0  0  0  0  0  0  0  0  0
    8.2589   -4.9251    0.0000 C   0  0  0  0  0  0  0  0  0  0  0  0
    8.3043   -7.3996    0.0000 O   0  0  0  0  0  0  0  0  0  0  0  0
    5.4317   -6.6272    0.0000 C   0  0  0  0  0  0  0  0  0  0  0  0
 14  5  1  0  0  0  0
  7  1  1  0  0  0  0
 10  2  1  0  0  0  0
  6  2  1  0  0  0  0
 13  2  2  0  0  0  0
 13  3  1  0  0  0  0
  4  3  2  0  0  0  0
  5  4  1  0  0  0  0
  6  5  2  0  0  0  0
  7  6  1  0  0  0  0
  8  7  1  0  0  0  0
  9  8  1  0  0  0  0
 10  9  1  0  0  0  0
 11 10  2  0  0  0  0
 12 11  1  0  0  0  0
 13 12  1  0  0  0  0
  8 15  1  0  0  0  0
M  END
>  <cdx:fragmentId>
2360

$$$$
