300807.cdx
  Mrv1902 05222410262D          

 10  9  0  0  0  0            999 V2000
    5.7552   -7.2629    0.0000 C   0  0  0  0  0  0  0  0  0  0  0  0
    5.3427   -6.5484    0.0000 C   0  0  0  0  0  0  0  0  0  0  0  0
    6.0571   -6.1359    0.0000 C   0  0  0  0  0  0  0  0  0  0  0  0
    6.7716   -6.5484    0.0000 C   0  0  0  0  0  0  0  0  0  0  0  0
    7.4861   -6.1359    0.0000 C   0  0  0  0  0  0  0  0  0  0  0  0
    7.0736   -5.4215    0.0000 C   0  0  0  0  0  0  0  0  0  0  0  0
    8.2006   -5.7234    0.0000 C   0  0  0  0  0  0  0  0  0  0  0  0
    7.8986   -6.8504    0.0000 C   0  0  0  0  0  0  0  0  0  0  0  0
    4.6282   -6.9609    0.0000 C   0  0  0  0  0  0  0  0  0  0  0  0
    4.9302   -5.8340    0.0000 C   0  0  0  0  0  0  0  0  0  0  0  0
  1  2  1  0  0  0  0
  2  3  1  0  0  0  0
  3  4  1  0  0  0  0
  4  5  1  0  0  0  0
  5  6  1  0  0  0  0
  5  7  1  0  0  0  0
  5  8  1  0  0  0  0
  2  9  1  0  0  0  0
  2 10  1  0  0  0  0
M  END
>  <cdx:fragmentId>
194

$$$$
