300813.cdx
  Mrv1902 05222410262D          

 11 11  0  0  0  0            999 V2000
    7.3184   -4.4200    0.0000 O   0  0  0  0  0  0  0  0  0  0  0  0
    8.0342   -4.8301    0.0000 C   0  0  0  0  0  0  0  0  0  0  0  0
    8.0370   -5.6551    0.0000 C   0  0  0  0  0  0  0  0  0  0  0  0
    7.3239   -6.0700    0.0000 C   0  0  0  0  0  0  0  0  0  0  0  0
    6.6081   -5.6599    0.0000 C   0  0  0  0  0  0  0  0  0  0  0  0
    6.6053   -4.8349    0.0000 C   0  0  0  0  0  0  0  0  0  0  0  0
    5.7803   -4.8376    0.0000 C   0  0  0  0  0  0  0  0  0  0  0  0
    6.1904   -4.1218    0.0000 C   0  0  0  0  0  0  0  0  0  0  0  0
    8.4443   -4.1142    0.0000 C   0  0  0  0  0  0  0  0  0  0  0  0
    8.8592   -4.8273    0.0000 C   0  0  0  0  0  0  0  0  0  0  0  0
    9.2693   -4.1114    0.0000 C   0  0  0  0  0  0  0  0  0  0  0  0
  1  2  1  0  0  0  0
  2  3  1  0  0  0  0
  3  4  1  0  0  0  0
  4  5  1  0  0  0  0
  5  6  1  0  0  0  0
  1  6  1  0  0  0  0
  6  7  1  0  0  0  0
  6  8  1  0  0  0  0
  2  9  1  0  0  0  0
 10 11  2  0  0  0  0
  2 10  1  0  0  0  0
M  END
>  <cdx:fragmentId>
588

$$$$
