300862.cdx
  Mrv1902 05222410252D          

 15 15  0  0  0  0            999 V2000
    6.9804   -5.9283    0.0000 C   0  0  0  0  0  0  0  0  0  0  0  0
    7.6949   -6.3408    0.0000 C   0  0  0  0  0  0  0  0  0  0  0  0
    8.4094   -5.9283    0.0000 C   0  0  0  0  0  0  0  0  0  0  0  0
    6.9804   -5.1033    0.0000 O   0  0  0  0  0  0  0  0  0  0  0  0
    6.2660   -6.3408    0.0000 C   0  0  0  0  0  0  0  0  0  0  0  0
    5.5515   -5.9283    0.0000 C   0  0  0  0  0  0  0  0  0  0  0  0
    4.8370   -6.3408    0.0000 C   0  0  0  0  0  0  0  0  0  0  0  0
    4.8370   -7.1658    0.0000 C   0  0  0  0  0  0  0  0  0  0  0  0
    5.5515   -7.5783    0.0000 C   0  0  0  0  0  0  0  0  0  0  0  0
    6.2660   -7.1658    0.0000 C   0  0  0  0  0  0  0  0  0  0  0  0
    4.1225   -5.9283    0.0000 O   0  0  0  0  0  0  0  0  0  0  0  0
    3.4081   -6.3408    0.0000 C   0  0  0  0  0  0  0  0  0  0  0  0
    4.1225   -7.5783    0.0000 O   0  0  0  0  0  0  0  0  0  0  0  0
    9.1238   -6.3408    0.0000 O   0  0  0  0  0  0  0  0  0  0  0  0
    7.6949   -7.1658    0.0000 O   0  0  0  0  0  0  0  0  0  0  0  0
  1  2  1  0  0  0  0
  2  3  1  0  0  0  0
  1  4  2  0  0  0  0
  5  6  1  0  0  0  0
  6  7  2  0  0  0  0
  7  8  1  0  0  0  0
  8  9  2  0  0  0  0
  9 10  1  0  0  0  0
  5 10  2  0  0  0  0
 11 12  1  0  0  0  0
  7 11  1  0  0  0  0
  8 13  1  0  0  0  0
  1  5  1  0  0  0  0
  3 14  1  0  0  0  0
  2 15  1  0  0  0  0
M  END
>  <cdx:fragmentId>
3007

$$$$
