300845.cdx
  Mrv1902 05222410212D          

 17 16  0  0  0  0            999 V2000
    2.9906   -8.4563    0.0000 C   0  0  0  0  0  0  0  0  0  0  0  0
    3.7051   -8.0437    0.0000 C   0  0  0  0  0  0  0  0  0  0  0  0
    4.4196   -8.4563    0.0000 C   0  0  0  0  0  0  0  0  0  0  0  0
    5.1340   -8.0437    0.0000 C   0  0  0  0  0  0  0  0  0  0  0  0
    5.8485   -8.4563    0.0000 C   0  0  0  0  0  0  0  0  0  0  0  0
    6.5630   -8.0437    0.0000 C   0  0  0  0  0  0  0  0  0  0  0  0
    7.2775   -8.4563    0.0000 C   0  0  0  0  0  0  0  0  0  0  0  0
    7.9919   -8.0437    0.0000 C   0  0  1  0  0  0  0  0  0  0  0  0
    8.7064   -8.4563    0.0000 C   0  0  0  0  0  0  0  0  0  0  0  0
    9.4209   -8.0437    0.0000 C   0  0  0  0  0  0  0  0  0  0  0  0
   10.1353   -8.4563    0.0000 C   0  0  0  0  0  0  0  0  0  0  0  0
    2.2762   -8.0437    0.0000 C   0  0  0  0  0  0  0  0  0  0  0  0
    2.9906   -9.2813    0.0000 C   0  0  0  0  0  0  0  0  0  0  0  0
    5.8485   -9.2813    0.0000 C   0  0  0  0  0  0  0  0  0  0  0  0
    8.7064   -9.2813    0.0000 C   0  0  0  0  0  0  0  0  0  0  0  0
   10.8498   -8.0437    0.0000 O   0  0  0  0  0  0  0  0  0  0  0  0
    7.9919   -7.2188    0.0000 O   0  0  0  0  0  0  0  0  0  0  0  0
  1  2  2  0  0  0  0
  2  3  1  0  0  0  0
  3  4  1  0  0  0  0
  4  5  1  0  0  0  0
  5  6  2  0  0  0  0
  6  7  1  0  0  0  0
  7  8  1  0  0  0  0
  8  9  1  0  0  0  0
  9 10  2  0  0  0  0
 10 11  1  0  0  0  0
  1 12  1  0  0  0  0
  1 13  1  0  0  0  0
  5 14  1  0  0  0  0
  9 15  1  0  0  0  0
 11 16  1  0  0  0  0
  8 17  1  6  0  0  0
M  END
>  <cdx:fragmentId>
1278

$$$$
