300802.cdx
  Mrv1902 05222410272D          

 14 15  0  0  0  0            999 V2000
    4.8505   -5.9217    0.0000 C   0  0  0  0  0  0  0  0  0  0  0  0
    5.5649   -6.3342    0.0000 C   0  0  0  0  0  0  0  0  0  0  0  0
    5.5649   -7.1592    0.0000 C   0  0  0  0  0  0  0  0  0  0  0  0
    4.8505   -7.5717    0.0000 C   0  0  0  0  0  0  0  0  0  0  0  0
    4.1360   -7.1592    0.0000 C   0  0  0  0  0  0  0  0  0  0  0  0
    4.1360   -6.3342    0.0000 C   0  0  0  0  0  0  0  0  0  0  0  0
    4.5149   -6.7471    0.0000 C   0  0  0  0  0  0  0  0  0  0  0  0
    5.5649   -5.5092    0.0000 O   0  0  0  0  0  0  0  0  0  0  0  0
    6.2794   -5.9217    0.0000 C   0  0  0  0  0  0  0  0  0  0  0  0
    6.9939   -6.3342    0.0000 C   0  0  0  0  0  0  0  0  0  0  0  0
    7.7084   -5.9217    0.0000 C   0  0  0  0  0  0  0  0  0  0  0  0
    3.8004   -7.1596    0.0000 C   0  0  0  0  0  0  0  0  0  0  0  0
    3.8004   -6.3346    0.0000 C   0  0  0  0  0  0  0  0  0  0  0  0
    4.8505   -5.0967    0.0000 C   0  0  0  0  0  0  0  0  0  0  0  0
  1  2  1  0  0  0  0
  2  3  1  0  0  0  0
  3  4  1  0  0  0  0
  4  5  1  0  0  0  0
  5  6  1  0  0  0  0
  1  6  1  0  0  0  0
  1  7  1  0  0  0  0
  4  7  1  0  0  0  0
  2  8  1  0  0  0  0
  9 10  1  0  0  0  0
 10 11  2  0  0  0  0
  2  9  1  0  0  0  0
  7 12  1  0  0  0  0
  7 13  1  0  0  0  0
  1 14  1  0  0  0  0
M  END
>  <cdx:fragmentId>
7

$$$$
