300800.cdx
  Mrv1902 05222410282D          

 12 13  0  0  0  0            999 V2000
    7.0770   -7.6829    0.0000 C   0  0  1  0  0  0  0  0  0  0  0  0
    6.3625   -8.0954    0.0000 C   0  0  0  0  0  0  0  0  0  0  0  0
    5.6481   -7.6829    0.0000 C   0  0  0  0  0  0  0  0  0  0  0  0
    5.6481   -6.8579    0.0000 C   0  0  0  0  0  0  0  0  0  0  0  0
    6.3625   -6.4454    0.0000 C   0  0  0  0  0  0  0  0  0  0  0  0
    7.0770   -6.8579    0.0000 C   0  0  0  0  0  0  0  0  0  0  0  0
    6.5453   -7.1651    0.0000 C   0  0  0  0  0  0  0  0  0  0  0  0
    6.3625   -8.9204    0.0000 O   0  0  0  0  0  0  0  0  0  0  0  0
    7.4895   -6.1434    0.0000 C   0  0  0  0  0  0  0  0  0  0  0  0
    7.9020   -6.8579    0.0000 C   0  0  0  0  0  0  0  0  0  0  0  0
    4.9336   -6.4454    0.0000 C   0  0  0  0  0  0  0  0  0  0  0  0
    7.7915   -8.0954    0.0000 H   0  0  0  0  0  0  0  0  0  0  0  0
  1  2  1  0  0  0  0
  2  3  1  0  0  0  0
  3  4  2  0  0  0  0
  4  5  1  0  0  0  0
  5  6  1  0  0  0  0
  1  6  1  0  0  0  0
  1  7  1  1  0  0  0
  5  7  1  0  0  0  0
  2  8  2  0  0  0  0
  6  9  1  0  0  0  0
  6 10  1  0  0  0  0
  4 11  1  0  0  0  0
  1 12  1  0  0  0  0
M  END
>  <cdx:fragmentId>
2342

$$$$
