300816.cdx
  Mrv1902 05222410272D          

 26 28  0  0  0  0            999 V2000
    5.7003   -6.1312    0.0000 C   0  0  1  0  0  0  0  0  0  0  0  0
    5.1928   -5.4808    0.0000 C   0  0  0  0  0  0  0  0  0  0  0  0
    5.6545   -4.7971    0.0000 C   0  0  0  0  0  0  0  0  0  0  0  0
    6.4474   -5.0250    0.0000 C   0  0  1  0  0  0  0  0  0  0  0  0
    7.0744   -4.4888    0.0000 C   0  0  0  0  0  0  0  0  0  0  0  0
    7.8846   -4.6447    0.0000 C   0  0  0  0  0  0  0  0  0  0  0  0
    8.2678   -5.3753    0.0000 C   0  0  0  0  0  0  0  0  0  0  0  0
    7.9355   -6.1305    0.0000 C   0  0  2  0  0  0  0  0  0  0  0  0
    7.1380   -6.3415    0.0000 C   0  0  2  0  0  0  0  0  0  0  0  0
    6.4757   -5.8495    0.0000 C   0  0  2  0  0  0  0  0  0  0  0  0
    7.7195   -6.9267    0.0000 C   0  0  2  0  0  0  0  0  0  0  0  0
    5.1169   -6.7146    0.0000 O   0  0  0  0  0  0  0  0  0  0  0  0
    6.8634   -3.6913    0.0000 C   0  0  0  0  0  0  0  0  0  0  0  0
    5.9138   -6.9281    0.0000 C   0  0  0  0  0  0  0  0  0  0  0  0
    7.5035   -7.7229    0.0000 C   0  0  0  0  0  0  0  0  0  0  0  0
    8.3000  -10.8114    0.0000 O   0  0  0  0  0  0  0  0  0  0  0  0
    8.7134   -6.4054    0.0000 H   0  0  0  0  0  0  0  0  0  0  0  0
    6.4474   -4.2000    0.0000 H   0  0  0  0  0  0  0  0  0  0  0  0
    6.4757   -6.6745    0.0000 H   0  0  0  0  0  0  0  0  0  0  0  0
    6.7144   -7.0495    0.0000 H   0  0  0  0  0  0  0  0  0  0  0  0
    9.7369  -10.0003    0.0000 C   0  0  0  0  0  0  0  0  0  0  0  0
    8.3080   -9.9865    0.0000 C   0  0  0  0  0  0  0  0  0  0  0  0
    9.0264   -9.5809    0.0000 C   0  0  0  0  0  0  0  0  0  0  0  0
    9.0344   -8.7559    0.0000 C   0  0  0  0  0  0  0  0  0  0  0  0
    8.3239   -8.3366    0.0000 C   0  0  0  0  0  0  0  0  0  0  0  0
    8.3011   -7.5119    0.0000 C   0  0  0  0  0  0  0  0  0  0  0  0
 22 16  1  0  0  0  0
 23 21  1  0  0  0  0
 23 22  1  0  0  0  0
 24 23  2  0  0  0  0
 25 24  1  0  0  0  0
 26 25  2  0  0  0  0
  1  2  1  0  0  0  0
  2  3  1  0  0  0  0
  3  4  1  0  0  0  0
  4  5  1  0  0  0  0
  5  6  1  0  0  0  0
  6  7  1  0  0  0  0
  7  8  1  0  0  0  0
  8  9  1  0  0  0  0
  9 10  1  0  0  0  0
  1 10  1  0  0  0  0
  4 10  1  0  0  0  0
  8 11  1  0  0  0  0
  9 11  1  0  0  0  0
  1 12  1  1  0  0  0
  5 13  2  0  0  0  0
  1 14  1  6  0  0  0
 11 15  1  1  0  0  0
 11 26  1  6  0  0  0
  8 17  1  6  0  0  0
  4 18  1  6  0  0  0
 10 19  1  1  0  0  0
  9 20  1  6  0  0  0
M  END
>  <cdx:fragmentId>
682

$$$$
