300804.cdx
  Mrv1902 05222410262D          

 20 23  0  0  0  0            999 V2000
    7.5406   -6.1359    0.0000 C   0  0  0  0  0  0  0  0  0  0  0  0
    6.8261   -6.5484    0.0000 C   0  0  0  0  0  0  0  0  0  0  0  0
    6.8261   -7.3734    0.0000 C   0  0  0  0  0  0  0  0  0  0  0  0
    7.5406   -7.7859    0.0000 C   0  0  0  0  0  0  0  0  0  0  0  0
    8.2550   -7.3734    0.0000 C   0  0  0  0  0  0  0  0  0  0  0  0
    8.2550   -6.5484    0.0000 C   0  0  0  0  0  0  0  0  0  0  0  0
    7.7232   -6.8553    0.0000 C   0  0  0  0  0  0  0  0  0  0  0  0
    8.6675   -5.8340    0.0000 C   0  0  0  0  0  0  0  0  0  0  0  0
    9.0800   -6.5484    0.0000 C   0  0  0  0  0  0  0  0  0  0  0  0
    6.1116   -6.1359    0.0000 C   0  0  0  0  0  0  0  0  0  0  0  0
    5.3971   -6.5484    0.0000 C   0  0  0  0  0  0  0  0  0  0  0  0
    3.9682   -6.5484    0.0000 C   0  0  0  0  0  0  0  0  0  0  0  0
    4.6827   -6.1359    0.0000 C   0  0  0  0  0  0  0  0  0  0  0  0
    4.6827   -5.3109    0.0000 C   0  0  0  0  0  0  0  0  0  0  0  0
    3.9682   -4.8984    0.0000 C   0  0  0  0  0  0  0  0  0  0  0  0
    3.2537   -5.3109    0.0000 C   0  0  0  0  0  0  0  0  0  0  0  0
    3.2537   -6.1359    0.0000 C   0  0  0  0  0  0  0  0  0  0  0  0
    3.7856   -5.8290    0.0000 C   0  0  0  0  0  0  0  0  0  0  0  0
    2.8412   -6.8504    0.0000 C   0  0  0  0  0  0  0  0  0  0  0  0
    2.4287   -6.1359    0.0000 C   0  0  0  0  0  0  0  0  0  0  0  0
  1  2  1  0  0  0  0
  2  3  2  0  0  0  0
  3  4  1  0  0  0  0
  4  5  1  0  0  0  0
  5  6  1  0  0  0  0
  1  6  1  0  0  0  0
  1  7  1  0  0  0  0
  5  7  1  0  0  0  0
  6  8  1  0  0  0  0
  6  9  1  0  0  0  0
 10 11  1  0  0  0  0
 12 13  1  0  0  0  0
 13 14  2  0  0  0  0
 14 15  1  0  0  0  0
 15 16  1  0  0  0  0
 16 17  1  0  0  0  0
 12 17  1  0  0  0  0
 12 18  1  0  0  0  0
 16 18  1  0  0  0  0
 17 19  1  0  0  0  0
 17 20  1  0  0  0  0
 11 13  1  0  0  0  0
  2 10  1  0  0  0  0
M  END
>  <cdx:fragmentId>
107

$$$$
