30083.cdx
  Mrv1902 05222410182D          

 12 12  0  0  0  0            999 V2000
    5.5897   -9.7339    0.0000 C   0  0  0  0  0  0  0  0  0  0  0  0
    5.5897  -10.5589    0.0000 C   0  0  0  0  0  0  0  0  0  0  0  0
    6.2347  -11.0733    0.0000 C   0  0  0  0  0  0  0  0  0  0  0  0
    7.0390  -10.8897    0.0000 C   0  0  0  0  0  0  0  0  0  0  0  0
    7.3970  -10.1464    0.0000 C   0  0  0  0  0  0  0  0  0  0  0  0
    7.0390   -9.4031    0.0000 C   0  0  0  0  0  0  0  0  0  0  0  0
    6.2347   -9.2195    0.0000 C   0  0  0  0  0  0  0  0  0  0  0  0
    4.8464  -10.9169    0.0000 O   0  0  0  0  0  0  0  0  0  0  0  0
    6.0511  -11.8776    0.0000 O   0  0  0  0  0  0  0  0  0  0  0  0
    8.2220  -10.1464    0.0000 C   0  0  0  0  0  0  0  0  0  0  0  0
    8.6345   -9.4319    0.0000 C   0  0  0  0  0  0  0  0  0  0  0  0
    8.6345  -10.8609    0.0000 C   0  0  0  0  0  0  0  0  0  0  0  0
  1  2  2  0  0  0  0
  2  3  1  0  0  0  0
  3  4  1  0  0  0  0
  4  5  2  0  0  0  0
  5  6  1  0  0  0  0
  6  7  2  0  0  0  0
  7  1  1  0  0  0  0
  2  8  1  0  0  0  0
  3  9  2  0  0  0  0
  5 10  1  0  0  0  0
 10 11  1  0  0  0  0
 10 12  1  0  0  0  0
M  END
>  <cdx:fragmentId>
5

$$$$
