300869.cdx
  Mrv1902 05222410222D          

 42 48  0  0  0  0            999 V2000
    6.1648   -5.6897    0.0000 C   0  0  2  0  0  0  0  0  0  0  0  0
    5.4558   -5.2679    0.0000 C   0  0  0  0  0  0  0  0  0  0  0  0
    4.6679   -5.5126    0.0000 N   0  0  0  0  0  0  0  0  0  0  0  0
    4.1917   -4.8389    0.0000 C   0  0  0  0  0  0  0  0  0  0  0  0
    3.3724   -4.7420    0.0000 C   0  0  0  0  0  0  0  0  0  0  0  0
    3.0467   -3.9840    0.0000 C   0  0  0  0  0  0  0  0  0  0  0  0
    3.5403   -3.3229    0.0000 C   0  0  0  0  0  0  0  0  0  0  0  0
    4.3596   -3.4199    0.0000 C   0  0  0  0  0  0  0  0  0  0  0  0
    4.6853   -4.1778    0.0000 C   0  0  0  0  0  0  0  0  0  0  0  0
    5.4665   -4.4430    0.0000 C   0  0  0  0  0  0  0  0  0  0  0  0
    6.1863   -4.0398    0.0000 C   0  0  0  0  0  0  0  0  0  0  0  0
    6.8954   -4.4616    0.0000 C   0  0  0  0  0  0  0  0  0  0  0  0
    6.8846   -5.2865    0.0000 N   0  0  0  0  0  0  0  0  0  0  0  0
    7.6486   -5.5979    0.0000 C   0  0  0  0  0  0  0  0  0  0  0  0
    7.8815   -6.3893    0.0000 C   0  0  2  0  0  0  0  0  0  0  0  0
    7.4079   -7.0649    0.0000 C   0  0  1  0  0  0  0  0  0  0  0  0
    7.8637   -7.7525    0.0000 C   0  0  1  0  0  0  0  0  0  0  0  0
    7.4961   -8.4911    0.0000 O   0  0  0  0  0  0  0  0  0  0  0  0
    6.6727   -8.5420    0.0000 C   0  0  0  0  0  0  0  0  0  0  0  0
    6.2169   -7.8544    0.0000 C   0  0  0  0  0  0  0  0  0  0  0  0
    6.5845   -7.1158    0.0000 C   0  0  1  0  0  0  0  0  0  0  0  0
    6.0313   -6.5038    0.0000 C   0  0  0  0  0  0  0  0  0  0  0  0
    6.9025   -6.3800    0.0000 O   0  0  0  0  0  0  0  0  0  0  0  0
    8.6872   -7.7016    0.0000 O   0  0  0  0  0  0  0  0  0  0  0  0
    8.7754   -9.1278    0.0000 O   0  0  0  0  0  0  0  0  0  0  0  0
    9.1430   -8.3892    0.0000 C   0  0  2  0  0  0  0  0  0  0  0  0
    9.9664   -8.3383    0.0000 C   0  0  1  0  0  0  0  0  0  0  0  0
   10.4222   -9.0259    0.0000 C   0  0  2  0  0  0  0  0  0  0  0  0
   10.0546   -9.7645    0.0000 C   0  0  1  0  0  0  0  0  0  0  0  0
    9.2312   -9.8155    0.0000 C   0  0  1  0  0  0  0  0  0  0  0  0
    8.8636  -10.5540    0.0000 C   0  0  0  0  0  0  0  0  0  0  0  0
    9.3194  -11.2417    0.0000 O   0  0  0  0  0  0  0  0  0  0  0  0
   10.5104  -10.4522    0.0000 O   0  0  0  0  0  0  0  0  0  0  0  0
   11.2457   -8.9750    0.0000 O   0  0  0  0  0  0  0  0  0  0  0  0
   10.3340   -7.5997    0.0000 O   0  0  0  0  0  0  0  0  0  0  0  0
    4.2024   -8.6948    0.0000 C   0  0  0  0  0  0  0  0  0  0  0  0
    5.0258   -8.6439    0.0000 O   0  0  0  0  0  0  0  0  0  0  0  0
    4.9122   -7.2352    0.0000 O   0  0  0  0  0  0  0  0  0  0  0  0
    5.3935   -7.9053    0.0000 C   0  0  0  0  0  0  0  0  0  0  0  0
    5.7611   -7.1667    0.0000 H   0  0  0  0  0  0  0  0  0  0  0  0
    8.2313   -7.0139    0.0000 H   0  0  0  0  0  0  0  0  0  0  0  0
    2.2274   -3.8871    0.0000 O   0  0  0  0  0  0  0  0  0  0  0  0
 37 36  1  0  0  0  0
 39 37  1  0  0  0  0
 39 38  2  0  0  0  0
  1  2  1  0  0  0  0
  2  3  1  0  0  0  0
  3  4  1  0  0  0  0
  4  5  2  0  0  0  0
  5  6  1  0  0  0  0
  6  7  2  0  0  0  0
  7  8  1  0  0  0  0
  8  9  2  0  0  0  0
  9 10  1  0  0  0  0
 10 11  1  0  0  0  0
 11 12  1  0  0  0  0
 12 13  1  0  0  0  0
 13 14  1  0  0  0  0
 14 15  1  0  0  0  0
 15 16  1  0  0  0  0
 16 17  1  0  0  0  0
 17 18  1  0  0  0  0
 18 19  1  0  0  0  0
 19 20  2  0  0  0  0
 20 21  1  0  0  0  0
 21 22  1  0  0  0  0
  1 22  1  0  0  0  0
  1 23  1  1  0  0  0
 15 23  1  1  0  0  0
  1 13  1  0  0  0  0
  2 10  2  0  0  0  0
  4  9  1  0  0  0  0
 16 21  1  0  0  0  0
 20 39  1  0  0  0  0
 25 26  1  0  0  0  0
 26 27  1  0  0  0  0
 27 28  1  0  0  0  0
 28 29  1  0  0  0  0
 29 30  1  0  0  0  0
 25 30  1  0  0  0  0
 31 32  1  0  0  0  0
 30 31  1  1  0  0  0
 29 33  1  6  0  0  0
 28 34  1  1  0  0  0
 27 35  1  6  0  0  0
 26 24  1  1  0  0  0
 17 24  1  6  0  0  0
 21 40  1  6  0  0  0
 16 41  1  6  0  0  0
  6 42  1  0  0  0  0
M  END
>  <cdx:fragmentId>
8

$$$$
