300812.cdx
  Mrv1902 05222410272D          

 21 20  0  0  0  0            999 V2000
    6.4144   -6.4972    0.0000 Si  0  0  0  0  0  0  0  0  0  0  0  0
    6.8269   -5.7827    0.0000 C   0  0  0  0  0  0  0  0  0  0  0  0
    6.0019   -5.7827    0.0000 C   0  0  0  0  0  0  0  0  0  0  0  0
    7.1288   -6.9097    0.0000 O   0  0  0  0  0  0  0  0  0  0  0  0
    7.8433   -6.4972    0.0000 Si  0  0  0  0  0  0  0  0  0  0  0  0
    8.5578   -6.9097    0.0000 O   0  0  0  0  0  0  0  0  0  0  0  0
    9.2723   -6.4972    0.0000 Si  0  0  0  0  0  0  0  0  0  0  0  0
    9.9867   -6.0847    0.0000 C   0  0  0  0  0  0  0  0  0  0  0  0
    9.2723   -5.6722    0.0000 C   0  0  0  0  0  0  0  0  0  0  0  0
    9.9867   -6.9097    0.0000 C   0  0  0  0  0  0  0  0  0  0  0  0
    8.2558   -5.7827    0.0000 C   0  0  0  0  0  0  0  0  0  0  0  0
    7.4308   -5.7827    0.0000 C   0  0  0  0  0  0  0  0  0  0  0  0
    5.6999   -6.9097    0.0000 O   0  0  0  0  0  0  0  0  0  0  0  0
    4.9854   -6.4972    0.0000 Si  0  0  0  0  0  0  0  0  0  0  0  0
    4.2710   -6.9097    0.0000 O   0  0  0  0  0  0  0  0  0  0  0  0
    3.5565   -6.4972    0.0000 Si  0  0  0  0  0  0  0  0  0  0  0  0
    2.8420   -6.9097    0.0000 C   0  0  0  0  0  0  0  0  0  0  0  0
    3.5565   -5.6722    0.0000 C   0  0  0  0  0  0  0  0  0  0  0  0
    2.8420   -6.0847    0.0000 C   0  0  0  0  0  0  0  0  0  0  0  0
    5.3979   -5.7827    0.0000 C   0  0  0  0  0  0  0  0  0  0  0  0
    4.5729   -5.7827    0.0000 C   0  0  0  0  0  0  0  0  0  0  0  0
  1  2  1  0  0  0  0
  1  3  1  0  0  0  0
  7  8  1  0  0  0  0
  7  9  1  0  0  0  0
  7 10  1  0  0  0  0
  6  7  1  0  0  0  0
  5  6  1  0  0  0  0
  5 11  1  0  0  0  0
  5 12  1  0  0  0  0
  4  5  1  0  0  0  0
  1  4  1  0  0  0  0
 16 17  1  0  0  0  0
 16 18  1  0  0  0  0
 16 19  1  0  0  0  0
 15 16  1  0  0  0  0
 14 15  1  0  0  0  0
 14 20  1  0  0  0  0
 14 21  1  0  0  0  0
 13 14  1  0  0  0  0
  1 13  1  0  0  0  0
M  END
>  <cdx:fragmentId>
534

$$$$
