300824.cdx
  Mrv1902 05222410182D          

 32 34  0  0  0  0            999 V2000
    5.8483   -6.7094    0.0000 C   0  0  0  0  0  0  0  0  0  0  0  0
    5.8483   -7.5344    0.0000 C   0  0  0  0  0  0  0  0  0  0  0  0
    5.1338   -7.9469    0.0000 C   0  0  0  0  0  0  0  0  0  0  0  0
    4.4194   -7.5344    0.0000 C   0  0  0  0  0  0  0  0  0  0  0  0
    3.7049   -7.9469    0.0000 C   0  0  0  0  0  0  0  0  0  0  0  0
    2.9904   -7.5344    0.0000 C   0  0  0  0  0  0  0  0  0  0  0  0
    2.9904   -6.7094    0.0000 C   0  0  0  0  0  0  0  0  0  0  0  0
    3.7049   -6.2969    0.0000 C   0  0  0  0  0  0  0  0  0  0  0  0
    4.4194   -6.7094    0.0000 C   0  0  0  0  0  0  0  0  0  0  0  0
    5.1338   -6.2969    0.0000 O   0  0  0  0  0  0  0  0  0  0  0  0
    5.1338   -8.7719    0.0000 O   0  0  0  0  0  0  0  0  0  0  0  0
    3.7049   -5.4719    0.0000 C   0  0  0  0  0  0  0  0  0  0  0  0
    2.9904   -5.0594    0.0000 C   0  0  0  0  0  0  0  0  0  0  0  0
    2.9904   -4.2344    0.0000 C   0  0  0  0  0  0  0  0  0  0  0  0
    3.7049   -3.8219    0.0000 C   0  0  0  0  0  0  0  0  0  0  0  0
    2.2760   -3.8219    0.0000 C   0  0  0  0  0  0  0  0  0  0  0  0
    2.2760   -6.2969    0.0000 O   0  0  0  0  0  0  0  0  0  0  0  0
    3.7049   -8.7719    0.0000 O   0  0  0  0  0  0  0  0  0  0  0  0
    6.5628   -7.9469    0.0000 O   0  0  0  0  0  0  0  0  0  0  0  0
    6.5628   -6.2969    0.0000 C   0  0  0  0  0  0  0  0  0  0  0  0
    6.5628   -5.4719    0.0000 C   0  0  0  0  0  0  0  0  0  0  0  0
    7.2773   -5.0594    0.0000 C   0  0  0  0  0  0  0  0  0  0  0  0
    7.9917   -5.4719    0.0000 C   0  0  0  0  0  0  0  0  0  0  0  0
    7.9917   -6.2969    0.0000 C   0  0  0  0  0  0  0  0  0  0  0  0
    7.2773   -6.7094    0.0000 C   0  0  0  0  0  0  0  0  0  0  0  0
    8.7062   -6.7094    0.0000 C   0  0  0  0  0  0  0  0  0  0  0  0
    9.4207   -6.2969    0.0000 C   0  0  0  0  0  0  0  0  0  0  0  0
   10.1351   -6.7094    0.0000 C   0  0  0  0  0  0  0  0  0  0  0  0
   10.1351   -7.5344    0.0000 C   0  0  0  0  0  0  0  0  0  0  0  0
   10.8496   -6.2969    0.0000 C   0  0  0  0  0  0  0  0  0  0  0  0
    8.7062   -5.0594    0.0000 O   0  0  0  0  0  0  0  0  0  0  0  0
    7.2773   -4.2344    0.0000 O   0  0  0  0  0  0  0  0  0  0  0  0
  1  2  2  0  0  0  0
  2  3  1  0  0  0  0
  3  4  1  0  0  0  0
  4  5  1  0  0  0  0
  5  6  2  0  0  0  0
  6  7  1  0  0  0  0
  7  8  2  0  0  0  0
  8  9  1  0  0  0  0
  4  9  2  0  0  0  0
  9 10  1  0  0  0  0
  1 10  1  0  0  0  0
  3 11  2  0  0  0  0
 12 13  1  0  0  0  0
 13 14  2  0  0  0  0
 14 15  1  0  0  0  0
 14 16  1  0  0  0  0
  8 12  1  0  0  0  0
  7 17  1  0  0  0  0
  5 18  1  0  0  0  0
  2 19  1  0  0  0  0
 20 21  1  0  0  0  0
 21 22  2  0  0  0  0
 22 23  1  0  0  0  0
 23 24  2  0  0  0  0
 24 25  1  0  0  0  0
 20 25  2  0  0  0  0
 26 27  1  0  0  0  0
 27 28  2  0  0  0  0
 28 29  1  0  0  0  0
 28 30  1  0  0  0  0
 24 26  1  0  0  0  0
 23 31  1  0  0  0  0
 22 32  1  0  0  0  0
  1 20  1  0  0  0  0
M  END
>  <cdx:fragmentId>
1247

$$$$
