300815.cdx
  Mrv1902 05222410282D          

  4  3  0  0  0  0            999 V2000
    6.4186   -6.5484    0.0000 B   0  0  0  0  0  0  0  0  0  0  0  0
    5.7041   -6.9609    0.0000 F   0  0  0  0  0  0  0  0  0  0  0  0
    7.1331   -6.9609    0.0000 F   0  0  0  0  0  0  0  0  0  0  0  0
    6.4186   -5.7234    0.0000 F   0  0  0  0  0  0  0  0  0  0  0  0
  1  2  1  0  0  0  0
  1  3  1  0  0  0  0
  1  4  1  0  0  0  0
M  END
>  <cdx:fragmentId>
671

$$$$
