300843.cdx
  Mrv1902 05222410222D          

 24 25  0  0  0  0            999 V2000
    4.7924   -4.8606    0.0000 C   0  0  0  0  0  0  0  0  0  0  0  0
    4.7924   -5.6856    0.0000 C   0  0  0  0  0  0  0  0  0  0  0  0
    5.5069   -6.0981    0.0000 C   0  0  0  0  0  0  0  0  0  0  0  0
    6.2213   -5.6856    0.0000 C   0  0  0  0  0  0  0  0  0  0  0  0
    6.2213   -4.8606    0.0000 C   0  0  0  0  0  0  0  0  0  0  0  0
    5.5069   -4.4481    0.0000 C   0  0  0  0  0  0  0  0  0  0  0  0
    5.5069   -6.9231    0.0000 C   0  0  0  0  0  0  0  0  0  0  0  0
    4.7924   -7.3356    0.0000 C   0  0  0  0  0  0  0  0  0  0  0  0
    6.2213   -7.3356    0.0000 C   0  0  0  0  0  0  0  0  0  0  0  0
    6.9358   -6.0981    0.0000 O   0  0  0  0  0  0  0  0  0  0  0  0
    5.9194   -3.7337    0.0000 C   0  0  0  0  0  0  0  0  0  0  0  0
    5.0944   -3.7337    0.0000 O   0  0  0  0  0  0  0  0  0  0  0  0
    8.3519   -3.6012    0.0000 O   0  0  0  0  0  0  0  0  0  0  0  0
    9.7934   -4.4040    0.0000 O   0  0  0  0  0  0  0  0  0  0  0  0
    9.8188   -6.0538    0.0000 O   0  0  0  0  0  0  0  0  0  0  0  0
    9.1173   -7.3133    0.0000 O   0  0  0  0  0  0  0  0  0  0  0  0
    8.4028   -6.9008    0.0000 C   0  0  0  0  0  0  0  0  0  0  0  0
    7.6693   -5.6745    0.0000 O   0  0  0  0  0  0  0  0  0  0  0  0
    8.3901   -6.0759    0.0000 C   0  0  1  0  0  0  0  0  0  0  0  0
    9.0981   -5.6524    0.0000 C   0  0  2  0  0  0  0  0  0  0  0  0
    9.0853   -4.8275    0.0000 C   0  0  1  0  0  0  0  0  0  0  0  0
    8.3646   -4.4261    0.0000 C   0  0  2  0  0  0  0  0  0  0  0  0
    7.6566   -4.8496    0.0000 C   0  0  2  0  0  0  0  0  0  0  0  0
    6.9358   -4.4481    0.0000 O   0  0  0  0  0  0  0  0  0  0  0  0
  1  2  1  0  0  0  0
  2  3  1  0  0  0  0
  3  4  1  0  0  0  0
  4  5  1  0  0  0  0
  5  6  1  0  0  0  0
  6  1  1  0  0  0  0
  3  7  1  0  0  0  0
  7  8  1  0  0  0  0
  7  9  1  0  0  0  0
  4 10  1  0  0  0  0
  6 11  1  0  0  0  0
  6 12  1  0  0  0  0
 22 13  1  6  0  0  0
  5 24  1  0  0  0  0
 21 14  1  1  0  0  0
 20 15  1  6  0  0  0
 17 16  1  0  0  0  0
 19 17  1  1  0  0  0
 18 23  1  0  0  0  0
 19 18  1  0  0  0  0
 20 19  1  0  0  0  0
 21 20  1  0  0  0  0
 22 21  1  0  0  0  0
 23 22  1  0  0  0  0
 23 24  1  1  0  0  0
M  END
>  <cdx:fragmentId>
1187

$$$$
