300893.cdx
  Mrv1902 05222410212D          

 17 20  0  0  0  0            999 V2000
    5.5266   -5.9228    0.0000 N   0  0  0  0  0  0  0  0  0  0  0  0
    5.7326   -5.1238    0.0000 C   0  0  0  0  0  0  0  0  0  0  0  0
    6.5205   -4.8792    0.0000 C   0  0  0  0  0  0  0  0  0  0  0  0
    7.1407   -5.4232    0.0000 C   0  0  0  0  0  0  0  0  0  0  0  0
    7.0010   -6.2362    0.0000 C   0  0  0  0  0  0  0  0  0  0  0  0
    7.5531   -6.8493    0.0000 N   0  0  0  0  0  0  0  0  0  0  0  0
    7.2981   -7.6340    0.0000 C   0  0  0  0  0  0  0  0  0  0  0  0
    6.4911   -7.8055    0.0000 C   0  0  0  0  0  0  0  0  0  0  0  0
    5.9391   -7.1924    0.0000 C   0  0  0  0  0  0  0  0  0  0  0  0
    5.1141   -7.1924    0.0000 C   0  0  0  0  0  0  0  0  0  0  0  0
    4.5621   -7.8055    0.0000 C   0  0  0  0  0  0  0  0  0  0  0  0
    3.7551   -7.6340    0.0000 C   0  0  0  0  0  0  0  0  0  0  0  0
    3.5002   -6.8493    0.0000 C   0  0  0  0  0  0  0  0  0  0  0  0
    4.0522   -6.2362    0.0000 C   0  0  0  0  0  0  0  0  0  0  0  0
    4.8592   -6.4078    0.0000 C   0  0  0  0  0  0  0  0  0  0  0  0
    6.1940   -6.4078    0.0000 C   0  0  0  0  0  0  0  0  0  0  0  0
    7.9184   -5.1478    0.0000 O   0  0  0  0  0  0  0  0  0  0  0  0
  1  2  1  0  0  0  0
  2  3  2  0  0  0  0
  3  4  1  0  0  0  0
  4  5  1  0  0  0  0
  5  6  2  0  0  0  0
  6  7  1  0  0  0  0
  7  8  2  0  0  0  0
  8  9  1  0  0  0  0
  9 10  1  0  0  0  0
 10 11  2  0  0  0  0
 11 12  1  0  0  0  0
 12 13  2  0  0  0  0
 13 14  1  0  0  0  0
 14 15  2  0  0  0  0
  1 15  1  0  0  0  0
  1 16  1  0  0  0  0
  9 16  2  0  0  0  0
  5 16  1  0  0  0  0
 10 15  1  0  0  0  0
  4 17  2  0  0  0  0
M  END
>  <cdx:fragmentId>
1774

$$$$
