300866.cdx
  Mrv1902 05222410232D          

 23 24  0  0  0  0            999 V2000
    7.3301   -4.7293    0.0000 O   0  0  0  0  0  0  0  0  0  0  0  0
    8.0629   -5.9560    0.0000 O   0  0  0  0  0  0  0  0  0  0  0  0
    7.3424   -5.5542    0.0000 C   0  0  0  0  0  0  0  0  0  0  0  0
    6.6341   -5.9773    0.0000 C   0  0  0  0  0  0  0  0  0  0  0  0
    5.9136   -5.5755    0.0000 C   0  0  0  0  0  0  0  0  0  0  0  0
    4.5094   -7.2466    0.0000 C   0  0  0  0  0  0  0  0  0  0  0  0
    5.2177   -6.8235    0.0000 C   0  0  0  0  0  0  0  0  0  0  0  0
    5.2054   -5.9986    0.0000 C   0  0  0  0  0  0  0  0  0  0  0  0
    4.4848   -5.5968    0.0000 C   0  0  0  0  0  0  0  0  0  0  0  0
    3.0806   -7.2679    0.0000 O   0  0  0  0  0  0  0  0  0  0  0  0
    3.7889   -6.8448    0.0000 C   0  0  0  0  0  0  0  0  0  0  0  0
    3.7766   -6.0199    0.0000 C   0  0  0  0  0  0  0  0  0  0  0  0
    2.3601   -6.8662    0.0000 C   0  0  0  0  0  0  0  0  0  0  0  0
    8.7712   -5.5329    0.0000 C   0  0  2  0  0  0  0  0  0  0  0  0
    9.4917   -5.9347    0.0000 C   0  0  1  0  0  0  0  0  0  0  0  0
    9.5040   -6.7596    0.0000 O   0  0  0  0  0  0  0  0  0  0  0  0
   10.1999   -5.5115    0.0000 C   0  0  2  0  0  0  0  0  0  0  0  0
   10.1876   -4.6866    0.0000 C   0  0  1  0  0  0  0  0  0  0  0  0
    9.4671   -4.2848    0.0000 O   0  0  0  0  0  0  0  0  0  0  0  0
    8.7589   -4.7080    0.0000 C   0  0  1  0  0  0  0  0  0  0  0  0
   10.9205   -5.9133    0.0000 O   0  0  0  0  0  0  0  0  0  0  0  0
   10.8959   -4.2635    0.0000 O   0  0  0  0  0  0  0  0  0  0  0  0
    8.0383   -4.3062    0.0000 C   0  0  0  0  0  0  0  0  0  0  0  0
  3  1  2  0  0  0  0
  3  2  1  0  0  0  0
  4  3  1  0  0  0  0
  5  4  2  0  0  0  0
  8  5  1  0  0  0  0
  6 11  1  0  0  0  0
  7  6  2  0  0  0  0
  8  7  1  0  0  0  0
  9  8  2  0  0  0  0
 12  9  1  0  0  0  0
 10 13  1  0  0  0  0
 11 10  1  0  0  0  0
 12 11  2  0  0  0  0
 14  2  1  1  0  0  0
 14 15  1  0  0  0  0
 15 16  1  6  0  0  0
 15 17  1  0  0  0  0
 17 18  1  0  0  0  0
 18 19  1  0  0  0  0
 19 20  1  0  0  0  0
 20 14  1  0  0  0  0
 17 21  1  6  0  0  0
 18 22  1  1  0  0  0
 20 23  1  6  0  0  0
M  END
>  <cdx:fragmentId>
5

$$$$
