300856.cdx
  Mrv1902 05222410232D          

 12 11  0  0  0  0            999 V2000
    6.4144   -6.5471    0.0000 C   0  0  0  0  0  0  0  0  0  0  0  0
    5.6999   -6.9596    0.0000 C   0  0  0  0  0  0  0  0  0  0  0  0
    4.9854   -6.5471    0.0000 C   0  0  0  0  0  0  0  0  0  0  0  0
    4.2710   -6.9596    0.0000 C   0  0  0  0  0  0  0  0  0  0  0  0
    3.5565   -6.5471    0.0000 C   0  0  0  0  0  0  0  0  0  0  0  0
    2.8420   -6.9596    0.0000 C   0  0  0  0  0  0  0  0  0  0  0  0
    6.4144   -5.7221    0.0000 O   0  0  0  0  0  0  0  0  0  0  0  0
    7.1288   -6.9596    0.0000 O   0  0  0  0  0  0  0  0  0  0  0  0
    7.8433   -6.5471    0.0000 C   0  0  0  0  0  0  0  0  0  0  0  0
    8.5578   -6.9596    0.0000 C   0  0  0  0  0  0  0  0  0  0  0  0
    9.2723   -6.5471    0.0000 C   0  0  0  0  0  0  0  0  0  0  0  0
    9.9867   -6.9596    0.0000 C   0  0  0  0  0  0  0  0  0  0  0  0
  1  2  1  0  0  0  0
  2  3  2  0  0  0  0
  3  4  1  0  0  0  0
  4  5  1  0  0  0  0
  5  6  1  0  0  0  0
  1  7  2  0  0  0  0
  1  8  1  0  0  0  0
  9 10  1  0  0  0  0
 10 11  1  0  0  0  0
 11 12  1  0  0  0  0
  8  9  1  0  0  0  0
M  END
>  <cdx:fragmentId>
2671

$$$$
