300826.cdx
  Mrv1902 05222410182D          

 47 51  0  0  0  0            999 V2000
    8.6347  -10.3977    0.0000 C   0  0  0  0  0  0  0  0  0  0  0  0
    5.0624   -8.3352    0.0000 H   0  0  0  0  0  0  0  0  0  0  0  0
    4.3479   -7.0977    0.0000 H   0  0  0  0  0  0  0  0  0  0  0  0
    5.7768   -7.0977    0.0000 H   0  0  0  0  0  0  0  0  0  0  0  0
    7.2058   -9.5727    0.0000 H   0  0  0  0  0  0  0  0  0  0  0  0
   12.9221   -8.7487    0.0000 C   0  0  0  0  0  0  0  0  0  0  0  0
   12.2076   -9.9862    0.0000 O   0  0  0  0  0  0  0  0  0  0  0  0
   12.2076   -9.1612    0.0000 C   0  0  0  0  0  0  0  0  0  0  0  0
   11.4931   -8.7487    0.0000 O   0  0  0  0  0  0  0  0  0  0  0  0
   10.0642   -7.9237    0.0000 C   0  0  0  0  0  0  0  0  0  0  0  0
   11.1912   -9.8757    0.0000 C   0  0  0  0  0  0  0  0  0  0  0  0
    8.6352   -7.9237    0.0000 O   0  0  0  0  0  0  0  0  0  0  0  0
   10.3662   -9.8757    0.0000 C   0  0  0  0  0  0  0  0  0  0  0  0
   10.7787   -9.1612    0.0000 C   0  0  0  0  0  0  0  0  0  0  0  0
   10.0642   -8.7487    0.0000 C   0  0  0  0  0  0  0  0  0  0  0  0
    9.3497   -9.1612    0.0000 C   0  0  0  0  0  0  0  0  0  0  0  0
    8.6352   -8.7487    0.0000 C   0  0  0  0  0  0  0  0  0  0  0  0
    7.9208   -9.1612    0.0000 O   0  0  0  0  0  0  0  0  0  0  0  0
    2.2045   -7.5102    0.0000 O   0  0  0  0  0  0  0  0  0  0  0  0
    4.3479  -10.3977    0.0000 O   0  0  0  0  0  0  0  0  0  0  0  0
    5.7768  -11.2227    0.0000 O   0  0  0  0  0  0  0  0  0  0  0  0
    3.6334   -6.6852    0.0000 C   0  0  0  0  0  0  0  0  0  0  0  0
    4.3479   -9.5727    0.0000 C   0  0  0  0  0  0  0  0  0  0  0  0
    7.9205   -7.5112    0.0000 O   0  0  0  0  0  0  0  0  0  0  0  0
    2.2045   -9.1602    0.0000 O   0  0  0  0  0  0  0  0  0  0  0  0
    7.9202   -9.9852    0.0000 O   0  0  0  0  0  0  0  0  0  0  0  0
    7.2058  -11.2227    0.0000 O   0  0  0  0  0  0  0  0  0  0  0  0
    7.2058  -10.3977    0.0000 C   0  0  0  0  0  0  0  0  0  0  0  0
    5.4716   -9.3546    0.0000 C   0  0  0  0  0  0  0  0  0  0  0  0
    5.8119   -9.9441    0.0000 O   0  0  0  0  0  0  0  0  0  0  0  0
    6.4913   -9.9852    0.0000 C   0  0  1  0  0  0  0  0  0  0  0  0
    5.7768  -10.3977    0.0000 C   0  0  2  0  0  0  0  0  0  0  0  0
    5.0624   -9.9852    0.0000 C   0  0  1  0  0  0  0  0  0  0  0  0
    5.0624   -9.1602    0.0000 C   0  0  2  0  0  0  0  0  0  0  0  0
    4.3479   -8.7477    0.0000 C   0  0  2  0  0  0  0  0  0  0  0  0
    3.6334   -9.1602    0.0000 C   0  0  0  0  0  0  0  0  0  0  0  0
    2.9189   -8.7477    0.0000 C   0  0  0  0  0  0  0  0  0  0  0  0
    2.9189   -7.9227    0.0000 C   0  0  0  0  0  0  0  0  0  0  0  0
    3.6334   -7.5102    0.0000 C   0  0  0  0  0  0  0  0  0  0  0  0
    4.3479   -7.9227    0.0000 C   0  0  2  0  0  0  0  0  0  0  0  0
    5.0624   -7.5102    0.0000 C   0  0  0  0  0  0  0  0  0  0  0  0
    5.7768   -7.9227    0.0000 C   0  0  1  0  0  0  0  0  0  0  0  0
    6.4917   -7.5110    0.0000 O   0  0  0  0  0  0  0  0  0  0  0  0
    7.2060   -7.9237    0.0000 C   0  0  0  0  0  0  0  0  0  0  0  0
    7.2063   -8.7487    0.0000 C   0  0  1  0  0  0  0  0  0  0  0  0
    6.4913   -9.1602    0.0000 C   0  0  2  0  0  0  0  0  0  0  0  0
    5.7768   -8.7477    0.0000 C   0  0  2  0  0  0  0  0  0  0  0  0
 26  1  1  0  0  0  0
 34  2  1  1  0  0  0
 40  3  1  1  0  0  0
 42  4  1  6  0  0  0
 46  5  1  6  0  0  0
 45 18  1  6  0  0  0
 18 17  1  0  0  0  0
 14  9  1  0  0  0  0
  9  8  1  0  0  0  0
  8  6  1  0  0  0  0
  8  7  2  0  0  0  0
 15 10  1  0  0  0  0
 14 11  1  0  0  0  0
 17 12  2  0  0  0  0
 14 13  1  0  0  0  0
 15 14  1  0  0  0  0
 16 15  2  0  0  0  0
 17 16  1  0  0  0  0
 38 19  1  0  0  0  0
 33 20  1  6  0  0  0
 32 21  1  1  0  0  0
 39 22  1  0  0  0  0
 35 23  1  6  0  0  0
 44 24  2  0  0  0  0
 37 25  2  0  0  0  0
 31 28  1  0  0  0  0
 28 26  1  0  0  0  0
 28 27  2  0  0  0  0
 47 42  1  0  0  0  0
 40 35  1  0  0  0  0
 46 31  1  0  0  0  0
 47 34  1  0  0  0  0
 47 29  1  6  0  0  0
 30 29  1  0  0  0  0
 31 30  1  6  0  0  0
 32 31  1  0  0  0  0
 33 32  1  0  0  0  0
 34 33  1  0  0  0  0
 35 34  1  0  0  0  0
 36 35  1  0  0  0  0
 37 36  1  0  0  0  0
 38 37  1  0  0  0  0
 39 38  2  0  0  0  0
 40 39  1  0  0  0  0
 41 40  1  0  0  0  0
 42 41  1  0  0  0  0
 43 42  1  0  0  0  0
 44 43  1  0  0  0  0
 45 44  1  0  0  0  0
 46 45  1  0  0  0  0
 47 46  1  0  0  0  0
M  END
>  <cdx:fragmentId>
5

$$$$
