300820.cdx
  Mrv1902 05222410202D          

 24 28  0  0  0  0            999 V2000
    8.2219   -4.6975    0.0000 C   0  0  0  0  0  0  0  0  0  0  0  0
    8.3215   -5.5165    0.0000 C   0  0  1  0  0  0  0  0  0  0  0  0
    7.6620   -6.0123    0.0000 C   0  0  1  0  0  0  0  0  0  0  0  0
    6.9030   -5.6892    0.0000 C   0  0  0  0  0  0  0  0  0  0  0  0
    6.2436   -6.1850    0.0000 C   0  0  0  0  0  0  0  0  0  0  0  0
    5.4846   -5.8616    0.0000 C   0  0  0  0  0  0  0  0  0  0  0  0
    5.3848   -5.0427    0.0000 C   0  0  0  0  0  0  0  0  0  0  0  0
    6.0442   -4.5471    0.0000 C   0  0  0  0  0  0  0  0  0  0  0  0
    6.8032   -4.8702    0.0000 C   0  0  0  0  0  0  0  0  0  0  0  0
    7.4627   -4.3744    0.0000 O   0  0  0  0  0  0  0  0  0  0  0  0
    8.9966   -5.9906    0.0000 C   0  0  0  0  0  0  0  0  0  0  0  0
    8.7546   -6.7793    0.0000 C   0  0  1  0  0  0  0  0  0  0  0  0
    7.9296   -6.7928    0.0000 C   0  0  1  0  0  0  0  0  0  0  0  0
    4.6258   -4.7195    0.0000 O   0  0  0  0  0  0  0  0  0  0  0  0
    9.0359   -5.1040    0.0000 O   0  0  0  0  0  0  0  0  0  0  0  0
    6.9476   -6.4248    0.0000 H   0  0  0  0  0  0  0  0  0  0  0  0
    7.9351   -7.5815    0.0000 C   0  0  0  0  0  0  0  0  0  0  0  0
    8.6380   -8.0553    0.0000 C   0  0  0  0  0  0  0  0  0  0  0  0
    9.2425   -7.5815    0.0000 O   0  0  0  0  0  0  0  0  0  0  0  0
    7.4126   -7.5815    0.0000 O   0  0  0  0  0  0  0  0  0  0  0  0
    8.0880   -8.0553    0.0000 C   0  0  0  0  0  0  0  0  0  0  0  0
    8.7475   -7.5815    0.0000 C   0  0  0  0  0  0  0  0  0  0  0  0
    8.0927   -8.8803    0.0000 O   0  0  0  0  0  0  0  0  0  0  0  0
    8.6674   -8.8797    0.0000 O   0  0  0  0  0  0  0  0  0  0  0  0
  1  2  1  0  0  0  0
  2  3  1  0  0  0  0
  3  4  1  0  0  0  0
  4  5  1  0  0  0  0
  5  6  2  0  0  0  0
  6  7  1  0  0  0  0
  7  8  2  0  0  0  0
  8  9  1  0  0  0  0
  4  9  2  0  0  0  0
  9 10  1  0  0  0  0
  1 10  1  0  0  0  0
 11 12  1  0  0  0  0
 12 13  1  0  0  0  0
 11  2  1  0  0  0  0
 13  3  1  0  0  0  0
  7 14  1  0  0  0  0
  2 15  1  1  0  0  0
  3 16  1  1  0  0  0
 13 17  1  1  0  0  0
 17 18  1  0  0  0  0
 18 19  1  0  0  0  0
 12 19  1  6  0  0  0
 13 20  1  6  0  0  0
 20 21  1  0  0  0  0
 21 22  1  0  0  0  0
 12 22  1  1  0  0  0
 21 23  2  0  0  0  0
 18 24  2  0  0  0  0
M  END
>  <cdx:fragmentId>
5

$$$$
