300881.cdx
  Mrv1902 05222410232D          

 25 29  0  0  0  0            999 V2000
    5.4459   -7.3464    0.0000 C   0  0  1  0  0  0  0  0  0  0  0  0
    6.0909   -7.8607    0.0000 C   0  0  2  0  0  0  0  0  0  0  0  0
    6.8952   -7.6772    0.0000 C   0  0  0  0  0  0  0  0  0  0  0  0
    7.2532   -6.9339    0.0000 C   0  0  0  0  0  0  0  0  0  0  0  0
    6.8952   -6.1906    0.0000 C   0  0  1  0  0  0  0  0  0  0  0  0
    7.3184   -5.4823    0.0000 C   0  0  0  0  0  0  0  0  0  0  0  0
    6.7756   -4.8611    0.0000 C   0  0  0  0  0  0  0  0  0  0  0  0
    6.0169   -5.1853    0.0000 O   0  0  0  0  0  0  0  0  0  0  0  0
    6.0909   -6.0070    0.0000 C   0  0  2  0  0  0  0  0  0  0  0  0
    5.4459   -6.5214    0.0000 C   0  0  1  0  0  0  0  0  0  0  0  0
    4.6613   -6.2664    0.0000 C   0  0  2  0  0  0  0  0  0  0  0  0
    3.8408   -6.1802    0.0000 O   0  0  0  0  0  0  0  0  0  0  0  0
    4.1763   -6.9339    0.0000 C   0  0  2  0  0  0  0  0  0  0  0  0
    4.6613   -7.6013    0.0000 C   0  0  2  0  0  0  0  0  0  0  0  0
    5.2744   -8.1533    0.0000 O   0  0  0  0  0  0  0  0  0  0  0  0
    6.9591   -4.0567    0.0000 O   0  0  0  0  0  0  0  0  0  0  0  0
    8.1400   -5.4084    0.0000 C   0  0  0  0  0  0  0  0  0  0  0  0
    4.8328   -5.4594    0.0000 C   0  0  0  0  0  0  0  0  0  0  0  0
    5.6433   -8.5538    0.0000 C   0  0  0  0  0  0  0  0  0  0  0  0
    6.4019   -8.6249    0.0000 O   0  0  0  0  0  0  0  0  0  0  0  0
    7.7202   -6.1906    0.0000 H   0  0  0  0  0  0  0  0  0  0  0  0
    6.0909   -6.8320    0.0000 H   0  0  0  0  0  0  0  0  0  0  0  0
    5.4459   -5.6964    0.0000 H   0  0  0  0  0  0  0  0  0  0  0  0
    3.4619   -7.3464    0.0000 H   0  0  0  0  0  0  0  0  0  0  0  0
    4.0482   -8.1533    0.0000 H   0  0  0  0  0  0  0  0  0  0  0  0
  1  2  1  0  0  0  0
  2  3  1  0  0  0  0
  3  4  1  0  0  0  0
  4  5  1  0  0  0  0
  5  6  1  0  0  0  0
  6  7  1  0  0  0  0
  7  8  1  0  0  0  0
  8  9  1  0  0  0  0
  9 10  1  0  0  0  0
 10 11  1  0  0  0  0
 11 12  1  0  0  0  0
 12 13  1  0  0  0  0
 13 14  1  0  0  0  0
 14 15  1  0  0  0  0
  1 15  1  1  0  0  0
  1 10  1  0  0  0  0
  1 14  1  0  0  0  0
  5  9  1  0  0  0  0
 11 13  1  0  0  0  0
  7 16  2  0  0  0  0
  6 17  2  0  0  0  0
 11 18  1  6  0  0  0
  2 19  1  6  0  0  0
  2 20  1  1  0  0  0
  5 21  1  1  0  0  0
  9 22  1  6  0  0  0
 10 23  1  1  0  0  0
 13 24  1  6  0  0  0
 14 25  1  6  0  0  0
M  END
>  <cdx:fragmentId>
638

$$$$
