300831.cdx
  Mrv1902 05222410182D          

 52 57  0  0  0  0            999 V2000
   10.9171  -11.3740    0.0000 C   0  0  0  0  0  0  0  0  0  0  0  0
    7.3447   -9.3115    0.0000 H   0  0  0  0  0  0  0  0  0  0  0  0
    6.6302   -8.0740    0.0000 H   0  0  0  0  0  0  0  0  0  0  0  0
    8.0592   -8.0740    0.0000 H   0  0  0  0  0  0  0  0  0  0  0  0
    9.4881  -10.5490    0.0000 H   0  0  0  0  0  0  0  0  0  0  0  0
    6.6302  -11.3740    0.0000 O   0  0  0  0  0  0  0  0  0  0  0  0
    8.0592  -12.1990    0.0000 O   0  0  0  0  0  0  0  0  0  0  0  0
    5.9158   -7.6615    0.0000 C   0  0  0  0  0  0  0  0  0  0  0  0
    6.6302  -10.5490    0.0000 C   0  0  0  0  0  0  0  0  0  0  0  0
   12.3466   -8.8999    0.0000 C   0  0  0  0  0  0  0  0  0  0  0  0
   10.9176   -8.8999    0.0000 O   0  0  0  0  0  0  0  0  0  0  0  0
   13.0610  -10.1374    0.0000 C   0  0  0  0  0  0  0  0  0  0  0  0
   12.3466   -9.7249    0.0000 C   0  0  0  0  0  0  0  0  0  0  0  0
   11.6321  -10.1374    0.0000 C   0  0  0  0  0  0  0  0  0  0  0  0
   10.9176   -9.7249    0.0000 C   0  0  0  0  0  0  0  0  0  0  0  0
   10.2031  -10.1374    0.0000 O   0  0  0  0  0  0  0  0  0  0  0  0
   10.2029   -8.4874    0.0000 O   0  0  0  0  0  0  0  0  0  0  0  0
    4.4868   -8.4865    0.0000 O   0  0  0  0  0  0  0  0  0  0  0  0
    3.0579  -10.9615    0.0000 O   0  0  0  0  0  0  0  0  0  0  0  0
    1.6289  -10.1365    0.0000 O   0  0  0  0  0  0  0  0  0  0  0  0
    1.6289   -8.4865    0.0000 O   0  0  0  0  0  0  0  0  0  0  0  0
    2.3434   -7.2490    0.0000 O   0  0  0  0  0  0  0  0  0  0  0  0
    3.0579   -7.6615    0.0000 C   0  0  0  0  0  0  0  0  0  0  0  0
    3.0579   -8.4865    0.0000 C   0  0  2  0  0  0  0  0  0  0  0  0
    2.3434   -8.8990    0.0000 C   0  0  2  0  0  0  0  0  0  0  0  0
    2.3434   -9.7240    0.0000 C   0  0  1  0  0  0  0  0  0  0  0  0
    3.0579  -10.1365    0.0000 C   0  0  2  0  0  0  0  0  0  0  0  0
    3.7724   -9.7240    0.0000 C   0  0  1  0  0  0  0  0  0  0  0  0
    3.7724   -8.8990    0.0000 O   0  0  0  0  0  0  0  0  0  0  0  0
    4.4868  -10.1365    0.0000 O   0  0  0  0  0  0  0  0  0  0  0  0
   10.2026  -10.9615    0.0000 O   0  0  0  0  0  0  0  0  0  0  0  0
    9.4881  -12.1990    0.0000 O   0  0  0  0  0  0  0  0  0  0  0  0
    9.4881  -11.3740    0.0000 C   0  0  0  0  0  0  0  0  0  0  0  0
    7.7540  -10.3309    0.0000 C   0  0  0  0  0  0  0  0  0  0  0  0
    8.0943  -10.9203    0.0000 O   0  0  0  0  0  0  0  0  0  0  0  0
    8.7737  -10.9615    0.0000 C   0  0  1  0  0  0  0  0  0  0  0  0
    8.0592  -11.3740    0.0000 C   0  0  2  0  0  0  0  0  0  0  0  0
    7.3447  -10.9615    0.0000 C   0  0  1  0  0  0  0  0  0  0  0  0
    7.3447  -10.1365    0.0000 C   0  0  2  0  0  0  0  0  0  0  0  0
    6.6302   -9.7240    0.0000 C   0  0  2  0  0  0  0  0  0  0  0  0
    5.9158  -10.1365    0.0000 C   0  0  0  0  0  0  0  0  0  0  0  0
    5.2013   -9.7240    0.0000 C   0  0  0  0  0  0  0  0  0  0  0  0
    5.2013   -8.8990    0.0000 C   0  0  0  0  0  0  0  0  0  0  0  0
    5.9158   -8.4865    0.0000 C   0  0  2  0  0  0  0  0  0  0  0  0
    6.6302   -8.8990    0.0000 C   0  0  2  0  0  0  0  0  0  0  0  0
    7.3447   -8.4865    0.0000 C   0  0  0  0  0  0  0  0  0  0  0  0
    8.0592   -8.8990    0.0000 C   0  0  1  0  0  0  0  0  0  0  0  0
    8.7741   -8.4872    0.0000 O   0  0  0  0  0  0  0  0  0  0  0  0
    9.4884   -8.8999    0.0000 C   0  0  0  0  0  0  0  0  0  0  0  0
    9.4887   -9.7249    0.0000 C   0  0  1  0  0  0  0  0  0  0  0  0
    8.7737  -10.1365    0.0000 C   0  0  2  0  0  0  0  0  0  0  0  0
    8.0592   -9.7240    0.0000 C   0  0  2  0  0  0  0  0  0  0  0  0
 31  1  1  0  0  0  0
 39  2  1  1  0  0  0
 45  3  1  1  0  0  0
 47  4  1  6  0  0  0
 51  5  1  6  0  0  0
 38  6  1  6  0  0  0
 37  7  1  1  0  0  0
 44  8  1  1  0  0  0
 40  9  1  6  0  0  0
 50 16  1  6  0  0  0
 13 10  1  0  0  0  0
 16 15  1  0  0  0  0
 15 11  2  0  0  0  0
 13 12  1  0  0  0  0
 14 13  2  0  0  0  0
 15 14  1  0  0  0  0
 49 17  2  0  0  0  0
 43 18  2  0  0  0  0
 42 30  1  0  0  0  0
 28 30  1  1  0  0  0
 27 19  1  6  0  0  0
 26 20  1  1  0  0  0
 25 21  1  6  0  0  0
 24 23  1  1  0  0  0
 23 22  1  0  0  0  0
 29 24  1  0  0  0  0
 25 24  1  0  0  0  0
 26 25  1  0  0  0  0
 27 26  1  0  0  0  0
 28 27  1  0  0  0  0
 29 28  1  0  0  0  0
 36 33  1  0  0  0  0
 33 31  1  0  0  0  0
 33 32  2  0  0  0  0
 52 47  1  0  0  0  0
 45 40  1  0  0  0  0
 51 36  1  0  0  0  0
 52 39  1  0  0  0  0
 52 34  1  6  0  0  0
 35 34  1  0  0  0  0
 36 35  1  6  0  0  0
 37 36  1  0  0  0  0
 38 37  1  0  0  0  0
 39 38  1  0  0  0  0
 40 39  1  0  0  0  0
 41 40  1  0  0  0  0
 42 41  2  0  0  0  0
 43 42  1  0  0  0  0
 44 43  1  0  0  0  0
 45 44  1  0  0  0  0
 46 45  1  0  0  0  0
 47 46  1  0  0  0  0
 48 47  1  0  0  0  0
 49 48  1  0  0  0  0
 50 49  1  0  0  0  0
 51 50  1  0  0  0  0
 52 51  1  0  0  0  0
M  END
>  <cdx:fragmentId>
5

$$$$
