300878.cdx
  Mrv1902 05222410212D          

 35 38  0  0  0  0            999 V2000
    4.0994   -9.4924    0.0000 C   0  0  2  0  0  0  0  0  0  0  0  0
    4.0994  -10.3174    0.0000 C   0  0  1  0  0  0  0  0  0  0  0  0
    4.8139  -10.7299    0.0000 C   0  0  0  0  0  0  0  0  0  0  0  0
    5.5284  -10.3174    0.0000 C   0  0  0  0  0  0  0  0  0  0  0  0
    5.5284   -9.4924    0.0000 C   0  0  2  0  0  0  0  0  0  0  0  0
    4.8139   -9.0799    0.0000 C   0  0  0  0  0  0  0  0  0  0  0  0
    6.2428  -10.7299    0.0000 C   0  0  0  0  0  0  0  0  0  0  0  0
    6.9573  -10.3174    0.0000 C   0  0  0  0  0  0  0  0  0  0  0  0
    6.9573   -9.4924    0.0000 C   0  0  0  0  0  0  0  0  0  0  0  0
    6.2428   -9.0799    0.0000 C   0  0  0  0  0  0  0  0  0  0  0  0
    7.6718   -9.0799    0.0000 C   0  0  0  0  0  0  0  0  0  0  0  0
    7.6718   -8.2549    0.0000 C   0  0  2  0  0  0  0  0  0  0  0  0
    6.9573   -7.8424    0.0000 C   0  0  0  0  0  0  0  0  0  0  0  0
    6.2428   -8.2549    0.0000 C   0  0  0  0  0  0  0  0  0  0  0  0
    8.4564   -9.3349    0.0000 C   0  0  0  0  0  0  0  0  0  0  0  0
    8.9413   -8.6674    0.0000 C   0  0  0  0  0  0  0  0  0  0  0  0
    8.4564   -8.0000    0.0000 C   0  0  2  0  0  0  0  0  0  0  0  0
    6.2428  -11.5549    0.0000 O   0  0  0  0  0  0  0  0  0  0  0  0
    7.6718  -10.7299    0.0000 O   0  0  0  0  0  0  0  0  0  0  0  0
    3.3850   -9.0799    0.0000 O   0  0  0  0  0  0  0  0  0  0  0  0
    3.3850  -10.7299    0.0000 O   0  0  0  0  0  0  0  0  0  0  0  0
    5.5284   -8.6674    0.0000 C   0  0  0  0  0  0  0  0  0  0  0  0
    7.6718   -7.4299    0.0000 C   0  0  0  0  0  0  0  0  0  0  0  0
    8.6699   -7.2031    0.0000 C   0  0  0  0  0  0  0  0  0  0  0  0
    7.8730   -6.9896    0.0000 C   0  0  0  0  0  0  0  0  0  0  0  0
    8.8835   -6.4062    0.0000 C   0  0  1  0  0  0  0  0  0  0  0  0
    9.6803   -6.1927    0.0000 C   0  0  0  0  0  0  0  0  0  0  0  0
    9.8939   -5.3958    0.0000 C   0  0  0  0  0  0  0  0  0  0  0  0
   10.6908   -5.1823    0.0000 C   0  0  0  0  0  0  0  0  0  0  0  0
   10.4772   -4.3854    0.0000 C   0  0  0  0  0  0  0  0  0  0  0  0
   10.9043   -5.9791    0.0000 C   0  0  0  0  0  0  0  0  0  0  0  0
   11.4876   -4.9687    0.0000 O   0  0  0  0  0  0  0  0  0  0  0  0
    8.3001   -5.8228    0.0000 O   0  0  0  0  0  0  0  0  0  0  0  0
    9.4668   -7.4166    0.0000 O   0  0  0  0  0  0  0  0  0  0  0  0
    9.2814   -8.0000    0.0000 H   0  0  0  0  0  0  0  0  0  0  0  0
  1  2  1  0  0  0  0
  2  3  1  0  0  0  0
  3  4  1  0  0  0  0
  4  5  1  0  0  0  0
  5  6  1  0  0  0  0
  6  1  1  0  0  0  0
  4  7  2  0  0  0  0
  7  8  1  0  0  0  0
  8  9  1  0  0  0  0
  9 10  2  0  0  0  0
 10  5  1  0  0  0  0
  9 11  1  0  0  0  0
 11 12  1  0  0  0  0
 12 13  1  0  0  0  0
 13 14  1  0  0  0  0
 14 10  1  0  0  0  0
 11 15  2  0  0  0  0
 15 16  1  0  0  0  0
 16 17  1  0  0  0  0
 17 12  1  0  0  0  0
  7 18  1  0  0  0  0
  8 19  2  0  0  0  0
  1 20  1  1  0  0  0
  2 21  1  1  0  0  0
  5 22  1  1  0  0  0
 12 23  1  1  0  0  0
 17 24  1  0  0  0  0
 24 25  1  0  0  0  0
 24 26  1  0  0  0  0
 26 27  1  0  0  0  0
 27 28  1  0  0  0  0
 28 29  1  0  0  0  0
 29 30  1  0  0  0  0
 29 31  1  0  0  0  0
 29 32  1  0  0  0  0
 26 33  1  6  0  0  0
 24 34  1  1  0  0  0
 17 35  1  6  0  0  0
M  END
>  <cdx:fragmentId>
2364

$$$$
