300890.cdx
  Mrv1902 05222410212D          

 14 16  0  0  0  0            999 V2000
    6.4770   -5.6747    0.0000 C   0  0  0  0  0  0  0  0  0  0  0  0
    6.9619   -6.3422    0.0000 N   0  0  0  0  0  0  0  0  0  0  0  0
    6.4770   -7.0096    0.0000 C   0  0  0  0  0  0  0  0  0  0  0  0
    5.6924   -6.7547    0.0000 C   0  0  1  0  0  0  0  0  0  0  0  0
    4.9779   -7.1672    0.0000 C   0  0  2  0  0  0  0  0  0  0  0  0
    4.2634   -6.7547    0.0000 C   0  0  0  0  0  0  0  0  0  0  0  0
    4.2634   -5.9297    0.0000 C   0  0  0  0  0  0  0  0  0  0  0  0
    4.9779   -5.5172    0.0000 C   0  0  2  0  0  0  0  0  0  0  0  0
    5.6924   -5.9297    0.0000 C   0  0  1  0  0  0  0  0  0  0  0  0
    4.6750   -6.3800    0.0000 O   0  0  0  0  0  0  0  0  0  0  0  0
    6.7319   -4.8901    0.0000 O   0  0  0  0  0  0  0  0  0  0  0  0
    6.7319   -7.7942    0.0000 O   0  0  0  0  0  0  0  0  0  0  0  0
    5.6924   -5.1047    0.0000 C   0  0  0  0  0  0  0  0  0  0  0  0
    5.6924   -7.5797    0.0000 C   0  0  0  0  0  0  0  0  0  0  0  0
  1  2  1  0  0  0  0
  2  3  1  0  0  0  0
  3  4  1  0  0  0  0
  4  5  1  0  0  0  0
  5  6  1  0  0  0  0
  6  7  1  0  0  0  0
  7  8  1  0  0  0  0
  8  9  1  0  0  0  0
  1  9  1  0  0  0  0
  4  9  1  0  0  0  0
  5 10  1  1  0  0  0
  8 10  1  1  0  0  0
  1 11  2  0  0  0  0
  3 12  2  0  0  0  0
  9 13  1  6  0  0  0
  4 14  1  6  0  0  0
M  END
>  <cdx:fragmentId>
1523

$$$$
