300887.cdx
  Mrv1902 05222410212D          

 46 49  0  0  0  0            999 V2000
    0.7705   -6.3408    0.0000 O   0  0  0  0  0  0  0  0  0  0  0  0
    0.0560   -7.5783    0.0000 C   0  0  0  0  0  0  0  0  0  0  0  0
    0.7705   -7.9908    0.0000 O   0  0  0  0  0  0  0  0  0  0  0  0
    2.9139   -6.7533    0.0000 C   0  0  0  0  0  0  0  0  0  0  0  0
    2.1994   -6.3408    0.0000 C   0  0  0  0  0  0  0  0  0  0  0  0
    1.4849   -6.7533    0.0000 C   0  0  0  0  0  0  0  0  0  0  0  0
    1.4849   -7.5783    0.0000 C   0  0  0  0  0  0  0  0  0  0  0  0
    2.1994   -7.9908    0.0000 C   0  0  0  0  0  0  0  0  0  0  0  0
    2.9139   -7.5783    0.0000 C   0  0  0  0  0  0  0  0  0  0  0  0
   10.0586   -9.2283    0.0000 O   0  0  0  0  0  0  0  0  0  0  0  0
    8.6296   -7.5783    0.0000 C   0  0  0  0  0  0  0  0  0  0  0  0
    9.3441   -7.9908    0.0000 C   0  0  0  0  0  0  0  0  0  0  0  0
    9.3441   -8.8158    0.0000 C   0  0  0  0  0  0  0  0  0  0  0  0
    8.6296   -9.2283    0.0000 C   0  0  0  0  0  0  0  0  0  0  0  0
    7.9152   -8.8158    0.0000 C   0  0  0  0  0  0  0  0  0  0  0  0
    7.9152   -7.9908    0.0000 C   0  0  0  0  0  0  0  0  0  0  0  0
    7.2007   -7.5783    0.0000 C   0  0  0  0  0  0  0  0  0  0  0  0
    6.4862   -7.9908    0.0000 C   0  0  0  0  0  0  0  0  0  0  0  0
   13.6309   -3.8658    0.0000 O   0  0  0  0  0  0  0  0  0  0  0  0
   11.4875   -4.2783    0.0000 C   0  0  0  0  0  0  0  0  0  0  0  0
   12.2020   -3.8658    0.0000 C   0  0  0  0  0  0  0  0  0  0  0  0
   12.9165   -4.2783    0.0000 C   0  0  0  0  0  0  0  0  0  0  0  0
   12.9165   -5.1033    0.0000 C   0  0  0  0  0  0  0  0  0  0  0  0
   12.2020   -5.5158    0.0000 C   0  0  0  0  0  0  0  0  0  0  0  0
   11.4875   -5.1033    0.0000 C   0  0  0  0  0  0  0  0  0  0  0  0
   10.7731   -5.5158    0.0000 C   0  0  0  0  0  0  0  0  0  0  0  0
   10.0586   -5.1033    0.0000 C   0  0  0  0  0  0  0  0  0  0  0  0
    9.3441   -5.5158    0.0000 N   0  0  0  0  0  0  0  0  0  0  0  0
    8.6296   -4.2783    0.0000 O   0  0  0  0  0  0  0  0  0  0  0  0
    8.6296   -5.1033    0.0000 C   0  0  0  0  0  0  0  0  0  0  0  0
    7.9152   -5.5158    0.0000 C   0  0  0  0  0  0  0  0  0  0  0  0
    7.2007   -5.1033    0.0000 C   0  0  0  0  0  0  0  0  0  0  0  0
    3.6283   -5.5158    0.0000 C   0  0  0  0  0  0  0  0  0  0  0  0
    4.3428   -5.1033    0.0000 O   0  0  0  0  0  0  0  0  0  0  0  0
    5.7718   -6.7533    0.0000 C   0  0  0  0  0  0  0  0  0  0  0  0
    6.4862   -6.3408    0.0000 C   0  0  0  0  0  0  0  0  0  0  0  0
    6.4862   -5.5158    0.0000 C   0  0  0  0  0  0  0  0  0  0  0  0
    5.7718   -5.1033    0.0000 C   0  0  0  0  0  0  0  0  0  0  0  0
    5.0573   -5.5158    0.0000 C   0  0  0  0  0  0  0  0  0  0  0  0
    5.0573   -6.3408    0.0000 C   0  0  0  0  0  0  0  0  0  0  0  0
    4.3428   -6.7533    0.0000 O   0  0  0  0  0  0  0  0  0  0  0  0
    5.7718   -7.5783    0.0000 N   0  0  0  0  0  0  0  0  0  0  0  0
    5.0573   -8.8158    0.0000 O   0  0  0  0  0  0  0  0  0  0  0  0
    3.6283   -7.9908    0.0000 C   0  0  0  0  0  0  0  0  0  0  0  0
    4.3428   -7.5783    0.0000 C   0  0  0  0  0  0  0  0  0  0  0  0
    5.0573   -7.9908    0.0000 C   0  0  0  0  0  0  0  0  0  0  0  0
 44  9  1  0  0  0  0
  6  1  1  0  0  0  0
  7  3  1  0  0  0  0
  3  2  1  0  0  0  0
  9  4  2  0  0  0  0
  5  4  1  0  0  0  0
  6  5  2  0  0  0  0
  7  6  1  0  0  0  0
  8  7  2  0  0  0  0
  9  8  1  0  0  0  0
 42 18  1  0  0  0  0
 17 16  1  0  0  0  0
 13 10  1  0  0  0  0
 16 11  2  0  0  0  0
 12 11  1  0  0  0  0
 13 12  2  0  0  0  0
 14 13  1  0  0  0  0
 15 14  2  0  0  0  0
 16 15  1  0  0  0  0
 18 17  1  0  0  0  0
 45 41  1  0  0  0  0
 37 32  1  0  0  0  0
 30 28  1  0  0  0  0
 28 27  1  0  0  0  0
 26 25  1  0  0  0  0
 22 19  1  0  0  0  0
 25 20  2  0  0  0  0
 21 20  1  0  0  0  0
 22 21  2  0  0  0  0
 23 22  1  0  0  0  0
 24 23  2  0  0  0  0
 25 24  1  0  0  0  0
 27 26  1  0  0  0  0
 30 29  2  0  0  0  0
 31 30  1  0  0  0  0
 32 31  2  0  0  0  0
 39 34  1  0  0  0  0
 34 33  1  0  0  0  0
 41 40  1  0  0  0  0
 40 35  2  0  0  0  0
 36 35  1  0  0  0  0
 37 36  2  0  0  0  0
 38 37  1  0  0  0  0
 39 38  2  0  0  0  0
 40 39  1  0  0  0  0
 46 42  1  0  0  0  0
 46 43  2  0  0  0  0
 45 44  2  0  0  0  0
 46 45  1  0  0  0  0
M  END
>  <cdx:fragmentId>
1212

$$$$
