300811.cdx
  Mrv1902 05222410262D          

  9  8  0  0  0  0            999 V2000
    7.3769   -6.1672    0.0000 C   0  0  0  0  0  0  0  0  0  0  0  0
    6.6624   -5.7547    0.0000 N   0  0  0  0  0  0  0  0  0  0  0  0
    8.0913   -5.7547    0.0000 N   0  0  0  0  0  0  0  0  0  0  0  0
    8.0913   -4.9297    0.0000 C   0  0  0  0  0  0  0  0  0  0  0  0
    6.6624   -4.9297    0.0000 C   0  0  0  0  0  0  0  0  0  0  0  0
    8.8058   -6.1672    0.0000 O   0  0  0  0  0  0  0  0  0  0  0  0
    9.5203   -5.7547    0.0000 C   0  0  0  0  0  0  0  0  0  0  0  0
    5.9479   -6.1672    0.0000 O   0  0  0  0  0  0  0  0  0  0  0  0
    5.2335   -5.7547    0.0000 C   0  0  0  0  0  0  0  0  0  0  0  0
  1  2  1  0  0  0  0
  1  3  1  0  0  0  0
  3  4  1  0  0  0  0
  2  5  1  0  0  0  0
  6  7  1  0  0  0  0
  3  6  1  0  0  0  0
  8  9  1  0  0  0  0
  2  8  1  0  0  0  0
M  END
>  <cdx:fragmentId>
495

$$$$
