300821.cdx
  Mrv1902 05222410202D          

 19 21  0  0  0  0            999 V2000
    7.4622   -8.6075    0.0000 C   0  0  2  0  0  0  0  0  0  0  0  0
    7.4622   -9.4325    0.0000 C   0  0  2  0  0  0  0  0  0  0  0  0
    8.2469   -9.6874    0.0000 C   0  0  0  0  0  0  0  0  0  0  0  0
    8.7318   -9.0200    0.0000 C   0  0  1  0  0  0  0  0  0  0  0  0
    8.2469   -8.3526    0.0000 C   0  0  2  0  0  0  0  0  0  0  0  0
    6.6776   -8.3526    0.0000 C   0  0  1  0  0  0  0  0  0  0  0  0
    6.1927   -9.0200    0.0000 C   0  0  0  0  0  0  0  0  0  0  0  0
    6.6776   -9.6874    0.0000 C   0  0  0  0  0  0  0  0  0  0  0  0
    6.6776   -7.5276    0.0000 C   0  0  1  0  0  0  0  0  0  0  0  0
    8.2469   -7.5276    0.0000 C   0  0  0  0  0  0  0  0  0  0  0  0
    7.4471   -7.1151    0.0000 C   0  0  0  0  0  0  0  0  0  0  0  0
    5.9697   -7.1039    0.0000 C   0  0  0  0  0  0  0  0  0  0  0  0
    5.8807   -8.1390    0.0000 H   0  0  0  0  0  0  0  0  0  0  0  0
    9.0438   -8.1390    0.0000 H   0  0  0  0  0  0  0  0  0  0  0  0
    9.4463   -8.6075    0.0000 C   0  0  0  0  0  0  0  0  0  0  0  0
    9.4463   -9.4325    0.0000 C   0  0  0  0  0  0  0  0  0  0  0  0
    7.4622  -10.2575    0.0000 C   0  0  0  0  0  0  0  0  0  0  0  0
   10.1607   -9.0200    0.0000 O   0  0  0  0  0  0  0  0  0  0  0  0
    7.4622   -7.7825    0.0000 O   0  0  0  0  0  0  0  0  0  0  0  0
  1  2  1  0  0  0  0
  2  3  1  0  0  0  0
  3  4  1  0  0  0  0
  4  5  1  0  0  0  0
  5  1  1  0  0  0  0
  1  6  1  0  0  0  0
  6  7  1  0  0  0  0
  7  8  1  0  0  0  0
  8  2  1  0  0  0  0
  6  9  1  0  0  0  0
  5 10  1  0  0  0  0
  9 11  1  0  0  0  0
 11 10  1  0  0  0  0
  9 12  1  6  0  0  0
  6 13  1  6  0  0  0
  5 14  1  6  0  0  0
  4 15  1  1  0  0  0
  4 16  1  6  0  0  0
  2 17  1  1  0  0  0
 16 18  1  0  0  0  0
  1 19  1  6  0  0  0
M  END
>  <cdx:fragmentId>
1161

$$$$
