300892.cdx
  Mrv1902 05222410212D          

 42 43  0  0  0  0            999 V2000
    1.4988   -9.5734    0.0000 C   0  0  0  0  0  0  0  0  0  0  0  0
    2.2133   -9.1609    0.0000 C   0  0  0  0  0  0  0  0  0  0  0  0
    2.9278   -9.5734    0.0000 C   0  0  0  0  0  0  0  0  0  0  0  0
    2.9278  -10.3984    0.0000 C   0  0  0  0  0  0  0  0  0  0  0  0
    2.2133  -10.8109    0.0000 C   0  0  0  0  0  0  0  0  0  0  0  0
    1.4988  -10.3984    0.0000 C   0  0  0  0  0  0  0  0  0  0  0  0
    0.7843   -9.1609    0.0000 O   0  0  0  0  0  0  0  0  0  0  0  0
    3.6422   -9.1609    0.0000 C   0  0  0  0  0  0  0  0  0  0  0  0
    4.3567   -9.5734    0.0000 C   0  0  0  0  0  0  0  0  0  0  0  0
    5.0712   -9.1609    0.0000 C   0  0  0  0  0  0  0  0  0  0  0  0
    5.7856   -9.5734    0.0000 C   0  0  0  0  0  0  0  0  0  0  0  0
    6.5001   -9.1609    0.0000 C   0  0  0  0  0  0  0  0  0  0  0  0
    7.2146   -9.5734    0.0000 C   0  0  0  0  0  0  0  0  0  0  0  0
    7.9291   -9.1609    0.0000 C   0  0  0  0  0  0  0  0  0  0  0  0
    8.6435   -9.5734    0.0000 C   0  0  0  0  0  0  0  0  0  0  0  0
    9.3580   -9.1609    0.0000 C   0  0  0  0  0  0  0  0  0  0  0  0
   10.0725   -9.5734    0.0000 C   0  0  0  0  0  0  0  0  0  0  0  0
   10.7869   -9.1609    0.0000 C   0  0  0  0  0  0  0  0  0  0  0  0
   11.5014   -9.5734    0.0000 C   0  0  0  0  0  0  0  0  0  0  0  0
   12.2159   -9.1609    0.0000 C   0  0  0  0  0  0  0  0  0  0  0  0
   12.9304   -9.5734    0.0000 C   0  0  0  0  0  0  0  0  0  0  0  0
   13.6448   -9.1609    0.0000 C   0  0  0  0  0  0  0  0  0  0  0  0
   14.3593   -9.5734    0.0000 C   0  0  0  0  0  0  0  0  0  0  0  0
   15.0738   -9.1609    0.0000 C   0  0  0  0  0  0  0  0  0  0  0  0
   15.7882   -9.5734    0.0000 C   0  0  0  0  0  0  0  0  0  0  0  0
   16.5027   -9.1609    0.0000 C   0  0  0  0  0  0  0  0  0  0  0  0
   17.2172   -9.5734    0.0000 C   0  0  0  0  0  0  0  0  0  0  0  0
   17.9317   -9.1609    0.0000 C   0  0  0  0  0  0  0  0  0  0  0  0
   17.9317   -8.3359    0.0000 C   0  0  0  0  0  0  0  0  0  0  0  0
   17.2172   -7.9234    0.0000 C   0  0  0  0  0  0  0  0  0  0  0  0
   16.5027   -8.3359    0.0000 C   0  0  0  0  0  0  0  0  0  0  0  0
   18.6461   -9.5734    0.0000 O   0  0  0  0  0  0  0  0  0  0  0  0
   15.6777   -8.3359    0.0000 C   0  0  0  0  0  0  0  0  0  0  0  0
   16.0902   -7.6215    0.0000 C   0  0  0  0  0  0  0  0  0  0  0  0
   17.2172  -10.3984    0.0000 C   0  0  0  0  0  0  0  0  0  0  0  0
   14.3593  -10.3984    0.0000 C   0  0  0  0  0  0  0  0  0  0  0  0
   11.5014  -10.3984    0.0000 C   0  0  0  0  0  0  0  0  0  0  0  0
    7.9291   -8.3359    0.0000 C   0  0  0  0  0  0  0  0  0  0  0  0
    5.0712   -8.3359    0.0000 C   0  0  0  0  0  0  0  0  0  0  0  0
    3.7528  -10.3984    0.0000 C   0  0  0  0  0  0  0  0  0  0  0  0
    3.3403  -11.1129    0.0000 C   0  0  0  0  0  0  0  0  0  0  0  0
    2.2133   -8.3359    0.0000 C   0  0  0  0  0  0  0  0  0  0  0  0
  1  2  1  0  0  0  0
  2  3  2  0  0  0  0
  3  4  1  0  0  0  0
  4  5  1  0  0  0  0
  5  6  1  0  0  0  0
  1  6  1  0  0  0  0
  1  7  2  0  0  0  0
  8  9  2  0  0  0  0
  9 10  1  0  0  0  0
 10 11  2  0  0  0  0
 11 12  1  0  0  0  0
 12 13  2  0  0  0  0
 13 14  1  0  0  0  0
 14 15  2  0  0  0  0
 15 16  1  0  0  0  0
 16 17  2  0  0  0  0
 17 18  1  0  0  0  0
 18 19  2  0  0  0  0
 19 20  1  0  0  0  0
 20 21  2  0  0  0  0
 21 22  1  0  0  0  0
 22 23  2  0  0  0  0
 23 24  1  0  0  0  0
 24 25  2  0  0  0  0
 26 27  2  0  0  0  0
 27 28  1  0  0  0  0
 28 29  1  0  0  0  0
 29 30  1  0  0  0  0
 30 31  1  0  0  0  0
 26 31  1  0  0  0  0
 28 32  2  0  0  0  0
 31 33  1  0  0  0  0
 31 34  1  0  0  0  0
 27 35  1  0  0  0  0
 25 26  1  0  0  0  0
 23 36  1  0  0  0  0
 19 37  1  0  0  0  0
 14 38  1  0  0  0  0
 10 39  1  0  0  0  0
  3  8  1  0  0  0  0
  4 40  1  0  0  0  0
  4 41  1  0  0  0  0
  2 42  1  0  0  0  0
M  END
>  <cdx:fragmentId>
1651

$$$$
