300847.cdx
  Mrv1902 05222410212D          

 19 19  0  0  0  0            999 V2000
    3.8849   -5.3625    0.0000 C   0  0  0  0  0  0  0  0  0  0  0  0
    3.8849   -6.1875    0.0000 C   0  0  0  0  0  0  0  0  0  0  0  0
    4.5994   -6.6000    0.0000 C   0  0  2  0  0  0  0  0  0  0  0  0
    5.3138   -6.1875    0.0000 C   0  0  0  0  0  0  0  0  0  0  0  0
    5.3138   -5.3625    0.0000 C   0  0  1  0  0  0  0  0  0  0  0  0
    4.5994   -4.9500    0.0000 C   0  0  1  0  0  0  0  0  0  0  0  0
    6.0283   -4.9500    0.0000 C   0  0  2  0  0  0  0  0  0  0  0  0
    6.7428   -5.3625    0.0000 C   0  0  0  0  0  0  0  0  0  0  0  0
    7.4573   -4.9500    0.0000 C   0  0  0  0  0  0  0  0  0  0  0  0
    8.1717   -5.3625    0.0000 C   0  0  0  0  0  0  0  0  0  0  0  0
    8.8862   -4.9500    0.0000 C   0  0  0  0  0  0  0  0  0  0  0  0
    9.6007   -5.3625    0.0000 C   0  0  0  0  0  0  0  0  0  0  0  0
    8.8862   -4.1250    0.0000 C   0  0  0  0  0  0  0  0  0  0  0  0
    4.5994   -4.1250    0.0000 O   0  0  0  0  0  0  0  0  0  0  0  0
    4.5994   -7.4250    0.0000 O   0  0  0  0  0  0  0  0  0  0  0  0
    6.0283   -5.7750    0.0000 H   0  0  0  0  0  0  0  0  0  0  0  0
    6.0283   -4.1250    0.0000 C   0  0  0  0  0  0  0  0  0  0  0  0
    3.1704   -6.6000    0.0000 C   0  0  0  0  0  0  0  0  0  0  0  0
    2.4560   -6.1875    0.0000 O   0  0  0  0  0  0  0  0  0  0  0  0
  1  2  2  0  0  0  0
  2  3  1  0  0  0  0
  3  4  1  0  0  0  0
  4  5  1  0  0  0  0
  5  6  1  0  0  0  0
  6  1  1  0  0  0  0
  5  7  1  0  0  0  0
  7  8  1  0  0  0  0
  8  9  1  0  0  0  0
  9 10  1  0  0  0  0
 10 11  2  0  0  0  0
 11 12  1  0  0  0  0
 11 13  1  0  0  0  0
  6 14  1  6  0  0  0
  3 15  1  6  0  0  0
  5 16  1  6  0  0  0
  7 17  1  1  0  0  0
  2 18  1  0  0  0  0
 18 19  1  0  0  0  0
M  END
>  <cdx:fragmentId>
1317

$$$$
