300875.cdx
  Mrv1902 05222410242D          

 24 24  0  0  0  0            999 V2000
    7.5406   -6.7533    0.0000 C   0  0  0  0  0  0  0  0  0  0  0  0
    6.8261   -6.3408    0.0000 C   0  0  0  0  0  0  0  0  0  0  0  0
    6.1116   -6.7533    0.0000 C   0  0  0  0  0  0  0  0  0  0  0  0
    5.3971   -6.3408    0.0000 C   0  0  0  0  0  0  0  0  0  0  0  0
    4.6827   -6.7533    0.0000 C   0  0  1  0  0  0  0  0  0  0  0  0
    3.9682   -6.3408    0.0000 C   0  0  2  0  0  0  0  0  0  0  0  0
    3.2537   -6.7533    0.0000 C   0  0  1  0  0  0  0  0  0  0  0  0
    2.5393   -6.3408    0.0000 C   0  0  1  0  0  0  0  0  0  0  0  0
    1.8248   -6.7533    0.0000 C   0  0  0  0  0  0  0  0  0  0  0  0
    6.1116   -7.5783    0.0000 O   0  0  0  0  0  0  0  0  0  0  0  0
    5.3971   -5.5158    0.0000 O   0  0  0  0  0  0  0  0  0  0  0  0
    1.1103   -6.3408    0.0000 O   0  0  0  0  0  0  0  0  0  0  0  0
    2.5393   -5.5158    0.0000 O   0  0  0  0  0  0  0  0  0  0  0  0
    3.2537   -7.5783    0.0000 O   0  0  0  0  0  0  0  0  0  0  0  0
    3.9682   -5.5158    0.0000 O   0  0  0  0  0  0  0  0  0  0  0  0
    4.6827   -7.5783    0.0000 O   0  0  0  0  0  0  0  0  0  0  0  0
    8.2550   -6.3408    0.0000 C   0  0  0  0  0  0  0  0  0  0  0  0
    8.9695   -6.7533    0.0000 C   0  0  0  0  0  0  0  0  0  0  0  0
    9.6840   -6.3408    0.0000 C   0  0  0  0  0  0  0  0  0  0  0  0
    9.6840   -5.5158    0.0000 C   0  0  0  0  0  0  0  0  0  0  0  0
    8.9695   -5.1033    0.0000 C   0  0  0  0  0  0  0  0  0  0  0  0
    8.2550   -5.5158    0.0000 C   0  0  0  0  0  0  0  0  0  0  0  0
   10.3984   -5.1033    0.0000 O   0  0  0  0  0  0  0  0  0  0  0  0
   10.3984   -6.7533    0.0000 O   0  0  0  0  0  0  0  0  0  0  0  0
  1  2  2  0  0  0  0
  2  3  1  0  0  0  0
  3  4  1  0  0  0  0
  4  5  1  0  0  0  0
  5  6  1  0  0  0  0
  6  7  1  0  0  0  0
  7  8  1  0  0  0  0
  8  9  1  0  0  0  0
  3 10  2  0  0  0  0
  4 11  2  0  0  0  0
  9 12  1  0  0  0  0
  8 13  1  1  0  0  0
  7 14  1  6  0  0  0
  6 15  1  6  0  0  0
  5 16  1  6  0  0  0
 17 18  1  0  0  0  0
 18 19  2  0  0  0  0
 19 20  1  0  0  0  0
 20 21  2  0  0  0  0
 21 22  1  0  0  0  0
 17 22  2  0  0  0  0
 20 23  1  0  0  0  0
 19 24  1  0  0  0  0
  1 17  1  0  0  0  0
M  END
>  <cdx:fragmentId>
296

$$$$
