300801.cdx
  Mrv1902 05222410282D          

 37 40  0  0  0  0            999 V2000
    6.2685   -5.9400    0.0000 C   0  0  0  0  0  0  0  0  0  0  0  0
    6.2685   -6.7650    0.0000 C   0  0  0  0  0  0  0  0  0  0  0  0
    6.8519   -7.3484    0.0000 C   0  0  0  0  0  0  0  0  0  0  0  0
    7.6769   -7.3484    0.0000 C   0  0  1  0  0  0  0  0  0  0  0  0
    8.2603   -6.7650    0.0000 C   0  0  1  0  0  0  0  0  0  0  0  0
    8.2603   -5.9400    0.0000 C   0  0  2  0  0  0  0  0  0  0  0  0
    7.6769   -5.3566    0.0000 C   0  0  0  0  0  0  0  0  0  0  0  0
    6.8519   -5.3566    0.0000 C   0  0  0  0  0  0  0  0  0  0  0  0
    6.6384   -4.5597    0.0000 C   0  0  0  0  0  0  0  0  0  0  0  0
    5.8415   -4.3462    0.0000 C   0  0  0  0  0  0  0  0  0  0  0  0
    5.2581   -4.9296    0.0000 C   0  0  0  0  0  0  0  0  0  0  0  0
    5.4716   -5.7265    0.0000 C   0  0  0  0  0  0  0  0  0  0  0  0
    5.4716   -6.9785    0.0000 C   0  0  0  0  0  0  0  0  0  0  0  0
    5.2581   -7.7754    0.0000 C   0  0  0  0  0  0  0  0  0  0  0  0
    5.8415   -8.3588    0.0000 C   0  0  0  0  0  0  0  0  0  0  0  0
    6.6384   -8.1453    0.0000 C   0  0  0  0  0  0  0  0  0  0  0  0
    4.5230   -8.1500    0.0000 O   0  0  0  0  0  0  0  0  0  0  0  0
    4.6521   -8.9648    0.0000 C   0  0  0  0  0  0  0  0  0  0  0  0
    5.4669   -9.0939    0.0000 O   0  0  0  0  0  0  0  0  0  0  0  0
    7.8904   -8.1453    0.0000 O   0  0  0  0  0  0  0  0  0  0  0  0
    8.9747   -7.1775    0.0000 C   0  0  0  0  0  0  0  0  0  0  0  0
    9.0572   -6.5515    0.0000 O   0  0  0  0  0  0  0  0  0  0  0  0
    9.0572   -5.7265    0.0000 C   0  0  0  0  0  0  0  0  0  0  0  0
    5.4290   -3.6318    0.0000 O   0  0  0  0  0  0  0  0  0  0  0  0
    4.4612   -4.7161    0.0000 O   0  0  0  0  0  0  0  0  0  0  0  0
    4.8883   -6.3098    0.0000 O   0  0  0  0  0  0  0  0  0  0  0  0
    4.6748   -6.7650    0.0000 O   0  0  0  0  0  0  0  0  0  0  0  0
    5.8415   -2.9173    0.0000 C   0  0  0  0  0  0  0  0  0  0  0  0
    3.8779   -5.2994    0.0000 C   0  0  0  0  0  0  0  0  0  0  0  0
    4.0914   -6.0963    0.0000 C   0  0  0  0  0  0  0  0  0  0  0  0
    3.9603   -7.1775    0.0000 C   0  0  0  0  0  0  0  0  0  0  0  0
    8.6873   -8.3588    0.0000 C   0  0  0  0  0  0  0  0  0  0  0  0
    9.2707   -7.7754    0.0000 O   0  0  0  0  0  0  0  0  0  0  0  0
    8.9008   -9.1557    0.0000 C   0  0  0  0  0  0  0  0  0  0  0  0
    8.3175   -9.7390    0.0000 C   0  0  0  0  0  0  0  0  0  0  0  0
    9.6977   -9.3692    0.0000 C   0  0  0  0  0  0  0  0  0  0  0  0
    8.5310  -10.5359    0.0000 C   0  0  0  0  0  0  0  0  0  0  0  0
  1  2  1  0  0  0  0
  2  3  2  0  0  0  0
  3  4  1  0  0  0  0
  4  5  1  0  0  0  0
  5  6  1  0  0  0  0
  6  7  1  0  0  0  0
  7  8  1  0  0  0  0
  8  1  2  0  0  0  0
  8  9  1  0  0  0  0
  9 10  2  0  0  0  0
 10 11  1  0  0  0  0
 11 12  2  0  0  0  0
 12  1  1  0  0  0  0
  2 13  1  0  0  0  0
 13 14  2  0  0  0  0
 14 15  1  0  0  0  0
 15 16  2  0  0  0  0
 16  3  1  0  0  0  0
 14 17  1  0  0  0  0
 17 18  1  0  0  0  0
 18 19  1  0  0  0  0
 19 15  1  0  0  0  0
  4 20  1  1  0  0  0
  5 21  1  1  0  0  0
  5 22  1  6  0  0  0
  6 23  1  6  0  0  0
 10 24  1  0  0  0  0
 11 25  1  0  0  0  0
 12 26  1  0  0  0  0
 13 27  1  0  0  0  0
 24 28  1  0  0  0  0
 25 29  1  0  0  0  0
 26 30  1  0  0  0  0
 27 31  1  0  0  0  0
 20 32  1  0  0  0  0
 32 33  2  0  0  0  0
 32 34  1  0  0  0  0
 34 35  2  0  0  0  0
 34 36  1  0  0  0  0
 35 37  1  0  0  0  0
M  END
>  <cdx:fragmentId>
876

$$$$
