300858.cdx
  Mrv1902 05222410242D          

  9  8  0  0  0  0            999 V2000
    5.3427   -6.5471    0.0000 C   0  0  0  0  0  0  0  0  0  0  0  0
    4.6282   -6.9596    0.0000 C   0  0  0  0  0  0  0  0  0  0  0  0
    3.9137   -6.5471    0.0000 C   0  0  0  0  0  0  0  0  0  0  0  0
    5.3427   -5.7221    0.0000 O   0  0  0  0  0  0  0  0  0  0  0  0
    6.0571   -6.9596    0.0000 O   0  0  0  0  0  0  0  0  0  0  0  0
    6.7716   -6.5471    0.0000 C   0  0  0  0  0  0  0  0  0  0  0  0
    7.4861   -6.9596    0.0000 C   0  0  0  0  0  0  0  0  0  0  0  0
    8.2006   -6.5471    0.0000 C   0  0  0  0  0  0  0  0  0  0  0  0
    8.9150   -6.9596    0.0000 C   0  0  0  0  0  0  0  0  0  0  0  0
  1  2  1  0  0  0  0
  2  3  2  0  0  0  0
  1  4  2  0  0  0  0
  1  5  1  0  0  0  0
  6  7  1  0  0  0  0
  7  8  1  0  0  0  0
  8  9  1  0  0  0  0
  5  6  1  0  0  0  0
M  END
>  <cdx:fragmentId>
2788

$$$$
