300894.cdx
  Mrv1902 05222410222D          

  8  8  0  0  0  0            999 V2000
    7.6232   -4.7430    0.0000 N   0  0  0  0  0  0  0  0  0  0  0  0
    8.3665   -5.1010    0.0000 C   0  0  0  0  0  0  0  0  0  0  0  0
    8.5501   -5.9053    0.0000 C   0  0  0  0  0  0  0  0  0  0  0  0
    8.0357   -6.5503    0.0000 C   0  0  0  0  0  0  0  0  0  0  0  0
    7.2107   -6.5503    0.0000 C   0  0  0  0  0  0  0  0  0  0  0  0
    6.6964   -5.9053    0.0000 C   0  0  0  0  0  0  0  0  0  0  0  0
    6.8799   -5.1010    0.0000 C   0  0  0  0  0  0  0  0  0  0  0  0
    9.0116   -4.5866    0.0000 O   0  0  0  0  0  0  0  0  0  0  0  0
  1  2  1  0  0  0  0
  2  3  1  0  0  0  0
  3  4  1  0  0  0  0
  4  5  1  0  0  0  0
  5  6  1  0  0  0  0
  6  7  1  0  0  0  0
  1  7  1  0  0  0  0
  2  8  2  0  0  0  0
M  END
>  <cdx:fragmentId>
1832

$$$$
