300848.cdx
  Mrv1902 05222410252D          

 27 28  0  0  0  0            999 V2000
    4.0843   -8.3119    0.0000 C   0  0  1  0  0  0  0  0  0  0  0  0
    4.0843   -9.1369    0.0000 C   0  0  1  0  0  0  0  0  0  0  0  0
    4.7988   -9.5494    0.0000 C   0  0  2  0  0  0  0  0  0  0  0  0
    5.5132   -9.1369    0.0000 C   0  0  1  0  0  0  0  0  0  0  0  0
    5.5132   -8.3119    0.0000 O   0  0  0  0  0  0  0  0  0  0  0  0
    4.7988   -7.8994    0.0000 C   0  0  2  0  0  0  0  0  0  0  0  0
    6.2277   -9.5494    0.0000 O   0  0  0  0  0  0  0  0  0  0  0  0
    6.9422   -9.1369    0.0000 C   0  0  2  0  0  0  0  0  0  0  0  0
    7.6566   -9.5494    0.0000 C   0  0  0  0  0  0  0  0  0  0  0  0
    8.3711   -9.1369    0.0000 C   0  0  0  0  0  0  0  0  0  0  0  0
    8.3711   -8.3119    0.0000 C   0  0  0  0  0  0  0  0  0  0  0  0
    7.6566   -7.8994    0.0000 C   0  0  0  0  0  0  0  0  0  0  0  0
    6.9422   -8.3119    0.0000 C   0  0  0  0  0  0  0  0  0  0  0  0
    7.2441   -7.1849    0.0000 C   0  0  0  0  0  0  0  0  0  0  0  0
    8.0691   -7.1849    0.0000 C   0  0  0  0  0  0  0  0  0  0  0  0
    9.0856   -7.8994    0.0000 C   0  0  0  0  0  0  0  0  0  0  0  0
    9.8000   -8.3119    0.0000 C   0  0  0  0  0  0  0  0  0  0  0  0
   10.5145   -7.8994    0.0000 C   0  0  2  0  0  0  0  0  0  0  0  0
   11.2290   -8.3119    0.0000 C   0  0  0  0  0  0  0  0  0  0  0  0
    9.0856   -9.5494    0.0000 C   0  0  0  0  0  0  0  0  0  0  0  0
    4.7988   -7.0744    0.0000 C   0  0  0  0  0  0  0  0  0  0  0  0
    3.3698   -9.5494    0.0000 O   0  0  0  0  0  0  0  0  0  0  0  0
    3.3698   -7.8994    0.0000 O   0  0  0  0  0  0  0  0  0  0  0  0
    4.7988  -10.3744    0.0000 O   0  0  0  0  0  0  0  0  0  0  0  0
   10.5145   -7.0744    0.0000 O   0  0  0  0  0  0  0  0  0  0  0  0
    9.8000   -6.6619    0.0000 C   0  0  0  0  0  0  0  0  0  0  0  0
    4.0843   -6.6619    0.0000 O   0  0  0  0  0  0  0  0  0  0  0  0
  1  2  1  0  0  0  0
  2  3  1  0  0  0  0
  3  4  1  0  0  0  0
  4  5  1  0  0  0  0
  5  6  1  0  0  0  0
  6  1  1  0  0  0  0
  4  7  1  1  0  0  0
  8  7  1  1  0  0  0
  8  9  1  0  0  0  0
  9 10  1  0  0  0  0
 10 11  2  0  0  0  0
 11 12  1  0  0  0  0
 12 13  1  0  0  0  0
 13  8  1  0  0  0  0
 12 14  1  0  0  0  0
 12 15  1  0  0  0  0
 11 16  1  0  0  0  0
 16 17  2  0  0  0  0
 17 18  1  0  0  0  0
 18 19  1  0  0  0  0
 10 20  1  0  0  0  0
  6 21  1  1  0  0  0
  2 22  1  1  0  0  0
  1 23  1  6  0  0  0
  3 24  1  6  0  0  0
 18 25  1  1  0  0  0
 25 26  1  0  0  0  0
 21 27  1  0  0  0  0
M  END
>  <cdx:fragmentId>
1412

$$$$
