300853.cdx
  Mrv1902 05222410212D          

 10  9  0  0  0  0            999 V2000
    6.4144   -6.5471    0.0000 C   0  0  0  0  0  0  0  0  0  0  0  0
    5.6999   -6.9596    0.0000 C   0  0  0  0  0  0  0  0  0  0  0  0
    4.9854   -6.5471    0.0000 C   0  0  0  0  0  0  0  0  0  0  0  0
    4.2710   -6.9596    0.0000 C   0  0  0  0  0  0  0  0  0  0  0  0
    6.4144   -5.7221    0.0000 O   0  0  0  0  0  0  0  0  0  0  0  0
    7.1288   -6.9596    0.0000 O   0  0  0  0  0  0  0  0  0  0  0  0
    7.8433   -6.5471    0.0000 C   0  0  0  0  0  0  0  0  0  0  0  0
    8.5578   -6.1346    0.0000 C   0  0  0  0  0  0  0  0  0  0  0  0
    7.4308   -5.8326    0.0000 C   0  0  0  0  0  0  0  0  0  0  0  0
    8.2558   -7.2615    0.0000 C   0  0  0  0  0  0  0  0  0  0  0  0
  1  2  1  0  0  0  0
  2  3  1  0  0  0  0
  3  4  1  0  0  0  0
  1  5  2  0  0  0  0
  1  6  1  0  0  0  0
  7  8  1  0  0  0  0
  6  7  1  0  0  0  0
  7  9  1  0  0  0  0
  7 10  1  0  0  0  0
M  END
>  <cdx:fragmentId>
2582

$$$$
