300896.cdx
  Mrv1902 05222410222D          

 45 45  0  0  0  0            999 V2000
   11.5131  -10.0597    0.0000 C   0  0  0  0  0  0  0  0  0  0  0  0
   10.7987   -9.6472    0.0000 C   0  0  0  0  0  0  0  0  0  0  0  0
   10.0842  -10.0597    0.0000 C   0  0  0  0  0  0  0  0  0  0  0  0
    9.3697   -9.6472    0.0000 C   0  0  0  0  0  0  0  0  0  0  0  0
    8.6553  -10.0597    0.0000 C   0  0  0  0  0  0  0  0  0  0  0  0
    7.9408   -9.6472    0.0000 C   0  0  0  0  0  0  0  0  0  0  0  0
    7.2263  -10.0597    0.0000 C   0  0  0  0  0  0  0  0  0  0  0  0
    6.5119   -9.6472    0.0000 C   0  0  0  0  0  0  0  0  0  0  0  0
    5.7974  -10.0597    0.0000 C   0  0  0  0  0  0  0  0  0  0  0  0
    5.0829   -9.6472    0.0000 C   0  0  0  0  0  0  0  0  0  0  0  0
    4.3684  -10.0597    0.0000 C   0  0  0  0  0  0  0  0  0  0  0  0
    3.6540   -9.6472    0.0000 C   0  0  0  0  0  0  0  0  0  0  0  0
    2.9395  -10.0597    0.0000 C   0  0  0  0  0  0  0  0  0  0  0  0
    2.2250   -9.6472    0.0000 C   0  0  0  0  0  0  0  0  0  0  0  0
    1.5106  -10.0597    0.0000 C   0  0  0  0  0  0  0  0  0  0  0  0
    0.7961   -9.6472    0.0000 C   0  0  0  0  0  0  0  0  0  0  0  0
   11.5131  -10.8847    0.0000 O   0  0  0  0  0  0  0  0  0  0  0  0
   12.2276   -9.6472    0.0000 O   0  0  0  0  0  0  0  0  0  0  0  0
   12.9421  -10.0597    0.0000 C   0  0  0  0  0  0  0  0  0  0  0  0
   13.6566   -9.6472    0.0000 C   0  0  0  0  0  0  0  0  0  0  0  0
   14.3710  -10.0597    0.0000 C   0  0  0  0  0  0  0  0  0  0  0  0
   15.0855   -9.6472    0.0000 C   0  0  0  0  0  0  0  0  0  0  0  0
   15.8000  -10.0597    0.0000 C   0  0  0  0  0  0  0  0  0  0  0  0
   16.5144   -9.6472    0.0000 C   0  0  2  0  0  0  0  0  0  0  0  0
   17.2289  -10.0597    0.0000 C   0  0  1  0  0  0  0  0  0  0  0  0
   17.9434   -9.6472    0.0000 C   0  0  0  0  0  0  0  0  0  0  0  0
   18.6579   -9.2347    0.0000 C   0  0  0  0  0  0  0  0  0  0  0  0
   19.3723   -8.8222    0.0000 C   0  0  0  0  0  0  0  0  0  0  0  0
   20.0868   -8.4097    0.0000 C   0  0  0  0  0  0  0  0  0  0  0  0
   20.8013   -7.9972    0.0000 C   0  0  0  0  0  0  0  0  0  0  0  0
   21.5157   -8.4097    0.0000 C   0  0  0  0  0  0  0  0  0  0  0  0
   22.2302   -7.9972    0.0000 C   0  0  0  0  0  0  0  0  0  0  0  0
   17.2289  -10.8847    0.0000 O   0  0  0  0  0  0  0  0  0  0  0  0
   14.8644   -8.8232    0.0000 O   0  0  0  0  0  0  0  0  0  0  0  0
   14.0386   -7.3948    0.0000 O   0  0  0  0  0  0  0  0  0  0  0  0
   14.8627   -5.9653    0.0000 O   0  0  0  0  0  0  0  0  0  0  0  0
   16.0998   -5.2501    0.0000 O   0  0  0  0  0  0  0  0  0  0  0  0
   16.5127   -5.9643    0.0000 C   0  0  0  0  0  0  0  0  0  0  0  0
   16.5136   -7.3933    0.0000 O   0  0  0  0  0  0  0  0  0  0  0  0
   16.1006   -6.6791    0.0000 C   0  0  1  0  0  0  0  0  0  0  0  0
   15.2756   -6.6796    0.0000 C   0  0  2  0  0  0  0  0  0  0  0  0
   14.8636   -7.3943    0.0000 C   0  0  1  0  0  0  0  0  0  0  0  0
   15.2765   -8.1085    0.0000 C   0  0  2  0  0  0  0  0  0  0  0  0
   16.1015   -8.1080    0.0000 C   0  0  2  0  0  0  0  0  0  0  0  0
   16.5144   -8.8222    0.0000 O   0  0  0  0  0  0  0  0  0  0  0  0
 44 45  1  1  0  0  0
 43 34  1  6  0  0  0
 42 35  1  1  0  0  0
 41 36  1  6  0  0  0
 40 38  1  1  0  0  0
 38 37  1  0  0  0  0
 44 39  1  0  0  0  0
 40 39  1  0  0  0  0
 41 40  1  0  0  0  0
 42 41  1  0  0  0  0
 43 42  1  0  0  0  0
 44 43  1  0  0  0  0
  1  2  1  0  0  0  0
  2  3  1  0  0  0  0
  3  4  1  0  0  0  0
  4  5  1  0  0  0  0
  5  6  1  0  0  0  0
  6  7  1  0  0  0  0
  7  8  1  0  0  0  0
  8  9  1  0  0  0  0
  9 10  1  0  0  0  0
 10 11  1  0  0  0  0
 11 12  1  0  0  0  0
 12 13  1  0  0  0  0
 13 14  1  0  0  0  0
 14 15  1  0  0  0  0
 15 16  1  0  0  0  0
  1 17  2  0  0  0  0
  1 18  1  0  0  0  0
 19 20  1  0  0  0  0
 20 21  1  0  0  0  0
 21 22  1  0  0  0  0
 22 23  2  0  0  0  0
 23 24  1  0  0  0  0
 24 25  1  0  0  0  0
 25 26  1  0  0  0  0
 26 27  3  0  0  0  0
 27 28  1  0  0  0  0
 28 29  3  0  0  0  0
 29 30  1  0  0  0  0
 30 31  2  0  0  0  0
 31 32  1  0  0  0  0
 24 45  1  1  0  0  0
 25 33  1  1  0  0  0
 18 19  1  0  0  0  0
M  END
>  <cdx:fragmentId>
41

$$$$
