300886.cdx
  Mrv1902 05222410212D          

 47 50  0  0  0  0            999 V2000
    5.2498   -7.8396    0.0000 C   0  0  0  0  0  0  0  0  0  0  0  0
    4.5353   -7.4271    0.0000 C   0  0  1  0  0  0  0  0  0  0  0  0
    3.8208   -7.8396    0.0000 C   0  0  1  0  0  0  0  0  0  0  0  0
    5.2498   -8.6646    0.0000 O   0  0  0  0  0  0  0  0  0  0  0  0
    5.9643   -7.4271    0.0000 N   0  0  0  0  0  0  0  0  0  0  0  0
    4.5353   -6.6021    0.0000 O   0  0  0  0  0  0  0  0  0  0  0  0
    5.2498   -6.1896    0.0000 C   0  0  0  0  0  0  0  0  0  0  0  0
    5.2498   -5.3646    0.0000 C   0  0  0  0  0  0  0  0  0  0  0  0
    5.9643   -4.9521    0.0000 C   0  0  0  0  0  0  0  0  0  0  0  0
    6.6787   -5.3646    0.0000 C   0  0  0  0  0  0  0  0  0  0  0  0
    6.6787   -6.1896    0.0000 C   0  0  0  0  0  0  0  0  0  0  0  0
    5.9643   -6.6021    0.0000 C   0  0  0  0  0  0  0  0  0  0  0  0
    4.5353   -4.9521    0.0000 O   0  0  0  0  0  0  0  0  0  0  0  0
    3.8208   -5.3646    0.0000 C   0  0  0  0  0  0  0  0  0  0  0  0
    7.3932   -4.9521    0.0000 C   0  0  0  0  0  0  0  0  0  0  0  0
    8.1077   -5.3646    0.0000 C   0  0  0  0  0  0  0  0  0  0  0  0
    8.8221   -4.9521    0.0000 C   0  0  0  0  0  0  0  0  0  0  0  0
    8.8221   -4.1271    0.0000 O   0  0  0  0  0  0  0  0  0  0  0  0
    9.5366   -5.3646    0.0000 N   0  0  0  0  0  0  0  0  0  0  0  0
   10.2511   -4.9521    0.0000 C   0  0  0  0  0  0  0  0  0  0  0  0
   10.9656   -5.3646    0.0000 C   0  0  0  0  0  0  0  0  0  0  0  0
   11.6800   -4.9521    0.0000 C   0  0  0  0  0  0  0  0  0  0  0  0
   11.6800   -4.1271    0.0000 C   0  0  0  0  0  0  0  0  0  0  0  0
   12.3945   -3.7146    0.0000 C   0  0  0  0  0  0  0  0  0  0  0  0
   13.1090   -4.1271    0.0000 C   0  0  0  0  0  0  0  0  0  0  0  0
   13.1090   -4.9521    0.0000 C   0  0  0  0  0  0  0  0  0  0  0  0
   12.3945   -5.3646    0.0000 C   0  0  0  0  0  0  0  0  0  0  0  0
   13.8234   -3.7146    0.0000 O   0  0  0  0  0  0  0  0  0  0  0  0
    6.6787   -7.8396    0.0000 C   0  0  0  0  0  0  0  0  0  0  0  0
    7.3932   -7.4271    0.0000 C   0  0  0  0  0  0  0  0  0  0  0  0
    8.1077   -7.8396    0.0000 C   0  0  0  0  0  0  0  0  0  0  0  0
    8.8221   -7.4271    0.0000 C   0  0  0  0  0  0  0  0  0  0  0  0
    9.5366   -7.8396    0.0000 C   0  0  0  0  0  0  0  0  0  0  0  0
    9.5366   -8.6646    0.0000 C   0  0  0  0  0  0  0  0  0  0  0  0
    8.8221   -9.0771    0.0000 C   0  0  0  0  0  0  0  0  0  0  0  0
    8.1077   -8.6646    0.0000 C   0  0  0  0  0  0  0  0  0  0  0  0
   10.2511   -9.0771    0.0000 O   0  0  0  0  0  0  0  0  0  0  0  0
    3.1064   -7.4271    0.0000 C   0  0  0  0  0  0  0  0  0  0  0  0
    2.3919   -7.8396    0.0000 C   0  0  0  0  0  0  0  0  0  0  0  0
    1.6774   -7.4271    0.0000 C   0  0  0  0  0  0  0  0  0  0  0  0
    1.6774   -6.6021    0.0000 C   0  0  0  0  0  0  0  0  0  0  0  0
    2.3919   -6.1896    0.0000 C   0  0  0  0  0  0  0  0  0  0  0  0
    3.1064   -6.6021    0.0000 C   0  0  0  0  0  0  0  0  0  0  0  0
    0.9630   -7.8396    0.0000 O   0  0  0  0  0  0  0  0  0  0  0  0
    0.2485   -7.4271    0.0000 C   0  0  0  0  0  0  0  0  0  0  0  0
    0.9630   -6.1896    0.0000 O   0  0  0  0  0  0  0  0  0  0  0  0
    3.8208   -8.6646    0.0000 O   0  0  0  0  0  0  0  0  0  0  0  0
  1  2  1  0  0  0  0
  2  3  1  0  0  0  0
  1  4  2  0  0  0  0
  1  5  1  0  0  0  0
  7  8  1  0  0  0  0
  8  9  2  0  0  0  0
  9 10  1  0  0  0  0
 10 11  2  0  0  0  0
 11 12  1  0  0  0  0
  7 12  2  0  0  0  0
  6  7  1  0  0  0  0
 13 14  1  0  0  0  0
  8 13  1  0  0  0  0
 15 16  2  0  0  0  0
 16 17  1  0  0  0  0
 17 18  2  0  0  0  0
 20 21  1  0  0  0  0
 22 23  1  0  0  0  0
 23 24  2  0  0  0  0
 24 25  1  0  0  0  0
 25 26  2  0  0  0  0
 26 27  1  0  0  0  0
 22 27  2  0  0  0  0
 25 28  1  0  0  0  0
 21 22  1  0  0  0  0
 19 20  1  0  0  0  0
 17 19  1  0  0  0  0
 10 15  1  0  0  0  0
  2  6  1  1  0  0  0
 29 30  1  0  0  0  0
 31 32  1  0  0  0  0
 32 33  2  0  0  0  0
 33 34  1  0  0  0  0
 34 35  2  0  0  0  0
 35 36  1  0  0  0  0
 31 36  2  0  0  0  0
 34 37  1  0  0  0  0
 30 31  1  0  0  0  0
  5 29  1  0  0  0  0
 38 39  1  0  0  0  0
 39 40  2  0  0  0  0
 40 41  1  0  0  0  0
 41 42  2  0  0  0  0
 42 43  1  0  0  0  0
 38 43  2  0  0  0  0
 44 45  1  0  0  0  0
 40 44  1  0  0  0  0
 41 46  1  0  0  0  0
  3 38  1  0  0  0  0
  3 47  1  6  0  0  0
M  END
>  <cdx:fragmentId>
1056

$$$$
