300810.cdx
  Mrv1902 05222410262D          

 23 22  0  0  0  0            999 V2000
    3.5565   -6.1346    0.0000 C   0  0  0  0  0  0  0  0  0  0  0  0
    4.2710   -6.5471    0.0000 C   0  0  0  0  0  0  0  0  0  0  0  0
    4.9854   -6.1346    0.0000 C   0  0  0  0  0  0  0  0  0  0  0  0
    5.6999   -6.5471    0.0000 C   0  0  0  0  0  0  0  0  0  0  0  0
    6.4144   -6.1346    0.0000 C   0  0  0  0  0  0  0  0  0  0  0  0
    7.1288   -6.5471    0.0000 C   0  0  0  0  0  0  0  0  0  0  0  0
    7.8433   -6.1346    0.0000 C   0  0  0  0  0  0  0  0  0  0  0  0
    8.5578   -6.5471    0.0000 C   0  0  0  0  0  0  0  0  0  0  0  0
    9.2723   -6.1346    0.0000 C   0  0  0  0  0  0  0  0  0  0  0  0
    3.5565   -5.3096    0.0000 O   0  0  0  0  0  0  0  0  0  0  0  0
    2.8420   -6.5471    0.0000 O   0  0  0  0  0  0  0  0  0  0  0  0
    9.2723   -5.3096    0.0000 O   0  0  0  0  0  0  0  0  0  0  0  0
    9.9867   -6.5471    0.0000 O   0  0  0  0  0  0  0  0  0  0  0  0
    2.1275   -6.1346    0.0000 C   0  0  0  0  0  0  0  0  0  0  0  0
    1.4131   -6.5471    0.0000 C   0  0  0  0  0  0  0  0  0  0  0  0
    0.6986   -6.1346    0.0000 C   0  0  0  0  0  0  0  0  0  0  0  0
   -0.0159   -6.5471    0.0000 O   0  0  0  0  0  0  0  0  0  0  0  0
    1.4131   -7.3721    0.0000 O   0  0  0  0  0  0  0  0  0  0  0  0
   10.7012   -6.1346    0.0000 C   0  0  0  0  0  0  0  0  0  0  0  0
   11.4157   -6.5471    0.0000 C   0  0  0  0  0  0  0  0  0  0  0  0
   12.1301   -6.1346    0.0000 C   0  0  0  0  0  0  0  0  0  0  0  0
   12.8446   -6.5471    0.0000 O   0  0  0  0  0  0  0  0  0  0  0  0
   11.4157   -7.3721    0.0000 O   0  0  0  0  0  0  0  0  0  0  0  0
  1  2  1  0  0  0  0
  2  3  1  0  0  0  0
  3  4  1  0  0  0  0
  4  5  1  0  0  0  0
  5  6  1  0  0  0  0
  6  7  1  0  0  0  0
  7  8  1  0  0  0  0
  8  9  1  0  0  0  0
  1 10  2  0  0  0  0
  1 11  1  0  0  0  0
  9 12  2  0  0  0  0
  9 13  1  0  0  0  0
 14 15  1  0  0  0  0
 15 16  1  0  0  0  0
 16 17  1  0  0  0  0
 15 18  1  0  0  0  0
 11 14  1  0  0  0  0
 19 20  1  0  0  0  0
 20 21  1  0  0  0  0
 21 22  1  0  0  0  0
 20 23  1  0  0  0  0
 13 19  1  0  0  0  0
M  END
>  <cdx:fragmentId>
420

$$$$
