300834.cdx
  Mrv1902 05222410202D          

 31 32  0  0  0  0            999 V2000
    8.5382   -9.0083    0.0000 N   0  0  0  0  0  0  0  0  0  0  0  0
    7.8237   -8.5958    0.0000 C   0  0  0  0  0  0  0  0  0  0  0  0
    7.1092   -9.0083    0.0000 C   0  0  0  0  0  0  0  0  0  0  0  0
    6.3947   -8.5958    0.0000 C   0  0  0  0  0  0  0  0  0  0  0  0
    5.6803   -9.0083    0.0000 C   0  0  0  0  0  0  0  0  0  0  0  0
    7.8237   -7.7708    0.0000 O   0  0  0  0  0  0  0  0  0  0  0  0
    5.6803   -9.8333    0.0000 O   0  0  0  0  0  0  0  0  0  0  0  0
    4.9658   -8.5958    0.0000 N   0  0  0  0  0  0  0  0  0  0  0  0
    4.2513   -9.0083    0.0000 C   0  0  0  0  0  0  0  0  0  0  0  0
    3.5369   -8.5958    0.0000 C   0  0  0  0  0  0  0  0  0  0  0  0
    1.9292  -10.0003    0.0000 N   0  0  0  0  0  0  0  0  0  0  0  0
    2.7362   -9.8287    0.0000 C   0  0  0  0  0  0  0  0  0  0  0  0
    2.8224   -9.0083    0.0000 C   0  0  0  0  0  0  0  0  0  0  0  0
    2.0687   -8.6727    0.0000 C   0  0  0  0  0  0  0  0  0  0  0  0
    1.8138   -7.8881    0.0000 C   0  0  0  0  0  0  0  0  0  0  0  0
    1.0068   -7.7166    0.0000 C   0  0  0  0  0  0  0  0  0  0  0  0
    0.4548   -8.3297    0.0000 C   0  0  0  0  0  0  0  0  0  0  0  0
    0.7097   -9.1143    0.0000 C   0  0  0  0  0  0  0  0  0  0  0  0
    1.5167   -9.2858    0.0000 C   0  0  0  0  0  0  0  0  0  0  0  0
    0.7519   -6.9319    0.0000 O   0  0  0  0  0  0  0  0  0  0  0  0
    9.9671   -4.8833    0.0000 N   0  0  0  0  0  0  0  0  0  0  0  0
   11.3960   -4.8833    0.0000 N   0  0  0  0  0  0  0  0  0  0  0  0
   10.6816   -5.2958    0.0000 C   0  0  0  0  0  0  0  0  0  0  0  0
   10.6816   -6.1208    0.0000 N   0  0  0  0  0  0  0  0  0  0  0  0
   10.6816   -8.5958    0.0000 O   0  0  0  0  0  0  0  0  0  0  0  0
    9.9671   -9.8333    0.0000 O   0  0  0  0  0  0  0  0  0  0  0  0
    9.9671   -6.5333    0.0000 C   0  0  0  0  0  0  0  0  0  0  0  0
    9.9671   -7.3583    0.0000 C   0  0  0  0  0  0  0  0  0  0  0  0
    9.2526   -7.7708    0.0000 C   0  0  0  0  0  0  0  0  0  0  0  0
    9.2526   -8.5958    0.0000 C   0  0  1  0  0  0  0  0  0  0  0  0
    9.9671   -9.0083    0.0000 C   0  0  0  0  0  0  0  0  0  0  0  0
 27 24  1  0  0  0  0
 24 23  2  0  0  0  0
 23 21  1  0  0  0  0
 23 22  1  0  0  0  0
 31 25  1  0  0  0  0
 31 26  2  0  0  0  0
 28 27  1  0  0  0  0
 29 28  1  0  0  0  0
 30 29  1  0  0  0  0
 30 31  1  0  0  0  0
  2  3  1  0  0  0  0
  3  4  1  0  0  0  0
  4  5  1  0  0  0  0
  2  6  2  0  0  0  0
  5  7  2  0  0  0  0
  9 10  1  0  0  0  0
 11 12  1  0  0  0  0
 12 13  2  0  0  0  0
 13 14  1  0  0  0  0
 14 15  1  0  0  0  0
 15 16  2  0  0  0  0
 16 17  1  0  0  0  0
 17 18  2  0  0  0  0
 18 19  1  0  0  0  0
 11 19  1  0  0  0  0
 14 19  2  0  0  0  0
 16 20  1  0  0  0  0
 10 13  1  0  0  0  0
  8  9  1  0  0  0  0
  5  8  1  0  0  0  0
  1  2  1  0  0  0  0
 30  1  1  1  0  0  0
M  END
>  <cdx:fragmentId>
39

$$$$
