300868.cdx
  Mrv1902 05222410222D          

 31 33  0  0  0  0            999 V2000
    6.8646   -5.4188    0.0000 C   0  0  0  0  0  0  0  0  0  0  0  0
    6.8646   -4.5938    0.0000 C   0  0  0  0  0  0  0  0  0  0  0  0
    6.1501   -3.3563    0.0000 C   0  0  0  0  0  0  0  0  0  0  0  0
    6.1501   -5.8313    0.0000 O   0  0  0  0  0  0  0  0  0  0  0  0
    7.5791   -5.8313    0.0000 O   0  0  0  0  0  0  0  0  0  0  0  0
    7.5791   -4.1813    0.0000 C   0  0  0  0  0  0  0  0  0  0  0  0
    6.8646   -7.8938    0.0000 C   0  0  0  0  0  0  0  0  0  0  0  0
    6.8646   -7.0688    0.0000 C   0  0  2  0  0  0  0  0  0  0  0  0
    7.5791   -6.6563    0.0000 C   0  0  2  0  0  0  0  0  0  0  0  0
    8.2935   -7.0688    0.0000 C   0  0  0  0  0  0  0  0  0  0  0  0
    9.0080   -6.6563    0.0000 C   0  0  0  0  0  0  0  0  0  0  0  0
    9.7225   -7.0688    0.0000 C   0  0  0  0  0  0  0  0  0  0  0  0
    9.7225   -7.8938    0.0000 C   0  0  0  0  0  0  0  0  0  0  0  0
    9.0080   -8.3063    0.0000 C   0  0  0  0  0  0  0  0  0  0  0  0
    8.2935   -7.8938    0.0000 C   0  0  0  0  0  0  0  0  0  0  0  0
    7.5791   -8.3063    0.0000 O   0  0  0  0  0  0  0  0  0  0  0  0
   10.4369   -6.6563    0.0000 C   0  0  0  0  0  0  0  0  0  0  0  0
   10.4369   -5.8313    0.0000 C   0  0  0  0  0  0  0  0  0  0  0  0
    9.7225   -5.4188    0.0000 C   0  0  0  0  0  0  0  0  0  0  0  0
    9.0080   -5.8313    0.0000 O   0  0  0  0  0  0  0  0  0  0  0  0
    9.7225   -4.5938    0.0000 O   0  0  0  0  0  0  0  0  0  0  0  0
    6.1501   -6.6563    0.0000 O   0  0  0  0  0  0  0  0  0  0  0  0
    5.4356   -7.0688    0.0000 C   0  0  0  0  0  0  0  0  0  0  0  0
    4.7212   -6.6563    0.0000 C   0  0  0  0  0  0  0  0  0  0  0  0
    3.2922   -6.6563    0.0000 C   0  0  0  0  0  0  0  0  0  0  0  0
    5.4356   -7.8938    0.0000 O   0  0  0  0  0  0  0  0  0  0  0  0
    4.7212   -5.8313    0.0000 C   0  0  0  0  0  0  0  0  0  0  0  0
    6.4521   -8.6083    0.0000 C   0  0  0  0  0  0  0  0  0  0  0  0
    6.0396   -7.8938    0.0000 C   0  0  0  0  0  0  0  0  0  0  0  0
    6.1501   -4.1813    0.0000 C   0  0  0  0  0  0  0  0  0  0  0  0
    4.0067   -7.0688    0.0000 C   0  0  0  0  0  0  0  0  0  0  0  0
 30  3  1  0  0  0  0
 31 25  1  0  0  0  0
  1  2  1  0  0  0  0
  2 30  2  0  0  0  0
  1  4  2  0  0  0  0
  1  5  1  0  0  0  0
  2  6  1  0  0  0  0
  7  8  1  0  0  0  0
  8  9  1  0  0  0  0
  9 10  1  0  0  0  0
 10 11  1  0  0  0  0
 11 12  2  0  0  0  0
 12 13  1  0  0  0  0
 13 14  2  0  0  0  0
 14 15  1  0  0  0  0
 10 15  2  0  0  0  0
 15 16  1  0  0  0  0
  7 16  1  0  0  0  0
 17 18  2  0  0  0  0
 18 19  1  0  0  0  0
 19 20  1  0  0  0  0
 11 20  1  0  0  0  0
 12 17  1  0  0  0  0
 19 21  2  0  0  0  0
 23 24  1  0  0  0  0
 24 31  2  0  0  0  0
 23 26  2  0  0  0  0
 24 27  1  0  0  0  0
 22 23  1  0  0  0  0
  8 22  1  1  0  0  0
  7 28  1  0  0  0  0
  7 29  1  0  0  0  0
  9  5  1  1  0  0  0
M  END
>  <cdx:fragmentId>
3561

$$$$
