300897.cdx
  Mrv1902 05222410222D          

 45 45  0  0  0  0            999 V2000
   12.2902   -8.4514    0.0000 C   0  0  0  0  0  0  0  0  0  0  0  0
   12.6931   -7.7315    0.0000 C   0  0  0  0  0  0  0  0  0  0  0  0
   13.5180   -7.7205    0.0000 C   0  0  0  0  0  0  0  0  0  0  0  0
   13.9210   -7.0006    0.0000 C   0  0  0  0  0  0  0  0  0  0  0  0
   14.7459   -6.9895    0.0000 C   0  0  0  0  0  0  0  0  0  0  0  0
   15.1488   -6.2696    0.0000 C   0  0  0  0  0  0  0  0  0  0  0  0
   15.9737   -6.2586    0.0000 C   0  0  0  0  0  0  0  0  0  0  0  0
   16.3766   -5.5387    0.0000 C   0  0  0  0  0  0  0  0  0  0  0  0
   17.2016   -5.5277    0.0000 C   0  0  0  0  0  0  0  0  0  0  0  0
   17.6045   -4.8077    0.0000 C   0  0  0  0  0  0  0  0  0  0  0  0
   18.4294   -4.7967    0.0000 C   0  0  0  0  0  0  0  0  0  0  0  0
   18.8323   -4.0768    0.0000 C   0  0  0  0  0  0  0  0  0  0  0  0
   19.6572   -4.0658    0.0000 C   0  0  0  0  0  0  0  0  0  0  0  0
   20.0602   -3.3458    0.0000 C   0  0  0  0  0  0  0  0  0  0  0  0
   20.8851   -3.3348    0.0000 C   0  0  0  0  0  0  0  0  0  0  0  0
   21.2880   -2.6149    0.0000 C   0  0  0  0  0  0  0  0  0  0  0  0
   12.7122   -9.1603    0.0000 O   0  0  0  0  0  0  0  0  0  0  0  0
   11.4653   -8.4625    0.0000 O   0  0  0  0  0  0  0  0  0  0  0  0
   11.0624   -9.1824    0.0000 C   0  0  0  0  0  0  0  0  0  0  0  0
   10.2374   -9.1934    0.0000 C   0  0  2  0  0  0  0  0  0  0  0  0
    9.8154   -8.4845    0.0000 C   0  0  2  0  0  0  0  0  0  0  0  0
    8.9905   -8.4955    0.0000 C   0  0  1  0  0  0  0  0  0  0  0  0
    8.5876   -9.2155    0.0000 C   0  0  2  0  0  0  0  0  0  0  0  0
    9.0096   -9.9244    0.0000 C   0  0  1  0  0  0  0  0  0  0  0  0
    9.8345   -9.9133    0.0000 O   0  0  0  0  0  0  0  0  0  0  0  0
    7.7627   -9.2265    0.0000 O   0  0  0  0  0  0  0  0  0  0  0  0
    8.5685   -7.7867    0.0000 O   0  0  0  0  0  0  0  0  0  0  0  0
   10.2183   -7.7646    0.0000 O   0  0  0  0  0  0  0  0  0  0  0  0
    8.6067  -10.6443    0.0000 O   0  0  0  0  0  0  0  0  0  0  0  0
    9.3211  -12.7068    0.0000 O   0  0  0  0  0  0  0  0  0  0  0  0
   14.3224   -9.8193    0.0000 C   0  0  0  0  0  0  0  0  0  0  0  0
   13.6080  -10.2318    0.0000 C   0  0  0  0  0  0  0  0  0  0  0  0
   12.8935   -9.8193    0.0000 C   0  0  0  0  0  0  0  0  0  0  0  0
   12.1790  -10.2318    0.0000 C   0  0  0  0  0  0  0  0  0  0  0  0
   11.4646  -10.6443    0.0000 C   0  0  0  0  0  0  0  0  0  0  0  0
   10.7501  -11.0568    0.0000 C   0  0  0  0  0  0  0  0  0  0  0  0
   10.0356  -11.4693    0.0000 C   0  0  0  0  0  0  0  0  0  0  0  0
    9.3211  -11.8818    0.0000 C   0  0  2  0  0  0  0  0  0  0  0  0
    8.6067  -11.4693    0.0000 C   0  0  1  0  0  0  0  0  0  0  0  0
    7.8922  -11.8818    0.0000 C   0  0  0  0  0  0  0  0  0  0  0  0
    7.1777  -11.4693    0.0000 C   0  0  0  0  0  0  0  0  0  0  0  0
    6.4633  -11.8818    0.0000 C   0  0  0  0  0  0  0  0  0  0  0  0
    5.7488  -11.4693    0.0000 C   0  0  0  0  0  0  0  0  0  0  0  0
    5.0343  -11.8818    0.0000 C   0  0  0  0  0  0  0  0  0  0  0  0
    4.3198  -11.4693    0.0000 O   0  0  0  0  0  0  0  0  0  0  0  0
 39 29  1  1  0  0  0
 38 30  1  1  0  0  0
 32 31  1  0  0  0  0
 33 32  2  0  0  0  0
 34 33  1  0  0  0  0
 35 34  3  0  0  0  0
 36 35  1  0  0  0  0
 37 36  3  0  0  0  0
 38 37  1  0  0  0  0
 39 38  1  0  0  0  0
 40 39  1  0  0  0  0
 41 40  2  0  0  0  0
 42 41  1  0  0  0  0
 43 42  1  0  0  0  0
 44 43  1  0  0  0  0
  1  2  1  0  0  0  0
  2  3  1  0  0  0  0
  3  4  1  0  0  0  0
  4  5  1  0  0  0  0
  5  6  1  0  0  0  0
  6  7  1  0  0  0  0
  7  8  1  0  0  0  0
  8  9  1  0  0  0  0
  9 10  1  0  0  0  0
 10 11  1  0  0  0  0
 11 12  1  0  0  0  0
 12 13  1  0  0  0  0
 13 14  1  0  0  0  0
 14 15  1  0  0  0  0
 15 16  1  0  0  0  0
  1 17  2  0  0  0  0
  1 18  1  0  0  0  0
 20 21  1  0  0  0  0
 21 22  1  0  0  0  0
 22 23  1  0  0  0  0
 23 24  1  0  0  0  0
 24 25  1  0  0  0  0
 20 25  1  0  0  0  0
 23 26  1  6  0  0  0
 22 27  1  1  0  0  0
 21 28  1  6  0  0  0
 24 29  1  1  0  0  0
 20 19  1  1  0  0  0
 18 19  1  0  0  0  0
 44 45  1  0  0  0  0
M  END
>  <cdx:fragmentId>
63

$$$$
