30084.cdx
  Mrv1902 05222410202D          

 14 14  0  0  0  0            999 V2000
    4.4767  -10.8167    0.0000 C   0  0  0  0  0  0  0  0  0  0  0  0
    4.2124  -11.5983    0.0000 C   0  0  0  0  0  0  0  0  0  0  0  0
    4.8740  -12.0911    0.0000 O   0  0  0  0  0  0  0  0  0  0  0  0
    5.5472  -11.6143    0.0000 C   0  0  0  0  0  0  0  0  0  0  0  0
    5.3017  -10.8266    0.0000 C   0  0  0  0  0  0  0  0  0  0  0  0
    3.4248  -11.8438    0.0000 O   0  0  0  0  0  0  0  0  0  0  0  0
    6.2617  -12.0268    0.0000 C   0  0  0  0  0  0  0  0  0  0  0  0
    6.9761  -11.6143    0.0000 C   0  0  0  0  0  0  0  0  0  0  0  0
    7.6906  -12.0268    0.0000 C   0  0  0  0  0  0  0  0  0  0  0  0
    8.4051  -11.6143    0.0000 C   0  0  0  0  0  0  0  0  0  0  0  0
    9.1195  -12.0268    0.0000 C   0  0  0  0  0  0  0  0  0  0  0  0
    9.8340  -11.6143    0.0000 C   0  0  0  0  0  0  0  0  0  0  0  0
   10.5485  -12.0268    0.0000 C   0  0  0  0  0  0  0  0  0  0  0  0
   11.2630  -11.6143    0.0000 C   0  0  0  0  0  0  0  0  0  0  0  0
  1  2  1  0  0  0  0
  2  3  1  0  0  0  0
  3  4  1  0  0  0  0
  4  5  1  0  0  0  0
  5  1  1  0  0  0  0
  2  6  2  0  0  0  0
  4  7  1  0  0  0  0
  7  8  1  0  0  0  0
  8  9  1  0  0  0  0
  9 10  1  0  0  0  0
 10 11  1  0  0  0  0
 11 12  1  0  0  0  0
 12 13  1  0  0  0  0
 13 14  1  0  0  0  0
M  END
>  <cdx:fragmentId>
5

$$$$
