300840.cdx
  Mrv1902 05222410222D          

 15 16  0  0  0  0            999 V2000
    9.0907   -4.7798    0.0000 C   0  0  0  0  0  0  0  0  0  0  0  0
    7.7317   -4.3382    0.0000 C   0  0  0  0  0  0  0  0  0  0  0  0
    8.2837   -4.9513    0.0000 N   0  0  0  0  0  0  0  0  0  0  0  0
    8.0287   -5.7359    0.0000 C   0  0  0  0  0  0  0  0  0  0  0  0
    7.2218   -5.9074    0.0000 C   0  0  0  0  0  0  0  0  0  0  0  0
    4.0388   -6.5345    0.0000 O   0  0  0  0  0  0  0  0  0  0  0  0
    6.1822   -7.7720    0.0000 C   0  0  0  0  0  0  0  0  0  0  0  0
    5.4677   -8.1845    0.0000 C   0  0  0  0  0  0  0  0  0  0  0  0
    4.7533   -7.7720    0.0000 C   0  0  0  0  0  0  0  0  0  0  0  0
    4.7533   -6.9470    0.0000 C   0  0  0  0  0  0  0  0  0  0  0  0
    5.4677   -6.5345    0.0000 C   0  0  0  0  0  0  0  0  0  0  0  0
    6.1822   -6.9470    0.0000 C   0  0  0  0  0  0  0  0  0  0  0  0
    6.9668   -6.6921    0.0000 C   0  0  0  0  0  0  0  0  0  0  0  0
    7.4518   -7.3595    0.0000 C   0  0  0  0  0  0  0  0  0  0  0  0
    6.9668   -8.0269    0.0000 N   0  0  0  0  0  0  0  0  0  0  0  0
 13  5  1  0  0  0  0
  4  3  1  0  0  0  0
  3  1  1  0  0  0  0
  3  2  1  0  0  0  0
  5  4  1  0  0  0  0
 10  6  1  0  0  0  0
 12  7  2  0  0  0  0
 15  7  1  0  0  0  0
  8  7  1  0  0  0  0
  9  8  2  0  0  0  0
 10  9  1  0  0  0  0
 11 10  2  0  0  0  0
 12 11  1  0  0  0  0
 13 12  1  0  0  0  0
 14 13  2  0  0  0  0
 15 14  1  0  0  0  0
M  END
>  <cdx:fragmentId>
2301

$$$$
