300889.cdx
  Mrv1902 05222410252D          

 17 18  0  0  0  0            999 V2000
    8.3875   -8.1400    0.0000 C   0  0  1  0  0  0  0  0  0  0  0  0
    9.1844   -8.3535    0.0000 C   0  0  0  0  0  0  0  0  0  0  0  0
    8.9709   -9.1504    0.0000 C   0  0  0  0  0  0  0  0  0  0  0  0
    8.1740   -8.9369    0.0000 C   0  0  2  0  0  0  0  0  0  0  0  0
    7.3771   -9.1504    0.0000 C   0  0  2  0  0  0  0  0  0  0  0  0
    7.1636   -8.3535    0.0000 C   0  0  1  0  0  0  0  0  0  0  0  0
    6.9500   -7.5566    0.0000 C   0  0  0  0  0  0  0  0  0  0  0  0
    7.5334   -6.9733    0.0000 O   0  0  0  0  0  0  0  0  0  0  0  0
    6.1531   -7.3431    0.0000 O   0  0  0  0  0  0  0  0  0  0  0  0
    7.3771   -9.9754    0.0000 C   0  0  0  0  0  0  0  0  0  0  0  0
    8.0916  -10.3879    0.0000 O   0  0  0  0  0  0  0  0  0  0  0  0
    6.6626  -10.3879    0.0000 O   0  0  0  0  0  0  0  0  0  0  0  0
    6.5591   -9.2581    0.0000 C   0  0  0  0  0  0  0  0  0  0  0  0
    6.3667   -8.5671    0.0000 C   0  0  0  0  0  0  0  0  0  0  0  0
    8.1740   -9.7619    0.0000 H   0  0  0  0  0  0  0  0  0  0  0  0
    8.6010   -7.3431    0.0000 H   0  0  0  0  0  0  0  0  0  0  0  0
    7.8100   -7.5350    0.0000 O   0  0  0  0  0  0  0  0  0  0  0  0
  1  2  1  0  0  0  0
  2  3  1  0  0  0  0
  3  4  1  0  0  0  0
  4  5  1  0  0  0  0
  5  6  1  0  0  0  0
  6  1  1  0  0  0  0
  6  7  1  0  0  0  0
  7  8  2  0  0  0  0
  7  9  1  0  0  0  0
  5 10  1  0  0  0  0
 10 11  2  0  0  0  0
 10 12  1  0  0  0  0
  5 13  1  6  0  0  0
  6 14  1  6  0  0  0
  4 15  1  1  0  0  0
  1 16  1  6  0  0  0
  1 17  1  0  0  0  0
 17  4  1  0  0  0  0
M  END
>  <cdx:fragmentId>
1536

$$$$
