300849.cdx
  Mrv1902 05222410242D          

 27 28  0  0  0  0            999 V2000
    3.8368   -7.7894    0.0000 C   0  0  1  0  0  0  0  0  0  0  0  0
    3.8368   -8.6144    0.0000 C   0  0  1  0  0  0  0  0  0  0  0  0
    4.5512   -9.0269    0.0000 C   0  0  2  0  0  0  0  0  0  0  0  0
    5.2657   -8.6144    0.0000 C   0  0  1  0  0  0  0  0  0  0  0  0
    5.2657   -7.7894    0.0000 O   0  0  0  0  0  0  0  0  0  0  0  0
    4.5512   -7.3769    0.0000 C   0  0  2  0  0  0  0  0  0  0  0  0
    5.9802   -9.0269    0.0000 O   0  0  0  0  0  0  0  0  0  0  0  0
    6.6947   -8.6144    0.0000 C   0  0  2  0  0  0  0  0  0  0  0  0
    7.4091   -9.0269    0.0000 C   0  0  0  0  0  0  0  0  0  0  0  0
    8.1236   -8.6144    0.0000 C   0  0  0  0  0  0  0  0  0  0  0  0
    8.1236   -7.7894    0.0000 C   0  0  0  0  0  0  0  0  0  0  0  0
    7.4091   -7.3769    0.0000 C   0  0  0  0  0  0  0  0  0  0  0  0
    6.6947   -7.7894    0.0000 C   0  0  0  0  0  0  0  0  0  0  0  0
    6.9966   -6.6624    0.0000 C   0  0  0  0  0  0  0  0  0  0  0  0
    7.8216   -6.6624    0.0000 C   0  0  0  0  0  0  0  0  0  0  0  0
    8.8381   -7.3769    0.0000 C   0  0  0  0  0  0  0  0  0  0  0  0
    9.5525   -7.7894    0.0000 C   0  0  0  0  0  0  0  0  0  0  0  0
   10.2670   -7.3769    0.0000 C   0  0  1  0  0  0  0  0  0  0  0  0
   10.9815   -7.7894    0.0000 C   0  0  0  0  0  0  0  0  0  0  0  0
    8.8381   -9.0269    0.0000 C   0  0  0  0  0  0  0  0  0  0  0  0
    4.5512   -6.5519    0.0000 C   0  0  0  0  0  0  0  0  0  0  0  0
    3.1223   -9.0269    0.0000 O   0  0  0  0  0  0  0  0  0  0  0  0
    3.1223   -7.3769    0.0000 O   0  0  0  0  0  0  0  0  0  0  0  0
    4.5512   -9.8519    0.0000 O   0  0  0  0  0  0  0  0  0  0  0  0
   10.2670   -6.5519    0.0000 O   0  0  0  0  0  0  0  0  0  0  0  0
    9.5525   -6.1394    0.0000 C   0  0  0  0  0  0  0  0  0  0  0  0
    3.8368   -6.1394    0.0000 O   0  0  0  0  0  0  0  0  0  0  0  0
  1  2  1  0  0  0  0
  2  3  1  0  0  0  0
  3  4  1  0  0  0  0
  4  5  1  0  0  0  0
  5  6  1  0  0  0  0
  6  1  1  0  0  0  0
  4  7  1  1  0  0  0
  8  7  1  1  0  0  0
  8  9  1  0  0  0  0
  9 10  1  0  0  0  0
 10 11  2  0  0  0  0
 11 12  1  0  0  0  0
 12 13  1  0  0  0  0
 13  8  1  0  0  0  0
 12 14  1  0  0  0  0
 12 15  1  0  0  0  0
 11 16  1  0  0  0  0
 16 17  2  0  0  0  0
 17 18  1  0  0  0  0
 18 19  1  0  0  0  0
 10 20  1  0  0  0  0
  6 21  1  1  0  0  0
  2 22  1  1  0  0  0
  1 23  1  6  0  0  0
  3 24  1  6  0  0  0
 25 26  1  0  0  0  0
 18 25  1  6  0  0  0
 21 27  1  0  0  0  0
M  END
>  <cdx:fragmentId>
1412

$$$$
