300999.cdx
  Mrv1902 05222410272D          

 16 17  0  0  0  0            999 V2000
    6.8020   -8.0600    0.0000 C   0  0  1  0  0  0  0  0  0  0  0  0
    7.5165   -8.4725    0.0000 C   0  0  0  0  0  0  0  0  0  0  0  0
    7.5165   -9.2975    0.0000 C   0  0  0  0  0  0  0  0  0  0  0  0
    6.8020   -9.7100    0.0000 C   0  0  2  0  0  0  0  0  0  0  0  0
    6.0875   -9.2975    0.0000 C   0  0  2  0  0  0  0  0  0  0  0  0
    5.3731   -9.7100    0.0000 C   0  0  0  0  0  0  0  0  0  0  0  0
    4.6586   -9.2975    0.0000 C   0  0  0  0  0  0  0  0  0  0  0  0
    4.6586   -8.4725    0.0000 C   0  0  0  0  0  0  0  0  0  0  0  0
    5.3731   -8.0600    0.0000 C   0  0  0  0  0  0  0  0  0  0  0  0
    6.0875   -8.4725    0.0000 C   0  0  0  0  0  0  0  0  0  0  0  0
    6.0875   -6.8225    0.0000 C   0  0  0  0  0  0  0  0  0  0  0  0
    6.8020   -7.2350    0.0000 C   0  0  0  0  0  0  0  0  0  0  0  0
    7.5165   -6.8225    0.0000 C   0  0  0  0  0  0  0  0  0  0  0  0
    3.9441   -8.0600    0.0000 C   0  0  0  0  0  0  0  0  0  0  0  0
    6.8020  -10.5350    0.0000 C   0  0  0  0  0  0  0  0  0  0  0  0
    6.0875  -10.1225    0.0000 H   0  0  0  0  0  0  0  0  0  0  0  0
  1  2  1  0  0  0  0
  2  3  1  0  0  0  0
  3  4  1  0  0  0  0
  4  5  1  0  0  0  0
  5  6  1  0  0  0  0
  6  7  1  0  0  0  0
  7  8  2  0  0  0  0
  8  9  1  0  0  0  0
  9 10  2  0  0  0  0
  1 10  1  0  0  0  0
  5 10  1  0  0  0  0
 11 12  1  0  0  0  0
 12 13  1  0  0  0  0
  1 12  1  1  0  0  0
  8 14  1  0  0  0  0
  4 15  1  1  0  0  0
  5 16  1  1  0  0  0
M  END
>  <cdx:fragmentId>
10964

$$$$
