300943.cdx
  Mrv1902 05222410192D          

 25 27  0  0  0  0            999 V2000
    7.0857   -4.8217    0.0000 O   0  0  0  0  0  0  0  0  0  0  0  0
    7.5706   -5.4891    0.0000 C   0  0  0  0  0  0  0  0  0  0  0  0
    7.0857   -6.1565    0.0000 C   0  0  0  0  0  0  0  0  0  0  0  0
    6.3010   -5.9016    0.0000 C   0  0  0  0  0  0  0  0  0  0  0  0
    6.3010   -5.0766    0.0000 C   0  0  0  0  0  0  0  0  0  0  0  0
    5.5866   -4.6641    0.0000 C   0  0  0  0  0  0  0  0  0  0  0  0
    4.8721   -5.0766    0.0000 C   0  0  0  0  0  0  0  0  0  0  0  0
    4.8721   -5.9016    0.0000 C   0  0  0  0  0  0  0  0  0  0  0  0
    5.5866   -6.3141    0.0000 C   0  0  0  0  0  0  0  0  0  0  0  0
    4.1576   -6.3141    0.0000 C   0  0  0  0  0  0  0  0  0  0  0  0
    4.1576   -7.1391    0.0000 O   0  0  0  0  0  0  0  0  0  0  0  0
    3.4432   -5.9016    0.0000 O   0  0  0  0  0  0  0  0  0  0  0  0
    5.5866   -3.8391    0.0000 O   0  0  0  0  0  0  0  0  0  0  0  0
    4.8721   -3.4266    0.0000 C   0  0  0  0  0  0  0  0  0  0  0  0
    7.3406   -6.9412    0.0000 C   0  0  0  0  0  0  0  0  0  0  0  0
    8.1476   -7.1127    0.0000 O   0  0  0  0  0  0  0  0  0  0  0  0
    8.3956   -5.4891    0.0000 C   0  0  0  0  0  0  0  0  0  0  0  0
    8.8081   -4.7746    0.0000 C   0  0  0  0  0  0  0  0  0  0  0  0
    9.6331   -4.7746    0.0000 C   0  0  0  0  0  0  0  0  0  0  0  0
   10.0456   -5.4891    0.0000 C   0  0  0  0  0  0  0  0  0  0  0  0
    9.6331   -6.2036    0.0000 C   0  0  0  0  0  0  0  0  0  0  0  0
    8.8081   -6.2036    0.0000 C   0  0  0  0  0  0  0  0  0  0  0  0
   10.0456   -4.0602    0.0000 O   0  0  0  0  0  0  0  0  0  0  0  0
   10.8706   -4.0602    0.0000 C   0  0  0  0  0  0  0  0  0  0  0  0
   10.8706   -5.4891    0.0000 O   0  0  0  0  0  0  0  0  0  0  0  0
  1  2  1  0  0  0  0
  2  3  1  0  0  0  0
  3  4  1  0  0  0  0
  4  5  1  0  0  0  0
  1  5  1  0  0  0  0
  6  7  1  0  0  0  0
  7  8  2  0  0  0  0
  8  9  1  0  0  0  0
  4  9  2  0  0  0  0
  5  6  2  0  0  0  0
 10 11  2  0  0  0  0
 10 12  1  0  0  0  0
  8 10  1  0  0  0  0
 13 14  1  0  0  0  0
  6 13  1  0  0  0  0
 15 16  1  0  0  0  0
  3 15  1  0  0  0  0
 17 18  1  0  0  0  0
 18 19  2  0  0  0  0
 19 20  1  0  0  0  0
 20 21  2  0  0  0  0
 21 22  1  0  0  0  0
 17 22  2  0  0  0  0
 23 24  1  0  0  0  0
 19 23  1  0  0  0  0
 20 25  1  0  0  0  0
  2 17  1  0  0  0  0
M  END
>  <cdx:fragmentId>
5374

$$$$
