300978.cdx
  Mrv1902 05222410182D          

 37 42  0  0  0  0            999 V2000
    7.6692  -11.7333    0.0000 H   0  0  0  0  0  0  0  0  0  0  0  0
    5.1945  -11.7668    0.0000 H   0  0  0  0  0  0  0  0  0  0  0  0
    9.1174   -7.4292    0.0000 O   0  0  0  0  0  0  0  0  0  0  0  0
    8.7146   -8.1492    0.0000 C   0  0  0  0  0  0  0  0  0  0  0  0
   12.1330   -6.4511    0.0000 O   0  0  0  0  0  0  0  0  0  0  0  0
   10.2364   -7.5315    0.0000 C   0  0  0  0  0  0  0  0  0  0  0  0
   10.7801   -6.9110    0.0000 C   0  0  0  0  0  0  0  0  0  0  0  0
   11.5893   -7.0716    0.0000 C   0  0  0  0  0  0  0  0  0  0  0  0
   11.8549   -7.8527    0.0000 C   0  0  0  0  0  0  0  0  0  0  0  0
   11.3112   -8.4732    0.0000 C   0  0  0  0  0  0  0  0  0  0  0  0
   10.5020   -8.3126    0.0000 C   0  0  0  0  0  0  0  0  0  0  0  0
    9.7312  -12.3219    0.0000 C   0  0  0  0  0  0  0  0  0  0  0  0
    9.8918  -11.5127    0.0000 O   0  0  0  0  0  0  0  0  0  0  0  0
    8.0303   -9.8817    0.0000 C   0  0  0  0  0  0  0  0  0  0  0  0
    7.8697  -10.6909    0.0000 C   0  0  0  0  0  0  0  0  0  0  0  0
    8.4902  -11.2346    0.0000 C   0  0  0  0  0  0  0  0  0  0  0  0
    9.2713  -10.9690    0.0000 C   0  0  0  0  0  0  0  0  0  0  0  0
    9.4319  -10.1598    0.0000 C   0  0  0  0  0  0  0  0  0  0  0  0
    8.8114   -9.6161    0.0000 C   0  0  0  0  0  0  0  0  0  0  0  0
    9.1367   -8.8580    0.0000 C   0  0  1  0  0  0  0  0  0  0  0  0
    9.9583   -8.9331    0.0000 C   0  0  2  0  0  0  0  0  0  0  0  0
   10.1407   -9.7377    0.0000 O   0  0  0  0  0  0  0  0  0  0  0  0
    5.7538  -10.9745    0.0000 C   0  0  0  0  0  0  0  0  0  0  0  0
    7.0886  -10.9564    0.0000 C   0  0  1  0  0  0  0  0  0  0  0  0
    6.4147  -10.4806    0.0000 O   0  0  0  0  0  0  0  0  0  0  0  0
    5.7751  -12.5436    0.0000 C   0  0  2  0  0  0  0  0  0  0  0  0
    6.0194  -11.7556    0.0000 C   0  0  2  0  0  0  0  0  0  0  0  0
    6.8443  -11.7444    0.0000 C   0  0  2  0  0  0  0  0  0  0  0  0
    7.1098  -12.5255    0.0000 C   0  0  0  0  0  0  0  0  0  0  0  0
    6.4490  -13.0194    0.0000 O   0  0  0  0  0  0  0  0  0  0  0  0
    2.6507  -13.6058    0.0000 O   0  0  0  0  0  0  0  0  0  0  0  0
    3.5924  -12.5310    0.0000 C   0  0  0  0  0  0  0  0  0  0  0  0
    4.3735  -12.2655    0.0000 C   0  0  0  0  0  0  0  0  0  0  0  0
    4.9940  -12.8091    0.0000 C   0  0  0  0  0  0  0  0  0  0  0  0
    4.8334  -13.6184    0.0000 C   0  0  0  0  0  0  0  0  0  0  0  0
    4.0523  -13.8839    0.0000 C   0  0  0  0  0  0  0  0  0  0  0  0
    3.4318  -13.3402    0.0000 C   0  0  0  0  0  0  0  0  0  0  0  0
 28  1  1  6  0  0  0
 27  2  1  6  0  0  0
 26 34  1  6  0  0  0
 24 15  1  6  0  0  0
 20  4  1  6  0  0  0
  4  3  1  0  0  0  0
 21 11  1  1  0  0  0
  8  5  1  0  0  0  0
 11  6  2  0  0  0  0
  7  6  1  0  0  0  0
  8  7  2  0  0  0  0
  9  8  1  0  0  0  0
 10  9  2  0  0  0  0
 11 10  1  0  0  0  0
 17 13  1  0  0  0  0
 13 12  1  0  0  0  0
 18 17  2  0  0  0  0
 19 14  2  0  0  0  0
 15 14  1  0  0  0  0
 16 15  2  0  0  0  0
 17 16  1  0  0  0  0
 22 18  1  0  0  0  0
 19 18  1  0  0  0  0
 20 19  1  0  0  0  0
 21 20  1  0  0  0  0
 22 21  1  0  0  0  0
 27 23  1  0  0  0  0
 28 24  1  0  0  0  0
 25 23  1  0  0  0  0
 25 24  1  0  0  0  0
 30 26  1  0  0  0  0
 27 26  1  0  0  0  0
 28 27  1  0  0  0  0
 29 28  1  0  0  0  0
 30 29  1  0  0  0  0
 37 31  1  0  0  0  0
 37 32  2  0  0  0  0
 33 32  1  0  0  0  0
 34 33  2  0  0  0  0
 35 34  1  0  0  0  0
 36 35  2  0  0  0  0
 37 36  1  0  0  0  0
M  END
>  <cdx:fragmentId>
9226

$$$$
