300924.cdx
  Mrv1902 05222410212D          

 74 79  0  0  0  0            999 V2000
    5.7596   -9.5994    0.0000 C   0  0  0  0  0  0  0  0  0  0  0  0
    5.7596  -10.4244    0.0000 C   0  0  0  0  0  0  0  0  0  0  0  0
    6.4741  -10.8369    0.0000 C   0  0  0  0  0  0  0  0  0  0  0  0
    7.1885  -10.4244    0.0000 C   0  0  0  0  0  0  0  0  0  0  0  0
    7.1885   -9.5994    0.0000 C   0  0  0  0  0  0  0  0  0  0  0  0
    6.4741   -9.1869    0.0000 C   0  0  0  0  0  0  0  0  0  0  0  0
    7.9732  -10.6793    0.0000 N   0  0  0  0  0  0  0  0  0  0  0  0
    8.4581  -10.0119    0.0000 C   0  0  0  0  0  0  0  0  0  0  0  0
    7.9732   -9.3444    0.0000 C   0  0  0  0  0  0  0  0  0  0  0  0
    9.2556  -10.7546    0.0000 N   0  0  0  0  0  0  0  0  0  0  0  0
    9.7405  -11.4220    0.0000 C   0  0  0  0  0  0  0  0  0  0  0  0
   10.5251  -11.1671    0.0000 C   0  0  0  0  0  0  0  0  0  0  0  0
   10.5251  -10.3421    0.0000 N   0  0  0  0  0  0  0  0  0  0  0  0
    9.7405  -10.0872    0.0000 C   0  0  0  0  0  0  0  0  0  0  0  0
   11.2396  -11.5796    0.0000 C   0  0  0  0  0  0  0  0  0  0  0  0
    5.0039  -10.5480    0.0000 C   0  0  2  0  0  0  0  0  0  0  0  0
    4.2894  -10.1355    0.0000 C   0  0  1  0  0  0  0  0  0  0  0  0
    3.8769   -9.4210    0.0000 C   0  0  0  0  0  0  0  0  0  0  0  0
    3.8769   -8.5960    0.0000 N   0  0  0  0  0  0  0  0  0  0  0  0
    3.0800   -9.6346    0.0000 O   0  0  0  0  0  0  0  0  0  0  0  0
    4.2894   -7.8816    0.0000 C   0  0  2  0  0  0  0  0  0  0  0  0
    5.0039   -7.4691    0.0000 C   0  0  0  0  0  0  0  0  0  0  0  0
    5.7183   -7.8816    0.0000 N   0  0  0  0  0  0  0  0  0  0  0  0
    6.4328   -7.4691    0.0000 C   0  0  2  0  0  0  0  0  0  0  0  0
    7.1473   -7.8816    0.0000 C   0  0  0  0  0  0  0  0  0  0  0  0
    7.8617   -7.4691    0.0000 N   0  0  0  0  0  0  0  0  0  0  0  0
    8.4525   -7.7303    0.0000 C   0  0  1  0  0  0  0  0  0  0  0  0
    7.1473   -8.7066    0.0000 O   0  0  0  0  0  0  0  0  0  0  0  0
    5.0039   -6.6441    0.0000 O   0  0  0  0  0  0  0  0  0  0  0  0
    6.4328   -6.6441    0.0000 C   0  0  0  0  0  0  0  0  0  0  0  0
    5.7183   -6.2316    0.0000 C   0  0  0  0  0  0  0  0  0  0  0  0
    7.1473   -6.2316    0.0000 C   0  0  0  0  0  0  0  0  0  0  0  0
    3.7060   -7.2982    0.0000 C   0  0  0  0  0  0  0  0  0  0  0  0
    3.9195   -6.5013    0.0000 C   0  0  0  0  0  0  0  0  0  0  0  0
    3.3362   -5.9180    0.0000 C   0  0  0  0  0  0  0  0  0  0  0  0
    5.0039  -11.3730    0.0000 C   0  0  0  0  0  0  0  0  0  0  0  0
    5.7183  -11.7855    0.0000 C   0  0  0  0  0  0  0  0  0  0  0  0
    4.2894  -11.7855    0.0000 C   0  0  0  0  0  0  0  0  0  0  0  0
    7.9319   -8.2306    0.0000 C   0  0  0  0  0  0  0  0  0  0  0  0
    9.2907   -7.4691    0.0000 C   0  0  0  0  0  0  0  0  0  0  0  0
   10.0052   -7.8816    0.0000 N   0  0  0  0  0  0  0  0  0  0  0  0
   10.7196   -7.4691    0.0000 C   0  0  2  0  0  0  0  0  0  0  0  0
    9.2907   -6.6441    0.0000 O   0  0  0  0  0  0  0  0  0  0  0  0
   11.9567   -7.7990    0.0000 C   0  0  0  0  0  0  0  0  0  0  0  0
   12.5910   -7.2715    0.0000 O   0  0  0  0  0  0  0  0  0  0  0  0
   10.7196   -6.6441    0.0000 C   0  0  0  0  0  0  0  0  0  0  0  0
   11.4341   -6.2316    0.0000 C   0  0  0  0  0  0  0  0  0  0  0  0
   11.4341   -5.4066    0.0000 C   0  0  0  0  0  0  0  0  0  0  0  0
   12.1486   -4.9941    0.0000 N   0  0  0  0  0  0  0  0  0  0  0  0
   12.8630   -5.4066    0.0000 C   0  0  0  0  0  0  0  0  0  0  0  0
   13.5775   -4.9941    0.0000 N   0  0  0  0  0  0  0  0  0  0  0  0
   12.8630   -6.2316    0.0000 N   0  0  0  0  0  0  0  0  0  0  0  0
    3.7060  -10.7189    0.0000 N   0  0  0  0  0  0  0  0  0  0  0  0
    2.9091  -10.9324    0.0000 C   0  0  0  0  0  0  0  0  0  0  0  0
    2.9091  -11.7574    0.0000 O   0  0  0  0  0  0  0  0  0  0  0  0
    2.1122  -10.7189    0.0000 C   0  0  1  0  0  0  0  0  0  0  0  0
    1.8166   -9.9487    0.0000 N   0  0  0  0  0  0  0  0  0  0  0  0
    0.9927   -9.9919    0.0000 C   0  0  0  0  0  0  0  0  0  0  0  0
    0.7792  -10.7887    0.0000 C   0  0  0  0  0  0  0  0  0  0  0  0
    1.4711  -11.2381    0.0000 C   0  0  0  0  0  0  0  0  0  0  0  0
    0.4735   -9.3507    0.0000 O   0  0  0  0  0  0  0  0  0  0  0  0
    8.4525   -6.9053    0.0000 H   0  0  0  0  0  0  0  0  0  0  0  0
    4.7164   -6.2878    0.0000 C   0  0  0  0  0  0  0  0  0  0  0  0
    4.9300   -5.4909    0.0000 C   0  0  0  0  0  0  0  0  0  0  0  0
   11.9567   -8.6240    0.0000 N   0  0  0  0  0  0  0  0  0  0  0  0
   12.6712   -9.0365    0.0000 C   0  0  0  0  0  0  0  0  0  0  0  0
   12.6712   -9.8615    0.0000 C   0  0  0  0  0  0  0  0  0  0  0  0
   13.3856  -10.2740    0.0000 O   0  0  0  0  0  0  0  0  0  0  0  0
   11.9541  -11.1671    0.0000 C   0  0  0  0  0  0  0  0  0  0  0  0
   11.9567  -10.2740    0.0000 N   0  0  0  0  0  0  0  0  0  0  0  0
   12.6679  -11.5807    0.0000 C   0  0  0  0  0  0  0  0  0  0  0  0
   13.3830  -11.1692    0.0000 O   0  0  0  0  0  0  0  0  0  0  0  0
   12.6667  -12.4057    0.0000 O   0  0  0  0  0  0  0  0  0  0  0  0
    5.7183   -5.4066    0.0000 C   0  0  0  0  0  0  0  0  0  0  0  0
  1  2  2  0  0  0  0
  2  3  1  0  0  0  0
  3  4  2  0  0  0  0
  4  5  1  0  0  0  0
  5  6  2  0  0  0  0
  6  1  1  0  0  0  0
  4  7  1  0  0  0  0
  7  8  1  0  0  0  0
  8  9  2  0  0  0  0
  9  5  1  0  0  0  0
  8 10  1  0  0  0  0
 10 11  1  0  0  0  0
 11 12  2  0  0  0  0
 12 13  1  0  0  0  0
 13 14  2  0  0  0  0
 14 10  1  0  0  0  0
 12 15  1  0  0  0  0
  2 16  1  0  0  0  0
 16 17  1  0  0  0  0
 17 18  1  0  0  0  0
 18 19  1  0  0  0  0
 18 20  2  0  0  0  0
 19 21  1  0  0  0  0
 21 22  1  0  0  0  0
 22 23  1  0  0  0  0
 23 24  1  0  0  0  0
 24 25  1  0  0  0  0
 25 26  1  0  0  0  0
 26 27  1  0  0  0  0
 25 28  2  0  0  0  0
 22 29  2  0  0  0  0
 24 30  1  1  0  0  0
 30 31  1  0  0  0  0
 30 32  1  0  0  0  0
 21 33  1  1  0  0  0
 33 34  1  0  0  0  0
 34 35  1  0  0  0  0
 16 36  1  1  0  0  0
 36 37  1  0  0  0  0
 36 38  1  0  0  0  0
  9 39  1  0  0  0  0
 39 27  1  0  0  0  0
 27 40  1  6  0  0  0
 40 41  1  0  0  0  0
 41 42  1  0  0  0  0
 40 43  2  0  0  0  0
 42 44  1  0  0  0  0
 44 45  2  0  0  0  0
 42 46  1  1  0  0  0
 46 47  1  0  0  0  0
 47 48  1  0  0  0  0
 48 49  1  0  0  0  0
 49 50  1  0  0  0  0
 50 51  1  0  0  0  0
 50 52  2  0  0  0  0
 17 53  1  6  0  0  0
 53 54  1  0  0  0  0
 54 55  2  0  0  0  0
 54 56  1  0  0  0  0
 56 57  1  6  0  0  0
 57 58  1  0  0  0  0
 58 59  1  0  0  0  0
 59 60  1  0  0  0  0
 60 56  1  0  0  0  0
 58 61  2  0  0  0  0
 27 62  1  1  0  0  0
 34 63  1  0  0  0  0
 63 64  1  0  0  0  0
 44 65  1  0  0  0  0
 65 66  1  0  0  0  0
 66 67  1  0  0  0  0
 67 68  2  0  0  0  0
 15 69  1  0  0  0  0
 67 70  1  0  0  0  0
 70 69  1  0  0  0  0
 69 71  1  0  0  0  0
 71 72  1  0  0  0  0
 71 73  2  0  0  0  0
 31 74  1  0  0  0  0
M  END
>  <cdx:fragmentId>
5

$$$$
