30099.cdx
  Mrv1902 05222410282D          

 16 18  0  0  0  0            999 V2000
    5.0337   -9.2341    0.0000 C   0  0  0  0  0  0  0  0  0  0  0  0
    5.8304   -9.0200    0.0000 C   0  0  0  0  0  0  0  0  0  0  0  0
    6.6271   -9.2341    0.0000 C   0  0  0  0  0  0  0  0  0  0  0  0
    7.0408   -8.5204    0.0000 C   0  0  0  0  0  0  0  0  0  0  0  0
    5.4473   -8.5204    0.0000 C   0  0  0  0  0  0  0  0  0  0  0  0
    6.2441   -8.3063    0.0000 C   0  0  0  0  0  0  0  0  0  0  0  0
    5.8319   -7.5926    0.0000 C   0  0  0  0  0  0  0  0  0  0  0  0
    6.4152   -7.0092    0.0000 C   0  0  0  0  0  0  0  0  0  0  0  0
    7.2402   -7.0092    0.0000 C   0  0  0  0  0  0  0  0  0  0  0  0
    7.8236   -7.5926    0.0000 C   0  0  0  0  0  0  0  0  0  0  0  0
    7.6101   -8.3895    0.0000 C   0  0  0  0  0  0  0  0  0  0  0  0
    7.0396   -9.9486    0.0000 C   0  0  0  0  0  0  0  0  0  0  0  0
    5.7008   -6.5967    0.0000 C   0  0  0  0  0  0  0  0  0  0  0  0
    6.6288   -6.2123    0.0000 C   0  0  0  0  0  0  0  0  0  0  0  0
    7.6242   -9.1038    0.0000 C   0  0  0  0  0  0  0  0  0  0  0  0
    8.4492   -9.1038    0.0000 O   0  0  0  0  0  0  0  0  0  0  0  0
  1  2  1  0  0  0  0
  2  3  1  0  0  0  0
  3  4  1  0  0  0  0
  1  5  1  0  0  0  0
  5  6  1  0  0  0  0
  4  6  1  0  0  0  0
  6  7  1  0  0  0  0
  2  7  1  0  0  0  0
  7  8  1  0  0  0  0
  8  9  1  0  0  0  0
  9 10  1  0  0  0  0
 10 11  1  0  0  0  0
  3 12  1  0  0  0  0
  8 13  1  0  0  0  0
  8 14  1  0  0  0  0
  4 15  1  0  0  0  0
 15 16  1  0  0  0  0
 11  3  1  0  0  0  0
M  END
>  <cdx:groupId>
799

>  <cdx:fragmentId>
800

$$$$
