300976.cdx
  Mrv1902 05222410272D          

 25 27  0  0  0  0            999 V2000
    2.5858   -7.4338    0.0000 O   0  0  0  0  0  0  0  0  0  0  0  0
    7.3031   -5.6870    0.0000 O   0  0  0  0  0  0  0  0  0  0  0  0
    7.8865   -6.2704    0.0000 C   0  0  0  0  0  0  0  0  0  0  0  0
   11.4494   -7.6397    0.0000 O   0  0  0  0  0  0  0  0  0  0  0  0
    9.3708   -6.9735    0.0000 C   0  0  0  0  0  0  0  0  0  0  0  0
   10.1955   -6.9543    0.0000 C   0  0  0  0  0  0  0  0  0  0  0  0
   10.6246   -7.6590    0.0000 C   0  0  0  0  0  0  0  0  0  0  0  0
   10.2288   -8.3829    0.0000 C   0  0  0  0  0  0  0  0  0  0  0  0
    9.4041   -8.4021    0.0000 C   0  0  0  0  0  0  0  0  0  0  0  0
    8.9750   -7.6974    0.0000 C   0  0  0  0  0  0  0  0  0  0  0  0
    5.5006   -9.8415    0.0000 C   0  0  0  0  0  0  0  0  0  0  0  0
    6.2052   -9.4125    0.0000 O   0  0  0  0  0  0  0  0  0  0  0  0
    6.1475   -6.9381    0.0000 C   0  0  0  0  0  0  0  0  0  0  0  0
    5.4429   -7.3672    0.0000 C   0  0  0  0  0  0  0  0  0  0  0  0
    5.4621   -8.1920    0.0000 C   0  0  0  0  0  0  0  0  0  0  0  0
    6.1860   -8.5877    0.0000 C   0  0  0  0  0  0  0  0  0  0  0  0
    6.8907   -8.1586    0.0000 C   0  0  0  0  0  0  0  0  0  0  0  0
    6.8714   -7.3339    0.0000 C   0  0  0  0  0  0  0  0  0  0  0  0
    7.6499   -7.0607    0.0000 C   0  0  1  0  0  0  0  0  0  0  0  0
    8.1503   -7.7167    0.0000 C   0  0  2  0  0  0  0  0  0  0  0  0
    7.6810   -8.3952    0.0000 O   0  0  0  0  0  0  0  0  0  0  0  0
    4.6998   -6.1467    0.0000 O   0  0  0  0  0  0  0  0  0  0  0  0
    3.2904   -7.0048    0.0000 C   0  0  0  0  0  0  0  0  0  0  0  0
    4.0143   -7.4005    0.0000 C   0  0  0  0  0  0  0  0  0  0  0  0
    4.7190   -6.9714    0.0000 C   0  0  0  0  0  0  0  0  0  0  0  0
 23  1  1  0  0  0  0
 25 14  1  0  0  0  0
 19  3  1  6  0  0  0
  3  2  1  0  0  0  0
 20 10  1  1  0  0  0
  7  4  1  0  0  0  0
 10  5  2  0  0  0  0
  6  5  1  0  0  0  0
  7  6  2  0  0  0  0
  8  7  1  0  0  0  0
  9  8  2  0  0  0  0
 10  9  1  0  0  0  0
 16 12  1  0  0  0  0
 12 11  1  0  0  0  0
 17 16  2  0  0  0  0
 18 13  2  0  0  0  0
 14 13  1  0  0  0  0
 15 14  2  0  0  0  0
 16 15  1  0  0  0  0
 21 17  1  0  0  0  0
 18 17  1  0  0  0  0
 19 18  1  0  0  0  0
 20 19  1  0  0  0  0
 21 20  1  0  0  0  0
 25 22  2  0  0  0  0
 24 23  1  0  0  0  0
 25 24  1  0  0  0  0
M  END
>  <cdx:fragmentId>
9045

$$$$
