300923.cdx
  Mrv1902 05222410222D          

 84 89  0  0  0  0            999 V2000
    8.4004   -9.2280    0.0000 C   0  0  0  0  0  0  0  0  0  0  0  0
    8.4004  -10.0530    0.0000 C   0  0  0  0  0  0  0  0  0  0  0  0
    9.1149  -10.4655    0.0000 C   0  0  0  0  0  0  0  0  0  0  0  0
    9.8294  -10.0530    0.0000 C   0  0  0  0  0  0  0  0  0  0  0  0
    9.8294   -9.2280    0.0000 C   0  0  0  0  0  0  0  0  0  0  0  0
    9.1149   -8.8155    0.0000 C   0  0  0  0  0  0  0  0  0  0  0  0
   10.6140  -10.3079    0.0000 N   0  0  0  0  0  0  0  0  0  0  0  0
   11.0989   -9.6405    0.0000 C   0  0  0  0  0  0  0  0  0  0  0  0
   10.6140   -8.9731    0.0000 C   0  0  0  0  0  0  0  0  0  0  0  0
   11.8964  -10.3832    0.0000 N   0  0  0  0  0  0  0  0  0  0  0  0
   12.3813  -11.0507    0.0000 C   0  0  0  0  0  0  0  0  0  0  0  0
   13.1659  -10.7957    0.0000 C   0  0  0  0  0  0  0  0  0  0  0  0
   13.1659   -9.9707    0.0000 N   0  0  0  0  0  0  0  0  0  0  0  0
   12.3813   -9.7158    0.0000 C   0  0  0  0  0  0  0  0  0  0  0  0
   13.8804  -11.2082    0.0000 C   0  0  0  0  0  0  0  0  0  0  0  0
    7.6447  -10.1767    0.0000 C   0  0  2  0  0  0  0  0  0  0  0  0
    6.9302   -9.7642    0.0000 C   0  0  1  0  0  0  0  0  0  0  0  0
    6.5177   -9.0497    0.0000 C   0  0  0  0  0  0  0  0  0  0  0  0
    6.5177   -8.2247    0.0000 N   0  0  0  0  0  0  0  0  0  0  0  0
    5.7208   -9.2632    0.0000 O   0  0  0  0  0  0  0  0  0  0  0  0
    6.9302   -7.5102    0.0000 C   0  0  2  0  0  0  0  0  0  0  0  0
    7.6447   -7.0977    0.0000 C   0  0  0  0  0  0  0  0  0  0  0  0
    8.3592   -7.5102    0.0000 N   0  0  0  0  0  0  0  0  0  0  0  0
    9.0736   -7.0977    0.0000 C   0  0  2  0  0  0  0  0  0  0  0  0
    9.7881   -7.5102    0.0000 C   0  0  0  0  0  0  0  0  0  0  0  0
   10.5026   -7.0977    0.0000 N   0  0  0  0  0  0  0  0  0  0  0  0
   11.0933   -7.3590    0.0000 C   0  0  1  0  0  0  0  0  0  0  0  0
    9.7881   -8.3352    0.0000 O   0  0  0  0  0  0  0  0  0  0  0  0
    7.6447   -6.2727    0.0000 O   0  0  0  0  0  0  0  0  0  0  0  0
    9.0736   -6.2727    0.0000 C   0  0  0  0  0  0  0  0  0  0  0  0
    8.3592   -5.8602    0.0000 C   0  0  0  0  0  0  0  0  0  0  0  0
    9.7881   -5.8602    0.0000 C   0  0  0  0  0  0  0  0  0  0  0  0
    6.3469   -6.9268    0.0000 C   0  0  0  0  0  0  0  0  0  0  0  0
    6.5604   -6.1300    0.0000 C   0  0  0  0  0  0  0  0  0  0  0  0
    5.9770   -5.5466    0.0000 C   0  0  0  0  0  0  0  0  0  0  0  0
    7.6447  -11.0017    0.0000 C   0  0  0  0  0  0  0  0  0  0  0  0
    8.3592  -11.4142    0.0000 C   0  0  0  0  0  0  0  0  0  0  0  0
    6.9302  -11.4142    0.0000 C   0  0  0  0  0  0  0  0  0  0  0  0
   10.5727   -7.8592    0.0000 C   0  0  0  0  0  0  0  0  0  0  0  0
   11.9315   -7.0977    0.0000 C   0  0  0  0  0  0  0  0  0  0  0  0
   12.6460   -7.5102    0.0000 N   0  0  0  0  0  0  0  0  0  0  0  0
   13.3605   -7.0977    0.0000 C   0  0  2  0  0  0  0  0  0  0  0  0
   11.9315   -6.2727    0.0000 O   0  0  0  0  0  0  0  0  0  0  0  0
   14.5975   -7.4277    0.0000 C   0  0  0  0  0  0  0  0  0  0  0  0
   15.2318   -6.9001    0.0000 O   0  0  0  0  0  0  0  0  0  0  0  0
   13.3605   -6.2727    0.0000 C   0  0  0  0  0  0  0  0  0  0  0  0
   14.0749   -5.8602    0.0000 C   0  0  0  0  0  0  0  0  0  0  0  0
   14.0749   -5.0352    0.0000 C   0  0  0  0  0  0  0  0  0  0  0  0
   14.7894   -4.6227    0.0000 N   0  0  0  0  0  0  0  0  0  0  0  0
   15.5039   -5.0352    0.0000 C   0  0  0  0  0  0  0  0  0  0  0  0
   16.2183   -4.6227    0.0000 N   0  0  0  0  0  0  0  0  0  0  0  0
   15.5039   -5.8602    0.0000 N   0  0  0  0  0  0  0  0  0  0  0  0
    6.3469  -10.3475    0.0000 N   0  0  0  0  0  0  0  0  0  0  0  0
    5.5500  -10.5610    0.0000 C   0  0  0  0  0  0  0  0  0  0  0  0
    5.5500  -11.3860    0.0000 O   0  0  0  0  0  0  0  0  0  0  0  0
    4.7531  -10.3475    0.0000 C   0  0  1  0  0  0  0  0  0  0  0  0
    4.4574   -9.5773    0.0000 N   0  0  0  0  0  0  0  0  0  0  0  0
    3.6336   -9.6205    0.0000 C   0  0  0  0  0  0  0  0  0  0  0  0
    3.4200  -10.4174    0.0000 C   0  0  0  0  0  0  0  0  0  0  0  0
    4.1119  -10.8667    0.0000 C   0  0  0  0  0  0  0  0  0  0  0  0
    3.1144   -8.9793    0.0000 O   0  0  0  0  0  0  0  0  0  0  0  0
   11.0933   -6.5340    0.0000 H   0  0  0  0  0  0  0  0  0  0  0  0
    7.3573   -5.9164    0.0000 C   0  0  0  0  0  0  0  0  0  0  0  0
    7.5708   -5.1195    0.0000 C   0  0  0  0  0  0  0  0  0  0  0  0
   14.5975   -8.2527    0.0000 N   0  0  0  0  0  0  0  0  0  0  0  0
   15.3120   -8.6652    0.0000 C   0  0  0  0  0  0  0  0  0  0  0  0
   15.3120   -9.4902    0.0000 C   0  0  0  0  0  0  0  0  0  0  0  0
   16.0265   -9.9027    0.0000 O   0  0  0  0  0  0  0  0  0  0  0  0
   14.5949  -10.7957    0.0000 C   0  0  0  0  0  0  0  0  0  0  0  0
   14.5975   -9.9027    0.0000 N   0  0  0  0  0  0  0  0  0  0  0  0
   15.3088  -11.2093    0.0000 C   0  0  0  0  0  0  0  0  0  0  0  0
   16.0238  -10.7978    0.0000 N   0  0  0  0  0  0  0  0  0  0  0  0
   15.3075  -12.0343    0.0000 O   0  0  0  0  0  0  0  0  0  0  0  0
   16.7377  -11.2114    0.0000 C   0  0  0  0  0  0  0  0  0  0  0  0
   17.4528  -10.8000    0.0000 C   0  0  0  0  0  0  0  0  0  0  0  0
   16.7365  -12.0364    0.0000 C   0  0  0  0  0  0  0  0  0  0  0  0
   16.0220  -12.4489    0.0000 O   0  0  0  0  0  0  0  0  0  0  0  0
   17.4506  -12.4494    0.0000 O   0  0  0  0  0  0  0  0  0  0  0  0
   18.1666  -11.2135    0.0000 C   0  0  0  0  0  0  0  0  0  0  0  0
   18.1666  -12.0385    0.0000 C   0  0  0  0  0  0  0  0  0  0  0  0
   18.8811  -12.4510    0.0000 N   0  0  0  0  0  0  0  0  0  0  0  0
   18.8811  -13.2760    0.0000 C   0  0  0  0  0  0  0  0  0  0  0  0
   19.5956  -13.6885    0.0000 N   0  0  0  0  0  0  0  0  0  0  0  0
   18.1666  -13.6885    0.0000 N   0  0  0  0  0  0  0  0  0  0  0  0
  1  2  2  0  0  0  0
  2  3  1  0  0  0  0
  3  4  2  0  0  0  0
  4  5  1  0  0  0  0
  5  6  2  0  0  0  0
  6  1  1  0  0  0  0
  4  7  1  0  0  0  0
  7  8  1  0  0  0  0
  8  9  2  0  0  0  0
  9  5  1  0  0  0  0
  8 10  1  0  0  0  0
 10 11  1  0  0  0  0
 11 12  2  0  0  0  0
 12 13  1  0  0  0  0
 13 14  2  0  0  0  0
 14 10  1  0  0  0  0
 12 15  1  0  0  0  0
  2 16  1  0  0  0  0
 16 17  1  0  0  0  0
 17 18  1  0  0  0  0
 18 19  1  0  0  0  0
 18 20  2  0  0  0  0
 19 21  1  0  0  0  0
 21 22  1  0  0  0  0
 22 23  1  0  0  0  0
 23 24  1  0  0  0  0
 24 25  1  0  0  0  0
 25 26  1  0  0  0  0
 26 27  1  0  0  0  0
 25 28  2  0  0  0  0
 22 29  2  0  0  0  0
 24 30  1  1  0  0  0
 30 31  1  0  0  0  0
 30 32  1  0  0  0  0
 21 33  1  1  0  0  0
 33 34  1  0  0  0  0
 34 35  1  0  0  0  0
 16 36  1  1  0  0  0
 36 37  1  0  0  0  0
 36 38  1  0  0  0  0
  9 39  1  0  0  0  0
 39 27  1  0  0  0  0
 27 40  1  6  0  0  0
 40 41  1  0  0  0  0
 41 42  1  0  0  0  0
 40 43  2  0  0  0  0
 42 44  1  0  0  0  0
 44 45  2  0  0  0  0
 42 46  1  1  0  0  0
 46 47  1  0  0  0  0
 47 48  1  0  0  0  0
 48 49  1  0  0  0  0
 49 50  1  0  0  0  0
 50 51  1  0  0  0  0
 50 52  2  0  0  0  0
 17 53  1  6  0  0  0
 53 54  1  0  0  0  0
 54 55  2  0  0  0  0
 54 56  1  0  0  0  0
 56 57  1  6  0  0  0
 57 58  1  0  0  0  0
 58 59  1  0  0  0  0
 59 60  1  0  0  0  0
 60 56  1  0  0  0  0
 58 61  2  0  0  0  0
 27 62  1  1  0  0  0
 34 63  1  0  0  0  0
 63 64  1  0  0  0  0
 44 65  1  0  0  0  0
 65 66  1  0  0  0  0
 66 67  1  0  0  0  0
 67 68  2  0  0  0  0
 15 69  1  0  0  0  0
 67 70  1  0  0  0  0
 70 69  1  0  0  0  0
 69 71  1  0  0  0  0
 71 72  1  0  0  0  0
 71 73  2  0  0  0  0
 72 74  1  0  0  0  0
 74 75  1  0  0  0  0
 74 76  1  0  0  0  0
 76 77  1  0  0  0  0
 76 78  2  0  0  0  0
 75 79  1  0  0  0  0
 79 80  1  0  0  0  0
 80 81  1  0  0  0  0
 81 82  1  0  0  0  0
 82 83  2  0  0  0  0
 82 84  1  0  0  0  0
M  END
>  <cdx:fragmentId>
5

$$$$
