300903.cdx
  Mrv1902 05222410252D          

 10 10  0  0  0  0            999 V2000
    7.5119   -5.1312    0.0000 C   0  0  0  0  0  0  0  0  0  0  0  0
    7.5177   -4.3062    0.0000 N   0  0  0  0  0  0  0  0  0  0  0  0
    8.2234   -5.5487    0.0000 O   0  0  0  0  0  0  0  0  0  0  0  0
    6.7945   -5.5386    0.0000 O   0  0  0  0  0  0  0  0  0  0  0  0
    6.7887   -6.3636    0.0000 C   0  0  0  0  0  0  0  0  0  0  0  0
    7.5003   -6.7811    0.0000 C   0  0  0  0  0  0  0  0  0  0  0  0
    7.4944   -7.6061    0.0000 C   0  0  0  0  0  0  0  0  0  0  0  0
    6.7771   -8.0136    0.0000 C   0  0  0  0  0  0  0  0  0  0  0  0
    6.0655   -7.5960    0.0000 C   0  0  0  0  0  0  0  0  0  0  0  0
    6.0713   -6.7711    0.0000 C   0  0  0  0  0  0  0  0  0  0  0  0
  1  2  1  0  0  0  0
  1  3  2  0  0  0  0
  1  4  1  0  0  0  0
  5  6  1  0  0  0  0
  6  7  2  0  0  0  0
  7  8  1  0  0  0  0
  8  9  2  0  0  0  0
  9 10  1  0  0  0  0
  5 10  2  0  0  0  0
  4  5  1  0  0  0  0
M  END
>  <cdx:fragmentId>
221

$$$$
