300946.cdx
  Mrv1902 05222410192D          

 33 36  0  0  0  0            999 V2000
    4.9177   -7.7470    0.0000 C   0  0  1  0  0  0  0  0  0  0  0  0
    5.4698   -7.1339    0.0000 C   0  0  0  0  0  0  0  0  0  0  0  0
    5.2148   -6.3493    0.0000 C   0  0  0  0  0  0  0  0  0  0  0  0
    5.7669   -5.7362    0.0000 O   0  0  0  0  0  0  0  0  0  0  0  0
    6.5738   -5.9077    0.0000 C   0  0  0  0  0  0  0  0  0  0  0  0
    6.8288   -6.6923    0.0000 C   0  0  0  0  0  0  0  0  0  0  0  0
    6.2767   -7.3054    0.0000 C   0  0  0  0  0  0  0  0  0  0  0  0
    6.5317   -8.0900    0.0000 C   0  0  0  0  0  0  0  0  0  0  0  0
    5.9796   -8.7031    0.0000 C   0  0  0  0  0  0  0  0  0  0  0  0
    5.1727   -8.5316    0.0000 C   0  0  1  0  0  0  0  0  0  0  0  0
    4.5052   -9.0165    0.0000 O   0  0  0  0  0  0  0  0  0  0  0  0
    3.8378   -8.5316    0.0000 C   0  0  2  0  0  0  0  0  0  0  0  0
    3.0308   -8.7031    0.0000 C   0  0  1  0  0  0  0  0  0  0  0  0
    2.4788   -8.0900    0.0000 C   0  0  2  0  0  0  0  0  0  0  0  0
    2.7337   -7.3054    0.0000 O   0  0  0  0  0  0  0  0  0  0  0  0
    3.5407   -7.1339    0.0000 C   0  0  0  0  0  0  0  0  0  0  0  0
    4.0927   -7.7470    0.0000 C   0  0  2  0  0  0  0  0  0  0  0  0
    6.2346   -9.4878    0.0000 O   0  0  0  0  0  0  0  0  0  0  0  0
    3.7956   -6.3493    0.0000 O   0  0  0  0  0  0  0  0  0  0  0  0
    1.6718   -8.2616    0.0000 C   0  0  0  0  0  0  0  0  0  0  0  0
    2.7759   -9.4878    0.0000 C   0  0  0  0  0  0  0  0  0  0  0  0
    5.3442   -9.3386    0.0000 C   0  0  0  0  0  0  0  0  0  0  0  0
    7.1259   -5.2946    0.0000 C   0  0  0  0  0  0  0  0  0  0  0  0
    7.9328   -5.4661    0.0000 C   0  0  0  0  0  0  0  0  0  0  0  0
    8.4849   -4.8530    0.0000 C   0  0  2  0  0  0  0  0  0  0  0  0
    9.2918   -5.0246    0.0000 C   0  0  1  0  0  0  0  0  0  0  0  0
    9.8439   -4.4115    0.0000 C   0  0  0  0  0  0  0  0  0  0  0  0
    8.2299   -4.0684    0.0000 C   0  0  0  0  0  0  0  0  0  0  0  0
    9.5468   -5.8092    0.0000 O   0  0  0  0  0  0  0  0  0  0  0  0
    3.6663   -9.3386    0.0000 O   0  0  0  0  0  0  0  0  0  0  0  0
    7.3386   -8.2616    0.0000 Cl  0  0  0  0  0  0  0  0  0  0  0  0
    4.9177   -6.9220    0.0000 H   0  0  0  0  0  0  0  0  0  0  0  0
    4.0927   -6.9220    0.0000 H   0  0  0  0  0  0  0  0  0  0  0  0
  1  2  1  0  0  0  0
  2  3  2  0  0  0  0
  3  4  1  0  0  0  0
  4  5  1  0  0  0  0
  5  6  2  0  0  0  0
  6  7  1  0  0  0  0
  7  8  2  0  0  0  0
  8  9  1  0  0  0  0
  9 10  1  0  0  0  0
 10 11  1  0  0  0  0
 11 12  1  0  0  0  0
 12 13  1  0  0  0  0
 13 14  1  0  0  0  0
 14 15  1  0  0  0  0
 15 16  1  0  0  0  0
 16 17  1  0  0  0  0
  1 17  1  0  0  0  0
  1 10  1  0  0  0  0
  2  7  1  0  0  0  0
 12 17  1  0  0  0  0
  9 18  2  0  0  0  0
 16 19  2  0  0  0  0
 14 20  1  1  0  0  0
 13 21  1  6  0  0  0
 10 22  1  6  0  0  0
 23 24  2  0  0  0  0
 24 25  1  0  0  0  0
 25 26  1  0  0  0  0
 26 27  1  0  0  0  0
 25 28  1  1  0  0  0
 26 29  1  1  0  0  0
  5 23  1  0  0  0  0
 12 30  1  1  0  0  0
  8 31  1  0  0  0  0
  1 32  1  6  0  0  0
 17 33  1  1  0  0  0
M  END
>  <cdx:fragmentId>
5971

$$$$
