300997.cdx
  Mrv1902 05222410202D          

 13 14  0  0  0  0            999 V2000
    6.5215   -8.0439    0.0000 C   0  0  1  0  0  0  0  0  0  0  0  0
    7.3159   -8.2666    0.0000 C   0  0  0  0  0  0  0  0  0  0  0  0
    7.7732   -7.5799    0.0000 C   0  0  0  0  0  0  0  0  0  0  0  0
    7.2614   -6.9328    0.0000 C   0  0  0  0  0  0  0  0  0  0  0  0
    6.4878   -7.2196    0.0000 C   0  0  1  0  0  0  0  0  0  0  0  0
    5.7908   -7.6609    0.0000 C   0  0  0  0  0  0  0  0  0  0  0  0
    6.7288   -9.4577    0.0000 C   0  0  0  0  0  0  0  0  0  0  0  0
    6.2170   -8.8107    0.0000 C   0  0  0  0  0  0  0  0  0  0  0  0
    5.4007   -8.9303    0.0000 C   0  0  0  0  0  0  0  0  0  0  0  0
    6.8489   -6.2184    0.0000 C   0  0  0  0  0  0  0  0  0  0  0  0
    7.6450   -6.2700    0.0000 O   0  0  0  0  0  0  0  0  0  0  0  0
    8.4700   -6.2700    0.0000 C   0  0  0  0  0  0  0  0  0  0  0  0
    6.1218   -6.4803    0.0000 H   0  0  0  0  0  0  0  0  0  0  0  0
  1  2  1  0  0  0  0
  2  3  1  0  0  0  0
  3  4  1  0  0  0  0
  4  5  1  0  0  0  0
  5  6  1  0  0  0  0
  1  6  1  0  0  0  0
  1  5  1  0  0  0  0
  7  8  1  0  0  0  0
  8  9  1  0  0  0  0
  1  8  1  1  0  0  0
  4 10  1  0  0  0  0
 11 12  1  0  0  0  0
  4 11  1  0  0  0  0
  5 13  1  1  0  0  0
M  END
>  <cdx:fragmentId>
10886

$$$$
