300902.cdx
  Mrv1902 05222410252D          

 26 28  0  0  0  0            999 V2000
   11.1049   -7.8179    0.0000 C   0  0  0  0  0  0  0  0  0  0  0  0
   10.5216   -8.4012    0.0000 C   0  0  0  0  0  0  0  0  0  0  0  0
    4.1829   -6.5741    0.0000 C   0  0  0  0  0  0  0  0  0  0  0  0
    4.8973   -6.9866    0.0000 N   0  0  0  0  0  0  0  0  0  0  0  0
    6.3263   -7.8116    0.0000 O   0  0  0  0  0  0  0  0  0  0  0  0
    4.8973   -7.8116    0.0000 C   0  0  0  0  0  0  0  0  0  0  0  0
    5.6118   -8.2241    0.0000 C   0  0  0  0  0  0  0  0  0  0  0  0
    3.8966  -10.4545    0.0000 C   0  0  0  0  0  0  0  0  0  0  0  0
    3.2918   -9.8934    0.0000 C   0  0  0  0  0  0  0  0  0  0  0  0
    3.4754   -9.0890    0.0000 C   0  0  0  0  0  0  0  0  0  0  0  0
    4.2637   -8.8459    0.0000 C   0  0  0  0  0  0  0  0  0  0  0  0
    6.9599   -8.8459    0.0000 C   0  0  0  0  0  0  0  0  0  0  0  0
    7.7482   -9.0890    0.0000 C   0  0  0  0  0  0  0  0  0  0  0  0
    7.9318   -9.8934    0.0000 C   0  0  0  0  0  0  0  0  0  0  0  0
    7.3270  -10.4545    0.0000 C   0  0  0  0  0  0  0  0  0  0  0  0
    4.8685   -9.4070    0.0000 C   0  0  0  0  0  0  0  0  0  0  0  0
    4.6849  -10.2113    0.0000 C   0  0  0  0  0  0  0  0  0  0  0  0
    5.1993  -10.8563    0.0000 C   0  0  0  0  0  0  0  0  0  0  0  0
    6.0243  -10.8563    0.0000 C   0  0  0  0  0  0  0  0  0  0  0  0
    6.5387  -10.2113    0.0000 C   0  0  0  0  0  0  0  0  0  0  0  0
    6.3551   -9.4070    0.0000 C   0  0  0  0  0  0  0  0  0  0  0  0
    5.6118   -9.0491    0.0000 N   0  0  0  0  0  0  0  0  0  0  0  0
    9.7247   -8.1877    0.0000 O   0  0  0  0  0  0  0  0  0  0  0  0
    9.3549   -9.5680    0.0000 O   0  0  0  0  0  0  0  0  0  0  0  0
    8.3530   -8.5279    0.0000 N   0  0  0  0  0  0  0  0  0  0  0  0
    9.1413   -8.7711    0.0000 C   0  0  0  0  0  0  0  0  0  0  0  0
 23  2  1  0  0  0  0
  2  1  1  0  0  0  0
 25 13  1  0  0  0  0
 22  7  1  0  0  0  0
  6  4  1  0  0  0  0
  4  3  1  0  0  0  0
  7  5  2  0  0  0  0
  7  6  1  0  0  0  0
 11 16  2  0  0  0  0
  8 17  2  0  0  0  0
  9  8  1  0  0  0  0
 10  9  2  0  0  0  0
 11 10  1  0  0  0  0
 15 20  2  0  0  0  0
 12 21  2  0  0  0  0
 13 12  1  0  0  0  0
 14 13  2  0  0  0  0
 15 14  1  0  0  0  0
 22 16  1  0  0  0  0
 17 16  1  0  0  0  0
 18 17  1  0  0  0  0
 19 18  1  0  0  0  0
 20 19  1  0  0  0  0
 21 20  1  0  0  0  0
 22 21  1  0  0  0  0
 26 23  1  0  0  0  0
 26 24  2  0  0  0  0
 26 25  1  0  0  0  0
M  END
>  <cdx:fragmentId>
13

$$$$
