3009.cdx
  Mrv1902 05222410222D          

 52 59  0  0  0  0            999 V2000
    9.8663   -2.8349    0.0000 O   0  0  0  0  0  0  0  0  0  0  0  0
    8.4374   -2.0099    0.0000 O   0  0  0  0  0  0  0  0  0  0  0  0
    3.4361   -4.0724    0.0000 O   0  0  0  0  0  0  0  0  0  0  0  0
    9.1519   -4.0724    0.0000 C   0  0  0  0  0  0  0  0  0  0  0  0
    9.1519   -3.2474    0.0000 C   0  0  0  0  0  0  0  0  0  0  0  0
    8.4374   -2.8349    0.0000 C   0  0  0  0  0  0  0  0  0  0  0  0
    7.7229   -3.2474    0.0000 C   0  0  0  0  0  0  0  0  0  0  0  0
    8.4374   -4.4849    0.0000 C   0  0  0  0  0  0  0  0  0  0  0  0
    7.7229   -4.0724    0.0000 C   0  0  0  0  0  0  0  0  0  0  0  0
    7.7229   -5.7224    0.0000 O   0  0  0  0  0  0  0  0  0  0  0  0
    4.8650   -6.5474    0.0000 O   0  0  0  0  0  0  0  0  0  0  0  0
    6.2940   -5.7224    0.0000 C   0  0  0  0  0  0  0  0  0  0  0  0
    7.0084   -5.3099    0.0000 C   0  0  1  0  0  0  0  0  0  0  0  0
    7.0084   -4.4849    0.0000 C   0  0  0  0  0  0  0  0  0  0  0  0
    6.2940   -4.0724    0.0000 O   0  0  0  0  0  0  0  0  0  0  0  0
    4.8650   -5.7224    0.0000 C   0  0  0  0  0  0  0  0  0  0  0  0
    5.5795   -5.3099    0.0000 C   0  0  0  0  0  0  0  0  0  0  0  0
    5.5795   -4.4849    0.0000 C   0  0  0  0  0  0  0  0  0  0  0  0
    4.8650   -4.0724    0.0000 C   0  0  0  0  0  0  0  0  0  0  0  0
    4.1506   -4.4849    0.0000 C   0  0  0  0  0  0  0  0  0  0  0  0
    4.1506   -5.3099    0.0000 C   0  0  0  0  0  0  0  0  0  0  0  0
    9.8663   -4.4849    0.0000 O   0  0  0  0  0  0  0  0  0  0  0  0
    6.9855   -7.0950    0.0000 C   0  0  0  0  0  0  0  0  0  0  0  0
    6.9855   -7.9200    0.0000 C   0  0  0  0  0  0  0  0  0  0  0  0
    7.7000   -8.3325    0.0000 C   0  0  0  0  0  0  0  0  0  0  0  0
    8.4145   -7.9200    0.0000 C   0  0  0  0  0  0  0  0  0  0  0  0
    8.4145   -7.0950    0.0000 C   0  0  0  0  0  0  0  0  0  0  0  0
    7.7000   -6.6825    0.0000 C   0  0  0  0  0  0  0  0  0  0  0  0
    9.1289   -6.6825    0.0000 O   0  0  0  0  0  0  0  0  0  0  0  0
    6.2711   -8.3325    0.0000 C   0  0  0  0  0  0  0  0  0  0  0  0
    6.2711   -9.1575    0.0000 C   0  0  0  0  0  0  0  0  0  0  0  0
    6.9855   -9.5700    0.0000 C   0  0  0  0  0  0  0  0  0  0  0  0
    7.7000   -9.1575    0.0000 O   0  0  0  0  0  0  0  0  0  0  0  0
    5.5566   -7.9200    0.0000 S   0  0  0  0  0  0  0  0  0  0  0  0
    4.8421   -8.3325    0.0000 C   0  0  0  0  0  0  0  0  0  0  0  0
    4.1276   -7.9200    0.0000 C   0  0  0  0  0  0  0  0  0  0  0  0
    4.1276   -7.0950    0.0000 C   0  0  0  0  0  0  0  0  0  0  0  0
    3.4132   -6.6825    0.0000 C   0  0  0  0  0  0  0  0  0  0  0  0
    2.6987   -7.0950    0.0000 C   0  0  0  0  0  0  0  0  0  0  0  0
    2.6987   -7.9200    0.0000 C   0  0  0  0  0  0  0  0  0  0  0  0
    3.4132   -8.3325    0.0000 C   0  0  0  0  0  0  0  0  0  0  0  0
    5.5566   -9.5700    0.0000 O   0  0  0  0  0  0  0  0  0  0  0  0
    6.9855  -10.3950    0.0000 C   0  0  0  0  0  0  0  0  0  0  0  0
    6.2711  -10.8075    0.0000 C   0  0  0  0  0  0  0  0  0  0  0  0
    6.2711  -11.6325    0.0000 C   0  0  0  0  0  0  0  0  0  0  0  0
    6.9855  -12.0450    0.0000 C   0  0  0  0  0  0  0  0  0  0  0  0
    7.7000  -11.6325    0.0000 C   0  0  0  0  0  0  0  0  0  0  0  0
    7.7000  -10.8075    0.0000 C   0  0  0  0  0  0  0  0  0  0  0  0
    8.4145  -12.0450    0.0000 O   0  0  0  0  0  0  0  0  0  0  0  0
    6.9855  -12.8700    0.0000 O   0  0  0  0  0  0  0  0  0  0  0  0
    5.5566  -12.0450    0.0000 O   0  0  0  0  0  0  0  0  0  0  0  0
    6.2711   -6.6825    0.0000 O   0  0  0  0  0  0  0  0  0  0  0  0
  5  1  1  0  0  0  0
  6  2  1  0  0  0  0
 20  3  1  0  0  0  0
  4  8  2  0  0  0  0
  5  4  1  0  0  0  0
  6  5  2  0  0  0  0
  7  6  1  0  0  0  0
  9  7  2  0  0  0  0
  9  8  1  0  0  0  0
  9 14  1  1  0  0  0
 13 10  1  1  0  0  0
 11 16  1  0  0  0  0
 12 17  1  0  0  0  0
 13 12  1  0  0  0  0
 14 13  1  0  0  0  0
 15 14  1  0  0  0  0
 18 15  1  0  0  0  0
 16 21  1  0  0  0  0
 17 16  2  0  0  0  0
 18 17  1  0  0  0  0
 19 18  2  0  0  0  0
 20 19  1  0  0  0  0
 21 20  2  0  0  0  0
  4 22  1  0  0  0  0
 23 24  2  0  0  0  0
 24 25  1  0  0  0  0
 25 26  2  0  0  0  0
 26 27  1  0  0  0  0
 27 28  2  0  0  0  0
 28 23  1  0  0  0  0
 27 29  1  0  0  0  0
 12 28  1  0  0  0  0
 14 29  1  0  0  0  0
 24 30  1  0  0  0  0
 30 31  1  0  0  0  0
 31 32  1  0  0  0  0
 32 33  1  0  0  0  0
 33 25  1  0  0  0  0
 30 34  1  0  0  0  0
 34 35  1  0  0  0  0
 35 36  1  0  0  0  0
 36 37  2  0  0  0  0
 37 38  1  0  0  0  0
 38 39  2  0  0  0  0
 39 40  1  0  0  0  0
 40 41  2  0  0  0  0
 41 36  1  0  0  0  0
 31 42  1  0  0  0  0
 32 43  1  0  0  0  0
 43 44  2  0  0  0  0
 44 45  1  0  0  0  0
 45 46  2  0  0  0  0
 46 47  1  0  0  0  0
 47 48  2  0  0  0  0
 48 43  1  0  0  0  0
 47 49  1  0  0  0  0
 46 50  1  0  0  0  0
 45 51  1  0  0  0  0
 23 52  1  0  0  0  0
M  END
>  <cdx:fragmentId>
133

$$$$
