300986.cdx
  Mrv1902 05222410182D          

 33 37  0  0  0  0            999 V2000
    7.9880   -6.5814    0.0000 C   0  0  0  0  0  0  0  0  0  0  0  0
    8.7024   -6.9939    0.0000 C   0  0  0  0  0  0  0  0  0  0  0  0
    8.7024   -7.8189    0.0000 C   0  0  2  0  0  0  0  0  0  0  0  0
    7.9880   -8.2314    0.0000 C   0  0  0  0  0  0  0  0  0  0  0  0
    7.9880   -9.0564    0.0000 C   0  0  0  0  0  0  0  0  0  0  0  0
    7.2735   -9.4689    0.0000 C   0  0  0  0  0  0  0  0  0  0  0  0
    6.5590   -9.0564    0.0000 C   0  0  0  0  0  0  0  0  0  0  0  0
    6.5590   -8.2314    0.0000 C   0  0  0  0  0  0  0  0  0  0  0  0
    7.2735   -7.8189    0.0000 C   0  0  0  0  0  0  0  0  0  0  0  0
    7.2735   -6.9939    0.0000 O   0  0  0  0  0  0  0  0  0  0  0  0
    5.8445   -7.8189    0.0000 C   0  0  0  0  0  0  0  0  0  0  0  0
    5.1301   -8.2314    0.0000 C   0  0  2  0  0  0  0  0  0  0  0  0
    5.1301   -9.0564    0.0000 C   0  0  2  0  0  0  0  0  0  0  0  0
    5.8445   -9.4689    0.0000 O   0  0  0  0  0  0  0  0  0  0  0  0
    7.9880   -5.7564    0.0000 O   0  0  0  0  0  0  0  0  0  0  0  0
    4.4156   -7.8189    0.0000 O   0  0  0  0  0  0  0  0  0  0  0  0
    8.7024   -9.4689    0.0000 O   0  0  0  0  0  0  0  0  0  0  0  0
    4.4156   -9.4689    0.0000 C   0  0  0  0  0  0  0  0  0  0  0  0
    3.7011   -9.0564    0.0000 C   0  0  0  0  0  0  0  0  0  0  0  0
    2.9867   -9.4689    0.0000 C   0  0  0  0  0  0  0  0  0  0  0  0
    2.9867  -10.2939    0.0000 C   0  0  0  0  0  0  0  0  0  0  0  0
    3.7011  -10.7064    0.0000 C   0  0  0  0  0  0  0  0  0  0  0  0
    4.4156  -10.2939    0.0000 C   0  0  0  0  0  0  0  0  0  0  0  0
    2.2722  -10.7064    0.0000 O   0  0  0  0  0  0  0  0  0  0  0  0
    2.2722   -9.0564    0.0000 O   0  0  0  0  0  0  0  0  0  0  0  0
    9.4169   -8.2314    0.0000 C   0  0  0  0  0  0  0  0  0  0  0  0
   10.1314   -7.8189    0.0000 C   0  0  0  0  0  0  0  0  0  0  0  0
   10.8458   -8.2314    0.0000 C   0  0  0  0  0  0  0  0  0  0  0  0
   10.8458   -9.0564    0.0000 C   0  0  0  0  0  0  0  0  0  0  0  0
   10.1314   -9.4689    0.0000 C   0  0  0  0  0  0  0  0  0  0  0  0
    9.4169   -9.0564    0.0000 C   0  0  0  0  0  0  0  0  0  0  0  0
   11.5603   -9.4689    0.0000 O   0  0  0  0  0  0  0  0  0  0  0  0
   11.5603   -7.8189    0.0000 O   0  0  0  0  0  0  0  0  0  0  0  0
  1  2  1  0  0  0  0
  2  3  1  0  0  0  0
  3  4  1  0  0  0  0
  4  5  1  0  0  0  0
  5  6  2  0  0  0  0
  6  7  1  0  0  0  0
  7  8  2  0  0  0  0
  8  9  1  0  0  0  0
  4  9  2  0  0  0  0
  9 10  1  0  0  0  0
  1 10  1  0  0  0  0
 11 12  1  0  0  0  0
 12 13  1  0  0  0  0
 13 14  1  0  0  0  0
  7 14  1  0  0  0  0
  8 11  1  0  0  0  0
  1 15  2  0  0  0  0
 12 16  1  6  0  0  0
  5 17  1  0  0  0  0
 18 19  1  0  0  0  0
 19 20  2  0  0  0  0
 20 21  1  0  0  0  0
 21 22  2  0  0  0  0
 22 23  1  0  0  0  0
 18 23  2  0  0  0  0
 21 24  1  0  0  0  0
 20 25  1  0  0  0  0
 13 18  1  6  0  0  0
 26 27  1  0  0  0  0
 27 28  2  0  0  0  0
 28 29  1  0  0  0  0
 29 30  2  0  0  0  0
 30 31  1  0  0  0  0
 26 31  2  0  0  0  0
 29 32  1  0  0  0  0
 28 33  1  0  0  0  0
  3 26  1  1  0  0  0
M  END
>  <cdx:fragmentId>
10105

$$$$
