300979.cdx
  Mrv1902 05222410182D          

 32 34  0  0  0  0            999 V2000
    7.0894   -8.0116    0.0000 O   0  0  0  0  0  0  0  0  0  0  0  0
    5.6606   -7.9961    0.0000 O   0  0  0  0  0  0  0  0  0  0  0  0
    6.3705   -8.4163    0.0000 C   0  0  2  0  0  0  0  0  0  0  0  0
    6.3616   -9.2413    0.0000 C   0  0  1  0  0  0  0  0  0  0  0  0
    5.6428   -9.6461    0.0000 C   0  0  2  0  0  0  0  0  0  0  0  0
    4.9328   -9.2259    0.0000 C   0  0  1  0  0  0  0  0  0  0  0  0
    4.9417   -8.4009    0.0000 C   0  0  1  0  0  0  0  0  0  0  0  0
    4.2317   -7.9807    0.0000 C   0  0  0  0  0  0  0  0  0  0  0  0
    3.5128   -8.3855    0.0000 O   0  0  0  0  0  0  0  0  0  0  0  0
    4.2139   -9.6306    0.0000 O   0  0  0  0  0  0  0  0  0  0  0  0
    5.6339  -10.4710    0.0000 O   0  0  0  0  0  0  0  0  0  0  0  0
    7.0716   -9.6615    0.0000 O   0  0  0  0  0  0  0  0  0  0  0  0
    5.8952   -5.2189    0.0000 H   0  0  0  0  0  0  0  0  0  0  0  0
    8.3436   -5.2453    0.0000 H   0  0  0  0  0  0  0  0  0  0  0  0
    7.4671   -6.6302    0.0000 O   0  0  0  0  0  0  0  0  0  0  0  0
    8.5810   -4.3556    0.0000 C   0  0  0  0  0  0  0  0  0  0  0  0
    9.9784   -6.9236    0.0000 C   0  0  0  0  0  0  0  0  0  0  0  0
    5.7084   -7.3281    0.0000 C   0  0  0  0  0  0  0  0  0  0  0  0
    7.1404   -3.2850    0.0000 O   0  0  0  0  0  0  0  0  0  0  0  0
    6.1840   -6.0144    0.0000 C   0  0  0  0  0  0  0  0  0  0  0  0
    6.3589   -6.8207    0.0000 C   0  0  0  0  0  0  0  0  0  0  0  0
    7.0983   -7.1866    0.0000 C   0  0  0  0  0  0  0  0  0  0  0  0
    7.8454   -6.8367    0.0000 C   0  0  0  0  0  0  0  0  0  0  0  0
    8.5491   -7.2674    0.0000 C   0  0  0  0  0  0  0  0  0  0  0  0
    9.1762   -6.7314    0.0000 C   0  0  0  0  0  0  0  0  0  0  0  0
    8.8601   -5.9693    0.0000 C   0  0  0  0  0  0  0  0  0  0  0  0
    8.0377   -6.0344    0.0000 C   0  0  1  0  0  0  0  0  0  0  0  0
    7.1315   -4.1100    0.0000 C   0  0  0  0  0  0  0  0  0  0  0  0
    7.7937   -4.6021    0.0000 C   0  0  1  0  0  0  0  0  0  0  0  0
    7.5303   -5.3839    0.0000 C   0  0  1  0  0  0  0  0  0  0  0  0
    6.7053   -5.3750    0.0000 C   0  0  2  0  0  0  0  0  0  0  0  0
    6.4589   -4.5877    0.0000 O   0  0  0  0  0  0  0  0  0  0  0  0
 31 13  1  6  0  0  0
 30 14  1  1  0  0  0
 27 15  1  6  0  0  0
 29 16  1  6  0  0  0
 25 17  1  0  0  0  0
 21 18  1  0  0  0  0
 22  1  1  0  0  0  0
 28 19  2  0  0  0  0
 27 30  1  0  0  0  0
 20 31  1  0  0  0  0
 21 20  2  0  0  0  0
 22 21  1  0  0  0  0
 23 22  1  0  0  0  0
 24 23  1  0  0  0  0
 25 24  2  0  0  0  0
 26 25  1  0  0  0  0
 27 26  1  0  0  0  0
 32 28  1  0  0  0  0
 29 28  1  0  0  0  0
 30 29  1  0  0  0  0
 31 30  1  0  0  0  0
 32 31  1  0  0  0  0
  2  3  1  0  0  0  0
  3  4  1  0  0  0  0
  4  5  1  0  0  0  0
  5  6  1  0  0  0  0
  6  7  1  0  0  0  0
  2  7  1  0  0  0  0
  8  9  1  0  0  0  0
  7  8  1  1  0  0  0
  6 10  1  6  0  0  0
  5 11  1  1  0  0  0
  4 12  1  6  0  0  0
  3  1  1  1  0  0  0
M  END
>  <cdx:fragmentId>
15

$$$$
