300989.cdx
  Mrv1902 05222410272D          

 36 37  0  0  0  0            999 V2000
    4.5473   -5.8241    0.0000 C   0  0  0  0  0  0  0  0  0  0  0  0
    5.2643   -5.4159    0.0000 C   0  0  0  0  0  0  0  0  0  0  0  0
    5.9763   -5.8326    0.0000 C   0  0  0  0  0  0  0  0  0  0  0  0
    6.6932   -5.4244    0.0000 C   0  0  0  0  0  0  0  0  0  0  0  0
    6.6981   -4.5994    0.0000 C   0  0  0  0  0  0  0  0  0  0  0  0
    5.9861   -4.1826    0.0000 C   0  0  0  0  0  0  0  0  0  0  0  0
    5.2692   -4.5909    0.0000 C   0  0  0  0  0  0  0  0  0  0  0  0
    5.9713   -6.6576    0.0000 O   0  0  0  0  0  0  0  0  0  0  0  0
    4.5424   -6.6491    0.0000 O   0  0  0  0  0  0  0  0  0  0  0  0
    5.2544   -7.0658    0.0000 C   0  0  2  0  0  0  0  0  0  0  0  0
    5.2495   -7.8908    0.0000 C   0  0  1  0  0  0  0  0  0  0  0  0
    4.5326   -8.2990    0.0000 C   0  0  2  0  0  0  0  0  0  0  0  0
    3.8206   -7.8823    0.0000 C   0  0  1  0  0  0  0  0  0  0  0  0
    3.8255   -7.0573    0.0000 C   0  0  1  0  0  0  0  0  0  0  0  0
    3.1135   -6.6405    0.0000 C   0  0  0  0  0  0  0  0  0  0  0  0
    2.3966   -7.0488    0.0000 O   0  0  0  0  0  0  0  0  0  0  0  0
    3.1037   -8.2905    0.0000 O   0  0  0  0  0  0  0  0  0  0  0  0
    4.5276   -9.1240    0.0000 O   0  0  0  0  0  0  0  0  0  0  0  0
    5.9615   -8.3076    0.0000 O   0  0  0  0  0  0  0  0  0  0  0  0
    5.9910   -3.3577    0.0000 O   0  0  0  0  0  0  0  0  0  0  0  0
   10.9849   -4.6250    0.0000 O   0  0  0  0  0  0  0  0  0  0  0  0
    2.4064   -5.3988    0.0000 C   0  0  0  0  0  0  0  0  0  0  0  0
    3.1184   -5.8156    0.0000 O   0  0  0  0  0  0  0  0  0  0  0  0
    3.8403   -4.5823    0.0000 O   0  0  0  0  0  0  0  0  0  0  0  0
   12.4039   -6.2835    0.0000 O   0  0  0  0  0  0  0  0  0  0  0  0
    8.8292   -6.6747    0.0000 C   0  0  0  0  0  0  0  0  0  0  0  0
   12.1044   -5.1523    0.0000 C   0  0  0  0  0  0  0  0  0  0  0  0
   11.2794   -6.5812    0.0000 C   0  0  0  0  0  0  0  0  0  0  0  0
   11.6919   -5.8667    0.0000 C   0  0  0  0  0  0  0  0  0  0  0  0
   10.9799   -5.4500    0.0000 C   0  0  2  0  0  0  0  0  0  0  0  0
   10.2630   -5.8582    0.0000 C   0  0  0  0  0  0  0  0  0  0  0  0
    9.5510   -5.4414    0.0000 C   0  0  0  0  0  0  0  0  0  0  0  0
    8.8341   -5.8497    0.0000 C   0  0  0  0  0  0  0  0  0  0  0  0
    8.1221   -5.4329    0.0000 C   0  0  0  0  0  0  0  0  0  0  0  0
    7.4052   -5.8411    0.0000 C   0  0  0  0  0  0  0  0  0  0  0  0
    3.8354   -5.4073    0.0000 C   0  0  0  0  0  0  0  0  0  0  0  0
 23 22  1  0  0  0  0
 36 23  1  0  0  0  0
 36 24  2  0  0  0  0
 30 21  1  6  0  0  0
 29 25  1  0  0  0  0
 33 26  1  0  0  0  0
 29 27  1  0  0  0  0
 29 28  1  0  0  0  0
 30 29  1  0  0  0  0
 31 30  1  0  0  0  0
 32 31  1  0  0  0  0
 33 32  1  0  0  0  0
 34 33  2  0  0  0  0
 35 34  1  0  0  0  0
 36  1  1  0  0  0  0
  2  3  1  0  0  0  0
  3  4  2  0  0  0  0
  4  5  1  0  0  0  0
  5  6  2  0  0  0  0
  6  7  1  0  0  0  0
  2  7  2  0  0  0  0
  9 10  1  0  0  0  0
 10 11  1  0  0  0  0
 11 12  1  0  0  0  0
 12 13  1  0  0  0  0
 13 14  1  0  0  0  0
  9 14  1  0  0  0  0
 15 16  1  0  0  0  0
 14 15  1  1  0  0  0
 13 17  1  6  0  0  0
 12 18  1  1  0  0  0
 11 19  1  6  0  0  0
 10  8  1  1  0  0  0
  3  8  1  0  0  0  0
  6 20  1  0  0  0  0
  4 35  1  0  0  0  0
  1  2  1  0  0  0  0
M  END
>  <cdx:fragmentId>
10492

$$$$
