300975.cdx
  Mrv1902 05222410282D          

 19 19  0  0  0  0            999 V2000
    3.5318   -5.6100    0.0000 C   0  0  0  0  0  0  0  0  0  0  0  0
    3.5318   -6.4350    0.0000 C   0  0  0  0  0  0  0  0  0  0  0  0
    4.2463   -6.8475    0.0000 N   0  0  0  0  0  0  0  0  0  0  0  0
    4.9607   -6.4350    0.0000 C   0  0  0  0  0  0  0  0  0  0  0  0
    4.9607   -5.6100    0.0000 C   0  0  0  0  0  0  0  0  0  0  0  0
    4.2463   -5.1975    0.0000 C   0  0  0  0  0  0  0  0  0  0  0  0
    2.8173   -6.8475    0.0000 C   0  0  0  0  0  0  0  0  0  0  0  0
    2.1029   -6.4350    0.0000 C   0  0  0  0  0  0  0  0  0  0  0  0
    1.3884   -6.8475    0.0000 C   0  0  0  0  0  0  0  0  0  0  0  0
    5.6752   -6.8475    0.0000 C   0  0  0  0  0  0  0  0  0  0  0  0
    6.3897   -6.4350    0.0000 C   0  0  0  0  0  0  0  0  0  0  0  0
    7.1042   -6.8475    0.0000 C   0  0  0  0  0  0  0  0  0  0  0  0
    2.1029   -5.6100    0.0000 O   0  0  0  0  0  0  0  0  0  0  0  0
    6.3897   -5.6100    0.0000 O   0  0  0  0  0  0  0  0  0  0  0  0
    4.2463   -7.6725    0.0000 C   0  0  0  0  0  0  0  0  0  0  0  0
    0.6739   -6.4350    0.0000 C   0  0  0  0  0  0  0  0  0  0  0  0
   -0.0406   -6.8475    0.0000 C   0  0  0  0  0  0  0  0  0  0  0  0
    7.8186   -6.4350    0.0000 C   0  0  0  0  0  0  0  0  0  0  0  0
    8.5331   -6.8475    0.0000 C   0  0  0  0  0  0  0  0  0  0  0  0
  1  2  1  0  0  0  0
  2  3  1  0  0  0  0
  3  4  1  0  0  0  0
  4  5  1  0  0  0  0
  5  6  1  0  0  0  0
  6  1  1  0  0  0  0
  2  7  1  0  0  0  0
  7  8  1  0  0  0  0
  8  9  1  0  0  0  0
  4 10  1  0  0  0  0
 10 11  1  0  0  0  0
 11 12  1  0  0  0  0
  8 13  1  0  0  0  0
 11 14  2  0  0  0  0
  3 15  1  0  0  0  0
  9 16  1  0  0  0  0
 16 17  1  0  0  0  0
 12 18  1  0  0  0  0
 18 19  1  0  0  0  0
M  END
>  <cdx:fragmentId>
9038

$$$$
