300942.cdx
  Mrv1902 05222410192D          

 26 29  0  0  0  0            999 V2000
    4.2921   -7.4263    0.0000 O   0  0  0  0  0  0  0  0  0  0  0  0
    3.6009   -8.6770    0.0000 C   0  0  0  0  0  0  0  0  0  0  0  0
    4.3230   -9.0760    0.0000 O   0  0  0  0  0  0  0  0  0  0  0  0
   10.0378   -8.9687    0.0000 C   0  0  0  0  0  0  0  0  0  0  0  0
    9.3157   -8.5697    0.0000 O   0  0  0  0  0  0  0  0  0  0  0  0
   10.0533   -9.7936    0.0000 C   0  0  0  0  0  0  0  0  0  0  0  0
    9.3467  -10.2194    0.0000 O   0  0  0  0  0  0  0  0  0  0  0  0
    9.0273   -9.4383    0.0000 C   0  0  0  0  0  0  0  0  0  0  0  0
    7.9334  -11.0711    0.0000 O   0  0  0  0  0  0  0  0  0  0  0  0
    8.2240   -9.2504    0.0000 N   0  0  0  0  0  0  0  0  0  0  0  0
    8.0705   -9.6130    0.0000 C   0  0  0  0  0  0  0  0  0  0  0  0
    7.4658   -9.6324    0.0000 C   0  0  0  0  0  0  0  0  0  0  0  0
    7.1959   -9.8472    0.0000 C   0  0  0  0  0  0  0  0  0  0  0  0
    7.9180  -10.2462    0.0000 C   0  0  0  0  0  0  0  0  0  0  0  0
    8.6246   -9.8204    0.0000 C   0  0  0  0  0  0  0  0  0  0  0  0
    8.6091   -8.9956    0.0000 C   0  0  0  0  0  0  0  0  0  0  0  0
    7.8870   -8.5965    0.0000 C   0  0  1  0  0  0  0  0  0  0  0  0
    7.8715   -7.7717    0.0000 C   0  0  0  0  0  0  0  0  0  0  0  0
    7.1495   -7.3727    0.0000 C   0  0  0  0  0  0  0  0  0  0  0  0
    6.4428   -7.7985    0.0000 C   0  0  0  0  0  0  0  0  0  0  0  0
    5.7208   -7.3995    0.0000 C   0  0  0  0  0  0  0  0  0  0  0  0
    5.0142   -7.8253    0.0000 C   0  0  0  0  0  0  0  0  0  0  0  0
    5.0296   -8.6501    0.0000 C   0  0  0  0  0  0  0  0  0  0  0  0
    5.7517   -9.0492    0.0000 C   0  0  0  0  0  0  0  0  0  0  0  0
    6.4583   -8.6233    0.0000 C   0  0  0  0  0  0  0  0  0  0  0  0
    7.1804   -9.0224    0.0000 C   0  0  0  0  0  0  0  0  0  0  0  0
 22  1  1  0  0  0  0
 23  3  1  0  0  0  0
  3  2  1  0  0  0  0
 16  5  1  0  0  0  0
  5  4  1  0  0  0  0
 15  7  1  0  0  0  0
  7  6  1  0  0  0  0
 10  8  1  0  0  0  0
 14  9  2  0  0  0  0
 25 20  1  0  0  0  0
 26 17  1  0  0  0  0
 17 10  1  6  0  0  0
 26 12  1  0  0  0  0
 26 13  1  0  0  0  0
 11 10  1  0  0  0  0
 12 11  1  0  0  0  0
 14 13  1  0  0  0  0
 15 14  1  0  0  0  0
 16 15  2  0  0  0  0
 17 16  1  1  0  0  0
 18 17  1  0  0  0  0
 19 18  1  0  0  0  0
 20 19  1  0  0  0  0
 21 20  2  0  0  0  0
 22 21  1  0  0  0  0
 23 22  2  0  0  0  0
 24 23  1  0  0  0  0
 25 24  2  0  0  0  0
 26 25  1  0  0  0  0
M  END
>  <cdx:fragmentId>
5287

$$$$
