300935.cdx
  Mrv1902 05222410222D          

 84 94  0  0  0  0            999 V2000
    8.4131  -11.6463    0.0000 C   0  0  0  0  0  0  0  0  0  0  0  0
    8.4131  -12.4712    0.0000 C   0  0  1  0  0  0  0  0  0  0  0  0
    9.1275  -12.8837    0.0000 C   0  0  1  0  0  0  0  0  0  0  0  0
    9.8420  -12.4712    0.0000 C   0  0  1  0  0  0  0  0  0  0  0  0
    9.8420  -11.6463    0.0000 C   0  0  2  0  0  0  0  0  0  0  0  0
    9.1275  -11.2338    0.0000 C   0  0  0  0  0  0  0  0  0  0  0  0
   10.5565  -12.8837    0.0000 C   0  0  0  0  0  0  0  0  0  0  0  0
   11.2709  -12.4712    0.0000 C   0  0  0  0  0  0  0  0  0  0  0  0
   11.2709  -11.6463    0.0000 C   0  0  0  0  0  0  0  0  0  0  0  0
   10.5565  -11.2338    0.0000 C   0  0  1  0  0  0  0  0  0  0  0  0
   11.9854  -11.2338    0.0000 C   0  0  2  0  0  0  0  0  0  0  0  0
   11.9854  -10.4087    0.0000 C   0  0  1  0  0  0  0  0  0  0  0  0
   11.2709   -9.9962    0.0000 C   0  0  0  0  0  0  0  0  0  0  0  0
   10.5565  -10.4087    0.0000 C   0  0  0  0  0  0  0  0  0  0  0  0
    7.6986  -12.8837    0.0000 O   0  0  0  0  0  0  0  0  0  0  0  0
    6.9875  -12.4655    0.0000 C   0  0  1  0  0  0  0  0  0  0  0  0
    6.2697  -12.8722    0.0000 C   0  0  1  0  0  0  0  0  0  0  0  0
    6.9941  -11.6405    0.0000 O   0  0  0  0  0  0  0  0  0  0  0  0
    6.2830  -11.2223    0.0000 C   0  0  0  0  0  0  0  0  0  0  0  0
    5.5652  -11.6290    0.0000 C   0  0  2  0  0  0  0  0  0  0  0  0
    5.5586  -12.4540    0.0000 C   0  0  2  0  0  0  0  0  0  0  0  0
    9.8420  -10.8212    0.0000 C   0  0  0  0  0  0  0  0  0  0  0  0
    8.7150  -13.5982    0.0000 C   0  0  0  0  0  0  0  0  0  0  0  0
   11.9854   -9.5838    0.0000 C   0  0  0  0  0  0  0  0  0  0  0  0
    4.8408  -12.8607    0.0000 O   0  0  0  0  0  0  0  0  0  0  0  0
    6.2630  -13.6972    0.0000 O   0  0  0  0  0  0  0  0  0  0  0  0
    4.8541  -11.2108    0.0000 O   0  0  0  0  0  0  0  0  0  0  0  0
    9.5400  -13.5982    0.0000 C   0  0  0  0  0  0  0  0  0  0  0  0
   11.9854  -12.0587    0.0000 C   0  0  0  0  0  0  0  0  0  0  0  0
    9.8420  -13.2962    0.0000 H   0  0  0  0  0  0  0  0  0  0  0  0
   12.7700  -11.4887    0.0000 C   0  0  2  0  0  0  0  0  0  0  0  0
   13.2550  -10.8212    0.0000 C   0  0  1  0  0  0  0  0  0  0  0  0
   12.7700  -10.1538    0.0000 C   0  0  2  0  0  0  0  0  0  0  0  0
   14.0754  -10.7350    0.0000 O   0  0  0  0  0  0  0  0  0  0  0  0
   14.4110   -9.9813    0.0000 C   0  0  2  0  0  0  0  0  0  0  0  0
   13.9261   -9.3139    0.0000 C   0  0  0  0  0  0  0  0  0  0  0  0
   13.1056   -9.4001    0.0000 C   0  0  1  0  0  0  0  0  0  0  0  0
   13.6675  -11.5357    0.0000 O   0  0  0  0  0  0  0  0  0  0  0  0
   12.6207   -8.7327    0.0000 C   0  0  0  0  0  0  0  0  0  0  0  0
   12.3575   -9.4393    0.0000 H   0  0  0  0  0  0  0  0  0  0  0  0
   19.8530  -13.4229    0.0000 C   0  0  0  0  0  0  0  0  0  0  0  0
   20.6780  -13.4194    0.0000 C   0  0  0  0  0  0  0  0  0  0  0  0
   21.0935  -14.1321    0.0000 O   0  0  0  0  0  0  0  0  0  0  0  0
   21.9185  -14.1287    0.0000 C   0  0  0  0  0  0  0  0  0  0  0  0
   22.3279  -13.4125    0.0000 C   0  0  0  0  0  0  0  0  0  0  0  0
   21.9124  -12.6997    0.0000 C   0  0  0  0  0  0  0  0  0  0  0  0
   21.0875  -12.7032    0.0000 C   0  0  0  0  0  0  0  0  0  0  0  0
   22.3219  -11.9835    0.0000 O   0  0  0  0  0  0  0  0  0  0  0  0
   22.3340  -14.8414    0.0000 C   0  0  0  0  0  0  0  0  0  0  0  0
   23.1589  -14.8379    0.0000 C   0  0  0  0  0  0  0  0  0  0  0  0
   23.5684  -14.1217    0.0000 C   0  0  0  0  0  0  0  0  0  0  0  0
   23.1529  -13.4090    0.0000 C   0  0  0  0  0  0  0  0  0  0  0  0
   23.7136  -15.4487    0.0000 O   0  0  0  0  0  0  0  0  0  0  0  0
   24.4658  -15.1100    0.0000 C   0  0  1  0  0  0  0  0  0  0  0  0
   24.3761  -14.2899    0.0000 C   0  0  0  0  0  0  0  0  0  0  0  0
   23.5624  -12.6928    0.0000 O   0  0  0  0  0  0  0  0  0  0  0  0
   23.1469  -11.9801    0.0000 C   0  0  0  0  0  0  0  0  0  0  0  0
   25.1820  -15.5195    0.0000 C   0  0  0  0  0  0  0  0  0  0  0  0
   25.5915  -14.8033    0.0000 C   0  0  0  0  0  0  0  0  0  0  0  0
   24.7725  -16.2357    0.0000 C   0  0  0  0  0  0  0  0  0  0  0  0
   25.8982  -15.9290    0.0000 O   0  0  0  0  0  0  0  0  0  0  0  0
   24.4693  -15.9350    0.0000 H   0  0  0  0  0  0  0  0  0  0  0  0
   15.2315   -9.8951    0.0000 C   0  0  2  0  0  0  0  0  0  0  0  0
   15.7164  -10.5625    0.0000 C   0  0  0  0  0  0  0  0  0  0  0  0
   15.5670   -9.1414    0.0000 O   0  0  0  0  0  0  0  0  0  0  0  0
   15.0019  -10.9750    0.0000 C   0  0  0  0  0  0  0  0  0  0  0  0
   16.4309  -10.1500    0.0000 C   0  0  0  0  0  0  0  0  0  0  0  0
   13.0250  -12.2733    0.0000 O   0  0  0  0  0  0  0  0  0  0  0  0
   14.6245   -9.1844    0.0000 H   0  0  0  0  0  0  0  0  0  0  0  0
   15.0821   -8.4740    0.0000 C   0  0  0  0  0  0  0  0  0  0  0  0
   15.4177   -7.7203    0.0000 O   0  0  0  0  0  0  0  0  0  0  0  0
   14.2616   -8.5602    0.0000 C   0  0  0  0  0  0  0  0  0  0  0  0
   16.1289  -11.2770    0.0000 O   0  0  0  0  0  0  0  0  0  0  0  0
   16.9539  -11.2770    0.0000 C   0  0  0  0  0  0  0  0  0  0  0  0
   17.3664  -11.9915    0.0000 C   0  0  2  0  0  0  0  0  0  0  0  0
   16.9539  -12.7060    0.0000 C   0  0  2  0  0  0  0  0  0  0  0  0
   17.3664  -13.4204    0.0000 C   0  0  1  0  0  0  0  0  0  0  0  0
   18.1914  -13.4204    0.0000 C   0  0  2  0  0  0  0  0  0  0  0  0
   18.6039  -12.7060    0.0000 C   0  0  1  0  0  0  0  0  0  0  0  0
   18.1914  -11.9915    0.0000 O   0  0  0  0  0  0  0  0  0  0  0  0
   19.4289  -12.7060    0.0000 O   0  0  0  0  0  0  0  0  0  0  0  0
   16.9539  -14.1349    0.0000 O   0  0  0  0  0  0  0  0  0  0  0  0
   18.6039  -14.1349    0.0000 O   0  0  0  0  0  0  0  0  0  0  0  0
   16.1289  -12.7060    0.0000 O   0  0  0  0  0  0  0  0  0  0  0  0
  1  2  1  0  0  0  0
  2  3  1  0  0  0  0
  3  4  1  0  0  0  0
  4  5  1  0  0  0  0
  5  6  1  0  0  0  0
  6  1  1  0  0  0  0
  4  7  1  0  0  0  0
  7  8  1  0  0  0  0
  8  9  2  0  0  0  0
  9 10  1  0  0  0  0
 10  5  1  0  0  0  0
  9 11  1  0  0  0  0
 11 12  1  0  0  0  0
 12 13  1  0  0  0  0
 13 14  1  0  0  0  0
 14 10  1  0  0  0  0
  2 15  1  1  0  0  0
 16 15  1  1  0  0  0
 16 17  1  0  0  0  0
 16 18  1  0  0  0  0
 18 19  1  0  0  0  0
 19 20  1  0  0  0  0
 20 21  1  0  0  0  0
 21 17  1  0  0  0  0
  5 22  1  1  0  0  0
 10 22  1  1  0  0  0
  3 23  1  1  0  0  0
 12 24  1  1  0  0  0
 21 25  1  1  0  0  0
 17 26  1  6  0  0  0
 20 27  1  6  0  0  0
  3 28  1  6  0  0  0
 11 29  1  6  0  0  0
  4 30  1  6  0  0  0
 11 31  1  0  0  0  0
 31 32  1  0  0  0  0
 32 33  1  0  0  0  0
 33 12  1  0  0  0  0
 32 34  1  0  0  0  0
 34 35  1  0  0  0  0
 35 36  1  0  0  0  0
 36 37  1  0  0  0  0
 37 33  1  0  0  0  0
 32 38  1  6  0  0  0
 37 39  1  6  0  0  0
 33 40  1  6  0  0  0
 41 42  1  0  0  0  0
 42 43  1  0  0  0  0
 43 44  1  0  0  0  0
 44 45  2  0  0  0  0
 45 46  1  0  0  0  0
 46 47  1  0  0  0  0
 47 42  2  0  0  0  0
 46 48  2  0  0  0  0
 44 49  1  0  0  0  0
 49 50  2  0  0  0  0
 50 51  1  0  0  0  0
 51 52  2  0  0  0  0
 52 45  1  0  0  0  0
 50 53  1  0  0  0  0
 53 54  1  0  0  0  0
 54 55  1  0  0  0  0
 55 51  1  0  0  0  0
 52 56  1  0  0  0  0
 56 57  1  0  0  0  0
 54 58  1  0  0  0  0
 58 59  1  0  0  0  0
 58 60  1  0  0  0  0
 58 61  1  0  0  0  0
 35 63  1  0  0  0  0
 63 64  1  0  0  0  0
 63 65  1  1  0  0  0
 64 66  1  0  0  0  0
 64 67  1  0  0  0  0
 31 68  1  6  0  0  0
 54 62  1  6  0  0  0
 35 69  1  1  0  0  0
 65 70  1  0  0  0  0
 70 71  2  0  0  0  0
 70 72  1  0  0  0  0
 64 73  1  0  0  0  0
 73 74  1  0  0  0  0
 75 74  1  1  0  0  0
 75 76  1  0  0  0  0
 76 77  1  0  0  0  0
 77 78  1  0  0  0  0
 78 79  1  0  0  0  0
 79 80  1  0  0  0  0
 80 75  1  0  0  0  0
 79 81  1  1  0  0  0
 77 82  1  1  0  0  0
 78 83  1  6  0  0  0
 76 84  1  6  0  0  0
 41 81  1  0  0  0  0
M  END
>  <cdx:fragmentId>
5

$$$$
