300977.cdx
  Mrv1902 05222410272D          

 25 27  0  0  0  0            999 V2000
    6.2502   -6.7737    0.0000 C   0  0  0  0  0  0  0  0  0  0  0  0
    6.5878   -7.5265    0.0000 O   0  0  0  0  0  0  0  0  0  0  0  0
    6.1047   -8.1953    0.0000 C   0  0  0  0  0  0  0  0  0  0  0  0
    5.4295   -6.6897    0.0000 C   0  0  0  0  0  0  0  0  0  0  0  0
    4.9464   -7.3585    0.0000 C   0  0  0  0  0  0  0  0  0  0  0  0
    4.1257   -7.2744    0.0000 C   0  0  0  0  0  0  0  0  0  0  0  0
    3.7881   -6.5217    0.0000 C   0  0  0  0  0  0  0  0  0  0  0  0
    4.2712   -5.8529    0.0000 C   0  0  0  0  0  0  0  0  0  0  0  0
    5.0919   -5.9369    0.0000 C   0  0  0  0  0  0  0  0  0  0  0  0
    2.9674   -6.4376    0.0000 O   0  0  0  0  0  0  0  0  0  0  0  0
    8.8653   -6.6805    0.0000 O   0  0  0  0  0  0  0  0  0  0  0  0
    8.0451   -6.7689    0.0000 C   0  0  0  0  0  0  0  0  0  0  0  0
    6.4763   -5.3211    0.0000 C   0  0  0  0  0  0  0  0  0  0  0  0
    6.7334   -6.1050    0.0000 C   0  0  1  0  0  0  0  0  0  0  0  0
    7.5583   -6.1028    0.0000 C   0  0  2  0  0  0  0  0  0  0  0  0
    7.8112   -5.3175    0.0000 C   0  0  1  0  0  0  0  0  0  0  0  0
    7.1424   -4.8344    0.0000 O   0  0  0  0  0  0  0  0  0  0  0  0
   10.9469   -4.2893    0.0000 O   0  0  0  0  0  0  0  0  0  0  0  0
    9.9936   -5.3538    0.0000 C   0  0  0  0  0  0  0  0  0  0  0  0
    9.2097   -5.6108    0.0000 C   0  0  0  0  0  0  0  0  0  0  0  0
    8.5951   -5.0604    0.0000 C   0  0  0  0  0  0  0  0  0  0  0  0
    8.7645   -4.2530    0.0000 C   0  0  0  0  0  0  0  0  0  0  0  0
    9.5484   -3.9960    0.0000 C   0  0  0  0  0  0  0  0  0  0  0  0
   10.1630   -4.5463    0.0000 C   0  0  0  0  0  0  0  0  0  0  0  0
    5.9084   -6.1072    0.0000 H   0  0  0  0  0  0  0  0  0  0  0  0
 16 21  1  1  0  0  0
 15 12  1  6  0  0  0
 12 11  1  0  0  0  0
 14  1  1  0  0  0  0
 17 13  1  0  0  0  0
 14 13  1  0  0  0  0
 15 14  1  0  0  0  0
 16 15  1  0  0  0  0
 17 16  1  0  0  0  0
 24 18  1  0  0  0  0
 24 19  2  0  0  0  0
 20 19  1  0  0  0  0
 21 20  2  0  0  0  0
 22 21  1  0  0  0  0
 23 22  2  0  0  0  0
 24 23  1  0  0  0  0
  2  3  1  0  0  0  0
  1  2  1  0  0  0  0
  4  5  1  0  0  0  0
  5  6  2  0  0  0  0
  6  7  1  0  0  0  0
  7  8  2  0  0  0  0
  8  9  1  0  0  0  0
  4  9  2  0  0  0  0
  7 10  1  0  0  0  0
  1  4  1  0  0  0  0
 14 25  1  6  0  0  0
M  END
>  <cdx:fragmentId>
9149

$$$$
