300974.cdx
  Mrv1902 05222410282D          

 24 26  0  0  0  0            999 V2000
    7.6651   -5.1538    0.0000 O   0  0  0  0  0  0  0  0  0  0  0  0
    8.2484   -5.7372    0.0000 C   0  0  0  0  0  0  0  0  0  0  0  0
    2.9444   -6.8852    0.0000 O   0  0  0  0  0  0  0  0  0  0  0  0
    3.6503   -6.4582    0.0000 C   0  0  0  0  0  0  0  0  0  0  0  0
    4.3730   -6.8561    0.0000 C   0  0  0  0  0  0  0  0  0  0  0  0
    5.0789   -6.4291    0.0000 C   0  0  0  0  0  0  0  0  0  0  0  0
    5.8522   -9.3014    0.0000 C   0  0  0  0  0  0  0  0  0  0  0  0
    6.5581   -8.8744    0.0000 O   0  0  0  0  0  0  0  0  0  0  0  0
    6.5076   -6.3999    0.0000 C   0  0  0  0  0  0  0  0  0  0  0  0
    5.8017   -6.8269    0.0000 C   0  0  0  0  0  0  0  0  0  0  0  0
    5.8185   -7.6517    0.0000 C   0  0  0  0  0  0  0  0  0  0  0  0
    6.5413   -8.0495    0.0000 C   0  0  0  0  0  0  0  0  0  0  0  0
    7.2472   -7.6225    0.0000 C   0  0  0  0  0  0  0  0  0  0  0  0
    7.2303   -6.7977    0.0000 C   0  0  0  0  0  0  0  0  0  0  0  0
    8.0096   -6.5268    0.0000 C   0  0  1  0  0  0  0  0  0  0  0  0
    8.5080   -7.1842    0.0000 C   0  0  2  0  0  0  0  0  0  0  0  0
    8.0368   -7.8614    0.0000 O   0  0  0  0  0  0  0  0  0  0  0  0
   11.8073   -7.1168    0.0000 O   0  0  0  0  0  0  0  0  0  0  0  0
   10.5847   -7.8564    0.0000 C   0  0  0  0  0  0  0  0  0  0  0  0
    9.7598   -7.8733    0.0000 C   0  0  0  0  0  0  0  0  0  0  0  0
    9.3328   -7.1674    0.0000 C   0  0  0  0  0  0  0  0  0  0  0  0
    9.7307   -6.4446    0.0000 C   0  0  0  0  0  0  0  0  0  0  0  0
   10.5555   -6.4278    0.0000 C   0  0  0  0  0  0  0  0  0  0  0  0
   10.9825   -7.1337    0.0000 C   0  0  0  0  0  0  0  0  0  0  0  0
 16 21  1  1  0  0  0
 15  2  1  6  0  0  0
  2  1  1  0  0  0  0
 10  6  1  0  0  0  0
  4  3  1  0  0  0  0
  5  4  1  0  0  0  0
  6  5  1  0  0  0  0
 12  8  1  0  0  0  0
  8  7  1  0  0  0  0
 13 12  2  0  0  0  0
 14  9  2  0  0  0  0
 10  9  1  0  0  0  0
 11 10  2  0  0  0  0
 12 11  1  0  0  0  0
 17 13  1  0  0  0  0
 14 13  1  0  0  0  0
 15 14  1  0  0  0  0
 16 15  1  0  0  0  0
 17 16  1  0  0  0  0
 24 18  1  0  0  0  0
 24 19  2  0  0  0  0
 20 19  1  0  0  0  0
 21 20  2  0  0  0  0
 22 21  1  0  0  0  0
 23 22  2  0  0  0  0
 24 23  1  0  0  0  0
M  END
>  <cdx:fragmentId>
8972

$$$$
