300996.cdx
  Mrv1902 05222410202D          

 10  9  0  0  0  0            999 V2000
    4.3014   -9.7041    0.0000 C   0  0  0  0  0  0  0  0  0  0  0  0
    4.3014   -8.8791    0.0000 C   0  0  0  0  0  0  0  0  0  0  0  0
    5.0158   -8.4666    0.0000 C   0  0  0  0  0  0  0  0  0  0  0  0
    5.7303   -8.8791    0.0000 C   0  0  0  0  0  0  0  0  0  0  0  0
    6.4448   -8.4666    0.0000 C   0  0  0  0  0  0  0  0  0  0  0  0
    7.1593   -8.8791    0.0000 C   0  0  0  0  0  0  0  0  0  0  0  0
    7.8737   -8.4666    0.0000 C   0  0  0  0  0  0  0  0  0  0  0  0
    7.8737   -7.6416    0.0000 C   0  0  0  0  0  0  0  0  0  0  0  0
    7.1593   -9.7041    0.0000 C   0  0  0  0  0  0  0  0  0  0  0  0
    3.5869   -8.4666    0.0000 C   0  0  0  0  0  0  0  0  0  0  0  0
  1  2  1  0  0  0  0
  2  3  2  0  0  0  0
  3  4  1  0  0  0  0
  4  5  1  0  0  0  0
  5  6  1  0  0  0  0
  6  7  2  0  0  0  0
  7  8  1  0  0  0  0
  6  9  1  0  0  0  0
  2 10  1  0  0  0  0
M  END
>  <cdx:fragmentId>
10856

$$$$
