30098.cdx
  Mrv1902 05222410282D          

 25 29  0  0  0  0            999 V2000
    3.1056   -8.8264    0.0000 C   0  0  0  0  0  0  0  0  0  0  0  0
    3.1056   -9.6514    0.0000 C   0  0  0  0  0  0  0  0  0  0  0  0
    3.8200  -10.0639    0.0000 C   0  0  0  0  0  0  0  0  0  0  0  0
    4.5345   -9.6514    0.0000 C   0  0  0  0  0  0  0  0  0  0  0  0
    4.5345   -8.8264    0.0000 C   0  0  0  0  0  0  0  0  0  0  0  0
    3.8200   -8.4139    0.0000 C   0  0  0  0  0  0  0  0  0  0  0  0
    5.3191   -9.9063    0.0000 N   0  0  0  0  0  0  0  0  0  0  0  0
    5.8040   -9.2389    0.0000 C   0  0  1  0  0  0  0  0  0  0  0  0
    5.3191   -8.5715    0.0000 C   0  0  1  0  0  0  0  0  0  0  0  0
    6.1620   -9.9822    0.0000 C   0  0  0  0  0  0  0  0  0  0  0  0
    6.9663  -10.1658    0.0000 N   0  0  0  0  0  0  0  0  0  0  0  0
    7.6113   -9.6514    0.0000 C   0  0  0  0  0  0  0  0  0  0  0  0
    7.6113   -8.8264    0.0000 C   0  0  0  0  0  0  0  0  0  0  0  0
    6.9663   -8.3120    0.0000 C   0  0  0  0  0  0  0  0  0  0  0  0
    6.1620   -8.4956    0.0000 N   0  0  0  0  0  0  0  0  0  0  0  0
    8.3258  -10.0639    0.0000 C   0  0  0  0  0  0  0  0  0  0  0  0
    9.0403   -9.6514    0.0000 C   0  0  0  0  0  0  0  0  0  0  0  0
    9.0403   -8.8264    0.0000 C   0  0  0  0  0  0  0  0  0  0  0  0
    8.3258   -8.4139    0.0000 C   0  0  0  0  0  0  0  0  0  0  0  0
    5.9485  -10.7791    0.0000 O   0  0  0  0  0  0  0  0  0  0  0  0
    7.1499  -10.9701    0.0000 C   0  0  0  0  0  0  0  0  0  0  0  0
    7.1499   -7.5077    0.0000 O   0  0  0  0  0  0  0  0  0  0  0  0
    5.3191   -7.7465    0.0000 C   0  0  0  0  0  0  0  0  0  0  0  0
    5.9072   -7.5062    0.0000 C   0  0  0  0  0  0  0  0  0  0  0  0
    4.7358   -7.9881    0.0000 O   0  0  0  0  0  0  0  0  0  0  0  0
  1  2  2  0  0  0  0
  2  3  1  0  0  0  0
  3  4  2  0  0  0  0
  4  5  1  0  0  0  0
  5  6  2  0  0  0  0
  6  1  1  0  0  0  0
  4  7  1  0  0  0  0
  7  8  1  0  0  0  0
  8  9  1  0  0  0  0
  9  5  1  0  0  0  0
  8 10  1  1  0  0  0
 10 11  1  0  0  0  0
 11 12  1  0  0  0  0
 12 13  2  0  0  0  0
 13 14  1  0  0  0  0
 14 15  1  0  0  0  0
  8 15  1  6  0  0  0
 12 16  1  0  0  0  0
 16 17  2  0  0  0  0
 17 18  1  0  0  0  0
 18 19  2  0  0  0  0
 19 13  1  0  0  0  0
 10 20  2  0  0  0  0
 11 21  1  0  0  0  0
 14 22  2  0  0  0  0
  9 23  1  0  0  0  0
 15 24  1  0  0  0  0
 23 24  1  0  0  0  0
  9 25  1  1  0  0  0
M  END
>  <cdx:fragmentId>
5

$$$$
