300953.cdx
  Mrv1902 05222410192D          

  8  7  0  0  0  0            999 V2000
    6.7037   -8.5679    0.0000 C   0  0  0  0  0  0  0  0  0  0  0  0
    7.5287   -8.5679    0.0000 C   0  0  0  0  0  0  0  0  0  0  0  0
    8.3537   -8.5679    0.0000 O   0  0  0  0  0  0  0  0  0  0  0  0
    5.8787   -8.5679    0.0000 Cl  0  0  0  0  0  0  0  0  0  0  0  0
    7.5287   -7.7429    0.0000 C   0  0  0  0  0  0  0  0  0  0  0  0
    7.5287   -9.3929    0.0000 C   0  0  0  0  0  0  0  0  0  0  0  0
    6.7037   -7.7429    0.0000 Cl  0  0  0  0  0  0  0  0  0  0  0  0
    6.7037   -9.3929    0.0000 Cl  0  0  0  0  0  0  0  0  0  0  0  0
  1  2  1  0  0  0  0
  2  3  1  0  0  0  0
  1  4  1  0  0  0  0
  2  5  1  0  0  0  0
  2  6  1  0  0  0  0
  1  7  1  0  0  0  0
  1  8  1  0  0  0  0
M  END
>  <cdx:fragmentId>
5

$$$$
