300938.cdx
  Mrv1902 05222410242D          

 71 78  0  0  0  0            999 V2000
    6.6923   -4.1466    0.0000 C   0  0  1  0  0  0  0  0  0  0  0  0
    7.4068   -3.7341    0.0000 C   0  0  2  0  0  0  0  0  0  0  0  0
    8.1213   -4.1466    0.0000 C   0  0  0  0  0  0  0  0  0  0  0  0
    8.1213   -4.9716    0.0000 C   0  0  0  0  0  0  0  0  0  0  0  0
    7.4068   -5.3841    0.0000 C   0  0  2  0  0  0  0  0  0  0  0  0
    7.4068   -6.2091    0.0000 C   0  0  0  0  0  0  0  0  0  0  0  0
    6.6923   -6.6216    0.0000 C   0  0  0  0  0  0  0  0  0  0  0  0
    5.9778   -6.2091    0.0000 C   0  0  1  0  0  0  0  0  0  0  0  0
    5.2634   -6.6216    0.0000 C   0  0  2  0  0  0  0  0  0  0  0  0
    5.2634   -7.4466    0.0000 C   0  0  0  0  0  0  0  0  0  0  0  0
    4.5489   -7.8591    0.0000 C   0  0  2  0  0  0  0  0  0  0  0  0
    3.8344   -7.4466    0.0000 C   0  0  1  0  0  0  0  0  0  0  0  0
    3.1200   -7.8591    0.0000 C   0  0  1  0  0  0  0  0  0  0  0  0
    2.4055   -7.4466    0.0000 C   0  0  2  0  0  0  0  0  0  0  0  0
    2.4055   -6.6216    0.0000 C   0  0  1  0  0  0  0  0  0  0  0  0
    3.1200   -6.2091    0.0000 C   0  0  0  0  0  0  0  0  0  0  0  0
    3.8344   -6.6216    0.0000 C   0  0  2  0  0  0  0  0  0  0  0  0
    4.5489   -6.2091    0.0000 C   0  0  1  0  0  0  0  0  0  0  0  0
    4.5489   -5.3841    0.0000 C   0  0  0  0  0  0  0  0  0  0  0  0
    5.2634   -4.9716    0.0000 C   0  0  0  0  0  0  0  0  0  0  0  0
    5.9778   -5.3841    0.0000 C   0  0  0  0  0  0  0  0  0  0  0  0
    6.6923   -4.9716    0.0000 C   0  0  2  0  0  0  0  0  0  0  0  0
    8.1213   -5.7966    0.0000 C   0  0  0  0  0  0  0  0  0  0  0  0
    8.1213   -6.6216    0.0000 O   0  0  0  0  0  0  0  0  0  0  0  0
    3.8344   -5.7966    0.0000 C   0  0  0  0  0  0  0  0  0  0  0  0
    3.5325   -8.5736    0.0000 C   0  0  0  0  0  0  0  0  0  0  0  0
    2.7075   -8.5736    0.0000 C   0  0  0  0  0  0  0  0  0  0  0  0
    5.2634   -5.7966    0.0000 C   0  0  0  0  0  0  0  0  0  0  0  0
    5.9778   -7.0341    0.0000 C   0  0  0  0  0  0  0  0  0  0  0  0
    5.9778   -3.7341    0.0000 C   0  0  0  0  0  0  0  0  0  0  0  0
    1.6910   -6.2091    0.0000 O   0  0  0  0  0  0  0  0  0  0  0  0
    1.6910   -7.8591    0.0000 O   0  0  0  0  0  0  0  0  0  0  0  0
    4.5489   -8.6841    0.0000 O   0  0  0  0  0  0  0  0  0  0  0  0
    3.8344   -8.2716    0.0000 H   0  0  0  0  0  0  0  0  0  0  0  0
    6.6923   -5.7966    0.0000 H   0  0  0  0  0  0  0  0  0  0  0  0
   10.9752   -8.2745    0.0000 O   0  0  0  0  0  0  0  0  0  0  0  0
   10.2585   -9.5108    0.0000 O   0  0  0  0  0  0  0  0  0  0  0  0
   10.9737   -9.0995    0.0000 C   0  0  2  0  0  0  0  0  0  0  0  0
   11.6875   -9.5133    0.0000 C   0  0  1  0  0  0  0  0  0  0  0  0
   11.6860  -10.3383    0.0000 C   0  0  2  0  0  0  0  0  0  0  0  0
   10.9708  -10.7495    0.0000 C   0  0  1  0  0  0  0  0  0  0  0  0
   10.2571  -10.3358    0.0000 C   0  0  1  0  0  0  0  0  0  0  0  0
    8.8281  -10.3332    0.0000 O   0  0  0  0  0  0  0  0  0  0  0  0
   12.3998  -10.7521    0.0000 O   0  0  0  0  0  0  0  0  0  0  0  0
   12.4027   -9.1021    0.0000 O   0  0  0  0  0  0  0  0  0  0  0  0
   10.9664  -13.2245    0.0000 O   0  0  0  0  0  0  0  0  0  0  0  0
    9.5360  -14.0470    0.0000 O   0  0  0  0  0  0  0  0  0  0  0  0
    8.1086  -13.2195    0.0000 O   0  0  0  0  0  0  0  0  0  0  0  0
    8.1115  -11.5695    0.0000 C   0  0  0  0  0  0  0  0  0  0  0  0
    8.8252  -11.9832    0.0000 C   0  0  1  0  0  0  0  0  0  0  0  0
    8.8238  -12.8082    0.0000 C   0  0  1  0  0  0  0  0  0  0  0  0
    9.5375  -13.2220    0.0000 C   0  0  2  0  0  0  0  0  0  0  0  0
   10.2527  -12.8108    0.0000 C   0  0  2  0  0  0  0  0  0  0  0  0
   10.2542  -11.9858    0.0000 C   0  0  1  0  0  0  0  0  0  0  0  0
    9.5404  -11.5720    0.0000 O   0  0  0  0  0  0  0  0  0  0  0  0
   10.9694  -11.5745    0.0000 O   0  0  0  0  0  0  0  0  0  0  0  0
    9.5419  -10.7470    0.0000 C   0  0  0  0  0  0  0  0  0  0  0  0
   10.2613   -7.8610    0.0000 C   0  0  0  0  0  0  0  0  0  0  0  0
   10.2658   -4.5611    0.0000 O   0  0  0  0  0  0  0  0  0  0  0  0
   11.6936   -5.3880    0.0000 O   0  0  0  0  0  0  0  0  0  0  0  0
   11.6914   -7.0380    0.0000 O   0  0  0  0  0  0  0  0  0  0  0  0
   10.2624   -7.0360    0.0000 C   0  0  2  0  0  0  0  0  0  0  0  0
   10.9774   -6.6245    0.0000 C   0  0  2  0  0  0  0  0  0  0  0  0
   10.9786   -5.7995    0.0000 C   0  0  1  0  0  0  0  0  0  0  0  0
   10.2647   -5.3861    0.0000 C   0  0  2  0  0  0  0  0  0  0  0  0
    9.5496   -5.7976    0.0000 C   0  0  1  0  0  0  0  0  0  0  0  0
    9.5485   -6.6226    0.0000 O   0  0  0  0  0  0  0  0  0  0  0  0
    8.8357   -5.3841    0.0000 O   0  0  0  0  0  0  0  0  0  0  0  0
    6.9943   -3.0196    0.0000 C   0  0  0  0  0  0  0  0  0  0  0  0
    7.8193   -3.0196    0.0000 C   0  0  0  0  0  0  0  0  0  0  0  0
    4.5489   -7.0341    0.0000 H   0  0  0  0  0  0  0  0  0  0  0  0
 66 68  1  1  0  0  0
 62 58  1  1  0  0  0
 58 36  1  0  0  0  0
 54 56  1  1  0  0  0
 53 46  1  6  0  0  0
 52 47  1  6  0  0  0
 51 48  1  1  0  0  0
 50 49  1  6  0  0  0
 55 50  1  0  0  0  0
 51 50  1  0  0  0  0
 52 51  1  0  0  0  0
 53 52  1  0  0  0  0
 54 53  1  0  0  0  0
 55 54  1  0  0  0  0
 57 43  1  0  0  0  0
 37 38  1  0  0  0  0
 65 59  1  6  0  0  0
 64 60  1  1  0  0  0
 63 61  1  6  0  0  0
 67 62  1  0  0  0  0
 63 62  1  0  0  0  0
 64 63  1  0  0  0  0
 65 64  1  0  0  0  0
  1  2  1  0  0  0  0
  2  3  1  0  0  0  0
  3  4  1  0  0  0  0
  4  5  1  0  0  0  0
  5  6  1  0  0  0  0
  6  7  1  0  0  0  0
  7  8  1  0  0  0  0
  8  9  1  0  0  0  0
  9 10  1  0  0  0  0
 10 11  1  0  0  0  0
 11 12  1  0  0  0  0
 12 13  1  0  0  0  0
 13 14  1  0  0  0  0
 14 15  1  0  0  0  0
 15 16  1  0  0  0  0
 16 17  1  0  0  0  0
 12 17  1  0  0  0  0
 17 18  1  0  0  0  0
  9 18  1  0  0  0  0
 18 19  1  0  0  0  0
 19 20  1  0  0  0  0
 20 21  2  0  0  0  0
  8 21  1  0  0  0  0
 21 22  1  0  0  0  0
  5 22  1  0  0  0  0
  1 22  1  0  0  0  0
 23 24  2  0  0  0  0
 23 68  1  0  0  0  0
  5 23  1  1  0  0  0
 17 25  1  1  0  0  0
 13 26  1  6  0  0  0
 13 27  1  1  0  0  0
  9 28  1  1  0  0  0
  8 29  1  6  0  0  0
  1 30  1  1  0  0  0
 15 31  1  6  0  0  0
 14 32  1  1  0  0  0
 11 33  1  1  0  0  0
 12 34  1  6  0  0  0
 22 35  1  1  0  0  0
 66 65  1  0  0  0  0
 67 66  1  0  0  0  0
 38 39  1  0  0  0  0
 39 40  1  0  0  0  0
 40 41  1  0  0  0  0
 41 42  1  0  0  0  0
 37 42  1  0  0  0  0
 41 56  1  6  0  0  0
 42 57  1  1  0  0  0
 40 44  1  1  0  0  0
 39 45  1  6  0  0  0
 38 36  1  1  0  0  0
  2 69  1  1  0  0  0
  2 70  1  6  0  0  0
 18 71  1  6  0  0  0
M  END
>  <cdx:fragmentId>
4626

$$$$
