300944.cdx
  Mrv1902 05222410182D          

110121  0  0  0  0            999 V2000
   10.8160  -11.7997    0.0000 C   0  0  1  0  0  0  0  0  0  0  0  0
   10.8160  -10.9750    0.0000 C   0  0  0  0  0  0  0  0  0  0  0  0
   11.5302  -10.5626    0.0000 C   0  0  0  0  0  0  0  0  0  0  0  0
   11.5302  -12.2121    0.0000 C   0  0  2  0  0  0  0  0  0  0  0  0
   11.9426  -12.9264    0.0000 C   0  0  0  0  0  0  0  0  0  0  0  0
   11.1179  -12.9264    0.0000 C   0  0  0  0  0  0  0  0  0  0  0  0
   12.2445  -11.7997    0.0000 C   0  0  2  0  0  0  0  0  0  0  0  0
   12.2445  -12.6245    0.0000 H   0  0  0  0  0  0  0  0  0  0  0  0
   12.9587  -12.2121    0.0000 C   0  0  0  0  0  0  0  0  0  0  0  0
   13.6730  -11.7997    0.0000 C   0  0  0  0  0  0  0  0  0  0  0  0
   13.6730  -10.9750    0.0000 C   0  0  1  0  0  0  0  0  0  0  0  0
   13.6730  -10.1503    0.0000 C   0  0  0  0  0  0  0  0  0  0  0  0
   14.3872  -10.5626    0.0000 C   0  0  2  0  0  0  0  0  0  0  0  0
   14.3872  -11.3874    0.0000 C   0  0  0  0  0  0  0  0  0  0  0  0
   15.1015  -10.9750    0.0000 C   0  0  0  0  0  0  0  0  0  0  0  0
   15.8157  -10.5626    0.0000 C   0  0  0  0  0  0  0  0  0  0  0  0
   15.8157   -9.7379    0.0000 C   0  0  2  0  0  0  0  0  0  0  0  0
   16.5691  -10.0733    0.0000 C   0  0  0  0  0  0  0  0  0  0  0  0
   15.1015   -9.3255    0.0000 C   0  0  2  0  0  0  0  0  0  0  0  0
   14.4794   -8.9664    0.0000 H   0  0  0  0  0  0  0  0  0  0  0  0
   14.3872   -9.7379    0.0000 C   0  0  0  0  0  0  0  0  0  0  0  0
   13.6730   -9.3255    0.0000 C   0  0  0  0  0  0  0  0  0  0  0  0
   12.9587   -9.7379    0.0000 C   0  0  0  0  0  0  0  0  0  0  0  0
   12.9587  -10.5626    0.0000 C   0  0  2  0  0  0  0  0  0  0  0  0
   12.2445  -10.9750    0.0000 C   0  0  1  0  0  0  0  0  0  0  0  0
   12.2445  -10.1503    0.0000 C   0  0  0  0  0  0  0  0  0  0  0  0
   16.5709  -10.8981    0.0000 O   0  0  0  0  0  0  0  0  0  0  0  0
    7.2578  -10.5402    0.0000 O   0  0  0  0  0  0  0  0  0  0  0  0
    7.2512   -9.7155    0.0000 C   0  0  1  0  0  0  0  0  0  0  0  0
    6.5337   -9.3088    0.0000 C   0  0  2  0  0  0  0  0  0  0  0  0
    5.8228   -9.7269    0.0000 O   0  0  0  0  0  0  0  0  0  0  0  0
    6.5271   -8.4841    0.0000 C   0  0  1  0  0  0  0  0  0  0  0  0
    5.8095   -8.0775    0.0000 O   0  0  0  0  0  0  0  0  0  0  0  0
    7.2380   -8.0660    0.0000 C   0  0  1  0  0  0  0  0  0  0  0  0
    7.9555   -8.4727    0.0000 C   0  0  2  0  0  0  0  0  0  0  0  0
    7.9621   -9.2974    0.0000 O   0  0  0  0  0  0  0  0  0  0  0  0
    8.6664   -8.0546    0.0000 C   0  0  0  0  0  0  0  0  0  0  0  0
    8.6598   -7.2298    0.0000 O   0  0  0  0  0  0  0  0  0  0  0  0
   19.4192  -12.5505    0.0000 O   0  0  0  0  0  0  0  0  0  0  0  0
   19.3920  -13.3748    0.0000 C   0  0  1  0  0  0  0  0  0  0  0  0
   20.0923  -13.8104    0.0000 C   0  0  2  0  0  0  0  0  0  0  0  0
   20.8198  -13.4218    0.0000 O   0  0  0  0  0  0  0  0  0  0  0  0
   20.0652  -14.6347    0.0000 C   0  0  1  0  0  0  0  0  0  0  0  0
   20.7655  -15.0703    0.0000 O   0  0  0  0  0  0  0  0  0  0  0  0
   19.3378  -15.0234    0.0000 C   0  0  1  0  0  0  0  0  0  0  0  0
   18.6375  -14.5877    0.0000 C   0  0  2  0  0  0  0  0  0  0  0  0
   18.6646  -13.7635    0.0000 O   0  0  0  0  0  0  0  0  0  0  0  0
   17.9101  -14.9764    0.0000 C   0  0  0  0  0  0  0  0  0  0  0  0
   17.8830  -15.8007    0.0000 O   0  0  0  0  0  0  0  0  0  0  0  0
   12.9587  -11.3874    0.0000 H   0  0  0  0  0  0  0  0  0  0  0  0
    5.8099  -13.0031    0.0000 C   0  0  0  0  0  0  0  0  0  0  0  0
    7.2383  -13.0143    0.0000 O   0  0  0  0  0  0  0  0  0  0  0  0
    6.5209  -13.4210    0.0000 C   0  0  2  0  0  0  0  0  0  0  0  0
    5.7969  -14.6525    0.0000 O   0  0  0  0  0  0  0  0  0  0  0  0
    6.5144  -14.2458    0.0000 C   0  0  2  0  0  0  0  0  0  0  0  0
    7.2189  -15.4885    0.0000 O   0  0  0  0  0  0  0  0  0  0  0  0
    7.2253  -14.6637    0.0000 C   0  0  1  0  0  0  0  0  0  0  0  0
    8.6538  -14.6750    0.0000 O   0  0  0  0  0  0  0  0  0  0  0  0
    7.9428  -14.2570    0.0000 C   0  0  1  0  0  0  0  0  0  0  0  0
    7.9493  -13.4323    0.0000 C   0  0  2  0  0  0  0  0  0  0  0  0
    7.2314   -7.2413    0.0000 O   0  0  0  0  0  0  0  0  0  0  0  0
    9.3973  -10.9694    0.0000 O   0  0  0  0  0  0  0  0  0  0  0  0
    8.6863  -10.5514    0.0000 C   0  0  0  0  0  0  0  0  0  0  0  0
    7.9688  -10.9582    0.0000 C   0  0  1  0  0  0  0  0  0  0  0  0
    7.2448  -12.1896    0.0000 O   0  0  0  0  0  0  0  0  0  0  0  0
    7.9623  -11.7829    0.0000 C   0  0  2  0  0  0  0  0  0  0  0  0
    8.6668  -13.0256    0.0000 O   0  0  0  0  0  0  0  0  0  0  0  0
    8.6733  -12.2009    0.0000 C   0  0  1  0  0  0  0  0  0  0  0  0
    9.3908  -11.7941    0.0000 C   0  0  2  0  0  0  0  0  0  0  0  0
   10.1017  -12.2121    0.0000 O   0  0  0  0  0  0  0  0  0  0  0  0
   19.2057  -18.7027    0.0000 C   0  0  0  0  0  0  0  0  0  0  0  0
   19.2582  -17.2752    0.0000 O   0  0  0  0  0  0  0  0  0  0  0  0
   19.6440  -18.0041    0.0000 C   0  0  2  0  0  0  0  0  0  0  0  0
   20.8541  -18.7633    0.0000 O   0  0  0  0  0  0  0  0  0  0  0  0
   20.4682  -18.0344    0.0000 C   0  0  2  0  0  0  0  0  0  0  0  0
   21.7307  -17.3661    0.0000 O   0  0  0  0  0  0  0  0  0  0  0  0
   20.9066  -17.3358    0.0000 C   0  0  1  0  0  0  0  0  0  0  0  0
   20.9591  -15.9083    0.0000 O   0  0  0  0  0  0  0  0  0  0  0  0
   20.5207  -16.6069    0.0000 C   0  0  1  0  0  0  0  0  0  0  0  0
   19.6965  -16.5766    0.0000 C   0  0  2  0  0  0  0  0  0  0  0  0
   19.3107  -15.8477    0.0000 O   0  0  0  0  0  0  0  0  0  0  0  0
   18.7058  -12.1366    0.0000 C   0  0  0  0  0  0  0  0  0  0  0  0
   17.9941  -10.8980    0.0000 O   0  0  0  0  0  0  0  0  0  0  0  0
   18.7075  -11.3119    0.0000 C   0  0  1  0  0  0  0  0  0  0  0  0
   20.1360  -11.3149    0.0000 O   0  0  0  0  0  0  0  0  0  0  0  0
   19.4226  -10.9010    0.0000 C   0  0  1  0  0  0  0  0  0  0  0  0
   20.1395   -9.6654    0.0000 O   0  0  0  0  0  0  0  0  0  0  0  0
   19.4244  -10.0763    0.0000 C   0  0  2  0  0  0  0  0  0  0  0  0
   18.7127   -8.8377    0.0000 O   0  0  0  0  0  0  0  0  0  0  0  0
   18.7110   -9.6624    0.0000 C   0  0  1  0  0  0  0  0  0  0  0  0
   17.9959  -10.0733    0.0000 C   0  0  2  0  0  0  0  0  0  0  0  0
   17.2825   -9.6594    0.0000 O   0  0  0  0  0  0  0  0  0  0  0  0
   16.5299   -9.3255    0.0000 C   0  0  0  0  0  0  0  0  0  0  0  0
   16.5299   -8.5008    0.0000 C   0  0  0  0  0  0  0  0  0  0  0  0
   15.8157   -8.0884    0.0000 C   0  0  0  0  0  0  0  0  0  0  0  0
   15.1015   -8.5008    0.0000 C   0  0  0  0  0  0  0  0  0  0  0  0
   15.4197   -7.4026    0.0000 C   0  0  0  0  0  0  0  0  0  0  0  0
   16.1866   -7.4461    0.0000 C   0  0  0  0  0  0  0  0  0  0  0  0
    6.5014  -15.8952    0.0000 C   0  0  2  0  0  0  0  0  0  0  0  0
    5.7935  -15.4715    0.0000 O   0  0  0  0  0  0  0  0  0  0  0  0
    5.0726  -15.8952    0.0000 C   0  0  1  0  0  0  0  0  0  0  0  0
    5.0726  -16.7201    0.0000 C   0  0  2  0  0  0  0  0  0  0  0  0
    5.7935  -17.1438    0.0000 C   0  0  1  0  0  0  0  0  0  0  0  0
    6.5014  -16.7201    0.0000 C   0  0  1  0  0  0  0  0  0  0  0  0
    4.3468  -15.4799    0.0000 C   0  0  0  0  0  0  0  0  0  0  0  0
    5.7968  -17.9800    0.0000 O   0  0  0  0  0  0  0  0  0  0  0  0
    7.2191  -17.1269    0.0000 O   0  0  0  0  0  0  0  0  0  0  0  0
    4.3468  -17.1354    0.0000 O   0  0  0  0  0  0  0  0  0  0  0  0
    3.6243  -15.9008    0.0000 O   0  0  0  0  0  0  0  0  0  0  0  0
   11.5302  -13.6406    0.0000 O   0  0  0  0  0  0  0  0  0  0  0  0
 91 92  1  1  0  0  0
 69 70  1  1  0  0  0
 60 67  1  1  0  0  0
 60 52  1  0  0  0  0
 53 51  1  6  0  0  0
 53 52  1  0  0  0  0
 55 53  1  0  0  0  0
 55 54  1  1  0  0  0
 57 55  1  0  0  0  0
 57 56  1  6  0  0  0
 59 57  1  0  0  0  0
 59 58  1  6  0  0  0
 60 59  1  0  0  0  0
 29 30  1  0  0  0  0
 69 62  1  0  0  0  0
 63 62  1  0  0  0  0
 64 63  1  0  0  0  0
 64 28  1  1  0  0  0
 66 64  1  0  0  0  0
 66 65  1  1  0  0  0
 80 81  1  1  0  0  0
 80 72  1  0  0  0  0
 73 71  1  6  0  0  0
 73 72  1  0  0  0  0
 75 73  1  0  0  0  0
 75 74  1  1  0  0  0
 77 75  1  0  0  0  0
 77 76  1  6  0  0  0
 79 77  1  0  0  0  0
 79 78  1  6  0  0  0
 80 79  1  0  0  0  0
 40 41  1  0  0  0  0
 91 83  1  0  0  0  0
 82 39  1  0  0  0  0
 84 82  1  1  0  0  0
 84 83  1  0  0  0  0
 86 84  1  0  0  0  0
 86 85  1  6  0  0  0
 88 86  1  0  0  0  0
 88 87  1  1  0  0  0
 90 88  1  0  0  0  0
  1  2  1  0  0  0  0
  2  3  1  0  0  0  0
  1  4  1  0  0  0  0
  4  5  1  6  0  0  0
  4  6  1  1  0  0  0
  4  7  1  0  0  0  0
  7  8  1  6  0  0  0
  7  9  1  0  0  0  0
  9 10  1  0  0  0  0
 10 11  1  0  0  0  0
 11 12  1  1  0  0  0
 11 13  1  0  0  0  0
 13 14  1  6  0  0  0
 13 15  1  0  0  0  0
 15 16  1  0  0  0  0
 16 17  1  0  0  0  0
 17 18  1  1  0  0  0
 19 20  1  1  0  0  0
 17 19  1  0  0  0  0
 19 21  1  0  0  0  0
 13 21  1  0  0  0  0
 21 22  2  0  0  0  0
 22 23  1  0  0  0  0
 23 24  1  0  0  0  0
 11 24  1  0  0  0  0
 24 25  1  0  0  0  0
  3 25  1  0  0  0  0
  7 25  1  0  0  0  0
 25 26  1  1  0  0  0
 18 27  2  0  0  0  0
 18 92  1  0  0  0  0
 68 66  1  0  0  0  0
 68 67  1  6  0  0  0
 69 68  1  0  0  0  0
 30 31  1  6  0  0  0
 30 32  1  0  0  0  0
 32 33  1  1  0  0  0
 32 34  1  0  0  0  0
 34 61  1  6  0  0  0
 34 35  1  0  0  0  0
 35 36  1  0  0  0  0
 35 37  1  1  0  0  0
 37 38  1  0  0  0  0
 29 36  1  0  0  0  0
 29 28  1  1  0  0  0
  1 70  1  1  0  0  0
 90 89  1  6  0  0  0
 91 90  1  0  0  0  0
 41 42  1  6  0  0  0
 41 43  1  0  0  0  0
 43 44  1  1  0  0  0
 43 45  1  0  0  0  0
 45 81  1  6  0  0  0
 45 46  1  0  0  0  0
 46 47  1  0  0  0  0
 46 48  1  1  0  0  0
 48 49  1  0  0  0  0
 40 47  1  0  0  0  0
 40 39  1  1  0  0  0
 24 50  1  6  0  0  0
 17 93  1  0  0  0  0
 93 94  1  0  0  0  0
 94 95  1  0  0  0  0
 95 96  1  0  0  0  0
 96 19  1  0  0  0  0
 95 97  1  0  0  0  0
 95 98  1  0  0  0  0
 99 56  1  1  0  0  0
 99100  1  0  0  0  0
100101  1  0  0  0  0
101102  1  0  0  0  0
102103  1  0  0  0  0
103104  1  0  0  0  0
104 99  1  0  0  0  0
101105  1  1  0  0  0
103106  1  1  0  0  0
104107  1  6  0  0  0
102108  1  6  0  0  0
105109  1  0  0  0  0
  5110  1  0  0  0  0
M  END
>  <cdx:groupId>
346

>  <cdx:fragmentId>
95

$$$$
