300927.cdx
  Mrv1902 05222410212D          

 64 69  0  0  0  0            999 V2000
    7.8502  -14.6174    0.0000 N   0  3  0  0  0  0  0  0  0  0  0  0
    8.3351  -15.2848    0.0000 C   0  0  1  0  0  0  0  0  0  0  0  0
    7.8502  -15.9523    0.0000 C   0  0  0  0  0  0  0  0  0  0  0  0
    7.0655  -15.6973    0.0000 C   0  0  0  0  0  0  0  0  0  0  0  0
    6.3511  -16.1098    0.0000 C   0  0  0  0  0  0  0  0  0  0  0  0
    5.6366  -15.6973    0.0000 C   0  0  0  0  0  0  0  0  0  0  0  0
    5.6366  -14.8723    0.0000 C   0  0  0  0  0  0  0  0  0  0  0  0
    6.3511  -14.4598    0.0000 C   0  0  0  0  0  0  0  0  0  0  0  0
    7.0655  -14.8723    0.0000 C   0  0  0  0  0  0  0  0  0  0  0  0
    9.1601  -15.2848    0.0000 C   0  0  0  0  0  0  0  0  0  0  0  0
    9.5726  -15.9993    0.0000 O   0  0  0  0  0  0  0  0  0  0  0  0
    9.5726  -14.5703    0.0000 O   0  5  0  0  0  0  0  0  0  0  0  0
    4.9221  -14.4598    0.0000 O   0  0  0  0  0  0  0  0  0  0  0  0
    8.1051  -13.8328    0.0000 C   0  0  0  0  0  0  0  0  0  0  0  0
    8.9121  -13.6612    0.0000 C   0  0  0  0  0  0  0  0  0  0  0  0
    8.8699  -11.4789    0.0000 C   0  0  2  0  0  0  0  0  0  0  0  0
    8.6150  -12.2635    0.0000 C   0  0  0  0  0  0  0  0  0  0  0  0
    9.1670  -12.8766    0.0000 C   0  0  0  0  0  0  0  0  0  0  0  0
    9.9740  -12.7051    0.0000 C   0  0  0  0  0  0  0  0  0  0  0  0
   10.2289  -11.9205    0.0000 C   0  0  0  0  0  0  0  0  0  0  0  0
    9.6769  -11.3074    0.0000 N   0  0  0  0  0  0  0  0  0  0  0  0
   11.0359  -11.7489    0.0000 C   0  0  0  0  0  0  0  0  0  0  0  0
   11.2908  -10.9643    0.0000 O   0  0  0  0  0  0  0  0  0  0  0  0
   11.5879  -12.3620    0.0000 O   0  0  0  0  0  0  0  0  0  0  0  0
    8.3179  -10.8658    0.0000 C   0  0  0  0  0  0  0  0  0  0  0  0
    8.5728  -10.0812    0.0000 O   0  0  0  0  0  0  0  0  0  0  0  0
    7.5109  -11.0373    0.0000 O   0  0  0  0  0  0  0  0  0  0  0  0
    4.9221  -16.1098    0.0000 O   0  0  0  0  0  0  0  0  0  0  0  0
    4.2077  -14.8723    0.0000 O   0  0  0  0  0  0  0  0  0  0  0  0
    4.2077  -15.6973    0.0000 C   0  0  2  0  0  0  0  0  0  0  0  0
    3.4932  -16.1098    0.0000 C   0  0  1  0  0  0  0  0  0  0  0  0
    2.7787  -15.6973    0.0000 C   0  0  2  0  0  0  0  0  0  0  0  0
    2.7787  -14.8723    0.0000 C   0  0  1  0  0  0  0  0  0  0  0  0
    3.4932  -14.4598    0.0000 C   0  0  1  0  0  0  0  0  0  0  0  0
    3.4932  -13.6348    0.0000 C   0  0  0  0  0  0  0  0  0  0  0  0
    2.7787  -13.2223    0.0000 O   0  0  0  0  0  0  0  0  0  0  0  0
    2.0642  -14.4598    0.0000 O   0  0  0  0  0  0  0  0  0  0  0  0
    2.0642  -16.1098    0.0000 O   0  0  0  0  0  0  0  0  0  0  0  0
    3.4932  -16.9348    0.0000 O   0  0  0  0  0  0  0  0  0  0  0  0
    2.0642  -16.9348    0.0000 O   0  0  0  0  0  0  0  0  0  0  0  0
    2.7787  -17.3473    0.0000 C   0  0  2  0  0  0  0  0  0  0  0  0
    2.7787  -18.1723    0.0000 C   0  0  1  0  0  0  0  0  0  0  0  0
    2.0642  -18.5848    0.0000 C   0  0  2  0  0  0  0  0  0  0  0  0
    1.3498  -18.1723    0.0000 C   0  0  1  0  0  0  0  0  0  0  0  0
    1.3498  -17.3473    0.0000 C   0  0  1  0  0  0  0  0  0  0  0  0
    3.4932  -18.5848    0.0000 O   0  0  0  0  0  0  0  0  0  0  0  0
    4.2077  -18.1723    0.0000 C   0  0  0  0  0  0  0  0  0  0  0  0
    4.9221  -18.5848    0.0000 C   0  0  0  0  0  0  0  0  0  0  0  0
    5.6366  -18.1723    0.0000 C   0  0  0  0  0  0  0  0  0  0  0  0
    4.2077  -17.3473    0.0000 O   0  0  0  0  0  0  0  0  0  0  0  0
    6.3511  -18.5848    0.0000 C   0  0  0  0  0  0  0  0  0  0  0  0
    7.0655  -18.1723    0.0000 C   0  0  0  0  0  0  0  0  0  0  0  0
    7.7800  -18.5848    0.0000 C   0  0  0  0  0  0  0  0  0  0  0  0
    7.7800  -19.4098    0.0000 C   0  0  0  0  0  0  0  0  0  0  0  0
    7.0655  -19.8223    0.0000 C   0  0  0  0  0  0  0  0  0  0  0  0
    6.3511  -19.4098    0.0000 C   0  0  0  0  0  0  0  0  0  0  0  0
    8.4945  -18.1723    0.0000 O   0  0  0  0  0  0  0  0  0  0  0  0
    9.2089  -18.5848    0.0000 C   0  0  0  0  0  0  0  0  0  0  0  0
    8.4945  -19.8223    0.0000 O   0  0  0  0  0  0  0  0  0  0  0  0
    0.6353  -18.5848    0.0000 O   0  0  0  0  0  0  0  0  0  0  0  0
    2.0642  -19.4098    0.0000 O   0  0  0  0  0  0  0  0  0  0  0  0
    0.6353  -16.9348    0.0000 C   0  0  0  0  0  0  0  0  0  0  0  0
    0.6353  -16.1098    0.0000 O   0  0  0  0  0  0  0  0  0  0  0  0
   -0.0792  -17.3473    0.0000 O   0  0  0  0  0  0  0  0  0  0  0  0
  1  2  1  0  0  0  0
  2  3  1  0  0  0  0
  3  4  1  0  0  0  0
  4  5  1  0  0  0  0
  5  6  2  0  0  0  0
  6  7  1  0  0  0  0
  7  8  2  0  0  0  0
  8  9  1  0  0  0  0
  1  9  1  0  0  0  0
  4  9  2  0  0  0  0
 10 11  2  0  0  0  0
 10 12  1  0  0  0  0
  2 10  1  6  0  0  0
  7 13  1  0  0  0  0
 14 15  1  0  0  0  0
 16 17  1  0  0  0  0
 17 18  1  0  0  0  0
 18 19  1  0  0  0  0
 19 20  2  0  0  0  0
 20 21  1  0  0  0  0
 16 21  1  0  0  0  0
 22 23  2  0  0  0  0
 22 24  1  0  0  0  0
 20 22  1  0  0  0  0
 25 26  2  0  0  0  0
 25 27  1  0  0  0  0
 16 25  1  1  0  0  0
 15 18  2  0  0  0  0
  1 14  2  0  0  0  0
 29 30  1  0  0  0  0
 30 31  1  0  0  0  0
 31 32  1  0  0  0  0
 32 33  1  0  0  0  0
 33 34  1  0  0  0  0
 29 34  1  0  0  0  0
 35 36  1  0  0  0  0
 34 35  1  1  0  0  0
 33 37  1  6  0  0  0
 32 38  1  1  0  0  0
 40 41  1  0  0  0  0
 41 42  1  0  0  0  0
 42 43  1  0  0  0  0
 43 44  1  0  0  0  0
 44 45  1  0  0  0  0
 40 45  1  0  0  0  0
 47 48  1  0  0  0  0
 48 49  2  0  0  0  0
 47 50  2  0  0  0  0
 51 52  1  0  0  0  0
 52 53  2  0  0  0  0
 53 54  1  0  0  0  0
 54 55  2  0  0  0  0
 55 56  1  0  0  0  0
 51 56  2  0  0  0  0
 57 58  1  0  0  0  0
 53 57  1  0  0  0  0
 54 59  1  0  0  0  0
 49 51  1  0  0  0  0
 46 47  1  0  0  0  0
 42 46  1  6  0  0  0
 44 60  1  6  0  0  0
 43 61  1  1  0  0  0
 62 63  2  0  0  0  0
 62 64  1  0  0  0  0
 45 62  1  1  0  0  0
 41 39  1  1  0  0  0
 31 39  1  6  0  0  0
 30 28  1  1  0  0  0
  6 28  1  0  0  0  0
M  CHG  2   1   1  12  -1
M  END
>  <cdx:fragmentId>
3633

$$$$
