300947.cdx
  Mrv1902 05222410192D          

 24 28  0  0  0  0            999 V2000
    6.9940   -7.2617    0.0000 N   0  0  0  0  0  0  0  0  0  0  0  0
    6.2804   -7.6757    0.0000 C   0  0  0  0  0  0  0  0  0  0  0  0
    5.5651   -7.2647    0.0000 C   0  0  0  0  0  0  0  0  0  0  0  0
    4.8515   -7.6787    0.0000 C   0  0  0  0  0  0  0  0  0  0  0  0
    4.6816   -8.4860    0.0000 O   0  0  0  0  0  0  0  0  0  0  0  0
    3.8613   -8.5740    0.0000 C   0  0  0  0  0  0  0  0  0  0  0  0
    3.5242   -7.8210    0.0000 O   0  0  0  0  0  0  0  0  0  0  0  0
    4.1361   -7.2677    0.0000 C   0  0  0  0  0  0  0  0  0  0  0  0
    4.1344   -6.4427    0.0000 C   0  0  0  0  0  0  0  0  0  0  0  0
    4.8480   -6.0287    0.0000 C   0  0  0  0  0  0  0  0  0  0  0  0
    5.5633   -6.4397    0.0000 C   0  0  0  0  0  0  0  0  0  0  0  0
    6.2769   -6.0257    0.0000 C   0  0  0  0  0  0  0  0  0  0  0  0
    6.9923   -6.4367    0.0000 C   0  0  0  0  0  0  0  0  0  0  0  0
    7.7059   -6.0227    0.0000 C   0  0  0  0  0  0  0  0  0  0  0  0
    7.7042   -5.1977    0.0000 C   0  0  0  0  0  0  0  0  0  0  0  0
    8.4178   -4.7837    0.0000 C   0  0  0  0  0  0  0  0  0  0  0  0
    9.1331   -5.1947    0.0000 C   0  0  0  0  0  0  0  0  0  0  0  0
    9.1348   -6.0197    0.0000 C   0  0  0  0  0  0  0  0  0  0  0  0
    8.4212   -6.4337    0.0000 C   0  0  0  0  0  0  0  0  0  0  0  0
    8.4230   -7.2587    0.0000 C   0  0  0  0  0  0  0  0  0  0  0  0
    7.7093   -7.6727    0.0000 C   0  0  0  0  0  0  0  0  0  0  0  0
    8.4160   -3.9587    0.0000 O   0  0  0  0  0  0  0  0  0  0  0  0
    9.8467   -4.7807    0.0000 O   0  0  0  0  0  0  0  0  0  0  0  0
   10.5620   -5.1917    0.0000 C   0  0  0  0  0  0  0  0  0  0  0  0
  1  2  1  0  0  0  0
  2  3  1  0  0  0  0
  3  4  1  0  0  0  0
  4  5  1  0  0  0  0
  5  6  1  0  0  0  0
  6  7  1  0  0  0  0
  7  8  1  0  0  0  0
  8  9  1  0  0  0  0
  9 10  2  0  0  0  0
 10 11  1  0  0  0  0
 11 12  1  0  0  0  0
 12 13  1  0  0  0  0
 13 14  1  0  0  0  0
 14 15  2  0  0  0  0
 15 16  1  0  0  0  0
 16 17  2  0  0  0  0
 17 18  1  0  0  0  0
 18 19  2  0  0  0  0
 19 20  1  0  0  0  0
 20 21  1  0  0  0  0
  1 21  1  0  0  0  0
  1 13  1  0  0  0  0
  3 11  2  0  0  0  0
  4  8  2  0  0  0  0
 14 19  1  0  0  0  0
 16 22  1  0  0  0  0
 23 24  1  0  0  0  0
 17 23  1  0  0  0  0
M  END
>  <cdx:fragmentId>
6078

$$$$
