300998.cdx
  Mrv1902 05222410262D          

 11 13  0  0  0  0            999 V2000
    5.4512   -7.8478    0.0000 C   0  0  0  0  0  0  0  0  0  0  0  0
    6.1656   -8.2603    0.0000 C   0  0  0  0  0  0  0  0  0  0  0  0
    6.9502   -8.0054    0.0000 C   0  0  0  0  0  0  0  0  0  0  0  0
    7.4352   -8.6728    0.0000 C   0  0  0  0  0  0  0  0  0  0  0  0
    6.9502   -9.3403    0.0000 C   0  0  0  0  0  0  0  0  0  0  0  0
    6.1656   -9.0853    0.0000 C   0  0  0  0  0  0  0  0  0  0  0  0
    5.4512   -9.4978    0.0000 C   0  0  0  0  0  0  0  0  0  0  0  0
    4.7367   -9.0853    0.0000 C   0  0  0  0  0  0  0  0  0  0  0  0
    4.7367   -8.2603    0.0000 C   0  0  0  0  0  0  0  0  0  0  0  0
    5.1156   -8.6732    0.0000 C   0  0  0  0  0  0  0  0  0  0  0  0
    4.0222   -9.4978    0.0000 C   0  0  0  0  0  0  0  0  0  0  0  0
  1  2  1  0  0  0  0
  2  3  1  0  0  0  0
  3  4  1  0  0  0  0
  4  5  1  0  0  0  0
  5  6  1  0  0  0  0
  6  7  1  0  0  0  0
  7  8  1  0  0  0  0
  8  9  1  0  0  0  0
  1  9  1  0  0  0  0
  1 10  1  0  0  0  0
  7 10  1  0  0  0  0
  2  6  1  0  0  0  0
  8 11  1  0  0  0  0
M  END
>  <cdx:fragmentId>
10928

$$$$
