300965.cdx
  Mrv1902 05222410262D          

 36 37  0  0  0  0            999 V2000
    8.3787   -7.9888    0.0000 C   0  0  0  0  0  0  0  0  0  0  0  0
    8.3787   -8.8138    0.0000 C   0  0  2  0  0  0  0  0  0  0  0  0
    9.0931   -9.2263    0.0000 C   0  0  1  0  0  0  0  0  0  0  0  0
    9.8076   -8.8138    0.0000 O   0  0  0  0  0  0  0  0  0  0  0  0
    9.8076   -7.9888    0.0000 C   0  0  0  0  0  0  0  0  0  0  0  0
    9.0931   -7.5762    0.0000 C   0  0  0  0  0  0  0  0  0  0  0  0
    7.5941   -7.7338    0.0000 C   0  0  0  0  0  0  0  0  0  0  0  0
    7.1091   -8.4013    0.0000 C   0  0  1  0  0  0  0  0  0  0  0  0
    7.5941   -9.0687    0.0000 C   0  0  2  0  0  0  0  0  0  0  0  0
    9.0931   -6.7512    0.0000 C   0  0  0  0  0  0  0  0  0  0  0  0
    7.0107   -9.6521    0.0000 C   0  0  0  0  0  0  0  0  0  0  0  0
    6.2138   -9.4385    0.0000 Cl  0  0  0  0  0  0  0  0  0  0  0  0
    6.2841   -8.4013    0.0000 O   0  0  0  0  0  0  0  0  0  0  0  0
    8.3787   -9.6387    0.0000 H   0  0  0  0  0  0  0  0  0  0  0  0
    9.0931  -10.0512    0.0000 O   0  0  0  0  0  0  0  0  0  0  0  0
    7.8076   -9.8656    0.0000 O   0  0  0  0  0  0  0  0  0  0  0  0
    9.8076  -10.4637    0.0000 C   0  0  0  0  0  0  0  0  0  0  0  0
    9.8076  -11.2888    0.0000 C   0  0  0  0  0  0  0  0  0  0  0  0
    5.5705   -7.9874    0.0000 C   0  0  0  0  0  0  0  0  0  0  0  0
    5.5721   -7.1624    0.0000 O   0  0  0  0  0  0  0  0  0  0  0  0
    4.8552   -8.3985    0.0000 C   0  0  0  0  0  0  0  0  0  0  0  0
    4.1415   -7.9846    0.0000 C   0  0  0  0  0  0  0  0  0  0  0  0
    3.4271   -7.5721    0.0000 O   0  0  0  0  0  0  0  0  0  0  0  0
    4.5540   -7.2701    0.0000 C   0  0  0  0  0  0  0  0  0  0  0  0
   10.5221  -10.0512    0.0000 O   0  0  0  0  0  0  0  0  0  0  0  0
   10.5221  -11.7012    0.0000 C   0  0  0  0  0  0  0  0  0  0  0  0
   10.5221  -12.5263    0.0000 C   0  0  0  0  0  0  0  0  0  0  0  0
   11.2366  -11.2888    0.0000 C   0  0  0  0  0  0  0  0  0  0  0  0
    9.8076   -6.3387    0.0000 O   0  0  0  0  0  0  0  0  0  0  0  0
    9.8076   -5.5137    0.0000 C   0  0  0  0  0  0  0  0  0  0  0  0
   10.5221   -5.1012    0.0000 C   0  0  0  0  0  0  0  0  0  0  0  0
    9.0931   -5.1013    0.0000 O   0  0  0  0  0  0  0  0  0  0  0  0
    3.7290   -8.6991    0.0000 C   0  0  0  0  0  0  0  0  0  0  0  0
    2.7126   -7.9846    0.0000 C   0  0  0  0  0  0  0  0  0  0  0  0
    1.9981   -7.5721    0.0000 C   0  0  0  0  0  0  0  0  0  0  0  0
    2.7126   -8.8096    0.0000 O   0  0  0  0  0  0  0  0  0  0  0  0
  1  2  1  0  0  0  0
  2  3  1  0  0  0  0
  3  4  1  0  0  0  0
  4  5  1  0  0  0  0
  5  6  2  0  0  0  0
  6  1  1  0  0  0  0
  1  7  2  0  0  0  0
  7  8  1  0  0  0  0
  8  9  1  0  0  0  0
  9  2  1  0  0  0  0
  6 10  1  0  0  0  0
  9 11  1  0  0  0  0
 11 12  1  0  0  0  0
  8 13  1  1  0  0  0
  2 14  1  1  0  0  0
  3 15  1  1  0  0  0
  9 16  1  6  0  0  0
 15 17  1  0  0  0  0
 17 18  1  0  0  0  0
 13 19  1  0  0  0  0
 19 20  2  0  0  0  0
 19 21  1  0  0  0  0
 21 22  1  0  0  0  0
 22 23  1  0  0  0  0
 22 24  1  0  0  0  0
 17 25  2  0  0  0  0
 18 26  1  0  0  0  0
 26 27  1  0  0  0  0
 26 28  1  0  0  0  0
 10 29  1  0  0  0  0
 29 30  1  0  0  0  0
 30 31  1  0  0  0  0
 30 32  2  0  0  0  0
 22 33  1  0  0  0  0
 23 34  1  0  0  0  0
 34 35  1  0  0  0  0
 34 36  2  0  0  0  0
M  END
>  <cdx:fragmentId>
5

$$$$
