300990.cdx
  Mrv1902 05222410192D          

 20 21  0  0  0  0            999 V2000
    3.4105   -6.3525    0.0000 C   0  0  0  0  0  0  0  0  0  0  0  0
    3.4105   -7.1775    0.0000 C   0  0  0  0  0  0  0  0  0  0  0  0
    4.1250   -7.5900    0.0000 C   0  0  0  0  0  0  0  0  0  0  0  0
    4.8395   -7.1775    0.0000 C   0  0  0  0  0  0  0  0  0  0  0  0
    4.8395   -6.3525    0.0000 C   0  0  0  0  0  0  0  0  0  0  0  0
    4.1250   -5.9400    0.0000 C   0  0  0  0  0  0  0  0  0  0  0  0
    5.5539   -5.9400    0.0000 C   0  0  0  0  0  0  0  0  0  0  0  0
    6.2684   -6.3525    0.0000 C   0  0  0  0  0  0  0  0  0  0  0  0
    6.9829   -5.9400    0.0000 C   0  0  0  0  0  0  0  0  0  0  0  0
    7.6974   -6.3525    0.0000 O   0  0  0  0  0  0  0  0  0  0  0  0
    6.9829   -5.1150    0.0000 O   0  0  0  0  0  0  0  0  0  0  0  0
    8.4118   -5.9400    0.0000 C   0  0  0  0  0  0  0  0  0  0  0  0
    9.1263   -6.3525    0.0000 C   0  0  0  0  0  0  0  0  0  0  0  0
    9.8408   -5.9400    0.0000 C   0  0  0  0  0  0  0  0  0  0  0  0
   10.5552   -6.3525    0.0000 C   0  0  0  0  0  0  0  0  0  0  0  0
   10.5552   -7.1775    0.0000 C   0  0  0  0  0  0  0  0  0  0  0  0
   11.2697   -7.5900    0.0000 C   0  0  0  0  0  0  0  0  0  0  0  0
   11.9842   -7.1775    0.0000 C   0  0  0  0  0  0  0  0  0  0  0  0
   11.9842   -6.3525    0.0000 C   0  0  0  0  0  0  0  0  0  0  0  0
   11.2697   -5.9400    0.0000 C   0  0  0  0  0  0  0  0  0  0  0  0
  1  2  2  0  0  0  0
  2  3  1  0  0  0  0
  3  4  2  0  0  0  0
  4  5  1  0  0  0  0
  5  6  2  0  0  0  0
  6  1  1  0  0  0  0
  5  7  1  0  0  0  0
  7  8  2  0  0  0  0
  8  9  1  0  0  0  0
  9 10  1  0  0  0  0
  9 11  2  0  0  0  0
 10 12  1  0  0  0  0
 12 13  1  0  0  0  0
 13 14  2  0  0  0  0
 14 15  1  0  0  0  0
 15 16  2  0  0  0  0
 16 17  1  0  0  0  0
 17 18  2  0  0  0  0
 18 19  1  0  0  0  0
 19 20  2  0  0  0  0
 20 15  1  0  0  0  0
M  END
>  <cdx:fragmentId>
10681

$$$$
