300900.cdx
  Mrv1902 05222410252D          

 34 38  0  0  0  0            999 V2000
    5.7761   -6.3909    0.0000 C   0  0  1  0  0  0  0  0  0  0  0  0
    6.2611   -5.7234    0.0000 C   0  0  0  0  0  0  0  0  0  0  0  0
    5.7761   -5.0560    0.0000 C   0  0  0  0  0  0  0  0  0  0  0  0
    4.9915   -5.3109    0.0000 N   0  0  0  0  0  0  0  0  0  0  0  0
    4.2771   -4.8984    0.0000 C   0  0  0  0  0  0  0  0  0  0  0  0
    3.5626   -5.3109    0.0000 C   0  0  2  0  0  0  0  0  0  0  0  0
    3.5626   -6.1359    0.0000 C   0  0  2  0  0  0  0  0  0  0  0  0
    4.2771   -6.5484    0.0000 C   0  0  0  0  0  0  0  0  0  0  0  0
    4.9915   -6.1359    0.0000 C   0  0  1  0  0  0  0  0  0  0  0  0
    2.8481   -4.8984    0.0000 C   0  0  1  0  0  0  0  0  0  0  0  0
    2.8481   -6.5484    0.0000 C   0  0  0  0  0  0  0  0  0  0  0  0
    2.1336   -6.1359    0.0000 C   0  0  0  0  0  0  0  0  0  0  0  0
    2.1336   -5.3109    0.0000 O   0  0  0  0  0  0  0  0  0  0  0  0
    6.4436   -7.5469    0.0000 N   0  0  0  0  0  0  0  0  0  0  0  0
    5.6899   -7.2114    0.0000 C   0  0  0  0  0  0  0  0  0  0  0  0
    6.5831   -6.2193    0.0000 C   0  0  0  0  0  0  0  0  0  0  0  0
    6.9956   -5.5049    0.0000 C   0  0  0  0  0  0  0  0  0  0  0  0
    7.8206   -5.5049    0.0000 C   0  0  0  0  0  0  0  0  0  0  0  0
    8.2331   -6.2193    0.0000 C   0  0  0  0  0  0  0  0  0  0  0  0
    7.8206   -6.9338    0.0000 C   0  0  0  0  0  0  0  0  0  0  0  0
    6.9956   -6.9338    0.0000 C   0  0  0  0  0  0  0  0  0  0  0  0
    2.8481   -7.3734    0.0000 C   0  0  0  0  0  0  0  0  0  0  0  0
    3.5626   -7.7859    0.0000 O   0  0  0  0  0  0  0  0  0  0  0  0
    2.1336   -7.7859    0.0000 O   0  0  0  0  0  0  0  0  0  0  0  0
    4.9754   -7.6239    0.0000 O   0  0  0  0  0  0  0  0  0  0  0  0
    2.8481   -4.0734    0.0000 C   0  0  0  0  0  0  0  0  0  0  0  0
    9.0581   -6.2193    0.0000 O   0  0  0  0  0  0  0  0  0  0  0  0
    9.4706   -5.5049    0.0000 C   0  0  0  0  0  0  0  0  0  0  0  0
    8.2331   -4.7904    0.0000 O   0  0  0  0  0  0  0  0  0  0  0  0
    9.0581   -4.7904    0.0000 C   0  0  0  0  0  0  0  0  0  0  0  0
    3.5626   -6.9609    0.0000 H   0  0  0  0  0  0  0  0  0  0  0  0
    5.0778   -6.9564    0.0000 H   0  0  0  0  0  0  0  0  0  0  0  0
    3.5626   -4.4859    0.0000 H   0  0  0  0  0  0  0  0  0  0  0  0
    2.1336   -8.6109    0.0000 C   0  0  0  0  0  0  0  0  0  0  0  0
  1  2  1  0  0  0  0
  2  3  1  0  0  0  0
  3  4  1  0  0  0  0
  4  5  1  0  0  0  0
  5  6  1  0  0  0  0
  6  7  1  0  0  0  0
  7  8  1  0  0  0  0
  8  9  1  0  0  0  0
  1  9  1  0  0  0  0
  4  9  1  0  0  0  0
 11 12  2  0  0  0  0
 12 13  1  0  0  0  0
 10 13  1  0  0  0  0
  6 10  1  0  0  0  0
  7 11  1  0  0  0  0
 14 15  1  0  0  0  0
 16 17  1  0  0  0  0
 17 18  2  0  0  0  0
 18 19  1  0  0  0  0
 19 20  2  0  0  0  0
 20 21  1  0  0  0  0
 14 21  1  0  0  0  0
 16 21  2  0  0  0  0
  1 15  1  6  0  0  0
  1 16  1  1  0  0  0
 22 23  2  0  0  0  0
 22 24  1  0  0  0  0
 11 22  1  0  0  0  0
 15 25  2  0  0  0  0
 10 26  1  1  0  0  0
 27 28  1  0  0  0  0
 19 27  1  0  0  0  0
 29 30  1  0  0  0  0
 18 29  1  0  0  0  0
  7 31  1  1  0  0  0
  9 32  1  1  0  0  0
  6 33  1  1  0  0  0
 24 34  1  0  0  0  0
M  END
>  <cdx:fragmentId>
147

$$$$
