300994.cdx
  Mrv1902 05222410192D          

 13 13  0  0  0  0            999 V2000
    8.5882   -8.5174    0.0000 C   0  0  0  0  0  0  0  0  0  0  0  0
    7.8738   -8.1048    0.0000 C   0  0  0  0  0  0  0  0  0  0  0  0
    7.1593   -8.5172    0.0000 C   0  0  0  0  0  0  0  0  0  0  0  0
    8.5881   -9.3424    0.0000 O   0  0  0  0  0  0  0  0  0  0  0  0
    9.3028   -8.1050    0.0000 O   0  0  0  0  0  0  0  0  0  0  0  0
    7.1592   -9.3422    0.0000 C   0  0  0  0  0  0  0  0  0  0  0  0
    6.4446   -9.7545    0.0000 C   0  0  0  0  0  0  0  0  0  0  0  0
    6.4445  -10.5795    0.0000 C   0  0  0  0  0  0  0  0  0  0  0  0
    7.1589  -10.9922    0.0000 C   0  0  0  0  0  0  0  0  0  0  0  0
    7.8734  -10.5798    0.0000 C   0  0  0  0  0  0  0  0  0  0  0  0
    7.8736   -9.7548    0.0000 C   0  0  0  0  0  0  0  0  0  0  0  0
    5.7302   -9.3419    0.0000 O   0  0  0  0  0  0  0  0  0  0  0  0
    5.0157   -9.7543    0.0000 C   0  0  0  0  0  0  0  0  0  0  0  0
  1  2  1  0  0  0  0
  2  3  2  0  0  0  0
  1  4  2  0  0  0  0
  1  5  1  0  0  0  0
  6  7  1  0  0  0  0
  7  8  2  0  0  0  0
  8  9  1  0  0  0  0
  9 10  2  0  0  0  0
 10 11  1  0  0  0  0
  6 11  2  0  0  0  0
 12 13  1  0  0  0  0
  7 12  1  0  0  0  0
  3  6  1  0  0  0  0
M  END
>  <cdx:fragmentId>
10764

$$$$
