30093.cdx
  Mrv1902 05222410192D          

 22 24  0  0  0  0            999 V2000
    5.0581   -8.9226    0.0000 O   0  0  0  0  0  0  0  0  0  0  0  0
    5.7725  -10.1601    0.0000 C   0  0  0  0  0  0  0  0  0  0  0  0
    6.4870   -9.7476    0.0000 O   0  0  0  0  0  0  0  0  0  0  0  0
    6.4870   -8.9226    0.0000 C   0  0  0  0  0  0  0  0  0  0  0  0
    5.7725   -8.5101    0.0000 C   0  0  0  0  0  0  0  0  0  0  0  0
    5.7725   -7.6851    0.0000 C   0  0  0  0  0  0  0  0  0  0  0  0
    5.0581   -7.2726    0.0000 O   0  0  0  0  0  0  0  0  0  0  0  0
    4.3436   -7.6851    0.0000 C   0  0  0  0  0  0  0  0  0  0  0  0
    7.2015   -8.5101    0.0000 C   0  0  0  0  0  0  0  0  0  0  0  0
    7.2015   -7.6851    0.0000 C   0  0  0  0  0  0  0  0  0  0  0  0
    6.4870   -7.2726    0.0000 C   0  0  0  0  0  0  0  0  0  0  0  0
    7.9159   -7.2726    0.0000 C   0  0  2  0  0  0  0  0  0  0  0  0
    8.6696   -7.6082    0.0000 O   0  0  0  0  0  0  0  0  0  0  0  0
    9.2216   -6.9951    0.0000 C   0  0  0  0  0  0  0  0  0  0  0  0
    8.8091   -6.2806    0.0000 C   0  0  2  0  0  0  0  0  0  0  0  0
    8.0022   -6.4522    0.0000 C   0  0  1  0  0  0  0  0  0  0  0  0
    8.8954   -5.4602    0.0000 C   0  0  0  0  0  0  0  0  0  0  0  0
    8.1417   -5.1246    0.0000 O   0  0  0  0  0  0  0  0  0  0  0  0
    7.5897   -5.7377    0.0000 C   0  0  0  0  0  0  0  0  0  0  0  0
    9.6099   -5.0477    0.0000 O   0  0  0  0  0  0  0  0  0  0  0  0
    7.2053   -6.6657    0.0000 H   0  0  0  0  0  0  0  0  0  0  0  0
    9.6060   -6.0671    0.0000 H   0  0  0  0  0  0  0  0  0  0  0  0
  2  3  1  0  0  0  0
  3  4  1  0  0  0  0
  4  5  1  0  0  0  0
  5  1  1  0  0  0  0
  5  6  2  0  0  0  0
  6  7  1  0  0  0  0
  7  8  1  0  0  0  0
  4  9  2  0  0  0  0
  9 10  1  0  0  0  0
 10 11  2  0  0  0  0
 11  6  1  0  0  0  0
 12 10  1  1  0  0  0
 12 13  1  0  0  0  0
 13 14  1  0  0  0  0
 14 15  1  0  0  0  0
 15 16  1  0  0  0  0
 16 12  1  0  0  0  0
 15 17  1  0  0  0  0
 17 18  1  0  0  0  0
 18 19  1  0  0  0  0
 19 16  1  0  0  0  0
 17 20  2  0  0  0  0
 16 21  1  1  0  0  0
 15 22  1  1  0  0  0
M  END
>  <cdx:fragmentId>
5

$$$$
