300930.cdx
  Mrv1902 05222410212D          

 26 28  0  0  0  0            999 V2000
    8.1466   -5.7530    0.0000 C   0  0  0  0  0  0  0  0  0  0  0  0
    8.1466   -6.5780    0.0000 C   0  0  0  0  0  0  0  0  0  0  0  0
    7.4321   -6.9905    0.0000 C   0  0  0  0  0  0  0  0  0  0  0  0
    6.7177   -6.5780    0.0000 C   0  0  0  0  0  0  0  0  0  0  0  0
    6.0032   -6.9905    0.0000 C   0  0  0  0  0  0  0  0  0  0  0  0
    5.2887   -6.5780    0.0000 C   0  0  0  0  0  0  0  0  0  0  0  0
    5.2887   -5.7530    0.0000 C   0  0  0  0  0  0  0  0  0  0  0  0
    6.0032   -5.3405    0.0000 C   0  0  0  0  0  0  0  0  0  0  0  0
    6.7177   -5.7530    0.0000 C   0  0  0  0  0  0  0  0  0  0  0  0
    7.4321   -5.3405    0.0000 O   0  0  0  0  0  0  0  0  0  0  0  0
    7.4321   -7.8155    0.0000 O   0  0  0  0  0  0  0  0  0  0  0  0
    4.5743   -6.9905    0.0000 O   0  0  0  0  0  0  0  0  0  0  0  0
    3.8598   -6.5780    0.0000 C   0  0  0  0  0  0  0  0  0  0  0  0
    8.8611   -6.9905    0.0000 O   0  0  0  0  0  0  0  0  0  0  0  0
    9.5756   -6.5780    0.0000 C   0  0  0  0  0  0  0  0  0  0  0  0
    8.8611   -5.3405    0.0000 C   0  0  0  0  0  0  0  0  0  0  0  0
    9.5756   -5.7530    0.0000 C   0  0  0  0  0  0  0  0  0  0  0  0
   10.2900   -5.3405    0.0000 C   0  0  0  0  0  0  0  0  0  0  0  0
   10.2900   -4.5155    0.0000 C   0  0  0  0  0  0  0  0  0  0  0  0
    9.5756   -4.1030    0.0000 C   0  0  0  0  0  0  0  0  0  0  0  0
    8.8611   -4.5155    0.0000 C   0  0  0  0  0  0  0  0  0  0  0  0
   11.0045   -4.1030    0.0000 O   0  0  0  0  0  0  0  0  0  0  0  0
   11.7190   -4.5155    0.0000 C   0  0  0  0  0  0  0  0  0  0  0  0
   11.0045   -5.7530    0.0000 O   0  0  0  0  0  0  0  0  0  0  0  0
    4.5743   -5.3405    0.0000 O   0  0  0  0  0  0  0  0  0  0  0  0
    6.0032   -7.8155    0.0000 O   0  0  0  0  0  0  0  0  0  0  0  0
  1  2  2  0  0  0  0
  2  3  1  0  0  0  0
  3  4  1  0  0  0  0
  4  5  1  0  0  0  0
  5  6  2  0  0  0  0
  6  7  1  0  0  0  0
  7  8  2  0  0  0  0
  8  9  1  0  0  0  0
  4  9  2  0  0  0  0
  9 10  1  0  0  0  0
  1 10  1  0  0  0  0
  3 11  2  0  0  0  0
 12 13  1  0  0  0  0
  6 12  1  0  0  0  0
 14 15  1  0  0  0  0
  2 14  1  0  0  0  0
 16 17  1  0  0  0  0
 17 18  2  0  0  0  0
 18 19  1  0  0  0  0
 19 20  2  0  0  0  0
 20 21  1  0  0  0  0
 16 21  2  0  0  0  0
 22 23  1  0  0  0  0
 19 22  1  0  0  0  0
 18 24  1  0  0  0  0
  1 16  1  0  0  0  0
  7 25  1  0  0  0  0
  5 26  1  0  0  0  0
M  END
>  <cdx:fragmentId>
4011

$$$$
