300937.cdx
  Mrv1902 05222410222D          

 82 93  0  0  0  0            999 V2000
    8.4131  -11.6463    0.0000 C   0  0  0  0  0  0  0  0  0  0  0  0
    8.4131  -12.4712    0.0000 C   0  0  1  0  0  0  0  0  0  0  0  0
    9.1275  -12.8837    0.0000 C   0  0  1  0  0  0  0  0  0  0  0  0
    9.8420  -12.4712    0.0000 C   0  0  1  0  0  0  0  0  0  0  0  0
    9.8420  -11.6463    0.0000 C   0  0  2  0  0  0  0  0  0  0  0  0
    9.1275  -11.2338    0.0000 C   0  0  0  0  0  0  0  0  0  0  0  0
   10.5565  -12.8837    0.0000 C   0  0  0  0  0  0  0  0  0  0  0  0
   11.2709  -12.4712    0.0000 C   0  0  0  0  0  0  0  0  0  0  0  0
   11.2709  -11.6463    0.0000 C   0  0  2  0  0  0  0  0  0  0  0  0
   10.5565  -11.2338    0.0000 C   0  0  1  0  0  0  0  0  0  0  0  0
   11.9854  -11.2338    0.0000 C   0  0  2  0  0  0  0  0  0  0  0  0
   11.9854  -10.4087    0.0000 C   0  0  1  0  0  0  0  0  0  0  0  0
   11.2709   -9.9962    0.0000 C   0  0  0  0  0  0  0  0  0  0  0  0
   10.5565  -10.4087    0.0000 C   0  0  0  0  0  0  0  0  0  0  0  0
    7.6986  -12.8837    0.0000 O   0  0  0  0  0  0  0  0  0  0  0  0
    6.9875  -12.4655    0.0000 C   0  0  1  0  0  0  0  0  0  0  0  0
    6.2697  -12.8722    0.0000 C   0  0  1  0  0  0  0  0  0  0  0  0
    6.9941  -11.6405    0.0000 O   0  0  0  0  0  0  0  0  0  0  0  0
    6.2830  -11.2223    0.0000 C   0  0  0  0  0  0  0  0  0  0  0  0
    5.5652  -11.6290    0.0000 C   0  0  2  0  0  0  0  0  0  0  0  0
    5.5586  -12.4540    0.0000 C   0  0  2  0  0  0  0  0  0  0  0  0
    9.8420  -10.8212    0.0000 C   0  0  0  0  0  0  0  0  0  0  0  0
    8.7150  -13.5982    0.0000 C   0  0  0  0  0  0  0  0  0  0  0  0
   11.9854   -9.5838    0.0000 C   0  0  0  0  0  0  0  0  0  0  0  0
    4.8408  -12.8607    0.0000 O   0  0  0  0  0  0  0  0  0  0  0  0
    6.2630  -13.6972    0.0000 O   0  0  0  0  0  0  0  0  0  0  0  0
    4.8541  -11.2108    0.0000 O   0  0  0  0  0  0  0  0  0  0  0  0
    9.5400  -13.5982    0.0000 C   0  0  0  0  0  0  0  0  0  0  0  0
   11.9854  -12.0587    0.0000 C   0  0  0  0  0  0  0  0  0  0  0  0
    9.8420  -13.2962    0.0000 H   0  0  0  0  0  0  0  0  0  0  0  0
   12.7700  -11.4887    0.0000 C   0  0  0  0  0  0  0  0  0  0  0  0
   13.2550  -10.8212    0.0000 C   0  0  1  0  0  0  0  0  0  0  0  0
   12.7700  -10.1538    0.0000 C   0  0  2  0  0  0  0  0  0  0  0  0
   14.0754  -10.7350    0.0000 O   0  0  0  0  0  0  0  0  0  0  0  0
   14.4110   -9.9813    0.0000 C   0  0  1  0  0  0  0  0  0  0  0  0
   13.9261   -9.3139    0.0000 C   0  0  1  0  0  0  0  0  0  0  0  0
   13.1056   -9.4001    0.0000 C   0  0  1  0  0  0  0  0  0  0  0  0
   13.6675  -11.5357    0.0000 H   0  0  0  0  0  0  0  0  0  0  0  0
   12.6207   -8.7327    0.0000 C   0  0  0  0  0  0  0  0  0  0  0  0
   12.3575   -9.4393    0.0000 H   0  0  0  0  0  0  0  0  0  0  0  0
   18.5330  -12.8454    0.0000 C   0  0  0  0  0  0  0  0  0  0  0  0
   19.3580  -12.8419    0.0000 C   0  0  0  0  0  0  0  0  0  0  0  0
   19.7735  -13.5546    0.0000 O   0  0  0  0  0  0  0  0  0  0  0  0
   20.5985  -13.5512    0.0000 C   0  0  0  0  0  0  0  0  0  0  0  0
   21.0079  -12.8350    0.0000 C   0  0  0  0  0  0  0  0  0  0  0  0
   20.5924  -12.1222    0.0000 C   0  0  0  0  0  0  0  0  0  0  0  0
   19.7675  -12.1257    0.0000 C   0  0  0  0  0  0  0  0  0  0  0  0
   21.0019  -11.4060    0.0000 O   0  0  0  0  0  0  0  0  0  0  0  0
   21.0140  -14.2639    0.0000 C   0  0  0  0  0  0  0  0  0  0  0  0
   21.8389  -14.2604    0.0000 C   0  0  0  0  0  0  0  0  0  0  0  0
   22.2484  -13.5442    0.0000 C   0  0  0  0  0  0  0  0  0  0  0  0
   21.8329  -12.8315    0.0000 C   0  0  0  0  0  0  0  0  0  0  0  0
   22.3936  -14.8712    0.0000 O   0  0  0  0  0  0  0  0  0  0  0  0
   23.1458  -14.5325    0.0000 C   0  0  1  0  0  0  0  0  0  0  0  0
   23.0561  -13.7124    0.0000 C   0  0  0  0  0  0  0  0  0  0  0  0
   22.2424  -12.1153    0.0000 O   0  0  0  0  0  0  0  0  0  0  0  0
   21.8269  -11.4026    0.0000 C   0  0  0  0  0  0  0  0  0  0  0  0
   23.8620  -14.9420    0.0000 C   0  0  0  0  0  0  0  0  0  0  0  0
   24.2715  -14.2258    0.0000 C   0  0  0  0  0  0  0  0  0  0  0  0
   23.4525  -15.6582    0.0000 C   0  0  0  0  0  0  0  0  0  0  0  0
   24.5782  -15.3515    0.0000 O   0  0  0  0  0  0  0  0  0  0  0  0
   23.1493  -15.3575    0.0000 H   0  0  0  0  0  0  0  0  0  0  0  0
   11.2709  -10.8212    0.0000 H   0  0  0  0  0  0  0  0  0  0  0  0
   15.1956   -9.7264    0.0000 C   0  0  1  0  0  0  0  0  0  0  0  0
   15.1956   -8.9014    0.0000 C   0  0  1  0  0  0  0  0  0  0  0  0
   14.4110   -8.6465    0.0000 O   0  0  0  0  0  0  0  0  0  0  0  0
   13.5136   -8.5994    0.0000 H   0  0  0  0  0  0  0  0  0  0  0  0
   15.8631   -8.4165    0.0000 C   0  0  0  0  0  0  0  0  0  0  0  0
   15.1956   -8.0764    0.0000 C   0  0  0  0  0  0  0  0  0  0  0  0
   15.8631  -10.2113    0.0000 O   0  0  0  0  0  0  0  0  0  0  0  0
   14.8235  -10.6958    0.0000 O   0  0  0  0  0  0  0  0  0  0  0  0
   15.6485  -10.6958    0.0000 C   0  0  0  0  0  0  0  0  0  0  0  0
   16.0610  -11.4103    0.0000 C   0  0  2  0  0  0  0  0  0  0  0  0
   15.6485  -12.1248    0.0000 C   0  0  2  0  0  0  0  0  0  0  0  0
   16.0610  -12.8392    0.0000 C   0  0  1  0  0  0  0  0  0  0  0  0
   16.8860  -12.8392    0.0000 C   0  0  2  0  0  0  0  0  0  0  0  0
   17.2985  -12.1248    0.0000 C   0  0  1  0  0  0  0  0  0  0  0  0
   16.8860  -11.4103    0.0000 O   0  0  0  0  0  0  0  0  0  0  0  0
   18.1235  -12.1248    0.0000 O   0  0  0  0  0  0  0  0  0  0  0  0
   15.6485  -13.5537    0.0000 O   0  0  0  0  0  0  0  0  0  0  0  0
   17.2985  -13.5537    0.0000 O   0  0  0  0  0  0  0  0  0  0  0  0
   14.8235  -12.1248    0.0000 O   0  0  0  0  0  0  0  0  0  0  0  0
  1  2  1  0  0  0  0
  2  3  1  0  0  0  0
  3  4  1  0  0  0  0
  4  5  1  0  0  0  0
  5  6  1  0  0  0  0
  6  1  1  0  0  0  0
  4  7  1  0  0  0  0
  7  8  1  0  0  0  0
  8  9  1  0  0  0  0
  9 10  1  0  0  0  0
 10  5  1  0  0  0  0
  9 11  1  0  0  0  0
 11 12  1  0  0  0  0
 12 13  1  0  0  0  0
 13 14  1  0  0  0  0
 14 10  1  0  0  0  0
  2 15  1  1  0  0  0
 16 15  1  1  0  0  0
 16 17  1  0  0  0  0
 16 18  1  0  0  0  0
 18 19  1  0  0  0  0
 19 20  1  0  0  0  0
 20 21  1  0  0  0  0
 21 17  1  0  0  0  0
  5 22  1  1  0  0  0
 10 22  1  1  0  0  0
  3 23  1  1  0  0  0
 12 24  1  1  0  0  0
 21 25  1  1  0  0  0
 17 26  1  6  0  0  0
 20 27  1  6  0  0  0
  3 28  1  6  0  0  0
 11 29  1  6  0  0  0
  4 30  1  6  0  0  0
 11 31  1  0  0  0  0
 31 32  1  0  0  0  0
 32 33  1  0  0  0  0
 33 12  1  0  0  0  0
 32 34  1  0  0  0  0
 34 35  1  0  0  0  0
 35 36  1  0  0  0  0
 36 37  1  0  0  0  0
 37 33  1  0  0  0  0
 32 38  1  6  0  0  0
 37 39  1  6  0  0  0
 33 40  1  6  0  0  0
 41 42  1  0  0  0  0
 42 43  1  0  0  0  0
 43 44  1  0  0  0  0
 44 45  2  0  0  0  0
 45 46  1  0  0  0  0
 46 47  1  0  0  0  0
 47 42  2  0  0  0  0
 46 48  2  0  0  0  0
 44 49  1  0  0  0  0
 49 50  2  0  0  0  0
 50 51  1  0  0  0  0
 51 52  2  0  0  0  0
 52 45  1  0  0  0  0
 50 53  1  0  0  0  0
 53 54  1  0  0  0  0
 54 55  1  0  0  0  0
 55 51  1  0  0  0  0
 52 56  1  0  0  0  0
 56 57  1  0  0  0  0
 54 58  1  0  0  0  0
 58 59  1  0  0  0  0
 58 60  1  0  0  0  0
 58 61  1  0  0  0  0
 54 62  1  6  0  0  0
  9 63  1  1  0  0  0
 35 64  1  0  0  0  0
 64 65  1  0  0  0  0
 65 66  1  0  0  0  0
 66 36  1  0  0  0  0
 36 67  1  6  0  0  0
 65 68  1  1  0  0  0
 65 69  1  6  0  0  0
 64 70  1  1  0  0  0
 35 71  1  6  0  0  0
 71 72  1  0  0  0  0
 73 72  1  1  0  0  0
 73 74  1  0  0  0  0
 74 75  1  0  0  0  0
 75 76  1  0  0  0  0
 76 77  1  0  0  0  0
 77 78  1  0  0  0  0
 78 73  1  0  0  0  0
 77 79  1  1  0  0  0
 75 80  1  1  0  0  0
 76 81  1  6  0  0  0
 74 82  1  6  0  0  0
 41 79  1  0  0  0  0
M  END
>  <cdx:fragmentId>
5

$$$$
