300948.cdx
  Mrv1902 05222410282D          

 27 32  0  0  0  0            999 V2000
    7.4676   -6.6871    0.0000 C   0  0  0  0  0  0  0  0  0  0  0  0
    8.1837   -6.2775    0.0000 C   0  0  0  0  0  0  0  0  0  0  0  0
    8.8965   -6.6929    0.0000 C   0  0  0  0  0  0  0  0  0  0  0  0
    9.6126   -6.2832    0.0000 C   0  0  0  0  0  0  0  0  0  0  0  0
   10.3962   -6.5413    0.0000 O   0  0  0  0  0  0  0  0  0  0  0  0
   10.8838   -5.8758    0.0000 C   0  0  0  0  0  0  0  0  0  0  0  0
   10.4016   -5.2064    0.0000 O   0  0  0  0  0  0  0  0  0  0  0  0
    9.6159   -5.4582    0.0000 C   0  0  0  0  0  0  0  0  0  0  0  0
    8.9031   -5.0429    0.0000 C   0  0  0  0  0  0  0  0  0  0  0  0
    8.1870   -5.4525    0.0000 C   0  0  0  0  0  0  0  0  0  0  0  0
    7.4742   -5.0372    0.0000 C   0  0  0  0  0  0  0  0  0  0  0  0
    6.7581   -5.4468    0.0000 C   0  0  0  0  0  0  0  0  0  0  0  0
    6.7548   -6.2718    0.0000 C   0  0  0  0  0  0  0  0  0  0  0  0
    6.0387   -6.6814    0.0000 C   0  0  0  0  0  0  0  0  0  0  0  0
    5.3259   -6.2661    0.0000 C   0  0  0  0  0  0  0  0  0  0  0  0
    4.6097   -6.6757    0.0000 C   0  0  0  0  0  0  0  0  0  0  0  0
    4.6064   -7.5007    0.0000 C   0  0  0  0  0  0  0  0  0  0  0  0
    3.9911   -8.0503    0.0000 O   0  0  0  0  0  0  0  0  0  0  0  0
    4.3237   -8.8053    0.0000 C   0  0  0  0  0  0  0  0  0  0  0  0
    5.1445   -8.7223    0.0000 O   0  0  0  0  0  0  0  0  0  0  0  0
    5.3192   -7.9160    0.0000 C   0  0  0  0  0  0  0  0  0  0  0  0
    6.0354   -7.5064    0.0000 C   0  0  0  0  0  0  0  0  0  0  0  0
    6.7482   -7.9218    0.0000 C   0  0  0  0  0  0  0  0  0  0  0  0
    7.4643   -7.5121    0.0000 N   0  3  0  0  0  0  0  0  0  0  0  0
    8.1771   -7.9275    0.0000 C   0  0  0  0  0  0  0  0  0  0  0  0
    5.3292   -5.4411    0.0000 O   0  0  0  0  0  0  0  0  0  0  0  0
    4.6163   -5.0257    0.0000 C   0  0  0  0  0  0  0  0  0  0  0  0
  1  2  1  0  0  0  0
  2  3  1  0  0  0  0
  3  4  2  0  0  0  0
  4  5  1  0  0  0  0
  5  6  1  0  0  0  0
  6  7  1  0  0  0  0
  7  8  1  0  0  0  0
  8  9  2  0  0  0  0
  9 10  1  0  0  0  0
 10 11  1  0  0  0  0
 11 12  2  0  0  0  0
 12 13  1  0  0  0  0
 13 14  1  0  0  0  0
 14 15  2  0  0  0  0
 15 16  1  0  0  0  0
 16 17  2  0  0  0  0
 17 18  1  0  0  0  0
 18 19  1  0  0  0  0
 19 20  1  0  0  0  0
 20 21  1  0  0  0  0
 21 22  2  0  0  0  0
 22 23  1  0  0  0  0
 23 24  2  0  0  0  0
  1 24  1  0  0  0  0
  1 13  2  0  0  0  0
  2 10  2  0  0  0  0
  4  8  1  0  0  0  0
 14 22  1  0  0  0  0
 17 21  1  0  0  0  0
 24 25  1  0  0  0  0
 26 27  1  0  0  0  0
 15 26  1  0  0  0  0
M  CHG  1  24   1
M  END
>  <cdx:fragmentId>
6159

$$$$
