300940.cdx
  Mrv1902 05222410202D          

 61 67  0  0  0  0            999 V2000
    7.2187   -5.5438    0.0000 C   0  0  0  0  0  0  0  0  0  0  0  0
    7.9332   -5.1313    0.0000 C   0  0  2  0  0  0  0  0  0  0  0  0
    8.6476   -5.5438    0.0000 C   0  0  0  0  0  0  0  0  0  0  0  0
    8.6476   -6.3688    0.0000 C   0  0  0  0  0  0  0  0  0  0  0  0
    7.9332   -6.7813    0.0000 C   0  0  2  0  0  0  0  0  0  0  0  0
    7.9332   -7.6063    0.0000 C   0  0  0  0  0  0  0  0  0  0  0  0
    7.2187   -8.0188    0.0000 C   0  0  0  0  0  0  0  0  0  0  0  0
    6.5042   -7.6063    0.0000 C   0  0  1  0  0  0  0  0  0  0  0  0
    5.7898   -8.0188    0.0000 C   0  0  2  0  0  0  0  0  0  0  0  0
    5.7898   -8.8438    0.0000 C   0  0  0  0  0  0  0  0  0  0  0  0
    5.0753   -9.2563    0.0000 C   0  0  2  0  0  0  0  0  0  0  0  0
    4.3608   -8.8438    0.0000 C   0  0  1  0  0  0  0  0  0  0  0  0
    3.6463   -9.2563    0.0000 C   0  0  2  0  0  0  0  0  0  0  0  0
    2.9319   -8.8438    0.0000 C   0  0  2  0  0  0  0  0  0  0  0  0
    2.9319   -8.0188    0.0000 C   0  0  1  0  0  0  0  0  0  0  0  0
    3.6463   -7.6063    0.0000 C   0  0  0  0  0  0  0  0  0  0  0  0
    4.3608   -8.0188    0.0000 C   0  0  2  0  0  0  0  0  0  0  0  0
    5.0753   -7.6063    0.0000 C   0  0  1  0  0  0  0  0  0  0  0  0
    5.0753   -6.7813    0.0000 C   0  0  0  0  0  0  0  0  0  0  0  0
    5.7898   -6.3688    0.0000 C   0  0  0  0  0  0  0  0  0  0  0  0
    6.5042   -6.7813    0.0000 C   0  0  0  0  0  0  0  0  0  0  0  0
    7.2187   -6.3688    0.0000 C   0  0  2  0  0  0  0  0  0  0  0  0
    8.6476   -7.1938    0.0000 C   0  0  0  0  0  0  0  0  0  0  0  0
    8.6476   -8.0188    0.0000 O   0  0  0  0  0  0  0  0  0  0  0  0
    4.3608   -7.1938    0.0000 C   0  0  0  0  0  0  0  0  0  0  0  0
    3.2338   -9.9708    0.0000 C   0  0  0  0  0  0  0  0  0  0  0  0
    5.7898   -7.1938    0.0000 C   0  0  0  0  0  0  0  0  0  0  0  0
    6.5042   -8.4313    0.0000 C   0  0  0  0  0  0  0  0  0  0  0  0
    7.5207   -4.4169    0.0000 C   0  0  0  0  0  0  0  0  0  0  0  0
    8.3457   -4.4169    0.0000 C   0  0  0  0  0  0  0  0  0  0  0  0
    4.0588   -9.9708    0.0000 C   0  0  0  0  0  0  0  0  0  0  0  0
    3.6463  -10.6853    0.0000 O   0  0  0  0  0  0  0  0  0  0  0  0
    2.2174   -7.6063    0.0000 O   0  0  0  0  0  0  0  0  0  0  0  0
    2.2174   -9.2563    0.0000 O   0  0  0  0  0  0  0  0  0  0  0  0
    5.0753  -10.0813    0.0000 O   0  0  0  0  0  0  0  0  0  0  0  0
    4.3608   -9.6688    0.0000 H   0  0  0  0  0  0  0  0  0  0  0  0
    7.2187   -7.1938    0.0000 H   0  0  0  0  0  0  0  0  0  0  0  0
   11.5017   -9.6717    0.0000 O   0  0  0  0  0  0  0  0  0  0  0  0
   10.7853  -10.9080    0.0000 O   0  0  0  0  0  0  0  0  0  0  0  0
   11.5005  -10.4967    0.0000 C   0  0  2  0  0  0  0  0  0  0  0  0
   12.2143  -10.9103    0.0000 C   0  0  1  0  0  0  0  0  0  0  0  0
   12.2130  -11.7353    0.0000 C   0  0  2  0  0  0  0  0  0  0  0  0
   11.4979  -12.1467    0.0000 C   0  0  1  0  0  0  0  0  0  0  0  0
   10.7841  -11.7330    0.0000 C   0  0  1  0  0  0  0  0  0  0  0  0
   10.0689  -12.1444    0.0000 C   0  0  0  0  0  0  0  0  0  0  0  0
   10.0677  -12.9694    0.0000 O   0  0  0  0  0  0  0  0  0  0  0  0
   11.4966  -12.9717    0.0000 O   0  0  0  0  0  0  0  0  0  0  0  0
   12.9268  -12.1489    0.0000 O   0  0  0  0  0  0  0  0  0  0  0  0
   12.9294  -10.4989    0.0000 O   0  0  0  0  0  0  0  0  0  0  0  0
   10.7921   -5.9582    0.0000 O   0  0  0  0  0  0  0  0  0  0  0  0
   12.2200   -6.7851    0.0000 O   0  0  0  0  0  0  0  0  0  0  0  0
   12.2178   -8.4351    0.0000 O   0  0  0  0  0  0  0  0  0  0  0  0
   10.7878   -9.2582    0.0000 C   0  0  0  0  0  0  0  0  0  0  0  0
   10.7889   -8.4332    0.0000 C   0  0  2  0  0  0  0  0  0  0  0  0
   11.5039   -8.0217    0.0000 C   0  0  2  0  0  0  0  0  0  0  0  0
   11.5050   -7.1967    0.0000 C   0  0  1  0  0  0  0  0  0  0  0  0
   10.7911   -6.7832    0.0000 C   0  0  2  0  0  0  0  0  0  0  0  0
   10.0760   -7.1948    0.0000 C   0  0  1  0  0  0  0  0  0  0  0  0
   10.0750   -8.0198    0.0000 O   0  0  0  0  0  0  0  0  0  0  0  0
    9.3621   -6.7813    0.0000 O   0  0  0  0  0  0  0  0  0  0  0  0
    5.0753   -8.4313    0.0000 H   0  0  0  0  0  0  0  0  0  0  0  0
 58 60  1  1  0  0  0
 57 50  1  6  0  0  0
 56 51  1  1  0  0  0
 55 52  1  6  0  0  0
 54 53  1  1  0  0  0
 53 38  1  0  0  0  0
 59 54  1  0  0  0  0
 55 54  1  0  0  0  0
 56 55  1  0  0  0  0
 57 56  1  0  0  0  0
 58 57  1  0  0  0  0
  1  2  1  0  0  0  0
  2  3  1  0  0  0  0
  3  4  1  0  0  0  0
  4  5  1  0  0  0  0
  5  6  1  0  0  0  0
  6  7  1  0  0  0  0
  7  8  1  0  0  0  0
  8  9  1  0  0  0  0
  9 10  1  0  0  0  0
 10 11  1  0  0  0  0
 11 12  1  0  0  0  0
 12 13  1  0  0  0  0
 13 14  1  0  0  0  0
 14 15  1  0  0  0  0
 15 16  1  0  0  0  0
 16 17  1  0  0  0  0
 12 17  1  0  0  0  0
 17 18  1  0  0  0  0
  9 18  1  0  0  0  0
 18 19  1  0  0  0  0
 19 20  1  0  0  0  0
 20 21  2  0  0  0  0
  8 21  1  0  0  0  0
 21 22  1  0  0  0  0
  5 22  1  0  0  0  0
  1 22  1  0  0  0  0
 23 24  2  0  0  0  0
 23 60  1  0  0  0  0
  5 23  1  1  0  0  0
 17 25  1  1  0  0  0
 13 26  1  1  0  0  0
  9 27  1  1  0  0  0
  8 28  1  6  0  0  0
  2 29  1  1  0  0  0
  2 30  1  6  0  0  0
 31 32  1  0  0  0  0
 13 31  1  6  0  0  0
 15 33  1  6  0  0  0
 14 34  1  1  0  0  0
 11 35  1  1  0  0  0
 12 36  1  6  0  0  0
 22 37  1  1  0  0  0
 59 58  1  0  0  0  0
 39 40  1  0  0  0  0
 40 41  1  0  0  0  0
 41 42  1  0  0  0  0
 42 43  1  0  0  0  0
 43 44  1  0  0  0  0
 39 44  1  0  0  0  0
 45 46  1  0  0  0  0
 44 45  1  1  0  0  0
 43 47  1  6  0  0  0
 42 48  1  1  0  0  0
 41 49  1  6  0  0  0
 40 38  1  1  0  0  0
 18 61  1  6  0  0  0
M  END
>  <cdx:fragmentId>
5088

$$$$
