300912.cdx
  Mrv1902 05222410232D          

 39 42  0  0  0  0            999 V2000
    9.0822   -9.7399    0.0000 O   0  0  0  0  0  0  0  0  0  0  0  0
   10.5343   -6.2099    0.0000 O   0  0  0  0  0  0  0  0  0  0  0  0
   10.2484   -4.8348    0.0000 O   0  0  0  0  0  0  0  0  0  0  0  0
   10.3346   -4.0143    0.0000 O   0  0  0  0  0  0  0  0  0  0  0  0
    9.5809   -4.3498    0.0000 C   0  0  0  0  0  0  0  0  0  0  0  0
    8.6697   -5.1703    0.0000 C   0  0  0  0  0  0  0  0  0  0  0  0
    9.4947   -5.1703    0.0000 C   0  0  1  0  0  0  0  0  0  0  0  0
    9.7497   -5.9549    0.0000 C   0  0  1  0  0  0  0  0  0  0  0  0
    9.0822   -6.4399    0.0000 C   0  0  2  0  0  0  0  0  0  0  0  0
    8.4148   -5.9549    0.0000 O   0  0  0  0  0  0  0  0  0  0  0  0
    9.0822   -7.2649    0.0000 O   0  0  0  0  0  0  0  0  0  0  0  0
    8.3677  -10.1524    0.0000 C   0  0  0  0  0  0  0  0  0  0  0  0
    7.6533   -9.7399    0.0000 O   0  0  0  0  0  0  0  0  0  0  0  0
    4.0809   -7.6774    0.0000 C   0  0  0  0  0  0  0  0  0  0  0  0
    4.7954   -7.2649    0.0000 O   0  0  0  0  0  0  0  0  0  0  0  0
    6.2243  -11.3899    0.0000 O   0  0  0  0  0  0  0  0  0  0  0  0
    4.7954  -12.2149    0.0000 O   0  0  0  0  0  0  0  0  0  0  0  0
    3.3664  -11.3899    0.0000 O   0  0  0  0  0  0  0  0  0  0  0  0
    2.6520  -10.1524    0.0000 O   0  0  0  0  0  0  0  0  0  0  0  0
    3.3664   -9.7399    0.0000 C   0  0  0  0  0  0  0  0  0  0  0  0
    4.0809  -10.1524    0.0000 C   0  0  2  0  0  0  0  0  0  0  0  0
    4.0809  -10.9774    0.0000 C   0  0  2  0  0  0  0  0  0  0  0  0
    4.7954  -11.3899    0.0000 C   0  0  1  0  0  0  0  0  0  0  0  0
    5.5099  -10.9774    0.0000 C   0  0  2  0  0  0  0  0  0  0  0  0
    5.5099  -10.1524    0.0000 C   0  0  1  0  0  0  0  0  0  0  0  0
    4.7954   -9.7399    0.0000 O   0  0  0  0  0  0  0  0  0  0  0  0
    6.2243   -9.7399    0.0000 O   0  0  0  0  0  0  0  0  0  0  0  0
    6.9388   -8.5024    0.0000 C   0  0  0  0  0  0  0  0  0  0  0  0
    6.2243   -8.9149    0.0000 C   0  0  0  0  0  0  0  0  0  0  0  0
    5.5099   -8.5024    0.0000 C   0  0  0  0  0  0  0  0  0  0  0  0
    5.5099   -7.6774    0.0000 C   0  0  0  0  0  0  0  0  0  0  0  0
    6.2243   -7.2649    0.0000 C   0  0  0  0  0  0  0  0  0  0  0  0
    6.9388   -7.6774    0.0000 C   0  0  0  0  0  0  0  0  0  0  0  0
    7.6533   -7.2649    0.0000 C   0  0  0  0  0  0  0  0  0  0  0  0
    8.3677   -7.6774    0.0000 C   0  0  0  0  0  0  0  0  0  0  0  0
    8.3677   -8.5024    0.0000 C   0  0  0  0  0  0  0  0  0  0  0  0
    7.6533   -8.9149    0.0000 C   0  0  0  0  0  0  0  0  0  0  0  0
    9.7967   -8.5024    0.0000 C   0  0  0  0  0  0  0  0  0  0  0  0
    9.0822   -8.9149    0.0000 C   0  0  0  0  0  0  0  0  0  0  0  0
 39  1  2  0  0  0  0
 39 36  1  0  0  0  0
 35 11  1  0  0  0  0
  9 11  1  1  0  0  0
  8  2  1  6  0  0  0
  7  3  1  0  0  0  0
  7  5  1  1  0  0  0
  5  4  1  0  0  0  0
 10  6  1  0  0  0  0
  7  6  1  0  0  0  0
  8  7  1  0  0  0  0
  9  8  1  0  0  0  0
 10  9  1  0  0  0  0
 37 13  1  0  0  0  0
 13 12  1  0  0  0  0
 31 15  1  0  0  0  0
 15 14  1  0  0  0  0
 29 27  1  0  0  0  0
 25 27  1  1  0  0  0
 24 16  1  6  0  0  0
 23 17  1  1  0  0  0
 22 18  1  6  0  0  0
 21 20  1  1  0  0  0
 20 19  1  0  0  0  0
 26 21  1  0  0  0  0
 22 21  1  0  0  0  0
 23 22  1  0  0  0  0
 24 23  1  0  0  0  0
 25 24  1  0  0  0  0
 26 25  1  0  0  0  0
 33 28  1  0  0  0  0
 37 28  2  0  0  0  0
 29 28  1  0  0  0  0
 30 29  2  0  0  0  0
 31 30  1  0  0  0  0
 32 31  2  0  0  0  0
 33 32  1  0  0  0  0
 34 33  2  0  0  0  0
 35 34  1  0  0  0  0
 36 35  2  0  0  0  0
 37 36  1  0  0  0  0
 39 38  1  0  0  0  0
M  END
>  <cdx:fragmentId>
1031

$$$$
