300987.cdx
  Mrv1902 05222410182D          

 22 25  0  0  0  0            999 V2000
    9.9342   -6.1986    0.0000 C   0  0  0  0  0  0  0  0  0  0  0  0
    9.2245   -5.7779    0.0000 C   0  0  0  0  0  0  0  0  0  0  0  0
    8.2268   -6.4509    0.0000 C   0  0  0  0  0  0  0  0  0  0  0  0
    7.6945   -6.1354    0.0000 C   0  0  0  0  0  0  0  0  0  0  0  0
    7.7956   -5.7615    0.0000 C   0  0  0  0  0  0  0  0  0  0  0  0
    8.5053   -6.1822    0.0000 C   0  0  1  0  0  0  0  0  0  0  0  0
    8.4959   -7.0072    0.0000 C   0  0  0  0  0  0  0  0  0  0  0  0
    7.7767   -7.4114    0.0000 C   0  0  0  0  0  0  0  0  0  0  0  0
    7.0670   -6.9908    0.0000 C   0  0  1  0  0  0  0  0  0  0  0  0
    7.0765   -6.1658    0.0000 N   0  0  0  0  0  0  0  0  0  0  0  0
    5.6098   -9.4492    0.0000 C   0  0  0  0  0  0  0  0  0  0  0  0
    4.8906   -9.8535    0.0000 C   0  0  0  0  0  0  0  0  0  0  0  0
    4.1809   -9.4328    0.0000 C   0  0  0  0  0  0  0  0  0  0  0  0
    4.1904   -8.6079    0.0000 C   0  0  0  0  0  0  0  0  0  0  0  0
    4.9096   -8.2036    0.0000 C   0  0  0  0  0  0  0  0  0  0  0  0
    5.6192   -8.6243    0.0000 C   0  0  0  0  0  0  0  0  0  0  0  0
    6.3384   -8.2200    0.0000 C   0  0  0  0  0  0  0  0  0  0  0  0
    7.0481   -8.6407    0.0000 C   0  0  0  0  0  0  0  0  0  0  0  0
    7.0386   -9.4656    0.0000 C   0  0  0  0  0  0  0  0  0  0  0  0
    6.3195   -9.8699    0.0000 N   0  0  0  0  0  0  0  0  0  0  0  0
    5.6382   -6.9744    0.0000 O   0  0  0  0  0  0  0  0  0  0  0  0
    6.3479   -7.3950    0.0000 C   0  0  0  0  0  0  0  0  0  0  0  0
  9 22  1  6  0  0  0
  6  2  1  6  0  0  0
  2  1  2  0  0  0  0
  7  3  1  0  0  0  0
 10  4  1  0  0  0  0
 10  5  1  0  0  0  0
  4  3  1  0  0  0  0
  6  5  1  0  0  0  0
  7  6  1  0  0  0  0
  8  7  1  0  0  0  0
  9  8  1  0  0  0  0
 10  9  1  0  0  0  0
 22 17  1  0  0  0  0
 16 11  1  0  0  0  0
 20 11  1  0  0  0  0
 12 11  2  0  0  0  0
 13 12  1  0  0  0  0
 14 13  2  0  0  0  0
 15 14  1  0  0  0  0
 16 15  2  0  0  0  0
 17 16  1  0  0  0  0
 18 17  2  0  0  0  0
 19 18  1  0  0  0  0
 20 19  2  0  0  0  0
 22 21  2  0  0  0  0
M  END
>  <cdx:fragmentId>
10399

$$$$
