300904.cdx
  Mrv1902 05222410242D          

 15 15  0  0  0  0            999 V2000
    7.0349   -6.1346    0.0000 C   0  0  0  0  0  0  0  0  0  0  0  0
    6.3204   -6.5471    0.0000 C   0  0  0  0  0  0  0  0  0  0  0  0
    5.6060   -6.1346    0.0000 C   0  0  0  0  0  0  0  0  0  0  0  0
    5.6060   -5.3096    0.0000 C   0  0  0  0  0  0  0  0  0  0  0  0
    4.8915   -6.5471    0.0000 C   0  0  0  0  0  0  0  0  0  0  0  0
    4.8915   -7.3721    0.0000 C   0  0  0  0  0  0  0  0  0  0  0  0
    5.6060   -7.7846    0.0000 C   0  0  0  0  0  0  0  0  0  0  0  0
    6.3204   -7.3721    0.0000 C   0  0  0  0  0  0  0  0  0  0  0  0
    7.0349   -5.3096    0.0000 O   0  0  0  0  0  0  0  0  0  0  0  0
    7.7494   -6.5471    0.0000 O   0  0  0  0  0  0  0  0  0  0  0  0
    6.3204   -4.8971    0.0000 O   0  0  0  0  0  0  0  0  0  0  0  0
    4.8915   -4.8971    0.0000 O   0  0  0  0  0  0  0  0  0  0  0  0
    4.1770   -6.1346    0.0000 O   0  0  0  0  0  0  0  0  0  0  0  0
    3.4625   -6.5471    0.0000 C   0  0  0  0  0  0  0  0  0  0  0  0
    4.1770   -7.7846    0.0000 O   0  0  0  0  0  0  0  0  0  0  0  0
  1  2  1  0  0  0  0
  2  3  1  0  0  0  0
  3  4  1  0  0  0  0
  3  5  2  0  0  0  0
  5  6  1  0  0  0  0
  6  7  2  0  0  0  0
  7  8  1  0  0  0  0
  2  8  2  0  0  0  0
  1  9  2  0  0  0  0
  1 10  1  0  0  0  0
  4 11  2  0  0  0  0
  4 12  1  0  0  0  0
 13 14  1  0  0  0  0
  5 13  1  0  0  0  0
  6 15  1  0  0  0  0
M  END
>  <cdx:fragmentId>
245

$$$$
