300909.cdx
  Mrv1902 05222410222D          

 64 70  0  0  0  0            999 V2000
   12.3330   -5.9283    0.0000 C   0  0  0  0  0  0  0  0  0  0  0  0
   12.3330   -6.7533    0.0000 C   0  0  0  0  0  0  0  0  0  0  0  0
   11.6186   -7.1658    0.0000 C   0  0  0  0  0  0  0  0  0  0  0  0
   10.9041   -6.7533    0.0000 C   0  0  0  0  0  0  0  0  0  0  0  0
   10.1896   -7.1658    0.0000 C   0  0  0  0  0  0  0  0  0  0  0  0
    9.4751   -6.7533    0.0000 C   0  0  0  0  0  0  0  0  0  0  0  0
    9.4751   -5.9283    0.0000 C   0  0  0  0  0  0  0  0  0  0  0  0
   10.1896   -5.5158    0.0000 C   0  0  0  0  0  0  0  0  0  0  0  0
   10.9041   -5.9283    0.0000 C   0  0  0  0  0  0  0  0  0  0  0  0
   11.6186   -5.5158    0.0000 O   0  0  0  0  0  0  0  0  0  0  0  0
    8.7607   -5.5158    0.0000 C   0  0  0  0  0  0  0  0  0  0  0  0
    8.0462   -5.9283    0.0000 C   0  0  0  0  0  0  0  0  0  0  0  0
    8.0462   -6.7533    0.0000 C   0  0  0  0  0  0  0  0  0  0  0  0
    8.7607   -7.1658    0.0000 C   0  0  0  0  0  0  0  0  0  0  0  0
   11.6186   -7.9908    0.0000 O   0  0  0  0  0  0  0  0  0  0  0  0
   13.0475   -5.5158    0.0000 C   0  0  0  0  0  0  0  0  0  0  0  0
    7.3317   -5.5158    0.0000 O   0  0  0  0  0  0  0  0  0  0  0  0
    6.6173   -5.9283    0.0000 C   0  0  0  0  0  0  0  0  0  0  0  0
   10.1896   -7.9908    0.0000 O   0  0  0  0  0  0  0  0  0  0  0  0
    8.7607   -7.9908    0.0000 O   0  0  0  0  0  0  0  0  0  0  0  0
    7.3317   -7.9908    0.0000 O   0  0  0  0  0  0  0  0  0  0  0  0
    8.0462   -8.4033    0.0000 C   0  0  2  0  0  0  0  0  0  0  0  0
    8.0462   -9.2283    0.0000 C   0  0  1  0  0  0  0  0  0  0  0  0
    7.3317   -9.6408    0.0000 C   0  0  2  0  0  0  0  0  0  0  0  0
    6.6173   -9.2283    0.0000 C   0  0  1  0  0  0  0  0  0  0  0  0
    6.6173   -8.4033    0.0000 C   0  0  1  0  0  0  0  0  0  0  0  0
    5.9028   -9.6408    0.0000 O   0  0  0  0  0  0  0  0  0  0  0  0
    7.3317  -10.4658    0.0000 O   0  0  0  0  0  0  0  0  0  0  0  0
    8.7607   -9.6408    0.0000 O   0  0  0  0  0  0  0  0  0  0  0  0
    5.9028   -7.9908    0.0000 C   0  0  0  0  0  0  0  0  0  0  0  0
    5.1883   -8.4033    0.0000 O   0  0  0  0  0  0  0  0  0  0  0  0
    4.4738   -7.1658    0.0000 O   0  0  0  0  0  0  0  0  0  0  0  0
    4.4738   -7.9908    0.0000 C   0  0  2  0  0  0  0  0  0  0  0  0
    3.7594   -8.4033    0.0000 C   0  0  1  0  0  0  0  0  0  0  0  0
    3.0449   -7.9908    0.0000 C   0  0  2  0  0  0  0  0  0  0  0  0
    3.0449   -7.1658    0.0000 C   0  0  1  0  0  0  0  0  0  0  0  0
    3.7594   -6.7533    0.0000 C   0  0  1  0  0  0  0  0  0  0  0  0
    2.3304   -8.4033    0.0000 O   0  0  0  0  0  0  0  0  0  0  0  0
    1.6160   -7.1658    0.0000 O   0  0  0  0  0  0  0  0  0  0  0  0
    1.6160   -7.9908    0.0000 C   0  0  2  0  0  0  0  0  0  0  0  0
    0.9015   -8.4033    0.0000 C   0  0  1  0  0  0  0  0  0  0  0  0
    0.1870   -7.9908    0.0000 C   0  0  2  0  0  0  0  0  0  0  0  0
    0.1870   -7.1658    0.0000 C   0  0  1  0  0  0  0  0  0  0  0  0
    0.9015   -6.7533    0.0000 C   0  0  1  0  0  0  0  0  0  0  0  0
    0.9015   -5.9283    0.0000 C   0  0  0  0  0  0  0  0  0  0  0  0
    0.1870   -5.5158    0.0000 O   0  0  0  0  0  0  0  0  0  0  0  0
    0.9015   -4.2783    0.0000 O   0  0  0  0  0  0  0  0  0  0  0  0
    0.1870   -4.6908    0.0000 C   0  0  2  0  0  0  0  0  0  0  0  0
   -0.5274   -4.2783    0.0000 C   0  0  1  0  0  0  0  0  0  0  0  0
   -0.5274   -3.4533    0.0000 C   0  0  2  0  0  0  0  0  0  0  0  0
    0.1870   -3.0408    0.0000 C   0  0  1  0  0  0  0  0  0  0  0  0
    0.9015   -3.4533    0.0000 C   0  0  1  0  0  0  0  0  0  0  0  0
    1.6160   -3.0408    0.0000 C   0  0  0  0  0  0  0  0  0  0  0  0
    2.3304   -3.4533    0.0000 O   0  0  0  0  0  0  0  0  0  0  0  0
    0.1870   -2.2158    0.0000 O   0  0  0  0  0  0  0  0  0  0  0  0
   -1.2419   -3.0408    0.0000 O   0  0  0  0  0  0  0  0  0  0  0  0
   -1.2419   -4.6908    0.0000 O   0  0  0  0  0  0  0  0  0  0  0  0
   -0.5274   -6.7533    0.0000 O   0  0  0  0  0  0  0  0  0  0  0  0
   -0.5274   -8.4033    0.0000 O   0  0  0  0  0  0  0  0  0  0  0  0
    0.9015   -9.2283    0.0000 O   0  0  0  0  0  0  0  0  0  0  0  0
    3.7594   -5.9283    0.0000 C   0  0  0  0  0  0  0  0  0  0  0  0
    3.0449   -5.5158    0.0000 O   0  0  0  0  0  0  0  0  0  0  0  0
    2.3304   -6.7533    0.0000 O   0  0  0  0  0  0  0  0  0  0  0  0
    3.7594   -9.2283    0.0000 O   0  0  0  0  0  0  0  0  0  0  0  0
  1  2  2  0  0  0  0
  2  3  1  0  0  0  0
  3  4  1  0  0  0  0
  4  5  1  0  0  0  0
  5  6  2  0  0  0  0
  6  7  1  0  0  0  0
  7  8  2  0  0  0  0
  8  9  1  0  0  0  0
  4  9  2  0  0  0  0
  9 10  1  0  0  0  0
  1 10  1  0  0  0  0
 11 12  2  0  0  0  0
 12 13  1  0  0  0  0
 13 14  2  0  0  0  0
  6 14  1  0  0  0  0
  7 11  1  0  0  0  0
  3 15  2  0  0  0  0
  1 16  1  0  0  0  0
 17 18  1  0  0  0  0
 12 17  1  0  0  0  0
  5 19  1  0  0  0  0
 21 22  1  0  0  0  0
 22 23  1  0  0  0  0
 23 24  1  0  0  0  0
 24 25  1  0  0  0  0
 25 26  1  0  0  0  0
 21 26  1  0  0  0  0
 25 27  1  6  0  0  0
 24 28  1  1  0  0  0
 23 29  1  6  0  0  0
 32 33  1  0  0  0  0
 33 34  1  0  0  0  0
 34 35  1  0  0  0  0
 35 36  1  0  0  0  0
 36 37  1  0  0  0  0
 32 37  1  0  0  0  0
 39 40  1  0  0  0  0
 40 41  1  0  0  0  0
 41 42  1  0  0  0  0
 42 43  1  0  0  0  0
 43 44  1  0  0  0  0
 39 44  1  0  0  0  0
 47 48  1  0  0  0  0
 48 49  1  0  0  0  0
 49 50  1  0  0  0  0
 50 51  1  0  0  0  0
 51 52  1  0  0  0  0
 47 52  1  0  0  0  0
 53 54  1  0  0  0  0
 52 53  1  1  0  0  0
 51 55  1  6  0  0  0
 50 56  1  1  0  0  0
 49 57  1  6  0  0  0
 48 46  1  1  0  0  0
 45 46  1  0  0  0  0
 44 45  1  1  0  0  0
 43 58  1  6  0  0  0
 42 59  1  1  0  0  0
 41 60  1  6  0  0  0
 40 38  1  1  0  0  0
 35 38  1  1  0  0  0
 61 62  1  0  0  0  0
 37 61  1  1  0  0  0
 36 63  1  6  0  0  0
 34 64  1  6  0  0  0
 33 31  1  1  0  0  0
 30 31  1  0  0  0  0
 26 30  1  1  0  0  0
 22 20  1  1  0  0  0
 14 20  1  0  0  0  0
M  END
>  <cdx:fragmentId>
677

$$$$
