300991.cdx
  Mrv1902 05222410192D          

  7  7  0  0  0  0            999 V2000
    7.5243   -3.7778    0.0000 C   0  0  0  0  0  0  0  0  0  0  0  0
    7.5243   -4.6028    0.0000 C   0  0  0  0  0  0  0  0  0  0  0  0
    6.7396   -4.8578    0.0000 C   0  0  0  0  0  0  0  0  0  0  0  0
    6.2547   -4.1903    0.0000 C   0  0  0  0  0  0  0  0  0  0  0  0
    6.7396   -3.5229    0.0000 C   0  0  0  0  0  0  0  0  0  0  0  0
    8.1917   -5.0877    0.0000 C   0  0  0  0  0  0  0  0  0  0  0  0
    8.1917   -3.2929    0.0000 C   0  0  0  0  0  0  0  0  0  0  0  0
  1  2  1  0  0  0  0
  2  3  1  0  0  0  0
  3  4  1  0  0  0  0
  4  5  1  0  0  0  0
  1  5  1  0  0  0  0
  2  6  1  0  0  0  0
  1  7  1  0  0  0  0
M  END
>  <cdx:fragmentId>
10672

$$$$
