30091.cdx
  Mrv1902 05222410202D          

 20 20  0  0  0  0            999 V2000
    0.5475   -8.0289    0.0000 C   0  0  0  0  0  0  0  0  0  0  0  0
    1.2620   -7.6164    0.0000 C   0  0  0  0  0  0  0  0  0  0  0  0
    1.9765   -8.0289    0.0000 C   0  0  0  0  0  0  0  0  0  0  0  0
    2.6909   -7.6164    0.0000 C   0  0  0  0  0  0  0  0  0  0  0  0
    3.4054   -8.0289    0.0000 C   0  0  0  0  0  0  0  0  0  0  0  0
    4.1199   -7.6164    0.0000 C   0  0  0  0  0  0  0  0  0  0  0  0
    4.8344   -8.0289    0.0000 C   0  0  0  0  0  0  0  0  0  0  0  0
    5.5488   -7.6164    0.0000 C   0  0  0  0  0  0  0  0  0  0  0  0
    6.2633   -8.0289    0.0000 C   0  0  0  0  0  0  0  0  0  0  0  0
    6.9778   -7.6164    0.0000 C   0  0  0  0  0  0  0  0  0  0  0  0
    7.6922   -8.0289    0.0000 C   0  0  0  0  0  0  0  0  0  0  0  0
    8.4067   -7.6164    0.0000 C   0  0  0  0  0  0  0  0  0  0  0  0
    9.1212   -8.0289    0.0000 C   0  0  0  0  0  0  0  0  0  0  0  0
    9.8356   -7.6164    0.0000 C   0  0  0  0  0  0  0  0  0  0  0  0
   10.5501   -8.0289    0.0000 O   0  0  0  0  0  0  0  0  0  0  0  0
   11.2646   -7.6164    0.0000 C   0  0  0  0  0  0  0  0  0  0  0  0
   11.2646   -6.7914    0.0000 C   0  0  0  0  0  0  0  0  0  0  0  0
   10.5501   -6.3789    0.0000 C   0  0  0  0  0  0  0  0  0  0  0  0
    9.8356   -6.7914    0.0000 C   0  0  0  0  0  0  0  0  0  0  0  0
   11.9791   -8.0289    0.0000 O   0  0  0  0  0  0  0  0  0  0  0  0
  1  2  1  0  0  0  0
  2  3  1  0  0  0  0
  3  4  1  0  0  0  0
  4  5  1  0  0  0  0
  5  6  1  0  0  0  0
  6  7  1  0  0  0  0
  7  8  1  0  0  0  0
  8  9  1  0  0  0  0
  9 10  1  0  0  0  0
 10 11  1  0  0  0  0
 11 12  1  0  0  0  0
 12 13  1  0  0  0  0
 13 14  1  0  0  0  0
 14 15  1  0  0  0  0
 15 16  1  0  0  0  0
 16 17  1  0  0  0  0
 17 18  1  0  0  0  0
 18 19  1  0  0  0  0
 19 14  1  0  0  0  0
 16 20  2  0  0  0  0
M  END
>  <cdx:fragmentId>
3

$$$$
