300921.cdx
  Mrv1902 05222410222D          

 84 95  0  0  0  0            999 V2000
    8.4131  -11.6463    0.0000 C   0  0  0  0  0  0  0  0  0  0  0  0
    8.4131  -12.4712    0.0000 C   0  0  1  0  0  0  0  0  0  0  0  0
    9.1275  -12.8837    0.0000 C   0  0  1  0  0  0  0  0  0  0  0  0
    9.8420  -12.4712    0.0000 C   0  0  1  0  0  0  0  0  0  0  0  0
    9.8420  -11.6463    0.0000 C   0  0  2  0  0  0  0  0  0  0  0  0
    9.1275  -11.2338    0.0000 C   0  0  0  0  0  0  0  0  0  0  0  0
   10.5565  -12.8837    0.0000 C   0  0  0  0  0  0  0  0  0  0  0  0
   11.2709  -12.4712    0.0000 C   0  0  0  0  0  0  0  0  0  0  0  0
   11.2709  -11.6463    0.0000 C   0  0  2  0  0  0  0  0  0  0  0  0
   10.5565  -11.2338    0.0000 C   0  0  1  0  0  0  0  0  0  0  0  0
   11.9854  -11.2338    0.0000 C   0  0  2  0  0  0  0  0  0  0  0  0
   11.9854  -10.4087    0.0000 C   0  0  1  0  0  0  0  0  0  0  0  0
   11.2709   -9.9962    0.0000 C   0  0  1  0  0  0  0  0  0  0  0  0
   10.5565  -10.4087    0.0000 C   0  0  0  0  0  0  0  0  0  0  0  0
    7.6986  -12.8837    0.0000 O   0  0  0  0  0  0  0  0  0  0  0  0
    6.9875  -12.4655    0.0000 C   0  0  1  0  0  0  0  0  0  0  0  0
    6.2697  -12.8722    0.0000 C   0  0  1  0  0  0  0  0  0  0  0  0
    6.9941  -11.6405    0.0000 O   0  0  0  0  0  0  0  0  0  0  0  0
    6.2830  -11.2223    0.0000 C   0  0  0  0  0  0  0  0  0  0  0  0
    5.5652  -11.6290    0.0000 C   0  0  2  0  0  0  0  0  0  0  0  0
    5.5586  -12.4540    0.0000 C   0  0  2  0  0  0  0  0  0  0  0  0
    9.8420  -10.8212    0.0000 C   0  0  0  0  0  0  0  0  0  0  0  0
    8.7150  -13.5982    0.0000 C   0  0  0  0  0  0  0  0  0  0  0  0
   11.9854   -9.5838    0.0000 C   0  0  0  0  0  0  0  0  0  0  0  0
    4.8408  -12.8607    0.0000 O   0  0  0  0  0  0  0  0  0  0  0  0
    6.2630  -13.6972    0.0000 O   0  0  0  0  0  0  0  0  0  0  0  0
    4.8541  -11.2108    0.0000 O   0  0  0  0  0  0  0  0  0  0  0  0
    9.5400  -13.5982    0.0000 C   0  0  0  0  0  0  0  0  0  0  0  0
   11.9854  -12.0587    0.0000 C   0  0  0  0  0  0  0  0  0  0  0  0
    9.8420  -13.2962    0.0000 H   0  0  0  0  0  0  0  0  0  0  0  0
   12.7700  -11.4887    0.0000 C   0  0  0  0  0  0  0  0  0  0  0  0
   13.2550  -10.8212    0.0000 C   0  0  1  0  0  0  0  0  0  0  0  0
   12.7700  -10.1538    0.0000 C   0  0  2  0  0  0  0  0  0  0  0  0
   14.0754  -10.7350    0.0000 O   0  0  0  0  0  0  0  0  0  0  0  0
   14.4110   -9.9813    0.0000 C   0  0  1  0  0  0  0  0  0  0  0  0
   13.9261   -9.3139    0.0000 C   0  0  0  0  0  0  0  0  0  0  0  0
   13.1056   -9.4001    0.0000 C   0  0  1  0  0  0  0  0  0  0  0  0
   13.6675  -11.5357    0.0000 H   0  0  0  0  0  0  0  0  0  0  0  0
   12.6207   -8.7327    0.0000 C   0  0  0  0  0  0  0  0  0  0  0  0
   15.2315   -9.8951    0.0000 C   0  0  1  0  0  0  0  0  0  0  0  0
   11.2709  -10.8212    0.0000 H   0  0  0  0  0  0  0  0  0  0  0  0
   11.2709   -9.1713    0.0000 O   0  0  0  0  0  0  0  0  0  0  0  0
   10.5565   -8.7588    0.0000 C   0  0  0  0  0  0  0  0  0  0  0  0
   10.5565   -7.9337    0.0000 O   0  0  0  0  0  0  0  0  0  0  0  0
    9.8420   -9.1713    0.0000 C   0  0  0  0  0  0  0  0  0  0  0  0
   12.3575   -9.4393    0.0000 H   0  0  0  0  0  0  0  0  0  0  0  0
   14.9600  -10.6700    0.0000 O   0  0  0  0  0  0  0  0  0  0  0  0
   15.4450   -9.0982    0.0000 C   0  0  0  0  0  0  0  0  0  0  0  0
   14.6481   -8.8847    0.0000 C   0  0  0  0  0  0  0  0  0  0  0  0
   16.2419   -9.3117    0.0000 C   0  0  0  0  0  0  0  0  0  0  0  0
   15.6585   -8.3013    0.0000 O   0  0  0  0  0  0  0  0  0  0  0  0
   15.0752   -7.7180    0.0000 C   0  0  1  0  0  0  0  0  0  0  0  0
   15.2887   -6.9211    0.0000 C   0  0  1  0  0  0  0  0  0  0  0  0
   14.7053   -6.3377    0.0000 O   0  0  0  0  0  0  0  0  0  0  0  0
   13.9084   -6.5512    0.0000 C   0  0  1  0  0  0  0  0  0  0  0  0
   13.6949   -7.3481    0.0000 C   0  0  2  0  0  0  0  0  0  0  0  0
   14.2783   -7.9315    0.0000 C   0  0  2  0  0  0  0  0  0  0  0  0
   16.0856   -6.7075    0.0000 O   0  0  0  0  0  0  0  0  0  0  0  0
   13.3251   -5.9679    0.0000 C   0  0  0  0  0  0  0  0  0  0  0  0
   14.0647   -8.7284    0.0000 O   0  0  0  0  0  0  0  0  0  0  0  0
   12.8980   -7.5616    0.0000 O   0  0  0  0  0  0  0  0  0  0  0  0
   12.5282   -6.1814    0.0000 O   0  0  0  0  0  0  0  0  0  0  0  0
   16.6689   -7.2909    0.0000 C   0  0  0  0  0  0  0  0  0  0  0  0
   17.4658   -7.0774    0.0000 C   0  0  0  0  0  0  0  0  0  0  0  0
   18.0492   -7.6607    0.0000 O   0  0  0  0  0  0  0  0  0  0  0  0
   18.8461   -7.4472    0.0000 C   0  0  0  0  0  0  0  0  0  0  0  0
   19.0596   -6.6503    0.0000 C   0  0  0  0  0  0  0  0  0  0  0  0
   18.4762   -6.0670    0.0000 C   0  0  0  0  0  0  0  0  0  0  0  0
   17.6794   -6.2805    0.0000 C   0  0  0  0  0  0  0  0  0  0  0  0
   18.6898   -5.2701    0.0000 O   0  0  0  0  0  0  0  0  0  0  0  0
   19.4294   -8.0306    0.0000 C   0  0  0  0  0  0  0  0  0  0  0  0
   20.2263   -7.8171    0.0000 C   0  0  0  0  0  0  0  0  0  0  0  0
   20.4399   -7.0202    0.0000 C   0  0  0  0  0  0  0  0  0  0  0  0
   19.8565   -6.4368    0.0000 C   0  0  0  0  0  0  0  0  0  0  0  0
   20.9182   -8.2664    0.0000 O   0  0  0  0  0  0  0  0  0  0  0  0
   21.5594   -7.7472    0.0000 C   0  0  1  0  0  0  0  0  0  0  0  0
   21.2637   -6.9770    0.0000 C   0  0  0  0  0  0  0  0  0  0  0  0
   20.0700   -5.6399    0.0000 O   0  0  0  0  0  0  0  0  0  0  0  0
   19.4867   -5.0566    0.0000 C   0  0  0  0  0  0  0  0  0  0  0  0
   22.3563   -7.9607    0.0000 C   0  0  0  0  0  0  0  0  0  0  0  0
   22.5698   -7.1638    0.0000 C   0  0  0  0  0  0  0  0  0  0  0  0
   22.1427   -8.7576    0.0000 C   0  0  0  0  0  0  0  0  0  0  0  0
   23.1532   -8.1742    0.0000 O   0  0  0  0  0  0  0  0  0  0  0  0
   21.7729   -8.5441    0.0000 H   0  0  0  0  0  0  0  0  0  0  0  0
  1  2  1  0  0  0  0
  2  3  1  0  0  0  0
  3  4  1  0  0  0  0
  4  5  1  0  0  0  0
  5  6  1  0  0  0  0
  6  1  1  0  0  0  0
  4  7  1  0  0  0  0
  7  8  1  0  0  0  0
  8  9  1  0  0  0  0
  9 10  1  0  0  0  0
 10  5  1  0  0  0  0
  9 11  1  0  0  0  0
 11 12  1  0  0  0  0
 12 13  1  0  0  0  0
 13 14  1  0  0  0  0
 14 10  1  0  0  0  0
  2 15  1  1  0  0  0
 16 15  1  1  0  0  0
 16 17  1  0  0  0  0
 16 18  1  0  0  0  0
 18 19  1  0  0  0  0
 19 20  1  0  0  0  0
 20 21  1  0  0  0  0
 21 17  1  0  0  0  0
  5 22  1  1  0  0  0
 10 22  1  1  0  0  0
  3 23  1  1  0  0  0
 12 24  1  1  0  0  0
 21 25  1  1  0  0  0
 17 26  1  6  0  0  0
 20 27  1  6  0  0  0
  3 28  1  6  0  0  0
 11 29  1  6  0  0  0
  4 30  1  6  0  0  0
 11 31  1  0  0  0  0
 31 32  1  0  0  0  0
 32 33  1  0  0  0  0
 33 12  1  0  0  0  0
 32 34  1  0  0  0  0
 34 35  1  0  0  0  0
 35 36  1  0  0  0  0
 36 37  1  0  0  0  0
 37 33  1  0  0  0  0
 32 38  1  6  0  0  0
 37 39  1  6  0  0  0
 35 40  1  0  0  0  0
  9 41  1  1  0  0  0
 13 42  1  1  0  0  0
 42 43  1  0  0  0  0
 43 44  2  0  0  0  0
 43 45  1  0  0  0  0
 33 46  1  6  0  0  0
 35 47  1  6  0  0  0
 40 47  1  6  0  0  0
 40 48  1  0  0  0  0
 48 49  1  0  0  0  0
 48 50  1  0  0  0  0
 48 51  1  0  0  0  0
 52 51  1  6  0  0  0
 52 53  1  0  0  0  0
 53 54  1  0  0  0  0
 54 55  1  0  0  0  0
 55 56  1  0  0  0  0
 56 57  1  0  0  0  0
 57 52  1  0  0  0  0
 53 58  1  1  0  0  0
 55 59  1  1  0  0  0
 57 60  1  1  0  0  0
 56 61  1  6  0  0  0
 59 62  1  0  0  0  0
 58 63  1  0  0  0  0
 63 64  1  0  0  0  0
 64 65  1  0  0  0  0
 65 66  1  0  0  0  0
 66 67  2  0  0  0  0
 67 68  1  0  0  0  0
 68 69  1  0  0  0  0
 69 64  2  0  0  0  0
 68 70  2  0  0  0  0
 66 71  1  0  0  0  0
 71 72  2  0  0  0  0
 72 73  1  0  0  0  0
 73 74  2  0  0  0  0
 74 67  1  0  0  0  0
 72 75  1  0  0  0  0
 75 76  1  0  0  0  0
 76 77  1  0  0  0  0
 77 73  1  0  0  0  0
 74 78  1  0  0  0  0
 78 79  1  0  0  0  0
 76 80  1  0  0  0  0
 80 81  1  0  0  0  0
 80 82  1  0  0  0  0
 80 83  1  0  0  0  0
 76 84  1  6  0  0  0
M  END
>  <cdx:fragmentId>
5

$$$$
