300984.cdx
  Mrv1902 05222410192D          

 49 56  0  0  0  0            999 V2000
    5.0237   -8.2088    0.0000 C   0  0  0  0  0  0  0  0  0  0  0  0
    5.0237   -9.0337    0.0000 C   0  0  1  0  0  0  0  0  0  0  0  0
    5.7381   -9.4462    0.0000 C   0  0  2  0  0  0  0  0  0  0  0  0
    6.4526   -9.0337    0.0000 C   0  0  1  0  0  0  0  0  0  0  0  0
    6.4526   -8.2088    0.0000 C   0  0  2  0  0  0  0  0  0  0  0  0
    5.7381   -7.7963    0.0000 C   0  0  0  0  0  0  0  0  0  0  0  0
    7.1671   -9.4462    0.0000 C   0  0  0  0  0  0  0  0  0  0  0  0
    7.8816   -9.0337    0.0000 C   0  0  0  0  0  0  0  0  0  0  0  0
    7.8816   -8.2088    0.0000 C   0  0  0  0  0  0  0  0  0  0  0  0
    7.1671   -7.7963    0.0000 C   0  0  1  0  0  0  0  0  0  0  0  0
    8.5960   -7.7963    0.0000 C   0  0  1  0  0  0  0  0  0  0  0  0
    8.5960   -6.9712    0.0000 C   0  0  2  0  0  0  0  0  0  0  0  0
    7.8816   -6.5587    0.0000 C   0  0  0  0  0  0  0  0  0  0  0  0
    7.1671   -6.9712    0.0000 C   0  0  0  0  0  0  0  0  0  0  0  0
    9.3807   -8.0512    0.0000 C   0  0  2  0  0  0  0  0  0  0  0  0
    9.8656   -7.3838    0.0000 C   0  0  2  0  0  0  0  0  0  0  0  0
    9.3807   -6.7163    0.0000 C   0  0  2  0  0  0  0  0  0  0  0  0
    6.1506  -10.1607    0.0000 C   0  0  0  0  0  0  0  0  0  0  0  0
    4.3092   -9.4462    0.0000 O   0  0  0  0  0  0  0  0  0  0  0  0
    5.3256  -10.1607    0.0000 C   0  0  0  0  0  0  0  0  0  0  0  0
    6.4526   -7.3838    0.0000 C   0  0  0  0  0  0  0  0  0  0  0  0
    8.5960   -6.1463    0.0000 C   0  0  0  0  0  0  0  0  0  0  0  0
    8.5960   -8.6212    0.0000 C   0  0  0  0  0  0  0  0  0  0  0  0
    2.9011   -7.7878    0.0000 C   0  0  0  0  0  0  0  0  0  0  0  0
    2.1854   -8.1981    0.0000 C   0  0  2  0  0  0  0  0  0  0  0  0
    2.1829   -9.0231    0.0000 C   0  0  1  0  0  0  0  0  0  0  0  0
    2.8962   -9.4378    0.0000 C   0  0  2  0  0  0  0  0  0  0  0  0
    3.6119   -9.0274    0.0000 C   0  0  1  0  0  0  0  0  0  0  0  0
    3.6144   -8.2024    0.0000 O   0  0  0  0  0  0  0  0  0  0  0  0
    1.4672   -9.4335    0.0000 O   0  0  0  0  0  0  0  0  0  0  0  0
    1.4722   -7.7835    0.0000 O   0  0  0  0  0  0  0  0  0  0  0  0
    2.8937  -10.2628    0.0000 O   0  0  0  0  0  0  0  0  0  0  0  0
    9.6356   -8.8358    0.0000 O   0  0  0  0  0  0  0  0  0  0  0  0
    8.9682   -6.0018    0.0000 H   0  0  0  0  0  0  0  0  0  0  0  0
    6.4526   -9.8588    0.0000 H   0  0  0  0  0  0  0  0  0  0  0  0
   10.6897   -7.4208    0.0000 O   0  0  0  0  0  0  0  0  0  0  0  0
   11.2325   -6.7995    0.0000 C   0  0  1  0  0  0  0  0  0  0  0  0
   11.0852   -5.9877    0.0000 C   0  0  1  0  0  0  0  0  0  0  0  0
   10.3587   -5.5968    0.0000 C   0  0  0  0  0  0  0  0  0  0  0  0
    9.6001   -5.9210    0.0000 C   0  0  1  0  0  0  0  0  0  0  0  0
    8.9789   -5.3782    0.0000 C   0  0  0  0  0  0  0  0  0  0  0  0
   10.1750   -6.4075    0.0000 O   0  0  0  0  0  0  0  0  0  0  0  0
   12.0278   -7.0190    0.0000 C   0  0  0  0  0  0  0  0  0  0  0  0
   12.6155   -6.4400    0.0000 C   0  0  0  0  0  0  0  0  0  0  0  0
   12.2354   -7.8174    0.0000 C   0  0  0  0  0  0  0  0  0  0  0  0
   12.8231   -7.2384    0.0000 O   0  0  0  0  0  0  0  0  0  0  0  0
   11.6686   -5.4044    0.0000 H   0  0  0  0  0  0  0  0  0  0  0  0
   11.9470   -6.3870    0.0000 H   0  0  0  0  0  0  0  0  0  0  0  0
   13.0366   -8.0353    0.0000 C   0  0  0  0  0  0  0  0  0  0  0  0
  1  2  1  0  0  0  0
  2  3  1  0  0  0  0
  3  4  1  0  0  0  0
  4  5  1  0  0  0  0
  5  6  1  0  0  0  0
  6  1  1  0  0  0  0
  4  7  1  0  0  0  0
  7  8  1  0  0  0  0
  8  9  2  0  0  0  0
  9 10  1  0  0  0  0
 10  5  1  0  0  0  0
  9 11  1  0  0  0  0
 11 12  1  0  0  0  0
 12 13  1  0  0  0  0
 13 14  1  0  0  0  0
 14 10  1  0  0  0  0
 11 15  1  0  0  0  0
 15 16  1  0  0  0  0
 16 17  1  0  0  0  0
 17 12  1  0  0  0  0
  3 18  1  0  0  0  0
  2 19  1  1  0  0  0
  3 20  1  1  0  0  0
  5 21  1  1  0  0  0
 10 21  1  1  0  0  0
 12 22  1  1  0  0  0
 11 23  1  6  0  0  0
 24 25  1  0  0  0  0
 25 26  1  0  0  0  0
 26 27  1  0  0  0  0
 27 28  1  0  0  0  0
 28 29  1  0  0  0  0
 29 24  1  0  0  0  0
 26 30  1  1  0  0  0
 25 31  1  6  0  0  0
 27 32  1  6  0  0  0
 28 19  1  1  0  0  0
 15 33  1  6  0  0  0
 17 34  1  6  0  0  0
  4 35  1  6  0  0  0
 16 36  1  0  0  0  0
 36 37  1  0  0  0  0
 37 38  1  0  0  0  0
 38 39  1  0  0  0  0
 39 40  1  0  0  0  0
 40 17  1  0  0  0  0
 40 41  1  6  0  0  0
 38 42  1  0  0  0  0
 16 42  1  1  0  0  0
 37 43  1  0  0  0  0
 43 44  1  0  0  0  0
 43 45  1  0  0  0  0
 43 46  1  0  0  0  0
 38 47  1  1  0  0  0
 37 48  1  6  0  0  0
 46 49  1  0  0  0  0
M  END
>  <cdx:fragmentId>
5

$$$$
