300908.cdx
  Mrv1902 05222410222D          

 22 24  0  0  0  0            999 V2000
    3.4187   -6.9492    0.0000 O   0  0  0  0  0  0  0  0  0  0  0  0
    3.0607   -6.2059    0.0000 C   0  0  0  0  0  0  0  0  0  0  0  0
    3.4187   -5.4626    0.0000 C   0  0  0  0  0  0  0  0  0  0  0  0
    4.2230   -5.2791    0.0000 C   0  0  0  0  0  0  0  0  0  0  0  0
    4.8680   -5.7934    0.0000 C   0  0  0  0  0  0  0  0  0  0  0  0
    4.8680   -6.6184    0.0000 C   0  0  0  0  0  0  0  0  0  0  0  0
    4.2230   -7.1328    0.0000 C   0  0  0  0  0  0  0  0  0  0  0  0
    5.5825   -7.0309    0.0000 C   0  0  0  0  0  0  0  0  0  0  0  0
    6.2970   -6.6184    0.0000 C   0  0  0  0  0  0  0  0  0  0  0  0
    6.2970   -5.7934    0.0000 C   0  0  0  0  0  0  0  0  0  0  0  0
    5.5825   -5.3809    0.0000 C   0  0  0  0  0  0  0  0  0  0  0  0
    7.0114   -7.0309    0.0000 C   0  0  0  0  0  0  0  0  0  0  0  0
    7.7259   -6.6184    0.0000 C   0  0  0  0  0  0  0  0  0  0  0  0
    7.7259   -5.7934    0.0000 C   0  0  0  0  0  0  0  0  0  0  0  0
    7.0114   -5.3809    0.0000 C   0  0  0  0  0  0  0  0  0  0  0  0
    4.4066   -7.9371    0.0000 O   0  0  0  0  0  0  0  0  0  0  0  0
    3.2957   -4.6469    0.0000 C   0  0  0  0  0  0  0  0  0  0  0  0
    8.4404   -5.3809    0.0000 O   0  0  0  0  0  0  0  0  0  0  0  0
    9.1549   -5.7934    0.0000 C   0  0  0  0  0  0  0  0  0  0  0  0
    5.5825   -7.8559    0.0000 O   0  0  0  0  0  0  0  0  0  0  0  0
    7.0114   -7.8559    0.0000 O   0  0  0  0  0  0  0  0  0  0  0  0
    2.6507   -5.1612    0.0000 O   0  0  0  0  0  0  0  0  0  0  0  0
  1  2  1  0  0  0  0
  2  3  1  0  0  0  0
  3  4  1  0  0  0  0
  4  5  1  0  0  0  0
  5  6  1  0  0  0  0
  6  7  1  0  0  0  0
  1  7  1  0  0  0  0
  8  9  1  0  0  0  0
  9 10  1  0  0  0  0
 10 11  1  0  0  0  0
  5 11  2  0  0  0  0
  6  8  2  0  0  0  0
 12 13  1  0  0  0  0
 13 14  2  0  0  0  0
 14 15  1  0  0  0  0
 10 15  2  0  0  0  0
  9 12  2  0  0  0  0
  7 16  2  0  0  0  0
  3 17  1  0  0  0  0
 18 19  1  0  0  0  0
 14 18  1  0  0  0  0
  8 20  1  0  0  0  0
 12 21  1  0  0  0  0
  3 22  1  0  0  0  0
M  END
>  <cdx:fragmentId>
515

$$$$
