300926.cdx
  Mrv1902 05222410202D          

 85 90  0  0  0  0            999 V2000
    8.2079   -9.5168    0.0000 C   0  0  0  0  0  0  0  0  0  0  0  0
    8.2079  -10.3418    0.0000 C   0  0  0  0  0  0  0  0  0  0  0  0
    8.9223  -10.7543    0.0000 C   0  0  0  0  0  0  0  0  0  0  0  0
    9.6368  -10.3418    0.0000 C   0  0  0  0  0  0  0  0  0  0  0  0
    9.6368   -9.5168    0.0000 C   0  0  0  0  0  0  0  0  0  0  0  0
    8.9223   -9.1043    0.0000 C   0  0  0  0  0  0  0  0  0  0  0  0
   10.4214  -10.5968    0.0000 N   0  0  0  0  0  0  0  0  0  0  0  0
   10.9064   -9.9293    0.0000 C   0  0  0  0  0  0  0  0  0  0  0  0
   10.4214   -9.2619    0.0000 C   0  0  0  0  0  0  0  0  0  0  0  0
   11.7038  -10.6721    0.0000 N   0  0  0  0  0  0  0  0  0  0  0  0
   12.1888  -11.3395    0.0000 C   0  0  0  0  0  0  0  0  0  0  0  0
   12.9734  -11.0846    0.0000 C   0  0  0  0  0  0  0  0  0  0  0  0
   12.9734  -10.2596    0.0000 N   0  0  0  0  0  0  0  0  0  0  0  0
   12.1888  -10.0046    0.0000 C   0  0  0  0  0  0  0  0  0  0  0  0
   13.6879  -11.4971    0.0000 C   0  0  0  0  0  0  0  0  0  0  0  0
    7.4521  -10.4655    0.0000 C   0  0  2  0  0  0  0  0  0  0  0  0
    6.7377  -10.0530    0.0000 C   0  0  1  0  0  0  0  0  0  0  0  0
    6.3252   -9.3385    0.0000 C   0  0  0  0  0  0  0  0  0  0  0  0
    6.3252   -8.5135    0.0000 N   0  0  0  0  0  0  0  0  0  0  0  0
    5.5283   -9.5520    0.0000 O   0  0  0  0  0  0  0  0  0  0  0  0
    6.7377   -7.7991    0.0000 C   0  0  2  0  0  0  0  0  0  0  0  0
    7.4521   -7.3866    0.0000 C   0  0  0  0  0  0  0  0  0  0  0  0
    8.1666   -7.7991    0.0000 N   0  0  0  0  0  0  0  0  0  0  0  0
    8.8811   -7.3866    0.0000 C   0  0  2  0  0  0  0  0  0  0  0  0
    9.5955   -7.7991    0.0000 C   0  0  0  0  0  0  0  0  0  0  0  0
   10.3100   -7.3866    0.0000 N   0  0  0  0  0  0  0  0  0  0  0  0
   10.9007   -7.6478    0.0000 C   0  0  1  0  0  0  0  0  0  0  0  0
    9.5955   -8.6241    0.0000 O   0  0  0  0  0  0  0  0  0  0  0  0
    7.4521   -6.5616    0.0000 O   0  0  0  0  0  0  0  0  0  0  0  0
    8.8811   -6.5616    0.0000 C   0  0  0  0  0  0  0  0  0  0  0  0
    8.1666   -6.1491    0.0000 C   0  0  0  0  0  0  0  0  0  0  0  0
    9.5955   -6.1491    0.0000 C   0  0  0  0  0  0  0  0  0  0  0  0
    6.1543   -7.2157    0.0000 C   0  0  0  0  0  0  0  0  0  0  0  0
    6.3678   -6.4188    0.0000 C   0  0  0  0  0  0  0  0  0  0  0  0
    5.7845   -5.8354    0.0000 C   0  0  0  0  0  0  0  0  0  0  0  0
    7.4521  -11.2905    0.0000 C   0  0  0  0  0  0  0  0  0  0  0  0
    8.1666  -11.7030    0.0000 C   0  0  0  0  0  0  0  0  0  0  0  0
    6.7377  -11.7030    0.0000 C   0  0  0  0  0  0  0  0  0  0  0  0
   10.3802   -8.1481    0.0000 C   0  0  0  0  0  0  0  0  0  0  0  0
   11.7390   -7.3866    0.0000 C   0  0  0  0  0  0  0  0  0  0  0  0
   12.4534   -7.7991    0.0000 N   0  0  0  0  0  0  0  0  0  0  0  0
   13.1679   -7.3866    0.0000 C   0  0  2  0  0  0  0  0  0  0  0  0
   11.7390   -6.5616    0.0000 O   0  0  0  0  0  0  0  0  0  0  0  0
   14.4050   -7.7165    0.0000 C   0  0  0  0  0  0  0  0  0  0  0  0
   15.0392   -7.1889    0.0000 O   0  0  0  0  0  0  0  0  0  0  0  0
   13.1679   -6.5616    0.0000 C   0  0  0  0  0  0  0  0  0  0  0  0
   13.8824   -6.1491    0.0000 C   0  0  0  0  0  0  0  0  0  0  0  0
   13.8824   -5.3241    0.0000 C   0  0  0  0  0  0  0  0  0  0  0  0
   14.5968   -4.9116    0.0000 N   0  0  0  0  0  0  0  0  0  0  0  0
   15.3113   -5.3241    0.0000 C   0  0  0  0  0  0  0  0  0  0  0  0
   16.0258   -4.9116    0.0000 N   0  0  0  0  0  0  0  0  0  0  0  0
   15.3113   -6.1491    0.0000 N   0  0  0  0  0  0  0  0  0  0  0  0
    6.1543  -10.6364    0.0000 N   0  0  0  0  0  0  0  0  0  0  0  0
    5.3574  -10.8499    0.0000 C   0  0  0  0  0  0  0  0  0  0  0  0
    5.3574  -11.6749    0.0000 O   0  0  0  0  0  0  0  0  0  0  0  0
    4.5605  -10.6364    0.0000 C   0  0  1  0  0  0  0  0  0  0  0  0
    4.2649   -9.8662    0.0000 N   0  0  0  0  0  0  0  0  0  0  0  0
    3.4410   -9.9093    0.0000 C   0  0  0  0  0  0  0  0  0  0  0  0
    3.2275  -10.7062    0.0000 C   0  0  0  0  0  0  0  0  0  0  0  0
    3.9194  -11.1555    0.0000 C   0  0  0  0  0  0  0  0  0  0  0  0
    2.9218   -9.2682    0.0000 O   0  0  0  0  0  0  0  0  0  0  0  0
   10.9007   -6.8228    0.0000 H   0  0  0  0  0  0  0  0  0  0  0  0
    7.1647   -6.2053    0.0000 C   0  0  0  0  0  0  0  0  0  0  0  0
    7.3782   -5.4084    0.0000 C   0  0  0  0  0  0  0  0  0  0  0  0
   14.4050   -8.5415    0.0000 N   0  0  0  0  0  0  0  0  0  0  0  0
   15.1194   -8.9540    0.0000 C   0  0  0  0  0  0  0  0  0  0  0  0
   15.1194   -9.7790    0.0000 C   0  0  0  0  0  0  0  0  0  0  0  0
   15.8339  -10.1915    0.0000 O   0  0  0  0  0  0  0  0  0  0  0  0
   14.4023  -11.0846    0.0000 C   0  0  0  0  0  0  0  0  0  0  0  0
   14.4050  -10.1915    0.0000 N   0  0  0  0  0  0  0  0  0  0  0  0
   15.1162  -11.4981    0.0000 C   0  0  0  0  0  0  0  0  0  0  0  0
   15.8313  -11.0867    0.0000 N   0  0  0  0  0  0  0  0  0  0  0  0
   15.1150  -12.3231    0.0000 O   0  0  0  0  0  0  0  0  0  0  0  0
    8.1666   -5.3241    0.0000 C   0  0  0  0  0  0  0  0  0  0  0  0
   16.5451  -11.5002    0.0000 C   0  0  0  0  0  0  0  0  0  0  0  0
   17.2602  -11.0888    0.0000 C   0  0  0  0  0  0  0  0  0  0  0  0
   16.5439  -12.3252    0.0000 C   0  0  0  0  0  0  0  0  0  0  0  0
   17.9741  -11.5023    0.0000 O   0  0  0  0  0  0  0  0  0  0  0  0
   17.2614  -10.2638    0.0000 O   0  0  0  0  0  0  0  0  0  0  0  0
   15.8294  -12.7377    0.0000 C   0  0  0  0  0  0  0  0  0  0  0  0
   15.8294  -13.5627    0.0000 C   0  0  0  0  0  0  0  0  0  0  0  0
   15.1150  -13.9752    0.0000 N   0  0  0  0  0  0  0  0  0  0  0  0
   15.1150  -14.8002    0.0000 C   0  0  0  0  0  0  0  0  0  0  0  0
   14.4005  -15.2127    0.0000 N   0  0  0  0  0  0  0  0  0  0  0  0
   15.8294  -15.2127    0.0000 N   0  0  0  0  0  0  0  0  0  0  0  0
  1  2  2  0  0  0  0
  2  3  1  0  0  0  0
  3  4  2  0  0  0  0
  4  5  1  0  0  0  0
  5  6  2  0  0  0  0
  6  1  1  0  0  0  0
  4  7  1  0  0  0  0
  7  8  1  0  0  0  0
  8  9  2  0  0  0  0
  9  5  1  0  0  0  0
  8 10  1  0  0  0  0
 10 11  1  0  0  0  0
 11 12  2  0  0  0  0
 12 13  1  0  0  0  0
 13 14  2  0  0  0  0
 14 10  1  0  0  0  0
 12 15  1  0  0  0  0
  2 16  1  0  0  0  0
 16 17  1  0  0  0  0
 17 18  1  0  0  0  0
 18 19  1  0  0  0  0
 18 20  2  0  0  0  0
 19 21  1  0  0  0  0
 21 22  1  0  0  0  0
 22 23  1  0  0  0  0
 23 24  1  0  0  0  0
 24 25  1  0  0  0  0
 25 26  1  0  0  0  0
 26 27  1  0  0  0  0
 25 28  2  0  0  0  0
 22 29  2  0  0  0  0
 24 30  1  1  0  0  0
 30 31  1  0  0  0  0
 30 32  1  0  0  0  0
 21 33  1  1  0  0  0
 33 34  1  0  0  0  0
 34 35  1  0  0  0  0
 16 36  1  1  0  0  0
 36 37  1  0  0  0  0
 36 38  1  0  0  0  0
  9 39  1  0  0  0  0
 39 27  1  0  0  0  0
 27 40  1  6  0  0  0
 40 41  1  0  0  0  0
 41 42  1  0  0  0  0
 40 43  2  0  0  0  0
 42 44  1  0  0  0  0
 44 45  2  0  0  0  0
 42 46  1  1  0  0  0
 46 47  1  0  0  0  0
 47 48  1  0  0  0  0
 48 49  1  0  0  0  0
 49 50  1  0  0  0  0
 50 51  1  0  0  0  0
 50 52  2  0  0  0  0
 17 53  1  6  0  0  0
 53 54  1  0  0  0  0
 54 55  2  0  0  0  0
 54 56  1  0  0  0  0
 56 57  1  6  0  0  0
 57 58  1  0  0  0  0
 58 59  1  0  0  0  0
 59 60  1  0  0  0  0
 60 56  1  0  0  0  0
 58 61  2  0  0  0  0
 27 62  1  1  0  0  0
 34 63  1  0  0  0  0
 63 64  1  0  0  0  0
 44 65  1  0  0  0  0
 65 66  1  0  0  0  0
 66 67  1  0  0  0  0
 67 68  2  0  0  0  0
 15 69  1  0  0  0  0
 67 70  1  0  0  0  0
 70 69  1  0  0  0  0
 69 71  1  0  0  0  0
 71 72  1  0  0  0  0
 71 73  2  0  0  0  0
 31 74  1  0  0  0  0
 72 75  1  0  0  0  0
 75 76  1  0  0  0  0
 75 77  1  0  0  0  0
 76 78  1  0  0  0  0
 76 79  2  0  0  0  0
 77 80  1  0  0  0  0
 80 81  1  0  0  0  0
 81 82  1  0  0  0  0
 82 83  1  0  0  0  0
 83 84  1  0  0  0  0
 83 85  2  0  0  0  0
M  END
>  <cdx:fragmentId>
5

$$$$
