300901.cdx
  Mrv1902 05222410252D          

 11 10  0  0  0  0            999 V2000
    6.5148   -6.4344    0.0000 C   0  0  0  0  0  0  0  0  0  0  0  0
    5.8004   -6.8469    0.0000 N   0  0  0  0  0  0  0  0  0  0  0  0
    6.5148   -5.6094    0.0000 O   0  0  0  0  0  0  0  0  0  0  0  0
    7.2293   -6.8469    0.0000 O   0  0  0  0  0  0  0  0  0  0  0  0
    5.0859   -6.4344    0.0000 C   0  0  0  0  0  0  0  0  0  0  0  0
    5.0859   -5.6094    0.0000 O   0  0  0  0  0  0  0  0  0  0  0  0
    4.3714   -6.8469    0.0000 C   0  0  0  0  0  0  0  0  0  0  0  0
    3.6569   -6.4344    0.0000 C   0  0  0  0  0  0  0  0  0  0  0  0
    2.9425   -6.0219    0.0000 N   0  0  0  0  0  0  0  0  0  0  0  0
    7.9438   -6.4344    0.0000 C   0  0  0  0  0  0  0  0  0  0  0  0
    8.6582   -6.8469    0.0000 C   0  0  0  0  0  0  0  0  0  0  0  0
  1  2  1  0  0  0  0
  1  3  2  0  0  0  0
  1  4  1  0  0  0  0
  5  6  2  0  0  0  0
  5  7  1  0  0  0  0
  8  9  3  0  0  0  0
  7  8  1  0  0  0  0
  2  5  1  0  0  0  0
 10 11  1  0  0  0  0
  4 10  1  0  0  0  0
M  END
>  <cdx:fragmentId>
102

$$$$
