300907.cdx
  Mrv1902 05222410232D          

 15 15  0  0  0  0            999 V2000
    3.9682   -6.3501    0.0000 Si  0  0  0  0  0  0  0  0  0  0  0  0
    4.6827   -6.7626    0.0000 O   0  0  0  0  0  0  0  0  0  0  0  0
    5.3971   -6.3501    0.0000 C   0  0  0  0  0  0  0  0  0  0  0  0
    5.3971   -5.5251    0.0000 C   0  0  0  0  0  0  0  0  0  0  0  0
    6.1116   -5.1126    0.0000 C   0  0  0  0  0  0  0  0  0  0  0  0
    6.8261   -5.5251    0.0000 C   0  0  0  0  0  0  0  0  0  0  0  0
    6.8261   -6.3501    0.0000 C   0  0  0  0  0  0  0  0  0  0  0  0
    6.1116   -6.7626    0.0000 C   0  0  0  0  0  0  0  0  0  0  0  0
    7.5406   -7.5876    0.0000 C   0  0  0  0  0  0  0  0  0  0  0  0
    7.5406   -6.7626    0.0000 C   0  0  0  0  0  0  0  0  0  0  0  0
    8.2550   -6.3501    0.0000 C   0  0  0  0  0  0  0  0  0  0  0  0
    4.6827   -5.1126    0.0000 C   0  0  0  0  0  0  0  0  0  0  0  0
    3.2537   -6.7626    0.0000 C   0  0  0  0  0  0  0  0  0  0  0  0
    3.9682   -5.5251    0.0000 C   0  0  0  0  0  0  0  0  0  0  0  0
    3.2537   -5.9376    0.0000 C   0  0  0  0  0  0  0  0  0  0  0  0
  3  4  1  0  0  0  0
  4  5  2  0  0  0  0
  5  6  1  0  0  0  0
  6  7  2  0  0  0  0
  7  8  1  0  0  0  0
  3  8  2  0  0  0  0
  2  3  1  0  0  0  0
  9 10  1  0  0  0  0
 10 11  1  0  0  0  0
  7 10  1  0  0  0  0
  4 12  1  0  0  0  0
  1  2  1  0  0  0  0
  1 13  1  0  0  0  0
  1 14  1  0  0  0  0
  1 15  1  0  0  0  0
M  END
>  <cdx:fragmentId>
471

$$$$
