300929.cdx
  Mrv1902 05222410252D          

 81 89  0  0  0  0            999 V2000
   15.5619   -8.3123    0.0000 O   0  0  0  0  0  0  0  0  0  0  0  0
   16.2763   -7.8998    0.0000 C   0  0  2  0  0  0  0  0  0  0  0  0
   16.2763   -7.0748    0.0000 C   0  0  1  0  0  0  0  0  0  0  0  0
   15.5619   -6.6623    0.0000 C   0  0  2  0  0  0  0  0  0  0  0  0
   14.8474   -7.0748    0.0000 C   0  0  2  0  0  0  0  0  0  0  0  0
   14.8474   -7.8998    0.0000 C   0  0  2  0  0  0  0  0  0  0  0  0
   16.9908   -8.3123    0.0000 C   0  0  0  0  0  0  0  0  0  0  0  0
   14.1329   -6.6623    0.0000 O   0  0  0  0  0  0  0  0  0  0  0  0
   15.5619   -5.8373    0.0000 O   0  0  0  0  0  0  0  0  0  0  0  0
   14.1329   -8.3123    0.0000 O   0  0  0  0  0  0  0  0  0  0  0  0
   13.4184  -10.3748    0.0000 O   0  0  0  0  0  0  0  0  0  0  0  0
   13.4184   -9.5498    0.0000 C   0  0  2  0  0  0  0  0  0  0  0  0
   14.1329   -9.1373    0.0000 C   0  0  1  0  0  0  0  0  0  0  0  0
   14.8474   -9.5498    0.0000 C   0  0  2  0  0  0  0  0  0  0  0  0
   14.8474  -10.3748    0.0000 C   0  0  2  0  0  0  0  0  0  0  0  0
   14.1329  -10.7873    0.0000 C   0  0  1  0  0  0  0  0  0  0  0  0
   14.1329  -11.6123    0.0000 C   0  0  0  0  0  0  0  0  0  0  0  0
   15.5619  -10.7873    0.0000 O   0  0  0  0  0  0  0  0  0  0  0  0
   15.5619   -9.1373    0.0000 O   0  0  0  0  0  0  0  0  0  0  0  0
   12.7040   -9.1373    0.0000 O   0  0  0  0  0  0  0  0  0  0  0  0
   11.9895   -9.5498    0.0000 C   0  0  0  0  0  0  0  0  0  0  0  0
   11.9895  -10.3748    0.0000 O   0  0  0  0  0  0  0  0  0  0  0  0
   10.5606   -7.8998    0.0000 C   0  0  0  0  0  0  0  0  0  0  0  0
   11.2750   -7.4873    0.0000 C   0  0  2  0  0  0  0  0  0  0  0  0
   11.9895   -7.8998    0.0000 C   0  0  0  0  0  0  0  0  0  0  0  0
   11.9895   -8.7248    0.0000 C   0  0  0  0  0  0  0  0  0  0  0  0
   11.2750   -9.1373    0.0000 C   0  0  1  0  0  0  0  0  0  0  0  0
   11.2750   -9.9623    0.0000 C   0  0  0  0  0  0  0  0  0  0  0  0
   10.5606  -10.3748    0.0000 C   0  0  0  0  0  0  0  0  0  0  0  0
    9.8461   -9.9623    0.0000 C   0  0  1  0  0  0  0  0  0  0  0  0
    9.1316  -10.3748    0.0000 C   0  0  2  0  0  0  0  0  0  0  0  0
    9.1316  -11.1998    0.0000 C   0  0  0  0  0  0  0  0  0  0  0  0
    8.4172  -11.6123    0.0000 C   0  0  0  0  0  0  0  0  0  0  0  0
    7.7027  -11.1998    0.0000 C   0  0  1  0  0  0  0  0  0  0  0  0
    6.9882  -11.6123    0.0000 C   0  0  2  0  0  0  0  0  0  0  0  0
    6.2737  -11.1998    0.0000 C   0  0  2  0  0  0  0  0  0  0  0  0
    6.2737  -10.3748    0.0000 C   0  0  0  0  0  0  0  0  0  0  0  0
    6.9882   -9.9623    0.0000 C   0  0  0  0  0  0  0  0  0  0  0  0
    7.7027  -10.3748    0.0000 C   0  0  2  0  0  0  0  0  0  0  0  0
    8.4172   -9.9623    0.0000 C   0  0  1  0  0  0  0  0  0  0  0  0
    8.4172   -9.1373    0.0000 C   0  0  0  0  0  0  0  0  0  0  0  0
    9.1316   -8.7248    0.0000 C   0  0  0  0  0  0  0  0  0  0  0  0
    9.8461   -9.1373    0.0000 C   0  0  0  0  0  0  0  0  0  0  0  0
   10.5606   -8.7248    0.0000 C   0  0  2  0  0  0  0  0  0  0  0  0
    7.7027   -9.5498    0.0000 C   0  0  0  0  0  0  0  0  0  0  0  0
    9.1316   -9.5498    0.0000 C   0  0  0  0  0  0  0  0  0  0  0  0
    9.8461  -10.7873    0.0000 C   0  0  0  0  0  0  0  0  0  0  0  0
   10.8625   -6.7729    0.0000 C   0  0  0  0  0  0  0  0  0  0  0  0
   11.6875   -6.7729    0.0000 C   0  0  0  0  0  0  0  0  0  0  0  0
    7.7027  -12.0248    0.0000 H   0  0  0  0  0  0  0  0  0  0  0  0
   10.5606   -9.5498    0.0000 H   0  0  0  0  0  0  0  0  0  0  0  0
   16.9908   -6.6623    0.0000 O   0  0  0  0  0  0  0  0  0  0  0  0
   19.8580   -8.2960    0.0000 O   0  0  0  0  0  0  0  0  0  0  0  0
   19.8486   -6.6461    0.0000 O   0  0  0  0  0  0  0  0  0  0  0  0
   18.4150   -5.8292    0.0000 O   0  0  0  0  0  0  0  0  0  0  0  0
   17.7217   -9.5457    0.0000 O   0  0  0  0  0  0  0  0  0  0  0  0
   19.1506   -9.5376    0.0000 O   0  0  0  0  0  0  0  0  0  0  0  0
   18.4338   -9.1292    0.0000 C   0  0  0  0  0  0  0  0  0  0  0  0
   17.7076   -7.0708    0.0000 C   0  0  1  0  0  0  0  0  0  0  0  0
   18.4197   -6.6542    0.0000 C   0  0  1  0  0  0  0  0  0  0  0  0
   19.1365   -7.0626    0.0000 C   0  0  2  0  0  0  0  0  0  0  0  0
   19.1412   -7.8876    0.0000 C   0  0  1  0  0  0  0  0  0  0  0  0
   18.4291   -8.3042    0.0000 C   0  0  2  0  0  0  0  0  0  0  0  0
    4.1285  -12.4342    0.0000 O   0  0  0  0  0  0  0  0  0  0  0  0
    2.7014  -11.6060    0.0000 O   0  0  0  0  0  0  0  0  0  0  0  0
    2.7050   -9.9560    0.0000 O   0  0  0  0  0  0  0  0  0  0  0  0
    3.4223   -8.7201    0.0000 O   0  0  0  0  0  0  0  0  0  0  0  0
    4.1358   -9.1342    0.0000 C   0  0  0  0  0  0  0  0  0  0  0  0
    4.1340   -9.9592    0.0000 C   0  0  2  0  0  0  0  0  0  0  0  0
    3.4186  -10.3701    0.0000 C   0  0  2  0  0  0  0  0  0  0  0  0
    3.4168  -11.1951    0.0000 C   0  0  1  0  0  0  0  0  0  0  0  0
    4.1303  -11.6092    0.0000 C   0  0  2  0  0  0  0  0  0  0  0  0
    4.8457  -11.1982    0.0000 C   0  0  1  0  0  0  0  0  0  0  0  0
    4.8475  -10.3732    0.0000 O   0  0  0  0  0  0  0  0  0  0  0  0
    5.5593  -11.6123    0.0000 O   0  0  0  0  0  0  0  0  0  0  0  0
   17.7123   -7.8957    0.0000 O   0  0  0  0  0  0  0  0  0  0  0  0
    6.5757  -12.3268    0.0000 C   0  0  0  0  0  0  0  0  0  0  0  0
    7.4007  -12.3268    0.0000 C   0  0  0  0  0  0  0  0  0  0  0  0
    6.9882  -13.0413    0.0000 O   0  0  0  0  0  0  0  0  0  0  0  0
    8.2257  -12.3268    0.0000 O   0  0  0  0  0  0  0  0  0  0  0  0
    8.4172  -10.7873    0.0000 H   0  0  0  0  0  0  0  0  0  0  0  0
 59 52  1  1  0  0  0
 62 53  1  6  0  0  0
 61 54  1  1  0  0  0
 60 55  1  6  0  0  0
 63 58  1  1  0  0  0
 58 56  1  0  0  0  0
 58 57  2  0  0  0  0
 76 59  1  0  0  0  0
 60 59  1  0  0  0  0
 61 60  1  0  0  0  0
 62 61  1  0  0  0  0
 63 62  1  0  0  0  0
 76 63  1  0  0  0  0
 73 75  1  1  0  0  0
 72 64  1  6  0  0  0
 71 65  1  1  0  0  0
 70 66  1  6  0  0  0
 69 68  1  1  0  0  0
 68 67  1  0  0  0  0
 74 69  1  0  0  0  0
 70 69  1  0  0  0  0
 71 70  1  0  0  0  0
 72 71  1  0  0  0  0
 73 72  1  0  0  0  0
 74 73  1  0  0  0  0
  1  2  1  0  0  0  0
  2  3  1  0  0  0  0
  3  4  1  0  0  0  0
  4  5  1  0  0  0  0
  5  6  1  0  0  0  0
  1  6  1  0  0  0  0
  2  7  1  6  0  0  0
  5  8  1  6  0  0  0
  4  9  1  6  0  0  0
 11 12  1  0  0  0  0
 12 13  1  0  0  0  0
 13 14  1  0  0  0  0
 14 15  1  0  0  0  0
 15 16  1  0  0  0  0
 11 16  1  0  0  0  0
 16 17  1  1  0  0  0
 15 18  1  1  0  0  0
 14 19  1  1  0  0  0
 21 22  2  0  0  0  0
 23 24  1  0  0  0  0
 24 25  1  0  0  0  0
 25 26  1  0  0  0  0
 26 27  1  0  0  0  0
 27 28  1  0  0  0  0
 28 29  1  0  0  0  0
 29 30  1  0  0  0  0
 30 31  1  0  0  0  0
 31 32  1  0  0  0  0
 32 33  1  0  0  0  0
 33 34  1  0  0  0  0
 34 35  1  0  0  0  0
 35 36  1  0  0  0  0
 36 37  1  0  0  0  0
 37 38  1  0  0  0  0
 38 39  1  0  0  0  0
 34 39  1  0  0  0  0
 39 40  1  0  0  0  0
 31 40  1  0  0  0  0
 40 41  1  0  0  0  0
 41 42  1  0  0  0  0
 42 43  2  0  0  0  0
 30 43  1  0  0  0  0
 43 44  1  0  0  0  0
 27 44  1  0  0  0  0
 23 44  1  0  0  0  0
 27 21  1  1  0  0  0
 36 75  1  1  0  0  0
 39 45  1  1  0  0  0
 31 46  1  1  0  0  0
 30 47  1  6  0  0  0
 24 48  1  1  0  0  0
 24 49  1  6  0  0  0
 20 21  1  0  0  0  0
 12 20  1  1  0  0  0
 13 10  1  6  0  0  0
  6 10  1  1  0  0  0
  3 52  1  1  0  0  0
 34 50  1  6  0  0  0
 44 51  1  1  0  0  0
 35 77  1  1  0  0  0
 35 78  1  6  0  0  0
 78 79  1  0  0  0  0
 78 80  2  0  0  0  0
 40 81  1  6  0  0  0
M  END
>  <cdx:fragmentId>
3814

$$$$
