300993.cdx
  Mrv1902 05222410182D          

 19 18  0  0  0  0            999 V2000
    2.8077   -7.5439    0.0000 C   0  0  0  0  0  0  0  0  0  0  0  0
    3.5222   -7.1314    0.0000 C   0  0  0  0  0  0  0  0  0  0  0  0
    4.2367   -7.5439    0.0000 C   0  0  0  0  0  0  0  0  0  0  0  0
    4.9511   -7.1314    0.0000 C   0  0  0  0  0  0  0  0  0  0  0  0
    5.6656   -7.5439    0.0000 C   0  0  0  0  0  0  0  0  0  0  0  0
    6.3801   -7.1314    0.0000 C   0  0  0  0  0  0  0  0  0  0  0  0
    7.0945   -7.5439    0.0000 C   0  0  0  0  0  0  0  0  0  0  0  0
    7.8090   -7.1314    0.0000 C   0  0  0  0  0  0  0  0  0  0  0  0
    8.5235   -7.5439    0.0000 C   0  0  0  0  0  0  0  0  0  0  0  0
    9.2380   -7.1314    0.0000 C   0  0  0  0  0  0  0  0  0  0  0  0
    9.9522   -7.5443    0.0000 C   0  0  0  0  0  0  0  0  0  0  0  0
    9.9514   -8.3693    0.0000 C   0  0  0  0  0  0  0  0  0  0  0  0
   10.6655   -8.7825    0.0000 C   0  0  0  0  0  0  0  0  0  0  0  0
   10.6646   -9.6075    0.0000 C   0  0  0  0  0  0  0  0  0  0  0  0
   11.3787  -10.0207    0.0000 C   0  0  0  0  0  0  0  0  0  0  0  0
   11.3779  -10.8457    0.0000 C   0  0  0  0  0  0  0  0  0  0  0  0
   12.0920  -11.2589    0.0000 C   0  0  0  0  0  0  0  0  0  0  0  0
    2.8077   -8.3689    0.0000 O   0  0  0  0  0  0  0  0  0  0  0  0
    2.0932   -7.1314    0.0000 O   0  0  0  0  0  0  0  0  0  0  0  0
  1  2  1  0  0  0  0
  2  3  1  0  0  0  0
  3  4  1  0  0  0  0
  4  5  1  0  0  0  0
  5  6  1  0  0  0  0
  6  7  1  0  0  0  0
  7  8  1  0  0  0  0
  8  9  1  0  0  0  0
  9 10  1  0  0  0  0
 10 11  2  0  0  0  0
 11 12  1  0  0  0  0
 12 13  1  0  0  0  0
 13 14  1  0  0  0  0
 14 15  1  0  0  0  0
 15 16  1  0  0  0  0
 16 17  1  0  0  0  0
  1 18  2  0  0  0  0
  1 19  1  0  0  0  0
M  END
>  <cdx:fragmentId>
10694

$$$$
