300911.cdx
  Mrv1902 05222410242D          

 64 70  0  0  0  0            999 V2000
    6.0213  -10.3438    0.0000 O   0  0  0  0  0  0  0  0  0  0  0  0
    4.5924   -7.8687    0.0000 O   0  0  0  0  0  0  0  0  0  0  0  0
    5.3068   -6.6312    0.0000 O   0  0  0  0  0  0  0  0  0  0  0  0
    6.0213   -7.0437    0.0000 C   0  0  0  0  0  0  0  0  0  0  0  0
    3.1634  -10.3438    0.0000 O   0  0  0  0  0  0  0  0  0  0  0  0
    1.7345   -9.5188    0.0000 O   0  0  0  0  0  0  0  0  0  0  0  0
    1.7345   -7.8687    0.0000 O   0  0  0  0  0  0  0  0  0  0  0  0
    3.8779   -5.8062    0.0000 O   0  0  0  0  0  0  0  0  0  0  0  0
    3.8779   -4.1562    0.0000 O   0  0  0  0  0  0  0  0  0  0  0  0
    2.4490   -3.3312    0.0000 O   0  0  0  0  0  0  0  0  0  0  0  0
    0.3055   -4.5687    0.0000 O   0  0  0  0  0  0  0  0  0  0  0  0
    1.0200   -4.1562    0.0000 C   0  0  0  0  0  0  0  0  0  0  0  0
    1.7345   -4.5687    0.0000 C   0  0  2  0  0  0  0  0  0  0  0  0
    2.4490   -4.1562    0.0000 C   0  0  2  0  0  0  0  0  0  0  0  0
    3.1634   -4.5687    0.0000 C   0  0  1  0  0  0  0  0  0  0  0  0
    3.1634   -5.3937    0.0000 C   0  0  2  0  0  0  0  0  0  0  0  0
    2.4490   -5.8062    0.0000 C   0  0  1  0  0  0  0  0  0  0  0  0
    1.7345   -5.3937    0.0000 O   0  0  0  0  0  0  0  0  0  0  0  0
    2.4490   -6.6312    0.0000 O   0  0  0  0  0  0  0  0  0  0  0  0
    3.1634   -7.0437    0.0000 C   0  0  0  0  0  0  0  0  0  0  0  0
    3.1634   -7.8687    0.0000 C   0  0  2  0  0  0  0  0  0  0  0  0
    2.4490   -8.2812    0.0000 C   0  0  2  0  0  0  0  0  0  0  0  0
    2.4490   -9.1063    0.0000 C   0  0  1  0  0  0  0  0  0  0  0  0
    3.1634   -9.5188    0.0000 C   0  0  2  0  0  0  0  0  0  0  0  0
    3.8779   -9.1063    0.0000 C   0  0  1  0  0  0  0  0  0  0  0  0
    3.8779   -8.2812    0.0000 O   0  0  0  0  0  0  0  0  0  0  0  0
    4.5924   -9.5188    0.0000 O   0  0  0  0  0  0  0  0  0  0  0  0
    6.0213   -7.8687    0.0000 C   0  0  2  0  0  0  0  0  0  0  0  0
    5.3068   -8.2812    0.0000 C   0  0  2  0  0  0  0  0  0  0  0  0
    5.3068   -9.1063    0.0000 C   0  0  1  0  0  0  0  0  0  0  0  0
    6.0213   -9.5188    0.0000 C   0  0  2  0  0  0  0  0  0  0  0  0
    6.7358   -9.1063    0.0000 C   0  0  1  0  0  0  0  0  0  0  0  0
    6.7358   -8.2812    0.0000 O   0  0  0  0  0  0  0  0  0  0  0  0
    7.4503   -9.5188    0.0000 O   0  0  0  0  0  0  0  0  0  0  0  0
    8.1647   -9.1063    0.0000 C   0  0  0  0  0  0  0  0  0  0  0  0
   11.0226  -10.7563    0.0000 O   0  0  0  0  0  0  0  0  0  0  0  0
    9.5937  -11.5813    0.0000 O   0  0  0  0  0  0  0  0  0  0  0  0
    8.1647  -10.7563    0.0000 O   0  0  0  0  0  0  0  0  0  0  0  0
    8.8792   -9.5188    0.0000 C   0  0  2  0  0  0  0  0  0  0  0  0
    8.8792  -10.3438    0.0000 C   0  0  2  0  0  0  0  0  0  0  0  0
    9.5937  -10.7563    0.0000 C   0  0  1  0  0  0  0  0  0  0  0  0
   10.3081  -10.3438    0.0000 C   0  0  2  0  0  0  0  0  0  0  0  0
   10.3081   -9.5188    0.0000 C   0  0  1  0  0  0  0  0  0  0  0  0
    9.5937   -9.1063    0.0000 O   0  0  0  0  0  0  0  0  0  0  0  0
   11.0226   -9.1063    0.0000 O   0  0  0  0  0  0  0  0  0  0  0  0
   12.4516   -9.1063    0.0000 O   0  0  0  0  0  0  0  0  0  0  0  0
    8.8792   -7.0437    0.0000 C   0  0  0  0  0  0  0  0  0  0  0  0
    9.5937   -6.6312    0.0000 O   0  0  0  0  0  0  0  0  0  0  0  0
   15.3094   -6.6312    0.0000 C   0  0  0  0  0  0  0  0  0  0  0  0
   13.8805   -9.1063    0.0000 O   0  0  0  0  0  0  0  0  0  0  0  0
   11.0226   -6.6312    0.0000 C   0  0  0  0  0  0  0  0  0  0  0  0
   10.3081   -7.0437    0.0000 C   0  0  0  0  0  0  0  0  0  0  0  0
   10.3081   -7.8687    0.0000 C   0  0  0  0  0  0  0  0  0  0  0  0
   11.0226   -8.2812    0.0000 C   0  0  0  0  0  0  0  0  0  0  0  0
   13.8805   -8.2812    0.0000 C   0  0  0  0  0  0  0  0  0  0  0  0
   13.1660   -7.8687    0.0000 C   0  0  0  0  0  0  0  0  0  0  0  0
   12.4516   -8.2812    0.0000 C   0  0  0  0  0  0  0  0  0  0  0  0
   11.7371   -7.8687    0.0000 C   0  0  0  0  0  0  0  0  0  0  0  0
   11.7371   -7.0437    0.0000 C   0  0  0  0  0  0  0  0  0  0  0  0
   12.4516   -6.6312    0.0000 C   0  0  0  0  0  0  0  0  0  0  0  0
   13.1660   -7.0437    0.0000 C   0  0  0  0  0  0  0  0  0  0  0  0
   13.8805   -6.6312    0.0000 C   0  0  0  0  0  0  0  0  0  0  0  0
   14.5950   -7.0437    0.0000 C   0  0  0  0  0  0  0  0  0  0  0  0
   14.5950   -7.8687    0.0000 O   0  0  0  0  0  0  0  0  0  0  0  0
 54 45  1  0  0  0  0
 43 45  1  1  0  0  0
 39 35  1  1  0  0  0
 35 34  1  0  0  0  0
 32 34  1  1  0  0  0
 31  1  1  6  0  0  0
 29  2  1  6  0  0  0
 28  4  1  1  0  0  0
  4  3  1  0  0  0  0
 30 27  1  1  0  0  0
 25 27  1  1  0  0  0
 24  5  1  6  0  0  0
 23  6  1  1  0  0  0
 22  7  1  6  0  0  0
 21 20  1  1  0  0  0
 20 19  1  0  0  0  0
 17 19  1  6  0  0  0
 16  8  1  1  0  0  0
 15  9  1  6  0  0  0
 14 10  1  1  0  0  0
 13 12  1  6  0  0  0
 12 11  1  0  0  0  0
 18 13  1  0  0  0  0
 14 13  1  0  0  0  0
 15 14  1  0  0  0  0
 16 15  1  0  0  0  0
 17 16  1  0  0  0  0
 18 17  1  0  0  0  0
 26 21  1  0  0  0  0
 22 21  1  0  0  0  0
 23 22  1  0  0  0  0
 24 23  1  0  0  0  0
 25 24  1  0  0  0  0
 26 25  1  0  0  0  0
 33 28  1  0  0  0  0
 29 28  1  0  0  0  0
 30 29  1  0  0  0  0
 31 30  1  0  0  0  0
 32 31  1  0  0  0  0
 33 32  1  0  0  0  0
 42 36  1  6  0  0  0
 41 37  1  1  0  0  0
 40 38  1  6  0  0  0
 44 39  1  0  0  0  0
 40 39  1  0  0  0  0
 41 40  1  0  0  0  0
 42 41  1  0  0  0  0
 43 42  1  0  0  0  0
 44 43  1  0  0  0  0
 57 46  1  0  0  0  0
 52 48  1  0  0  0  0
 48 47  1  0  0  0  0
 63 49  1  0  0  0  0
 55 50  2  0  0  0  0
 58 54  1  0  0  0  0
 59 51  1  0  0  0  0
 52 51  2  0  0  0  0
 53 52  1  0  0  0  0
 54 53  2  0  0  0  0
 64 55  1  0  0  0  0
 56 55  1  0  0  0  0
 61 56  2  0  0  0  0
 57 56  1  0  0  0  0
 58 57  2  0  0  0  0
 59 58  1  0  0  0  0
 60 59  2  0  0  0  0
 61 60  1  0  0  0  0
 62 61  1  0  0  0  0
 63 62  2  0  0  0  0
 64 63  1  0  0  0  0
M  END
>  <cdx:fragmentId>
887

$$$$
