300931.cdx
  Mrv1902 05222410212D          

 84 94  0  0  0  0            999 V2000
    8.4131  -11.6463    0.0000 C   0  0  0  0  0  0  0  0  0  0  0  0
    8.4131  -12.4712    0.0000 C   0  0  1  0  0  0  0  0  0  0  0  0
    9.1275  -12.8837    0.0000 C   0  0  1  0  0  0  0  0  0  0  0  0
    9.8420  -12.4712    0.0000 C   0  0  1  0  0  0  0  0  0  0  0  0
    9.8420  -11.6463    0.0000 C   0  0  2  0  0  0  0  0  0  0  0  0
    9.1275  -11.2338    0.0000 C   0  0  0  0  0  0  0  0  0  0  0  0
   10.5565  -12.8837    0.0000 C   0  0  0  0  0  0  0  0  0  0  0  0
   11.2709  -12.4712    0.0000 C   0  0  0  0  0  0  0  0  0  0  0  0
   11.2709  -11.6463    0.0000 C   0  0  2  0  0  0  0  0  0  0  0  0
   10.5565  -11.2338    0.0000 C   0  0  1  0  0  0  0  0  0  0  0  0
   11.9854  -11.2338    0.0000 C   0  0  2  0  0  0  0  0  0  0  0  0
   11.9854  -10.4087    0.0000 C   0  0  1  0  0  0  0  0  0  0  0  0
   11.2709   -9.9962    0.0000 C   0  0  1  0  0  0  0  0  0  0  0  0
   10.5565  -10.4087    0.0000 C   0  0  0  0  0  0  0  0  0  0  0  0
    7.6986  -12.8837    0.0000 O   0  0  0  0  0  0  0  0  0  0  0  0
    6.9875  -12.4655    0.0000 C   0  0  1  0  0  0  0  0  0  0  0  0
    6.2697  -12.8722    0.0000 C   0  0  1  0  0  0  0  0  0  0  0  0
    6.9941  -11.6405    0.0000 O   0  0  0  0  0  0  0  0  0  0  0  0
    6.2830  -11.2223    0.0000 C   0  0  0  0  0  0  0  0  0  0  0  0
    5.5652  -11.6290    0.0000 C   0  0  2  0  0  0  0  0  0  0  0  0
    5.5586  -12.4540    0.0000 C   0  0  2  0  0  0  0  0  0  0  0  0
    9.8420  -10.8212    0.0000 C   0  0  0  0  0  0  0  0  0  0  0  0
    8.7150  -13.5982    0.0000 C   0  0  0  0  0  0  0  0  0  0  0  0
   11.9854   -9.5838    0.0000 C   0  0  0  0  0  0  0  0  0  0  0  0
    4.8408  -12.8607    0.0000 O   0  0  0  0  0  0  0  0  0  0  0  0
    6.2630  -13.6972    0.0000 O   0  0  0  0  0  0  0  0  0  0  0  0
    4.8541  -11.2108    0.0000 O   0  0  0  0  0  0  0  0  0  0  0  0
    9.5400  -13.5982    0.0000 C   0  0  0  0  0  0  0  0  0  0  0  0
   11.9854  -12.0587    0.0000 C   0  0  0  0  0  0  0  0  0  0  0  0
    9.8420  -13.2962    0.0000 H   0  0  0  0  0  0  0  0  0  0  0  0
   12.7700  -11.4887    0.0000 C   0  0  0  0  0  0  0  0  0  0  0  0
   13.2550  -10.8212    0.0000 C   0  0  1  0  0  0  0  0  0  0  0  0
   12.7700  -10.1538    0.0000 C   0  0  2  0  0  0  0  0  0  0  0  0
   14.0754  -10.7350    0.0000 O   0  0  0  0  0  0  0  0  0  0  0  0
   14.4110   -9.9813    0.0000 C   0  0  1  0  0  0  0  0  0  0  0  0
   13.9261   -9.3139    0.0000 C   0  0  0  0  0  0  0  0  0  0  0  0
   13.1056   -9.4001    0.0000 C   0  0  1  0  0  0  0  0  0  0  0  0
   13.6675  -11.5357    0.0000 H   0  0  0  0  0  0  0  0  0  0  0  0
   12.6207   -8.7327    0.0000 C   0  0  0  0  0  0  0  0  0  0  0  0
   11.2709  -10.8212    0.0000 H   0  0  0  0  0  0  0  0  0  0  0  0
   11.2709   -9.1713    0.0000 O   0  0  0  0  0  0  0  0  0  0  0  0
   10.5565   -8.7588    0.0000 C   0  0  0  0  0  0  0  0  0  0  0  0
   10.5565   -7.9337    0.0000 O   0  0  0  0  0  0  0  0  0  0  0  0
    9.8420   -9.1713    0.0000 C   0  0  0  0  0  0  0  0  0  0  0  0
   12.3575   -9.4393    0.0000 H   0  0  0  0  0  0  0  0  0  0  0  0
    7.4681   -4.5717    0.0000 H   0  0  0  0  0  0  0  0  0  0  0  0
    6.4615   -3.5575    0.0000 O   0  0  0  0  0  0  0  0  0  0  0  0
    7.0411   -4.5701    0.0000 C   0  0  0  0  0  0  0  0  0  0  0  0
    7.4741   -2.9780    0.0000 C   0  0  0  0  0  0  0  0  0  0  0  0
    7.2576   -3.7740    0.0000 C   0  0  0  0  0  0  0  0  0  0  0  0
   11.1989   -2.7086    0.0000 C   0  0  0  0  0  0  0  0  0  0  0  0
   10.4012   -2.9191    0.0000 O   0  0  0  0  0  0  0  0  0  0  0  0
    8.6968   -3.4738    0.0000 C   0  0  0  0  0  0  0  0  0  0  0  0
    8.0537   -3.9906    0.0000 C   0  0  2  0  0  0  0  0  0  0  0  0
    8.3464   -4.7619    0.0000 O   0  0  0  0  0  0  0  0  0  0  0  0
   10.1847   -3.7152    0.0000 C   0  0  0  0  0  0  0  0  0  0  0  0
    9.3870   -3.9257    0.0000 C   0  0  0  0  0  0  0  0  0  0  0  0
    9.1705   -4.7218    0.0000 C   0  0  0  0  0  0  0  0  0  0  0  0
    9.7516   -5.3073    0.0000 C   0  0  0  0  0  0  0  0  0  0  0  0
   11.7800   -3.2941    0.0000 O   0  0  0  0  0  0  0  0  0  0  0  0
   12.1447   -4.6757    0.0000 C   0  0  0  0  0  0  0  0  0  0  0  0
   11.5635   -4.0902    0.0000 C   0  0  0  0  0  0  0  0  0  0  0  0
   10.7658   -4.3007    0.0000 C   0  0  0  0  0  0  0  0  0  0  0  0
   10.5493   -5.0968    0.0000 C   0  0  0  0  0  0  0  0  0  0  0  0
   11.1305   -5.6824    0.0000 O   0  0  0  0  0  0  0  0  0  0  0  0
   11.9282   -5.4718    0.0000 C   0  0  0  0  0  0  0  0  0  0  0  0
   12.5093   -6.0574    0.0000 C   0  0  0  0  0  0  0  0  0  0  0  0
   15.2315   -9.8951    0.0000 C   0  0  0  0  0  0  0  0  0  0  0  0
   15.7164  -10.5625    0.0000 C   0  0  0  0  0  0  0  0  0  0  0  0
   15.5670   -9.1414    0.0000 O   0  0  0  0  0  0  0  0  0  0  0  0
   15.3808  -11.3162    0.0000 C   0  0  0  0  0  0  0  0  0  0  0  0
   16.5369  -10.4763    0.0000 C   0  0  0  0  0  0  0  0  0  0  0  0
   14.6245   -9.1844    0.0000 O   0  0  0  0  0  0  0  0  0  0  0  0
   14.0412   -8.6011    0.0000 C   0  0  0  0  0  0  0  0  0  0  0  0
   14.2547   -7.8042    0.0000 C   0  0  2  0  0  0  0  0  0  0  0  0
   15.0516   -7.5907    0.0000 C   0  0  2  0  0  0  0  0  0  0  0  0
   15.2651   -6.7938    0.0000 C   0  0  1  0  0  0  0  0  0  0  0  0
   14.6817   -6.2104    0.0000 C   0  0  2  0  0  0  0  0  0  0  0  0
   13.8848   -6.4239    0.0000 C   0  0  1  0  0  0  0  0  0  0  0  0
   13.6713   -7.2208    0.0000 O   0  0  0  0  0  0  0  0  0  0  0  0
   13.3015   -5.8406    0.0000 O   0  0  0  0  0  0  0  0  0  0  0  0
   16.0620   -6.5803    0.0000 O   0  0  0  0  0  0  0  0  0  0  0  0
   14.8953   -5.4135    0.0000 O   0  0  0  0  0  0  0  0  0  0  0  0
   15.6349   -8.1740    0.0000 O   0  0  0  0  0  0  0  0  0  0  0  0
  1  2  1  0  0  0  0
  2  3  1  0  0  0  0
  3  4  1  0  0  0  0
  4  5  1  0  0  0  0
  5  6  1  0  0  0  0
  6  1  1  0  0  0  0
  4  7  1  0  0  0  0
  7  8  1  0  0  0  0
  8  9  1  0  0  0  0
  9 10  1  0  0  0  0
 10  5  1  0  0  0  0
  9 11  1  0  0  0  0
 11 12  1  0  0  0  0
 12 13  1  0  0  0  0
 13 14  1  0  0  0  0
 14 10  1  0  0  0  0
  2 15  1  1  0  0  0
 16 15  1  1  0  0  0
 16 17  1  0  0  0  0
 16 18  1  0  0  0  0
 18 19  1  0  0  0  0
 19 20  1  0  0  0  0
 20 21  1  0  0  0  0
 21 17  1  0  0  0  0
  5 22  1  1  0  0  0
 10 22  1  1  0  0  0
  3 23  1  1  0  0  0
 12 24  1  1  0  0  0
 21 25  1  1  0  0  0
 17 26  1  6  0  0  0
 20 27  1  6  0  0  0
  3 28  1  6  0  0  0
 11 29  1  6  0  0  0
  4 30  1  6  0  0  0
 11 31  1  0  0  0  0
 31 32  1  0  0  0  0
 32 33  1  0  0  0  0
 33 12  1  0  0  0  0
 32 34  1  0  0  0  0
 34 35  1  0  0  0  0
 35 36  1  0  0  0  0
 36 37  1  0  0  0  0
 37 33  1  0  0  0  0
 32 38  1  6  0  0  0
 37 39  1  6  0  0  0
  9 40  1  1  0  0  0
 13 41  1  1  0  0  0
 41 42  1  0  0  0  0
 42 43  2  0  0  0  0
 42 44  1  0  0  0  0
 33 45  1  6  0  0  0
 54 46  1  1  0  0  0
 50 47  1  0  0  0  0
 50 48  1  0  0  0  0
 50 49  1  0  0  0  0
 54 50  1  0  0  0  0
 52 51  1  0  0  0  0
 56 52  1  0  0  0  0
 53 57  1  0  0  0  0
 54 53  1  0  0  0  0
 55 54  1  0  0  0  0
 58 55  1  0  0  0  0
 56 63  1  0  0  0  0
 57 56  2  0  0  0  0
 58 57  1  0  0  0  0
 59 58  2  0  0  0  0
 64 59  1  0  0  0  0
 62 60  2  0  0  0  0
 61 66  2  0  0  0  0
 62 61  1  0  0  0  0
 63 62  1  0  0  0  0
 64 63  2  0  0  0  0
 65 64  1  0  0  0  0
 66 65  1  0  0  0  0
 67 66  1  0  0  0  0
 35 68  1  0  0  0  0
 68 69  1  0  0  0  0
 68 70  2  0  0  0  0
 69 71  1  0  0  0  0
 69 72  1  0  0  0  0
 35 73  1  6  0  0  0
 73 74  1  0  0  0  0
 75 74  1  1  0  0  0
 75 76  1  0  0  0  0
 76 77  1  0  0  0  0
 77 78  1  0  0  0  0
 78 79  1  0  0  0  0
 79 80  1  0  0  0  0
 80 75  1  0  0  0  0
 79 81  1  1  0  0  0
 77 82  1  1  0  0  0
 78 83  1  6  0  0  0
 76 84  1  6  0  0  0
 67 81  1  0  0  0  0
M  END
>  <cdx:fragmentId>
5

$$$$
