300914.cdx
  Mrv1902 05222410252D          

 32 35  0  0  0  0            999 V2000
    6.1116   -7.3721    0.0000 C   0  0  0  0  0  0  0  0  0  0  0  0
    6.8261   -7.7846    0.0000 C   0  0  0  0  0  0  0  0  0  0  0  0
    6.8261   -8.6096    0.0000 C   0  0  0  0  0  0  0  0  0  0  0  0
    5.3971   -7.7846    0.0000 O   0  0  0  0  0  0  0  0  0  0  0  0
    6.1116   -6.5471    0.0000 O   0  0  0  0  0  0  0  0  0  0  0  0
    7.5406   -9.0221    0.0000 C   0  0  0  0  0  0  0  0  0  0  0  0
    8.2550   -8.6096    0.0000 C   0  0  0  0  0  0  0  0  0  0  0  0
    8.9695   -9.0221    0.0000 C   0  0  0  0  0  0  0  0  0  0  0  0
    8.9695   -9.8471    0.0000 C   0  0  0  0  0  0  0  0  0  0  0  0
    8.2550  -10.2596    0.0000 C   0  0  0  0  0  0  0  0  0  0  0  0
    7.5406   -9.8471    0.0000 C   0  0  0  0  0  0  0  0  0  0  0  0
    9.6840  -10.2596    0.0000 O   0  0  0  0  0  0  0  0  0  0  0  0
    5.3971   -5.3096    0.0000 C   0  0  0  0  0  0  0  0  0  0  0  0
    5.3971   -6.1346    0.0000 C   0  0  0  0  0  0  0  0  0  0  0  0
    4.6827   -6.5471    0.0000 C   0  0  0  0  0  0  0  0  0  0  0  0
    3.9682   -6.1346    0.0000 C   0  0  0  0  0  0  0  0  0  0  0  0
    3.2537   -6.5471    0.0000 C   0  0  0  0  0  0  0  0  0  0  0  0
    2.5393   -6.1346    0.0000 C   0  0  0  0  0  0  0  0  0  0  0  0
    2.5393   -5.3096    0.0000 C   0  0  0  0  0  0  0  0  0  0  0  0
    3.2537   -4.8971    0.0000 C   0  0  0  0  0  0  0  0  0  0  0  0
    3.9682   -5.3096    0.0000 C   0  0  0  0  0  0  0  0  0  0  0  0
    4.6827   -4.8971    0.0000 O   0  0  0  0  0  0  0  0  0  0  0  0
    4.6827   -7.3721    0.0000 O   0  0  0  0  0  0  0  0  0  0  0  0
    6.1116   -4.8971    0.0000 C   0  0  0  0  0  0  0  0  0  0  0  0
    6.1116   -4.0721    0.0000 C   0  0  0  0  0  0  0  0  0  0  0  0
    6.8261   -3.6596    0.0000 C   0  0  0  0  0  0  0  0  0  0  0  0
    7.5406   -4.0721    0.0000 C   0  0  0  0  0  0  0  0  0  0  0  0
    7.5406   -4.8971    0.0000 C   0  0  0  0  0  0  0  0  0  0  0  0
    6.8261   -5.3096    0.0000 C   0  0  0  0  0  0  0  0  0  0  0  0
    8.2550   -3.6596    0.0000 O   0  0  0  0  0  0  0  0  0  0  0  0
    1.8248   -4.8971    0.0000 O   0  0  0  0  0  0  0  0  0  0  0  0
    3.2537   -7.3721    0.0000 O   0  0  0  0  0  0  0  0  0  0  0  0
  1  2  1  0  0  0  0
  2  3  2  0  0  0  0
  1  4  2  0  0  0  0
  1  5  1  0  0  0  0
  6  7  1  0  0  0  0
  7  8  2  0  0  0  0
  8  9  1  0  0  0  0
  9 10  2  0  0  0  0
 10 11  1  0  0  0  0
  6 11  2  0  0  0  0
  9 12  1  0  0  0  0
  3  6  1  0  0  0  0
 13 14  2  0  0  0  0
 14 15  1  0  0  0  0
 15 16  1  0  0  0  0
 16 17  1  0  0  0  0
 17 18  2  0  0  0  0
 18 19  1  0  0  0  0
 19 20  2  0  0  0  0
 20 21  1  0  0  0  0
 16 21  2  0  0  0  0
 21 22  1  0  0  0  0
 13 22  1  0  0  0  0
 15 23  2  0  0  0  0
 24 25  1  0  0  0  0
 25 26  2  0  0  0  0
 26 27  1  0  0  0  0
 27 28  2  0  0  0  0
 28 29  1  0  0  0  0
 24 29  2  0  0  0  0
 27 30  1  0  0  0  0
 13 24  1  0  0  0  0
 19 31  1  0  0  0  0
 17 32  1  0  0  0  0
  5 14  1  0  0  0  0
M  END
>  <cdx:fragmentId>
1269

$$$$
