300936.cdx
  Mrv1902 05222410232D          

 62 68  0  0  0  0            999 V2000
    6.5001   -5.1143    0.0000 C   0  0  1  0  0  0  0  0  0  0  0  0
    7.2146   -4.7018    0.0000 C   0  0  2  0  0  0  0  0  0  0  0  0
    7.9291   -5.1143    0.0000 C   0  0  0  0  0  0  0  0  0  0  0  0
    7.9291   -5.9393    0.0000 C   0  0  0  0  0  0  0  0  0  0  0  0
    7.2146   -6.3518    0.0000 C   0  0  2  0  0  0  0  0  0  0  0  0
    7.2146   -7.1768    0.0000 C   0  0  0  0  0  0  0  0  0  0  0  0
    6.5001   -7.5893    0.0000 C   0  0  0  0  0  0  0  0  0  0  0  0
    5.7857   -7.1768    0.0000 C   0  0  1  0  0  0  0  0  0  0  0  0
    5.0712   -7.5893    0.0000 C   0  0  2  0  0  0  0  0  0  0  0  0
    5.0712   -8.4143    0.0000 C   0  0  0  0  0  0  0  0  0  0  0  0
    4.3567   -8.8268    0.0000 C   0  0  2  0  0  0  0  0  0  0  0  0
    3.6423   -8.4143    0.0000 C   0  0  1  0  0  0  0  0  0  0  0  0
    2.9278   -8.8268    0.0000 C   0  0  2  0  0  0  0  0  0  0  0  0
    2.2133   -8.4143    0.0000 C   0  0  2  0  0  0  0  0  0  0  0  0
    2.2133   -7.5893    0.0000 C   0  0  1  0  0  0  0  0  0  0  0  0
    2.9278   -7.1768    0.0000 C   0  0  0  0  0  0  0  0  0  0  0  0
    3.6423   -7.5893    0.0000 C   0  0  2  0  0  0  0  0  0  0  0  0
    4.3567   -7.1768    0.0000 C   0  0  1  0  0  0  0  0  0  0  0  0
    4.3567   -6.3518    0.0000 C   0  0  0  0  0  0  0  0  0  0  0  0
    5.0712   -5.9393    0.0000 C   0  0  0  0  0  0  0  0  0  0  0  0
    5.7857   -6.3518    0.0000 C   0  0  0  0  0  0  0  0  0  0  0  0
    6.5001   -5.9393    0.0000 C   0  0  2  0  0  0  0  0  0  0  0  0
    7.9291   -6.7643    0.0000 C   0  0  0  0  0  0  0  0  0  0  0  0
    7.9291   -7.5893    0.0000 O   0  0  0  0  0  0  0  0  0  0  0  0
    3.6423   -6.7643    0.0000 C   0  0  0  0  0  0  0  0  0  0  0  0
    2.5153   -9.5412    0.0000 C   0  0  0  0  0  0  0  0  0  0  0  0
    5.0712   -6.7643    0.0000 C   0  0  0  0  0  0  0  0  0  0  0  0
    5.7857   -8.0018    0.0000 C   0  0  0  0  0  0  0  0  0  0  0  0
    5.7857   -4.7018    0.0000 C   0  0  0  0  0  0  0  0  0  0  0  0
    3.3403   -9.5412    0.0000 C   0  0  0  0  0  0  0  0  0  0  0  0
    2.9278  -10.2557    0.0000 O   0  0  0  0  0  0  0  0  0  0  0  0
    1.4988   -7.1768    0.0000 O   0  0  0  0  0  0  0  0  0  0  0  0
    1.4988   -8.8268    0.0000 O   0  0  0  0  0  0  0  0  0  0  0  0
    4.3567   -9.6518    0.0000 O   0  0  0  0  0  0  0  0  0  0  0  0
    3.6423   -9.2393    0.0000 H   0  0  0  0  0  0  0  0  0  0  0  0
    6.5001   -6.7643    0.0000 H   0  0  0  0  0  0  0  0  0  0  0  0
   10.7935   -9.2344    0.0000 O   0  0  0  0  0  0  0  0  0  0  0  0
   10.0803  -10.4726    0.0000 O   0  0  0  0  0  0  0  0  0  0  0  0
   10.7944  -10.0594    0.0000 C   0  0  2  0  0  0  0  0  0  0  0  0
   11.5092  -10.4712    0.0000 C   0  0  1  0  0  0  0  0  0  0  0  0
   11.5100  -11.2962    0.0000 C   0  0  2  0  0  0  0  0  0  0  0  0
   10.7960  -11.7094    0.0000 C   0  0  1  0  0  0  0  0  0  0  0  0
   10.0811  -11.2976    0.0000 C   0  0  1  0  0  0  0  0  0  0  0  0
    9.3670  -11.7108    0.0000 C   0  0  0  0  0  0  0  0  0  0  0  0
    9.3679  -12.5358    0.0000 O   0  0  0  0  0  0  0  0  0  0  0  0
   10.7968  -12.5344    0.0000 O   0  0  0  0  0  0  0  0  0  0  0  0
   12.2249  -11.7080    0.0000 O   0  0  0  0  0  0  0  0  0  0  0  0
   12.2233  -10.0580    0.0000 O   0  0  0  0  0  0  0  0  0  0  0  0
   10.0706   -5.5235    0.0000 O   0  0  0  0  0  0  0  0  0  0  0  0
   11.5014   -6.3452    0.0000 O   0  0  0  0  0  0  0  0  0  0  0  0
   11.5052   -7.9952    0.0000 O   0  0  0  0  0  0  0  0  0  0  0  0
   10.0781   -8.8235    0.0000 C   0  0  0  0  0  0  0  0  0  0  0  0
   10.0763   -7.9985    0.0000 C   0  0  2  0  0  0  0  0  0  0  0  0
   10.7898   -7.5844    0.0000 C   0  0  2  0  0  0  0  0  0  0  0  0
   10.7879   -6.7594    0.0000 C   0  0  1  0  0  0  0  0  0  0  0  0
   10.0725   -6.3485    0.0000 C   0  0  2  0  0  0  0  0  0  0  0  0
    9.3590   -6.7626    0.0000 C   0  0  1  0  0  0  0  0  0  0  0  0
    9.3608   -7.5876    0.0000 O   0  0  0  0  0  0  0  0  0  0  0  0
    8.6436   -6.3518    0.0000 O   0  0  0  0  0  0  0  0  0  0  0  0
    6.8021   -3.9873    0.0000 C   0  0  0  0  0  0  0  0  0  0  0  0
    7.6271   -3.9873    0.0000 C   0  0  0  0  0  0  0  0  0  0  0  0
    4.3567   -8.0018    0.0000 H   0  0  0  0  0  0  0  0  0  0  0  0
 57 59  1  1  0  0  0
 56 49  1  6  0  0  0
 55 50  1  1  0  0  0
 54 51  1  6  0  0  0
 53 52  1  1  0  0  0
 52 37  1  0  0  0  0
 58 53  1  0  0  0  0
 54 53  1  0  0  0  0
 55 54  1  0  0  0  0
 56 55  1  0  0  0  0
 57 56  1  0  0  0  0
  1  2  1  0  0  0  0
  2  3  1  0  0  0  0
  3  4  1  0  0  0  0
  4  5  1  0  0  0  0
  5  6  1  0  0  0  0
  6  7  1  0  0  0  0
  7  8  1  0  0  0  0
  8  9  1  0  0  0  0
  9 10  1  0  0  0  0
 10 11  1  0  0  0  0
 11 12  1  0  0  0  0
 12 13  1  0  0  0  0
 13 14  1  0  0  0  0
 14 15  1  0  0  0  0
 15 16  1  0  0  0  0
 16 17  1  0  0  0  0
 12 17  1  0  0  0  0
 17 18  1  0  0  0  0
  9 18  1  0  0  0  0
 18 19  1  0  0  0  0
 19 20  1  0  0  0  0
 20 21  2  0  0  0  0
  8 21  1  0  0  0  0
 21 22  1  0  0  0  0
  5 22  1  0  0  0  0
  1 22  1  0  0  0  0
 23 24  2  0  0  0  0
 23 59  1  0  0  0  0
  5 23  1  1  0  0  0
 17 25  1  1  0  0  0
 13 26  1  1  0  0  0
  9 27  1  1  0  0  0
  8 28  1  6  0  0  0
  1 29  1  1  0  0  0
 30 31  1  0  0  0  0
 13 30  1  6  0  0  0
 15 32  1  6  0  0  0
 14 33  1  1  0  0  0
 11 34  1  1  0  0  0
 12 35  1  6  0  0  0
 22 36  1  1  0  0  0
 58 57  1  0  0  0  0
 38 39  1  0  0  0  0
 39 40  1  0  0  0  0
 40 41  1  0  0  0  0
 41 42  1  0  0  0  0
 42 43  1  0  0  0  0
 38 43  1  0  0  0  0
 44 45  1  0  0  0  0
 43 44  1  1  0  0  0
 42 46  1  6  0  0  0
 41 47  1  1  0  0  0
 40 48  1  6  0  0  0
 39 37  1  1  0  0  0
  2 60  1  1  0  0  0
  2 61  1  6  0  0  0
 18 62  1  6  0  0  0
M  END
>  <cdx:fragmentId>
4428

$$$$
