300932.cdx
  Mrv1902 05222410202D          

 75 84  0  0  0  0            999 V2000
    9.5681  -15.5237    0.0000 C   0  0  0  0  0  0  0  0  0  0  0  0
    9.5681  -16.3487    0.0000 C   0  0  1  0  0  0  0  0  0  0  0  0
   10.2825  -16.7613    0.0000 C   0  0  1  0  0  0  0  0  0  0  0  0
   10.9970  -16.3487    0.0000 C   0  0  1  0  0  0  0  0  0  0  0  0
   10.9970  -15.5237    0.0000 C   0  0  2  0  0  0  0  0  0  0  0  0
   10.2825  -15.1113    0.0000 C   0  0  0  0  0  0  0  0  0  0  0  0
   11.7115  -16.7613    0.0000 C   0  0  0  0  0  0  0  0  0  0  0  0
   12.4259  -16.3487    0.0000 C   0  0  0  0  0  0  0  0  0  0  0  0
   12.4259  -15.5237    0.0000 C   0  0  2  0  0  0  0  0  0  0  0  0
   11.7115  -15.1113    0.0000 C   0  0  1  0  0  0  0  0  0  0  0  0
   13.1404  -15.1113    0.0000 C   0  0  2  0  0  0  0  0  0  0  0  0
   13.1404  -14.2863    0.0000 C   0  0  1  0  0  0  0  0  0  0  0  0
   12.4259  -13.8737    0.0000 C   0  0  0  0  0  0  0  0  0  0  0  0
   11.7115  -14.2863    0.0000 C   0  0  0  0  0  0  0  0  0  0  0  0
    8.8536  -16.7613    0.0000 O   0  0  0  0  0  0  0  0  0  0  0  0
    8.1425  -16.3430    0.0000 C   0  0  1  0  0  0  0  0  0  0  0  0
    7.4247  -16.7497    0.0000 C   0  0  1  0  0  0  0  0  0  0  0  0
    8.1491  -15.5180    0.0000 O   0  0  0  0  0  0  0  0  0  0  0  0
    7.4380  -15.0998    0.0000 C   0  0  0  0  0  0  0  0  0  0  0  0
    6.7202  -15.5065    0.0000 C   0  0  2  0  0  0  0  0  0  0  0  0
    6.7136  -16.3315    0.0000 C   0  0  2  0  0  0  0  0  0  0  0  0
   10.9970  -14.6988    0.0000 C   0  0  0  0  0  0  0  0  0  0  0  0
    9.8700  -17.4757    0.0000 C   0  0  0  0  0  0  0  0  0  0  0  0
   13.1404  -13.4612    0.0000 C   0  0  0  0  0  0  0  0  0  0  0  0
    5.9958  -16.7382    0.0000 O   0  0  0  0  0  0  0  0  0  0  0  0
    7.4180  -17.5747    0.0000 O   0  0  0  0  0  0  0  0  0  0  0  0
    6.0091  -15.0883    0.0000 O   0  0  0  0  0  0  0  0  0  0  0  0
   10.6950  -17.4757    0.0000 C   0  0  0  0  0  0  0  0  0  0  0  0
   13.1404  -15.9362    0.0000 C   0  0  0  0  0  0  0  0  0  0  0  0
   10.9970  -17.1738    0.0000 H   0  0  0  0  0  0  0  0  0  0  0  0
   13.9250  -15.3662    0.0000 C   0  0  0  0  0  0  0  0  0  0  0  0
   14.4100  -14.6988    0.0000 C   0  0  0  0  0  0  0  0  0  0  0  0
   13.9250  -14.0313    0.0000 C   0  0  2  0  0  0  0  0  0  0  0  0
   12.4259  -14.6988    0.0000 H   0  0  0  0  0  0  0  0  0  0  0  0
   19.2401   -9.2568    0.0000 C   0  0  0  0  0  0  0  0  0  0  0  0
   19.5127   -8.4781    0.0000 C   0  0  0  0  0  0  0  0  0  0  0  0
   20.3233   -8.3248    0.0000 O   0  0  0  0  0  0  0  0  0  0  0  0
   20.5959   -7.5461    0.0000 C   0  0  0  0  0  0  0  0  0  0  0  0
   20.0578   -6.9207    0.0000 C   0  0  0  0  0  0  0  0  0  0  0  0
   19.2471   -7.0740    0.0000 C   0  0  0  0  0  0  0  0  0  0  0  0
   18.9746   -7.8527    0.0000 C   0  0  0  0  0  0  0  0  0  0  0  0
   18.7090   -6.4486    0.0000 O   0  0  0  0  0  0  0  0  0  0  0  0
   21.4065   -7.3928    0.0000 C   0  0  0  0  0  0  0  0  0  0  0  0
   21.6790   -6.6141    0.0000 C   0  0  0  0  0  0  0  0  0  0  0  0
   21.1409   -5.9887    0.0000 C   0  0  0  0  0  0  0  0  0  0  0  0
   20.3303   -6.1420    0.0000 C   0  0  0  0  0  0  0  0  0  0  0  0
   22.4401   -6.2956    0.0000 O   0  0  0  0  0  0  0  0  0  0  0  0
   22.3723   -5.4734    0.0000 C   0  0  1  0  0  0  0  0  0  0  0  0
   21.5694   -5.2837    0.0000 C   0  0  0  0  0  0  0  0  0  0  0  0
   19.7922   -5.5167    0.0000 O   0  0  0  0  0  0  0  0  0  0  0  0
   18.9816   -5.6700    0.0000 C   0  0  0  0  0  0  0  0  0  0  0  0
   22.9977   -4.9353    0.0000 C   0  0  0  0  0  0  0  0  0  0  0  0
   22.4596   -4.3099    0.0000 C   0  0  0  0  0  0  0  0  0  0  0  0
   23.5358   -5.5606    0.0000 C   0  0  0  0  0  0  0  0  0  0  0  0
   23.6231   -4.3972    0.0000 O   0  0  0  0  0  0  0  0  0  0  0  0
   23.1510   -5.7459    0.0000 H   0  0  0  0  0  0  0  0  0  0  0  0
   15.2350  -14.6988    0.0000 O   0  0  0  0  0  0  0  0  0  0  0  0
   14.1800  -13.2467    0.0000 C   0  0  2  0  0  0  0  0  0  0  0  0
   13.6279  -12.6336    0.0000 C   0  0  0  0  0  0  0  0  0  0  0  0
   14.9869  -13.0752    0.0000 C   0  0  0  0  0  0  0  0  0  0  0  0
   15.2419  -12.2905    0.0000 C   0  0  0  0  0  0  0  0  0  0  0  0
   14.6898  -11.6774    0.0000 O   0  0  0  0  0  0  0  0  0  0  0  0
   16.0489  -12.1190    0.0000 O   0  0  0  0  0  0  0  0  0  0  0  0
   14.7219  -13.8178    0.0000 H   0  0  0  0  0  0  0  0  0  0  0  0
   16.3038  -11.3344    0.0000 C   0  0  0  0  0  0  0  0  0  0  0  0
   17.1108  -11.1629    0.0000 C   0  0  2  0  0  0  0  0  0  0  0  0
   17.6628  -11.7760    0.0000 C   0  0  2  0  0  0  0  0  0  0  0  0
   18.4698  -11.6044    0.0000 C   0  0  1  0  0  0  0  0  0  0  0  0
   18.7247  -10.8198    0.0000 C   0  0  2  0  0  0  0  0  0  0  0  0
   18.1727  -10.2067    0.0000 C   0  0  1  0  0  0  0  0  0  0  0  0
   17.3657  -10.3782    0.0000 O   0  0  0  0  0  0  0  0  0  0  0  0
   18.4276   -9.4221    0.0000 O   0  0  0  0  0  0  0  0  0  0  0  0
   19.0218  -12.2175    0.0000 O   0  0  0  0  0  0  0  0  0  0  0  0
   19.5317  -10.6483    0.0000 O   0  0  0  0  0  0  0  0  0  0  0  0
   17.4079  -12.5606    0.0000 O   0  0  0  0  0  0  0  0  0  0  0  0
  1  2  1  0  0  0  0
  2  3  1  0  0  0  0
  3  4  1  0  0  0  0
  4  5  1  0  0  0  0
  5  6  1  0  0  0  0
  6  1  1  0  0  0  0
  4  7  1  0  0  0  0
  7  8  1  0  0  0  0
  8  9  1  0  0  0  0
  9 10  1  0  0  0  0
 10  5  1  0  0  0  0
  9 11  1  0  0  0  0
 11 12  1  0  0  0  0
 12 13  1  0  0  0  0
 13 14  1  0  0  0  0
 14 10  1  0  0  0  0
  2 15  1  1  0  0  0
 16 15  1  1  0  0  0
 16 17  1  0  0  0  0
 16 18  1  0  0  0  0
 18 19  1  0  0  0  0
 19 20  1  0  0  0  0
 20 21  1  0  0  0  0
 21 17  1  0  0  0  0
  5 22  1  1  0  0  0
 10 22  1  1  0  0  0
  3 23  1  1  0  0  0
 12 24  1  1  0  0  0
 21 25  1  1  0  0  0
 17 26  1  6  0  0  0
 20 27  1  6  0  0  0
  3 28  1  6  0  0  0
 11 29  1  6  0  0  0
  4 30  1  6  0  0  0
 11 31  1  0  0  0  0
 31 32  1  0  0  0  0
 32 33  1  0  0  0  0
 33 12  1  0  0  0  0
  9 34  1  1  0  0  0
 35 36  1  0  0  0  0
 36 37  1  0  0  0  0
 37 38  1  0  0  0  0
 38 39  2  0  0  0  0
 39 40  1  0  0  0  0
 40 41  1  0  0  0  0
 41 36  2  0  0  0  0
 40 42  2  0  0  0  0
 38 43  1  0  0  0  0
 43 44  2  0  0  0  0
 44 45  1  0  0  0  0
 45 46  2  0  0  0  0
 46 39  1  0  0  0  0
 44 47  1  0  0  0  0
 47 48  1  0  0  0  0
 48 49  1  0  0  0  0
 49 45  1  0  0  0  0
 46 50  1  0  0  0  0
 50 51  1  0  0  0  0
 48 52  1  0  0  0  0
 52 53  1  0  0  0  0
 52 54  1  0  0  0  0
 52 55  1  0  0  0  0
 48 56  1  6  0  0  0
 32 57  2  0  0  0  0
 33 58  1  0  0  0  0
 58 59  1  6  0  0  0
 58 60  1  0  0  0  0
 60 61  1  0  0  0  0
 61 62  2  0  0  0  0
 61 63  1  0  0  0  0
 33 64  1  6  0  0  0
 63 65  1  0  0  0  0
 66 65  1  1  0  0  0
 66 67  1  0  0  0  0
 67 68  1  0  0  0  0
 68 69  1  0  0  0  0
 69 70  1  0  0  0  0
 70 71  1  0  0  0  0
 71 66  1  0  0  0  0
 70 72  1  1  0  0  0
 68 73  1  1  0  0  0
 69 74  1  6  0  0  0
 67 75  1  6  0  0  0
 35 72  1  0  0  0  0
M  END
>  <cdx:fragmentId>
5

$$$$
