30096.cdx
  Mrv1902 05222410192D          

 29 32  0  0  0  0            999 V2000
    9.9763   -8.7199    0.0000 O   0  0  0  0  0  0  0  0  0  0  0  0
    8.5474   -7.8949    0.0000 O   0  0  0  0  0  0  0  0  0  0  0  0
    3.5461   -9.9574    0.0000 O   0  0  0  0  0  0  0  0  0  0  0  0
    9.2619   -9.9574    0.0000 C   0  0  0  0  0  0  0  0  0  0  0  0
    9.2619   -9.1324    0.0000 C   0  0  0  0  0  0  0  0  0  0  0  0
    8.5474   -8.7199    0.0000 C   0  0  0  0  0  0  0  0  0  0  0  0
    7.8329   -9.1324    0.0000 C   0  0  0  0  0  0  0  0  0  0  0  0
    8.5474  -10.3699    0.0000 C   0  0  0  0  0  0  0  0  0  0  0  0
    7.8329   -9.9574    0.0000 C   0  0  0  0  0  0  0  0  0  0  0  0
    7.8329  -11.6074    0.0000 O   0  0  0  0  0  0  0  0  0  0  0  0
    4.9750  -12.4324    0.0000 O   0  0  0  0  0  0  0  0  0  0  0  0
    6.4040  -12.4324    0.0000 S   0  0  0  0  0  0  0  0  0  0  0  0
    6.4040  -11.6074    0.0000 C   0  0  2  0  0  0  0  0  0  0  0  0
    7.1184  -11.1949    0.0000 C   0  0  2  0  0  0  0  0  0  0  0  0
    7.1184  -10.3699    0.0000 C   0  0  2  0  0  0  0  0  0  0  0  0
    6.4040   -9.9574    0.0000 O   0  0  0  0  0  0  0  0  0  0  0  0
    4.9750  -11.6074    0.0000 C   0  0  0  0  0  0  0  0  0  0  0  0
    5.6895  -11.1949    0.0000 C   0  0  0  0  0  0  0  0  0  0  0  0
    5.6895  -10.3699    0.0000 C   0  0  0  0  0  0  0  0  0  0  0  0
    4.9750   -9.9574    0.0000 C   0  0  0  0  0  0  0  0  0  0  0  0
    4.2606  -10.3699    0.0000 C   0  0  0  0  0  0  0  0  0  0  0  0
    4.2606  -11.1949    0.0000 C   0  0  0  0  0  0  0  0  0  0  0  0
    7.1184  -12.8449    0.0000 C   0  0  0  0  0  0  0  0  0  0  0  0
    7.1184  -13.6699    0.0000 C   0  0  0  0  0  0  0  0  0  0  0  0
    6.4040  -14.0824    0.0000 C   0  0  0  0  0  0  0  0  0  0  0  0
    6.4040  -14.9074    0.0000 C   0  0  0  0  0  0  0  0  0  0  0  0
    7.1184  -15.3199    0.0000 C   0  0  0  0  0  0  0  0  0  0  0  0
    7.8329  -14.9074    0.0000 C   0  0  0  0  0  0  0  0  0  0  0  0
    7.8329  -14.0824    0.0000 C   0  0  0  0  0  0  0  0  0  0  0  0
  5  1  1  0  0  0  0
  6  2  1  0  0  0  0
 21  3  1  0  0  0  0
  4  8  2  0  0  0  0
  5  4  1  0  0  0  0
  6  5  2  0  0  0  0
  7  6  1  0  0  0  0
  9  7  2  0  0  0  0
  9  8  1  0  0  0  0
 15  9  1  6  0  0  0
 14 10  1  6  0  0  0
 11 17  1  0  0  0  0
 13 12  1  1  0  0  0
 13 18  1  0  0  0  0
 14 13  1  0  0  0  0
 15 14  1  0  0  0  0
 16 15  1  0  0  0  0
 19 16  1  0  0  0  0
 17 22  1  0  0  0  0
 18 17  2  0  0  0  0
 19 18  1  0  0  0  0
 20 19  2  0  0  0  0
 21 20  1  0  0  0  0
 22 21  2  0  0  0  0
 12 23  1  0  0  0  0
 23 24  1  0  0  0  0
 24 25  2  0  0  0  0
 25 26  1  0  0  0  0
 26 27  2  0  0  0  0
 27 28  1  0  0  0  0
 28 29  2  0  0  0  0
 29 24  1  0  0  0  0
M  END
>  <cdx:fragmentId>
5

$$$$
