300922.cdx
  Mrv1902 05222410232D          

 88 94  0  0  0  0            999 V2000
    7.7952   -6.7522    0.0000 C   0  0  0  0  0  0  0  0  0  0  0  0
    7.7952   -7.5772    0.0000 C   0  0  0  0  0  0  0  0  0  0  0  0
    8.5097   -7.9897    0.0000 C   0  0  0  0  0  0  0  0  0  0  0  0
    9.2242   -7.5772    0.0000 C   0  0  0  0  0  0  0  0  0  0  0  0
    9.2242   -6.7522    0.0000 C   0  0  0  0  0  0  0  0  0  0  0  0
    8.5097   -6.3397    0.0000 C   0  0  0  0  0  0  0  0  0  0  0  0
   10.0088   -7.8322    0.0000 N   0  0  0  0  0  0  0  0  0  0  0  0
   10.4937   -7.1647    0.0000 C   0  0  0  0  0  0  0  0  0  0  0  0
   10.0088   -6.4973    0.0000 C   0  0  0  0  0  0  0  0  0  0  0  0
   11.3187   -7.1647    0.0000 N   0  0  0  0  0  0  0  0  0  0  0  0
   11.8036   -7.8322    0.0000 C   0  0  0  0  0  0  0  0  0  0  0  0
   12.5883   -7.5772    0.0000 C   0  0  0  0  0  0  0  0  0  0  0  0
   12.5883   -6.7522    0.0000 N   0  0  0  0  0  0  0  0  0  0  0  0
   11.8036   -6.4973    0.0000 C   0  0  0  0  0  0  0  0  0  0  0  0
   13.3027   -7.9897    0.0000 C   0  0  0  0  0  0  0  0  0  0  0  0
   14.0172   -7.5772    0.0000 C   0  0  0  0  0  0  0  0  0  0  0  0
   14.1410   -6.6835    0.0000 N   0  0  0  0  0  0  0  0  0  0  0  0
    7.0808   -7.9897    0.0000 C   0  0  2  0  0  0  0  0  0  0  0  0
    6.3663   -7.5772    0.0000 C   0  0  1  0  0  0  0  0  0  0  0  0
    5.9538   -6.8627    0.0000 C   0  0  0  0  0  0  0  0  0  0  0  0
    5.9538   -6.0377    0.0000 N   0  0  0  0  0  0  0  0  0  0  0  0
    5.1569   -7.0763    0.0000 O   0  0  0  0  0  0  0  0  0  0  0  0
    6.3663   -5.3233    0.0000 C   0  0  2  0  0  0  0  0  0  0  0  0
    7.0808   -4.9108    0.0000 C   0  0  0  0  0  0  0  0  0  0  0  0
    7.7952   -5.3233    0.0000 N   0  0  0  0  0  0  0  0  0  0  0  0
    8.5097   -4.9108    0.0000 C   0  0  2  0  0  0  0  0  0  0  0  0
    9.2242   -5.3233    0.0000 C   0  0  0  0  0  0  0  0  0  0  0  0
    9.9386   -4.9108    0.0000 N   0  0  0  0  0  0  0  0  0  0  0  0
   10.5294   -5.1720    0.0000 C   0  0  1  0  0  0  0  0  0  0  0  0
    9.2242   -6.1483    0.0000 O   0  0  0  0  0  0  0  0  0  0  0  0
    7.0808   -4.0858    0.0000 O   0  0  0  0  0  0  0  0  0  0  0  0
    8.5097   -4.0858    0.0000 C   0  0  0  0  0  0  0  0  0  0  0  0
    7.7952   -3.6733    0.0000 C   0  0  0  0  0  0  0  0  0  0  0  0
    9.2242   -3.6733    0.0000 C   0  0  0  0  0  0  0  0  0  0  0  0
    5.7829   -4.7399    0.0000 C   0  0  0  0  0  0  0  0  0  0  0  0
    5.9965   -3.9430    0.0000 C   0  0  0  0  0  0  0  0  0  0  0  0
    5.4131   -3.3597    0.0000 C   0  0  0  0  0  0  0  0  0  0  0  0
    7.0808   -8.8147    0.0000 C   0  0  0  0  0  0  0  0  0  0  0  0
    7.7952   -9.2272    0.0000 C   0  0  0  0  0  0  0  0  0  0  0  0
    6.3663   -9.2272    0.0000 C   0  0  0  0  0  0  0  0  0  0  0  0
   10.0088   -5.6723    0.0000 C   0  0  0  0  0  0  0  0  0  0  0  0
   11.3676   -4.9108    0.0000 C   0  0  0  0  0  0  0  0  0  0  0  0
   12.0821   -5.3233    0.0000 N   0  0  0  0  0  0  0  0  0  0  0  0
   12.7965   -4.9108    0.0000 C   0  0  2  0  0  0  0  0  0  0  0  0
   11.3676   -4.0858    0.0000 O   0  0  0  0  0  0  0  0  0  0  0  0
   13.7173   -5.3508    0.0000 C   0  0  0  0  0  0  0  0  0  0  0  0
   14.3515   -4.8232    0.0000 O   0  0  0  0  0  0  0  0  0  0  0  0
   12.7965   -4.0858    0.0000 C   0  0  0  0  0  0  0  0  0  0  0  0
   13.5110   -3.6733    0.0000 C   0  0  0  0  0  0  0  0  0  0  0  0
   13.5110   -2.8483    0.0000 C   0  0  0  0  0  0  0  0  0  0  0  0
   14.2255   -2.4358    0.0000 N   0  0  0  0  0  0  0  0  0  0  0  0
   14.9399   -2.8483    0.0000 C   0  0  0  0  0  0  0  0  0  0  0  0
   15.6544   -2.4358    0.0000 N   0  0  0  0  0  0  0  0  0  0  0  0
   14.9399   -3.6733    0.0000 N   0  0  0  0  0  0  0  0  0  0  0  0
   14.7016   -8.0378    0.0000 C   0  0  0  0  0  0  0  0  0  0  0  0
   15.4428   -7.6754    0.0000 O   0  0  0  0  0  0  0  0  0  0  0  0
   14.6449   -8.8609    0.0000 N   0  0  0  0  0  0  0  0  0  0  0  0
    5.7829   -8.1606    0.0000 N   0  0  0  0  0  0  0  0  0  0  0  0
    4.9860   -8.3741    0.0000 C   0  0  0  0  0  0  0  0  0  0  0  0
    4.9860   -9.1991    0.0000 O   0  0  0  0  0  0  0  0  0  0  0  0
    4.1892   -8.1606    0.0000 C   0  0  1  0  0  0  0  0  0  0  0  0
    3.8935   -7.3904    0.0000 N   0  0  0  0  0  0  0  0  0  0  0  0
    3.0696   -7.4335    0.0000 C   0  0  0  0  0  0  0  0  0  0  0  0
    2.8561   -8.2304    0.0000 C   0  0  0  0  0  0  0  0  0  0  0  0
    3.5480   -8.6798    0.0000 C   0  0  0  0  0  0  0  0  0  0  0  0
    2.5504   -6.7924    0.0000 O   0  0  0  0  0  0  0  0  0  0  0  0
   10.5294   -4.3470    0.0000 H   0  0  0  0  0  0  0  0  0  0  0  0
    6.7933   -3.7295    0.0000 C   0  0  0  0  0  0  0  0  0  0  0  0
    7.0069   -2.9326    0.0000 C   0  0  0  0  0  0  0  0  0  0  0  0
   13.8927  -15.0214    0.0000 N   0  0  0  0  0  0  0  0  0  0  0  0
   13.8948  -14.1964    0.0000 C   0  0  0  0  0  0  0  0  0  0  0  0
   14.6104  -13.7858    0.0000 C   0  0  0  0  0  0  0  0  0  0  0  0
   14.6125  -12.9608    0.0000 C   0  0  0  0  0  0  0  0  0  0  0  0
   15.3280  -12.5501    0.0000 C   0  0  0  0  0  0  0  0  0  0  0  0
   15.3302  -11.7251    0.0000 C   0  0  0  0  0  0  0  0  0  0  0  0
   14.6168  -11.3108    0.0000 C   0  0  2  0  0  0  0  0  0  0  0  0
   14.6189  -10.4858    0.0000 N   0  0  0  0  0  0  0  0  0  0  0  0
   13.9012  -11.7214    0.0000 C   0  0  0  0  0  0  0  0  0  0  0  0
   13.8991  -12.5464    0.0000 O   0  0  0  0  0  0  0  0  0  0  0  0
   13.1878  -11.3071    0.0000 O   0  0  0  0  0  0  0  0  0  0  0  0
   15.3344  -10.0751    0.0000 C   0  0  0  0  0  0  0  0  0  0  0  0
   15.3365   -9.2501    0.0000 C   0  0  2  0  0  0  0  0  0  0  0  0
   16.0478  -10.4895    0.0000 O   0  0  0  0  0  0  0  0  0  0  0  0
   16.0521   -8.8395    0.0000 C   0  0  0  0  0  0  0  0  0  0  0  0
   16.8049   -9.1770    0.0000 N   0  0  0  0  0  0  0  0  0  0  0  0
   17.3585   -8.5653    0.0000 C   0  0  0  0  0  0  0  0  0  0  0  0
   16.9478   -7.8498    0.0000 N   0  0  0  0  0  0  0  0  0  0  0  0
   16.1404   -8.0192    0.0000 C   0  0  0  0  0  0  0  0  0  0  0  0
  1  2  2  0  0  0  0
  2  3  1  0  0  0  0
  3  4  2  0  0  0  0
  4  5  1  0  0  0  0
  5  6  2  0  0  0  0
  6  1  1  0  0  0  0
  4  7  1  0  0  0  0
  7  8  1  0  0  0  0
  8  9  2  0  0  0  0
  9  5  1  0  0  0  0
  8 10  1  0  0  0  0
 10 11  1  0  0  0  0
 11 12  2  0  0  0  0
 12 13  1  0  0  0  0
 13 14  2  0  0  0  0
 14 10  1  0  0  0  0
 12 15  1  0  0  0  0
 16 15  1  6  0  0  0
 16 17  1  0  0  0  0
  2 18  1  0  0  0  0
 18 19  1  0  0  0  0
 19 20  1  0  0  0  0
 20 21  1  0  0  0  0
 20 22  2  0  0  0  0
 21 23  1  0  0  0  0
 23 24  1  0  0  0  0
 24 25  1  0  0  0  0
 25 26  1  0  0  0  0
 26 27  1  0  0  0  0
 27 28  1  0  0  0  0
 28 29  1  0  0  0  0
 27 30  2  0  0  0  0
 24 31  2  0  0  0  0
 26 32  1  1  0  0  0
 32 33  1  0  0  0  0
 32 34  1  0  0  0  0
 23 35  1  1  0  0  0
 35 36  1  0  0  0  0
 36 37  1  0  0  0  0
 18 38  1  1  0  0  0
 38 39  1  0  0  0  0
 38 40  1  0  0  0  0
  9 41  1  0  0  0  0
 41 29  1  0  0  0  0
 29 42  1  6  0  0  0
 42 43  1  0  0  0  0
 43 44  1  0  0  0  0
 42 45  2  0  0  0  0
 44 46  1  0  0  0  0
 46 17  1  0  0  0  0
 46 47  2  0  0  0  0
 44 48  1  1  0  0  0
 48 49  1  0  0  0  0
 49 50  1  0  0  0  0
 50 51  1  0  0  0  0
 51 52  1  0  0  0  0
 52 53  1  0  0  0  0
 52 54  2  0  0  0  0
 16 55  1  1  0  0  0
 55 56  2  0  0  0  0
 55 57  1  0  0  0  0
 19 58  1  6  0  0  0
 58 59  1  0  0  0  0
 59 60  2  0  0  0  0
 59 61  1  0  0  0  0
 61 62  1  6  0  0  0
 62 63  1  0  0  0  0
 63 64  1  0  0  0  0
 64 65  1  0  0  0  0
 65 61  1  0  0  0  0
 63 66  2  0  0  0  0
 29 67  1  1  0  0  0
 36 68  1  0  0  0  0
 68 69  1  0  0  0  0
 70 71  1  0  0  0  0
 71 72  1  0  0  0  0
 72 73  1  0  0  0  0
 73 74  1  0  0  0  0
 74 75  1  0  0  0  0
 75 76  1  0  0  0  0
 76 77  1  0  0  0  0
 76 78  1  1  0  0  0
 78 79  1  0  0  0  0
 78 80  2  0  0  0  0
 77 81  1  0  0  0  0
 81 82  1  0  0  0  0
 81 83  2  0  0  0  0
 82 84  1  1  0  0  0
 84 85  1  0  0  0  0
 85 86  1  0  0  0  0
 86 87  2  0  0  0  0
 87 88  1  0  0  0  0
 88 84  2  0  0  0  0
 82 57  1  0  0  0  0
M  END
>  <cdx:fragmentId>
5

$$$$
