300919.cdx
  Mrv1902 05222410212D          

 79 85  0  0  0  0            999 V2000
    9.4823  -10.6561    0.0000 C   0  0  0  0  0  0  0  0  0  0  0  0
    9.4823  -11.4811    0.0000 C   0  0  2  0  0  0  0  0  0  0  0  0
   10.1968  -11.8936    0.0000 C   0  0  0  0  0  0  0  0  0  0  0  0
   10.9112  -11.4811    0.0000 C   0  0  0  0  0  0  0  0  0  0  0  0
   11.6257  -11.8936    0.0000 C   0  0  0  0  0  0  0  0  0  0  0  0
   12.3402  -11.4811    0.0000 C   0  0  0  0  0  0  0  0  0  0  0  0
    8.7678  -10.2436    0.0000 O   0  0  0  0  0  0  0  0  0  0  0  0
   10.1968  -10.2436    0.0000 O   0  0  0  0  0  0  0  0  0  0  0  0
    8.7678  -11.8936    0.0000 N   0  0  0  0  0  0  0  0  0  0  0  0
    8.0533  -11.4811    0.0000 C   0  0  0  0  0  0  0  0  0  0  0  0
    8.0533  -10.6561    0.0000 O   0  0  0  0  0  0  0  0  0  0  0  0
    4.9187  -10.1690    0.0000 N   0  0  0  0  0  0  0  0  0  0  0  0
    4.0937  -10.1690    0.0000 C   0  0  2  0  0  0  0  0  0  0  0  0
    3.6812  -10.8835    0.0000 C   0  0  0  0  0  0  0  0  0  0  0  0
    4.0937  -11.5979    0.0000 N   0  0  0  0  0  0  0  0  0  0  0  0
    3.6812  -12.3124    0.0000 C   0  0  2  0  0  0  0  0  0  0  0  0
    4.0937  -13.0269    0.0000 C   0  0  0  0  0  0  0  0  0  0  0  0
    3.6812  -13.7413    0.0000 N   0  0  0  0  0  0  0  0  0  0  0  0
    4.0937  -14.4432    0.0000 C   0  0  2  0  0  0  0  0  0  0  0  0
    4.9187  -14.4432    0.0000 C   0  0  0  0  0  0  0  0  0  0  0  0
    5.3312  -13.7287    0.0000 N   0  0  0  0  0  0  0  0  0  0  0  0
    6.1562  -13.7287    0.0000 C   0  0  2  0  0  0  0  0  0  0  0  0
    6.5687  -13.0142    0.0000 C   0  0  0  0  0  0  0  0  0  0  0  0
    7.3389  -12.7186    0.0000 N   0  0  0  0  0  0  0  0  0  0  0  0
    7.3389  -11.8936    0.0000 C   0  0  1  0  0  0  0  0  0  0  0  0
    6.5687  -11.5979    0.0000 C   0  0  0  0  0  0  0  0  0  0  0  0
    6.1562  -10.8835    0.0000 C   0  0  0  0  0  0  0  0  0  0  0  0
    6.2799  -10.0678    0.0000 C   0  0  0  0  0  0  0  0  0  0  0  0
    6.9944   -9.6553    0.0000 C   0  0  0  0  0  0  0  0  0  0  0  0
    6.9944   -8.8303    0.0000 C   0  0  0  0  0  0  0  0  0  0  0  0
    6.2799   -8.4178    0.0000 C   0  0  0  0  0  0  0  0  0  0  0  0
    5.5654   -8.8303    0.0000 C   0  0  0  0  0  0  0  0  0  0  0  0
    5.5654   -9.6553    0.0000 C   0  0  0  0  0  0  0  0  0  0  0  0
    5.3312  -10.8835    0.0000 C   0  0  0  0  0  0  0  0  0  0  0  0
    2.4437  -11.5979    0.0000 C   0  0  0  0  0  0  0  0  0  0  0  0
    2.8562  -12.3124    0.0000 C   0  0  0  0  0  0  0  0  0  0  0  0
    2.4437  -13.0269    0.0000 C   0  0  0  0  0  0  0  0  0  0  0  0
    6.0329  -12.3869    0.0000 O   0  0  0  0  0  0  0  0  0  0  0  0
    5.3312  -15.1576    0.0000 O   0  0  0  0  0  0  0  0  0  0  0  0
    4.9187  -13.0269    0.0000 O   0  0  0  0  0  0  0  0  0  0  0  0
    2.8562  -10.8835    0.0000 O   0  0  0  0  0  0  0  0  0  0  0  0
    3.6812   -9.4545    0.0000 N   0  0  0  0  0  0  0  0  0  0  0  0
    4.0937   -8.7400    0.0000 C   0  0  0  0  0  0  0  0  0  0  0  0
    3.6812   -8.0256    0.0000 C   0  0  2  0  0  0  0  0  0  0  0  0
    2.8562   -8.0256    0.0000 C   0  0  0  0  0  0  0  0  0  0  0  0
    4.9187   -8.7400    0.0000 O   0  0  0  0  0  0  0  0  0  0  0  0
    4.0937   -7.3111    0.0000 N   0  0  0  0  0  0  0  0  0  0  0  0
    3.6812   -6.5966    0.0000 C   0  0  0  0  0  0  0  0  0  0  0  0
    2.8562   -6.5966    0.0000 O   0  0  0  0  0  0  0  0  0  0  0  0
    3.7581   -5.1285    0.0000 N   0  0  0  0  0  0  0  0  0  0  0  0
    4.0937   -5.8822    0.0000 C   0  0  1  0  0  0  0  0  0  0  0  0
    4.9142   -5.7959    0.0000 C   0  0  0  0  0  0  0  0  0  0  0  0
    5.0857   -4.9889    0.0000 C   0  0  0  0  0  0  0  0  0  0  0  0
    4.3712   -4.5764    0.0000 C   0  0  0  0  0  0  0  0  0  0  0  0
    2.9511   -4.9570    0.0000 C   0  0  0  0  0  0  0  0  0  0  0  0
    2.3991   -5.5700    0.0000 O   0  0  0  0  0  0  0  0  0  0  0  0
    3.1811   -3.5049    0.0000 N   0  0  0  0  0  0  0  0  0  0  0  0
    2.6962   -4.1723    0.0000 C   0  0  1  0  0  0  0  0  0  0  0  0
    1.9116   -3.9174    0.0000 C   0  0  0  0  0  0  0  0  0  0  0  0
    1.9116   -3.0924    0.0000 C   0  0  0  0  0  0  0  0  0  0  0  0
    2.6962   -2.8375    0.0000 C   0  0  0  0  0  0  0  0  0  0  0  0
    2.9511   -2.0528    0.0000 O   0  0  0  0  0  0  0  0  0  0  0  0
    2.4437   -8.7400    0.0000 C   0  0  0  0  0  0  0  0  0  0  0  0
    1.6187   -8.7400    0.0000 C   0  0  0  0  0  0  0  0  0  0  0  0
    1.2062   -9.4545    0.0000 C   0  0  0  0  0  0  0  0  0  0  0  0
    1.6187  -10.1690    0.0000 C   0  0  0  0  0  0  0  0  0  0  0  0
    2.4437  -10.1690    0.0000 C   0  0  0  0  0  0  0  0  0  0  0  0
    2.8562   -9.4545    0.0000 C   0  0  0  0  0  0  0  0  0  0  0  0
    1.2062  -10.8835    0.0000 O   0  0  0  0  0  0  0  0  0  0  0  0
    6.5687  -14.4432    0.0000 C   0  0  0  0  0  0  0  0  0  0  0  0
    7.3937  -14.4432    0.0000 O   0  0  0  0  0  0  0  0  0  0  0  0
    3.6812  -15.1576    0.0000 C   0  0  0  0  0  0  0  0  0  0  0  0
    2.8562  -15.1576    0.0000 C   0  0  0  0  0  0  0  0  0  0  0  0
    2.4437  -14.4432    0.0000 C   0  0  0  0  0  0  0  0  0  0  0  0
    1.6187  -14.4432    0.0000 C   0  0  0  0  0  0  0  0  0  0  0  0
    1.2062  -15.1576    0.0000 C   0  0  0  0  0  0  0  0  0  0  0  0
    1.6187  -15.8721    0.0000 C   0  0  0  0  0  0  0  0  0  0  0  0
    2.4437  -15.8721    0.0000 C   0  0  0  0  0  0  0  0  0  0  0  0
   13.0546  -11.8936    0.0000 N   0  0  0  0  0  0  0  0  0  0  0  0
  1  2  1  0  0  0  0
  2  3  1  0  0  0  0
  3  4  1  0  0  0  0
  4  5  1  0  0  0  0
  5  6  1  0  0  0  0
  1  7  2  0  0  0  0
  1  8  1  0  0  0  0
 10 11  2  0  0  0  0
 12 13  1  0  0  0  0
 13 14  1  0  0  0  0
 14 15  1  0  0  0  0
 15 16  1  0  0  0  0
 16 17  1  0  0  0  0
 17 18  1  0  0  0  0
 18 19  1  0  0  0  0
 19 20  1  0  0  0  0
 20 21  1  0  0  0  0
 21 22  1  0  0  0  0
 22 23  1  0  0  0  0
 23 24  1  0  0  0  0
 24 25  1  0  0  0  0
 25 26  1  0  0  0  0
 26 27  1  0  0  0  0
 27 28  1  0  0  0  0
 28 29  2  0  0  0  0
 29 30  1  0  0  0  0
 30 31  2  0  0  0  0
 31 32  1  0  0  0  0
 32 33  2  0  0  0  0
 12 33  1  0  0  0  0
 12 34  1  0  0  0  0
 27 34  2  0  0  0  0
 28 33  1  0  0  0  0
 25 10  1  1  0  0  0
 35 36  1  0  0  0  0
 36 37  1  0  0  0  0
 16 36  1  6  0  0  0
 23 38  2  0  0  0  0
 20 39  2  0  0  0  0
 17 40  2  0  0  0  0
 14 41  2  0  0  0  0
 43 44  1  0  0  0  0
 44 45  1  0  0  0  0
 43 46  2  0  0  0  0
 48 49  2  0  0  0  0
 50 51  1  0  0  0  0
 51 52  1  0  0  0  0
 52 53  1  0  0  0  0
 53 54  1  0  0  0  0
 50 54  1  0  0  0  0
 51 48  1  1  0  0  0
 55 56  2  0  0  0  0
 57 58  1  0  0  0  0
 58 59  1  0  0  0  0
 59 60  1  0  0  0  0
 60 61  1  0  0  0  0
 57 61  1  0  0  0  0
 58 55  1  6  0  0  0
 61 62  2  0  0  0  0
 50 55  1  0  0  0  0
 47 48  1  0  0  0  0
 44 47  1  6  0  0  0
 63 64  1  0  0  0  0
 64 65  2  0  0  0  0
 65 66  1  0  0  0  0
 66 67  2  0  0  0  0
 67 68  1  0  0  0  0
 63 68  2  0  0  0  0
 66 69  1  0  0  0  0
 45 63  1  0  0  0  0
 42 43  1  0  0  0  0
 13 42  1  6  0  0  0
 70 71  1  0  0  0  0
 22 70  1  6  0  0  0
 72 73  1  0  0  0  0
 73 74  1  0  0  0  0
 74 75  2  0  0  0  0
 75 76  1  0  0  0  0
 76 77  2  0  0  0  0
 77 78  1  0  0  0  0
 73 78  2  0  0  0  0
 19 72  1  6  0  0  0
  9 10  1  0  0  0  0
  2  9  1  6  0  0  0
  6 79  1  0  0  0  0
M  END
>  <cdx:fragmentId>
1696

$$$$
