300928.cdx
  Mrv1902 05222410252D          

 50 55  0  0  0  0            999 V2000
    6.1856   -8.6201    0.0000 C   0  0  2  0  0  0  0  0  0  0  0  0
    6.1856   -9.4451    0.0000 C   0  0  1  0  0  0  0  0  0  0  0  0
    6.9000   -9.8576    0.0000 C   0  0  1  0  0  0  0  0  0  0  0  0
    7.6145   -9.4451    0.0000 C   0  0  1  0  0  0  0  0  0  0  0  0
    7.6145   -8.6201    0.0000 C   0  0  2  0  0  0  0  0  0  0  0  0
    6.9000   -8.2076    0.0000 C   0  0  0  0  0  0  0  0  0  0  0  0
    8.3290   -9.8576    0.0000 C   0  0  0  0  0  0  0  0  0  0  0  0
    9.0434   -9.4451    0.0000 C   0  0  0  0  0  0  0  0  0  0  0  0
    9.0434   -8.6201    0.0000 C   0  0  2  0  0  0  0  0  0  0  0  0
    8.3290   -8.2076    0.0000 C   0  0  2  0  0  0  0  0  0  0  0  0
    9.7579   -8.2076    0.0000 C   0  0  1  0  0  0  0  0  0  0  0  0
    9.7579   -7.3826    0.0000 C   0  0  0  0  0  0  0  0  0  0  0  0
    9.0434   -6.9701    0.0000 C   0  0  0  0  0  0  0  0  0  0  0  0
    8.3290   -7.3826    0.0000 C   0  0  0  0  0  0  0  0  0  0  0  0
   10.4724   -8.6201    0.0000 C   0  0  0  0  0  0  0  0  0  0  0  0
   11.1869   -8.2076    0.0000 C   0  0  0  0  0  0  0  0  0  0  0  0
   11.1869   -7.3826    0.0000 C   0  0  2  0  0  0  0  0  0  0  0  0
   10.4724   -6.9701    0.0000 C   0  0  1  0  0  0  0  0  0  0  0  0
   11.9013   -6.9701    0.0000 C   0  0  0  0  0  0  0  0  0  0  0  0
   11.9013   -6.1451    0.0000 C   0  0  0  0  0  0  0  0  0  0  0  0
   11.1869   -5.7326    0.0000 C   0  0  0  0  0  0  0  0  0  0  0  0
   10.4724   -6.1451    0.0000 C   0  0  1  0  0  0  0  0  0  0  0  0
   11.9013   -7.7951    0.0000 C   0  0  0  0  0  0  0  0  0  0  0  0
    7.6145   -7.7951    0.0000 C   0  0  0  0  0  0  0  0  0  0  0  0
    5.4711   -8.2076    0.0000 O   0  0  0  0  0  0  0  0  0  0  0  0
    5.4711   -9.8576    0.0000 O   0  0  0  0  0  0  0  0  0  0  0  0
    6.4875  -10.5721    0.0000 C   0  0  0  0  0  0  0  0  0  0  0  0
    7.3125  -10.5721    0.0000 C   0  0  0  0  0  0  0  0  0  0  0  0
    4.7556   -9.4470    0.0000 C   0  0  2  0  0  0  0  0  0  0  0  0
    4.7534   -8.6220    0.0000 O   0  0  0  0  0  0  0  0  0  0  0  0
    4.0379   -8.2113    0.0000 C   0  0  0  0  0  0  0  0  0  0  0  0
    3.3245   -8.6257    0.0000 C   0  0  2  0  0  0  0  0  0  0  0  0
    3.3266   -9.4507    0.0000 C   0  0  1  0  0  0  0  0  0  0  0  0
    4.0421   -9.8613    0.0000 C   0  0  1  0  0  0  0  0  0  0  0  0
    2.6132   -9.8650    0.0000 O   0  0  0  0  0  0  0  0  0  0  0  0
    2.6090   -8.2150    0.0000 O   0  0  0  0  0  0  0  0  0  0  0  0
    4.0443  -10.6863    0.0000 O   0  0  0  0  0  0  0  0  0  0  0  0
    8.1375  -10.5721    0.0000 O   0  0  0  0  0  0  0  0  0  0  0  0
    6.9000  -11.2866    0.0000 O   0  0  0  0  0  0  0  0  0  0  0  0
   10.1704   -8.9221    0.0000 C   0  0  0  0  0  0  0  0  0  0  0  0
    9.4559   -9.3346    0.0000 C   0  0  0  0  0  0  0  0  0  0  0  0
    9.0434  -10.0491    0.0000 O   0  0  0  0  0  0  0  0  0  0  0  0
   10.2809   -9.3346    0.0000 O   0  0  0  0  0  0  0  0  0  0  0  0
   11.1869   -4.9076    0.0000 C   0  0  0  0  0  0  0  0  0  0  0  0
   12.6158   -7.3826    0.0000 O   0  0  0  0  0  0  0  0  0  0  0  0
   11.9013   -8.6201    0.0000 O   0  0  0  0  0  0  0  0  0  0  0  0
    9.7579   -5.7326    0.0000 C   0  0  0  0  0  0  0  0  0  0  0  0
    7.6145  -10.2701    0.0000 H   0  0  0  0  0  0  0  0  0  0  0  0
    8.3290   -9.0326    0.0000 H   0  0  0  0  0  0  0  0  0  0  0  0
   10.4724   -7.7951    0.0000 H   0  0  0  0  0  0  0  0  0  0  0  0
  1  2  1  0  0  0  0
  2  3  1  0  0  0  0
  3  4  1  0  0  0  0
  4  5  1  0  0  0  0
  5  6  1  0  0  0  0
  6  1  1  0  0  0  0
  4  7  1  0  0  0  0
  7  8  1  0  0  0  0
  8  9  1  0  0  0  0
  9 10  1  0  0  0  0
 10  5  1  0  0  0  0
  9 11  1  0  0  0  0
 11 12  1  0  0  0  0
 12 13  2  0  0  0  0
 13 14  1  0  0  0  0
 14 10  1  0  0  0  0
 11 15  1  0  0  0  0
 15 16  1  0  0  0  0
 16 17  1  0  0  0  0
 17 18  1  0  0  0  0
 18 12  1  0  0  0  0
 17 19  1  0  0  0  0
 19 20  1  0  0  0  0
 20 21  1  0  0  0  0
 21 22  1  0  0  0  0
 22 18  1  0  0  0  0
 17 23  1  1  0  0  0
  5 24  1  1  0  0  0
  1 25  1  1  0  0  0
  2 26  1  1  0  0  0
  3 27  1  1  0  0  0
  3 28  1  6  0  0  0
 29 26  1  1  0  0  0
 29 30  1  0  0  0  0
 30 31  1  0  0  0  0
 31 32  1  0  0  0  0
 32 33  1  0  0  0  0
 33 34  1  0  0  0  0
 34 29  1  0  0  0  0
 33 35  1  1  0  0  0
 32 36  1  6  0  0  0
 34 37  1  6  0  0  0
 28 38  2  0  0  0  0
 28 39  1  0  0  0  0
 11 40  1  6  0  0  0
  9 41  1  1  0  0  0
 41 42  1  0  0  0  0
 41 43  2  0  0  0  0
 21 44  2  0  0  0  0
 23 45  2  0  0  0  0
 23 46  1  0  0  0  0
 22 47  1  6  0  0  0
  4 48  1  6  0  0  0
 10 49  1  6  0  0  0
 18 50  1  1  0  0  0
M  END
>  <cdx:fragmentId>
5

$$$$
