300995.cdx
  Mrv1902 05222410192D          

 19 18  0  0  0  0            999 V2000
    3.8404   -6.8562    0.0000 C   0  0  0  0  0  0  0  0  0  0  0  0
    3.8398   -6.0312    0.0000 C   0  0  0  0  0  0  0  0  0  0  0  0
    4.5540   -5.6182    0.0000 C   0  0  0  0  0  0  0  0  0  0  0  0
    5.2687   -6.0301    0.0000 C   0  0  0  0  0  0  0  0  0  0  0  0
    5.9829   -5.6170    0.0000 C   0  0  0  0  0  0  0  0  0  0  0  0
    6.6977   -6.0290    0.0000 C   0  0  0  0  0  0  0  0  0  0  0  0
    7.4118   -5.6159    0.0000 C   0  0  0  0  0  0  0  0  0  0  0  0
    3.1250   -5.6193    0.0000 C   0  0  0  0  0  0  0  0  0  0  0  0
    8.1266   -6.0279    0.0000 C   0  0  0  0  0  0  0  0  0  0  0  0
    8.1273   -6.8529    0.0000 C   0  0  0  0  0  0  0  0  0  0  0  0
    8.8421   -7.2648    0.0000 C   0  0  0  0  0  0  0  0  0  0  0  0
    8.8427   -8.0898    0.0000 C   0  0  0  0  0  0  0  0  0  0  0  0
    9.5575   -8.5018    0.0000 C   0  0  0  0  0  0  0  0  0  0  0  0
    9.5581   -9.3268    0.0000 C   0  0  0  0  0  0  0  0  0  0  0  0
   10.2729   -9.7387    0.0000 C   0  0  0  0  0  0  0  0  0  0  0  0
   10.2736  -10.5637    0.0000 C   0  0  0  0  0  0  0  0  0  0  0  0
   10.9884  -10.9757    0.0000 C   0  0  0  0  0  0  0  0  0  0  0  0
   10.9890  -11.8007    0.0000 C   0  0  0  0  0  0  0  0  0  0  0  0
   11.7038  -12.2126    0.0000 C   0  0  0  0  0  0  0  0  0  0  0  0
  1  2  1  0  0  0  0
  2  3  1  0  0  0  0
  3  4  1  0  0  0  0
  4  5  1  0  0  0  0
  5  6  1  0  0  0  0
  6  7  1  0  0  0  0
  2  8  1  0  0  0  0
  7  9  2  0  0  0  0
  9 10  1  0  0  0  0
 10 11  1  0  0  0  0
 11 12  1  0  0  0  0
 12 13  1  0  0  0  0
 13 14  1  0  0  0  0
 14 15  1  0  0  0  0
 15 16  1  0  0  0  0
 16 17  1  0  0  0  0
 17 18  1  0  0  0  0
 18 19  1  0  0  0  0
M  END
>  <cdx:fragmentId>
10851

$$$$
