300985.cdx
  Mrv1902 05222410182D          

 54 61  0  0  0  0            999 V2000
    5.1887   -8.1538    0.0000 C   0  0  0  0  0  0  0  0  0  0  0  0
    5.1887   -8.9788    0.0000 C   0  0  1  0  0  0  0  0  0  0  0  0
    5.9031   -9.3913    0.0000 C   0  0  2  0  0  0  0  0  0  0  0  0
    6.6176   -8.9788    0.0000 C   0  0  1  0  0  0  0  0  0  0  0  0
    6.6176   -8.1538    0.0000 C   0  0  2  0  0  0  0  0  0  0  0  0
    5.9031   -7.7413    0.0000 C   0  0  0  0  0  0  0  0  0  0  0  0
    7.3321   -9.3913    0.0000 C   0  0  0  0  0  0  0  0  0  0  0  0
    8.0466   -8.9788    0.0000 C   0  0  0  0  0  0  0  0  0  0  0  0
    8.0466   -8.1538    0.0000 C   0  0  0  0  0  0  0  0  0  0  0  0
    7.3321   -7.7413    0.0000 C   0  0  1  0  0  0  0  0  0  0  0  0
    8.7610   -7.7413    0.0000 C   0  0  1  0  0  0  0  0  0  0  0  0
    8.7610   -6.9162    0.0000 C   0  0  2  0  0  0  0  0  0  0  0  0
    8.0466   -6.5038    0.0000 C   0  0  0  0  0  0  0  0  0  0  0  0
    7.3321   -6.9162    0.0000 C   0  0  0  0  0  0  0  0  0  0  0  0
    9.5457   -7.9962    0.0000 C   0  0  2  0  0  0  0  0  0  0  0  0
   10.0306   -7.3287    0.0000 C   0  0  2  0  0  0  0  0  0  0  0  0
    9.5457   -6.6613    0.0000 C   0  0  2  0  0  0  0  0  0  0  0  0
    6.3156  -10.1057    0.0000 C   0  0  0  0  0  0  0  0  0  0  0  0
    4.4742   -9.3913    0.0000 O   0  0  0  0  0  0  0  0  0  0  0  0
    5.4906  -10.1057    0.0000 C   0  0  0  0  0  0  0  0  0  0  0  0
    6.6176   -7.3287    0.0000 C   0  0  0  0  0  0  0  0  0  0  0  0
    8.7610   -6.0912    0.0000 C   0  0  0  0  0  0  0  0  0  0  0  0
    8.7610   -8.5663    0.0000 C   0  0  0  0  0  0  0  0  0  0  0  0
    3.0661   -7.7328    0.0000 C   0  0  0  0  0  0  0  0  0  0  0  0
    2.3504   -8.1431    0.0000 C   0  0  2  0  0  0  0  0  0  0  0  0
    2.3479   -8.9681    0.0000 C   0  0  1  0  0  0  0  0  0  0  0  0
    3.0612   -9.3828    0.0000 C   0  0  2  0  0  0  0  0  0  0  0  0
    3.7769   -8.9724    0.0000 C   0  0  1  0  0  0  0  0  0  0  0  0
    3.7794   -8.1474    0.0000 O   0  0  0  0  0  0  0  0  0  0  0  0
    1.6322   -9.3785    0.0000 O   0  0  0  0  0  0  0  0  0  0  0  0
    1.6372   -7.7285    0.0000 O   0  0  0  0  0  0  0  0  0  0  0  0
    3.0587  -10.2078    0.0000 O   0  0  0  0  0  0  0  0  0  0  0  0
    9.8006   -8.7808    0.0000 O   0  0  0  0  0  0  0  0  0  0  0  0
    9.1332   -5.9468    0.0000 H   0  0  0  0  0  0  0  0  0  0  0  0
    6.6176   -9.8038    0.0000 H   0  0  0  0  0  0  0  0  0  0  0  0
   10.8547   -7.3658    0.0000 O   0  0  0  0  0  0  0  0  0  0  0  0
   11.3975   -6.7445    0.0000 C   0  0  1  0  0  0  0  0  0  0  0  0
   11.2502   -5.9327    0.0000 C   0  0  1  0  0  0  0  0  0  0  0  0
   10.5237   -5.5418    0.0000 C   0  0  0  0  0  0  0  0  0  0  0  0
    9.7651   -5.8660    0.0000 C   0  0  1  0  0  0  0  0  0  0  0  0
    9.1439   -5.3232    0.0000 C   0  0  0  0  0  0  0  0  0  0  0  0
   10.3400   -6.3525    0.0000 O   0  0  0  0  0  0  0  0  0  0  0  0
   12.1928   -6.9640    0.0000 C   0  0  0  0  0  0  0  0  0  0  0  0
   12.7805   -6.3850    0.0000 C   0  0  0  0  0  0  0  0  0  0  0  0
   12.4004   -7.7624    0.0000 C   0  0  0  0  0  0  0  0  0  0  0  0
   12.9881   -7.1834    0.0000 O   0  0  0  0  0  0  0  0  0  0  0  0
   11.8336   -5.3494    0.0000 H   0  0  0  0  0  0  0  0  0  0  0  0
   12.1120   -6.3320    0.0000 H   0  0  0  0  0  0  0  0  0  0  0  0
   13.2016   -7.9803    0.0000 C   0  0  0  0  0  0  0  0  0  0  0  0
    0.9190   -8.9638    0.0000 C   0  0  0  0  0  0  0  0  0  0  0  0
    0.2033   -9.3742    0.0000 C   0  0  0  0  0  0  0  0  0  0  0  0
    0.9215   -8.1388    0.0000 O   0  0  0  0  0  0  0  0  0  0  0  0
   13.9985   -8.1939    0.0000 C   0  0  0  0  0  0  0  0  0  0  0  0
   12.6182   -8.5637    0.0000 O   0  0  0  0  0  0  0  0  0  0  0  0
  1  2  1  0  0  0  0
  2  3  1  0  0  0  0
  3  4  1  0  0  0  0
  4  5  1  0  0  0  0
  5  6  1  0  0  0  0
  6  1  1  0  0  0  0
  4  7  1  0  0  0  0
  7  8  1  0  0  0  0
  8  9  2  0  0  0  0
  9 10  1  0  0  0  0
 10  5  1  0  0  0  0
  9 11  1  0  0  0  0
 11 12  1  0  0  0  0
 12 13  1  0  0  0  0
 13 14  1  0  0  0  0
 14 10  1  0  0  0  0
 11 15  1  0  0  0  0
 15 16  1  0  0  0  0
 16 17  1  0  0  0  0
 17 12  1  0  0  0  0
  3 18  1  0  0  0  0
  2 19  1  1  0  0  0
  3 20  1  1  0  0  0
  5 21  1  1  0  0  0
 10 21  1  1  0  0  0
 12 22  1  1  0  0  0
 11 23  1  6  0  0  0
 24 25  1  0  0  0  0
 25 26  1  0  0  0  0
 26 27  1  0  0  0  0
 27 28  1  0  0  0  0
 28 29  1  0  0  0  0
 29 24  1  0  0  0  0
 26 30  1  1  0  0  0
 25 31  1  6  0  0  0
 27 32  1  6  0  0  0
 28 19  1  1  0  0  0
 15 33  1  6  0  0  0
 17 34  1  6  0  0  0
  4 35  1  6  0  0  0
 16 36  1  0  0  0  0
 36 37  1  0  0  0  0
 37 38  1  0  0  0  0
 38 39  1  0  0  0  0
 39 40  1  0  0  0  0
 40 17  1  0  0  0  0
 40 41  1  6  0  0  0
 38 42  1  0  0  0  0
 16 42  1  1  0  0  0
 37 43  1  0  0  0  0
 43 44  1  0  0  0  0
 43 45  1  0  0  0  0
 43 46  1  0  0  0  0
 38 47  1  1  0  0  0
 37 48  1  6  0  0  0
 46 49  1  0  0  0  0
 30 50  1  0  0  0  0
 50 51  1  0  0  0  0
 50 52  2  0  0  0  0
 49 53  1  0  0  0  0
 49 54  2  0  0  0  0
M  END
>  <cdx:fragmentId>
5

$$$$
