300968.cdx
  Mrv1902 05222410202D          

 33 36  0  0  0  0            999 V2000
    4.3445   -8.5928    0.0000 C   0  0  0  0  0  0  0  0  0  0  0  0
    3.6300   -9.0053    0.0000 C   0  0  0  0  0  0  0  0  0  0  0  0
    3.6300   -9.8303    0.0000 C   0  0  0  0  0  0  0  0  0  0  0  0
    4.3445  -10.2428    0.0000 C   0  0  0  0  0  0  0  0  0  0  0  0
    5.0590   -9.8303    0.0000 C   0  0  0  0  0  0  0  0  0  0  0  0
    5.7735  -10.2428    0.0000 C   0  0  0  0  0  0  0  0  0  0  0  0
    6.4879   -9.8303    0.0000 C   0  0  0  0  0  0  0  0  0  0  0  0
    6.4879   -9.0053    0.0000 C   0  0  1  0  0  0  0  0  0  0  0  0
    7.2024   -8.5928    0.0000 C   0  0  2  0  0  0  0  0  0  0  0  0
    7.9870   -8.8478    0.0000 C   0  0  0  0  0  0  0  0  0  0  0  0
    8.4719   -8.1803    0.0000 C   0  0  0  0  0  0  0  0  0  0  0  0
    7.9870   -7.5129    0.0000 C   0  0  1  0  0  0  0  0  0  0  0  0
    7.2024   -7.7678    0.0000 C   0  0  1  0  0  0  0  0  0  0  0  0
    6.4879   -7.3553    0.0000 C   0  0  0  0  0  0  0  0  0  0  0  0
    5.7735   -7.7678    0.0000 C   0  0  0  0  0  0  0  0  0  0  0  0
    5.7735   -8.5928    0.0000 C   0  0  2  0  0  0  0  0  0  0  0  0
    5.0590   -9.0053    0.0000 C   0  0  1  0  0  0  0  0  0  0  0  0
    2.9156  -10.2428    0.0000 O   0  0  0  0  0  0  0  0  0  0  0  0
    5.7735  -11.0678    0.0000 O   0  0  0  0  0  0  0  0  0  0  0  0
    7.6586   -6.1449    0.0000 C   0  0  0  0  0  0  0  0  0  0  0  0
    8.2420   -6.7283    0.0000 C   0  0  2  0  0  0  0  0  0  0  0  0
    9.0489   -6.5567    0.0000 C   0  0  0  0  0  0  0  0  0  0  0  0
    9.3039   -5.7721    0.0000 C   0  0  0  0  0  0  0  0  0  0  0  0
   10.1108   -5.6006    0.0000 C   0  0  0  0  0  0  0  0  0  0  0  0
   10.3658   -4.8160    0.0000 C   0  0  0  0  0  0  0  0  0  0  0  0
    9.7824   -4.2326    0.0000 C   0  0  0  0  0  0  0  0  0  0  0  0
   11.1727   -4.6444    0.0000 C   0  0  0  0  0  0  0  0  0  0  0  0
    7.2886   -6.9473    0.0000 C   0  0  0  0  0  0  0  0  0  0  0  0
    5.0590   -8.1803    0.0000 C   0  0  0  0  0  0  0  0  0  0  0  0
    6.4879   -8.1803    0.0000 H   0  0  0  0  0  0  0  0  0  0  0  0
    5.7735   -9.4178    0.0000 H   0  0  0  0  0  0  0  0  0  0  0  0
    7.2024   -9.4178    0.0000 H   0  0  0  0  0  0  0  0  0  0  0  0
    8.8019   -7.3838    0.0000 H   0  0  0  0  0  0  0  0  0  0  0  0
  1  2  1  0  0  0  0
  2  3  1  0  0  0  0
  3  4  1  0  0  0  0
  4  5  2  0  0  0  0
  5  6  1  0  0  0  0
  6  7  1  0  0  0  0
  7  8  1  0  0  0  0
  8  9  1  0  0  0  0
  9 10  1  0  0  0  0
 10 11  1  0  0  0  0
 11 12  1  0  0  0  0
 12 13  1  0  0  0  0
  9 13  1  0  0  0  0
 13 14  1  0  0  0  0
 14 15  1  0  0  0  0
 15 16  1  0  0  0  0
  8 16  1  0  0  0  0
 16 17  1  0  0  0  0
  5 17  1  0  0  0  0
  1 17  1  0  0  0  0
  3 18  2  0  0  0  0
  6 19  2  0  0  0  0
 21 20  1  6  0  0  0
 21 22  1  0  0  0  0
 22 23  1  0  0  0  0
 23 24  1  0  0  0  0
 24 25  1  0  0  0  0
 25 26  1  0  0  0  0
 25 27  1  0  0  0  0
 12 21  1  0  0  0  0
 13 28  1  1  0  0  0
 17 29  1  1  0  0  0
  8 30  1  1  0  0  0
 16 31  1  6  0  0  0
  9 32  1  6  0  0  0
 12 33  1  6  0  0  0
M  END
>  <cdx:fragmentId>
8251

$$$$
