300973.cdx
  Mrv1902 05222410272D          

 24 25  0  0  0  0            999 V2000
    9.2524   -5.5200    0.0000 C   0  0  0  0  0  0  0  0  0  0  0  0
    9.9669   -5.9325    0.0000 C   0  0  0  0  0  0  0  0  0  0  0  0
    9.9669   -6.7575    0.0000 C   0  0  0  0  0  0  0  0  0  0  0  0
    9.2524   -7.1700    0.0000 C   0  0  0  0  0  0  0  0  0  0  0  0
    8.5380   -6.7575    0.0000 C   0  0  0  0  0  0  0  0  0  0  0  0
    8.5380   -5.9325    0.0000 C   0  0  0  0  0  0  0  0  0  0  0  0
   10.6814   -7.1700    0.0000 O   0  0  0  0  0  0  0  0  0  0  0  0
   10.6814   -7.9950    0.0000 C   0  0  0  0  0  0  0  0  0  0  0  0
   10.6814   -5.5200    0.0000 O   0  0  0  0  0  0  0  0  0  0  0  0
   11.3958   -5.9325    0.0000 C   0  0  0  0  0  0  0  0  0  0  0  0
    9.2524   -4.6950    0.0000 O   0  0  0  0  0  0  0  0  0  0  0  0
    8.5380   -4.2825    0.0000 C   0  0  0  0  0  0  0  0  0  0  0  0
    7.8235   -7.1700    0.0000 C   0  0  0  0  0  0  0  0  0  0  0  0
    7.1090   -6.7575    0.0000 C   0  0  0  0  0  0  0  0  0  0  0  0
    6.3945   -7.1700    0.0000 C   0  0  0  0  0  0  0  0  0  0  0  0
    5.6801   -6.7575    0.0000 C   0  0  0  0  0  0  0  0  0  0  0  0
    4.9656   -7.1700    0.0000 C   0  0  0  0  0  0  0  0  0  0  0  0
    4.9656   -7.9950    0.0000 C   0  0  0  0  0  0  0  0  0  0  0  0
    5.6801   -8.4075    0.0000 C   0  0  0  0  0  0  0  0  0  0  0  0
    6.3945   -7.9950    0.0000 C   0  0  0  0  0  0  0  0  0  0  0  0
    4.2511   -8.4075    0.0000 O   0  0  0  0  0  0  0  0  0  0  0  0
    4.2511   -9.2325    0.0000 C   0  0  0  0  0  0  0  0  0  0  0  0
    4.2511   -6.7575    0.0000 O   0  0  0  0  0  0  0  0  0  0  0  0
    3.5367   -7.1700    0.0000 C   0  0  0  0  0  0  0  0  0  0  0  0
  1  2  1  0  0  0  0
  2  3  2  0  0  0  0
  3  4  1  0  0  0  0
  4  5  2  0  0  0  0
  5  6  1  0  0  0  0
  1  6  2  0  0  0  0
  7  8  1  0  0  0  0
  3  7  1  0  0  0  0
  9 10  1  0  0  0  0
  2  9  1  0  0  0  0
 11 12  1  0  0  0  0
  1 11  1  0  0  0  0
 13 14  1  0  0  0  0
 15 16  1  0  0  0  0
 16 17  2  0  0  0  0
 17 18  1  0  0  0  0
 18 19  2  0  0  0  0
 19 20  1  0  0  0  0
 15 20  2  0  0  0  0
 21 22  1  0  0  0  0
 18 21  1  0  0  0  0
 23 24  1  0  0  0  0
 17 23  1  0  0  0  0
 14 15  1  0  0  0  0
  5 13  1  0  0  0  0
M  END
>  <cdx:fragmentId>
8909

$$$$
