300920.cdx
  Mrv1902 05222410222D          

 75 81  0  0  0  0            999 V2000
    5.9106   -8.4139    0.0000 C   0  0  0  0  0  0  0  0  0  0  0  0
    5.9106   -9.2389    0.0000 C   0  0  0  0  0  0  0  0  0  0  0  0
    6.6250   -9.6514    0.0000 C   0  0  0  0  0  0  0  0  0  0  0  0
    7.3395   -9.2389    0.0000 C   0  0  0  0  0  0  0  0  0  0  0  0
    7.3395   -8.4139    0.0000 C   0  0  0  0  0  0  0  0  0  0  0  0
    6.6250   -8.0014    0.0000 C   0  0  0  0  0  0  0  0  0  0  0  0
    8.1241   -9.4938    0.0000 N   0  0  0  0  0  0  0  0  0  0  0  0
    8.6090   -8.8264    0.0000 C   0  0  0  0  0  0  0  0  0  0  0  0
    8.1241   -8.1590    0.0000 C   0  0  0  0  0  0  0  0  0  0  0  0
    9.4340   -8.8264    0.0000 N   0  0  0  0  0  0  0  0  0  0  0  0
    9.9190   -9.4938    0.0000 C   0  0  0  0  0  0  0  0  0  0  0  0
   10.7036   -9.2389    0.0000 C   0  0  0  0  0  0  0  0  0  0  0  0
   10.7036   -8.4139    0.0000 N   0  0  0  0  0  0  0  0  0  0  0  0
    9.9190   -8.1590    0.0000 C   0  0  0  0  0  0  0  0  0  0  0  0
   11.4181   -9.6514    0.0000 C   0  0  0  0  0  0  0  0  0  0  0  0
   12.1325   -9.2389    0.0000 C   0  0  0  0  0  0  0  0  0  0  0  0
   12.2563   -8.3451    0.0000 N   0  0  0  0  0  0  0  0  0  0  0  0
    5.1961   -9.6514    0.0000 C   0  0  2  0  0  0  0  0  0  0  0  0
    4.4816   -9.2389    0.0000 C   0  0  1  0  0  0  0  0  0  0  0  0
    4.0691   -8.5244    0.0000 C   0  0  0  0  0  0  0  0  0  0  0  0
    4.0691   -7.6994    0.0000 N   0  0  0  0  0  0  0  0  0  0  0  0
    3.2722   -8.7380    0.0000 O   0  0  0  0  0  0  0  0  0  0  0  0
    4.4816   -6.9850    0.0000 C   0  0  2  0  0  0  0  0  0  0  0  0
    5.1961   -6.5725    0.0000 C   0  0  0  0  0  0  0  0  0  0  0  0
    5.9106   -6.9850    0.0000 N   0  0  0  0  0  0  0  0  0  0  0  0
    6.6250   -6.5725    0.0000 C   0  0  2  0  0  0  0  0  0  0  0  0
    7.3395   -6.9850    0.0000 C   0  0  0  0  0  0  0  0  0  0  0  0
    8.0540   -6.5725    0.0000 N   0  0  0  0  0  0  0  0  0  0  0  0
    8.6447   -6.8337    0.0000 C   0  0  1  0  0  0  0  0  0  0  0  0
    7.3395   -7.8100    0.0000 O   0  0  0  0  0  0  0  0  0  0  0  0
    5.1961   -5.7475    0.0000 O   0  0  0  0  0  0  0  0  0  0  0  0
    6.6250   -5.7475    0.0000 C   0  0  0  0  0  0  0  0  0  0  0  0
    5.9106   -5.3350    0.0000 C   0  0  0  0  0  0  0  0  0  0  0  0
    7.3395   -5.3350    0.0000 C   0  0  0  0  0  0  0  0  0  0  0  0
    3.8982   -6.4016    0.0000 C   0  0  0  0  0  0  0  0  0  0  0  0
    4.1118   -5.6047    0.0000 C   0  0  0  0  0  0  0  0  0  0  0  0
    3.5284   -5.0213    0.0000 C   0  0  0  0  0  0  0  0  0  0  0  0
    5.1961  -10.4764    0.0000 C   0  0  0  0  0  0  0  0  0  0  0  0
    5.9106  -10.8889    0.0000 C   0  0  0  0  0  0  0  0  0  0  0  0
    4.4816  -10.8889    0.0000 C   0  0  0  0  0  0  0  0  0  0  0  0
    8.1241   -7.3340    0.0000 C   0  0  0  0  0  0  0  0  0  0  0  0
    9.4829   -6.5725    0.0000 C   0  0  0  0  0  0  0  0  0  0  0  0
   10.1974   -6.9850    0.0000 N   0  0  0  0  0  0  0  0  0  0  0  0
   10.9119   -6.5725    0.0000 C   0  0  2  0  0  0  0  0  0  0  0  0
    9.4829   -5.7475    0.0000 O   0  0  0  0  0  0  0  0  0  0  0  0
   11.8326   -7.0125    0.0000 C   0  0  0  0  0  0  0  0  0  0  0  0
   12.4668   -6.4849    0.0000 O   0  0  0  0  0  0  0  0  0  0  0  0
   10.9119   -5.7475    0.0000 C   0  0  0  0  0  0  0  0  0  0  0  0
   11.6263   -5.3350    0.0000 C   0  0  0  0  0  0  0  0  0  0  0  0
   11.6263   -4.5100    0.0000 C   0  0  0  0  0  0  0  0  0  0  0  0
   12.3408   -4.0975    0.0000 N   0  0  0  0  0  0  0  0  0  0  0  0
   13.0553   -4.5100    0.0000 C   0  0  0  0  0  0  0  0  0  0  0  0
   13.7697   -4.0975    0.0000 N   0  0  0  0  0  0  0  0  0  0  0  0
   13.0553   -5.3350    0.0000 N   0  0  0  0  0  0  0  0  0  0  0  0
   12.8170   -9.6995    0.0000 C   0  0  0  0  0  0  0  0  0  0  0  0
   13.5581   -9.3371    0.0000 O   0  0  0  0  0  0  0  0  0  0  0  0
   12.7602  -10.5226    0.0000 N   0  0  0  0  0  0  0  0  0  0  0  0
    3.8982   -9.8223    0.0000 N   0  0  0  0  0  0  0  0  0  0  0  0
    3.1014  -10.0358    0.0000 C   0  0  0  0  0  0  0  0  0  0  0  0
    3.1014  -10.8608    0.0000 O   0  0  0  0  0  0  0  0  0  0  0  0
    2.3045   -9.8223    0.0000 C   0  0  1  0  0  0  0  0  0  0  0  0
    2.0088   -9.0521    0.0000 N   0  0  0  0  0  0  0  0  0  0  0  0
    1.1849   -9.0952    0.0000 C   0  0  0  0  0  0  0  0  0  0  0  0
    0.9714   -9.8921    0.0000 C   0  0  0  0  0  0  0  0  0  0  0  0
    1.6633  -10.3415    0.0000 C   0  0  0  0  0  0  0  0  0  0  0  0
    0.6658   -8.4541    0.0000 O   0  0  0  0  0  0  0  0  0  0  0  0
    8.6447   -6.0087    0.0000 H   0  0  0  0  0  0  0  0  0  0  0  0
    4.9087   -5.3912    0.0000 C   0  0  0  0  0  0  0  0  0  0  0  0
   12.0324  -10.9183    0.0000 C   0  0  0  0  0  0  0  0  0  0  0  0
   12.0154  -11.7432    0.0000 C   0  0  0  0  0  0  0  0  0  0  0  0
   10.3790  -13.1141    0.0000 C   0  0  0  0  0  0  0  0  0  0  0  0
    9.9814  -12.3913    0.0000 N   0  0  0  0  0  0  0  0  0  0  0  0
   10.5460  -11.7897    0.0000 C   0  0  0  0  0  0  0  0  0  0  0  0
   11.2925  -12.1408    0.0000 C   0  0  0  0  0  0  0  0  0  0  0  0
   11.1893  -12.9593    0.0000 N   0  0  0  0  0  0  0  0  0  0  0  0
  1  2  2  0  0  0  0
  2  3  1  0  0  0  0
  3  4  2  0  0  0  0
  4  5  1  0  0  0  0
  5  6  2  0  0  0  0
  6  1  1  0  0  0  0
  4  7  1  0  0  0  0
  7  8  1  0  0  0  0
  8  9  2  0  0  0  0
  9  5  1  0  0  0  0
  8 10  1  0  0  0  0
 10 11  1  0  0  0  0
 11 12  2  0  0  0  0
 12 13  1  0  0  0  0
 13 14  2  0  0  0  0
 14 10  1  0  0  0  0
 12 15  1  0  0  0  0
 16 15  1  6  0  0  0
 16 17  1  0  0  0  0
  2 18  1  0  0  0  0
 18 19  1  0  0  0  0
 19 20  1  0  0  0  0
 20 21  1  0  0  0  0
 20 22  2  0  0  0  0
 21 23  1  0  0  0  0
 23 24  1  0  0  0  0
 24 25  1  0  0  0  0
 25 26  1  0  0  0  0
 26 27  1  0  0  0  0
 27 28  1  0  0  0  0
 28 29  1  0  0  0  0
 27 30  2  0  0  0  0
 24 31  2  0  0  0  0
 26 32  1  1  0  0  0
 32 33  1  0  0  0  0
 32 34  1  0  0  0  0
 23 35  1  1  0  0  0
 35 36  1  0  0  0  0
 36 37  1  0  0  0  0
 18 38  1  1  0  0  0
 38 39  1  0  0  0  0
 38 40  1  0  0  0  0
  9 41  1  0  0  0  0
 41 29  1  0  0  0  0
 29 42  1  6  0  0  0
 42 43  1  0  0  0  0
 43 44  1  0  0  0  0
 42 45  2  0  0  0  0
 44 46  1  0  0  0  0
 46 17  1  0  0  0  0
 46 47  2  0  0  0  0
 44 48  1  1  0  0  0
 48 49  1  0  0  0  0
 49 50  1  0  0  0  0
 50 51  1  0  0  0  0
 51 52  1  0  0  0  0
 52 53  1  0  0  0  0
 52 54  2  0  0  0  0
 16 55  1  1  0  0  0
 55 56  2  0  0  0  0
 55 57  1  0  0  0  0
 19 58  1  6  0  0  0
 58 59  1  0  0  0  0
 59 60  2  0  0  0  0
 59 61  1  0  0  0  0
 61 62  1  6  0  0  0
 62 63  1  0  0  0  0
 63 64  1  0  0  0  0
 64 65  1  0  0  0  0
 65 61  1  0  0  0  0
 63 66  2  0  0  0  0
 29 67  1  1  0  0  0
 36 68  1  0  0  0  0
 69 70  1  0  0  0  0
 71 72  2  0  0  0  0
 72 73  1  0  0  0  0
 73 74  2  0  0  0  0
 74 75  1  0  0  0  0
 71 75  1  0  0  0  0
 70 74  1  0  0  0  0
 69 57  1  0  0  0  0
M  END
>  <cdx:fragmentId>
5

$$$$
