300955.cdx
  Mrv1902 05222410202D          

 12 12  0  0  0  0            999 V2000
    5.0399   -7.2277    0.0000 C   0  0  0  0  0  0  0  0  0  0  0  0
    5.0399   -6.4027    0.0000 C   0  0  0  0  0  0  0  0  0  0  0  0
    5.7544   -5.9902    0.0000 C   0  0  0  0  0  0  0  0  0  0  0  0
    6.4688   -6.4027    0.0000 C   0  0  0  0  0  0  0  0  0  0  0  0
    6.4688   -7.2277    0.0000 C   0  0  0  0  0  0  0  0  0  0  0  0
    5.7544   -7.6402    0.0000 C   0  0  0  0  0  0  0  0  0  0  0  0
    7.1833   -7.6402    0.0000 O   0  0  0  0  0  0  0  0  0  0  0  0
    7.8978   -7.2277    0.0000 C   0  0  0  0  0  0  0  0  0  0  0  0
    4.3254   -5.9902    0.0000 O   0  0  0  0  0  0  0  0  0  0  0  0
    3.6110   -6.4027    0.0000 C   0  0  0  0  0  0  0  0  0  0  0  0
    7.1833   -5.9902    0.0000 Cl  0  0  0  0  0  0  0  0  0  0  0  0
    4.3254   -7.6402    0.0000 Cl  0  0  0  0  0  0  0  0  0  0  0  0
  1  2  1  0  0  0  0
  2  3  2  0  0  0  0
  3  4  1  0  0  0  0
  4  5  2  0  0  0  0
  5  6  1  0  0  0  0
  1  6  2  0  0  0  0
  7  8  1  0  0  0  0
  5  7  1  0  0  0  0
  9 10  1  0  0  0  0
  2  9  1  0  0  0  0
  4 11  1  0  0  0  0
  1 12  1  0  0  0  0
M  END
>  <cdx:fragmentId>
7007

$$$$
