300972.cdx
  Mrv1902 05222410272D          

 34 37  0  0  0  0            999 V2000
    2.6670   -8.0527    0.0000 O   0  0  0  0  0  0  0  0  0  0  0  0
    1.9526   -8.4652    0.0000 C   0  0  1  0  0  0  0  0  0  0  0  0
    1.9526   -9.2902    0.0000 C   0  0  2  0  0  0  0  0  0  0  0  0
    2.6670   -9.7027    0.0000 C   0  0  1  0  0  0  0  0  0  0  0  0
    3.3815   -9.2902    0.0000 C   0  0  2  0  0  0  0  0  0  0  0  0
    3.3815   -8.4652    0.0000 C   0  0  2  0  0  0  0  0  0  0  0  0
    1.2381   -8.0527    0.0000 C   0  0  0  0  0  0  0  0  0  0  0  0
    1.2381   -7.2277    0.0000 O   0  0  0  0  0  0  0  0  0  0  0  0
    0.5236   -8.4652    0.0000 O   0  0  0  0  0  0  0  0  0  0  0  0
    4.0960   -8.0527    0.0000 O   0  0  0  0  0  0  0  0  0  0  0  0
    7.6683   -8.4652    0.0000 C   0  0  0  0  0  0  0  0  0  0  0  0
    7.6683   -9.2902    0.0000 C   0  0  0  0  0  0  0  0  0  0  0  0
    6.9539   -9.7027    0.0000 C   0  0  0  0  0  0  0  0  0  0  0  0
    6.2394   -9.2902    0.0000 C   0  0  0  0  0  0  0  0  0  0  0  0
    5.5249   -9.7027    0.0000 C   0  0  0  0  0  0  0  0  0  0  0  0
    4.8105   -9.2902    0.0000 C   0  0  0  0  0  0  0  0  0  0  0  0
    4.8105   -8.4652    0.0000 C   0  0  0  0  0  0  0  0  0  0  0  0
    5.5249   -8.0527    0.0000 C   0  0  0  0  0  0  0  0  0  0  0  0
    6.2394   -8.4652    0.0000 C   0  0  0  0  0  0  0  0  0  0  0  0
    6.9539   -8.0527    0.0000 O   0  0  0  0  0  0  0  0  0  0  0  0
    6.9539  -10.5277    0.0000 O   0  0  0  0  0  0  0  0  0  0  0  0
    8.3828   -8.0527    0.0000 C   0  0  0  0  0  0  0  0  0  0  0  0
    9.0973   -8.4652    0.0000 C   0  0  0  0  0  0  0  0  0  0  0  0
    9.8118   -8.0527    0.0000 C   0  0  0  0  0  0  0  0  0  0  0  0
    9.8118   -7.2277    0.0000 C   0  0  0  0  0  0  0  0  0  0  0  0
    9.0973   -6.8152    0.0000 C   0  0  0  0  0  0  0  0  0  0  0  0
    8.3828   -7.2277    0.0000 C   0  0  0  0  0  0  0  0  0  0  0  0
   10.5262   -8.4652    0.0000 O   0  0  0  0  0  0  0  0  0  0  0  0
   11.2407   -8.0527    0.0000 C   0  0  0  0  0  0  0  0  0  0  0  0
   10.5262   -6.8152    0.0000 O   0  0  0  0  0  0  0  0  0  0  0  0
    5.5249  -10.5277    0.0000 O   0  0  0  0  0  0  0  0  0  0  0  0
    4.0960   -9.7027    0.0000 O   0  0  0  0  0  0  0  0  0  0  0  0
    2.6670  -10.5277    0.0000 O   0  0  0  0  0  0  0  0  0  0  0  0
    1.2381   -9.7027    0.0000 O   0  0  0  0  0  0  0  0  0  0  0  0
  1  2  1  0  0  0  0
  2  3  1  0  0  0  0
  3  4  1  0  0  0  0
  4  5  1  0  0  0  0
  5  6  1  0  0  0  0
  1  6  1  0  0  0  0
  7  8  2  0  0  0  0
  7  9  1  0  0  0  0
  2  7  1  1  0  0  0
 11 12  2  0  0  0  0
 12 13  1  0  0  0  0
 13 14  1  0  0  0  0
 14 15  1  0  0  0  0
 15 16  2  0  0  0  0
 16 17  1  0  0  0  0
 17 18  2  0  0  0  0
 18 19  1  0  0  0  0
 14 19  2  0  0  0  0
 19 20  1  0  0  0  0
 11 20  1  0  0  0  0
 13 21  2  0  0  0  0
 22 23  1  0  0  0  0
 23 24  2  0  0  0  0
 24 25  1  0  0  0  0
 25 26  2  0  0  0  0
 26 27  1  0  0  0  0
 22 27  2  0  0  0  0
 28 29  1  0  0  0  0
 24 28  1  0  0  0  0
 25 30  1  0  0  0  0
 11 22  1  0  0  0  0
 15 31  1  0  0  0  0
 10 17  1  0  0  0  0
  6 10  1  1  0  0  0
  5 32  1  6  0  0  0
  4 33  1  1  0  0  0
  3 34  1  6  0  0  0
M  END
>  <cdx:fragmentId>
8789

$$$$
