300971.cdx
  Mrv1902 05222410262D          

 25 26  0  0  0  0            999 V2000
    2.9155   -4.4000    0.0000 C   0  0  0  0  0  0  0  0  0  0  0  0
    2.9155   -5.2250    0.0000 C   0  0  0  0  0  0  0  0  0  0  0  0
    3.6300   -5.6375    0.0000 C   0  0  0  0  0  0  0  0  0  0  0  0
    4.3445   -5.2250    0.0000 C   0  0  0  0  0  0  0  0  0  0  0  0
    4.3445   -4.4000    0.0000 C   0  0  0  0  0  0  0  0  0  0  0  0
    3.6300   -3.9875    0.0000 C   0  0  0  0  0  0  0  0  0  0  0  0
    5.0589   -3.9875    0.0000 C   0  0  0  0  0  0  0  0  0  0  0  0
    5.7734   -4.4000    0.0000 C   0  0  0  0  0  0  0  0  0  0  0  0
    5.0589   -3.1625    0.0000 O   0  0  0  0  0  0  0  0  0  0  0  0
    6.4879   -3.9875    0.0000 C   0  0  0  0  0  0  0  0  0  0  0  0
    7.2024   -4.4000    0.0000 O   0  0  0  0  0  0  0  0  0  0  0  0
    5.7734   -5.2250    0.0000 O   0  0  0  0  0  0  0  0  0  0  0  0
    6.4879   -5.6375    0.0000 C   0  0  0  0  0  0  0  0  0  0  0  0
    6.4879   -6.4625    0.0000 C   0  0  0  0  0  0  0  0  0  0  0  0
    7.2024   -6.8750    0.0000 C   0  0  0  0  0  0  0  0  0  0  0  0
    7.9168   -6.4625    0.0000 C   0  0  0  0  0  0  0  0  0  0  0  0
    7.9168   -5.6375    0.0000 C   0  0  0  0  0  0  0  0  0  0  0  0
    7.2024   -5.2250    0.0000 C   0  0  0  0  0  0  0  0  0  0  0  0
    5.7734   -6.8750    0.0000 O   0  0  0  0  0  0  0  0  0  0  0  0
    5.0589   -6.4625    0.0000 C   0  0  0  0  0  0  0  0  0  0  0  0
    8.6313   -6.8750    0.0000 C   0  0  0  0  0  0  0  0  0  0  0  0
    9.3458   -6.4625    0.0000 C   0  0  0  0  0  0  0  0  0  0  0  0
   10.0602   -6.8750    0.0000 C   0  0  0  0  0  0  0  0  0  0  0  0
   10.7747   -6.4625    0.0000 O   0  0  0  0  0  0  0  0  0  0  0  0
    2.2011   -5.6375    0.0000 O   0  0  0  0  0  0  0  0  0  0  0  0
  1  2  2  0  0  0  0
  2  3  1  0  0  0  0
  3  4  2  0  0  0  0
  4  5  1  0  0  0  0
  5  6  2  0  0  0  0
  6  1  1  0  0  0  0
  5  7  1  0  0  0  0
  7  8  1  0  0  0  0
  7  9  1  0  0  0  0
  8 10  1  0  0  0  0
 10 11  1  0  0  0  0
  8 12  1  0  0  0  0
 12 13  1  0  0  0  0
 13 14  2  0  0  0  0
 14 15  1  0  0  0  0
 15 16  2  0  0  0  0
 16 17  1  0  0  0  0
 17 18  2  0  0  0  0
 18 13  1  0  0  0  0
 14 19  1  0  0  0  0
 19 20  1  0  0  0  0
 16 21  1  0  0  0  0
 21 22  2  0  0  0  0
 22 23  1  0  0  0  0
 23 24  1  0  0  0  0
  2 25  1  0  0  0  0
M  END
>  <cdx:fragmentId>
9061

$$$$
