300918.cdx
  Mrv1902 05222410212D          

 27 31  0  0  0  0            999 V2000
    7.4203   -8.4727    0.0000 N   0  0  0  0  0  0  0  0  0  0  0  0
    6.7073   -8.8877    0.0000 C   0  0  0  0  0  0  0  0  0  0  0  0
    5.9913   -8.4777    0.0000 C   0  0  0  0  0  0  0  0  0  0  0  0
    5.2783   -8.8928    0.0000 C   0  0  0  0  0  0  0  0  0  0  0  0
    5.1097   -9.7004    0.0000 O   0  0  0  0  0  0  0  0  0  0  0  0
    4.2895   -9.7895    0.0000 C   0  0  0  0  0  0  0  0  0  0  0  0
    3.9513   -9.0370    0.0000 O   0  0  0  0  0  0  0  0  0  0  0  0
    4.5624   -8.4828    0.0000 C   0  0  0  0  0  0  0  0  0  0  0  0
    4.5595   -7.6578    0.0000 C   0  0  0  0  0  0  0  0  0  0  0  0
    5.2725   -7.2428    0.0000 C   0  0  0  0  0  0  0  0  0  0  0  0
    5.9884   -7.6528    0.0000 C   0  0  0  0  0  0  0  0  0  0  0  0
    6.7014   -7.2377    0.0000 C   0  0  1  0  0  0  0  0  0  0  0  0
    7.4173   -7.6477    0.0000 C   0  0  2  0  0  0  0  0  0  0  0  0
    8.1303   -7.2326    0.0000 C   0  0  0  0  0  0  0  0  0  0  0  0
    8.1274   -6.4076    0.0000 C   0  0  0  0  0  0  0  0  0  0  0  0
    8.8404   -5.9926    0.0000 C   0  0  0  0  0  0  0  0  0  0  0  0
    9.5563   -6.4026    0.0000 C   0  0  0  0  0  0  0  0  0  0  0  0
    9.5593   -7.2276    0.0000 C   0  0  0  0  0  0  0  0  0  0  0  0
    8.8463   -7.6426    0.0000 C   0  0  0  0  0  0  0  0  0  0  0  0
    8.8492   -8.4676    0.0000 C   0  0  0  0  0  0  0  0  0  0  0  0
    8.1362   -8.8826    0.0000 C   0  0  0  0  0  0  0  0  0  0  0  0
    6.6985   -6.4127    0.0000 C   0  0  0  0  0  0  0  0  0  0  0  0
   10.2693   -5.9875    0.0000 O   0  0  0  0  0  0  0  0  0  0  0  0
   10.9853   -6.3975    0.0000 C   0  0  0  0  0  0  0  0  0  0  0  0
    8.8375   -5.1676    0.0000 O   0  0  0  0  0  0  0  0  0  0  0  0
    9.5505   -4.7526    0.0000 C   0  0  0  0  0  0  0  0  0  0  0  0
    7.4144   -6.8227    0.0000 H   0  0  0  0  0  0  0  0  0  0  0  0
  1  2  1  0  0  0  0
  2  3  1  0  0  0  0
  3  4  1  0  0  0  0
  4  5  1  0  0  0  0
  5  6  1  0  0  0  0
  6  7  1  0  0  0  0
  7  8  1  0  0  0  0
  8  9  1  0  0  0  0
  9 10  2  0  0  0  0
 10 11  1  0  0  0  0
 11 12  1  0  0  0  0
 12 13  1  0  0  0  0
 13 14  1  0  0  0  0
 14 15  2  0  0  0  0
 15 16  1  0  0  0  0
 16 17  2  0  0  0  0
 17 18  1  0  0  0  0
 18 19  2  0  0  0  0
 19 20  1  0  0  0  0
 20 21  1  0  0  0  0
  1 21  1  0  0  0  0
  1 13  1  0  0  0  0
  3 11  2  0  0  0  0
  4  8  2  0  0  0  0
 14 19  1  0  0  0  0
 12 22  1  6  0  0  0
 23 24  1  0  0  0  0
 17 23  1  0  0  0  0
 25 26  1  0  0  0  0
 16 25  1  0  0  0  0
 13 27  1  1  0  0  0
M  END
>  <cdx:fragmentId>
1583

$$$$
