300981.cdx
  Mrv1902 05222410192D          

 25 26  0  0  0  0            999 V2000
    6.8228   -6.8702    0.0000 C   0  0  0  0  0  0  0  0  0  0  0  0
    6.1084   -7.2827    0.0000 C   0  0  0  0  0  0  0  0  0  0  0  0
    5.3939   -6.8702    0.0000 C   0  0  0  0  0  0  0  0  0  0  0  0
    6.8228   -6.0452    0.0000 O   0  0  0  0  0  0  0  0  0  0  0  0
    7.5373   -7.2827    0.0000 O   0  0  0  0  0  0  0  0  0  0  0  0
    4.6794   -7.2827    0.0000 C   0  0  0  0  0  0  0  0  0  0  0  0
    3.9650   -6.8702    0.0000 C   0  0  0  0  0  0  0  0  0  0  0  0
    3.2505   -7.2827    0.0000 C   0  0  0  0  0  0  0  0  0  0  0  0
    3.2505   -8.1077    0.0000 C   0  0  0  0  0  0  0  0  0  0  0  0
    3.9650   -8.5202    0.0000 C   0  0  0  0  0  0  0  0  0  0  0  0
    4.6794   -8.1077    0.0000 C   0  0  0  0  0  0  0  0  0  0  0  0
    2.5360   -8.5202    0.0000 O   0  0  0  0  0  0  0  0  0  0  0  0
    1.8215   -8.1077    0.0000 C   0  0  0  0  0  0  0  0  0  0  0  0
    2.5360   -6.8702    0.0000 O   0  0  0  0  0  0  0  0  0  0  0  0
    8.2518   -6.8702    0.0000 C   0  0  0  0  0  0  0  0  0  0  0  0
    8.9662   -7.2827    0.0000 C   0  0  0  0  0  0  0  0  0  0  0  0
    8.9662   -8.1077    0.0000 O   0  0  0  0  0  0  0  0  0  0  0  0
    9.6807   -6.8702    0.0000 C   0  0  0  0  0  0  0  0  0  0  0  0
   10.3952   -7.2827    0.0000 C   0  0  0  0  0  0  0  0  0  0  0  0
   11.1097   -6.8702    0.0000 C   0  0  0  0  0  0  0  0  0  0  0  0
   11.1097   -6.0452    0.0000 C   0  0  0  0  0  0  0  0  0  0  0  0
   10.3952   -5.6327    0.0000 C   0  0  0  0  0  0  0  0  0  0  0  0
    9.6807   -6.0452    0.0000 C   0  0  0  0  0  0  0  0  0  0  0  0
   11.8241   -5.6327    0.0000 O   0  0  0  0  0  0  0  0  0  0  0  0
   11.8241   -7.2827    0.0000 O   0  0  0  0  0  0  0  0  0  0  0  0
  1  2  1  0  0  0  0
  2  3  2  0  0  0  0
  1  4  2  0  0  0  0
  1  5  1  0  0  0  0
  6  7  1  0  0  0  0
  7  8  2  0  0  0  0
  8  9  1  0  0  0  0
  9 10  2  0  0  0  0
 10 11  1  0  0  0  0
  6 11  2  0  0  0  0
 12 13  1  0  0  0  0
  9 12  1  0  0  0  0
  8 14  1  0  0  0  0
  3  6  1  0  0  0  0
 15 16  1  0  0  0  0
 16 17  2  0  0  0  0
 18 19  1  0  0  0  0
 19 20  2  0  0  0  0
 20 21  1  0  0  0  0
 21 22  2  0  0  0  0
 22 23  1  0  0  0  0
 18 23  2  0  0  0  0
 21 24  1  0  0  0  0
 20 25  1  0  0  0  0
 16 18  1  0  0  0  0
  5 15  1  0  0  0  0
M  END
>  <cdx:fragmentId>
9529

$$$$
