	300964.cdx
  Mrv1902 05222410262D          

 36 37  0  0  0  0            999 V2000
    6.4812   -7.1088    0.0000 C   0  0  0  0  0  0  0  0  0  0  0  0
    6.4812   -7.9337    0.0000 C   0  0  2  0  0  0  0  0  0  0  0  0
    7.1956   -8.3462    0.0000 C   0  0  1  0  0  0  0  0  0  0  0  0
    7.9101   -7.9337    0.0000 O   0  0  0  0  0  0  0  0  0  0  0  0
    7.9101   -7.1088    0.0000 C   0  0  0  0  0  0  0  0  0  0  0  0
    7.1956   -6.6962    0.0000 C   0  0  0  0  0  0  0  0  0  0  0  0
    5.6966   -6.8538    0.0000 C   0  0  0  0  0  0  0  0  0  0  0  0
    5.2116   -7.5213    0.0000 C   0  0  1  0  0  0  0  0  0  0  0  0
    5.6966   -8.1887    0.0000 C   0  0  2  0  0  0  0  0  0  0  0  0
    7.1956   -5.8712    0.0000 C   0  0  0  0  0  0  0  0  0  0  0  0
    5.1132   -8.7721    0.0000 C   0  0  0  0  0  0  0  0  0  0  0  0
    4.3163   -8.5585    0.0000 Cl  0  0  0  0  0  0  0  0  0  0  0  0
    4.3866   -7.5213    0.0000 O   0  0  0  0  0  0  0  0  0  0  0  0
    6.4812   -8.7588    0.0000 H   0  0  0  0  0  0  0  0  0  0  0  0
    7.1956   -9.1713    0.0000 O   0  0  0  0  0  0  0  0  0  0  0  0
    5.9101   -8.9856    0.0000 O   0  0  0  0  0  0  0  0  0  0  0  0
    7.9101   -9.5838    0.0000 C   0  0  0  0  0  0  0  0  0  0  0  0
    7.9101  -10.4087    0.0000 C   0  0  0  0  0  0  0  0  0  0  0  0
    3.6730   -7.1074    0.0000 C   0  0  0  0  0  0  0  0  0  0  0  0
    3.6746   -6.2824    0.0000 O   0  0  0  0  0  0  0  0  0  0  0  0
    2.9577   -7.5185    0.0000 C   0  0  0  0  0  0  0  0  0  0  0  0
    2.2440   -7.1046    0.0000 C   0  0  0  0  0  0  0  0  0  0  0  0
    1.5288   -7.5157    0.0000 C   0  0  0  0  0  0  0  0  0  0  0  0
    2.2456   -6.2796    0.0000 C   0  0  0  0  0  0  0  0  0  0  0  0
    8.6246   -9.1713    0.0000 O   0  0  0  0  0  0  0  0  0  0  0  0
    8.6246  -10.8212    0.0000 C   0  0  0  0  0  0  0  0  0  0  0  0
    8.6246  -11.6463    0.0000 C   0  0  0  0  0  0  0  0  0  0  0  0
    9.3391  -10.4087    0.0000 C   0  0  0  0  0  0  0  0  0  0  0  0
    7.9101   -5.4587    0.0000 O   0  0  0  0  0  0  0  0  0  0  0  0
    7.9101   -4.6337    0.0000 C   0  0  0  0  0  0  0  0  0  0  0  0
    8.6246   -4.2212    0.0000 C   0  0  0  0  0  0  0  0  0  0  0  0
    7.1956   -4.2213    0.0000 O   0  0  0  0  0  0  0  0  0  0  0  0
    8.6246   -3.3962    0.0000 C   0  0  0  0  0  0  0  0  0  0  0  0
    9.4496   -3.3962    0.0000 C   0  0  0  0  0  0  0  0  0  0  0  0
    7.7996   -3.3962    0.0000 C   0  0  0  0  0  0  0  0  0  0  0  0
    8.6246   -2.5712    0.0000 O   0  0  0  0  0  0  0  0  0  0  0  0
  1  2  1  0  0  0  0
  2  3  1  0  0  0  0
  3  4  1  0  0  0  0
  4  5  1  0  0  0  0
  5  6  2  0  0  0  0
  6  1  1  0  0  0  0
  1  7  2  0  0  0  0
  7  8  1  0  0  0  0
  8  9  1  0  0  0  0
  9  2  1  0  0  0  0
  6 10  1  0  0  0  0
  9 11  1  0  0  0  0
 11 12  1  0  0  0  0
  8 13  1  1  0  0  0
  2 14  1  1  0  0  0
  3 15  1  1  0  0  0
  9 16  1  6  0  0  0
 15 17  1  0  0  0  0
 17 18  1  0  0  0  0
 13 19  1  0  0  0  0
 19 20  2  0  0  0  0
 19 21  1  0  0  0  0
 21 22  1  0  0  0  0
 22 23  1  0  0  0  0
 22 24  1  0  0  0  0
 17 25  2  0  0  0  0
 18 26  1  0  0  0  0
 26 27  1  0  0  0  0
 26 28  1  0  0  0  0
 10 29  1  0  0  0  0
 29 30  1  0  0  0  0
 30 31  1  0  0  0  0
 30 32  2  0  0  0  0
 31 33  1  0  0  0  0
 33 34  1  0  0  0  0
 33 35  1  0  0  0  0
 33 36  1  0  0  0  0
M  END
>  <cdx:fragmentId>
5

$$$$
