300915.cdx
  Mrv1902 05222410252D          

 27 27  0  0  0  0            999 V2000
    6.1116   -6.1366    0.0000 C   0  0  2  0  0  0  0  0  0  0  0  0
    6.1116   -6.9616    0.0000 C   0  0  2  0  0  0  0  0  0  0  0  0
    5.3971   -7.3741    0.0000 C   0  0  0  0  0  0  0  0  0  0  0  0
    4.6827   -6.9616    0.0000 C   0  0  0  0  0  0  0  0  0  0  0  0
    3.9682   -7.3741    0.0000 C   0  0  0  0  0  0  0  0  0  0  0  0
    3.2537   -6.9616    0.0000 C   0  0  0  0  0  0  0  0  0  0  0  0
    3.2537   -6.1366    0.0000 C   0  0  0  0  0  0  0  0  0  0  0  0
    3.9682   -5.7241    0.0000 C   0  0  0  0  0  0  0  0  0  0  0  0
    4.6827   -6.1366    0.0000 C   0  0  0  0  0  0  0  0  0  0  0  0
    5.3971   -5.7241    0.0000 O   0  0  0  0  0  0  0  0  0  0  0  0
    6.8261   -7.3741    0.0000 O   0  0  0  0  0  0  0  0  0  0  0  0
    3.9682   -8.1991    0.0000 O   0  0  0  0  0  0  0  0  0  0  0  0
    2.5393   -5.7241    0.0000 O   0  0  0  0  0  0  0  0  0  0  0  0
    6.8261   -5.7241    0.0000 C   0  0  0  0  0  0  0  0  0  0  0  0
    7.5406   -6.1366    0.0000 C   0  0  0  0  0  0  0  0  0  0  0  0
    8.2550   -5.7241    0.0000 C   0  0  0  0  0  0  0  0  0  0  0  0
    8.2550   -4.8991    0.0000 C   0  0  0  0  0  0  0  0  0  0  0  0
    7.5406   -4.4866    0.0000 C   0  0  0  0  0  0  0  0  0  0  0  0
    6.8261   -4.8991    0.0000 C   0  0  0  0  0  0  0  0  0  0  0  0
    8.9695   -4.4866    0.0000 O   0  0  0  0  0  0  0  0  0  0  0  0
    8.9695   -6.1366    0.0000 O   0  0  0  0  0  0  0  0  0  0  0  0
    3.9129   -9.4366    0.0000 H   0  0  0  0  0  0  0  0  0  0  0  0
    4.6274   -9.0241    0.0000 O   0  0  0  0  0  0  0  0  0  0  0  0
    5.3419   -9.4366    0.0000 H   0  0  0  0  0  0  0  0  0  0  0  0
    6.1669   -9.4366    0.0000 H   0  0  0  0  0  0  0  0  0  0  0  0
    6.8813   -9.0241    0.0000 O   0  0  0  0  0  0  0  0  0  0  0  0
    7.5958   -9.4366    0.0000 H   0  0  0  0  0  0  0  0  0  0  0  0
  1  2  1  0  0  0  0
  2  3  1  0  0  0  0
  3  4  1  0  0  0  0
  4  5  1  0  0  0  0
  5  6  2  0  0  0  0
  6  7  1  0  0  0  0
  7  8  2  0  0  0  0
  8  9  1  0  0  0  0
  4  9  2  0  0  0  0
  9 10  1  0  0  0  0
  1 10  1  0  0  0  0
  2 11  1  1  0  0  0
  5 12  1  0  0  0  0
  7 13  1  0  0  0  0
 14 15  1  0  0  0  0
 15 16  2  0  0  0  0
 16 17  1  0  0  0  0
 17 18  2  0  0  0  0
 18 19  1  0  0  0  0
 14 19  2  0  0  0  0
 17 20  1  0  0  0  0
 16 21  1  0  0  0  0
  1 14  1  6  0  0  0
 22 23  1  0  0  0  0
 23 24  1  0  0  0  0
 25 26  1  0  0  0  0
 26 27  1  0  0  0  0
M  END
>  <cdx:fragmentId>
1400

$$$$
