300983.cdx
  Mrv1902 05222410202D          

 17 17  0  0  0  0            999 V2000
    4.2149   -4.4962    0.0000 C   0  0  0  0  0  0  0  0  0  0  0  0
    4.2149   -5.3213    0.0000 C   0  0  0  0  0  0  0  0  0  0  0  0
    4.9294   -5.7338    0.0000 N   0  0  0  0  0  0  0  0  0  0  0  0
    5.6438   -5.3213    0.0000 C   0  0  0  0  0  0  0  0  0  0  0  0
    5.6438   -4.4962    0.0000 C   0  0  0  0  0  0  0  0  0  0  0  0
    4.9294   -4.0838    0.0000 C   0  0  0  0  0  0  0  0  0  0  0  0
    4.9294   -6.5587    0.0000 C   0  0  0  0  0  0  0  0  0  0  0  0
    6.3583   -5.7338    0.0000 C   0  0  0  0  0  0  0  0  0  0  0  0
    7.0728   -5.3213    0.0000 C   0  0  0  0  0  0  0  0  0  0  0  0
    7.7873   -5.7338    0.0000 C   0  0  0  0  0  0  0  0  0  0  0  0
    3.5004   -5.7338    0.0000 C   0  0  0  0  0  0  0  0  0  0  0  0
    2.7860   -5.3213    0.0000 C   0  0  0  0  0  0  0  0  0  0  0  0
    2.0715   -5.7338    0.0000 C   0  0  0  0  0  0  0  0  0  0  0  0
    2.7860   -4.4962    0.0000 O   0  0  0  0  0  0  0  0  0  0  0  0
    7.0728   -4.4962    0.0000 O   0  0  0  0  0  0  0  0  0  0  0  0
    8.5017   -5.3213    0.0000 C   0  0  0  0  0  0  0  0  0  0  0  0
    1.3570   -5.3213    0.0000 C   0  0  0  0  0  0  0  0  0  0  0  0
  1  2  1  0  0  0  0
  2  3  1  0  0  0  0
  3  4  1  0  0  0  0
  4  5  1  0  0  0  0
  5  6  1  0  0  0  0
  6  1  1  0  0  0  0
  3  7  1  0  0  0  0
  4  8  1  0  0  0  0
  8  9  1  0  0  0  0
  9 10  1  0  0  0  0
  2 11  1  0  0  0  0
 11 12  1  0  0  0  0
 12 13  1  0  0  0  0
 10 16  1  0  0  0  0
 14 12  1  0  0  0  0
 13 17  1  0  0  0  0
 15  9  1  0  0  0  0
M  END
>  <cdx:fragmentId>
547

$$$$
