301008.cdx
  Mrv1902 05222410222D          

 26 29  0  0  0  0            999 V2000
    7.0595   -6.4439    0.0000 C   0  0  0  0  0  0  0  0  0  0  0  0
    7.7740   -6.8564    0.0000 C   0  0  0  0  0  0  0  0  0  0  0  0
    7.7740   -7.6814    0.0000 C   0  0  0  0  0  0  0  0  0  0  0  0
    7.0595   -8.0939    0.0000 C   0  0  0  0  0  0  0  0  0  0  0  0
    7.0595   -8.9189    0.0000 C   0  0  0  0  0  0  0  0  0  0  0  0
    6.3450   -9.3314    0.0000 C   0  0  0  0  0  0  0  0  0  0  0  0
    5.6306   -8.9189    0.0000 C   0  0  0  0  0  0  0  0  0  0  0  0
    5.6306   -8.0939    0.0000 C   0  0  0  0  0  0  0  0  0  0  0  0
    6.3450   -7.6814    0.0000 C   0  0  0  0  0  0  0  0  0  0  0  0
    6.3450   -6.8564    0.0000 O   0  0  0  0  0  0  0  0  0  0  0  0
    4.9161   -7.6814    0.0000 C   0  0  0  0  0  0  0  0  0  0  0  0
    4.2016   -8.0939    0.0000 C   0  0  0  0  0  0  0  0  0  0  0  0
    4.2016   -8.9189    0.0000 C   0  0  0  0  0  0  0  0  0  0  0  0
    4.9161   -9.3314    0.0000 O   0  0  0  0  0  0  0  0  0  0  0  0
    8.4884   -8.0939    0.0000 O   0  0  0  0  0  0  0  0  0  0  0  0
    3.7891   -9.6333    0.0000 C   0  0  0  0  0  0  0  0  0  0  0  0
    3.3766   -8.9189    0.0000 C   0  0  0  0  0  0  0  0  0  0  0  0
    7.0595   -5.6189    0.0000 C   0  0  0  0  0  0  0  0  0  0  0  0
    6.3450   -5.2064    0.0000 C   0  0  0  0  0  0  0  0  0  0  0  0
    6.3450   -4.3814    0.0000 C   0  0  0  0  0  0  0  0  0  0  0  0
    7.0595   -3.9689    0.0000 C   0  0  0  0  0  0  0  0  0  0  0  0
    7.7740   -4.3814    0.0000 C   0  0  0  0  0  0  0  0  0  0  0  0
    7.7740   -5.2064    0.0000 C   0  0  0  0  0  0  0  0  0  0  0  0
    7.0595   -3.1439    0.0000 O   0  0  0  0  0  0  0  0  0  0  0  0
    7.7740   -9.3314    0.0000 O   0  0  0  0  0  0  0  0  0  0  0  0
    8.4884   -6.4439    0.0000 O   0  0  0  0  0  0  0  0  0  0  0  0
  1  2  2  0  0  0  0
  2  3  1  0  0  0  0
  3  4  1  0  0  0  0
  4  5  1  0  0  0  0
  5  6  2  0  0  0  0
  6  7  1  0  0  0  0
  7  8  2  0  0  0  0
  8  9  1  0  0  0  0
  4  9  2  0  0  0  0
  9 10  1  0  0  0  0
  1 10  1  0  0  0  0
 11 12  2  0  0  0  0
 12 13  1  0  0  0  0
 13 14  1  0  0  0  0
  7 14  1  0  0  0  0
  8 11  1  0  0  0  0
  3 15  2  0  0  0  0
 13 16  1  0  0  0  0
 13 17  1  0  0  0  0
 18 19  1  0  0  0  0
 19 20  2  0  0  0  0
 20 21  1  0  0  0  0
 21 22  2  0  0  0  0
 22 23  1  0  0  0  0
 18 23  2  0  0  0  0
 21 24  1  0  0  0  0
  1 18  1  0  0  0  0
  5 25  1  0  0  0  0
  2 26  1  0  0  0  0
M  END
>  <cdx:fragmentId>
465

$$$$
