301056.cdx
  Mrv1902 05222410192D          

 25 28  0  0  0  0            999 V2000
    7.2190   -8.7196    0.0000 C   0  0  0  0  0  0  0  0  0  0  0  0
    7.9335   -8.3071    0.0000 N   0  3  0  0  0  0  0  0  0  0  0  0
    7.9335   -7.4821    0.0000 C   0  0  0  0  0  0  0  0  0  0  0  0
    7.2190   -7.0696    0.0000 C   0  0  0  0  0  0  0  0  0  0  0  0
    6.5045   -7.4821    0.0000 C   0  0  0  0  0  0  0  0  0  0  0  0
    5.7901   -7.0696    0.0000 C   0  0  0  0  0  0  0  0  0  0  0  0
    5.0756   -7.4821    0.0000 C   0  0  0  0  0  0  0  0  0  0  0  0
    5.0756   -8.3071    0.0000 C   0  0  0  0  0  0  0  0  0  0  0  0
    5.7901   -8.7196    0.0000 C   0  0  0  0  0  0  0  0  0  0  0  0
    6.5045   -8.3071    0.0000 C   0  0  0  0  0  0  0  0  0  0  0  0
    8.6480   -8.7196    0.0000 C   0  0  0  0  0  0  0  0  0  0  0  0
    9.3624   -8.3071    0.0000 C   0  0  0  0  0  0  0  0  0  0  0  0
    9.3624   -7.4821    0.0000 C   0  0  0  0  0  0  0  0  0  0  0  0
   10.0769   -7.0696    0.0000 C   0  0  0  0  0  0  0  0  0  0  0  0
   10.0769   -6.2446    0.0000 C   0  0  0  0  0  0  0  0  0  0  0  0
    9.3624   -5.8321    0.0000 C   0  0  0  0  0  0  0  0  0  0  0  0
    8.6480   -6.2446    0.0000 C   0  0  0  0  0  0  0  0  0  0  0  0
    8.6480   -7.0696    0.0000 C   0  0  0  0  0  0  0  0  0  0  0  0
    9.3624   -5.0071    0.0000 O   0  0  0  0  0  0  0  0  0  0  0  0
    5.7901   -9.5446    0.0000 O   0  0  0  0  0  0  0  0  0  0  0  0
    7.9335   -9.1321    0.0000 C   0  0  0  0  0  0  0  0  0  0  0  0
    4.3611   -8.7196    0.0000 O   0  0  0  0  0  0  0  0  0  0  0  0
    3.6467   -8.3071    0.0000 C   0  0  0  0  0  0  0  0  0  0  0  0
   10.7914   -5.8321    0.0000 O   0  0  0  0  0  0  0  0  0  0  0  0
   11.5058   -6.2446    0.0000 C   0  0  0  0  0  0  0  0  0  0  0  0
  1  2  1  0  0  0  0
  2  3  1  0  0  0  0
  3  4  1  0  0  0  0
  4  5  1  0  0  0  0
  5  6  1  0  0  0  0
  6  7  2  0  0  0  0
  7  8  1  0  0  0  0
  8  9  2  0  0  0  0
  9 10  1  0  0  0  0
  1 10  1  0  0  0  0
  5 10  2  0  0  0  0
 11 12  1  0  0  0  0
 12 13  1  0  0  0  0
 13 14  1  0  0  0  0
 14 15  2  0  0  0  0
 15 16  1  0  0  0  0
 16 17  2  0  0  0  0
 17 18  1  0  0  0  0
 13 18  2  0  0  0  0
  2 11  1  0  0  0  0
  3 18  1  0  0  0  0
 16 19  1  0  0  0  0
  9 20  1  0  0  0  0
  2 21  1  0  0  0  0
 22 23  1  0  0  0  0
  8 22  1  0  0  0  0
 24 25  1  0  0  0  0
 15 24  1  0  0  0  0
M  CHG  1   2   1
M  END
>  <cdx:fragmentId>
4230

$$$$
