301014.cdx
  Mrv1902 05222410242D          

 45 49  0  0  0  0            999 V2000
    6.0590   -9.0893    0.0000 O   0  0  0  0  0  0  0  0  0  0  0  0
    6.7750   -9.4991    0.0000 C   0  0  2  0  0  0  0  0  0  0  0  0
    6.7781  -10.3241    0.0000 C   0  0  1  0  0  0  0  0  0  0  0  0
    6.0652  -10.7393    0.0000 C   0  0  2  0  0  0  0  0  0  0  0  0
    5.3491  -10.3294    0.0000 C   0  0  1  0  0  0  0  0  0  0  0  0
    5.3461   -9.5044    0.0000 C   0  0  1  0  0  0  0  0  0  0  0  0
    7.4879   -9.0839    0.0000 O   0  0  0  0  0  0  0  0  0  0  0  0
   11.0603   -9.4964    0.0000 C   0  0  0  0  0  0  0  0  0  0  0  0
   11.0603  -10.3214    0.0000 C   0  0  0  0  0  0  0  0  0  0  0  0
   10.3458  -10.7339    0.0000 C   0  0  0  0  0  0  0  0  0  0  0  0
    9.6313  -10.3214    0.0000 C   0  0  0  0  0  0  0  0  0  0  0  0
    8.9169  -10.7339    0.0000 C   0  0  0  0  0  0  0  0  0  0  0  0
    8.2024  -10.3214    0.0000 C   0  0  0  0  0  0  0  0  0  0  0  0
    8.2024   -9.4964    0.0000 C   0  0  0  0  0  0  0  0  0  0  0  0
    8.9169   -9.0839    0.0000 C   0  0  0  0  0  0  0  0  0  0  0  0
    9.6313   -9.4964    0.0000 C   0  0  0  0  0  0  0  0  0  0  0  0
   10.3458   -9.0839    0.0000 O   0  0  0  0  0  0  0  0  0  0  0  0
   10.3458  -11.5589    0.0000 O   0  0  0  0  0  0  0  0  0  0  0  0
   11.7748   -9.0839    0.0000 C   0  0  0  0  0  0  0  0  0  0  0  0
   11.7748   -8.2589    0.0000 C   0  0  0  0  0  0  0  0  0  0  0  0
   12.4892   -7.8464    0.0000 C   0  0  0  0  0  0  0  0  0  0  0  0
   13.2037   -8.2589    0.0000 C   0  0  0  0  0  0  0  0  0  0  0  0
   13.2037   -9.0839    0.0000 C   0  0  0  0  0  0  0  0  0  0  0  0
   12.4892   -9.4964    0.0000 C   0  0  0  0  0  0  0  0  0  0  0  0
   13.9182   -7.8464    0.0000 O   0  0  0  0  0  0  0  0  0  0  0  0
    8.9169  -11.5589    0.0000 O   0  0  0  0  0  0  0  0  0  0  0  0
    4.6362  -10.7446    0.0000 O   0  0  0  0  0  0  0  0  0  0  0  0
    6.0682  -11.5642    0.0000 O   0  0  0  0  0  0  0  0  0  0  0  0
    4.6301   -9.0946    0.0000 C   0  0  0  0  0  0  0  0  0  0  0  0
    4.6270   -8.2696    0.0000 O   0  0  0  0  0  0  0  0  0  0  0  0
    3.9171   -9.5098    0.0000 O   0  0  0  0  0  0  0  0  0  0  0  0
    7.4941  -10.7339    0.0000 O   0  0  0  0  0  0  0  0  0  0  0  0
   12.4892   -7.0214    0.0000 O   0  0  0  0  0  0  0  0  0  0  0  0
    3.2011   -9.0999    0.0000 C   0  0  2  0  0  0  0  0  0  0  0  0
    3.1965   -8.2749    0.0000 O   0  0  0  0  0  0  0  0  0  0  0  0
    2.4797   -7.8664    0.0000 C   0  0  1  0  0  0  0  0  0  0  0  0
    1.7676   -8.2749    0.0000 C   0  0  2  0  0  0  0  0  0  0  0  0
    1.7676   -9.0999    0.0000 C   0  0  1  0  0  0  0  0  0  0  0  0
    2.4797   -9.5084    0.0000 C   0  0  1  0  0  0  0  0  0  0  0  0
    2.4786   -7.0414    0.0000 C   0  0  0  0  0  0  0  0  0  0  0  0
    1.0537   -9.5134    0.0000 O   0  0  0  0  0  0  0  0  0  0  0  0
    1.0537   -7.8614    0.0000 O   0  0  0  0  0  0  0  0  0  0  0  0
    2.4775  -10.3334    0.0000 O   0  0  0  0  0  0  0  0  0  0  0  0
    3.1925   -6.6279    0.0000 O   0  0  0  0  0  0  0  0  0  0  0  0
    1.7636   -6.6299    0.0000 O   0  0  0  0  0  0  0  0  0  0  0  0
  1  2  1  0  0  0  0
  2  3  1  0  0  0  0
  3  4  1  0  0  0  0
  4  5  1  0  0  0  0
  5  6  1  0  0  0  0
  1  6  1  0  0  0  0
  8  9  2  0  0  0  0
  9 10  1  0  0  0  0
 10 11  1  0  0  0  0
 11 12  1  0  0  0  0
 12 13  2  0  0  0  0
 13 14  1  0  0  0  0
 14 15  2  0  0  0  0
 15 16  1  0  0  0  0
 11 16  2  0  0  0  0
 16 17  1  0  0  0  0
  8 17  1  0  0  0  0
 10 18  2  0  0  0  0
 19 20  1  0  0  0  0
 20 21  2  0  0  0  0
 21 22  1  0  0  0  0
 22 23  2  0  0  0  0
 23 24  1  0  0  0  0
 19 24  2  0  0  0  0
 22 25  1  0  0  0  0
  8 19  1  0  0  0  0
 12 26  1  0  0  0  0
  7 14  1  0  0  0  0
  2  7  1  1  0  0  0
  5 27  1  6  0  0  0
  4 28  1  1  0  0  0
 29 30  2  0  0  0  0
 29 31  1  0  0  0  0
  6 29  1  1  0  0  0
  3 32  1  6  0  0  0
 21 33  1  0  0  0  0
 34 31  1  1  0  0  0
 34 35  1  0  0  0  0
 35 36  1  0  0  0  0
 36 37  1  0  0  0  0
 37 38  1  0  0  0  0
 38 39  1  0  0  0  0
 39 34  1  0  0  0  0
 36 40  1  1  0  0  0
 38 41  1  1  0  0  0
 37 42  1  6  0  0  0
 39 43  1  6  0  0  0
 40 44  2  0  0  0  0
 40 45  1  0  0  0  0
M  END
>  <cdx:fragmentId>
1195

$$$$
