301055.cdx
  Mrv1902 05222410202D          

  3  2  0  0  0  0            999 V2000
    4.8344   -6.2225    0.0000 N   0  0  0  0  0  0  0  0  0  0  0  0
    5.5489   -5.8100    0.0000 C   0  0  0  0  0  0  0  0  0  0  0  0
    6.2633   -5.3975    0.0000 Cl  0  0  0  0  0  0  0  0  0  0  0  0
  1  2  3  0  0  0  0
  2  3  1  0  0  0  0
M  END
>  <cdx:fragmentId>
3226

$$$$
