301083.cdx
  Mrv1902 05222410202D          

  6  6  0  0  0  0            999 V2000
    7.2980   -8.2764    0.0000 C   0  0  0  0  0  0  0  0  0  0  0  0
    6.4732   -8.2610    0.0000 C   0  0  0  0  0  0  0  0  0  0  0  0
    6.2329   -7.4717    0.0000 C   0  0  0  0  0  0  0  0  0  0  0  0
    6.9093   -6.9993    0.0000 C   0  0  0  0  0  0  0  0  0  0  0  0
    7.5676   -7.4966    0.0000 C   0  0  0  0  0  0  0  0  0  0  0  0
    7.7704   -8.9528    0.0000 C   0  0  0  0  0  0  0  0  0  0  0  0
  1  2  2  0  0  0  0
  2  3  1  0  0  0  0
  3  4  1  0  0  0  0
  4  5  1  0  0  0  0
  1  5  1  0  0  0  0
  1  6  1  0  0  0  0
M  END
>  <cdx:fragmentId>
6022

$$$$
