301060.cdx
  Mrv1902 05222410272D          

 21 23  0  0  0  0            999 V2000
    8.6293  -10.0868    0.0000 H   0  0  0  0  0  0  0  0  0  0  0  0
    3.5432   -9.6614    0.0000 O   0  0  0  0  0  0  0  0  0  0  0  0
    5.6880   -9.2562    0.0000 C   0  0  0  0  0  0  0  0  0  0  0  0
    4.9721   -9.6663    0.0000 C   0  0  0  0  0  0  0  0  0  0  0  0
    4.2591   -9.2513    0.0000 C   0  0  0  0  0  0  0  0  0  0  0  0
    4.2619   -8.4263    0.0000 C   0  0  0  0  0  0  0  0  0  0  0  0
    4.9778   -8.0163    0.0000 C   0  0  0  0  0  0  0  0  0  0  0  0
    5.6908   -8.4312    0.0000 C   0  0  0  0  0  0  0  0  0  0  0  0
    6.4067   -8.0212    0.0000 C   0  0  0  0  0  0  0  0  0  0  0  0
    7.8384   -7.2011    0.0000 O   0  0  0  0  0  0  0  0  0  0  0  0
    7.8272  -10.5011    0.0000 O   0  0  0  0  0  0  0  0  0  0  0  0
    9.3342   -8.1888    0.0000 C   0  0  0  0  0  0  0  0  0  0  0  0
    9.8168   -8.8578    0.0000 C   0  0  0  0  0  0  0  0  0  0  0  0
    9.3296   -9.5236    0.0000 C   0  0  0  0  0  0  0  0  0  0  0  0
    7.8356   -8.0261    0.0000 C   0  0  0  0  0  0  0  0  0  0  0  0
    7.1197   -8.4361    0.0000 C   0  0  1  0  0  0  0  0  0  0  0  0
    7.1169   -9.2611    0.0000 N   0  0  0  0  0  0  0  0  0  0  0  0
    8.5487   -8.4410    0.0000 N   0  0  0  0  0  0  0  0  0  0  0  0
    7.8300   -9.6761    0.0000 C   0  0  0  0  0  0  0  0  0  0  0  0
    8.5459   -9.2660    0.0000 C   0  0  1  0  0  0  0  0  0  0  0  0
    7.1226   -7.6111    0.0000 H   0  0  0  0  0  0  0  0  0  0  0  0
 20  1  1  1  0  0  0
 16  9  1  0  0  0  0
  9  8  1  0  0  0  0
  5  2  1  0  0  0  0
  8  3  2  0  0  0  0
  4  3  1  0  0  0  0
  5  4  2  0  0  0  0
  6  5  1  0  0  0  0
  7  6  2  0  0  0  0
  8  7  1  0  0  0  0
 15 10  2  0  0  0  0
 19 11  2  0  0  0  0
 20 14  1  0  0  0  0
 18 12  1  0  0  0  0
 13 12  1  0  0  0  0
 14 13  1  0  0  0  0
 18 15  1  0  0  0  0
 16 15  1  0  0  0  0
 17 16  1  0  0  0  0
 19 17  1  0  0  0  0
 20 18  1  0  0  0  0
 20 19  1  0  0  0  0
 16 21  1  6  0  0  0
M  END
>  <cdx:fragmentId>
4395

$$$$
