301000.cdx
  Mrv1902 05222410242D          

 43 47  0  0  0  0            999 V2000
    2.7309   -9.7027    0.0000 C   0  0  0  0  0  0  0  0  0  0  0  0
    2.0164  -10.1152    0.0000 C   0  0  0  0  0  0  0  0  0  0  0  0
    1.3019   -9.7027    0.0000 C   0  0  0  0  0  0  0  0  0  0  0  0
    2.7309   -8.8777    0.0000 O   0  0  0  0  0  0  0  0  0  0  0  0
    3.4454  -10.1152    0.0000 O   0  0  0  0  0  0  0  0  0  0  0  0
    1.3019   -8.8777    0.0000 C   0  0  0  0  0  0  0  0  0  0  0  0
    0.5875   -8.4652    0.0000 C   0  0  0  0  0  0  0  0  0  0  0  0
    0.5875   -7.6402    0.0000 C   0  0  0  0  0  0  0  0  0  0  0  0
    1.3019   -7.2277    0.0000 C   0  0  0  0  0  0  0  0  0  0  0  0
    2.0164   -7.6402    0.0000 C   0  0  0  0  0  0  0  0  0  0  0  0
    2.0164   -8.4652    0.0000 C   0  0  0  0  0  0  0  0  0  0  0  0
    1.3019   -6.4027    0.0000 O   0  0  0  0  0  0  0  0  0  0  0  0
    4.1598   -9.7027    0.0000 C   0  0  0  0  0  0  0  0  0  0  0  0
    5.5888   -9.7027    0.0000 O   0  0  0  0  0  0  0  0  0  0  0  0
    4.8743  -10.1152    0.0000 C   0  0  1  0  0  0  0  0  0  0  0  0
    4.8743  -10.9402    0.0000 C   0  0  2  0  0  0  0  0  0  0  0  0
    5.5888  -11.3527    0.0000 C   0  0  1  0  0  0  0  0  0  0  0  0
    6.3032  -10.9402    0.0000 C   0  0  2  0  0  0  0  0  0  0  0  0
    6.3032  -10.1152    0.0000 C   0  0  2  0  0  0  0  0  0  0  0  0
    7.0177  -11.3527    0.0000 O   0  0  0  0  0  0  0  0  0  0  0  0
    5.5888  -12.1777    0.0000 O   0  0  0  0  0  0  0  0  0  0  0  0
    4.1598  -11.3527    0.0000 O   0  0  0  0  0  0  0  0  0  0  0  0
    7.0177   -9.7027    0.0000 O   0  0  0  0  0  0  0  0  0  0  0  0
    7.7322   -8.4652    0.0000 C   0  0  0  0  0  0  0  0  0  0  0  0
    7.0177   -8.8777    0.0000 C   0  0  0  0  0  0  0  0  0  0  0  0
    6.3032   -8.4652    0.0000 C   0  0  0  0  0  0  0  0  0  0  0  0
    6.3032   -7.6402    0.0000 C   0  0  0  0  0  0  0  0  0  0  0  0
    5.5888   -7.2277    0.0000 C   0  0  0  0  0  0  0  0  0  0  0  0
    5.5888   -6.4027    0.0000 C   0  0  0  0  0  0  0  0  0  0  0  0
    6.3032   -5.9902    0.0000 C   0  0  0  0  0  0  0  0  0  0  0  0
    7.0177   -6.4027    0.0000 C   0  0  0  0  0  0  0  0  0  0  0  0
    7.0177   -7.2277    0.0000 C   0  0  0  0  0  0  0  0  0  0  0  0
    7.7322   -7.6402    0.0000 O   0  0  0  0  0  0  0  0  0  0  0  0
    5.5888   -8.8777    0.0000 O   0  0  0  0  0  0  0  0  0  0  0  0
    8.4467   -8.8777    0.0000 C   0  0  0  0  0  0  0  0  0  0  0  0
    9.1611   -8.4652    0.0000 C   0  0  0  0  0  0  0  0  0  0  0  0
    9.8756   -8.8777    0.0000 C   0  0  0  0  0  0  0  0  0  0  0  0
    9.8756   -9.7027    0.0000 C   0  0  0  0  0  0  0  0  0  0  0  0
    9.1611  -10.1152    0.0000 C   0  0  0  0  0  0  0  0  0  0  0  0
    8.4467   -9.7027    0.0000 C   0  0  0  0  0  0  0  0  0  0  0  0
   10.5901  -10.1152    0.0000 O   0  0  0  0  0  0  0  0  0  0  0  0
    6.3032   -5.1652    0.0000 O   0  0  0  0  0  0  0  0  0  0  0  0
    4.8743   -7.6402    0.0000 O   0  0  0  0  0  0  0  0  0  0  0  0
  1  2  1  0  0  0  0
  2  3  2  0  0  0  0
  1  4  2  0  0  0  0
  1  5  1  0  0  0  0
  6  7  1  0  0  0  0
  7  8  2  0  0  0  0
  8  9  1  0  0  0  0
  9 10  2  0  0  0  0
 10 11  1  0  0  0  0
  6 11  2  0  0  0  0
  9 12  1  0  0  0  0
  3  6  1  0  0  0  0
 14 15  1  0  0  0  0
 15 16  1  0  0  0  0
 16 17  1  0  0  0  0
 17 18  1  0  0  0  0
 18 19  1  0  0  0  0
 14 19  1  0  0  0  0
 18 20  1  6  0  0  0
 17 21  1  1  0  0  0
 16 22  1  6  0  0  0
 24 25  2  0  0  0  0
 25 26  1  0  0  0  0
 26 27  1  0  0  0  0
 27 28  1  0  0  0  0
 28 29  2  0  0  0  0
 29 30  1  0  0  0  0
 30 31  2  0  0  0  0
 31 32  1  0  0  0  0
 27 32  2  0  0  0  0
 32 33  1  0  0  0  0
 24 33  1  0  0  0  0
 26 34  2  0  0  0  0
 35 36  1  0  0  0  0
 36 37  2  0  0  0  0
 37 38  1  0  0  0  0
 38 39  2  0  0  0  0
 39 40  1  0  0  0  0
 35 40  2  0  0  0  0
 38 41  1  0  0  0  0
 24 35  1  0  0  0  0
 30 42  1  0  0  0  0
 28 43  1  0  0  0  0
 23 25  1  0  0  0  0
 19 23  1  1  0  0  0
 15 13  1  1  0  0  0
  5 13  1  0  0  0  0
M  END
>  <cdx:fragmentId>
11062

$$$$
