30104.cdx
  Mrv1902 05222410272D          

 28 30  0  0  0  0            999 V2000
    4.9206   -8.1801    0.0000 O   0  0  0  0  0  0  0  0  0  0  0  0
    4.9206   -9.0051    0.0000 C   0  0  0  0  0  0  0  0  0  0  0  0
    5.6350   -9.4176    0.0000 C   0  0  0  0  0  0  0  0  0  0  0  0
    6.3495   -9.0051    0.0000 C   0  0  0  0  0  0  0  0  0  0  0  0
    6.3495   -8.1801    0.0000 C   0  0  0  0  0  0  0  0  0  0  0  0
    5.6350   -7.7676    0.0000 C   0  0  0  0  0  0  0  0  0  0  0  0
    7.0640   -7.7676    0.0000 C   0  0  0  0  0  0  0  0  0  0  0  0
    7.0640   -6.9426    0.0000 C   0  0  0  0  0  0  0  0  0  0  0  0
    6.3495   -6.5301    0.0000 C   0  0  0  0  0  0  0  0  0  0  0  0
    5.6350   -6.9426    0.0000 C   0  0  0  0  0  0  0  0  0  0  0  0
    7.7784   -8.1801    0.0000 O   0  0  0  0  0  0  0  0  0  0  0  0
    8.4929   -7.7676    0.0000 C   0  0  0  0  0  0  0  0  0  0  0  0
    8.4929   -6.9426    0.0000 C   0  0  0  0  0  0  0  0  0  0  0  0
    7.7784   -6.5301    0.0000 C   0  0  0  0  0  0  0  0  0  0  0  0
    9.2074   -8.1801    0.0000 O   0  0  0  0  0  0  0  0  0  0  0  0
    7.0640   -9.4176    0.0000 O   0  0  0  0  0  0  0  0  0  0  0  0
    5.6350  -10.2426    0.0000 O   0  0  0  0  0  0  0  0  0  0  0  0
    4.0956   -9.0051    0.0000 C   0  0  0  0  0  0  0  0  0  0  0  0
    4.7070   -9.8020    0.0000 C   0  0  0  0  0  0  0  0  0  0  0  0
    4.9206  -10.6551    0.0000 C   0  0  0  0  0  0  0  0  0  0  0  0
    4.9206  -11.4801    0.0000 C   0  0  0  0  0  0  0  0  0  0  0  0
    4.2061  -10.2426    0.0000 O   0  0  0  0  0  0  0  0  0  0  0  0
    7.0640  -10.2426    0.0000 C   0  0  0  0  0  0  0  0  0  0  0  0
    7.7784  -10.6551    0.0000 C   0  0  0  0  0  0  0  0  0  0  0  0
    6.3495  -10.6551    0.0000 O   0  0  0  0  0  0  0  0  0  0  0  0
    8.4929  -10.2426    0.0000 C   0  0  0  0  0  0  0  0  0  0  0  0
    8.4929   -9.4176    0.0000 C   0  0  0  0  0  0  0  0  0  0  0  0
    9.2074  -10.6551    0.0000 C   0  0  0  0  0  0  0  0  0  0  0  0
  1  2  1  0  0  0  0
  2  3  1  0  0  0  0
  3  4  1  0  0  0  0
  4  5  1  0  0  0  0
  5  6  2  0  0  0  0
  6  1  1  0  0  0  0
  5  7  1  0  0  0  0
  7  8  2  0  0  0  0
  8  9  1  0  0  0  0
  9 10  2  0  0  0  0
 10  6  1  0  0  0  0
  7 11  1  0  0  0  0
 11 12  1  0  0  0  0
 12 13  1  0  0  0  0
 13 14  2  0  0  0  0
 14  8  1  0  0  0  0
 12 15  2  0  0  0  0
  4 16  1  0  0  0  0
  3 17  1  0  0  0  0
  2 18  1  0  0  0  0
  2 19  1  0  0  0  0
 17 20  1  0  0  0  0
 20 21  1  0  0  0  0
 20 22  2  0  0  0  0
 16 23  1  0  0  0  0
 23 24  1  0  0  0  0
 23 25  2  0  0  0  0
 24 26  2  0  0  0  0
 26 27  1  0  0  0  0
 26 28  1  0  0  0  0
M  END
>  <cdx:fragmentId>
5

$$$$
