301013.cdx
  Mrv1902 05222410242D          

 44 48  0  0  0  0            999 V2000
    3.2637   -9.0739    0.0000 O   0  0  0  0  0  0  0  0  0  0  0  0
    3.9802   -7.0121    0.0000 O   0  0  0  0  0  0  0  0  0  0  0  0
    3.2661   -6.5989    0.0000 C   0  0  1  0  0  0  0  0  0  0  0  0
    2.5512   -7.0107    0.0000 C   0  0  2  0  0  0  0  0  0  0  0  0
    2.5504   -7.8357    0.0000 C   0  0  1  0  0  0  0  0  0  0  0  0
    3.2645   -8.2489    0.0000 C   0  0  2  0  0  0  0  0  0  0  0  0
    3.9794   -7.8371    0.0000 C   0  0  2  0  0  0  0  0  0  0  0  0
    3.2669   -5.7739    0.0000 C   0  0  0  0  0  0  0  0  0  0  0  0
    2.5529   -5.3607    0.0000 O   0  0  0  0  0  0  0  0  0  0  0  0
    3.9818   -5.3621    0.0000 O   0  0  0  0  0  0  0  0  0  0  0  0
    1.8356   -8.2474    0.0000 O   0  0  0  0  0  0  0  0  0  0  0  0
    7.5574   -5.7776    0.0000 O   0  0  0  0  0  0  0  0  0  0  0  0
    8.2711   -7.0156    0.0000 O   0  0  0  0  0  0  0  0  0  0  0  0
    7.5569   -6.6026    0.0000 C   0  0  0  0  0  0  0  0  0  0  0  0
    4.6990   -6.6006    0.0000 O   0  0  0  0  0  0  0  0  0  0  0  0
    6.1285   -5.7766    0.0000 O   0  0  0  0  0  0  0  0  0  0  0  0
    7.5552  -11.5516    0.0000 O   0  0  0  0  0  0  0  0  0  0  0  0
   12.5565   -7.8391    0.0000 O   0  0  0  0  0  0  0  0  0  0  0  0
   10.4131   -8.2516    0.0000 C   0  0  0  0  0  0  0  0  0  0  0  0
   11.1275   -7.8391    0.0000 C   0  0  0  0  0  0  0  0  0  0  0  0
   11.8420   -8.2516    0.0000 C   0  0  0  0  0  0  0  0  0  0  0  0
   11.8420   -9.0766    0.0000 C   0  0  0  0  0  0  0  0  0  0  0  0
   11.1275   -9.4891    0.0000 C   0  0  0  0  0  0  0  0  0  0  0  0
   10.4131   -9.0766    0.0000 C   0  0  0  0  0  0  0  0  0  0  0  0
    8.9841  -11.5516    0.0000 O   0  0  0  0  0  0  0  0  0  0  0  0
    8.9841   -9.0766    0.0000 O   0  0  0  0  0  0  0  0  0  0  0  0
    8.2697   -9.4891    0.0000 C   0  0  0  0  0  0  0  0  0  0  0  0
    7.5552   -9.0766    0.0000 C   0  0  0  0  0  0  0  0  0  0  0  0
    6.8407   -9.4891    0.0000 C   0  0  0  0  0  0  0  0  0  0  0  0
    6.8407  -10.3141    0.0000 C   0  0  0  0  0  0  0  0  0  0  0  0
    7.5552  -10.7266    0.0000 C   0  0  0  0  0  0  0  0  0  0  0  0
    8.2697  -10.3141    0.0000 C   0  0  0  0  0  0  0  0  0  0  0  0
    8.9841  -10.7266    0.0000 C   0  0  0  0  0  0  0  0  0  0  0  0
    9.6986  -10.3141    0.0000 C   0  0  0  0  0  0  0  0  0  0  0  0
    9.6986   -9.4891    0.0000 C   0  0  0  0  0  0  0  0  0  0  0  0
    6.1262   -9.0766    0.0000 O   0  0  0  0  0  0  0  0  0  0  0  0
    6.8421   -7.0146    0.0000 C   0  0  2  0  0  0  0  0  0  0  0  0
    6.1279   -6.6016    0.0000 C   0  0  2  0  0  0  0  0  0  0  0  0
    5.4132   -7.0136    0.0000 C   0  0  1  0  0  0  0  0  0  0  0  0
    5.4126   -7.8386    0.0000 C   0  0  2  0  0  0  0  0  0  0  0  0
    6.1268   -8.2516    0.0000 C   0  0  1  0  0  0  0  0  0  0  0  0
    6.8416   -7.8396    0.0000 O   0  0  0  0  0  0  0  0  0  0  0  0
    1.8372   -6.5975    0.0000 O   0  0  0  0  0  0  0  0  0  0  0  0
    4.6934   -8.2503    0.0000 O   0  0  0  0  0  0  0  0  0  0  0  0
  6  1  1  6  0  0  0
 37 14  1  1  0  0  0
 14 12  1  0  0  0  0
 14 13  2  0  0  0  0
 39 15  1  1  0  0  0
 38 16  1  6  0  0  0
 41 36  1  1  0  0  0
 36 29  1  0  0  0  0
 31 17  1  0  0  0  0
 35 24  1  0  0  0  0
 21 18  1  0  0  0  0
 24 19  2  0  0  0  0
 20 19  1  0  0  0  0
 21 20  2  0  0  0  0
 22 21  1  0  0  0  0
 23 22  2  0  0  0  0
 24 23  1  0  0  0  0
 33 25  2  0  0  0  0
 35 26  1  0  0  0  0
 27 26  1  0  0  0  0
 32 27  2  0  0  0  0
 28 27  1  0  0  0  0
 29 28  2  0  0  0  0
 30 29  1  0  0  0  0
 31 30  2  0  0  0  0
 32 31  1  0  0  0  0
 33 32  1  0  0  0  0
 34 33  1  0  0  0  0
 35 34  2  0  0  0  0
 42 37  1  0  0  0  0
 38 37  1  0  0  0  0
 39 38  1  0  0  0  0
 40 39  1  0  0  0  0
 41 40  1  0  0  0  0
 42 41  1  0  0  0  0
  2  3  1  0  0  0  0
  3  4  1  0  0  0  0
  4  5  1  0  0  0  0
  5  6  1  0  0  0  0
  6  7  1  0  0  0  0
  2  7  1  0  0  0  0
  8  9  2  0  0  0  0
  8 10  1  0  0  0  0
  3  8  1  1  0  0  0
  5 11  1  1  0  0  0
  4 43  1  6  0  0  0
  7 44  1  1  0  0  0
 40 44  1  6  0  0  0
M  END
>  <cdx:fragmentId>
45

$$$$
