301092.cdx
  Mrv1902 05222410182D          

 11 10  0  0  0  0            999 V2000
    7.6413  -14.9079    0.0000 C   0  0  0  0  0  0  0  0  0  0  0  0
    6.9268  -15.3204    0.0000 C   0  0  0  0  0  0  0  0  0  0  0  0
    6.2123  -14.9079    0.0000 C   0  0  1  0  0  0  0  0  0  0  0  0
    5.4979  -15.3204    0.0000 C   0  0  1  0  0  0  0  0  0  0  0  0
    4.7834  -14.9079    0.0000 C   0  0  1  0  0  0  0  0  0  0  0  0
    4.0689  -15.3204    0.0000 C   0  0  0  0  0  0  0  0  0  0  0  0
    8.3557  -15.3204    0.0000 O   0  0  0  0  0  0  0  0  0  0  0  0
    6.2123  -14.0829    0.0000 O   0  0  0  0  0  0  0  0  0  0  0  0
    5.4979  -13.6704    0.0000 C   0  0  0  0  0  0  0  0  0  0  0  0
    4.7834  -14.0829    0.0000 O   0  0  0  0  0  0  0  0  0  0  0  0
    5.4979  -16.1454    0.0000 O   0  0  0  0  0  0  0  0  0  0  0  0
  1  2  1  0  0  0  0
  2  3  1  0  0  0  0
  3  4  1  0  0  0  0
  4  5  1  0  0  0  0
  5  6  1  0  0  0  0
  1  7  2  0  0  0  0
  8  9  1  0  0  0  0
  3  8  1  1  0  0  0
  5 10  1  1  0  0  0
  4 11  1  6  0  0  0
M  END
>  <cdx:fragmentId>
6331

$$$$
