301002.cdx
  Mrv1902 05222410262D          

  9  8  0  0  0  0            999 V2000
    6.4688   -6.3920    0.0000 C   0  0  0  0  0  0  0  0  0  0  0  0
    5.7544   -6.8045    0.0000 C   0  0  0  0  0  0  0  0  0  0  0  0
    5.0399   -6.3920    0.0000 C   0  0  0  0  0  0  0  0  0  0  0  0
    5.0399   -5.5670    0.0000 C   0  0  0  0  0  0  0  0  0  0  0  0
    6.4688   -5.5670    0.0000 O   0  0  0  0  0  0  0  0  0  0  0  0
    7.1833   -6.8045    0.0000 O   0  0  0  0  0  0  0  0  0  0  0  0
    5.7544   -5.1545    0.0000 O   0  0  0  0  0  0  0  0  0  0  0  0
    4.3254   -5.1545    0.0000 O   0  0  0  0  0  0  0  0  0  0  0  0
    5.7544   -7.6295    0.0000 C   0  0  0  0  0  0  0  0  0  0  0  0
  1  2  1  0  0  0  0
  2  3  2  0  0  0  0
  3  4  1  0  0  0  0
  1  5  2  0  0  0  0
  1  6  1  0  0  0  0
  4  7  2  0  0  0  0
  4  8  1  0  0  0  0
  2  9  1  0  0  0  0
M  END
>  <cdx:fragmentId>
132

$$$$
