301018.cdx
  Mrv1902 05222410212D          

 19 20  0  0  0  0            999 V2000
    5.6585  -13.6299    0.0000 N   0  0  0  0  0  0  0  0  0  0  0  0
    6.4122  -13.9655    0.0000 C   0  0  1  0  0  0  0  0  0  0  0  0
    6.3259  -14.7860    0.0000 C   0  0  2  0  0  0  0  0  0  0  0  0
    5.5190  -14.9575    0.0000 C   0  0  1  0  0  0  0  0  0  0  0  0
    5.1065  -14.2430    0.0000 C   0  0  1  0  0  0  0  0  0  0  0  0
    6.9390  -15.3380    0.0000 O   0  0  0  0  0  0  0  0  0  0  0  0
    5.1834  -15.7112    0.0000 O   0  0  0  0  0  0  0  0  0  0  0  0
    5.4870  -12.8229    0.0000 C   0  0  0  0  0  0  0  0  0  0  0  0
    4.2860  -14.1568    0.0000 C   0  0  0  0  0  0  0  0  0  0  0  0
    3.8011  -14.8242    0.0000 O   0  0  0  0  0  0  0  0  0  0  0  0
    7.1266  -13.5530    0.0000 C   0  0  0  0  0  0  0  0  0  0  0  0
    7.8411  -13.9655    0.0000 C   0  0  0  0  0  0  0  0  0  0  0  0
    8.5556  -13.5530    0.0000 C   0  0  0  0  0  0  0  0  0  0  0  0
    8.5556  -12.7280    0.0000 C   0  0  0  0  0  0  0  0  0  0  0  0
    7.8411  -12.3155    0.0000 C   0  0  0  0  0  0  0  0  0  0  0  0
    7.1266  -12.7280    0.0000 C   0  0  0  0  0  0  0  0  0  0  0  0
    9.2701  -12.3155    0.0000 O   0  0  0  0  0  0  0  0  0  0  0  0
    9.9845  -12.7280    0.0000 C   0  0  0  0  0  0  0  0  0  0  0  0
    9.2701  -13.9655    0.0000 O   0  0  0  0  0  0  0  0  0  0  0  0
  1  2  1  0  0  0  0
  2  3  1  0  0  0  0
  3  4  1  0  0  0  0
  4  5  1  0  0  0  0
  1  5  1  0  0  0  0
  3  6  1  1  0  0  0
  4  7  1  6  0  0  0
  1  8  1  0  0  0  0
  9 10  1  0  0  0  0
  5  9  1  1  0  0  0
 11 12  1  0  0  0  0
 12 13  2  0  0  0  0
 13 14  1  0  0  0  0
 14 15  2  0  0  0  0
 15 16  1  0  0  0  0
 11 16  2  0  0  0  0
 17 18  1  0  0  0  0
 14 17  1  0  0  0  0
 13 19  1  0  0  0  0
  2 11  1  6  0  0  0
M  END
>  <cdx:fragmentId>
1578

$$$$
