301074.cdx
  Mrv1902 05222410282D          

 12 12  0  0  0  0            999 V2000
    7.7469  -15.3656    0.0000 C   0  0  0  0  0  0  0  0  0  0  0  0
    7.3344  -16.0801    0.0000 C   0  0  0  0  0  0  0  0  0  0  0  0
    6.6199  -16.4926    0.0000 C   0  0  0  0  0  0  0  0  0  0  0  0
    5.7949  -16.4926    0.0000 C   0  0  0  0  0  0  0  0  0  0  0  0
    5.0805  -16.0801    0.0000 C   0  0  0  0  0  0  0  0  0  0  0  0
    4.6680  -15.3656    0.0000 C   0  0  0  0  0  0  0  0  0  0  0  0
    4.6680  -14.5406    0.0000 C   0  0  0  0  0  0  0  0  0  0  0  0
    5.0805  -13.8262    0.0000 C   0  0  0  0  0  0  0  0  0  0  0  0
    5.7949  -13.4137    0.0000 C   0  0  0  0  0  0  0  0  0  0  0  0
    6.6199  -13.4137    0.0000 C   0  0  0  0  0  0  0  0  0  0  0  0
    7.3344  -13.8262    0.0000 C   0  0  0  0  0  0  0  0  0  0  0  0
    7.7469  -14.5406    0.0000 C   0  0  0  0  0  0  0  0  0  0  0  0
  1  2  3  0  0  0  0
  2  3  1  0  0  0  0
  3  4  1  0  0  0  0
  4  5  1  0  0  0  0
  5  6  1  0  0  0  0
  6  7  1  0  0  0  0
  7  8  1  0  0  0  0
  8  9  1  0  0  0  0
  9 10  1  0  0  0  0
 10 11  1  0  0  0  0
 11 12  1  0  0  0  0
  1 12  1  0  0  0  0
M  END
>  <cdx:fragmentId>
5356

$$$$
