301019.cdx
  Mrv1902 05222410222D          

 18 19  0  0  0  0            999 V2000
    6.1106   -8.6969    0.0000 N   0  0  0  0  0  0  0  0  0  0  0  0
    5.5594   -9.3108    0.0000 C   0  0  1  0  0  0  0  0  0  0  0  0
    5.9728  -10.0247    0.0000 C   0  0  2  0  0  0  0  0  0  0  0  0
    6.7796   -9.8521    0.0000 C   0  0  1  0  0  0  0  0  0  0  0  0
    6.8647   -9.0315    0.0000 C   0  0  1  0  0  0  0  0  0  0  0  0
    5.6382  -10.7788    0.0000 O   0  0  0  0  0  0  0  0  0  0  0  0
    7.3934  -10.4033    0.0000 O   0  0  0  0  0  0  0  0  0  0  0  0
    5.9380   -7.8902    0.0000 C   0  0  0  0  0  0  0  0  0  0  0  0
    7.5786   -8.6180    0.0000 C   0  0  0  0  0  0  0  0  0  0  0  0
    7.5775   -7.7930    0.0000 C   0  0  0  0  0  0  0  0  0  0  0  0
    8.2915   -7.3796    0.0000 C   0  0  0  0  0  0  0  0  0  0  0  0
    9.0065   -7.7912    0.0000 C   0  0  0  0  0  0  0  0  0  0  0  0
    9.0076   -8.6162    0.0000 C   0  0  0  0  0  0  0  0  0  0  0  0
    8.2936   -9.0296    0.0000 C   0  0  0  0  0  0  0  0  0  0  0  0
    9.7204   -7.3777    0.0000 O   0  0  0  0  0  0  0  0  0  0  0  0
   10.4354   -7.7893    0.0000 C   0  0  0  0  0  0  0  0  0  0  0  0
    4.7388   -9.2256    0.0000 C   0  0  0  0  0  0  0  0  0  0  0  0
    4.2547   -9.8937    0.0000 O   0  0  0  0  0  0  0  0  0  0  0  0
  1  2  1  0  0  0  0
  2  3  1  0  0  0  0
  3  4  1  0  0  0  0
  4  5  1  0  0  0  0
  1  5  1  0  0  0  0
  3  6  1  6  0  0  0
  4  7  1  1  0  0  0
  1  8  1  0  0  0  0
  9 10  1  0  0  0  0
 10 11  2  0  0  0  0
 11 12  1  0  0  0  0
 12 13  2  0  0  0  0
 13 14  1  0  0  0  0
  9 14  2  0  0  0  0
 15 16  1  0  0  0  0
 12 15  1  0  0  0  0
  5  9  1  6  0  0  0
 17 18  1  0  0  0  0
  2 17  1  1  0  0  0
M  END
>  <cdx:fragmentId>
21

$$$$
