301038.cdx
  Mrv1902 05222410242D          

 24 26  0  0  0  0            999 V2000
    6.8679  -12.6208    0.0000 C   0  0  0  0  0  0  0  0  0  0  0  0
    6.8679  -13.4458    0.0000 C   0  0  0  0  0  0  0  0  0  0  0  0
    6.1535  -13.8583    0.0000 C   0  0  0  0  0  0  0  0  0  0  0  0
    5.4390  -13.4458    0.0000 C   0  0  0  0  0  0  0  0  0  0  0  0
    4.7245  -13.8583    0.0000 C   0  0  0  0  0  0  0  0  0  0  0  0
    4.0100  -13.4458    0.0000 C   0  0  0  0  0  0  0  0  0  0  0  0
    4.0100  -12.6208    0.0000 C   0  0  0  0  0  0  0  0  0  0  0  0
    4.7245  -12.2083    0.0000 C   0  0  0  0  0  0  0  0  0  0  0  0
    5.4390  -12.6208    0.0000 C   0  0  0  0  0  0  0  0  0  0  0  0
    6.1535  -12.2083    0.0000 O   0  0  0  0  0  0  0  0  0  0  0  0
    6.1535  -14.6833    0.0000 O   0  0  0  0  0  0  0  0  0  0  0  0
    7.5824  -13.8583    0.0000 C   0  0  0  0  0  0  0  0  0  0  0  0
    7.5824  -14.6833    0.0000 C   0  0  0  0  0  0  0  0  0  0  0  0
    8.2969  -15.0958    0.0000 C   0  0  0  0  0  0  0  0  0  0  0  0
    9.0113  -14.6833    0.0000 C   0  0  0  0  0  0  0  0  0  0  0  0
    9.0113  -13.8583    0.0000 C   0  0  0  0  0  0  0  0  0  0  0  0
    8.2969  -13.4458    0.0000 C   0  0  0  0  0  0  0  0  0  0  0  0
    6.8679  -15.0958    0.0000 O   0  0  0  0  0  0  0  0  0  0  0  0
    6.8679  -15.9208    0.0000 C   0  0  0  0  0  0  0  0  0  0  0  0
    3.2956  -12.2083    0.0000 O   0  0  0  0  0  0  0  0  0  0  0  0
    2.5811  -12.6208    0.0000 C   0  0  0  0  0  0  0  0  0  0  0  0
    3.2956  -13.8583    0.0000 C   0  0  0  0  0  0  0  0  0  0  0  0
    2.5811  -13.4458    0.0000 O   0  0  0  0  0  0  0  0  0  0  0  0
    4.7245  -14.6833    0.0000 O   0  0  0  0  0  0  0  0  0  0  0  0
  1  2  2  0  0  0  0
  2  3  1  0  0  0  0
  3  4  1  0  0  0  0
  4  5  1  0  0  0  0
  5  6  2  0  0  0  0
  6  7  1  0  0  0  0
  7  8  2  0  0  0  0
  8  9  1  0  0  0  0
  4  9  2  0  0  0  0
  9 10  1  0  0  0  0
  1 10  1  0  0  0  0
  3 11  2  0  0  0  0
 12 13  1  0  0  0  0
 13 14  2  0  0  0  0
 14 15  1  0  0  0  0
 15 16  2  0  0  0  0
 16 17  1  0  0  0  0
 12 17  2  0  0  0  0
 18 19  1  0  0  0  0
 13 18  1  0  0  0  0
  2 12  1  0  0  0  0
 20 21  1  0  0  0  0
  7 20  1  0  0  0  0
 22 23  1  0  0  0  0
  6 22  1  0  0  0  0
  5 24  1  0  0  0  0
M  END
>  <cdx:fragmentId>
2876

$$$$
