30103.cdx
  Mrv1902 05222410262D          

 85 90  0  0  0  0            999 V2000
    6.9810   -6.7583    0.0000 O   0  0  0  0  0  0  0  0  0  0  0  0
    6.9810   -4.2833    0.0000 O   0  0  0  0  0  0  0  0  0  0  0  0
    5.5519   -5.1083    0.0000 O   0  0  0  0  0  0  0  0  0  0  0  0
    8.4099   -6.7583    0.0000 O   0  0  0  0  0  0  0  0  0  0  0  0
    7.6954   -7.9959    0.0000 O   0  0  0  0  0  0  0  0  0  0  0  0
    9.8389   -9.2334    0.0000 O   0  0  0  0  0  0  0  0  0  0  0  0
    8.3882   -4.0351    0.0000 O   0  0  0  0  0  0  0  0  0  0  0  0
    5.3038   -3.7010    0.0000 O   0  0  0  0  0  0  0  0  0  0  0  0
    9.1244  -10.4709    0.0000 O   0  0  0  0  0  0  0  0  0  0  0  0
    8.4099  -10.0584    0.0000 O   0  0  0  0  0  0  0  0  0  0  0  0
    3.4074   -6.3728    0.0000 O   0  0  0  0  0  0  0  0  0  0  0  0
    7.9584   -1.5977    0.0000 O   0  0  0  0  0  0  0  0  0  0  0  0
    2.8663   -4.1308    0.0000 O   0  0  0  0  0  0  0  0  0  0  0  0
    9.5089   -2.1620    0.0000 O   0  0  0  0  0  0  0  0  0  0  0  0
    3.4307   -2.5803    0.0000 O   0  0  0  0  0  0  0  0  0  0  0  0
   11.2678  -11.7085    0.0000 O   0  0  0  0  0  0  0  0  0  0  0  0
    6.9810  -10.0584    0.0000 O   0  0  0  0  0  0  0  0  0  0  0  0
    9.8389  -12.5335    0.0000 O   0  0  0  0  0  0  0  0  0  0  0  0
    3.4074   -8.8479    0.0000 O   0  0  0  0  0  0  0  0  0  0  0  0
    1.9784   -8.0228    0.0000 O   0  0  0  0  0  0  0  0  0  0  0  0
   10.4275   -3.2566    0.0000 O   0  0  0  0  0  0  0  0  0  0  0  0
    4.5254   -1.6618    0.0000 O   0  0  0  0  0  0  0  0  0  0  0  0
    9.1244   -6.3458    0.0000 O   0  0  0  0  0  0  0  0  0  0  0  0
    8.4099  -12.5335    0.0000 O   0  0  0  0  0  0  0  0  0  0  0  0
   10.5534   -8.8209    0.0000 O   0  0  0  0  0  0  0  0  0  0  0  0
    1.2639   -6.7853    0.0000 O   0  0  0  0  0  0  0  0  0  0  0  0
    5.7758   -1.5636    0.0000 O   0  0  0  0  0  0  0  0  0  0  0  0
    2.5842   -4.9061    0.0000 O   0  0  0  0  0  0  0  0  0  0  0  0
   12.6969  -10.0584    0.0000 O   0  0  0  0  0  0  0  0  0  0  0  0
    4.1219   -9.2604    0.0000 O   0  0  0  0  0  0  0  0  0  0  0  0
    8.4099   -5.1083    0.0000 N   0  0  0  0  0  0  0  0  0  0  0  0
    9.8389   -7.5834    0.0000 N   0  0  0  0  0  0  0  0  0  0  0  0
    6.6944   -2.6582    0.0000 N   0  0  0  0  0  0  0  0  0  0  0  0
    3.9270   -5.3948    0.0000 N   0  0  0  0  0  0  0  0  0  0  0  0
   11.2678  -10.0584    0.0000 N   0  0  0  0  0  0  0  0  0  0  0  0
    4.8364   -8.0228    0.0000 N   0  0  0  0  0  0  0  0  0  0  0  0
    6.9810   -5.1083    0.0000 C   0  0  1  0  0  0  0  0  0  0  0  0
    6.2664   -5.5208    0.0000 C   0  0  1  0  0  0  0  0  0  0  0  0
    7.6954   -5.5208    0.0000 C   0  0  2  0  0  0  0  0  0  0  0  0
    6.2664   -6.3458    0.0000 C   0  0  1  0  0  0  0  0  0  0  0  0
    7.6954   -6.3458    0.0000 C   0  0  1  0  0  0  0  0  0  0  0  0
    9.1244   -7.9959    0.0000 C   0  0  1  0  0  0  0  0  0  0  0  0
    8.4099   -7.5834    0.0000 C   0  0  2  0  0  0  0  0  0  0  0  0
    9.1244   -8.8209    0.0000 C   0  0  2  0  0  0  0  0  0  0  0  0
    7.6129   -3.7530    0.0000 C   0  0  2  0  0  0  0  0  0  0  0  0
    5.0216   -4.4763    0.0000 C   0  0  2  0  0  0  0  0  0  0  0  0
    5.5519   -6.7583    0.0000 C   0  0  0  0  0  0  0  0  0  0  0  0
    8.4099   -9.2334    0.0000 C   0  0  1  0  0  0  0  0  0  0  0  0
    7.4697   -2.9405    0.0000 C   0  0  1  0  0  0  0  0  0  0  0  0
    4.2091   -4.6196    0.0000 C   0  0  1  0  0  0  0  0  0  0  0  0
    7.6954   -8.8209    0.0000 C   0  0  1  0  0  0  0  0  0  0  0  0
    8.1017   -2.4101    0.0000 C   0  0  2  0  0  0  0  0  0  0  0  0
    3.6788   -3.9875    0.0000 C   0  0  2  0  0  0  0  0  0  0  0  0
    8.8769   -2.6923    0.0000 C   0  0  1  0  0  0  0  0  0  0  0  0
    3.9610   -3.2122    0.0000 C   0  0  1  0  0  0  0  0  0  0  0  0
    9.0202   -3.5048    0.0000 C   0  0  1  0  0  0  0  0  0  0  0  0
    4.7735   -3.0690    0.0000 C   0  0  1  0  0  0  0  0  0  0  0  0
    9.8389  -10.0584    0.0000 C   0  0  2  0  0  0  0  0  0  0  0  0
   10.5534  -10.4709    0.0000 C   0  0  1  0  0  0  0  0  0  0  0  0
    4.1219   -6.7853    0.0000 C   0  0  2  0  0  0  0  0  0  0  0  0
   10.5534  -11.2960    0.0000 C   0  0  2  0  0  0  0  0  0  0  0  0
    4.1219   -7.6103    0.0000 C   0  0  1  0  0  0  0  0  0  0  0  0
    6.9810   -9.2334    0.0000 C   0  0  0  0  0  0  0  0  0  0  0  0
    9.8389  -11.7085    0.0000 C   0  0  1  0  0  0  0  0  0  0  0  0
    9.1244  -11.2960    0.0000 C   0  0  1  0  0  0  0  0  0  0  0  0
    3.4074   -8.0228    0.0000 C   0  0  2  0  0  0  0  0  0  0  0  0
    9.1244   -5.5208    0.0000 C   0  0  0  0  0  0  0  0  0  0  0  0
    2.6930   -7.6103    0.0000 C   0  0  1  0  0  0  0  0  0  0  0  0
    9.7954   -3.7869    0.0000 C   0  0  0  0  0  0  0  0  0  0  0  0
    2.6930   -6.7853    0.0000 C   0  0  1  0  0  0  0  0  0  0  0  0
    5.0557   -2.2937    0.0000 C   0  0  0  0  0  0  0  0  0  0  0  0
   10.5534   -7.9959    0.0000 C   0  0  0  0  0  0  0  0  0  0  0  0
    8.4099  -11.7085    0.0000 C   0  0  0  0  0  0  0  0  0  0  0  0
    6.5511   -1.8458    0.0000 C   0  0  0  0  0  0  0  0  0  0  0  0
    9.8389   -5.1083    0.0000 C   0  0  0  0  0  0  0  0  0  0  0  0
    3.1145   -5.5381    0.0000 C   0  0  0  0  0  0  0  0  0  0  0  0
    1.9784   -6.3728    0.0000 C   0  0  0  0  0  0  0  0  0  0  0  0
   11.2678   -7.5834    0.0000 C   0  0  0  0  0  0  0  0  0  0  0  0
   11.9823  -10.4709    0.0000 C   0  0  0  0  0  0  0  0  0  0  0  0
    4.8364   -8.8479    0.0000 C   0  0  0  0  0  0  0  0  0  0  0  0
    7.1832   -1.3154    0.0000 C   0  0  0  0  0  0  0  0  0  0  0  0
    2.8323   -6.3133    0.0000 C   0  0  0  0  0  0  0  0  0  0  0  0
   11.9823  -11.2960    0.0000 C   0  0  0  0  0  0  0  0  0  0  0  0
    5.5509   -9.2604    0.0000 C   0  0  0  0  0  0  0  0  0  0  0  0
    4.8375   -6.3459    0.0000 O   0  0  0  0  0  0  0  0  0  0  0  0
  1 40  1  0  0  0  0
  1 41  1  0  0  0  0
 37  2  1  6  0  0  0
 45  2  1  1  0  0  0
 38  3  1  1  0  0  0
 46  3  1  1  0  0  0
 41  4  1  6  0  0  0
 43  4  1  1  0  0  0
  5 43  1  0  0  0  0
  5 51  1  0  0  0  0
 44  6  1  1  0  0  0
 58  6  1  1  0  0  0
  7 45  1  0  0  0  0
  7 56  1  0  0  0  0
  8 46  1  0  0  0  0
  8 57  1  0  0  0  0
  9 58  1  0  0  0  0
  9 65  1  0  0  0  0
 48 10  1  6  0  0  0
 11 60  1  0  0  0  0
 11 70  1  0  0  0  0
 52 12  1  1  0  0  0
 53 13  1  1  0  0  0
 54 14  1  6  0  0  0
 55 15  1  6  0  0  0
 61 16  1  1  0  0  0
 17 63  1  0  0  0  0
 64 18  1  6  0  0  0
 66 19  1  1  0  0  0
 68 20  1  6  0  0  0
 21 69  1  0  0  0  0
 22 71  1  0  0  0  0
 23 67  2  0  0  0  0
 24 73  1  0  0  0  0
 25 72  2  0  0  0  0
 26 77  1  0  0  0  0
 27 74  2  0  0  0  0
 28 76  2  0  0  0  0
 29 79  2  0  0  0  0
 30 80  2  0  0  0  0
 39 31  1  1  0  0  0
 31 67  1  0  0  0  0
 42 32  1  6  0  0  0
 32 72  1  0  0  0  0
 49 33  1  6  0  0  0
 33 74  1  0  0  0  0
 50 34  1  6  0  0  0
 34 76  1  0  0  0  0
 59 35  1  6  0  0  0
 35 79  1  0  0  0  0
 62 36  1  6  0  0  0
 36 80  1  0  0  0  0
 37 38  1  0  0  0  0
 37 39  1  0  0  0  0
 38 40  1  0  0  0  0
 39 41  1  0  0  0  0
 40 47  1  6  0  0  0
 42 43  1  0  0  0  0
 42 44  1  0  0  0  0
 44 48  1  0  0  0  0
 45 49  1  0  0  0  0
 46 50  1  0  0  0  0
 48 51  1  0  0  0  0
 49 52  1  0  0  0  0
 50 53  1  0  0  0  0
 51 63  1  1  0  0  0
 52 54  1  0  0  0  0
 53 55  1  0  0  0  0
 54 56  1  0  0  0  0
 55 57  1  0  0  0  0
 56 69  1  1  0  0  0
 57 71  1  1  0  0  0
 58 59  1  0  0  0  0
 59 61  1  0  0  0  0
 60 62  1  0  0  0  0
 61 64  1  0  0  0  0
 62 66  1  0  0  0  0
 64 65  1  0  0  0  0
 65 73  1  1  0  0  0
 66 68  1  0  0  0  0
 67 75  1  0  0  0  0
 68 70  1  0  0  0  0
 70 77  1  1  0  0  0
 72 78  1  0  0  0  0
 74 81  1  0  0  0  0
 76 82  1  0  0  0  0
 79 83  1  0  0  0  0
 80 84  1  0  0  0  0
 47 85  1  0  0  0  0
 60 85  1  1  0  0  0
M  END
>  <cdx:fragmentId>
1

$$$$
