301010.cdx
  Mrv1902 05222410242D          

 36 39  0  0  0  0            999 V2000
    4.6252   -7.8478    0.0000 O   0  0  0  0  0  0  0  0  0  0  0  0
    5.3405   -8.2589    0.0000 C   0  0  2  0  0  0  0  0  0  0  0  0
    5.3421   -9.0839    0.0000 C   0  0  1  0  0  0  0  0  0  0  0  0
    4.6284   -9.4978    0.0000 C   0  0  2  0  0  0  0  0  0  0  0  0
    3.9131   -9.0867    0.0000 C   0  0  1  0  0  0  0  0  0  0  0  0
    3.9115   -8.2617    0.0000 C   0  0  1  0  0  0  0  0  0  0  0  0
    6.0573   -9.4951    0.0000 O   0  0  0  0  0  0  0  0  0  0  0  0
    4.6299  -10.3228    0.0000 O   0  0  0  0  0  0  0  0  0  0  0  0
    3.1994   -9.5005    0.0000 O   0  0  0  0  0  0  0  0  0  0  0  0
    3.1963   -7.8505    0.0000 C   0  0  0  0  0  0  0  0  0  0  0  0
    2.4826   -8.2644    0.0000 O   0  0  0  0  0  0  0  0  0  0  0  0
    6.0542   -7.8451    0.0000 O   0  0  0  0  0  0  0  0  0  0  0  0
   11.3350   -6.1851    0.0000 O   0  0  0  0  0  0  0  0  0  0  0  0
   11.3378   -7.6140    0.0000 C   0  0  0  0  0  0  0  0  0  0  0  0
   10.5128   -7.6156    0.0000 O   0  0  0  0  0  0  0  0  0  0  0  0
    9.2712   -5.4745    0.0000 C   0  0  0  0  0  0  0  0  0  0  0  0
   10.0962   -5.4729    0.0000 C   0  0  0  0  0  0  0  0  0  0  0  0
   10.5100   -6.1866    0.0000 C   0  0  0  0  0  0  0  0  0  0  0  0
   10.0989   -6.9019    0.0000 C   0  0  0  0  0  0  0  0  0  0  0  0
    9.2739   -6.9034    0.0000 C   0  0  0  0  0  0  0  0  0  0  0  0
    8.8601   -6.1898    0.0000 C   0  0  0  0  0  0  0  0  0  0  0  0
    8.6090   -4.5666    0.0000 O   0  0  0  0  0  0  0  0  0  0  0  0
    7.8023   -4.7397    0.0000 C   0  0  0  0  0  0  0  0  0  0  0  0
    2.4779   -5.7894    0.0000 O   0  0  0  0  0  0  0  0  0  0  0  0
    3.1916   -5.3755    0.0000 C   0  0  0  0  0  0  0  0  0  0  0  0
    3.9069   -5.7867    0.0000 C   0  0  0  0  0  0  0  0  0  0  0  0
    4.6205   -5.3728    0.0000 C   0  0  0  0  0  0  0  0  0  0  0  0
    6.0495   -5.3701    0.0000 C   0  0  0  0  0  0  0  0  0  0  0  0
    5.3358   -5.7839    0.0000 C   0  0  0  0  0  0  0  0  0  0  0  0
    5.3374   -6.6089    0.0000 C   0  0  0  0  0  0  0  0  0  0  0  0
    6.0526   -7.0201    0.0000 C   0  0  0  0  0  0  0  0  0  0  0  0
    6.7663   -6.6062    0.0000 C   0  0  0  0  0  0  0  0  0  0  0  0
    6.7647   -5.7812    0.0000 C   0  0  0  0  0  0  0  0  0  0  0  0
    7.5489   -5.5248    0.0000 C   0  0  1  0  0  0  0  0  0  0  0  0
    8.0351   -6.1913    0.0000 C   0  0  2  0  0  0  0  0  0  0  0  0
    7.5514   -6.8597    0.0000 O   0  0  0  0  0  0  0  0  0  0  0  0
 12 31  1  0  0  0  0
 35 21  1  1  0  0  0
 18 13  1  0  0  0  0
 19 15  1  0  0  0  0
 15 14  1  0  0  0  0
 21 16  2  0  0  0  0
 17 16  1  0  0  0  0
 18 17  2  0  0  0  0
 19 18  1  0  0  0  0
 20 19  2  0  0  0  0
 21 20  1  0  0  0  0
 34 23  1  6  0  0  0
 23 22  1  0  0  0  0
 29 27  1  0  0  0  0
 25 24  1  0  0  0  0
 26 25  1  0  0  0  0
 27 26  1  0  0  0  0
 32 31  2  0  0  0  0
 33 28  2  0  0  0  0
 29 28  1  0  0  0  0
 30 29  2  0  0  0  0
 31 30  1  0  0  0  0
 36 32  1  0  0  0  0
 33 32  1  0  0  0  0
 34 33  1  0  0  0  0
 35 34  1  0  0  0  0
 36 35  1  0  0  0  0
  1  2  1  0  0  0  0
  2  3  1  0  0  0  0
  3  4  1  0  0  0  0
  4  5  1  0  0  0  0
  5  6  1  0  0  0  0
  1  6  1  0  0  0  0
  3  7  1  6  0  0  0
  4  8  1  1  0  0  0
  5  9  1  6  0  0  0
 10 11  1  0  0  0  0
  6 10  1  1  0  0  0
  2 12  1  1  0  0  0
M  END
>  <cdx:fragmentId>
705

$$$$
