301059.cdx
  Mrv1902 05222410262D          

 25 27  0  0  0  0            999 V2000
    4.9368  -13.6022    0.0000 C   0  0  0  0  0  0  0  0  0  0  0  0
    4.2223  -13.1897    0.0000 C   0  0  0  0  0  0  0  0  0  0  0  0
    4.2223  -12.3647    0.0000 C   0  0  0  0  0  0  0  0  0  0  0  0
    4.9368  -11.9522    0.0000 C   0  0  0  0  0  0  0  0  0  0  0  0
    5.6512  -12.3647    0.0000 C   0  0  0  0  0  0  0  0  0  0  0  0
    5.6512  -13.1897    0.0000 C   0  0  0  0  0  0  0  0  0  0  0  0
    4.9368  -14.4272    0.0000 C   0  0  0  0  0  0  0  0  0  0  0  0
    5.6512  -14.8397    0.0000 C   0  0  0  0  0  0  0  0  0  0  0  0
    5.6512  -15.6647    0.0000 C   0  0  0  0  0  0  0  0  0  0  0  0
    6.3657  -16.0772    0.0000 C   0  0  0  0  0  0  0  0  0  0  0  0
    7.0802  -15.6647    0.0000 C   0  0  0  0  0  0  0  0  0  0  0  0
    7.7947  -16.0772    0.0000 C   0  0  0  0  0  0  0  0  0  0  0  0
    4.9368  -16.0772    0.0000 C   0  0  0  0  0  0  0  0  0  0  0  0
    4.2223  -15.6647    0.0000 C   0  0  0  0  0  0  0  0  0  0  0  0
    3.5078  -16.0772    0.0000 C   0  0  0  0  0  0  0  0  0  0  0  0
    2.7934  -15.6647    0.0000 C   0  0  0  0  0  0  0  0  0  0  0  0
    2.0397  -16.0002    0.0000 C   0  0  0  0  0  0  0  0  0  0  0  0
    1.4877  -15.3872    0.0000 C   0  0  0  0  0  0  0  0  0  0  0  0
    1.9002  -14.6727    0.0000 C   0  0  0  0  0  0  0  0  0  0  0  0
    2.7071  -14.8442    0.0000 C   0  0  0  0  0  0  0  0  0  0  0  0
    8.5091  -15.6647    0.0000 C   0  0  0  0  0  0  0  0  0  0  0  0
    8.5954  -14.8442    0.0000 C   0  0  0  0  0  0  0  0  0  0  0  0
    9.4023  -14.6727    0.0000 C   0  0  0  0  0  0  0  0  0  0  0  0
    9.8148  -15.3872    0.0000 C   0  0  0  0  0  0  0  0  0  0  0  0
    9.2628  -16.0002    0.0000 C   0  0  0  0  0  0  0  0  0  0  0  0
  1  2  1  0  0  0  0
  2  3  1  0  0  0  0
  3  4  1  0  0  0  0
  4  5  1  0  0  0  0
  5  6  1  0  0  0  0
  1  6  1  0  0  0  0
  7  8  1  0  0  0  0
  8  9  1  0  0  0  0
  9 10  1  0  0  0  0
 10 11  1  0  0  0  0
 11 12  1  0  0  0  0
 13 14  1  0  0  0  0
 14 15  1  0  0  0  0
 16 17  1  0  0  0  0
 17 18  1  0  0  0  0
 18 19  1  0  0  0  0
 19 20  1  0  0  0  0
 16 20  1  0  0  0  0
 15 16  1  0  0  0  0
  9 13  1  0  0  0  0
 21 22  1  0  0  0  0
 22 23  1  0  0  0  0
 23 24  1  0  0  0  0
 24 25  1  0  0  0  0
 21 25  1  0  0  0  0
 12 21  1  0  0  0  0
  1  7  1  0  0  0  0
M  END
>  <cdx:fragmentId>
4344

$$$$
