301079.cdx
  Mrv1902 05222410182D          

 15 15  0  0  0  0            999 V2000
    6.6626   -8.2511    0.0000 C   0  0  0  0  0  0  0  0  0  0  0  0
    6.6626   -9.0761    0.0000 C   0  0  0  0  0  0  0  0  0  0  0  0
    7.2459   -9.6595    0.0000 C   0  0  0  0  0  0  0  0  0  0  0  0
    8.0709   -9.6595    0.0000 C   0  0  0  0  0  0  0  0  0  0  0  0
    8.6543   -9.0761    0.0000 C   0  0  0  0  0  0  0  0  0  0  0  0
    8.6543   -8.2511    0.0000 C   0  0  0  0  0  0  0  0  0  0  0  0
    8.0709   -7.6677    0.0000 C   0  0  0  0  0  0  0  0  0  0  0  0
    7.2459   -7.6677    0.0000 C   0  0  0  0  0  0  0  0  0  0  0  0
    6.8334   -6.9533    0.0000 H   0  0  0  0  0  0  0  0  0  0  0  0
    8.2845   -6.8708    0.0000 H   0  0  0  0  0  0  0  0  0  0  0  0
    5.9481   -9.4886    0.0000 C   0  0  0  0  0  0  0  0  0  0  0  0
    8.4834  -10.3739    0.0000 C   0  0  0  0  0  0  0  0  0  0  0  0
    8.8959  -11.0884    0.0000 C   0  0  0  0  0  0  0  0  0  0  0  0
    8.6824  -11.8853    0.0000 H   0  0  0  0  0  0  0  0  0  0  0  0
    9.7209  -11.0884    0.0000 C   0  0  0  0  0  0  0  0  0  0  0  0
  1  2  1  0  0  0  0
  2  3  1  0  0  0  0
  3  4  1  0  0  0  0
  4  5  1  0  0  0  0
  5  6  1  0  0  0  0
  6  7  1  0  0  0  0
  7  8  2  0  0  0  0
  8  1  1  0  0  0  0
  8  9  1  0  0  0  0
  7 10  1  0  0  0  0
  2 11  2  0  0  0  0
  4 12  2  0  0  0  0
 12 13  2  0  0  0  0
 13 14  1  0  0  0  0
 13 15  1  0  0  0  0
M  END
>  <cdx:fragmentId>
3468

$$$$
