301005.cdx
  Mrv1902 05222410242D          

 12 11  0  0  0  0            999 V2000
    8.2818   -6.1064    0.0000 C   0  0  0  0  0  0  0  0  0  0  0  0
    7.5673   -6.5189    0.0000 C   0  0  2  0  0  0  0  0  0  0  0  0
    6.8528   -6.1064    0.0000 C   0  0  0  0  0  0  0  0  0  0  0  0
    6.1383   -6.5189    0.0000 C   0  0  0  0  0  0  0  0  0  0  0  0
    5.4239   -6.1064    0.0000 C   0  0  0  0  0  0  0  0  0  0  0  0
    8.2818   -5.2814    0.0000 O   0  0  0  0  0  0  0  0  0  0  0  0
    8.9962   -6.5189    0.0000 O   0  0  0  0  0  0  0  0  0  0  0  0
    4.7094   -6.5189    0.0000 N   0  0  0  0  0  0  0  0  0  0  0  0
    3.9949   -6.1064    0.0000 C   0  0  0  0  0  0  0  0  0  0  0  0
    3.2805   -6.5189    0.0000 N   0  0  0  0  0  0  0  0  0  0  0  0
    3.9949   -5.2814    0.0000 O   0  0  0  0  0  0  0  0  0  0  0  0
    7.5673   -7.3439    0.0000 N   0  0  0  0  0  0  0  0  0  0  0  0
  1  2  1  0  0  0  0
  2  3  1  0  0  0  0
  3  4  1  0  0  0  0
  4  5  1  0  0  0  0
  1  6  2  0  0  0  0
  1  7  1  0  0  0  0
  9 10  1  0  0  0  0
  9 11  2  0  0  0  0
  8  9  1  0  0  0  0
  5  8  1  0  0  0  0
  2 12  1  1  0  0  0
M  END
>  <cdx:fragmentId>
277

$$$$
