301072.cdx
  Mrv1902 05222410262D          

 26 29  0  0  0  0            999 V2000
    7.9266   -7.4405    0.0000 C   0  0  0  0  0  0  0  0  0  0  0  0
    7.9266   -8.2655    0.0000 C   0  0  0  0  0  0  0  0  0  0  0  0
    7.2121   -8.6780    0.0000 C   0  0  0  0  0  0  0  0  0  0  0  0
    6.4977   -8.2655    0.0000 C   0  0  0  0  0  0  0  0  0  0  0  0
    5.7832   -8.6780    0.0000 C   0  0  0  0  0  0  0  0  0  0  0  0
    5.0687   -8.2655    0.0000 C   0  0  0  0  0  0  0  0  0  0  0  0
    5.0687   -7.4405    0.0000 C   0  0  0  0  0  0  0  0  0  0  0  0
    5.7832   -7.0280    0.0000 C   0  0  0  0  0  0  0  0  0  0  0  0
    6.4977   -7.4405    0.0000 C   0  0  0  0  0  0  0  0  0  0  0  0
    7.2121   -7.0280    0.0000 O   0  0  0  0  0  0  0  0  0  0  0  0
    8.6411   -8.6780    0.0000 C   0  0  0  0  0  0  0  0  0  0  0  0
    8.6411   -7.0280    0.0000 C   0  0  0  0  0  0  0  0  0  0  0  0
    8.6411   -6.2030    0.0000 C   0  0  0  0  0  0  0  0  0  0  0  0
    9.3556   -5.7905    0.0000 C   0  0  0  0  0  0  0  0  0  0  0  0
   10.0700   -6.2030    0.0000 C   0  0  0  0  0  0  0  0  0  0  0  0
   10.0700   -7.0280    0.0000 C   0  0  0  0  0  0  0  0  0  0  0  0
    9.3556   -7.4405    0.0000 C   0  0  0  0  0  0  0  0  0  0  0  0
    9.3556   -8.2655    0.0000 O   0  0  0  0  0  0  0  0  0  0  0  0
    7.2121   -9.5030    0.0000 O   0  0  0  0  0  0  0  0  0  0  0  0
    8.6411   -9.5030    0.0000 C   0  0  0  0  0  0  0  0  0  0  0  0
    9.3556   -9.9155    0.0000 C   0  0  0  0  0  0  0  0  0  0  0  0
   10.0700   -9.5030    0.0000 C   0  0  0  0  0  0  0  0  0  0  0  0
    9.3556  -10.7405    0.0000 C   0  0  0  0  0  0  0  0  0  0  0  0
    4.3543   -7.0280    0.0000 O   0  0  0  0  0  0  0  0  0  0  0  0
    5.7832   -9.5030    0.0000 O   0  0  0  0  0  0  0  0  0  0  0  0
   10.7845   -5.7905    0.0000 O   0  0  0  0  0  0  0  0  0  0  0  0
  1  2  2  0  0  0  0
  2  3  1  0  0  0  0
  3  4  1  0  0  0  0
  4  5  1  0  0  0  0
  5  6  2  0  0  0  0
  6  7  1  0  0  0  0
  7  8  2  0  0  0  0
  8  9  1  0  0  0  0
  4  9  2  0  0  0  0
  9 10  1  0  0  0  0
  1 10  1  0  0  0  0
 12 13  1  0  0  0  0
 13 14  2  0  0  0  0
 14 15  1  0  0  0  0
 15 16  2  0  0  0  0
 16 17  1  0  0  0  0
 12 17  2  0  0  0  0
 17 18  1  0  0  0  0
 11 18  1  0  0  0  0
  1 12  1  0  0  0  0
  2 11  1  0  0  0  0
  3 19  2  0  0  0  0
 20 21  2  0  0  0  0
 21 22  1  0  0  0  0
 21 23  1  0  0  0  0
 11 20  1  0  0  0  0
  7 24  1  0  0  0  0
  5 25  1  0  0  0  0
 15 26  1  0  0  0  0
M  END
>  <cdx:fragmentId>
5228

$$$$
