301073.cdx
  Mrv1902 05222410272D          

 13 13  0  0  0  0            999 V2000
    7.1761  -15.9411    0.0000 C   0  0  0  0  0  0  0  0  0  0  0  0
    6.4616  -16.3536    0.0000 C   0  0  0  0  0  0  0  0  0  0  0  0
    5.7472  -15.9411    0.0000 C   0  0  0  0  0  0  0  0  0  0  0  0
    5.0327  -16.3536    0.0000 C   0  0  0  0  0  0  0  0  0  0  0  0
    4.3182  -15.9411    0.0000 C   0  0  0  0  0  0  0  0  0  0  0  0
    4.3182  -15.1161    0.0000 C   0  0  0  0  0  0  0  0  0  0  0  0
    5.0327  -14.7036    0.0000 C   0  0  0  0  0  0  0  0  0  0  0  0
    5.0327  -13.8786    0.0000 C   0  0  0  0  0  0  0  0  0  0  0  0
    5.7472  -13.4661    0.0000 C   0  0  0  0  0  0  0  0  0  0  0  0
    6.4616  -13.8786    0.0000 C   0  0  0  0  0  0  0  0  0  0  0  0
    6.4616  -14.7036    0.0000 C   0  0  0  0  0  0  0  0  0  0  0  0
    7.1761  -15.1161    0.0000 C   0  0  0  0  0  0  0  0  0  0  0  0
    7.8906  -16.3536    0.0000 O   0  0  0  0  0  0  0  0  0  0  0  0
  1  2  1  0  0  0  0
  2  3  1  0  0  0  0
  3  4  1  0  0  0  0
  4  5  1  0  0  0  0
  5  6  1  0  0  0  0
  6  7  1  0  0  0  0
  7  8  1  0  0  0  0
  8  9  1  0  0  0  0
  9 10  1  0  0  0  0
 10 11  1  0  0  0  0
 11 12  1  0  0  0  0
  1 12  1  0  0  0  0
  1 13  1  0  0  0  0
M  END
>  <cdx:fragmentId>
5315

$$$$
