30105.cdx
  Mrv1902 05222410272D          

 21 21  0  0  0  0            999 V2000
    4.0406   -9.2664    0.0000 C   0  0  0  0  0  0  0  0  0  0  0  0
    4.0406  -10.0914    0.0000 C   0  0  0  0  0  0  0  0  0  0  0  0
    4.7550  -10.5039    0.0000 C   0  0  0  0  0  0  0  0  0  0  0  0
    5.4695  -10.0914    0.0000 C   0  0  0  0  0  0  0  0  0  0  0  0
    5.4695   -9.2664    0.0000 C   0  0  0  0  0  0  0  0  0  0  0  0
    4.7550   -8.8539    0.0000 C   0  0  0  0  0  0  0  0  0  0  0  0
    3.3261  -10.5039    0.0000 O   0  0  0  0  0  0  0  0  0  0  0  0
    3.3261   -8.8539    0.0000 O   0  0  0  0  0  0  0  0  0  0  0  0
    6.1840   -8.8539    0.0000 C   0  0  0  0  0  0  0  0  0  0  0  0
    6.8984   -9.2664    0.0000 C   0  0  0  0  0  0  0  0  0  0  0  0
    7.6129   -8.8539    0.0000 C   0  0  0  0  0  0  0  0  0  0  0  0
    8.3274   -9.2664    0.0000 O   0  0  0  0  0  0  0  0  0  0  0  0
    7.6129   -8.0289    0.0000 O   0  0  0  0  0  0  0  0  0  0  0  0
    9.0419   -8.8539    0.0000 C   0  0  0  0  0  0  0  0  0  0  0  0
    9.0419   -8.0289    0.0000 C   0  0  0  0  0  0  0  0  0  0  0  0
    9.7563   -7.6164    0.0000 O   0  0  0  0  0  0  0  0  0  0  0  0
    8.3274   -7.6164    0.0000 O   0  0  0  0  0  0  0  0  0  0  0  0
    9.7563   -9.2664    0.0000 C   0  0  0  0  0  0  0  0  0  0  0  0
    9.7563  -10.0914    0.0000 C   0  0  0  0  0  0  0  0  0  0  0  0
    9.0419  -10.5039    0.0000 O   0  0  0  0  0  0  0  0  0  0  0  0
   10.4708  -10.5039    0.0000 O   0  0  0  0  0  0  0  0  0  0  0  0
  1  2  2  0  0  0  0
  2  3  1  0  0  0  0
  3  4  2  0  0  0  0
  4  5  1  0  0  0  0
  5  6  2  0  0  0  0
  6  1  1  0  0  0  0
  2  7  1  0  0  0  0
  1  8  1  0  0  0  0
  5  9  1  0  0  0  0
  9 10  2  0  0  0  0
 10 11  1  0  0  0  0
 11 12  1  0  0  0  0
 11 13  2  0  0  0  0
 12 14  1  0  0  0  0
 14 15  1  0  0  0  0
 15 16  1  0  0  0  0
 15 17  2  0  0  0  0
 14 18  1  0  0  0  0
 18 19  1  0  0  0  0
 19 20  1  0  0  0  0
 19 21  2  0  0  0  0
M  END
>  <cdx:fragmentId>
5

$$$$
