30101.cdx
  Mrv1902 05222410262D          

 27 29  0  0  0  0            999 V2000
    4.7831  -12.0851    0.0000 O   0  0  0  0  0  0  0  0  0  0  0  0
    4.7831  -12.9101    0.0000 C   0  0  0  0  0  0  0  0  0  0  0  0
    6.2120  -12.9101    0.0000 O   0  0  0  0  0  0  0  0  0  0  0  0
    6.2120  -12.0851    0.0000 C   0  0  0  0  0  0  0  0  0  0  0  0
    5.4975  -11.6726    0.0000 C   0  0  0  0  0  0  0  0  0  0  0  0
    6.9265  -11.6726    0.0000 C   0  0  0  0  0  0  0  0  0  0  0  0
    6.9265  -10.8476    0.0000 C   0  0  0  0  0  0  0  0  0  0  0  0
    6.2120  -10.4351    0.0000 C   0  0  0  0  0  0  0  0  0  0  0  0
    5.4975  -10.8476    0.0000 C   0  0  0  0  0  0  0  0  0  0  0  0
    6.2120   -9.6101    0.0000 C   0  0  2  0  0  0  0  0  0  0  0  0
    5.5168   -9.1659    0.0000 C   0  0  1  0  0  0  0  0  0  0  0  0
    4.7845   -9.5458    0.0000 C   0  0  0  0  0  0  0  0  0  0  0  0
    6.8493   -9.0863    0.0000 O   0  0  0  0  0  0  0  0  0  0  0  0
    6.5480   -8.3183    0.0000 C   0  0  0  0  0  0  0  0  0  0  0  0
    5.7245   -8.3675    0.0000 C   0  0  2  0  0  0  0  0  0  0  0  0
    6.7557   -7.5198    0.0000 C   0  0  0  0  0  0  0  0  0  0  0  0
    6.0605   -7.0756    0.0000 C   0  0  0  0  0  0  0  0  0  0  0  0
    5.4232   -7.5995    0.0000 C   0  0  0  0  0  0  0  0  0  0  0  0
    7.4880   -7.1399    0.0000 C   0  0  0  0  0  0  0  0  0  0  0  0
    7.5251   -6.3157    0.0000 C   0  0  0  0  0  0  0  0  0  0  0  0
    6.8300   -5.8715    0.0000 C   0  0  0  0  0  0  0  0  0  0  0  0
    6.0977   -6.2514    0.0000 C   0  0  0  0  0  0  0  0  0  0  0  0
    8.1832   -7.5841    0.0000 O   0  0  0  0  0  0  0  0  0  0  0  0
    8.9155   -7.2042    0.0000 C   0  0  0  0  0  0  0  0  0  0  0  0
    8.2575   -5.9358    0.0000 O   0  0  0  0  0  0  0  0  0  0  0  0
    4.0893   -9.1016    0.0000 O   0  0  0  0  0  0  0  0  0  0  0  0
    4.9003   -8.3303    0.0000 O   0  0  0  0  0  0  0  0  0  0  0  0
  1  2  1  0  0  0  0
  3  4  1  0  0  0  0
  4  5  2  0  0  0  0
  5  1  1  0  0  0  0
  4  6  1  0  0  0  0
  6  7  2  0  0  0  0
  7  8  1  0  0  0  0
  8  9  2  0  0  0  0
  9  5  1  0  0  0  0
 10  8  1  6  0  0  0
 10 11  1  0  0  0  0
 11 12  1  1  0  0  0
 10 13  1  0  0  0  0
 13 14  1  0  0  0  0
 14 15  1  0  0  0  0
 15 11  1  0  0  0  0
 16 17  2  0  0  0  0
 17 18  1  0  0  0  0
 18 15  1  0  0  0  0
 16 19  1  0  0  0  0
 19 20  2  0  0  0  0
 20 21  1  0  0  0  0
 21 22  2  0  0  0  0
 22 17  1  0  0  0  0
 19 23  1  0  0  0  0
 23 24  1  0  0  0  0
 25 20  1  0  0  0  0
 12 26  1  0  0  0  0
 15 27  1  6  0  0  0
M  END
>  <cdx:fragmentId>
5

$$$$
