301086.cdx
  Mrv1902 05222410182D          

 20 20  0  0  0  0            999 V2000
    7.6783  -15.1534    0.0000 C   0  0  0  0  0  0  0  0  0  0  0  0
    6.9638  -15.5659    0.0000 C   0  0  0  0  0  0  0  0  0  0  0  0
    6.9638  -16.3909    0.0000 C   0  0  0  0  0  0  0  0  0  0  0  0
    6.2494  -16.8034    0.0000 C   0  0  0  0  0  0  0  0  0  0  0  0
    5.5349  -16.3909    0.0000 C   0  0  0  0  0  0  0  0  0  0  0  0
    5.5349  -15.5659    0.0000 C   0  0  0  0  0  0  0  0  0  0  0  0
    4.8204  -15.1534    0.0000 C   0  0  0  0  0  0  0  0  0  0  0  0
    4.8204  -14.3284    0.0000 C   0  0  0  0  0  0  0  0  0  0  0  0
    5.5349  -13.9159    0.0000 C   0  0  0  0  0  0  0  0  0  0  0  0
    5.5349  -13.0909    0.0000 C   0  0  0  0  0  0  0  0  0  0  0  0
    6.2494  -12.6784    0.0000 C   0  0  0  0  0  0  0  0  0  0  0  0
    6.9638  -13.0909    0.0000 C   0  0  0  0  0  0  0  0  0  0  0  0
    6.9638  -13.9159    0.0000 C   0  0  0  0  0  0  0  0  0  0  0  0
    7.6783  -14.3284    0.0000 C   0  0  0  0  0  0  0  0  0  0  0  0
    5.5349  -18.0409    0.0000 C   0  0  0  0  0  0  0  0  0  0  0  0
    6.2494  -17.6284    0.0000 C   0  0  0  0  0  0  0  0  0  0  0  0
    6.9638  -18.0409    0.0000 C   0  0  0  0  0  0  0  0  0  0  0  0
    6.2494  -11.8534    0.0000 C   0  0  0  0  0  0  0  0  0  0  0  0
    4.1060  -15.5659    0.0000 C   0  0  0  0  0  0  0  0  0  0  0  0
    8.3928  -15.5659    0.0000 C   0  0  0  0  0  0  0  0  0  0  0  0
  1  2  1  0  0  0  0
  2  3  1  0  0  0  0
  3  4  1  0  0  0  0
  4  5  1  0  0  0  0
  5  6  1  0  0  0  0
  6  7  1  0  0  0  0
  7  8  1  0  0  0  0
  8  9  1  0  0  0  0
  9 10  1  0  0  0  0
 10 11  1  0  0  0  0
 11 12  1  0  0  0  0
 12 13  1  0  0  0  0
 13 14  1  0  0  0  0
  1 14  1  0  0  0  0
 15 16  1  0  0  0  0
 16 17  1  0  0  0  0
  4 16  1  0  0  0  0
 11 18  1  0  0  0  0
  7 19  1  0  0  0  0
  1 20  1  0  0  0  0
M  END
>  <cdx:fragmentId>
6082

$$$$
