301076.cdx
  Mrv1902 05222410272D          

  8  8  0  0  0  0            999 V2000
    8.8411   -8.1170    0.0000 C   0  0  0  0  0  0  0  0  0  0  0  0
    8.8408   -7.2920    0.0000 O   0  0  0  0  0  0  0  0  0  0  0  0
    8.1268   -8.5298    0.0000 C   0  0  0  0  0  0  0  0  0  0  0  0
    8.1271   -9.3548    0.0000 C   0  0  0  0  0  0  0  0  0  0  0  0
    7.4128   -9.7676    0.0000 C   0  0  0  0  0  0  0  0  0  0  0  0
    6.6982   -9.3554    0.0000 C   0  0  0  0  0  0  0  0  0  0  0  0
    6.6979   -8.5304    0.0000 C   0  0  0  0  0  0  0  0  0  0  0  0
    7.4122   -8.1176    0.0000 C   0  0  0  0  0  0  0  0  0  0  0  0
  1  2  1  0  0  0  0
  3  4  1  0  0  0  0
  4  5  1  0  0  0  0
  5  6  1  0  0  0  0
  6  7  1  0  0  0  0
  7  8  1  0  0  0  0
  3  8  1  0  0  0  0
  1  3  1  0  0  0  0
M  END
>  <cdx:fragmentId>
5558

$$$$
