30102.cdx
  Mrv1902 05222410262D          

 37 39  0  0  0  0            999 V2000
    6.7928   -6.0096    0.0000 C   0  0  0  0  0  0  0  0  0  0  0  0
    6.7928   -5.1846    0.0000 C   0  0  1  0  0  0  0  0  0  0  0  0
    7.5072   -4.7721    0.0000 C   0  0  2  0  0  0  0  0  0  0  0  0
    7.5072   -3.9471    0.0000 C   0  0  0  0  0  0  0  0  0  0  0  0
    7.5072   -6.4221    0.0000 O   0  0  0  0  0  0  0  0  0  0  0  0
    6.7928   -3.5346    0.0000 O   0  0  0  0  0  0  0  0  0  0  0  0
    8.2217   -5.1846    0.0000 C   0  0  0  0  0  0  0  0  0  0  0  0
    8.9362   -4.7721    0.0000 C   0  0  0  0  0  0  0  0  0  0  0  0
    9.6506   -5.1846    0.0000 C   0  0  0  0  0  0  0  0  0  0  0  0
   10.3651   -4.7721    0.0000 C   0  0  0  0  0  0  0  0  0  0  0  0
   10.3651   -3.9471    0.0000 C   0  0  0  0  0  0  0  0  0  0  0  0
    9.6506   -3.5346    0.0000 C   0  0  0  0  0  0  0  0  0  0  0  0
    8.9362   -3.9471    0.0000 C   0  0  0  0  0  0  0  0  0  0  0  0
   11.0796   -5.1846    0.0000 O   0  0  0  0  0  0  0  0  0  0  0  0
   11.7941   -4.7721    0.0000 C   0  0  0  0  0  0  0  0  0  0  0  0
   11.0796   -3.5346    0.0000 O   0  0  0  0  0  0  0  0  0  0  0  0
    6.0783   -4.7721    0.0000 C   0  0  0  0  0  0  0  0  0  0  0  0
    5.3638   -5.1846    0.0000 C   0  0  0  0  0  0  0  0  0  0  0  0
    4.6494   -4.7721    0.0000 C   0  0  0  0  0  0  0  0  0  0  0  0
    3.9349   -5.1846    0.0000 C   0  0  0  0  0  0  0  0  0  0  0  0
    3.9349   -6.0096    0.0000 C   0  0  0  0  0  0  0  0  0  0  0  0
    4.6494   -6.4221    0.0000 C   0  0  0  0  0  0  0  0  0  0  0  0
    5.3638   -6.0096    0.0000 C   0  0  0  0  0  0  0  0  0  0  0  0
    3.2204   -4.7721    0.0000 O   0  0  0  0  0  0  0  0  0  0  0  0
    2.5059   -5.1846    0.0000 C   0  0  0  0  0  0  0  0  0  0  0  0
    3.2204   -6.4221    0.0000 O   0  0  0  0  0  0  0  0  0  0  0  0
    3.2204   -7.2471    0.0000 C   0  0  2  0  0  0  0  0  0  0  0  0
    2.5059   -7.6596    0.0000 O   0  0  0  0  0  0  0  0  0  0  0  0
    2.5059   -8.4846    0.0000 C   0  0  1  0  0  0  0  0  0  0  0  0
    3.2204   -8.8971    0.0000 C   0  0  2  0  0  0  0  0  0  0  0  0
    3.9349   -8.4846    0.0000 C   0  0  1  0  0  0  0  0  0  0  0  0
    3.9349   -7.6596    0.0000 C   0  0  1  0  0  0  0  0  0  0  0  0
    1.7915   -8.8971    0.0000 C   0  0  0  0  0  0  0  0  0  0  0  0
    4.6494   -8.8971    0.0000 O   0  0  0  0  0  0  0  0  0  0  0  0
    4.6494   -7.2471    0.0000 O   0  0  0  0  0  0  0  0  0  0  0  0
    3.2204   -9.7221    0.0000 O   0  0  0  0  0  0  0  0  0  0  0  0
    1.7915   -9.7221    0.0000 O   0  0  0  0  0  0  0  0  0  0  0  0
  2  1  1  6  0  0  0
  2  3  1  0  0  0  0
  3  4  1  6  0  0  0
  1  5  1  0  0  0  0
  4  6  1  0  0  0  0
  8  9  1  0  0  0  0
  9 10  2  0  0  0  0
 10 11  1  0  0  0  0
 11 12  2  0  0  0  0
 12 13  1  0  0  0  0
  8 13  2  0  0  0  0
 14 15  1  0  0  0  0
 10 14  1  0  0  0  0
 11 16  1  0  0  0  0
  7  8  1  0  0  0  0
  3  7  1  0  0  0  0
 18 19  1  0  0  0  0
 19 20  2  0  0  0  0
 20 21  1  0  0  0  0
 21 22  2  0  0  0  0
 22 23  1  0  0  0  0
 18 23  2  0  0  0  0
 24 25  1  0  0  0  0
 20 24  1  0  0  0  0
 21 26  1  0  0  0  0
 17 18  1  0  0  0  0
  2 17  1  0  0  0  0
 27 26  1  1  0  0  0
 27 28  1  0  0  0  0
 28 29  1  0  0  0  0
 29 30  1  0  0  0  0
 30 31  1  0  0  0  0
 31 32  1  0  0  0  0
 32 27  1  0  0  0  0
 29 33  1  1  0  0  0
 31 34  1  1  0  0  0
 32 35  1  6  0  0  0
 30 36  1  6  0  0  0
 33 37  1  0  0  0  0
M  END
>  <cdx:fragmentId>
19

$$$$
