301096.cdx
  Mrv1902 05222410202D          

 32 37  0  0  0  0            999 V2000
    5.9390  -15.3138    0.0000 C   0  0  0  0  0  0  0  0  0  0  0  0
    5.9390  -14.4888    0.0000 C   0  0  0  0  0  0  0  0  0  0  0  0
    6.6534  -14.0763    0.0000 C   0  0  0  0  0  0  0  0  0  0  0  0
    7.3679  -14.4888    0.0000 C   0  0  0  0  0  0  0  0  0  0  0  0
    8.0824  -14.0763    0.0000 C   0  0  0  0  0  0  0  0  0  0  0  0
    8.0824  -13.2513    0.0000 C   0  0  0  0  0  0  0  0  0  0  0  0
    8.7969  -12.8388    0.0000 C   0  0  0  0  0  0  0  0  0  0  0  0
    9.5113  -13.2513    0.0000 C   0  0  0  0  0  0  0  0  0  0  0  0
    9.5113  -14.0763    0.0000 C   0  0  0  0  0  0  0  0  0  0  0  0
    8.7969  -14.4888    0.0000 C   0  0  0  0  0  0  0  0  0  0  0  0
    8.7969  -15.3138    0.0000 C   0  0  0  0  0  0  0  0  0  0  0  0
    8.0824  -15.7263    0.0000 C   0  0  0  0  0  0  0  0  0  0  0  0
    7.3679  -15.3138    0.0000 C   0  0  0  0  0  0  0  0  0  0  0  0
    6.6534  -15.7263    0.0000 C   0  0  0  0  0  0  0  0  0  0  0  0
    6.6534  -16.5513    0.0000 C   0  0  0  0  0  0  0  0  0  0  0  0
    5.9390  -16.9638    0.0000 C   0  0  0  0  0  0  0  0  0  0  0  0
    5.2245  -16.5513    0.0000 C   0  0  0  0  0  0  0  0  0  0  0  0
    4.5100  -16.9638    0.0000 C   0  0  0  0  0  0  0  0  0  0  0  0
    3.7956  -16.5513    0.0000 C   0  0  0  0  0  0  0  0  0  0  0  0
    3.7956  -15.7263    0.0000 C   0  0  0  0  0  0  0  0  0  0  0  0
    4.5100  -15.3138    0.0000 C   0  0  0  0  0  0  0  0  0  0  0  0
    5.2245  -15.7263    0.0000 C   0  0  0  0  0  0  0  0  0  0  0  0
    5.8634  -16.2388    0.0000 C   0  0  0  0  0  0  0  0  0  0  0  0
    6.6543  -16.7246    0.0000 O   0  0  0  0  0  0  0  0  0  0  0  0
    7.4452  -16.2388    0.0000 C   0  0  0  0  0  0  0  0  0  0  0  0
    3.0811  -16.9638    0.0000 O   0  0  0  0  0  0  0  0  0  0  0  0
    4.5100  -17.7888    0.0000 C   0  0  0  0  0  0  0  0  0  0  0  0
    5.2245  -17.3763    0.0000 C   0  0  0  0  0  0  0  0  0  0  0  0
    9.5113  -14.9013    0.0000 C   0  0  0  0  0  0  0  0  0  0  0  0
    8.3844  -12.1243    0.0000 C   0  0  0  0  0  0  0  0  0  0  0  0
    9.2094  -12.1243    0.0000 C   0  0  0  0  0  0  0  0  0  0  0  0
    7.3679  -13.6638    0.0000 C   0  0  0  0  0  0  0  0  0  0  0  0
  1  2  1  0  0  0  0
  2  3  1  0  0  0  0
  3  4  1  0  0  0  0
  4  5  1  0  0  0  0
  5  6  1  0  0  0  0
  6  7  1  0  0  0  0
  7  8  1  0  0  0  0
  8  9  1  0  0  0  0
  9 10  1  0  0  0  0
 10 11  1  0  0  0  0
 11 12  1  0  0  0  0
 12 13  1  0  0  0  0
 13 14  1  0  0  0  0
 14 15  1  0  0  0  0
 15 16  1  0  0  0  0
 16 17  1  0  0  0  0
 17 18  1  0  0  0  0
 18 19  1  0  0  0  0
 19 20  1  0  0  0  0
 20 21  2  0  0  0  0
 21 22  1  0  0  0  0
 23 24  1  0  0  0  0
 24 25  1  0  0  0  0
  1 22  1  0  0  0  0
  1 23  1  0  0  0  0
 13 25  1  0  0  0  0
  1 14  1  0  0  0  0
  4 13  1  0  0  0  0
  5 10  1  0  0  0  0
 17 22  1  0  0  0  0
 19 26  2  0  0  0  0
 18 27  1  0  0  0  0
 17 28  1  0  0  0  0
 10 29  1  0  0  0  0
  7 30  1  0  0  0  0
  7 31  1  0  0  0  0
  4 32  1  0  0  0  0
M  END
>  <cdx:fragmentId>
6422

$$$$
