30109.cdx
  Mrv1902 05222410192D          

 23 23  0  0  0  0            999 V2000
    3.4081   -9.9126    0.0000 C   0  0  0  0  0  0  0  0  0  0  0  0
    4.8370   -9.9126    0.0000 C   0  0  0  0  0  0  0  0  0  0  0  0
    4.1225   -9.5001    0.0000 C   0  0  0  0  0  0  0  0  0  0  0  0
    5.5515  -11.1501    0.0000 C   0  0  0  0  0  0  0  0  0  0  0  0
    6.2659  -10.7376    0.0000 C   0  0  0  0  0  0  0  0  0  0  0  0
    6.2659   -9.9126    0.0000 C   0  0  0  0  0  0  0  0  0  0  0  0
    5.5515   -9.5001    0.0000 C   0  0  0  0  0  0  0  0  0  0  0  0
    6.9804  -11.1501    0.0000 C   0  0  0  0  0  0  0  0  0  0  0  0
    7.6949  -10.7376    0.0000 C   0  0  0  0  0  0  0  0  0  0  0  0
    7.6949   -9.9126    0.0000 C   0  0  0  0  0  0  0  0  0  0  0  0
    6.9804   -9.5001    0.0000 C   0  0  0  0  0  0  0  0  0  0  0  0
    4.1225   -8.6751    0.0000 C   0  0  0  0  0  0  0  0  0  0  0  0
    8.4094   -9.5001    0.0000 C   0  0  0  0  0  0  0  0  0  0  0  0
    9.1238   -9.9126    0.0000 O   0  0  0  0  0  0  0  0  0  0  0  0
    6.5679   -8.7857    0.0000 C   0  0  0  0  0  0  0  0  0  0  0  0
    7.3929   -8.7857    0.0000 C   0  0  0  0  0  0  0  0  0  0  0  0
    6.9804   -8.0712    0.0000 C   0  0  0  0  0  0  0  0  0  0  0  0
    8.2179   -8.7857    0.0000 O   0  0  0  0  0  0  0  0  0  0  0  0
    7.3929   -7.3567    0.0000 C   0  0  0  0  0  0  0  0  0  0  0  0
    6.9804   -6.6423    0.0000 C   0  0  0  0  0  0  0  0  0  0  0  0
    6.2659   -7.0548    0.0000 C   0  0  0  0  0  0  0  0  0  0  0  0
    7.6949   -6.2298    0.0000 C   0  0  0  0  0  0  0  0  0  0  0  0
    6.5679   -5.9278    0.0000 O   0  0  0  0  0  0  0  0  0  0  0  0
  2  3  2  0  0  0  0
  3  1  1  0  0  0  0
  4  5  1  0  0  0  0
  5  6  1  0  0  0  0
  6  7  1  0  0  0  0
  7  2  1  0  0  0  0
  5  8  2  0  0  0  0
  8  9  1  0  0  0  0
  9 10  2  0  0  0  0
 10 11  1  0  0  0  0
 11  6  1  0  0  0  0
  3 12  1  0  0  0  0
 10 13  1  0  0  0  0
 13 14  2  0  0  0  0
 11 15  1  0  0  0  0
 11 16  1  0  0  0  0
 16 17  1  0  0  0  0
 16 18  2  0  0  0  0
 17 19  2  0  0  0  0
 19 20  1  0  0  0  0
 20 21  1  0  0  0  0
 20 22  1  0  0  0  0
 20 23  1  0  0  0  0
M  END
>  <cdx:fragmentId>
5

$$$$
