301047.cdx
  Mrv1902 05222410182D          

 16 17  0  0  0  0            999 V2000
    7.3241  -12.8558    0.0000 C   0  0  0  0  0  0  0  0  0  0  0  0
    6.6097  -13.2683    0.0000 C   0  0  0  0  0  0  0  0  0  0  0  0
    6.6097  -14.0933    0.0000 C   0  0  0  0  0  0  0  0  0  0  0  0
    5.8952  -14.5058    0.0000 C   0  0  0  0  0  0  0  0  0  0  0  0
    5.1807  -14.0933    0.0000 C   0  0  0  0  0  0  0  0  0  0  0  0
    5.1807  -13.2683    0.0000 C   0  0  0  0  0  0  0  0  0  0  0  0
    5.8952  -12.8558    0.0000 C   0  0  0  0  0  0  0  0  0  0  0  0
    8.0386  -13.2683    0.0000 O   0  0  0  0  0  0  0  0  0  0  0  0
    4.4662  -14.5058    0.0000 C   0  0  0  0  0  0  0  0  0  0  0  0
    3.9813  -13.8384    0.0000 C   0  0  0  0  0  0  0  0  0  0  0  0
    3.1967  -14.0933    0.0000 C   0  0  0  0  0  0  0  0  0  0  0  0
    3.1967  -14.9183    0.0000 C   0  0  0  0  0  0  0  0  0  0  0  0
    3.9813  -15.1733    0.0000 C   0  0  0  0  0  0  0  0  0  0  0  0
    3.8098  -13.0314    0.0000 C   0  0  0  0  0  0  0  0  0  0  0  0
    4.5944  -13.2864    0.0000 C   0  0  0  0  0  0  0  0  0  0  0  0
    5.1807  -14.9183    0.0000 C   0  0  0  0  0  0  0  0  0  0  0  0
  1  2  1  0  0  0  0
  2  3  1  0  0  0  0
  3  4  2  0  0  0  0
  4  5  1  0  0  0  0
  5  6  2  0  0  0  0
  6  7  1  0  0  0  0
  2  7  2  0  0  0  0
  1  8  2  0  0  0  0
  9 10  1  0  0  0  0
 10 11  1  0  0  0  0
 11 12  1  0  0  0  0
 12 13  1  0  0  0  0
  9 13  1  0  0  0  0
 10 14  1  0  0  0  0
 10 15  1  0  0  0  0
  9 16  1  0  0  0  0
  5  9  1  0  0  0  0
M  END
>  <cdx:fragmentId>
3622

$$$$
