301028.cdx
  Mrv1902 05222410242D          

 56 60  0  0  0  0            999 V2000
    4.8853  -11.2635    0.0000 C   0  0  1  0  0  0  0  0  0  0  0  0
    4.1763  -10.8416    0.0000 O   0  0  0  0  0  0  0  0  0  0  0  0
    3.4565  -11.2446    0.0000 C   0  0  1  0  0  0  0  0  0  0  0  0
    3.4455  -12.0695    0.0000 C   0  0  2  0  0  0  0  0  0  0  0  0
    4.1545  -12.4914    0.0000 C   0  0  1  0  0  0  0  0  0  0  0  0
    4.8744  -12.0884    0.0000 C   0  0  1  0  0  0  0  0  0  0  0  0
    2.7475  -10.8226    0.0000 C   0  0  0  0  0  0  0  0  0  0  0  0
    5.5833  -12.5103    0.0000 O   0  0  0  0  0  0  0  0  0  0  0  0
    4.1436  -13.3163    0.0000 O   0  0  0  0  0  0  0  0  0  0  0  0
    2.7257  -12.4725    0.0000 O   0  0  0  0  0  0  0  0  0  0  0  0
    2.0276  -11.2257    0.0000 O   0  0  0  0  0  0  0  0  0  0  0  0
    5.6051  -10.8605    0.0000 O   0  0  0  0  0  0  0  0  0  0  0  0
    5.6161  -10.0355    0.0000 C   0  0  1  0  0  0  0  0  0  0  0  0
    5.8481   -9.2438    0.0000 C   0  0  2  0  0  0  0  0  0  0  0  0
    5.1668   -8.7785    0.0000 C   0  0  1  0  0  0  0  0  0  0  0  0
    4.5019   -9.2665    0.0000 C   0  0  2  0  0  0  0  0  0  0  0  0
    4.7722  -10.0334    0.0000 O   0  0  0  0  0  0  0  0  0  0  0  0
    6.3305  -10.4480    0.0000 C   0  0  0  0  0  0  0  0  0  0  0  0
    7.0450  -10.0355    0.0000 O   0  0  0  0  0  0  0  0  0  0  0  0
    3.7136   -9.0231    0.0000 C   0  0  0  0  0  0  0  0  0  0  0  0
    5.1529   -7.9536    0.0000 O   0  0  0  0  0  0  0  0  0  0  0  0
    6.6250   -8.9662    0.0000 O   0  0  0  0  0  0  0  0  0  0  0  0
    3.5302   -8.2188    0.0000 O   0  0  0  0  0  0  0  0  0  0  0  0
    7.7595  -10.4480    0.0000 C   0  0  1  0  0  0  0  0  0  0  0  0
    7.4973  -11.2303    0.0000 C   0  0  2  0  0  0  0  0  0  0  0  0
    8.1602  -11.7213    0.0000 C   0  0  1  0  0  0  0  0  0  0  0  0
    8.8321  -11.2426    0.0000 C   0  0  2  0  0  0  0  0  0  0  0  0
    8.5844  -10.4557    0.0000 O   0  0  0  0  0  0  0  0  0  0  0  0
    9.6143  -11.5048    0.0000 C   0  0  0  0  0  0  0  0  0  0  0  0
    9.7784  -12.3133    0.0000 O   0  0  0  0  0  0  0  0  0  0  0  0
    8.1526  -12.5463    0.0000 O   0  0  0  0  0  0  0  0  0  0  0  0
    6.7103  -11.4779    0.0000 O   0  0  0  0  0  0  0  0  0  0  0  0
    7.7595   -9.6230    0.0000 C   0  0  0  0  0  0  0  0  0  0  0  0
    8.4739   -9.2105    0.0000 O   0  0  0  0  0  0  0  0  0  0  0  0
    8.4739   -8.3855    0.0000 C   0  0  1  0  0  0  0  0  0  0  0  0
    8.7216   -7.5986    0.0000 C   0  0  2  0  0  0  0  0  0  0  0  0
    8.0497   -7.1199    0.0000 C   0  0  1  0  0  0  0  0  0  0  0  0
    7.3868   -7.6109    0.0000 C   0  0  2  0  0  0  0  0  0  0  0  0
    7.6490   -8.3932    0.0000 O   0  0  0  0  0  0  0  0  0  0  0  0
    6.5999   -7.3632    0.0000 C   0  0  0  0  0  0  0  0  0  0  0  0
    8.0421   -6.2949    0.0000 O   0  0  0  0  0  0  0  0  0  0  0  0
    6.4209   -6.5579    0.0000 O   0  0  0  0  0  0  0  0  0  0  0  0
    9.5039   -7.3364    0.0000 O   0  0  0  0  0  0  0  0  0  0  0  0
    9.1884   -8.7980    0.0000 C   0  0  0  0  0  0  0  0  0  0  0  0
    9.9029   -8.3855    0.0000 O   0  0  0  0  0  0  0  0  0  0  0  0
   10.6174   -8.7980    0.0000 C   0  0  1  0  0  0  0  0  0  0  0  0
   10.7036   -9.6185    0.0000 C   0  0  2  0  0  0  0  0  0  0  0  0
   11.5106   -9.7901    0.0000 C   0  0  1  0  0  0  0  0  0  0  0  0
   11.9231   -9.0756    0.0000 C   0  0  2  0  0  0  0  0  0  0  0  0
   11.3710   -8.4625    0.0000 O   0  0  0  0  0  0  0  0  0  0  0  0
   10.6605   -7.9742    0.0000 C   0  0  0  0  0  0  0  0  0  0  0  0
   11.3956   -7.5996    0.0000 O   0  0  0  0  0  0  0  0  0  0  0  0
   12.7435   -8.9893    0.0000 C   0  0  0  0  0  0  0  0  0  0  0  0
   13.2285   -9.6568    0.0000 O   0  0  0  0  0  0  0  0  0  0  0  0
   11.8461  -10.5437    0.0000 O   0  0  0  0  0  0  0  0  0  0  0  0
   10.0905  -10.1706    0.0000 O   0  0  0  0  0  0  0  0  0  0  0  0
  1  2  1  0  0  0  0
  2  3  1  0  0  0  0
  3  4  1  0  0  0  0
  4  5  1  0  0  0  0
  5  6  1  0  0  0  0
  6  1  1  0  0  0  0
  3  7  1  1  0  0  0
  6  8  1  6  0  0  0
  5  9  1  1  0  0  0
  4 10  1  6  0  0  0
  7 11  1  0  0  0  0
  1 12  1  6  0  0  0
 13 12  1  6  0  0  0
 13 14  1  0  0  0  0
 14 15  1  0  0  0  0
 15 16  1  0  0  0  0
 16 17  1  0  0  0  0
 17 13  1  0  0  0  0
 13 18  1  0  0  0  0
 18 19  1  0  0  0  0
 16 20  1  6  0  0  0
 15 21  1  1  0  0  0
 14 22  1  6  0  0  0
 20 23  1  0  0  0  0
 24 19  1  6  0  0  0
 24 25  1  0  0  0  0
 25 26  1  0  0  0  0
 26 27  1  0  0  0  0
 27 28  1  0  0  0  0
 28 24  1  0  0  0  0
 27 29  1  6  0  0  0
 29 30  1  0  0  0  0
 26 31  1  1  0  0  0
 25 32  1  6  0  0  0
 24 33  1  0  0  0  0
 33 34  1  0  0  0  0
 35 34  1  6  0  0  0
 35 36  1  0  0  0  0
 36 37  1  0  0  0  0
 37 38  1  0  0  0  0
 38 39  1  0  0  0  0
 39 35  1  0  0  0  0
 38 40  1  6  0  0  0
 37 41  1  1  0  0  0
 40 42  1  0  0  0  0
 36 43  1  6  0  0  0
 35 44  1  0  0  0  0
 44 45  1  0  0  0  0
 46 45  1  6  0  0  0
 46 47  1  0  0  0  0
 47 48  1  0  0  0  0
 48 49  1  0  0  0  0
 49 50  1  0  0  0  0
 50 46  1  0  0  0  0
 46 51  1  0  0  0  0
 51 52  1  0  0  0  0
 49 53  1  6  0  0  0
 53 54  1  0  0  0  0
 48 55  1  1  0  0  0
 47 56  1  6  0  0  0
M  END
>  <cdx:fragmentId>
839

$$$$
