301021.cdx
  Mrv1902 05222410222D          

 40 40  0  0  0  0            999 V2000
    8.9068  -11.3262    0.0000 O   0  0  0  0  0  0  0  0  0  0  0  0
    5.2603  -10.5511    0.0000 O   0  0  0  0  0  0  0  0  0  0  0  0
   10.7708   -8.0977    0.0000 O   0  0  0  0  0  0  0  0  0  0  0  0
    4.8706   -6.8435    0.0000 O   0  0  0  0  0  0  0  0  0  0  0  0
    8.2763   -5.3273    0.0000 O   0  0  0  0  0  0  0  0  0  0  0  0
    7.6170  -10.6689    0.0000 N   0  0  0  0  0  0  0  0  0  0  0  0
    9.7472   -9.1213    0.0000 N   0  0  0  0  0  0  0  0  0  0  0  0
    5.4868   -9.1213    0.0000 N   0  0  0  0  0  0  0  0  0  0  0  0
    8.9335   -6.6171    0.0000 N   0  0  0  0  0  0  0  0  0  0  0  0
    6.3005   -6.6171    0.0000 N   0  0  0  0  0  0  0  0  0  0  0  0
    6.7060  -10.4753    0.0000 C   0  0  1  0  0  0  0  0  0  0  0  0
    9.2815   -9.9279    0.0000 C   0  0  1  0  0  0  0  0  0  0  0  0
    6.3271  -11.3262    0.0000 C   0  0  0  0  0  0  0  0  0  0  0  0
    9.9736  -10.5511    0.0000 C   0  0  0  0  0  0  0  0  0  0  0  0
    5.3894   -8.1950    0.0000 C   0  0  1  0  0  0  0  0  0  0  0  0
    9.5567   -7.3092    0.0000 C   0  0  1  0  0  0  0  0  0  0  0  0
    7.1513   -6.2383    0.0000 C   0  0  1  0  0  0  0  0  0  0  0  0
    4.4632   -8.0977    0.0000 C   0  0  0  0  0  0  0  0  0  0  0  0
   10.3633   -6.8435    0.0000 C   0  0  0  0  0  0  0  0  0  0  0  0
    8.5280  -10.4753    0.0000 C   0  0  0  0  0  0  0  0  0  0  0  0
    6.9576   -5.3273    0.0000 C   0  0  0  0  0  0  0  0  0  0  0  0
    5.9525   -9.9279    0.0000 C   0  0  0  0  0  0  0  0  0  0  0  0
    6.8746  -12.0797    0.0000 C   0  0  0  0  0  0  0  0  0  0  0  0
   10.8594  -10.2633    0.0000 C   0  0  0  0  0  0  0  0  0  0  0  0
    9.8445   -8.1950    0.0000 C   0  0  0  0  0  0  0  0  0  0  0  0
    3.9157   -8.8512    0.0000 C   0  0  0  0  0  0  0  0  0  0  0  0
   10.3633   -5.9122    0.0000 C   0  0  0  0  0  0  0  0  0  0  0  0
    6.0719   -5.0395    0.0000 C   0  0  0  0  0  0  0  0  0  0  0  0
    5.6772   -7.3092    0.0000 C   0  0  0  0  0  0  0  0  0  0  0  0
    8.0826   -6.2383    0.0000 C   0  0  0  0  0  0  0  0  0  0  0  0
    5.4009  -11.4235    0.0000 C   0  0  0  0  0  0  0  0  0  0  0  0
    9.7800  -11.4621    0.0000 C   0  0  0  0  0  0  0  0  0  0  0  0
    6.4958  -12.9306    0.0000 C   0  0  0  0  0  0  0  0  0  0  0  0
   11.5515  -10.8865    0.0000 C   0  0  0  0  0  0  0  0  0  0  0  0
    2.9895   -8.7539    0.0000 C   0  0  0  0  0  0  0  0  0  0  0  0
    4.2946   -9.7020    0.0000 C   0  0  0  0  0  0  0  0  0  0  0  0
   11.1699   -5.4465    0.0000 C   0  0  0  0  0  0  0  0  0  0  0  0
    9.5567   -5.4465    0.0000 C   0  0  0  0  0  0  0  0  0  0  0  0
    5.8782   -4.1284    0.0000 C   0  0  0  0  0  0  0  0  0  0  0  0
    5.3797   -5.6627    0.0000 C   0  0  0  0  0  0  0  0  0  0  0  0
  1 20  2  0  0  0  0
  2 22  2  0  0  0  0
  3 25  2  0  0  0  0
  4 29  2  0  0  0  0
  5 30  2  0  0  0  0
  6 11  1  0  0  0  0
  6 20  1  0  0  0  0
  7 12  1  0  0  0  0
  7 25  1  0  0  0  0
  8 15  1  0  0  0  0
  8 22  1  0  0  0  0
  9 16  1  0  0  0  0
  9 30  1  0  0  0  0
 10 17  1  0  0  0  0
 10 29  1  0  0  0  0
 11 13  1  1  0  0  0
 11 22  1  0  0  0  0
 12 14  1  1  0  0  0
 12 20  1  0  0  0  0
 13 23  1  0  0  0  0
 13 31  1  0  0  0  0
 14 24  1  0  0  0  0
 14 32  1  0  0  0  0
 15 18  1  1  0  0  0
 15 29  1  0  0  0  0
 16 19  1  1  0  0  0
 16 25  1  0  0  0  0
 17 21  1  1  0  0  0
 17 30  1  0  0  0  0
 18 26  1  0  0  0  0
 19 27  1  0  0  0  0
 21 28  1  0  0  0  0
 23 33  1  0  0  0  0
 24 34  1  0  0  0  0
 26 35  1  0  0  0  0
 26 36  1  0  0  0  0
 27 37  1  0  0  0  0
 27 38  1  0  0  0  0
 28 39  1  0  0  0  0
 28 40  1  0  0  0  0
M  END
>  <cdx:fragmentId>
1

$$$$
