301039.cdx
  Mrv1902 05222410242D          

 15 16  0  0  0  0            999 V2000
    6.1942   -6.7573    0.0000 C   0  0  0  0  0  0  0  0  0  0  0  0
    5.4797   -7.1698    0.0000 C   0  0  0  0  0  0  0  0  0  0  0  0
    4.7652   -6.7573    0.0000 C   0  0  0  0  0  0  0  0  0  0  0  0
    6.1942   -5.9323    0.0000 O   0  0  0  0  0  0  0  0  0  0  0  0
    9.1222   -8.2498    0.0000 O   0  0  0  0  0  0  0  0  0  0  0  0
    9.6071   -7.5823    0.0000 C   0  0  0  0  0  0  0  0  0  0  0  0
    9.1222   -6.9149    0.0000 O   0  0  0  0  0  0  0  0  0  0  0  0
    8.3376   -7.1698    0.0000 C   0  0  0  0  0  0  0  0  0  0  0  0
    8.3376   -7.9948    0.0000 C   0  0  0  0  0  0  0  0  0  0  0  0
    7.6231   -6.7573    0.0000 C   0  0  0  0  0  0  0  0  0  0  0  0
    6.9087   -7.1698    0.0000 C   0  0  0  0  0  0  0  0  0  0  0  0
    6.9087   -7.9948    0.0000 C   0  0  0  0  0  0  0  0  0  0  0  0
    7.6231   -8.4073    0.0000 C   0  0  0  0  0  0  0  0  0  0  0  0
    7.6231   -9.2323    0.0000 O   0  0  0  0  0  0  0  0  0  0  0  0
    8.3376   -9.6448    0.0000 C   0  0  0  0  0  0  0  0  0  0  0  0
  1  2  1  0  0  0  0
  2  3  1  0  0  0  0
  1  4  2  0  0  0  0
  5  6  1  0  0  0  0
  6  7  1  0  0  0  0
  7  8  1  0  0  0  0
  8  9  1  0  0  0  0
  5  9  1  0  0  0  0
 10 11  1  0  0  0  0
 11 12  2  0  0  0  0
 12 13  1  0  0  0  0
  9 13  2  0  0  0  0
  8 10  2  0  0  0  0
 14 15  1  0  0  0  0
 13 14  1  0  0  0  0
  1 11  1  0  0  0  0
M  END
>  <cdx:fragmentId>
2961

$$$$
