301037.cdx
  Mrv1902 05222410232D          

 50 55  0  0  0  0            999 V2000
    4.3378   -8.9673    0.0000 O   0  0  0  0  0  0  0  0  0  0  0  0
    3.6233   -8.5548    0.0000 C   0  0  1  0  0  0  0  0  0  0  0  0
    2.9088   -8.9673    0.0000 C   0  0  2  0  0  0  0  0  0  0  0  0
    2.9088   -9.7923    0.0000 C   0  0  1  0  0  0  0  0  0  0  0  0
    3.6233  -10.2048    0.0000 C   0  0  2  0  0  0  0  0  0  0  0  0
    4.3378   -9.7923    0.0000 C   0  0  2  0  0  0  0  0  0  0  0  0
    3.6233   -7.7298    0.0000 C   0  0  0  0  0  0  0  0  0  0  0  0
    4.3378   -7.3173    0.0000 O   0  0  0  0  0  0  0  0  0  0  0  0
    2.9088   -7.3173    0.0000 O   0  0  0  0  0  0  0  0  0  0  0  0
    3.6233  -11.0298    0.0000 O   0  0  0  0  0  0  0  0  0  0  0  0
    2.1944  -10.2048    0.0000 O   0  0  0  0  0  0  0  0  0  0  0  0
    2.1944   -8.5548    0.0000 O   0  0  0  0  0  0  0  0  0  0  0  0
    5.0522  -10.2048    0.0000 O   0  0  0  0  0  0  0  0  0  0  0  0
    6.4812   -8.5548    0.0000 C   0  0  0  0  0  0  0  0  0  0  0  0
    5.7667   -8.9673    0.0000 C   0  0  1  0  0  0  0  0  0  0  0  0
    5.7667   -9.7923    0.0000 C   0  0  0  0  0  0  0  0  0  0  0  0
    6.4812  -10.2048    0.0000 C   0  0  1  0  0  0  0  0  0  0  0  0
    7.1956   -9.7923    0.0000 C   0  0  2  0  0  0  0  0  0  0  0  0
    7.9101  -10.2048    0.0000 C   0  0  0  0  0  0  0  0  0  0  0  0
    8.6246   -9.7923    0.0000 C   0  0  0  0  0  0  0  0  0  0  0  0
    8.6246   -8.9673    0.0000 C   0  0  1  0  0  0  0  0  0  0  0  0
    9.3391   -8.5548    0.0000 C   0  0  2  0  0  0  0  0  0  0  0  0
   10.0535   -8.9673    0.0000 C   0  0  0  0  0  0  0  0  0  0  0  0
   10.7680   -8.5548    0.0000 C   0  0  0  0  0  0  0  0  0  0  0  0
   10.7680   -7.7298    0.0000 C   0  0  1  0  0  0  0  0  0  0  0  0
   11.4825   -7.3173    0.0000 C   0  0  0  0  0  0  0  0  0  0  0  0
   11.4825   -6.4923    0.0000 C   0  0  0  0  0  0  0  0  0  0  0  0
   10.7680   -6.0798    0.0000 C   0  0  1  0  0  0  0  0  0  0  0  0
   10.0535   -6.4923    0.0000 C   0  0  0  0  0  0  0  0  0  0  0  0
   10.0535   -7.3173    0.0000 C   0  0  1  0  0  0  0  0  0  0  0  0
    9.3391   -7.7298    0.0000 C   0  0  0  0  0  0  0  0  0  0  0  0
    8.6246   -7.3173    0.0000 C   0  0  0  0  0  0  0  0  0  0  0  0
    7.9101   -7.7298    0.0000 C   0  0  0  0  0  0  0  0  0  0  0  0
    7.9101   -8.5548    0.0000 C   0  0  2  0  0  0  0  0  0  0  0  0
    7.1956   -8.9673    0.0000 C   0  0  1  0  0  0  0  0  0  0  0  0
    7.1956   -8.1423    0.0000 C   0  0  0  0  0  0  0  0  0  0  0  0
   10.3555   -5.3654    0.0000 C   0  0  0  0  0  0  0  0  0  0  0  0
   11.1805   -5.3654    0.0000 C   0  0  0  0  0  0  0  0  0  0  0  0
    9.3391   -9.3798    0.0000 C   0  0  0  0  0  0  0  0  0  0  0  0
    8.6246   -8.1423    0.0000 C   0  0  0  0  0  0  0  0  0  0  0  0
    6.0687  -10.9193    0.0000 C   0  0  0  0  0  0  0  0  0  0  0  0
    5.0522   -8.5548    0.0000 O   0  0  0  0  0  0  0  0  0  0  0  0
    6.8937  -10.9193    0.0000 C   0  0  0  0  0  0  0  0  0  0  0  0
    6.4812  -11.6338    0.0000 O   0  0  0  0  0  0  0  0  0  0  0  0
   11.4825   -8.1423    0.0000 C   0  0  0  0  0  0  0  0  0  0  0  0
   11.4825   -8.9673    0.0000 O   0  0  0  0  0  0  0  0  0  0  0  0
   12.1969   -7.7298    0.0000 O   0  0  0  0  0  0  0  0  0  0  0  0
    7.1956  -10.6173    0.0000 H   0  0  0  0  0  0  0  0  0  0  0  0
   10.0535   -8.1423    0.0000 H   0  0  0  0  0  0  0  0  0  0  0  0
    7.9101   -9.3798    0.0000 H   0  0  0  0  0  0  0  0  0  0  0  0
  1  2  1  0  0  0  0
  2  3  1  0  0  0  0
  3  4  1  0  0  0  0
  4  5  1  0  0  0  0
  5  6  1  0  0  0  0
  1  6  1  0  0  0  0
  7  8  2  0  0  0  0
  7  9  1  0  0  0  0
  2  7  1  1  0  0  0
  5 10  1  6  0  0  0
  4 11  1  1  0  0  0
  3 12  1  6  0  0  0
 14 15  1  0  0  0  0
 15 16  1  0  0  0  0
 16 17  1  0  0  0  0
 17 18  1  0  0  0  0
 18 19  1  0  0  0  0
 19 20  1  0  0  0  0
 20 21  1  0  0  0  0
 21 22  1  0  0  0  0
 22 23  1  0  0  0  0
 23 24  1  0  0  0  0
 24 25  1  0  0  0  0
 25 26  1  0  0  0  0
 26 27  1  0  0  0  0
 27 28  1  0  0  0  0
 28 29  1  0  0  0  0
 29 30  1  0  0  0  0
 25 30  1  0  0  0  0
 30 31  1  0  0  0  0
 22 31  1  0  0  0  0
 31 32  2  0  0  0  0
 32 33  1  0  0  0  0
 33 34  1  0  0  0  0
 21 34  1  0  0  0  0
 34 35  1  0  0  0  0
 18 35  1  0  0  0  0
 14 35  1  0  0  0  0
 35 36  1  1  0  0  0
 28 37  1  1  0  0  0
 28 38  1  6  0  0  0
 22 39  1  6  0  0  0
 21 40  1  1  0  0  0
 17 41  1  1  0  0  0
 15 42  1  1  0  0  0
 43 44  2  0  0  0  0
 17 43  1  6  0  0  0
 45 46  2  0  0  0  0
 45 47  1  0  0  0  0
 25 45  1  1  0  0  0
 13 16  1  0  0  0  0
  6 13  1  1  0  0  0
 18 48  1  6  0  0  0
 30 49  1  1  0  0  0
 34 50  1  6  0  0  0
M  END
>  <cdx:fragmentId>
31

$$$$
