301022.cdx
  Mrv1902 05222410222D          

 17 19  0  0  0  0            999 V2000
    9.8349   -4.7116    0.0000 C   0  0  0  0  0  0  0  0  0  0  0  0
    9.4360   -5.4338    0.0000 C   0  0  0  0  0  0  0  0  0  0  0  0
    6.8592   -4.3554    0.0000 C   0  0  0  0  0  0  0  0  0  0  0  0
    5.8707   -7.0641    0.0000 O   0  0  0  0  0  0  0  0  0  0  0  0
    7.5657   -3.9294    0.0000 C   0  0  0  0  0  0  0  0  0  0  0  0
    8.2723   -3.5035    0.0000 C   0  0  0  0  0  0  0  0  0  0  0  0
    8.9944   -3.9024    0.0000 C   0  0  0  0  0  0  0  0  0  0  0  0
    9.0100   -4.7272    0.0000 C   0  0  0  0  0  0  0  0  0  0  0  0
    7.6125   -6.4040    0.0000 C   0  0  0  0  0  0  0  0  0  0  0  0
    8.3191   -5.9780    0.0000 C   0  0  0  0  0  0  0  0  0  0  0  0
    8.3035   -5.1532    0.0000 C   0  0  0  0  0  0  0  0  0  0  0  0
    7.5813   -4.7543    0.0000 C   0  0  0  0  0  0  0  0  0  0  0  0
    6.0855   -4.9402    0.0000 C   0  0  0  0  0  0  0  0  0  0  0  0
    6.8748   -5.1802    0.0000 C   0  0  0  0  0  0  0  0  0  0  0  0
    6.8904   -6.0051    0.0000 C   0  0  0  0  0  0  0  0  0  0  0  0
    6.1107   -6.2748    0.0000 C   0  0  0  0  0  0  0  0  0  0  0  0
    5.6133   -5.6166    0.0000 O   0  0  0  0  0  0  0  0  0  0  0  0
  8  1  1  0  0  0  0
  8  2  1  0  0  0  0
 12  3  1  0  0  0  0
 16  4  2  0  0  0  0
 11  8  1  0  0  0  0
 12  5  1  0  0  0  0
  6  5  1  0  0  0  0
  7  6  1  0  0  0  0
  8  7  1  0  0  0  0
 14 12  1  0  0  0  0
 15  9  1  0  0  0  0
 10  9  1  0  0  0  0
 11 10  1  0  0  0  0
 12 11  1  0  0  0  0
 17 13  1  0  0  0  0
 14 13  1  0  0  0  0
 15 14  2  0  0  0  0
 16 15  1  0  0  0  0
 17 16  1  0  0  0  0
M  END
>  <cdx:fragmentId>
2015

$$$$
