301011.cdx
  Mrv1902 05222410242D          

108119  0  0  0  0            999 V2000
   19.6820   -5.3900    0.0000 C   0  0  0  0  0  0  0  0  0  0  0  0
   20.3965   -4.9775    0.0000 C   0  0  0  0  0  0  0  0  0  0  0  0
   21.1110   -5.3900    0.0000 C   0  0  0  0  0  0  0  0  0  0  0  0
   21.1110   -6.2150    0.0000 C   0  0  0  0  0  0  0  0  0  0  0  0
   20.3965   -6.6275    0.0000 C   0  0  2  0  0  0  0  0  0  0  0  0
   20.3965   -7.4525    0.0000 C   0  0  0  0  0  0  0  0  0  0  0  0
   19.6820   -7.8650    0.0000 C   0  0  0  0  0  0  0  0  0  0  0  0
   18.9675   -7.4525    0.0000 C   0  0  1  0  0  0  0  0  0  0  0  0
   18.2531   -7.8650    0.0000 C   0  0  2  0  0  0  0  0  0  0  0  0
   18.2531   -8.6900    0.0000 C   0  0  0  0  0  0  0  0  0  0  0  0
   17.5386   -9.1025    0.0000 C   0  0  0  0  0  0  0  0  0  0  0  0
   16.8241   -8.6900    0.0000 C   0  0  1  0  0  0  0  0  0  0  0  0
   16.1097   -9.1025    0.0000 C   0  0  1  0  0  0  0  0  0  0  0  0
   15.3952   -8.6900    0.0000 C   0  0  2  0  0  0  0  0  0  0  0  0
   15.3952   -7.8650    0.0000 C   0  0  0  0  0  0  0  0  0  0  0  0
   16.1097   -7.4525    0.0000 C   0  0  0  0  0  0  0  0  0  0  0  0
   16.8241   -7.8650    0.0000 C   0  0  2  0  0  0  0  0  0  0  0  0
   17.5386   -7.4525    0.0000 C   0  0  1  0  0  0  0  0  0  0  0  0
   17.5386   -6.6275    0.0000 C   0  0  0  0  0  0  0  0  0  0  0  0
   18.2531   -6.2150    0.0000 C   0  0  0  0  0  0  0  0  0  0  0  0
   18.9675   -6.6275    0.0000 C   0  0  0  0  0  0  0  0  0  0  0  0
   19.6820   -6.2150    0.0000 C   0  0  2  0  0  0  0  0  0  0  0  0
   21.1110   -7.0400    0.0000 C   0  0  0  0  0  0  0  0  0  0  0  0
   21.1110   -7.8650    0.0000 O   0  0  0  0  0  0  0  0  0  0  0  0
   16.5222   -9.8169    0.0000 C   0  0  0  0  0  0  0  0  0  0  0  0
   15.6972   -9.8169    0.0000 C   0  0  0  0  0  0  0  0  0  0  0  0
   19.9840   -4.2630    0.0000 C   0  0  0  0  0  0  0  0  0  0  0  0
   20.8090   -4.2630    0.0000 C   0  0  0  0  0  0  0  0  0  0  0  0
   14.6807   -9.1025    0.0000 O   0  0  0  0  0  0  0  0  0  0  0  0
   13.9662   -7.8650    0.0000 O   0  0  0  0  0  0  0  0  0  0  0  0
   13.9662   -8.6900    0.0000 C   0  0  2  0  0  0  0  0  0  0  0  0
   13.2518   -9.1025    0.0000 C   0  0  1  0  0  0  0  0  0  0  0  0
   12.5373   -8.6900    0.0000 C   0  0  2  0  0  0  0  0  0  0  0  0
   12.5373   -7.8650    0.0000 C   0  0  2  0  0  0  0  0  0  0  0  0
   13.2518   -7.4525    0.0000 C   0  0  0  0  0  0  0  0  0  0  0  0
   11.8228   -7.4525    0.0000 O   0  0  0  0  0  0  0  0  0  0  0  0
   11.8228   -9.1025    0.0000 O   0  0  0  0  0  0  0  0  0  0  0  0
   13.2518   -9.9275    0.0000 O   0  0  0  0  0  0  0  0  0  0  0  0
   11.8228   -9.9275    0.0000 O   0  0  0  0  0  0  0  0  0  0  0  0
   12.5373  -10.3400    0.0000 C   0  0  2  0  0  0  0  0  0  0  0  0
   12.5373  -11.1650    0.0000 C   0  0  1  0  0  0  0  0  0  0  0  0
   11.8228  -11.5775    0.0000 C   0  0  1  0  0  0  0  0  0  0  0  0
   11.1084  -11.1650    0.0000 C   0  0  2  0  0  0  0  0  0  0  0  0
   11.1084  -10.3400    0.0000 C   0  0  2  0  0  0  0  0  0  0  0  0
   10.3939   -9.9275    0.0000 C   0  0  0  0  0  0  0  0  0  0  0  0
   10.3939  -11.5775    0.0000 O   0  0  0  0  0  0  0  0  0  0  0  0
   13.2518  -11.5775    0.0000 O   0  0  0  0  0  0  0  0  0  0  0  0
    8.9566  -14.0354    0.0000 O   0  0  0  0  0  0  0  0  0  0  0  0
    8.2557  -12.7901    0.0000 O   0  0  0  0  0  0  0  0  0  0  0  0
    8.2467  -13.6151    0.0000 C   0  0  2  0  0  0  0  0  0  0  0  0
    7.5277  -14.0198    0.0000 C   0  0  1  0  0  0  0  0  0  0  0  0
    6.8178  -13.5995    0.0000 C   0  0  2  0  0  0  0  0  0  0  0  0
    6.8268  -12.7746    0.0000 C   0  0  1  0  0  0  0  0  0  0  0  0
    7.5457  -12.3699    0.0000 C   0  0  1  0  0  0  0  0  0  0  0  0
    7.5547  -11.5449    0.0000 C   0  0  0  0  0  0  0  0  0  0  0  0
    6.8403  -11.1324    0.0000 O   0  0  0  0  0  0  0  0  0  0  0  0
    6.0989  -14.0042    0.0000 O   0  0  0  0  0  0  0  0  0  0  0  0
    7.5187  -14.8447    0.0000 O   0  0  0  0  0  0  0  0  0  0  0  0
    6.1169  -12.3543    0.0000 O   0  0  0  0  0  0  0  0  0  0  0  0
   16.8241   -9.5150    0.0000 H   0  0  0  0  0  0  0  0  0  0  0  0
   19.6820   -7.0400    0.0000 H   0  0  0  0  0  0  0  0  0  0  0  0
   23.9759   -9.5097    0.0000 O   0  0  0  0  0  0  0  0  0  0  0  0
   23.2451  -10.7376    0.0000 O   0  0  0  0  0  0  0  0  0  0  0  0
   23.9650  -10.3346    0.0000 C   0  0  2  0  0  0  0  0  0  0  0  0
   24.6740  -10.7565    0.0000 C   0  0  1  0  0  0  0  0  0  0  0  0
   24.6630  -11.5815    0.0000 C   0  0  2  0  0  0  0  0  0  0  0  0
   23.9432  -11.9845    0.0000 C   0  0  1  0  0  0  0  0  0  0  0  0
   23.2342  -11.5626    0.0000 C   0  0  1  0  0  0  0  0  0  0  0  0
   22.5144  -11.9656    0.0000 C   0  0  0  0  0  0  0  0  0  0  0  0
   21.7999  -11.5531    0.0000 O   0  0  0  0  0  0  0  0  0  0  0  0
   25.3720  -12.0034    0.0000 O   0  0  0  0  0  0  0  0  0  0  0  0
   25.3938  -10.3535    0.0000 O   0  0  0  0  0  0  0  0  0  0  0  0
   11.8228  -14.0525    0.0000 O   0  0  0  0  0  0  0  0  0  0  0  0
    9.6794  -12.8150    0.0000 C   0  0  0  0  0  0  0  0  0  0  0  0
    9.6794  -13.6400    0.0000 C   0  0  2  0  0  0  0  0  0  0  0  0
   10.3939  -14.0525    0.0000 C   0  0  2  0  0  0  0  0  0  0  0  0
   11.1084  -13.6400    0.0000 C   0  0  2  0  0  0  0  0  0  0  0  0
   11.1084  -12.8150    0.0000 C   0  0  1  0  0  0  0  0  0  0  0  0
   10.3939  -12.4025    0.0000 O   0  0  0  0  0  0  0  0  0  0  0  0
   11.8228  -12.4025    0.0000 O   0  0  0  0  0  0  0  0  0  0  0  0
   23.9340  -14.4594    0.0000 O   0  0  0  0  0  0  0  0  0  0  0  0
   22.5059  -15.2859    0.0000 O   0  0  0  0  0  0  0  0  0  0  0  0
   21.0761  -14.4624    0.0000 O   0  0  0  0  0  0  0  0  0  0  0  0
   21.0744  -12.8124    0.0000 C   0  0  0  0  0  0  0  0  0  0  0  0
   21.7893  -13.2241    0.0000 C   0  0  1  0  0  0  0  0  0  0  0  0
   21.7901  -14.0491    0.0000 C   0  0  1  0  0  0  0  0  0  0  0  0
   22.5050  -14.4609    0.0000 C   0  0  2  0  0  0  0  0  0  0  0  0
   23.2191  -14.0477    0.0000 C   0  0  2  0  0  0  0  0  0  0  0  0
   23.2182  -13.2227    0.0000 C   0  0  1  0  0  0  0  0  0  0  0  0
   22.5033  -12.8109    0.0000 O   0  0  0  0  0  0  0  0  0  0  0  0
   23.9323  -12.8094    0.0000 O   0  0  0  0  0  0  0  0  0  0  0  0
   23.2605   -9.0990    0.0000 C   0  0  0  0  0  0  0  0  0  0  0  0
   23.2523   -5.7990    0.0000 O   0  0  0  0  0  0  0  0  0  0  0  0
   24.6833   -6.6204    0.0000 O   0  0  0  0  0  0  0  0  0  0  0  0
   24.6874   -8.2704    0.0000 O   0  0  0  0  0  0  0  0  0  0  0  0
   23.2584   -8.2740    0.0000 C   0  0  2  0  0  0  0  0  0  0  0  0
   23.9719   -7.8597    0.0000 C   0  0  2  0  0  0  0  0  0  0  0  0
   23.9698   -7.0347    0.0000 C   0  0  1  0  0  0  0  0  0  0  0  0
   23.2544   -6.6240    0.0000 C   0  0  2  0  0  0  0  0  0  0  0  0
   22.5409   -7.0382    0.0000 C   0  0  1  0  0  0  0  0  0  0  0  0
   22.5429   -7.8632    0.0000 O   0  0  0  0  0  0  0  0  0  0  0  0
   21.8254   -6.6275    0.0000 O   0  0  0  0  0  0  0  0  0  0  0  0
   16.8241   -7.0400    0.0000 C   0  0  0  0  0  0  0  0  0  0  0  0
   18.2531   -7.0400    0.0000 C   0  0  0  0  0  0  0  0  0  0  0  0
   18.9675   -8.2775    0.0000 C   0  0  0  0  0  0  0  0  0  0  0  0
   17.5386   -8.2775    0.0000 H   0  0  0  0  0  0  0  0  0  0  0  0
   10.3939  -14.8775    0.0000 O   0  0  0  0  0  0  0  0  0  0  0  0
   16.1097  -10.5314    0.0000 O   0  0  0  0  0  0  0  0  0  0  0  0
100102  1  1  0  0  0
 78 80  1  1  0  0  0
 49 50  1  0  0  0  0
 50 51  1  0  0  0  0
 77 73  1  6  0  0  0
 79 74  1  0  0  0  0
 75 74  1  0  0  0  0
 76 75  1  0  0  0  0
 96 92  1  1  0  0  0
 92 62  1  0  0  0  0
 89 91  1  1  0  0  0
 88 81  1  6  0  0  0
 87 82  1  6  0  0  0
 86 83  1  1  0  0  0
 85 84  1  6  0  0  0
 90 85  1  0  0  0  0
 86 85  1  0  0  0  0
 87 86  1  0  0  0  0
 88 87  1  0  0  0  0
 89 88  1  0  0  0  0
 90 89  1  0  0  0  0
 63 64  1  0  0  0  0
 99 93  1  6  0  0  0
 98 94  1  1  0  0  0
 97 95  1  6  0  0  0
101 96  1  0  0  0  0
 97 96  1  0  0  0  0
 98 97  1  0  0  0  0
 99 98  1  0  0  0  0
  1  2  1  0  0  0  0
  2  3  1  0  0  0  0
  3  4  1  0  0  0  0
  4  5  1  0  0  0  0
  5  6  1  0  0  0  0
  6  7  1  0  0  0  0
  7  8  1  0  0  0  0
  8  9  1  0  0  0  0
  9 10  1  0  0  0  0
 10 11  1  0  0  0  0
 11 12  1  0  0  0  0
 12 13  1  0  0  0  0
 13 14  1  0  0  0  0
 14 15  1  0  0  0  0
 15 16  1  0  0  0  0
 16 17  1  0  0  0  0
 12 17  1  0  0  0  0
 17 18  1  0  0  0  0
  9 18  1  0  0  0  0
 18 19  1  0  0  0  0
 19 20  1  0  0  0  0
 20 21  2  0  0  0  0
  8 21  1  0  0  0  0
 21 22  1  0  0  0  0
  5 22  1  0  0  0  0
  1 22  1  0  0  0  0
 23 24  2  0  0  0  0
 23102  1  0  0  0  0
  5 23  1  1  0  0  0
 13 25  1  0  0  0  0
 13 26  1  1  0  0  0
  2 27  1  0  0  0  0
  2 28  1  0  0  0  0
 30 31  1  0  0  0  0
 31 32  1  0  0  0  0
 32 33  1  0  0  0  0
 33 34  1  0  0  0  0
 34 35  1  0  0  0  0
 30 35  1  0  0  0  0
 34 36  1  1  0  0  0
 33 37  1  1  0  0  0
 39 40  1  0  0  0  0
 40 41  1  0  0  0  0
 41 42  1  0  0  0  0
 42 43  1  0  0  0  0
 43 44  1  0  0  0  0
 39 44  1  0  0  0  0
 44 45  1  6  0  0  0
 43 46  1  1  0  0  0
 41 47  1  6  0  0  0
 77 76  1  0  0  0  0
 78 77  1  0  0  0  0
 79 78  1  0  0  0  0
 51 52  1  0  0  0  0
 52 53  1  0  0  0  0
 53 54  1  0  0  0  0
 49 54  1  0  0  0  0
 55 56  1  0  0  0  0
 54 55  1  1  0  0  0
 52 57  1  1  0  0  0
 51 58  1  6  0  0  0
 53 59  1  6  0  0  0
 50 48  1  1  0  0  0
 42 80  1  6  0  0  0
 40 38  1  1  0  0  0
 32 38  1  6  0  0  0
 31 29  1  1  0  0  0
 14 29  1  1  0  0  0
 12 60  1  6  0  0  0
 22 61  1  1  0  0  0
100 99  1  0  0  0  0
101100  1  0  0  0  0
 64 65  1  0  0  0  0
 65 66  1  0  0  0  0
 66 67  1  0  0  0  0
 67 68  1  0  0  0  0
 63 68  1  0  0  0  0
 67 91  1  6  0  0  0
 69 70  1  0  0  0  0
 68 69  1  1  0  0  0
 66 71  1  1  0  0  0
 65 72  1  6  0  0  0
 64 62  1  1  0  0  0
 17103  1  1  0  0  0
  9104  1  1  0  0  0
  8105  1  6  0  0  0
 18106  1  6  0  0  0
 76107  1  6  0  0  0
 75 48  1  6  0  0  0
 25108  1  0  0  0  0
M  END
>  <cdx:groupId>
181687

>  <cdx:fragmentId>
181457

$$$$
