301003.cdx
  Mrv1902 05222410252D          

 22 21  0  0  0  0            999 V2000
    6.8819   -5.9971    0.0000 C   0  0  0  0  0  0  0  0  0  0  0  0
    6.1674   -5.5846    0.0000 C   0  0  0  0  0  0  0  0  0  0  0  0
    5.4529   -5.9971    0.0000 C   0  0  0  0  0  0  0  0  0  0  0  0
    4.7385   -5.5846    0.0000 C   0  0  0  0  0  0  0  0  0  0  0  0
    4.0240   -5.9971    0.0000 C   0  0  0  0  0  0  0  0  0  0  0  0
    3.3095   -5.5846    0.0000 C   0  0  0  0  0  0  0  0  0  0  0  0
    2.5950   -5.9971    0.0000 C   0  0  0  0  0  0  0  0  0  0  0  0
    1.8806   -5.5846    0.0000 C   0  0  0  0  0  0  0  0  0  0  0  0
    1.1661   -5.9971    0.0000 C   0  0  0  0  0  0  0  0  0  0  0  0
    0.4516   -5.5846    0.0000 C   0  0  0  0  0  0  0  0  0  0  0  0
    6.8819   -6.8221    0.0000 O   0  0  0  0  0  0  0  0  0  0  0  0
    7.5963   -5.5846    0.0000 O   0  0  0  0  0  0  0  0  0  0  0  0
    8.3108   -5.9971    0.0000 C   0  0  0  0  0  0  0  0  0  0  0  0
    9.0253   -5.5846    0.0000 C   0  0  0  0  0  0  0  0  0  0  0  0
    9.7398   -5.9971    0.0000 C   0  0  0  0  0  0  0  0  0  0  0  0
   10.4542   -5.5846    0.0000 C   0  0  0  0  0  0  0  0  0  0  0  0
   11.1687   -5.9971    0.0000 C   0  0  0  0  0  0  0  0  0  0  0  0
   11.8832   -5.5846    0.0000 C   0  0  0  0  0  0  0  0  0  0  0  0
   12.5976   -5.9971    0.0000 C   0  0  0  0  0  0  0  0  0  0  0  0
   12.5976   -6.8221    0.0000 C   0  0  0  0  0  0  0  0  0  0  0  0
   13.3121   -5.5846    0.0000 C   0  0  0  0  0  0  0  0  0  0  0  0
    9.7398   -6.8221    0.0000 C   0  0  0  0  0  0  0  0  0  0  0  0
  1  2  1  0  0  0  0
  2  3  1  0  0  0  0
  3  4  1  0  0  0  0
  4  5  1  0  0  0  0
  5  6  1  0  0  0  0
  6  7  1  0  0  0  0
  7  8  1  0  0  0  0
  8  9  1  0  0  0  0
  9 10  1  0  0  0  0
  1 11  2  0  0  0  0
  1 12  1  0  0  0  0
 13 14  1  0  0  0  0
 14 15  1  0  0  0  0
 15 16  1  0  0  0  0
 16 17  1  0  0  0  0
 17 18  1  0  0  0  0
 18 19  2  0  0  0  0
 19 20  1  0  0  0  0
 19 21  1  0  0  0  0
 15 22  1  0  0  0  0
 12 13  1  0  0  0  0
M  END
>  <cdx:fragmentId>
158

$$$$
