301004.cdx
  Mrv1902 05222410242D          

 16 15  0  0  0  0            999 V2000
    4.6287   -5.1214    0.0000 C   0  0  0  0  0  0  0  0  0  0  0  0
    3.9143   -4.7089    0.0000 C   0  0  0  0  0  0  0  0  0  0  0  0
    3.9143   -3.8839    0.0000 C   0  0  0  0  0  0  0  0  0  0  0  0
    4.6287   -5.9464    0.0000 O   0  0  0  0  0  0  0  0  0  0  0  0
    5.3432   -4.7089    0.0000 O   0  0  0  0  0  0  0  0  0  0  0  0
    3.1998   -5.1214    0.0000 C   0  0  0  0  0  0  0  0  0  0  0  0
    6.0577   -5.1214    0.0000 C   0  0  0  0  0  0  0  0  0  0  0  0
    6.7721   -4.7089    0.0000 C   0  0  0  0  0  0  0  0  0  0  0  0
    7.4866   -5.1214    0.0000 C   0  0  0  0  0  0  0  0  0  0  0  0
    8.2011   -4.7089    0.0000 C   0  0  0  0  0  0  0  0  0  0  0  0
    8.9156   -5.1214    0.0000 C   0  0  0  0  0  0  0  0  0  0  0  0
    9.6300   -4.7089    0.0000 C   0  0  0  0  0  0  0  0  0  0  0  0
   10.3445   -5.1214    0.0000 C   0  0  0  0  0  0  0  0  0  0  0  0
   10.3445   -5.9464    0.0000 C   0  0  0  0  0  0  0  0  0  0  0  0
   11.0590   -4.7089    0.0000 C   0  0  0  0  0  0  0  0  0  0  0  0
    7.4866   -5.9464    0.0000 C   0  0  0  0  0  0  0  0  0  0  0  0
  1  2  1  0  0  0  0
  2  3  1  0  0  0  0
  1  4  2  0  0  0  0
  1  5  1  0  0  0  0
  2  6  1  0  0  0  0
  7  8  1  0  0  0  0
  8  9  1  0  0  0  0
  9 10  1  0  0  0  0
 10 11  1  0  0  0  0
 11 12  1  0  0  0  0
 12 13  2  0  0  0  0
 13 14  1  0  0  0  0
 13 15  1  0  0  0  0
  9 16  1  0  0  0  0
  5  7  1  0  0  0  0
M  END
>  <cdx:fragmentId>
240

$$$$
