301041.cdx
  Mrv1902 05222410202D          

 31 33  0  0  0  0            999 V2000
    6.7230  -13.6008    0.0000 O   0  0  0  0  0  0  0  0  0  0  0  0
    6.0085  -14.0133    0.0000 C   0  0  2  0  0  0  0  0  0  0  0  0
    5.2940  -13.6008    0.0000 C   0  0  1  0  0  0  0  0  0  0  0  0
    5.2940  -12.7758    0.0000 C   0  0  1  0  0  0  0  0  0  0  0  0
    6.0085  -12.3633    0.0000 C   0  0  2  0  0  0  0  0  0  0  0  0
    6.7230  -12.7758    0.0000 C   0  0  2  0  0  0  0  0  0  0  0  0
    4.5795  -14.0133    0.0000 O   0  0  0  0  0  0  0  0  0  0  0  0
    4.5795  -12.3633    0.0000 O   0  0  0  0  0  0  0  0  0  0  0  0
    6.0085  -11.5383    0.0000 O   0  0  0  0  0  0  0  0  0  0  0  0
    7.4374  -12.3633    0.0000 C   0  0  0  0  0  0  0  0  0  0  0  0
    6.0085  -14.8383    0.0000 O   0  0  0  0  0  0  0  0  0  0  0  0
    7.4374  -16.4883    0.0000 O   0  0  0  0  0  0  0  0  0  0  0  0
    6.7230  -16.0758    0.0000 C   0  0  2  0  0  0  0  0  0  0  0  0
    6.7230  -15.2508    0.0000 C   0  0  1  0  0  0  0  0  0  0  0  0
    7.4374  -14.8383    0.0000 C   0  0  2  0  0  0  0  0  0  0  0  0
    8.1519  -15.2508    0.0000 C   0  0  1  0  0  0  0  0  0  0  0  0
    8.1519  -16.0758    0.0000 C   0  0  1  0  0  0  0  0  0  0  0  0
    6.0085  -16.4883    0.0000 O   0  0  0  0  0  0  0  0  0  0  0  0
    5.2940  -16.0758    0.0000 C   0  0  0  0  0  0  0  0  0  0  0  0
    4.5795  -16.4883    0.0000 C   0  0  0  0  0  0  0  0  0  0  0  0
    3.8651  -16.0758    0.0000 C   0  0  0  0  0  0  0  0  0  0  0  0
    3.1506  -16.4883    0.0000 C   0  0  0  0  0  0  0  0  0  0  0  0
    2.4361  -16.0758    0.0000 C   0  0  0  0  0  0  0  0  0  0  0  0
    2.4361  -15.2508    0.0000 C   0  0  0  0  0  0  0  0  0  0  0  0
    3.1506  -14.8383    0.0000 C   0  0  0  0  0  0  0  0  0  0  0  0
    3.8651  -15.2508    0.0000 C   0  0  0  0  0  0  0  0  0  0  0  0
    1.7217  -14.8383    0.0000 O   0  0  0  0  0  0  0  0  0  0  0  0
    8.8664  -16.4883    0.0000 C   0  0  0  0  0  0  0  0  0  0  0  0
    9.5808  -16.0758    0.0000 O   0  0  0  0  0  0  0  0  0  0  0  0
    8.8664  -14.8383    0.0000 O   0  0  0  0  0  0  0  0  0  0  0  0
    7.4374  -14.0133    0.0000 O   0  0  0  0  0  0  0  0  0  0  0  0
  1  2  1  0  0  0  0
  2  3  1  0  0  0  0
  3  4  1  0  0  0  0
  4  5  1  0  0  0  0
  5  6  1  0  0  0  0
  1  6  1  0  0  0  0
  3  7  1  6  0  0  0
  4  8  1  6  0  0  0
  5  9  1  1  0  0  0
  6 10  1  6  0  0  0
 12 13  1  0  0  0  0
 13 14  1  0  0  0  0
 14 15  1  0  0  0  0
 15 16  1  0  0  0  0
 16 17  1  0  0  0  0
 12 17  1  0  0  0  0
 19 20  1  0  0  0  0
 18 19  1  0  0  0  0
 21 22  1  0  0  0  0
 22 23  2  0  0  0  0
 23 24  1  0  0  0  0
 24 25  2  0  0  0  0
 25 26  1  0  0  0  0
 21 26  2  0  0  0  0
 24 27  1  0  0  0  0
 20 21  1  0  0  0  0
 13 18  1  1  0  0  0
 28 29  1  0  0  0  0
 17 28  1  1  0  0  0
 16 30  1  6  0  0  0
 15 31  1  1  0  0  0
 14 11  1  6  0  0  0
  2 11  1  1  0  0  0
M  END
>  <cdx:fragmentId>
3122

$$$$
