301048.cdx
  Mrv1902 05222410282D          

 40 45  0  0  0  0            999 V2000
    9.8847   -7.7158    0.0000 C   0  0  0  0  0  0  0  0  0  0  0  0
    9.8847   -8.5408    0.0000 C   0  0  0  0  0  0  0  0  0  0  0  0
    9.1702   -8.9533    0.0000 C   0  0  0  0  0  0  0  0  0  0  0  0
    8.4557   -8.5408    0.0000 C   0  0  0  0  0  0  0  0  0  0  0  0
    7.7413   -8.9533    0.0000 C   0  0  0  0  0  0  0  0  0  0  0  0
    7.0268   -8.5408    0.0000 C   0  0  0  0  0  0  0  0  0  0  0  0
    7.0268   -7.7158    0.0000 C   0  0  0  0  0  0  0  0  0  0  0  0
    7.7413   -7.3033    0.0000 C   0  0  0  0  0  0  0  0  0  0  0  0
    8.4557   -7.7158    0.0000 C   0  0  0  0  0  0  0  0  0  0  0  0
    9.1702   -7.3033    0.0000 O   0  0  0  0  0  0  0  0  0  0  0  0
    9.1702   -9.7783    0.0000 O   0  0  0  0  0  0  0  0  0  0  0  0
   10.5991   -7.3033    0.0000 C   0  0  0  0  0  0  0  0  0  0  0  0
   10.5991   -6.4783    0.0000 C   0  0  0  0  0  0  0  0  0  0  0  0
   11.3136   -6.0658    0.0000 C   0  0  0  0  0  0  0  0  0  0  0  0
   12.0281   -6.4783    0.0000 C   0  0  0  0  0  0  0  0  0  0  0  0
   12.0281   -7.3033    0.0000 C   0  0  0  0  0  0  0  0  0  0  0  0
   11.3136   -7.7158    0.0000 C   0  0  0  0  0  0  0  0  0  0  0  0
   12.7425   -6.0658    0.0000 O   0  0  0  0  0  0  0  0  0  0  0  0
    6.3123   -7.3033    0.0000 O   0  0  0  0  0  0  0  0  0  0  0  0
    7.7413   -9.7783    0.0000 O   0  0  0  0  0  0  0  0  0  0  0  0
    5.5978   -6.0658    0.0000 C   0  0  0  0  0  0  0  0  0  0  0  0
    5.5978   -5.2408    0.0000 C   0  0  0  0  0  0  0  0  0  0  0  0
    6.3123   -4.8283    0.0000 C   0  0  0  0  0  0  0  0  0  0  0  0
    7.0268   -5.2408    0.0000 C   0  0  0  0  0  0  0  0  0  0  0  0
    7.7413   -4.8283    0.0000 C   0  0  0  0  0  0  0  0  0  0  0  0
    8.4557   -5.2408    0.0000 C   0  0  0  0  0  0  0  0  0  0  0  0
    8.4557   -6.0658    0.0000 C   0  0  0  0  0  0  0  0  0  0  0  0
    7.7413   -6.4783    0.0000 C   0  0  0  0  0  0  0  0  0  0  0  0
    7.0268   -6.0658    0.0000 C   0  0  0  0  0  0  0  0  0  0  0  0
    6.3123   -6.4783    0.0000 O   0  0  0  0  0  0  0  0  0  0  0  0
    6.3123   -4.0033    0.0000 O   0  0  0  0  0  0  0  0  0  0  0  0
    4.8834   -6.4783    0.0000 C   0  0  0  0  0  0  0  0  0  0  0  0
    4.8834   -7.3033    0.0000 C   0  0  0  0  0  0  0  0  0  0  0  0
    4.1689   -7.7158    0.0000 C   0  0  0  0  0  0  0  0  0  0  0  0
    3.4544   -7.3033    0.0000 C   0  0  0  0  0  0  0  0  0  0  0  0
    3.4544   -6.4783    0.0000 C   0  0  0  0  0  0  0  0  0  0  0  0
    4.1689   -6.0658    0.0000 C   0  0  0  0  0  0  0  0  0  0  0  0
    2.7400   -7.7158    0.0000 O   0  0  0  0  0  0  0  0  0  0  0  0
    9.1702   -6.4783    0.0000 O   0  0  0  0  0  0  0  0  0  0  0  0
    7.7413   -4.0033    0.0000 O   0  0  0  0  0  0  0  0  0  0  0  0
  1  2  2  0  0  0  0
  2  3  1  0  0  0  0
  3  4  1  0  0  0  0
  4  5  1  0  0  0  0
  5  6  2  0  0  0  0
  6  7  1  0  0  0  0
  7  8  2  0  0  0  0
  8  9  1  0  0  0  0
  4  9  2  0  0  0  0
  9 10  1  0  0  0  0
  1 10  1  0  0  0  0
  3 11  2  0  0  0  0
 12 13  1  0  0  0  0
 13 14  2  0  0  0  0
 14 15  1  0  0  0  0
 15 16  2  0  0  0  0
 16 17  1  0  0  0  0
 12 17  2  0  0  0  0
 15 18  1  0  0  0  0
  1 12  1  0  0  0  0
  7 19  1  0  0  0  0
  5 20  1  0  0  0  0
 21 22  2  0  0  0  0
 22 23  1  0  0  0  0
 23 24  1  0  0  0  0
 24 25  1  0  0  0  0
 25 26  2  0  0  0  0
 26 27  1  0  0  0  0
 27 28  2  0  0  0  0
 28 29  1  0  0  0  0
 24 29  2  0  0  0  0
 29 30  1  0  0  0  0
 21 30  1  0  0  0  0
 23 31  2  0  0  0  0
 32 33  1  0  0  0  0
 33 34  2  0  0  0  0
 34 35  1  0  0  0  0
 35 36  2  0  0  0  0
 36 37  1  0  0  0  0
 32 37  2  0  0  0  0
 35 38  1  0  0  0  0
 21 32  1  0  0  0  0
 27 39  1  0  0  0  0
 25 40  1  0  0  0  0
  8 28  1  0  0  0  0
M  END
>  <cdx:fragmentId>
3696

$$$$
