301091.cdx
  Mrv1902 05222410192D          

 16 19  0  0  0  0            999 V2000
    7.6560   -6.6947    0.0000 C   0  0  0  0  0  0  0  0  0  0  0  0
    6.8662   -6.4564    0.0000 C   0  0  0  0  0  0  0  0  0  0  0  0
    6.3954   -7.1339    0.0000 C   0  0  0  0  0  0  0  0  0  0  0  0
    6.8943   -7.7909    0.0000 C   0  0  0  0  0  0  0  0  0  0  0  0
    7.5189   -8.3299    0.0000 O   0  0  0  0  0  0  0  0  0  0  0  0
    7.6734   -7.5195    0.0000 C   0  0  0  0  0  0  0  0  0  0  0  0
    8.3291   -8.0202    0.0000 C   0  0  0  0  0  0  0  0  0  0  0  0
    9.1294   -7.8197    0.0000 C   0  0  0  0  0  0  0  0  0  0  0  0
    9.4716   -7.0690    0.0000 C   0  0  0  0  0  0  0  0  0  0  0  0
    9.0980   -6.3334    0.0000 C   0  0  0  0  0  0  0  0  0  0  0  0
    8.2900   -6.1668    0.0000 C   0  0  0  0  0  0  0  0  0  0  0  0
    8.7164   -6.8317    0.0000 C   0  0  0  0  0  0  0  0  0  0  0  0
    8.8217   -6.0135    0.0000 C   0  0  0  0  0  0  0  0  0  0  0  0
    9.4777   -6.5138    0.0000 C   0  0  0  0  0  0  0  0  0  0  0  0
    8.0895   -5.3666    0.0000 C   0  0  0  0  0  0  0  0  0  0  0  0
    6.2930   -8.3558    0.0000 C   0  0  0  0  0  0  0  0  0  0  0  0
  1  2  1  0  0  0  0
  2  3  1  0  0  0  0
  3  4  1  0  0  0  0
  4  5  1  0  0  0  0
  5  6  1  0  0  0  0
  6  7  1  0  0  0  0
  7  8  1  0  0  0  0
  8  9  1  0  0  0  0
  9 10  1  0  0  0  0
 10 11  1  0  0  0  0
  1 11  1  0  0  0  0
  1 12  1  0  0  0  0
  8 12  1  0  0  0  0
  1  6  1  0  0  0  0
  4  6  1  0  0  0  0
 12 13  1  0  0  0  0
 12 14  1  0  0  0  0
 11 15  1  0  0  0  0
  4 16  1  0  0  0  0
M  END
>  <cdx:fragmentId>
6277

$$$$
