301063.cdx
  Mrv1902 05222410272D          

 13 13  0  0  0  0            999 V2000
    6.2015   -7.5686    0.0000 C   0  0  0  0  0  0  0  0  0  0  0  0
    6.2292   -8.3931    0.0000 C   0  0  0  0  0  0  0  0  0  0  0  0
    5.5290   -8.8294    0.0000 C   0  0  0  0  0  0  0  0  0  0  0  0
    9.0025   -5.8236    0.0000 C   0  0  0  0  0  0  0  0  0  0  0  0
    9.0578   -7.4727    0.0000 O   0  0  0  0  0  0  0  0  0  0  0  0
    6.1462   -5.9195    0.0000 O   0  0  0  0  0  0  0  0  0  0  0  0
    8.3022   -6.2599    0.0000 C   0  0  1  0  0  0  0  0  0  0  0  0
    8.3299   -7.0844    0.0000 C   0  0  0  0  0  0  0  0  0  0  0  0
    7.6297   -7.5206    0.0000 N   0  0  0  0  0  0  0  0  0  0  0  0
    6.9018   -7.1323    0.0000 C   0  0  2  0  0  0  0  0  0  0  0  0
    6.8741   -6.3078    0.0000 C   0  0  0  0  0  0  0  0  0  0  0  0
    7.5743   -5.8716    0.0000 N   0  0  0  0  0  0  0  0  0  0  0  0
    6.9571   -8.7814    0.0000 C   0  0  0  0  0  0  0  0  0  0  0  0
 10  1  1  1  0  0  0
  7  4  1  1  0  0  0
  8  5  2  0  0  0  0
 11  6  2  0  0  0  0
 12  7  1  0  0  0  0
  8  7  1  0  0  0  0
  9  8  1  0  0  0  0
 10  9  1  0  0  0  0
 11 10  1  0  0  0  0
 12 11  1  0  0  0  0
  1  2  1  0  0  0  0
  2  3  1  0  0  0  0
  2 13  1  0  0  0  0
M  END
>  <cdx:fragmentId>
4502

$$$$
