301053.cdx
  Mrv1902 05222410182D          

 67 74  0  0  0  0            999 V2000
    3.1506  -13.4976    0.0000 C   0  0  0  0  0  0  0  0  0  0  0  0
    3.8651  -13.0851    0.0000 C   0  0  0  0  0  0  0  0  0  0  0  0
    4.5795  -13.4976    0.0000 C   0  0  0  0  0  0  0  0  0  0  0  0
    4.5795  -14.3226    0.0000 C   0  0  0  0  0  0  0  0  0  0  0  0
    3.8651  -14.7351    0.0000 C   0  0  2  0  0  0  0  0  0  0  0  0
    3.8651  -15.5601    0.0000 C   0  0  0  0  0  0  0  0  0  0  0  0
    3.1506  -15.9726    0.0000 C   0  0  0  0  0  0  0  0  0  0  0  0
    2.4361  -15.5601    0.0000 C   0  0  1  0  0  0  0  0  0  0  0  0
    1.7217  -15.9726    0.0000 C   0  0  2  0  0  0  0  0  0  0  0  0
    1.7217  -16.7976    0.0000 C   0  0  0  0  0  0  0  0  0  0  0  0
    1.0072  -17.2101    0.0000 C   0  0  0  0  0  0  0  0  0  0  0  0
    0.2927  -16.7976    0.0000 C   0  0  1  0  0  0  0  0  0  0  0  0
   -0.4218  -17.2101    0.0000 C   0  0  0  0  0  0  0  0  0  0  0  0
   -1.1362  -16.7976    0.0000 C   0  0  2  0  0  0  0  0  0  0  0  0
   -1.1362  -15.9726    0.0000 C   0  0  0  0  0  0  0  0  0  0  0  0
   -0.4218  -15.5601    0.0000 C   0  0  0  0  0  0  0  0  0  0  0  0
    0.2927  -15.9726    0.0000 C   0  0  2  0  0  0  0  0  0  0  0  0
    1.0072  -15.5601    0.0000 C   0  0  0  0  0  0  0  0  0  0  0  0
    1.0072  -14.7351    0.0000 C   0  0  0  0  0  0  0  0  0  0  0  0
    1.7217  -14.3226    0.0000 C   0  0  0  0  0  0  0  0  0  0  0  0
    2.4361  -14.7351    0.0000 C   0  0  0  0  0  0  0  0  0  0  0  0
    3.1506  -14.3226    0.0000 C   0  0  2  0  0  0  0  0  0  0  0  0
    4.5795  -15.1476    0.0000 C   0  0  0  0  0  0  0  0  0  0  0  0
    4.5795  -15.9726    0.0000 O   0  0  0  0  0  0  0  0  0  0  0  0
    5.2940  -14.7351    0.0000 O   0  0  0  0  0  0  0  0  0  0  0  0
    0.2927  -15.1476    0.0000 C   0  0  0  0  0  0  0  0  0  0  0  0
   -0.0093  -17.9246    0.0000 C   0  0  0  0  0  0  0  0  0  0  0  0
   -0.8343  -17.9246    0.0000 C   0  0  0  0  0  0  0  0  0  0  0  0
    1.7217  -15.1476    0.0000 C   0  0  0  0  0  0  0  0  0  0  0  0
    2.4361  -16.3851    0.0000 C   0  0  0  0  0  0  0  0  0  0  0  0
    3.4526  -12.3706    0.0000 C   0  0  0  0  0  0  0  0  0  0  0  0
    4.2776  -12.3706    0.0000 C   0  0  0  0  0  0  0  0  0  0  0  0
   -1.8507  -17.2101    0.0000 O   0  0  0  0  0  0  0  0  0  0  0  0
    0.2927  -17.6226    0.0000 H   0  0  0  0  0  0  0  0  0  0  0  0
    3.1506  -15.1476    0.0000 H   0  0  0  0  0  0  0  0  0  0  0  0
    6.7230  -14.7351    0.0000 O   0  0  0  0  0  0  0  0  0  0  0  0
    6.0085  -15.1476    0.0000 C   0  0  2  0  0  0  0  0  0  0  0  0
    6.0085  -15.9726    0.0000 C   0  0  1  0  0  0  0  0  0  0  0  0
    6.7230  -16.3851    0.0000 C   0  0  2  0  0  0  0  0  0  0  0  0
    7.4374  -15.9726    0.0000 C   0  0  1  0  0  0  0  0  0  0  0  0
    7.4374  -15.1476    0.0000 C   0  0  1  0  0  0  0  0  0  0  0  0
    8.1519  -16.3851    0.0000 O   0  0  0  0  0  0  0  0  0  0  0  0
    6.7230  -17.2101    0.0000 O   0  0  0  0  0  0  0  0  0  0  0  0
    5.2940  -16.3851    0.0000 O   0  0  0  0  0  0  0  0  0  0  0  0
    8.1519  -14.7351    0.0000 C   0  0  0  0  0  0  0  0  0  0  0  0
    8.8664  -15.1476    0.0000 O   0  0  0  0  0  0  0  0  0  0  0  0
   10.2953  -15.1476    0.0000 O   0  0  0  0  0  0  0  0  0  0  0  0
    9.5808  -14.7351    0.0000 C   0  0  2  0  0  0  0  0  0  0  0  0
    9.5808  -13.9101    0.0000 C   0  0  1  0  0  0  0  0  0  0  0  0
   10.2953  -13.4976    0.0000 C   0  0  2  0  0  0  0  0  0  0  0  0
   11.0098  -13.9101    0.0000 C   0  0  1  0  0  0  0  0  0  0  0  0
   11.0098  -14.7351    0.0000 C   0  0  1  0  0  0  0  0  0  0  0  0
   11.7243  -13.4976    0.0000 O   0  0  0  0  0  0  0  0  0  0  0  0
   11.0098  -12.2601    0.0000 O   0  0  0  0  0  0  0  0  0  0  0  0
   11.7243  -12.6726    0.0000 C   0  0  2  0  0  0  0  0  0  0  0  0
   12.4387  -12.2601    0.0000 C   0  0  1  0  0  0  0  0  0  0  0  0
   12.4387  -11.4351    0.0000 C   0  0  1  0  0  0  0  0  0  0  0  0
   11.7243  -11.0226    0.0000 C   0  0  2  0  0  0  0  0  0  0  0  0
   11.0098  -11.4351    0.0000 C   0  0  2  0  0  0  0  0  0  0  0  0
   10.2953  -11.0226    0.0000 C   0  0  0  0  0  0  0  0  0  0  0  0
   11.7243  -10.1976    0.0000 O   0  0  0  0  0  0  0  0  0  0  0  0
   13.1532  -11.0226    0.0000 O   0  0  0  0  0  0  0  0  0  0  0  0
   13.1532  -12.6726    0.0000 O   0  0  0  0  0  0  0  0  0  0  0  0
   11.7243  -15.1476    0.0000 C   0  0  0  0  0  0  0  0  0  0  0  0
   12.4387  -14.7351    0.0000 O   0  0  0  0  0  0  0  0  0  0  0  0
   10.2953  -12.6726    0.0000 O   0  0  0  0  0  0  0  0  0  0  0  0
    8.8664  -13.4976    0.0000 O   0  0  0  0  0  0  0  0  0  0  0  0
  1  2  1  0  0  0  0
  2  3  1  0  0  0  0
  3  4  1  0  0  0  0
  4  5  1  0  0  0  0
  5  6  1  0  0  0  0
  6  7  1  0  0  0  0
  7  8  1  0  0  0  0
  8  9  1  0  0  0  0
  9 10  1  0  0  0  0
 10 11  1  0  0  0  0
 11 12  1  0  0  0  0
 12 13  1  0  0  0  0
 13 14  1  0  0  0  0
 14 15  1  0  0  0  0
 15 16  1  0  0  0  0
 16 17  1  0  0  0  0
 12 17  1  0  0  0  0
 17 18  1  0  0  0  0
  9 18  1  0  0  0  0
 18 19  1  0  0  0  0
 19 20  1  0  0  0  0
 20 21  2  0  0  0  0
  8 21  1  0  0  0  0
 21 22  1  0  0  0  0
  5 22  1  0  0  0  0
  1 22  1  0  0  0  0
 23 24  2  0  0  0  0
 23 25  1  0  0  0  0
  5 23  1  1  0  0  0
 17 26  1  1  0  0  0
 13 27  1  0  0  0  0
 13 28  1  0  0  0  0
  9 29  1  1  0  0  0
  8 30  1  6  0  0  0
  2 31  1  0  0  0  0
  2 32  1  0  0  0  0
 14 33  1  1  0  0  0
 12 34  1  6  0  0  0
 22 35  1  1  0  0  0
 36 37  1  0  0  0  0
 37 38  1  0  0  0  0
 38 39  1  0  0  0  0
 39 40  1  0  0  0  0
 40 41  1  0  0  0  0
 36 41  1  0  0  0  0
 40 42  1  1  0  0  0
 39 43  1  6  0  0  0
 38 44  1  1  0  0  0
 47 48  1  0  0  0  0
 48 49  1  0  0  0  0
 49 50  1  0  0  0  0
 50 51  1  0  0  0  0
 51 52  1  0  0  0  0
 47 52  1  0  0  0  0
 54 55  1  0  0  0  0
 55 56  1  0  0  0  0
 56 57  1  0  0  0  0
 57 58  1  0  0  0  0
 58 59  1  0  0  0  0
 54 59  1  0  0  0  0
 59 60  1  1  0  0  0
 58 61  1  6  0  0  0
 57 62  1  1  0  0  0
 56 63  1  1  0  0  0
 55 53  1  6  0  0  0
 51 53  1  6  0  0  0
 64 65  1  0  0  0  0
 52 64  1  1  0  0  0
 50 66  1  1  0  0  0
 49 67  1  6  0  0  0
 48 46  1  1  0  0  0
 45 46  1  0  0  0  0
 41 45  1  6  0  0  0
 37 25  1  6  0  0  0
M  END
>  <cdx:fragmentId>
3902

$$$$
