301030.cdx
  Mrv1902 05222410212D          

 26 29  0  0  0  0            999 V2000
    8.9601   -9.2628    0.0000 N   0  0  0  0  0  0  0  0  0  0  0  0
    9.6744   -8.8501    0.0000 C   0  0  0  0  0  0  0  0  0  0  0  0
    9.6747   -8.0251    0.0000 C   0  0  0  0  0  0  0  0  0  0  0  0
    8.9597   -7.6135    0.0000 C   0  0  0  0  0  0  0  0  0  0  0  0
    8.2452   -8.0260    0.0000 C   0  0  0  0  0  0  0  0  0  0  0  0
    7.5308   -7.6135    0.0000 C   0  0  0  0  0  0  0  0  0  0  0  0
    6.8163   -8.0260    0.0000 C   0  0  0  0  0  0  0  0  0  0  0  0
    6.8163   -8.8510    0.0000 C   0  0  0  0  0  0  0  0  0  0  0  0
    7.5308   -9.2635    0.0000 C   0  0  0  0  0  0  0  0  0  0  0  0
    8.2452   -8.8510    0.0000 C   0  0  2  0  0  0  0  0  0  0  0  0
    7.5308   -6.7885    0.0000 C   0  0  0  0  0  0  0  0  0  0  0  0
    8.2452   -6.3760    0.0000 C   0  0  0  0  0  0  0  0  0  0  0  0
    8.9597   -6.7885    0.0000 C   0  0  0  0  0  0  0  0  0  0  0  0
    6.1018   -9.2635    0.0000 C   0  0  0  0  0  0  0  0  0  0  0  0
    5.3873   -8.8510    0.0000 C   0  0  0  0  0  0  0  0  0  0  0  0
    5.3873   -8.0260    0.0000 C   0  0  0  0  0  0  0  0  0  0  0  0
    6.1018   -7.6135    0.0000 C   0  0  0  0  0  0  0  0  0  0  0  0
    6.8163   -6.3760    0.0000 O   0  0  0  0  0  0  0  0  0  0  0  0
    8.9601  -10.0878    0.0000 C   0  0  0  0  0  0  0  0  0  0  0  0
    6.1018   -6.7885    0.0000 O   0  0  0  0  0  0  0  0  0  0  0  0
    5.3873   -6.3760    0.0000 C   0  0  0  0  0  0  0  0  0  0  0  0
    4.6729   -7.6135    0.0000 O   0  0  0  0  0  0  0  0  0  0  0  0
    3.9584   -8.0260    0.0000 C   0  0  0  0  0  0  0  0  0  0  0  0
    8.2452   -5.5510    0.0000 O   0  0  0  0  0  0  0  0  0  0  0  0
    8.9597   -5.1385    0.0000 C   0  0  0  0  0  0  0  0  0  0  0  0
    8.2452   -9.6760    0.0000 H   0  0  0  0  0  0  0  0  0  0  0  0
  1  2  1  0  0  0  0
  2  3  1  0  0  0  0
  3  4  1  0  0  0  0
  4  5  1  0  0  0  0
  5  6  2  0  0  0  0
  6  7  1  0  0  0  0
  7  8  1  0  0  0  0
  8  9  1  0  0  0  0
  9 10  1  0  0  0  0
  1 10  1  0  0  0  0
  5 10  1  0  0  0  0
 11 12  2  0  0  0  0
 12 13  1  0  0  0  0
  4 13  2  0  0  0  0
  6 11  1  0  0  0  0
 14 15  1  0  0  0  0
 15 16  2  0  0  0  0
 16 17  1  0  0  0  0
  7 17  2  0  0  0  0
  8 14  2  0  0  0  0
 11 18  1  0  0  0  0
  1 19  1  0  0  0  0
 20 21  1  0  0  0  0
 17 20  1  0  0  0  0
 22 23  1  0  0  0  0
 16 22  1  0  0  0  0
 24 25  1  0  0  0  0
 12 24  1  0  0  0  0
 10 26  1  6  0  0  0
M  END
>  <cdx:fragmentId>
2274

$$$$
