301064.cdx
  Mrv1902 05222410262D          

 22 24  0  0  0  0            999 V2000
    4.8627   -8.0747    0.0000 C   0  0  0  0  0  0  0  0  0  0  0  0
    4.1483   -7.6622    0.0000 C   0  0  0  0  0  0  0  0  0  0  0  0
    4.1483   -6.8372    0.0000 C   0  0  0  0  0  0  0  0  0  0  0  0
    4.8627   -6.4247    0.0000 C   0  0  0  0  0  0  0  0  0  0  0  0
    5.5772   -6.8372    0.0000 C   0  0  0  0  0  0  0  0  0  0  0  0
    5.5772   -7.6622    0.0000 C   0  0  0  0  0  0  0  0  0  0  0  0
    6.2917   -8.0747    0.0000 C   0  0  0  0  0  0  0  0  0  0  0  0
   10.5785   -6.4247    0.0000 C   0  0  0  0  0  0  0  0  0  0  0  0
   11.2930   -6.8372    0.0000 C   0  0  0  0  0  0  0  0  0  0  0  0
   11.2930   -7.6622    0.0000 C   0  0  0  0  0  0  0  0  0  0  0  0
   10.5785   -8.0747    0.0000 C   0  0  0  0  0  0  0  0  0  0  0  0
    9.8640   -7.6622    0.0000 C   0  0  0  0  0  0  0  0  0  0  0  0
    9.8640   -6.8372    0.0000 C   0  0  0  0  0  0  0  0  0  0  0  0
    9.1496   -6.4247    0.0000 C   0  0  0  0  0  0  0  0  0  0  0  0
    9.1496   -8.0747    0.0000 O   0  0  0  0  0  0  0  0  0  0  0  0
    6.2917   -6.4247    0.0000 O   0  0  0  0  0  0  0  0  0  0  0  0
    8.4351   -6.8372    0.0000 C   0  0  1  0  0  0  0  0  0  0  0  0
    8.4351   -7.6622    0.0000 C   0  0  0  0  0  0  0  0  0  0  0  0
    7.7206   -8.0747    0.0000 N   0  0  0  0  0  0  0  0  0  0  0  0
    7.0062   -7.6622    0.0000 C   0  0  2  0  0  0  0  0  0  0  0  0
    7.0062   -6.8372    0.0000 C   0  0  0  0  0  0  0  0  0  0  0  0
    7.7206   -6.4247    0.0000 N   0  0  0  0  0  0  0  0  0  0  0  0
 20  7  1  1  0  0  0
  6  1  2  0  0  0  0
  2  1  1  0  0  0  0
  3  2  2  0  0  0  0
  4  3  1  0  0  0  0
  5  4  2  0  0  0  0
  6  5  1  0  0  0  0
  7  6  1  0  0  0  0
 17 14  1  1  0  0  0
 13  8  2  0  0  0  0
  9  8  1  0  0  0  0
 10  9  2  0  0  0  0
 11 10  1  0  0  0  0
 12 11  2  0  0  0  0
 13 12  1  0  0  0  0
 14 13  1  0  0  0  0
 18 15  2  0  0  0  0
 21 16  2  0  0  0  0
 22 17  1  0  0  0  0
 18 17  1  0  0  0  0
 19 18  1  0  0  0  0
 20 19  1  0  0  0  0
 21 20  1  0  0  0  0
 22 21  1  0  0  0  0
M  END
>  <cdx:fragmentId>
4583

$$$$
