301050.cdx
  Mrv1902 05222410182D          

 18 20  0  0  0  0            999 V2000
    9.0434   -8.1759    0.0000 O   0  0  0  0  0  0  0  0  0  0  0  0
    9.5283   -8.8433    0.0000 C   0  0  0  0  0  0  0  0  0  0  0  0
    9.0434   -9.5108    0.0000 C   0  0  0  0  0  0  0  0  0  0  0  0
    8.2588   -9.2558    0.0000 C   0  0  0  0  0  0  0  0  0  0  0  0
    8.2588   -8.4308    0.0000 C   0  0  0  0  0  0  0  0  0  0  0  0
    7.5443   -8.0183    0.0000 C   0  0  0  0  0  0  0  0  0  0  0  0
    6.8299   -8.4308    0.0000 C   0  0  1  0  0  0  0  0  0  0  0  0
    6.8299   -9.2558    0.0000 C   0  0  0  0  0  0  0  0  0  0  0  0
    7.5443   -9.6683    0.0000 C   0  0  0  0  0  0  0  0  0  0  0  0
    6.1154   -8.0183    0.0000 C   0  0  2  0  0  0  0  0  0  0  0  0
    5.4009   -8.4308    0.0000 C   0  0  0  0  0  0  0  0  0  0  0  0
    5.4009   -9.2558    0.0000 C   0  0  0  0  0  0  0  0  0  0  0  0
    6.1154   -9.6683    0.0000 C   0  0  0  0  0  0  0  0  0  0  0  0
    7.5443  -10.4933    0.0000 O   0  0  0  0  0  0  0  0  0  0  0  0
    6.8299   -7.6058    0.0000 C   0  0  0  0  0  0  0  0  0  0  0  0
    6.1154  -10.4933    0.0000 C   0  0  0  0  0  0  0  0  0  0  0  0
    9.2984  -10.2954    0.0000 C   0  0  0  0  0  0  0  0  0  0  0  0
    6.1154   -7.1933    0.0000 O   0  0  0  0  0  0  0  0  0  0  0  0
  1  2  1  0  0  0  0
  2  3  2  0  0  0  0
  3  4  1  0  0  0  0
  4  5  2  0  0  0  0
  1  5  1  0  0  0  0
  6  7  1  0  0  0  0
  7  8  1  0  0  0  0
  8  9  1  0  0  0  0
  4  9  1  0  0  0  0
  5  6  1  0  0  0  0
 10 11  1  0  0  0  0
 11 12  1  0  0  0  0
 12 13  1  0  0  0  0
  8 13  2  0  0  0  0
  7 10  1  0  0  0  0
  9 14  2  0  0  0  0
  7 15  1  6  0  0  0
 13 16  1  0  0  0  0
  3 17  1  0  0  0  0
 10 18  1  6  0  0  0
M  END
>  <cdx:fragmentId>
3789

$$$$
