301082.cdx
  Mrv1902 05222410202D          

 15 15  0  0  0  0            999 V2000
    5.8369  -16.7487    0.0000 C   0  0  0  0  0  0  0  0  0  0  0  0
    5.4244  -16.0342    0.0000 C   0  0  0  0  0  0  0  0  0  0  0  0
    4.6174  -15.8627    0.0000 C   0  0  0  0  0  0  0  0  0  0  0  0
    4.3625  -15.0781    0.0000 C   0  0  0  0  0  0  0  0  0  0  0  0
    4.9145  -14.4650    0.0000 C   0  0  0  0  0  0  0  0  0  0  0  0
    4.8283  -13.6445    0.0000 C   0  0  0  0  0  0  0  0  0  0  0  0
    5.4957  -13.1596    0.0000 C   0  0  0  0  0  0  0  0  0  0  0  0
    6.2494  -13.4951    0.0000 C   0  0  0  0  0  0  0  0  0  0  0  0
    7.0030  -13.1596    0.0000 C   0  0  0  0  0  0  0  0  0  0  0  0
    7.6705  -13.6445    0.0000 C   0  0  0  0  0  0  0  0  0  0  0  0
    7.5843  -14.4650    0.0000 C   0  0  0  0  0  0  0  0  0  0  0  0
    8.1363  -15.0781    0.0000 C   0  0  0  0  0  0  0  0  0  0  0  0
    7.8813  -15.8627    0.0000 C   0  0  0  0  0  0  0  0  0  0  0  0
    7.0744  -16.0342    0.0000 C   0  0  0  0  0  0  0  0  0  0  0  0
    6.6619  -16.7487    0.0000 C   0  0  0  0  0  0  0  0  0  0  0  0
  1  2  1  0  0  0  0
  2  3  1  0  0  0  0
  3  4  1  0  0  0  0
  4  5  1  0  0  0  0
  5  6  1  0  0  0  0
  6  7  1  0  0  0  0
  7  8  1  0  0  0  0
  8  9  1  0  0  0  0
  9 10  1  0  0  0  0
 10 11  1  0  0  0  0
 11 12  1  0  0  0  0
 12 13  1  0  0  0  0
 13 14  1  0  0  0  0
 14 15  1  0  0  0  0
  1 15  1  0  0  0  0
M  END
>  <cdx:fragmentId>
5922

$$$$
