301078.cdx
  Mrv1902 05222410182D          

 10 10  0  0  0  0            999 V2000
    8.0788   -7.5195    0.0000 C   0  0  0  0  0  0  0  0  0  0  0  0
    8.0768   -6.6945    0.0000 C   0  0  0  0  0  0  0  0  0  0  0  0
    7.3614   -6.2837    0.0000 C   0  0  0  0  0  0  0  0  0  0  0  0
    6.6479   -6.6978    0.0000 C   0  0  0  0  0  0  0  0  0  0  0  0
    6.6498   -7.5228    0.0000 C   0  0  0  0  0  0  0  0  0  0  0  0
    7.3653   -7.9337    0.0000 C   0  0  0  0  0  0  0  0  0  0  0  0
    8.0729   -5.0445    0.0000 C   0  0  0  0  0  0  0  0  0  0  0  0
    7.3594   -5.4587    0.0000 C   0  0  0  0  0  0  0  0  0  0  0  0
    6.6440   -5.0478    0.0000 C   0  0  0  0  0  0  0  0  0  0  0  0
    5.9324   -6.2870    0.0000 C   0  0  0  0  0  0  0  0  0  0  0  0
  1  2  2  0  0  0  0
  2  3  1  0  0  0  0
  3  4  1  0  0  0  0
  4  5  1  0  0  0  0
  5  6  1  0  0  0  0
  1  6  1  0  0  0  0
  7  8  1  0  0  0  0
  8  9  1  0  0  0  0
  3  8  2  0  0  0  0
  4 10  1  0  0  0  0
M  END
>  <cdx:fragmentId>
5614

$$$$
