3010.cdx
  Mrv1902 05222410242D          

 12 12  0  0  0  0            999 V2000
    6.3351   -7.8841    0.0000 C   0  0  0  0  0  0  0  0  0  0  0  0
    6.3484   -8.7090    0.0000 C   0  0  0  0  0  0  0  0  0  0  0  0
    7.0695   -9.1099    0.0000 C   0  0  0  0  0  0  0  0  0  0  0  0
    7.7772   -8.6859    0.0000 C   0  0  0  0  0  0  0  0  0  0  0  0
    7.7638   -7.8610    0.0000 C   0  0  0  0  0  0  0  0  0  0  0  0
    8.4415   -6.8540    0.0000 C   0  0  0  0  0  0  0  0  0  0  0  0
    7.6166   -6.8674    0.0000 C   0  0  0  0  0  0  0  0  0  0  0  0
    6.4500   -6.8863    0.0000 C   0  0  0  0  0  0  0  0  0  0  0  0
    7.0428   -7.4601    0.0000 C   0  0  0  0  0  0  0  0  0  0  0  0
    5.6007   -6.6583    0.0000 C   0  0  0  0  0  0  0  0  0  0  0  0
    4.9063   -7.9072    0.0000 C   0  0  0  0  0  0  0  0  0  0  0  0
    5.6140   -7.4832    0.0000 C   0  0  0  0  0  0  0  0  0  0  0  0
  7  6  2  0  0  0  0
  1  2  1  0  0  0  0
  2  3  1  0  0  0  0
  3  4  1  0  0  0  0
  4  5  1  0  0  0  0
  5  9  1  0  0  0  0
  9  1  1  0  0  0  0
  9  7  1  0  0  0  0
  9  8  1  0  0  0  0
 12 10  2  0  0  0  0
  1 12  1  0  0  0  0
 12 11  1  0  0  0  0
M  END
>  <cdx:fragmentId>
5

$$$$
