301001.cdx
  Mrv1902 05222410252D          

 40 41  0  0  0  0            999 V2000
    1.0847   -5.1015    0.0000 C   0  0  0  0  0  0  0  0  0  0  0  0
    1.7991   -5.5140    0.0000 C   0  0  0  0  0  0  0  0  0  0  0  0
    1.7991   -6.3390    0.0000 C   0  0  0  0  0  0  0  0  0  0  0  0
    1.0847   -6.7515    0.0000 C   0  0  0  0  0  0  0  0  0  0  0  0
    0.3702   -6.3390    0.0000 C   0  0  0  0  0  0  0  0  0  0  0  0
    0.3702   -5.5140    0.0000 C   0  0  0  0  0  0  0  0  0  0  0  0
    2.5136   -5.1015    0.0000 C   0  0  0  0  0  0  0  0  0  0  0  0
    2.6241   -6.3390    0.0000 C   0  0  0  0  0  0  0  0  0  0  0  0
    2.2116   -7.0535    0.0000 C   0  0  0  0  0  0  0  0  0  0  0  0
    1.0847   -4.2765    0.0000 C   0  0  0  0  0  0  0  0  0  0  0  0
    3.2281   -5.5140    0.0000 C   0  0  0  0  0  0  0  0  0  0  0  0
    3.2281   -6.3390    0.0000 C   0  0  0  0  0  0  0  0  0  0  0  0
    3.9425   -6.7515    0.0000 C   0  0  0  0  0  0  0  0  0  0  0  0
    4.6570   -6.3390    0.0000 C   0  0  0  0  0  0  0  0  0  0  0  0
    5.3715   -6.7515    0.0000 C   0  0  0  0  0  0  0  0  0  0  0  0
    5.3715   -7.5765    0.0000 C   0  0  0  0  0  0  0  0  0  0  0  0
    6.0860   -7.9890    0.0000 C   0  0  0  0  0  0  0  0  0  0  0  0
    6.8004   -7.5765    0.0000 C   0  0  0  0  0  0  0  0  0  0  0  0
    7.5149   -7.9890    0.0000 C   0  0  0  0  0  0  0  0  0  0  0  0
    7.5149   -8.8140    0.0000 C   0  0  0  0  0  0  0  0  0  0  0  0
    8.2294   -9.2265    0.0000 C   0  0  0  0  0  0  0  0  0  0  0  0
    8.9438   -8.8140    0.0000 C   0  0  0  0  0  0  0  0  0  0  0  0
    9.6583   -9.2265    0.0000 C   0  0  0  0  0  0  0  0  0  0  0  0
    9.6583  -10.0515    0.0000 C   0  0  0  0  0  0  0  0  0  0  0  0
   10.3728  -10.4640    0.0000 C   0  0  0  0  0  0  0  0  0  0  0  0
   11.0873  -10.0515    0.0000 C   0  0  0  0  0  0  0  0  0  0  0  0
   11.8017  -10.4640    0.0000 C   0  0  0  0  0  0  0  0  0  0  0  0
   11.8017  -11.2890    0.0000 C   0  0  0  0  0  0  0  0  0  0  0  0
   11.0873  -11.7015    0.0000 C   0  0  0  0  0  0  0  0  0  0  0  0
   11.0873  -12.5265    0.0000 C   0  0  0  0  0  0  0  0  0  0  0  0
   11.8017  -12.9390    0.0000 C   0  0  0  0  0  0  0  0  0  0  0  0
   12.5162  -12.5265    0.0000 C   0  0  0  0  0  0  0  0  0  0  0  0
   12.5162  -11.7015    0.0000 C   0  0  0  0  0  0  0  0  0  0  0  0
   10.3728  -11.2890    0.0000 C   0  0  0  0  0  0  0  0  0  0  0  0
   10.3728  -12.1140    0.0000 C   0  0  0  0  0  0  0  0  0  0  0  0
   13.2307  -11.2890    0.0000 C   0  0  0  0  0  0  0  0  0  0  0  0
    2.5136   -6.7515    0.0000 C   0  0  0  0  0  0  0  0  0  0  0  0
    4.6570   -7.9890    0.0000 C   0  0  0  0  0  0  0  0  0  0  0  0
    8.2294  -10.0515    0.0000 C   0  0  0  0  0  0  0  0  0  0  0  0
   10.1593  -11.2609    0.0000 C   0  0  0  0  0  0  0  0  0  0  0  0
  1  2  2  0  0  0  0
  2  3  1  0  0  0  0
  3  4  1  0  0  0  0
  4  5  1  0  0  0  0
  5  6  1  0  0  0  0
  1  6  1  0  0  0  0
  2  7  1  0  0  0  0
  3  8  1  0  0  0  0
  3  9  1  0  0  0  0
  1 10  1  0  0  0  0
  7 11  2  0  0  0  0
 11 12  1  0  0  0  0
 12 13  2  0  0  0  0
 13 14  1  0  0  0  0
 14 15  2  0  0  0  0
 15 16  1  0  0  0  0
 16 17  2  0  0  0  0
 17 18  1  0  0  0  0
 18 19  2  0  0  0  0
 19 20  1  0  0  0  0
 20 21  2  0  0  0  0
 21 22  1  0  0  0  0
 22 23  2  0  0  0  0
 23 24  1  0  0  0  0
 24 25  2  0  0  0  0
 25 26  1  0  0  0  0
 26 27  2  0  0  0  0
 27 28  1  0  0  0  0
 28 29  1  0  0  0  0
 29 30  1  0  0  0  0
 30 31  1  0  0  0  0
 31 32  1  0  0  0  0
 32 33  1  0  0  0  0
 33 28  2  0  0  0  0
 29 34  1  0  0  0  0
 29 35  1  0  0  0  0
 33 36  1  0  0  0  0
 12 37  1  0  0  0  0
 16 38  1  0  0  0  0
 21 39  1  0  0  0  0
 25 40  1  0  0  0  0
M  END
>  <cdx:fragmentId>
125

$$$$
