301070.cdx
  Mrv1902 05222410262D          

 11 11  0  0  0  0            999 V2000
    5.2972   -7.7673    0.0000 C   0  0  0  0  0  0  0  0  0  0  0  0
    6.0954   -7.9759    0.0000 C   0  0  0  0  0  0  0  0  0  0  0  0
    6.3139   -8.7714    0.0000 C   0  0  2  0  0  0  0  0  0  0  0  0
    7.1389   -8.7662    0.0000 C   0  0  2  0  0  0  0  0  0  0  0  0
    7.1440   -9.5912    0.0000 C   0  0  0  0  0  0  0  0  0  0  0  0
    6.3191   -9.5964    0.0000 C   0  0  0  0  0  0  0  0  0  0  0  0
    7.5001   -7.3837    0.0000 C   0  0  0  0  0  0  0  0  0  0  0  0
    7.7186   -8.1792    0.0000 C   0  0  0  0  0  0  0  0  0  0  0  0
    8.5168   -8.3877    0.0000 C   0  0  0  0  0  0  0  0  0  0  0  0
    5.5157   -8.5629    0.0000 C   0  0  0  0  0  0  0  0  0  0  0  0
    5.0786   -6.9718    0.0000 O   0  0  0  0  0  0  0  0  0  0  0  0
  1  2  1  0  0  0  0
  3  4  1  0  0  0  0
  4  5  1  0  0  0  0
  5  6  1  0  0  0  0
  3  6  1  0  0  0  0
  7  8  2  0  0  0  0
  8  9  1  0  0  0  0
  4  8  1  1  0  0  0
  3 10  1  0  0  0  0
  3  2  1  6  0  0  0
  1 11  1  0  0  0  0
M  END
>  <cdx:fragmentId>
9

$$$$
