301094.cdx
  Mrv1902 05222410202D          

  4  3  0  0  0  0            999 V2000
    3.9988   -5.4863    0.0000 C   0  0  0  0  0  0  0  0  0  0  0  0
    4.7132   -5.0737    0.0000 C   0  0  0  0  0  0  0  0  0  0  0  0
    5.4277   -5.4863    0.0000 N   0  0  0  0  0  0  0  0  0  0  0  0
    4.7132   -4.2488    0.0000 O   0  0  0  0  0  0  0  0  0  0  0  0
  1  2  1  0  0  0  0
  2  3  1  0  0  0  0
  2  4  2  0  0  0  0
M  END
>  <cdx:fragmentId>
1556

$$$$
