301071.cdx
  Mrv1902 05222410262D          

 58 64  0  0  0  0            999 V2000
    5.8971  -15.0324    0.0000 O   0  0  0  0  0  0  0  0  0  0  0  0
    6.7200  -14.9736    0.0000 C   0  0  2  0  0  0  0  0  0  0  0  0
    7.1824  -15.6569    0.0000 C   0  0  1  0  0  0  0  0  0  0  0  0
    6.8219  -16.3989    0.0000 C   0  0  2  0  0  0  0  0  0  0  0  0
    5.9990  -16.4578    0.0000 C   0  0  1  0  0  0  0  0  0  0  0  0
    5.5366  -15.7745    0.0000 C   0  0  1  0  0  0  0  0  0  0  0  0
    8.0053  -15.5980    0.0000 O   0  0  0  0  0  0  0  0  0  0  0  0
    7.2843  -17.0822    0.0000 O   0  0  0  0  0  0  0  0  0  0  0  0
    5.6385  -17.1998    0.0000 O   0  0  0  0  0  0  0  0  0  0  0  0
    4.7137  -15.8333    0.0000 C   0  0  0  0  0  0  0  0  0  0  0  0
    4.3532  -16.5754    0.0000 O   0  0  0  0  0  0  0  0  0  0  0  0
    7.0805  -14.2316    0.0000 O   0  0  0  0  0  0  0  0  0  0  0  0
    7.0805  -11.7566    0.0000 C   0  0  2  0  0  0  0  0  0  0  0  0
    6.3661  -11.3441    0.0000 C   0  0  0  0  0  0  0  0  0  0  0  0
    6.3661  -12.1691    0.0000 C   0  0  1  0  0  0  0  0  0  0  0  0
    5.6516  -11.7566    0.0000 C   0  0  0  0  0  0  0  0  0  0  0  0
    4.9371  -12.1691    0.0000 C   0  0  0  0  0  0  0  0  0  0  0  0
    4.9371  -12.9941    0.0000 C   0  0  1  0  0  0  0  0  0  0  0  0
    5.6516  -13.4066    0.0000 C   0  0  0  0  0  0  0  0  0  0  0  0
    6.3661  -12.9941    0.0000 C   0  0  2  0  0  0  0  0  0  0  0  0
    7.0805  -13.4066    0.0000 C   0  0  2  0  0  0  0  0  0  0  0  0
    7.7950  -12.9941    0.0000 C   0  0  0  0  0  0  0  0  0  0  0  0
    7.7950  -12.1691    0.0000 C   0  0  1  0  0  0  0  0  0  0  0  0
    8.5095  -11.7566    0.0000 C   0  0  2  0  0  0  0  0  0  0  0  0
    9.2941  -12.0115    0.0000 C   0  0  0  0  0  0  0  0  0  0  0  0
    9.7790  -11.3441    0.0000 C   0  0  1  0  0  0  0  0  0  0  0  0
    9.2941  -10.6766    0.0000 C   0  0  1  0  0  0  0  0  0  0  0  0
    8.5095  -10.9316    0.0000 C   0  0  1  0  0  0  0  0  0  0  0  0
    7.7950  -10.5191    0.0000 C   0  0  0  0  0  0  0  0  0  0  0  0
    7.0805  -10.9316    0.0000 C   0  0  0  0  0  0  0  0  0  0  0  0
    4.2226  -13.4066    0.0000 O   0  0  0  0  0  0  0  0  0  0  0  0
    3.5082  -12.1691    0.0000 O   0  0  0  0  0  0  0  0  0  0  0  0
    3.5082  -12.9941    0.0000 C   0  0  2  0  0  0  0  0  0  0  0  0
    2.7937  -13.4066    0.0000 C   0  0  1  0  0  0  0  0  0  0  0  0
    2.0792  -12.9941    0.0000 C   0  0  2  0  0  0  0  0  0  0  0  0
    2.0792  -12.1691    0.0000 C   0  0  1  0  0  0  0  0  0  0  0  0
    2.7937  -11.7566    0.0000 C   0  0  0  0  0  0  0  0  0  0  0  0
    1.3648  -11.7566    0.0000 O   0  0  0  0  0  0  0  0  0  0  0  0
    1.3648  -13.4066    0.0000 O   0  0  0  0  0  0  0  0  0  0  0  0
    2.7937  -14.2316    0.0000 O   0  0  0  0  0  0  0  0  0  0  0  0
    8.5957  -10.1111    0.0000 C   0  0  0  0  0  0  0  0  0  0  0  0
    8.5095  -12.5816    0.0000 C   0  0  0  0  0  0  0  0  0  0  0  0
    6.0641  -14.1210    0.0000 C   0  0  0  0  0  0  0  0  0  0  0  0
    5.2391  -14.1210    0.0000 C   0  0  0  0  0  0  0  0  0  0  0  0
   10.6040  -11.3441    0.0000 O   0  0  0  0  0  0  0  0  0  0  0  0
    8.9970   -9.2789    0.0000 C   0  0  0  0  0  0  0  0  0  0  0  0
    9.5490   -9.8920    0.0000 C   0  0  2  0  0  0  0  0  0  0  0  0
   10.3560   -9.7205    0.0000 C   0  0  0  0  0  0  0  0  0  0  0  0
   10.6109   -8.9358    0.0000 C   0  0  0  0  0  0  0  0  0  0  0  0
   11.4179   -8.7643    0.0000 C   0  0  1  0  0  0  0  0  0  0  0  0
   11.6729   -7.9797    0.0000 C   0  0  0  0  0  0  0  0  0  0  0  0
   11.1208   -7.3666    0.0000 C   0  0  0  0  0  0  0  0  0  0  0  0
   12.4798   -7.8082    0.0000 C   0  0  0  0  0  0  0  0  0  0  0  0
   11.9278   -7.1951    0.0000 O   0  0  0  0  0  0  0  0  0  0  0  0
   11.9700   -9.3774    0.0000 O   0  0  0  0  0  0  0  0  0  0  0  0
    6.3661  -13.8191    0.0000 H   0  0  0  0  0  0  0  0  0  0  0  0
    7.7950  -11.3441    0.0000 H   0  0  0  0  0  0  0  0  0  0  0  0
   10.0787  -10.4217    0.0000 H   0  0  0  0  0  0  0  0  0  0  0  0
  1  2  1  0  0  0  0
  2  3  1  0  0  0  0
  3  4  1  0  0  0  0
  4  5  1  0  0  0  0
  5  6  1  0  0  0  0
  1  6  1  0  0  0  0
  3  7  1  6  0  0  0
  4  8  1  1  0  0  0
  5  9  1  6  0  0  0
 10 11  1  0  0  0  0
  6 10  1  1  0  0  0
 13 14  1  1  0  0  0
 15 14  1  1  0  0  0
 15 16  1  0  0  0  0
 16 17  1  0  0  0  0
 17 18  1  0  0  0  0
 18 19  1  0  0  0  0
 19 20  1  0  0  0  0
 20 21  1  0  0  0  0
 21 22  1  0  0  0  0
 22 23  1  0  0  0  0
 23 24  1  0  0  0  0
 24 25  1  0  0  0  0
 25 26  1  0  0  0  0
 26 27  1  0  0  0  0
 27 28  1  0  0  0  0
 28 29  1  0  0  0  0
 29 30  1  0  0  0  0
 13 30  1  0  0  0  0
 13 23  1  0  0  0  0
 13 15  1  0  0  0  0
 15 20  1  0  0  0  0
 24 28  1  0  0  0  0
 32 33  1  0  0  0  0
 33 34  1  0  0  0  0
 34 35  1  0  0  0  0
 35 36  1  0  0  0  0
 36 37  1  0  0  0  0
 32 37  1  0  0  0  0
 36 38  1  6  0  0  0
 35 39  1  1  0  0  0
 34 40  1  6  0  0  0
 33 31  1  1  0  0  0
 18 31  1  1  0  0  0
 28 41  1  1  0  0  0
 24 42  1  6  0  0  0
 19 43  1  0  0  0  0
 19 44  1  0  0  0  0
 26 45  1  1  0  0  0
 47 46  1  6  0  0  0
 47 48  1  0  0  0  0
 48 49  1  0  0  0  0
 49 50  1  0  0  0  0
 50 51  1  0  0  0  0
 51 52  1  0  0  0  0
 51 53  1  0  0  0  0
 51 54  1  0  0  0  0
 50 55  1  1  0  0  0
 27 47  1  0  0  0  0
 21 12  1  6  0  0  0
  2 12  1  1  0  0  0
 20 56  1  6  0  0  0
 23 57  1  1  0  0  0
 27 58  1  6  0  0  0
M  END
>  <cdx:fragmentId>
5065

$$$$
