301049.cdx
  Mrv1902 05222410282D          

 44 47  0  0  0  0            999 V2000
   10.3287   -9.2887    0.0000 C   0  0  0  0  0  0  0  0  0  0  0  0
   11.1356   -9.4602    0.0000 C   0  0  0  0  0  0  0  0  0  0  0  0
    9.7766   -9.9018    0.0000 O   0  0  0  0  0  0  0  0  0  0  0  0
   10.0737   -8.5041    0.0000 O   0  0  0  0  0  0  0  0  0  0  0  0
    9.2667   -8.3326    0.0000 C   0  0  0  0  0  0  0  0  0  0  0  0
    7.5127   -6.0555    0.0000 C   0  0  0  0  0  0  0  0  0  0  0  0
    7.9300   -5.3443    0.0000 C   0  0  0  0  0  0  0  0  0  0  0  0
    8.7505   -5.4306    0.0000 O   0  0  0  0  0  0  0  0  0  0  0  0
    9.0118   -6.2131    0.0000 C   0  0  1  0  0  0  0  0  0  0  0  0
    9.4967   -6.8805    0.0000 C   0  0  0  0  0  0  0  0  0  0  0  0
    9.0118   -7.5479    0.0000 C   0  0  0  0  0  0  0  0  0  0  0  0
    8.2272   -7.2930    0.0000 C   0  0  1  0  0  0  0  0  0  0  0  0
    7.5127   -7.7055    0.0000 C   0  0  1  0  0  0  0  0  0  0  0  0
    6.7982   -7.2930    0.0000 O   0  0  0  0  0  0  0  0  0  0  0  0
    6.7982   -6.4680    0.0000 C   0  0  0  0  0  0  0  0  0  0  0  0
    8.2272   -6.4680    0.0000 C   0  0  1  0  0  0  0  0  0  0  0  0
    7.5127   -8.5305    0.0000 O   0  0  0  0  0  0  0  0  0  0  0  0
    6.0838   -8.5305    0.0000 O   0  0  0  0  0  0  0  0  0  0  0  0
    6.7982   -8.9430    0.0000 C   0  0  2  0  0  0  0  0  0  0  0  0
    6.7982   -9.7680    0.0000 C   0  0  1  0  0  0  0  0  0  0  0  0
    6.0838  -10.1805    0.0000 C   0  0  2  0  0  0  0  0  0  0  0  0
    5.3693   -9.7680    0.0000 C   0  0  1  0  0  0  0  0  0  0  0  0
    5.3693   -8.9430    0.0000 C   0  0  1  0  0  0  0  0  0  0  0  0
    4.6548   -8.5305    0.0000 C   0  0  0  0  0  0  0  0  0  0  0  0
    3.9404   -8.9430    0.0000 O   0  0  0  0  0  0  0  0  0  0  0  0
    4.6548  -10.1805    0.0000 O   0  0  0  0  0  0  0  0  0  0  0  0
    6.0838  -11.0055    0.0000 O   0  0  0  0  0  0  0  0  0  0  0  0
    7.5127  -10.1805    0.0000 O   0  0  0  0  0  0  0  0  0  0  0  0
    7.5175   -4.6298    0.0000 O   0  0  0  0  0  0  0  0  0  0  0  0
    9.7263   -5.8006    0.0000 H   0  0  0  0  0  0  0  0  0  0  0  0
    8.3134   -8.1135    0.0000 H   0  0  0  0  0  0  0  0  0  0  0  0
    8.2272   -5.6430    0.0000 H   0  0  0  0  0  0  0  0  0  0  0  0
    3.2259   -8.5305    0.0000 C   0  0  0  0  0  0  0  0  0  0  0  0
    2.5114   -8.9430    0.0000 C   0  0  0  0  0  0  0  0  0  0  0  0
    3.2259   -7.7055    0.0000 O   0  0  0  0  0  0  0  0  0  0  0  0
    4.6548  -11.0055    0.0000 C   0  0  0  0  0  0  0  0  0  0  0  0
    3.9404  -11.4180    0.0000 O   0  0  0  0  0  0  0  0  0  0  0  0
    5.3693  -11.4180    0.0000 C   0  0  0  0  0  0  0  0  0  0  0  0
    6.7982  -11.4180    0.0000 C   0  0  0  0  0  0  0  0  0  0  0  0
    6.7982  -12.2430    0.0000 O   0  0  0  0  0  0  0  0  0  0  0  0
    7.5127  -11.0055    0.0000 C   0  0  0  0  0  0  0  0  0  0  0  0
    8.2272   -9.7680    0.0000 C   0  0  0  0  0  0  0  0  0  0  0  0
    8.9417  -10.1805    0.0000 C   0  0  0  0  0  0  0  0  0  0  0  0
    8.2272   -8.9430    0.0000 O   0  0  0  0  0  0  0  0  0  0  0  0
  1  2  1  0  0  0  0
  1  3  2  0  0  0  0
  1  4  1  0  0  0  0
  6  7  1  0  0  0  0
  7  8  1  0  0  0  0
  8  9  1  0  0  0  0
  9 10  1  0  0  0  0
 10 11  2  0  0  0  0
 11 12  1  0  0  0  0
 12 13  1  0  0  0  0
 13 14  1  0  0  0  0
 14 15  1  0  0  0  0
  6 15  2  0  0  0  0
  6 16  1  0  0  0  0
 16 12  1  0  0  0  0
  9 16  1  0  0  0  0
 18 19  1  0  0  0  0
 19 20  1  0  0  0  0
 20 21  1  0  0  0  0
 21 22  1  0  0  0  0
 22 23  1  0  0  0  0
 18 23  1  0  0  0  0
 24 25  1  0  0  0  0
 23 24  1  1  0  0  0
 22 26  1  6  0  0  0
 21 27  1  1  0  0  0
 20 28  1  6  0  0  0
 19 17  1  1  0  0  0
 13 17  1  6  0  0  0
  7 29  2  0  0  0  0
  5 11  1  0  0  0  0
  4  5  1  0  0  0  0
  9 30  1  6  0  0  0
 12 31  1  6  0  0  0
 16 32  1  6  0  0  0
 25 33  1  0  0  0  0
 33 34  1  0  0  0  0
 33 35  2  0  0  0  0
 26 36  1  0  0  0  0
 36 37  2  0  0  0  0
 36 38  1  0  0  0  0
 27 39  1  0  0  0  0
 39 40  2  0  0  0  0
 39 41  1  0  0  0  0
 28 42  1  0  0  0  0
 42 43  1  0  0  0  0
 42 44  2  0  0  0  0
M  END
>  <cdx:groupId>
30478

>  <cdx:fragmentId>
30419

$$$$
