30107.cdx
  Mrv1902 05222410282D          

 17 18  0  0  0  0            999 V2000
    5.1818   -8.6614    0.0000 C   0  0  0  0  0  0  0  0  0  0  0  0
    5.1818   -9.4864    0.0000 C   0  0  0  0  0  0  0  0  0  0  0  0
    5.8963   -9.8989    0.0000 C   0  0  1  0  0  0  0  0  0  0  0  0
    6.6107   -9.4864    0.0000 C   0  0  2  0  0  0  0  0  0  0  0  0
    6.6107   -8.6614    0.0000 C   0  0  2  0  0  0  0  0  0  0  0  0
    5.8963   -8.2489    0.0000 C   0  0  0  0  0  0  0  0  0  0  0  0
    7.3252   -9.8989    0.0000 C   0  0  0  0  0  0  0  0  0  0  0  0
    8.0397   -9.4864    0.0000 C   0  0  1  0  0  0  0  0  0  0  0  0
    8.0397   -8.6614    0.0000 C   0  0  0  0  0  0  0  0  0  0  0  0
    7.3252   -8.2489    0.0000 C   0  0  0  0  0  0  0  0  0  0  0  0
    8.7542   -9.8989    0.0000 C   0  0  0  0  0  0  0  0  0  0  0  0
    9.4686   -9.4864    0.0000 C   0  0  0  0  0  0  0  0  0  0  0  0
    8.7542  -10.7239    0.0000 C   0  0  0  0  0  0  0  0  0  0  0  0
    6.3088  -10.6134    0.0000 C   0  0  0  0  0  0  0  0  0  0  0  0
    5.4838  -10.6134    0.0000 O   0  0  0  0  0  0  0  0  0  0  0  0
    6.6107   -7.8364    0.0000 C   0  0  0  0  0  0  0  0  0  0  0  0
    6.6107  -10.0089    0.0000 H   0  0  0  0  0  0  0  0  0  0  0  0
  1  2  1  0  0  0  0
  2  3  1  0  0  0  0
  3  4  1  0  0  0  0
  4  5  1  0  0  0  0
  5  6  1  0  0  0  0
  6  1  1  0  0  0  0
  4  7  1  0  0  0  0
  7  8  1  0  0  0  0
  8  9  1  0  0  0  0
  9 10  1  0  0  0  0
 10  5  1  0  0  0  0
  8 11  1  1  0  0  0
 11 12  1  0  0  0  0
 11 13  2  0  0  0  0
  3 14  1  1  0  0  0
  3 15  1  6  0  0  0
  5 16  1  1  0  0  0
  4 17  1  1  0  0  0
M  END
>  <cdx:fragmentId>
5

$$$$
