301068.cdx
  Mrv1902 05222410202D          

 19 20  0  0  0  0            999 V2000
    5.0293  -13.4383    0.0000 N   0  0  0  0  0  0  0  0  0  0  0  0
    5.7437  -13.8508    0.0000 C   0  0  0  0  0  0  0  0  0  0  0  0
    5.7437  -14.6758    0.0000 C   0  0  0  0  0  0  0  0  0  0  0  0
    5.0293  -15.0883    0.0000 N   0  0  0  0  0  0  0  0  0  0  0  0
    4.3148  -14.6758    0.0000 C   0  0  0  0  0  0  0  0  0  0  0  0
    4.3148  -13.8508    0.0000 C   0  0  0  0  0  0  0  0  0  0  0  0
    6.4582  -13.4383    0.0000 O   0  0  0  0  0  0  0  0  0  0  0  0
    3.6003  -15.0883    0.0000 O   0  0  0  0  0  0  0  0  0  0  0  0
    3.6003  -12.6133    0.0000 C   0  0  0  0  0  0  0  0  0  0  0  0
    3.6003  -13.4383    0.0000 C   0  0  0  0  0  0  0  0  0  0  0  0
    2.8858  -13.8508    0.0000 C   0  0  0  0  0  0  0  0  0  0  0  0
    6.4582  -15.0883    0.0000 C   0  0  0  0  0  0  0  0  0  0  0  0
    7.1727  -14.6758    0.0000 C   0  0  0  0  0  0  0  0  0  0  0  0
    7.1727  -13.8508    0.0000 C   0  0  0  0  0  0  0  0  0  0  0  0
    7.8871  -13.4383    0.0000 C   0  0  0  0  0  0  0  0  0  0  0  0
    8.6016  -13.8508    0.0000 C   0  0  0  0  0  0  0  0  0  0  0  0
    8.6016  -14.6758    0.0000 C   0  0  0  0  0  0  0  0  0  0  0  0
    7.8871  -15.0883    0.0000 C   0  0  0  0  0  0  0  0  0  0  0  0
    9.3161  -13.4383    0.0000 O   0  0  0  0  0  0  0  0  0  0  0  0
  1  2  1  0  0  0  0
  2  3  1  0  0  0  0
  3  4  1  0  0  0  0
  4  5  1  0  0  0  0
  5  6  1  0  0  0  0
  1  6  1  0  0  0  0
  2  7  2  0  0  0  0
  5  8  2  0  0  0  0
  9 10  1  0  0  0  0
 10 11  1  0  0  0  0
  6 10  1  0  0  0  0
 13 14  1  0  0  0  0
 14 15  2  0  0  0  0
 15 16  1  0  0  0  0
 16 17  2  0  0  0  0
 17 18  1  0  0  0  0
 13 18  2  0  0  0  0
 16 19  1  0  0  0  0
 12 13  1  0  0  0  0
  3 12  1  0  0  0  0
M  END
>  <cdx:fragmentId>
4893

$$$$
