301040.cdx
  Mrv1902 05222410202D          

 26 25  0  0  0  0            999 V2000
   11.0098  -13.8071    0.0000 C   0  0  0  0  0  0  0  0  0  0  0  0
   10.2953  -14.2196    0.0000 C   0  0  0  0  0  0  0  0  0  0  0  0
    9.5808  -13.8071    0.0000 C   0  0  0  0  0  0  0  0  0  0  0  0
    8.8664  -14.2196    0.0000 C   0  0  0  0  0  0  0  0  0  0  0  0
    8.1519  -13.8071    0.0000 C   0  0  0  0  0  0  0  0  0  0  0  0
    7.4374  -14.2196    0.0000 C   0  0  0  0  0  0  0  0  0  0  0  0
    6.7230  -13.8071    0.0000 C   0  0  0  0  0  0  0  0  0  0  0  0
    6.0085  -14.2196    0.0000 C   0  0  0  0  0  0  0  0  0  0  0  0
    5.2940  -13.8071    0.0000 C   0  0  0  0  0  0  0  0  0  0  0  0
    4.5795  -14.2196    0.0000 C   0  0  0  0  0  0  0  0  0  0  0  0
    3.8651  -13.8071    0.0000 C   0  0  0  0  0  0  0  0  0  0  0  0
    3.1506  -14.2196    0.0000 C   0  0  0  0  0  0  0  0  0  0  0  0
    2.4361  -13.8071    0.0000 C   0  0  0  0  0  0  0  0  0  0  0  0
    1.7217  -14.2196    0.0000 C   0  0  0  0  0  0  0  0  0  0  0  0
    1.0072  -13.8071    0.0000 C   0  0  0  0  0  0  0  0  0  0  0  0
    0.2927  -14.2196    0.0000 C   0  0  0  0  0  0  0  0  0  0  0  0
   11.0098  -12.9821    0.0000 O   0  0  0  0  0  0  0  0  0  0  0  0
   11.7243  -14.2196    0.0000 O   0  0  0  0  0  0  0  0  0  0  0  0
    0.2927  -15.0446    0.0000 O   0  0  0  0  0  0  0  0  0  0  0  0
   -0.4218  -13.8071    0.0000 O   0  0  0  0  0  0  0  0  0  0  0  0
    1.0072  -12.9821    0.0000 C   0  0  0  0  0  0  0  0  0  0  0  0
    3.8651  -12.9821    0.0000 C   0  0  0  0  0  0  0  0  0  0  0  0
    7.4374  -15.0446    0.0000 C   0  0  0  0  0  0  0  0  0  0  0  0
   10.2953  -15.0446    0.0000 C   0  0  0  0  0  0  0  0  0  0  0  0
   12.4387  -13.8071    0.0000 C   0  0  0  0  0  0  0  0  0  0  0  0
   -1.1362  -14.2196    0.0000 C   0  0  0  0  0  0  0  0  0  0  0  0
  1  2  1  0  0  0  0
  2  3  2  0  0  0  0
  3  4  1  0  0  0  0
  4  5  2  0  0  0  0
  5  6  1  0  0  0  0
  6  7  2  0  0  0  0
  7  8  1  0  0  0  0
  8  9  2  0  0  0  0
  9 10  1  0  0  0  0
 10 11  2  0  0  0  0
 11 12  1  0  0  0  0
 12 13  2  0  0  0  0
 13 14  1  0  0  0  0
 14 15  2  0  0  0  0
 15 16  1  0  0  0  0
  1 17  2  0  0  0  0
  1 18  1  0  0  0  0
 16 19  2  0  0  0  0
 16 20  1  0  0  0  0
 15 21  1  0  0  0  0
 11 22  1  0  0  0  0
  6 23  1  0  0  0  0
  2 24  1  0  0  0  0
 18 25  1  0  0  0  0
 20 26  1  0  0  0  0
M  END
>  <cdx:fragmentId>
3001

$$$$
