301080.cdx
  Mrv1902 05222410202D          

 49 56  0  0  0  0            999 V2000
    3.6532   -8.8163    0.0000 O   0  0  0  0  0  0  0  0  0  0  0  0
    3.6532   -9.6413    0.0000 C   0  0  2  0  0  0  0  0  0  0  0  0
    2.9387  -10.0538    0.0000 C   0  0  1  0  0  0  0  0  0  0  0  0
    2.2242   -9.6413    0.0000 C   0  0  2  0  0  0  0  0  0  0  0  0
    2.2242   -8.8163    0.0000 C   0  0  1  0  0  0  0  0  0  0  0  0
    2.9387   -8.4038    0.0000 C   0  0  0  0  0  0  0  0  0  0  0  0
    2.9387  -10.8788    0.0000 O   0  0  0  0  0  0  0  0  0  0  0  0
    1.5098  -10.0538    0.0000 O   0  0  0  0  0  0  0  0  0  0  0  0
    1.5098   -8.4038    0.0000 O   0  0  0  0  0  0  0  0  0  0  0  0
    4.3677  -10.0538    0.0000 O   0  0  0  0  0  0  0  0  0  0  0  0
    9.9240   -7.9913    0.0000 C   0  0  2  0  0  0  0  0  0  0  0  0
    9.4391   -8.6588    0.0000 C   0  0  0  0  0  0  0  0  0  0  0  0
    8.6545   -8.4038    0.0000 C   0  0  1  0  0  0  0  0  0  0  0  0
    7.9400   -8.8163    0.0000 C   0  0  2  0  0  0  0  0  0  0  0  0
    7.9400   -9.6413    0.0000 C   0  0  2  0  0  0  0  0  0  0  0  0
    7.2255  -10.0538    0.0000 C   0  0  0  0  0  0  0  0  0  0  0  0
    6.5111   -9.6413    0.0000 C   0  0  1  0  0  0  0  0  0  0  0  0
    5.7966  -10.0538    0.0000 C   0  0  0  0  0  0  0  0  0  0  0  0
    5.0821   -9.6413    0.0000 C   0  0  2  0  0  0  0  0  0  0  0  0
    5.0821   -8.8163    0.0000 C   0  0  0  0  0  0  0  0  0  0  0  0
    5.7966   -8.4038    0.0000 C   0  0  0  0  0  0  0  0  0  0  0  0
    6.5111   -8.8163    0.0000 C   0  0  1  0  0  0  0  0  0  0  0  0
    6.5111   -7.9913    0.0000 C   0  0  0  0  0  0  0  0  0  0  0  0
    7.2255   -8.4038    0.0000 C   0  0  1  0  0  0  0  0  0  0  0  0
    7.2255   -7.5788    0.0000 C   0  0  0  0  0  0  0  0  0  0  0  0
    7.9400   -7.1663    0.0000 C   0  0  0  0  0  0  0  0  0  0  0  0
    8.6545   -7.5788    0.0000 C   0  0  2  0  0  0  0  0  0  0  0  0
    9.4391   -7.3239    0.0000 C   0  0  1  0  0  0  0  0  0  0  0  0
    9.6586   -6.5286    0.0000 C   0  0  1  0  0  0  0  0  0  0  0  0
   10.4172   -6.2044    0.0000 C   0  0  0  0  0  0  0  0  0  0  0  0
   11.1437   -6.5953    0.0000 C   0  0  2  0  0  0  0  0  0  0  0  0
   11.2910   -7.4070    0.0000 C   0  0  2  0  0  0  0  0  0  0  0  0
   10.7482   -8.0283    0.0000 O   0  0  0  0  0  0  0  0  0  0  0  0
   10.1319   -6.9409    0.0000 O   0  0  0  0  0  0  0  0  0  0  0  0
    9.0373   -5.9858    0.0000 C   0  0  0  0  0  0  0  0  0  0  0  0
    8.5112   -6.7664    0.0000 C   0  0  0  0  0  0  0  0  0  0  0  0
    6.2091  -10.7683    0.0000 C   0  0  0  0  0  0  0  0  0  0  0  0
    5.3841  -10.7683    0.0000 C   0  0  0  0  0  0  0  0  0  0  0  0
    8.6545   -9.2288    0.0000 C   0  0  0  0  0  0  0  0  0  0  0  0
   12.0863   -7.6265    0.0000 C   0  0  0  0  0  0  0  0  0  0  0  0
   12.8815   -7.8460    0.0000 O   0  0  0  0  0  0  0  0  0  0  0  0
    8.6545  -10.0538    0.0000 O   0  0  0  0  0  0  0  0  0  0  0  0
    7.9400   -7.9913    0.0000 H   0  0  0  0  0  0  0  0  0  0  0  0
    6.5111  -10.4663    0.0000 H   0  0  0  0  0  0  0  0  0  0  0  0
    8.9509   -6.6589    0.0000 H   0  0  0  0  0  0  0  0  0  0  0  0
   11.8111   -6.1104    0.0000 H   0  0  0  0  0  0  0  0  0  0  0  0
   11.5045   -8.2039    0.0000 H   0  0  0  0  0  0  0  0  0  0  0  0
   12.3057   -6.8313    0.0000 C   0  0  0  0  0  0  0  0  0  0  0  0
   11.8668   -8.4218    0.0000 C   0  0  0  0  0  0  0  0  0  0  0  0
  1  2  1  0  0  0  0
  2  3  1  0  0  0  0
  3  4  1  0  0  0  0
  4  5  1  0  0  0  0
  5  6  1  0  0  0  0
  1  6  1  0  0  0  0
  3  7  1  6  0  0  0
  4  8  1  1  0  0  0
  5  9  1  6  0  0  0
 11 12  1  1  0  0  0
 12 13  1  0  0  0  0
 13 14  1  0  0  0  0
 14 15  1  0  0  0  0
 15 16  1  0  0  0  0
 16 17  1  0  0  0  0
 17 18  1  0  0  0  0
 18 19  1  0  0  0  0
 19 20  1  0  0  0  0
 20 21  1  0  0  0  0
 21 22  1  0  0  0  0
 22 23  1  1  0  0  0
 24 23  1  1  0  0  0
 24 25  1  0  0  0  0
 25 26  1  0  0  0  0
 26 27  1  0  0  0  0
 27 28  1  0  0  0  0
 28 29  1  0  0  0  0
 29 30  1  0  0  0  0
 30 31  1  0  0  0  0
 31 32  1  0  0  0  0
 32 33  1  0  0  0  0
 11 33  1  0  0  0  0
 11 34  1  0  0  0  0
 31 34  1  0  0  0  0
 11 28  1  0  0  0  0
 13 27  1  0  0  0  0
 22 24  1  0  0  0  0
 14 24  1  0  0  0  0
 17 22  1  0  0  0  0
 29 35  1  6  0  0  0
 27 36  1  1  0  0  0
 18 37  1  0  0  0  0
 18 38  1  0  0  0  0
 13 39  1  6  0  0  0
 40 41  1  0  0  0  0
 32 40  1  0  0  0  0
 15 42  1  1  0  0  0
 19 10  1  1  0  0  0
  2 10  1  1  0  0  0
 14 43  1  1  0  0  0
 17 44  1  6  0  0  0
 28 45  1  6  0  0  0
 31 46  1  1  0  0  0
 32 47  1  6  0  0  0
 40 48  1  0  0  0  0
 40 49  1  0  0  0  0
M  END
>  <cdx:fragmentId>
25

$$$$
