301088.cdx
  Mrv1902 05222410272D          

 12 12  0  0  0  0            999 V2000
    6.9638  -15.1594    0.0000 O   0  0  0  0  0  0  0  0  0  0  0  0
    6.2494  -15.5719    0.0000 Si  0  0  0  0  0  0  0  0  0  0  0  0
    5.5349  -15.1594    0.0000 O   0  0  0  0  0  0  0  0  0  0  0  0
    5.5349  -14.3344    0.0000 Si  0  0  0  0  0  0  0  0  0  0  0  0
    6.2494  -13.9219    0.0000 O   0  0  0  0  0  0  0  0  0  0  0  0
    6.9638  -14.3344    0.0000 Si  0  0  0  0  0  0  0  0  0  0  0  0
    7.7888  -14.3344    0.0000 C   0  0  0  0  0  0  0  0  0  0  0  0
    7.3763  -13.6199    0.0000 C   0  0  0  0  0  0  0  0  0  0  0  0
    5.1224  -13.6199    0.0000 C   0  0  0  0  0  0  0  0  0  0  0  0
    4.7099  -14.3344    0.0000 C   0  0  0  0  0  0  0  0  0  0  0  0
    5.8369  -16.2863    0.0000 C   0  0  0  0  0  0  0  0  0  0  0  0
    6.6619  -16.2863    0.0000 C   0  0  0  0  0  0  0  0  0  0  0  0
  1  2  1  0  0  0  0
  2  3  1  0  0  0  0
  3  4  1  0  0  0  0
  4  5  1  0  0  0  0
  5  6  1  0  0  0  0
  1  6  1  0  0  0  0
  6  7  1  0  0  0  0
  6  8  1  0  0  0  0
  4  9  1  0  0  0  0
  4 10  1  0  0  0  0
  2 11  1  0  0  0  0
  2 12  1  0  0  0  0
M  END
>  <cdx:fragmentId>
6145

$$$$
