301023.cdx
  Mrv1902 05222410232D          

 14 13  0  0  0  0            999 V2000
    3.5078  -13.8071    0.0000 C   0  0  0  0  0  0  0  0  0  0  0  0
    4.2223  -14.2196    0.0000 C   0  0  2  0  0  0  0  0  0  0  0  0
    4.9368  -13.8071    0.0000 C   0  0  0  0  0  0  0  0  0  0  0  0
    5.6512  -14.2196    0.0000 C   0  0  1  0  0  0  0  0  0  0  0  0
    6.3657  -13.8071    0.0000 C   0  0  1  0  0  0  0  0  0  0  0  0
    7.0802  -14.2196    0.0000 C   0  0  1  0  0  0  0  0  0  0  0  0
    7.7947  -13.8071    0.0000 C   0  0  0  0  0  0  0  0  0  0  0  0
    4.9368  -12.9821    0.0000 O   0  0  0  0  0  0  0  0  0  0  0  0
    8.5091  -14.2196    0.0000 O   0  0  0  0  0  0  0  0  0  0  0  0
    7.0802  -15.0446    0.0000 O   0  0  0  0  0  0  0  0  0  0  0  0
    6.3657  -12.9821    0.0000 O   0  0  0  0  0  0  0  0  0  0  0  0
    5.6512  -15.0446    0.0000 O   0  0  0  0  0  0  0  0  0  0  0  0
    4.2223  -15.0446    0.0000 O   0  0  0  0  0  0  0  0  0  0  0  0
    2.7934  -14.2196    0.0000 O   0  0  0  0  0  0  0  0  0  0  0  0
  1  2  1  0  0  0  0
  2  3  1  0  0  0  0
  3  4  1  0  0  0  0
  4  5  1  0  0  0  0
  5  6  1  0  0  0  0
  6  7  1  0  0  0  0
  3  8  2  0  0  0  0
  7  9  1  0  0  0  0
  6 10  1  1  0  0  0
  5 11  1  6  0  0  0
  4 12  1  1  0  0  0
  2 13  1  6  0  0  0
  1 14  1  0  0  0  0
M  END
>  <cdx:fragmentId>
2071

$$$$
