301065.cdx
  Mrv1902 05222410262D          

 19 21  0  0  0  0            999 V2000
    7.7151  -13.6008    0.0000 C   0  0  1  0  0  0  0  0  0  0  0  0
    7.0007  -13.1883    0.0000 C   0  0  0  0  0  0  0  0  0  0  0  0
    7.7151  -14.4258    0.0000 N   0  0  0  0  0  0  0  0  0  0  0  0
    6.2862  -13.6008    0.0000 N   0  0  0  0  0  0  0  0  0  0  0  0
    6.2862  -14.4258    0.0000 C   0  0  2  0  0  0  0  0  0  0  0  0
    7.0007  -14.8383    0.0000 C   0  0  0  0  0  0  0  0  0  0  0  0
    8.4998  -13.3459    0.0000 C   0  0  0  0  0  0  0  0  0  0  0  0
    8.9847  -14.0133    0.0000 C   0  0  0  0  0  0  0  0  0  0  0  0
    8.4998  -14.6808    0.0000 C   0  0  0  0  0  0  0  0  0  0  0  0
    7.0007  -12.3633    0.0000 O   0  0  0  0  0  0  0  0  0  0  0  0
    7.0007  -15.6633    0.0000 O   0  0  0  0  0  0  0  0  0  0  0  0
    5.5717  -14.8383    0.0000 C   0  0  0  0  0  0  0  0  0  0  0  0
    4.8573  -14.4258    0.0000 C   0  0  0  0  0  0  0  0  0  0  0  0
    4.1428  -14.8383    0.0000 C   0  0  0  0  0  0  0  0  0  0  0  0
    3.4283  -14.4258    0.0000 C   0  0  0  0  0  0  0  0  0  0  0  0
    3.4283  -13.6008    0.0000 C   0  0  0  0  0  0  0  0  0  0  0  0
    4.1428  -13.1883    0.0000 C   0  0  0  0  0  0  0  0  0  0  0  0
    4.8573  -13.6008    0.0000 C   0  0  0  0  0  0  0  0  0  0  0  0
    7.8014  -12.7803    0.0000 H   0  0  0  0  0  0  0  0  0  0  0  0
  1  2  1  0  0  0  0
  1  3  1  0  0  0  0
  2  4  1  0  0  0  0
  4  5  1  0  0  0  0
  5  6  1  0  0  0  0
  3  6  1  0  0  0  0
  7  8  1  0  0  0  0
  8  9  1  0  0  0  0
  3  9  1  0  0  0  0
  1  7  1  0  0  0  0
  2 10  2  0  0  0  0
  6 11  2  0  0  0  0
 12 13  1  0  0  0  0
 13 14  1  0  0  0  0
 14 15  2  0  0  0  0
 15 16  1  0  0  0  0
 16 17  2  0  0  0  0
 17 18  1  0  0  0  0
 13 18  2  0  0  0  0
  5 12  1  6  0  0  0
  1 19  1  1  0  0  0
M  END
>  <cdx:fragmentId>
4656

$$$$
