301027.cdx
  Mrv1902 05222410202D          

 23 24  0  0  0  0            999 V2000
    4.9396   -6.8409    0.0000 C   0  0  2  0  0  0  0  0  0  0  0  0
    5.1864   -7.6281    0.0000 C   0  0  2  0  0  0  0  0  0  0  0  0
    6.0114   -7.6366    0.0000 C   0  0  1  0  0  0  0  0  0  0  0  0
    6.2744   -6.8547    0.0000 C   0  0  1  0  0  0  0  0  0  0  0  0
    5.6120   -6.3629    0.0000 O   0  0  0  0  0  0  0  0  0  0  0  0
    4.7739   -8.3426    0.0000 O   0  0  0  0  0  0  0  0  0  0  0  0
    6.4535   -8.3331    0.0000 O   0  0  0  0  0  0  0  0  0  0  0  0
    4.1576   -6.5779    0.0000 C   0  0  0  0  0  0  0  0  0  0  0  0
    3.5389   -7.1236    0.0000 O   0  0  0  0  0  0  0  0  0  0  0  0
    7.0994   -6.8547    0.0000 O   0  0  0  0  0  0  0  0  0  0  0  0
    6.5334   -6.0714    0.0000 C   0  0  0  0  0  0  0  0  0  0  0  0
    5.9845   -5.4554    0.0000 O   0  0  0  0  0  0  0  0  0  0  0  0
    7.7078   -6.2974    0.0000 C   0  0  1  0  0  0  0  0  0  0  0  0
    8.3775   -6.7792    0.0000 C   0  0  2  0  0  0  0  0  0  0  0  0
    9.0426   -6.2911    0.0000 C   0  0  1  0  0  0  0  0  0  0  0  0
    8.7840   -5.5077    0.0000 C   0  0  2  0  0  0  0  0  0  0  0  0
    7.9590   -5.5116    0.0000 O   0  0  0  0  0  0  0  0  0  0  0  0
    6.9933   -5.8849    0.0000 C   0  0  0  0  0  0  0  0  0  0  0  0
    6.9933   -5.0599    0.0000 O   0  0  0  0  0  0  0  0  0  0  0  0
    8.3814   -7.6042    0.0000 O   0  0  0  0  0  0  0  0  0  0  0  0
    9.8285   -6.5423    0.0000 O   0  0  0  0  0  0  0  0  0  0  0  0
    9.2657   -4.8380    0.0000 C   0  0  0  0  0  0  0  0  0  0  0  0
   10.0866   -4.9203    0.0000 O   0  0  0  0  0  0  0  0  0  0  0  0
  1  2  1  0  0  0  0
  2  3  1  0  0  0  0
  3  4  1  0  0  0  0
  4  5  1  0  0  0  0
  5  1  1  0  0  0  0
  2  6  1  6  0  0  0
  3  7  1  1  0  0  0
  1  8  1  1  0  0  0
  8  9  1  0  0  0  0
  4 10  1  1  0  0  0
  4 11  1  0  0  0  0
 11 12  1  0  0  0  0
 13 10  1  6  0  0  0
 13 14  1  0  0  0  0
 14 15  1  0  0  0  0
 15 16  1  0  0  0  0
 16 17  1  0  0  0  0
 17 13  1  0  0  0  0
 13 18  1  0  0  0  0
 18 19  1  0  0  0  0
 14 20  1  6  0  0  0
 15 21  1  1  0  0  0
 16 22  1  6  0  0  0
 22 23  1  0  0  0  0
M  END
>  <cdx:fragmentId>
765

$$$$
