301090.cdx
  Mrv1902 05222410182D          

 29 31  0  0  0  0            999 V2000
    8.8303   -7.8540    0.0000 C   0  0  0  0  0  0  0  0  0  0  0  0
    9.6551   -7.8384    0.0000 C   0  0  0  0  0  0  0  0  0  0  0  0
   10.0540   -7.1162    0.0000 C   0  0  0  0  0  0  0  0  0  0  0  0
    8.4314   -8.5762    0.0000 O   0  0  0  0  0  0  0  0  0  0  0  0
    8.4043   -7.1475    0.0000 O   0  0  0  0  0  0  0  0  0  0  0  0
   10.0811   -8.5449    0.0000 C   0  0  0  0  0  0  0  0  0  0  0  0
   10.9060   -8.5292    0.0000 O   0  0  0  0  0  0  0  0  0  0  0  0
    6.3102   -5.4384    0.0000 O   0  0  0  0  0  0  0  0  0  0  0  0
    6.3998   -6.2585    0.0000 C   0  0  1  0  0  0  0  0  0  0  0  0
    7.2074   -6.4268    0.0000 C   0  0  2  0  0  0  0  0  0  0  0  0
    7.6170   -5.7107    0.0000 C   0  0  0  0  0  0  0  0  0  0  0  0
    7.0625   -5.0998    0.0000 C   0  0  0  0  0  0  0  0  0  0  0  0
    5.0007   -7.8797    0.0000 C   0  0  0  0  0  0  0  0  0  0  0  0
    4.5032   -7.2216    0.0000 C   0  0  1  0  0  0  0  0  0  0  0  0
    4.9753   -6.5451    0.0000 C   0  0  0  0  0  0  0  0  0  0  0  0
    5.7646   -6.7851    0.0000 C   0  0  1  0  0  0  0  0  0  0  0  0
    7.5794   -7.1632    0.0000 C   0  0  2  0  0  0  0  0  0  0  0  0
    7.2357   -7.9132    0.0000 C   0  0  0  0  0  0  0  0  0  0  0  0
    6.4350   -8.1120    0.0000 C   0  0  0  0  0  0  0  0  0  0  0  0
    5.7803   -7.6099    0.0000 C   0  0  2  0  0  0  0  0  0  0  0  0
    7.2308   -4.2922    0.0000 O   0  0  0  0  0  0  0  0  0  0  0  0
    4.7055   -5.7654    0.0000 C   0  0  0  0  0  0  0  0  0  0  0  0
    6.2667   -8.9196    0.0000 C   0  0  0  0  0  0  0  0  0  0  0  0
    8.4372   -5.6212    0.0000 C   0  0  0  0  0  0  0  0  0  0  0  0
    3.6783   -7.2373    0.0000 O   0  0  0  0  0  0  0  0  0  0  0  0
    8.0323   -6.4112    0.0000 H   0  0  0  0  0  0  0  0  0  0  0  0
    5.6484   -8.4243    0.0000 H   0  0  0  0  0  0  0  0  0  0  0  0
    5.7490   -5.9602    0.0000 H   0  0  0  0  0  0  0  0  0  0  0  0
    6.4154   -7.0834    0.0000 H   0  0  0  0  0  0  0  0  0  0  0  0
  1  2  1  0  0  0  0
  2  3  2  0  0  0  0
  1  4  2  0  0  0  0
  1  5  1  0  0  0  0
  6  7  1  0  0  0  0
  2  6  1  0  0  0  0
  8  9  1  0  0  0  0
  9 10  1  0  0  0  0
 10 11  1  0  0  0  0
 11 12  1  0  0  0  0
  8 12  1  0  0  0  0
 13 14  1  0  0  0  0
 14 15  1  0  0  0  0
 15 16  1  0  0  0  0
 17 18  1  0  0  0  0
 18 19  1  0  0  0  0
 19 20  1  0  0  0  0
 13 20  1  0  0  0  0
 16 20  1  0  0  0  0
  9 16  1  0  0  0  0
 10 17  1  0  0  0  0
 12 21  2  0  0  0  0
 15 22  2  0  0  0  0
 19 23  2  0  0  0  0
 11 24  2  0  0  0  0
 14 25  1  6  0  0  0
 17  5  1  1  0  0  0
 10 26  1  1  0  0  0
 20 27  1  1  0  0  0
 16 28  1  1  0  0  0
  9 29  1  6  0  0  0
M  END
>  <cdx:fragmentId>
6214

$$$$
