301085.cdx
  Mrv1902 05222410192D          

 13 14  0  0  0  0            999 V2000
    4.5269  -14.4912    0.0000 C   0  0  0  0  0  0  0  0  0  0  0  0
    3.7019  -14.4912    0.0000 C   0  0  0  0  0  0  0  0  0  0  0  0
    4.1144  -13.7767    0.0000 C   0  0  0  0  0  0  0  0  0  0  0  0
    5.2414  -14.9037    0.0000 C   0  0  0  0  0  0  0  0  0  0  0  0
    5.2414  -15.7287    0.0000 O   0  0  0  0  0  0  0  0  0  0  0  0
    5.9559  -14.4912    0.0000 O   0  0  0  0  0  0  0  0  0  0  0  0
    6.6703  -14.9037    0.0000 C   0  0  0  0  0  0  0  0  0  0  0  0
    7.3848  -14.4912    0.0000 C   0  0  0  0  0  0  0  0  0  0  0  0
    8.0993  -14.9037    0.0000 C   0  0  0  0  0  0  0  0  0  0  0  0
    8.0993  -15.7287    0.0000 C   0  0  0  0  0  0  0  0  0  0  0  0
    7.3848  -16.1412    0.0000 C   0  0  0  0  0  0  0  0  0  0  0  0
    6.6703  -15.7287    0.0000 C   0  0  0  0  0  0  0  0  0  0  0  0
    8.8138  -14.4912    0.0000 C   0  0  0  0  0  0  0  0  0  0  0  0
  1  2  1  0  0  0  0
  2  3  1  0  0  0  0
  1  3  1  0  0  0  0
  4  5  2  0  0  0  0
  4  6  1  0  0  0  0
  1  4  1  0  0  0  0
  7  8  1  0  0  0  0
  8  9  2  0  0  0  0
  9 10  1  0  0  0  0
 10 11  2  0  0  0  0
 11 12  1  0  0  0  0
  7 12  2  0  0  0  0
  9 13  1  0  0  0  0
  6  7  1  0  0  0  0
M  END
>  <cdx:fragmentId>
6052

$$$$
