301007.cdx
  Mrv1902 05222410242D          

 24 25  0  0  0  0            999 V2000
    8.8343   -9.9581    0.0000 O   0  0  0  0  0  0  0  0  0  0  0  0
    8.8331   -9.1331    0.0000 C   0  0  2  0  0  0  0  0  0  0  0  0
    9.5470   -8.7196    0.0000 C   0  0  1  0  0  0  0  0  0  0  0  0
   10.2620   -9.1310    0.0000 C   0  0  2  0  0  0  0  0  0  0  0  0
   10.2632   -9.9560    0.0000 C   0  0  1  0  0  0  0  0  0  0  0  0
    9.5493  -10.3696    0.0000 C   0  0  1  0  0  0  0  0  0  0  0  0
    9.5458   -7.8946    0.0000 O   0  0  0  0  0  0  0  0  0  0  0  0
   10.9759   -8.7175    0.0000 O   0  0  0  0  0  0  0  0  0  0  0  0
   10.9783  -10.3675    0.0000 O   0  0  0  0  0  0  0  0  0  0  0  0
    9.5505  -11.1946    0.0000 C   0  0  0  0  0  0  0  0  0  0  0  0
   10.2656  -11.6060    0.0000 O   0  0  0  0  0  0  0  0  0  0  0  0
    8.1180   -8.7216    0.0000 O   0  0  0  0  0  0  0  0  0  0  0  0
    3.1167   -7.4841    0.0000 O   0  0  0  0  0  0  0  0  0  0  0  0
    2.4023   -8.7216    0.0000 C   0  0  0  0  0  0  0  0  0  0  0  0
    3.1167   -9.1341    0.0000 O   0  0  0  0  0  0  0  0  0  0  0  0
    5.2601   -7.8966    0.0000 C   0  0  0  0  0  0  0  0  0  0  0  0
    4.5457   -7.4841    0.0000 C   0  0  0  0  0  0  0  0  0  0  0  0
    3.8312   -7.8966    0.0000 C   0  0  0  0  0  0  0  0  0  0  0  0
    3.8312   -8.7216    0.0000 C   0  0  0  0  0  0  0  0  0  0  0  0
    4.5457   -9.1341    0.0000 C   0  0  0  0  0  0  0  0  0  0  0  0
    5.2601   -8.7216    0.0000 C   0  0  0  0  0  0  0  0  0  0  0  0
    5.9746   -9.1341    0.0000 C   0  0  0  0  0  0  0  0  0  0  0  0
    6.6891   -8.7216    0.0000 C   0  0  0  0  0  0  0  0  0  0  0  0
    7.4035   -9.1341    0.0000 C   0  0  0  0  0  0  0  0  0  0  0  0
 22 21  1  0  0  0  0
 18 13  1  0  0  0  0
 19 15  1  0  0  0  0
 15 14  1  0  0  0  0
 21 16  2  0  0  0  0
 17 16  1  0  0  0  0
 18 17  2  0  0  0  0
 19 18  1  0  0  0  0
 20 19  2  0  0  0  0
 21 20  1  0  0  0  0
 12 24  1  0  0  0  0
 23 22  2  0  0  0  0
 24 23  1  0  0  0  0
  1  2  1  0  0  0  0
  2  3  1  0  0  0  0
  3  4  1  0  0  0  0
  4  5  1  0  0  0  0
  5  6  1  0  0  0  0
  1  6  1  0  0  0  0
  3  7  1  6  0  0  0
  4  8  1  1  0  0  0
  5  9  1  6  0  0  0
 10 11  1  0  0  0  0
  6 10  1  1  0  0  0
  2 12  1  1  0  0  0
M  END
>  <cdx:fragmentId>
35

$$$$
