301020.cdx
  Mrv1902 05222410222D          

 14 15  0  0  0  0            999 V2000
    4.0980   -8.0850    0.0000 C   0  0  0  0  0  0  0  0  0  0  0  0
    4.0980   -8.9100    0.0000 C   0  0  0  0  0  0  0  0  0  0  0  0
    4.8125   -9.3225    0.0000 C   0  0  0  0  0  0  0  0  0  0  0  0
    5.5270   -8.9100    0.0000 C   0  0  0  0  0  0  0  0  0  0  0  0
    5.5270   -8.0850    0.0000 C   0  0  0  0  0  0  0  0  0  0  0  0
    4.8125   -7.6725    0.0000 C   0  0  0  0  0  0  0  0  0  0  0  0
    6.3520   -8.9100    0.0000 C   0  0  0  0  0  0  0  0  0  0  0  0
    6.3520   -8.0850    0.0000 C   0  0  0  0  0  0  0  0  0  0  0  0
    6.9353   -7.5016    0.0000 C   0  0  0  0  0  0  0  0  0  0  0  0
    7.7322   -7.7152    0.0000 N   0  0  0  0  0  0  0  0  0  0  0  0
    8.3156   -7.1318    0.0000 C   0  0  0  0  0  0  0  0  0  0  0  0
    9.1125   -7.3453    0.0000 C   0  0  0  0  0  0  0  0  0  0  0  0
    9.6958   -6.7620    0.0000 N   0  0  0  0  0  0  0  0  0  0  0  0
    9.3260   -8.1422    0.0000 O   0  0  0  0  0  0  0  0  0  0  0  0
  1  2  2  0  0  0  0
  2  3  1  0  0  0  0
  3  4  2  0  0  0  0
  4  5  1  0  0  0  0
  5  6  2  0  0  0  0
  6  1  1  0  0  0  0
  4  7  1  0  0  0  0
  7  8  1  0  0  0  0
  8  5  1  0  0  0  0
  8  9  1  0  0  0  0
  9 10  1  0  0  0  0
 10 11  1  0  0  0  0
 11 12  1  0  0  0  0
 12 13  1  0  0  0  0
 12 14  2  0  0  0  0
M  END
>  <cdx:fragmentId>
962

$$$$
