301029.cdx
  Mrv1902 05222410252D          

 27 31  0  0  0  0            999 V2000
    8.2677   -7.9148    0.0000 C   0  0  0  0  0  0  0  0  0  0  0  0
    7.5530   -8.3269    0.0000 C   0  0  2  0  0  0  0  0  0  0  0  0
    6.8388   -7.9140    0.0000 C   0  0  0  0  0  0  0  0  0  0  0  0
    6.1241   -8.3261    0.0000 C   0  0  0  0  0  0  0  0  0  0  0  0
    5.4098   -7.9132    0.0000 C   0  0  0  0  0  0  0  0  0  0  0  0
    4.6951   -8.3252    0.0000 C   0  0  0  0  0  0  0  0  0  0  0  0
    3.9106   -8.0698    0.0000 O   0  0  0  0  0  0  0  0  0  0  0  0
    3.4253   -8.7370    0.0000 C   0  0  0  0  0  0  0  0  0  0  0  0
    3.9099   -9.4047    0.0000 O   0  0  0  0  0  0  0  0  0  0  0  0
    4.6946   -9.1502    0.0000 C   0  0  0  0  0  0  0  0  0  0  0  0
    5.4089   -9.5632    0.0000 C   0  0  0  0  0  0  0  0  0  0  0  0
    6.1236   -9.1511    0.0000 C   0  0  0  0  0  0  0  0  0  0  0  0
    6.8378   -9.5640    0.0000 C   0  0  0  0  0  0  0  0  0  0  0  0
    7.5525   -9.1519    0.0000 C   0  0  0  0  0  0  0  0  0  0  0  0
    8.2668   -9.5648    0.0000 N   0  0  0  0  0  0  0  0  0  0  0  0
    8.9815   -9.1527    0.0000 C   0  0  0  0  0  0  0  0  0  0  0  0
    8.9819   -8.3277    0.0000 C   0  0  0  0  0  0  0  0  0  0  0  0
    9.6967   -7.9156    0.0000 C   0  0  0  0  0  0  0  0  0  0  0  0
   10.4811   -8.1710    0.0000 O   0  0  0  0  0  0  0  0  0  0  0  0
   10.9664   -7.5039    0.0000 C   0  0  0  0  0  0  0  0  0  0  0  0
   10.4819   -6.8362    0.0000 O   0  0  0  0  0  0  0  0  0  0  0  0
    9.6971   -7.0906    0.0000 C   0  0  0  0  0  0  0  0  0  0  0  0
    8.9829   -6.6777    0.0000 C   0  0  0  0  0  0  0  0  0  0  0  0
    8.2682   -7.0898    0.0000 C   0  0  0  0  0  0  0  0  0  0  0  0
    6.8392   -7.0890    0.0000 O   0  0  0  0  0  0  0  0  0  0  0  0
    8.2663  -10.3898    0.0000 C   0  0  0  0  0  0  0  0  0  0  0  0
    7.5535   -7.5019    0.0000 C   0  0  0  0  0  0  0  0  0  0  0  0
  1  2  1  0  0  0  0
  2  3  1  0  0  0  0
  3  4  1  0  0  0  0
  4  5  2  0  0  0  0
  5  6  1  0  0  0  0
  6  7  1  0  0  0  0
  7  8  1  0  0  0  0
  8  9  1  0  0  0  0
  9 10  1  0  0  0  0
 10 11  1  0  0  0  0
 11 12  2  0  0  0  0
 12 13  1  0  0  0  0
 13 14  1  0  0  0  0
 14 15  1  0  0  0  0
 15 16  1  0  0  0  0
 16 17  1  0  0  0  0
 17 18  1  0  0  0  0
 18 19  1  0  0  0  0
 19 20  1  0  0  0  0
 20 21  1  0  0  0  0
 21 22  1  0  0  0  0
 22 23  1  0  0  0  0
 23 24  2  0  0  0  0
  1 24  1  0  0  0  0
  1 17  2  0  0  0  0
 18 22  2  0  0  0  0
  4 12  1  0  0  0  0
  6 10  2  0  0  0  0
  3 25  2  0  0  0  0
 15 26  1  0  0  0  0
  2 27  1  1  0  0  0
M  END
>  <cdx:fragmentId>
5

$$$$
