301016.cdx
  Mrv1902 05222410262D          

 19 20  0  0  0  0            999 V2000
    5.2685  -13.6299    0.0000 N   0  0  0  0  0  0  0  0  0  0  0  0
    6.0222  -13.9655    0.0000 C   0  0  1  0  0  0  0  0  0  0  0  0
    5.9359  -14.7860    0.0000 C   0  0  2  0  0  0  0  0  0  0  0  0
    5.1290  -14.9575    0.0000 C   0  0  1  0  0  0  0  0  0  0  0  0
    4.7165  -14.2430    0.0000 C   0  0  1  0  0  0  0  0  0  0  0  0
    6.5490  -15.3380    0.0000 O   0  0  0  0  0  0  0  0  0  0  0  0
    4.7934  -15.7112    0.0000 O   0  0  0  0  0  0  0  0  0  0  0  0
    3.8960  -14.1568    0.0000 C   0  0  0  0  0  0  0  0  0  0  0  0
    5.0970  -12.8229    0.0000 C   0  0  0  0  0  0  0  0  0  0  0  0
    6.7366  -13.5530    0.0000 C   0  0  0  0  0  0  0  0  0  0  0  0
    7.4511  -13.9655    0.0000 C   0  0  0  0  0  0  0  0  0  0  0  0
    8.1656  -13.5530    0.0000 C   0  0  0  0  0  0  0  0  0  0  0  0
    8.1656  -12.7280    0.0000 C   0  0  0  0  0  0  0  0  0  0  0  0
    7.4511  -12.3155    0.0000 C   0  0  0  0  0  0  0  0  0  0  0  0
    6.7366  -12.7280    0.0000 C   0  0  0  0  0  0  0  0  0  0  0  0
    8.8800  -12.3155    0.0000 O   0  0  0  0  0  0  0  0  0  0  0  0
    9.5945  -12.7280    0.0000 C   0  0  0  0  0  0  0  0  0  0  0  0
    8.8800  -13.9655    0.0000 O   0  0  0  0  0  0  0  0  0  0  0  0
    9.5945  -13.5530    0.0000 C   0  0  0  0  0  0  0  0  0  0  0  0
  1  2  1  0  0  0  0
  2  3  1  0  0  0  0
  3  4  1  0  0  0  0
  4  5  1  0  0  0  0
  1  5  1  0  0  0  0
  3  6  1  1  0  0  0
  4  7  1  6  0  0  0
  5  8  1  1  0  0  0
  1  9  1  0  0  0  0
 10 11  1  0  0  0  0
 11 12  2  0  0  0  0
 12 13  1  0  0  0  0
 13 14  2  0  0  0  0
 14 15  1  0  0  0  0
 10 15  2  0  0  0  0
 16 17  1  0  0  0  0
 13 16  1  0  0  0  0
 18 19  1  0  0  0  0
 12 18  1  0  0  0  0
  2 10  1  6  0  0  0
M  END
>  <cdx:fragmentId>
1469

$$$$
