301006.cdx
  Mrv1902 05222410232D          

 23 24  0  0  0  0            999 V2000
    3.3555   -6.2557    0.0000 O   0  0  0  0  0  0  0  0  0  0  0  0
    4.0699   -5.8432    0.0000 C   0  0  0  0  0  0  0  0  0  0  0  0
    7.6423   -4.6057    0.0000 C   0  0  0  0  0  0  0  0  0  0  0  0
    8.3568   -5.0182    0.0000 O   0  0  0  0  0  0  0  0  0  0  0  0
   11.2146   -7.4932    0.0000 C   0  0  0  0  0  0  0  0  0  0  0  0
   10.5002   -7.0807    0.0000 C   0  0  0  0  0  0  0  0  0  0  0  0
    9.7857   -7.4932    0.0000 C   0  0  0  0  0  0  0  0  0  0  0  0
    7.6423   -7.0807    0.0000 C   0  0  0  0  0  0  0  0  0  0  0  0
    8.3568   -7.4932    0.0000 C   0  0  0  0  0  0  0  0  0  0  0  0
    9.0712   -7.0807    0.0000 C   0  0  0  0  0  0  0  0  0  0  0  0
    9.0712   -6.2557    0.0000 C   0  0  0  0  0  0  0  0  0  0  0  0
    8.3568   -5.8432    0.0000 C   0  0  0  0  0  0  0  0  0  0  0  0
    7.6423   -6.2557    0.0000 C   0  0  0  0  0  0  0  0  0  0  0  0
    6.9278   -5.8432    0.0000 O   0  0  0  0  0  0  0  0  0  0  0  0
    6.9278   -7.4932    0.0000 O   0  0  0  0  0  0  0  0  0  0  0  0
    5.4989   -8.3182    0.0000 O   0  0  0  0  0  0  0  0  0  0  0  0
    4.0699   -7.4932    0.0000 O   0  0  0  0  0  0  0  0  0  0  0  0
    6.2133   -6.2557    0.0000 C   0  0  1  0  0  0  0  0  0  0  0  0
    6.2133   -7.0807    0.0000 C   0  0  1  0  0  0  0  0  0  0  0  0
    5.4989   -7.4932    0.0000 C   0  0  2  0  0  0  0  0  0  0  0  0
    4.7844   -7.0807    0.0000 C   0  0  1  0  0  0  0  0  0  0  0  0
    4.7844   -6.2557    0.0000 C   0  0  2  0  0  0  0  0  0  0  0  0
    5.4989   -5.8432    0.0000 O   0  0  0  0  0  0  0  0  0  0  0  0
 22  2  1  1  0  0  0
  2  1  1  0  0  0  0
 18 14  1  1  0  0  0
 12  4  1  0  0  0  0
  4  3  1  0  0  0  0
 10  7  1  0  0  0  0
  6  5  2  0  0  0  0
  7  6  1  0  0  0  0
 14 13  1  0  0  0  0
 13  8  2  0  0  0  0
  9  8  1  0  0  0  0
 10  9  2  0  0  0  0
 11 10  1  0  0  0  0
 12 11  2  0  0  0  0
 13 12  1  0  0  0  0
 19 15  1  6  0  0  0
 20 16  1  1  0  0  0
 21 17  1  6  0  0  0
 23 18  1  0  0  0  0
 19 18  1  0  0  0  0
 20 19  1  0  0  0  0
 21 20  1  0  0  0  0
 22 21  1  0  0  0  0
 23 22  1  0  0  0  0
M  END
>  <cdx:fragmentId>
334

$$$$
