301015.cdx
  Mrv1902 05222410252D          

 29 31  0  0  0  0            999 V2000
    5.0911  -10.4836    0.0000 O   0  0  0  0  0  0  0  0  0  0  0  0
    6.5531   -9.6590    0.0000 C   0  0  0  0  0  0  0  0  0  0  0  0
    5.8056  -10.8960    0.0000 C   0  0  2  0  0  0  0  0  0  0  0  0
    5.8057  -11.7210    0.0000 C   0  0  1  0  0  0  0  0  0  0  0  0
    5.0913  -12.1336    0.0000 C   0  0  2  0  0  0  0  0  0  0  0  0
    4.3768  -11.7212    0.0000 C   0  0  1  0  0  0  0  0  0  0  0  0
    4.3767  -10.8962    0.0000 C   0  0  1  0  0  0  0  0  0  0  0  0
    6.5203  -12.1334    0.0000 O   0  0  0  0  0  0  0  0  0  0  0  0
    5.0914  -12.9586    0.0000 O   0  0  0  0  0  0  0  0  0  0  0  0
    3.6624  -12.1337    0.0000 O   0  0  0  0  0  0  0  0  0  0  0  0
    3.6622  -10.4837    0.0000 C   0  0  0  0  0  0  0  0  0  0  0  0
    2.9477  -10.8963    0.0000 O   0  0  0  0  0  0  0  0  0  0  0  0
    6.5200  -10.4834    0.0000 O   0  0  0  0  0  0  0  0  0  0  0  0
    8.2351  -10.2855    0.0000 O   0  0  0  0  0  0  0  0  0  0  0  0
    9.3507   -8.8795    0.0000 O   0  0  0  0  0  0  0  0  0  0  0  0
   10.0356   -4.9275    0.0000 C   0  0  0  0  0  0  0  0  0  0  0  0
    9.2221   -5.0647    0.0000 O   0  0  0  0  0  0  0  0  0  0  0  0
    7.8327   -6.7481    0.0000 C   0  0  0  0  0  0  0  0  0  0  0  0
    8.1206   -5.9750    0.0000 C   0  0  0  0  0  0  0  0  0  0  0  0
    8.9341   -5.8378    0.0000 C   0  0  0  0  0  0  0  0  0  0  0  0
    9.4597   -6.4737    0.0000 C   0  0  0  0  0  0  0  0  0  0  0  0
    9.1717   -7.2469    0.0000 C   0  0  0  0  0  0  0  0  0  0  0  0
    8.3582   -7.3840    0.0000 C   0  0  0  0  0  0  0  0  0  0  0  0
    6.6292   -7.8658    0.0000 C   0  0  0  0  0  0  0  0  0  0  0  0
    8.0702   -8.1571    0.0000 C   0  0  2  0  0  0  0  0  0  0  0  0
    8.5264   -8.8445    0.0000 C   0  0  2  0  0  0  0  0  0  0  0  0
    8.0136   -9.4908    0.0000 C   0  0  1  0  0  0  0  0  0  0  0  0
    7.2405   -9.2028    0.0000 C   0  0  2  0  0  0  0  0  0  0  0  0
    7.2755   -8.3786    0.0000 N   0  0  0  0  0  0  0  0  0  0  0  0
 13  2  1  0  0  0  0
 28  2  1  1  0  0  0
 27 14  1  6  0  0  0
 26 15  1  1  0  0  0
 25 23  1  6  0  0  0
 20 17  1  0  0  0  0
 17 16  1  0  0  0  0
 23 18  2  0  0  0  0
 19 18  1  0  0  0  0
 20 19  2  0  0  0  0
 21 20  1  0  0  0  0
 22 21  2  0  0  0  0
 23 22  1  0  0  0  0
 29 24  1  0  0  0  0
 29 25  1  0  0  0  0
 26 25  1  0  0  0  0
 27 26  1  0  0  0  0
 28 27  1  0  0  0  0
  1  3  1  0  0  0  0
  3  4  1  0  0  0  0
  4  5  1  0  0  0  0
  5  6  1  0  0  0  0
  6  7  1  0  0  0  0
  1  7  1  0  0  0  0
  4  8  1  6  0  0  0
  5  9  1  1  0  0  0
  6 10  1  6  0  0  0
 11 12  1  0  0  0  0
 29 28  1  0  0  0  0
  7 11  1  1  0  0  0
  3 13  1  1  0  0  0
M  END
>  <cdx:fragmentId>
43

$$$$
