301095.cdx
  Mrv1902 05222410192D          

 12 12  0  0  0  0            999 V2000
    6.1446  -15.9781    0.0000 O   0  0  0  0  0  0  0  0  0  0  0  0
    5.5926  -15.3650    0.0000 C   0  0  0  0  0  0  0  0  0  0  0  0
    6.0051  -14.6505    0.0000 C   0  0  1  0  0  0  0  0  0  0  0  0
    6.8121  -14.8220    0.0000 C   0  0  1  0  0  0  0  0  0  0  0  0
    6.8983  -15.6425    0.0000 C   0  0  1  0  0  0  0  0  0  0  0  0
    4.9252  -15.8499    0.0000 O   0  0  0  0  0  0  0  0  0  0  0  0
    5.6695  -13.8968    0.0000 O   0  0  0  0  0  0  0  0  0  0  0  0
    7.4252  -14.2700    0.0000 O   0  0  0  0  0  0  0  0  0  0  0  0
    7.6128  -16.0550    0.0000 C   0  0  0  0  0  0  0  0  0  0  0  0
    8.3273  -15.6425    0.0000 O   0  0  0  0  0  0  0  0  0  0  0  0
    4.8389  -15.0294    0.0000 C   0  0  0  0  0  0  0  0  0  0  0  0
    4.1715  -15.5143    0.0000 O   0  0  0  0  0  0  0  0  0  0  0  0
  1  2  1  0  0  0  0
  2  3  1  0  0  0  0
  3  4  1  0  0  0  0
  4  5  1  0  0  0  0
  1  5  1  0  0  0  0
  2  6  1  0  0  0  0
  3  7  1  6  0  0  0
  4  8  1  6  0  0  0
  9 10  1  0  0  0  0
  5  9  1  1  0  0  0
 11 12  1  0  0  0  0
  2 11  1  0  0  0  0
M  END
>  <cdx:fragmentId>
6385

$$$$
