301077.cdx
  Mrv1902 05222410272D          

 11 11  0  0  0  0            999 V2000
    9.5787   -5.9411    0.0000 C   0  0  0  0  0  0  0  0  0  0  0  0
    8.8643   -7.1786    0.0000 C   0  0  0  0  0  0  0  0  0  0  0  0
    8.8643   -6.3536    0.0000 C   0  0  0  0  0  0  0  0  0  0  0  0
    8.1498   -5.9411    0.0000 C   0  0  0  0  0  0  0  0  0  0  0  0
    7.4353   -6.3536    0.0000 C   0  0  0  0  0  0  0  0  0  0  0  0
    5.2919   -5.1161    0.0000 C   0  0  0  0  0  0  0  0  0  0  0  0
    6.0064   -4.7036    0.0000 C   0  0  0  0  0  0  0  0  0  0  0  0
    6.7208   -5.1161    0.0000 C   0  0  0  0  0  0  0  0  0  0  0  0
    6.7208   -5.9411    0.0000 C   0  0  0  0  0  0  0  0  0  0  0  0
    6.0064   -6.3536    0.0000 C   0  0  0  0  0  0  0  0  0  0  0  0
    5.2919   -5.9411    0.0000 C   0  0  0  0  0  0  0  0  0  0  0  0
  9  5  1  0  0  0  0
  3  1  1  0  0  0  0
  3  2  1  0  0  0  0
  4  3  1  0  0  0  0
  5  4  2  0  0  0  0
 11  6  1  0  0  0  0
  7  6  1  0  0  0  0
  8  7  1  0  0  0  0
  9  8  1  0  0  0  0
 10  9  1  0  0  0  0
 11 10  2  0  0  0  0
M  END
>  <cdx:fragmentId>
5579

$$$$
