301043.cdx
  Mrv1902 05222410202D          

 16 17  0  0  0  0            999 V2000
    4.9505   -7.8375    0.0000 C   0  0  0  0  0  0  0  0  0  0  0  0
    4.9505   -8.6625    0.0000 C   0  0  0  0  0  0  0  0  0  0  0  0
    5.6650   -9.0750    0.0000 C   0  0  1  0  0  0  0  0  0  0  0  0
    6.3795   -8.6625    0.0000 C   0  0  2  0  0  0  0  0  0  0  0  0
    6.3795   -7.8375    0.0000 C   0  0  0  0  0  0  0  0  0  0  0  0
    5.6650   -7.4250    0.0000 C   0  0  1  0  0  0  0  0  0  0  0  0
    7.0939   -9.0750    0.0000 C   0  0  0  0  0  0  0  0  0  0  0  0
    7.8084   -8.6625    0.0000 C   0  0  0  0  0  0  0  0  0  0  0  0
    7.8084   -7.8375    0.0000 C   0  0  0  0  0  0  0  0  0  0  0  0
    7.0939   -7.4250    0.0000 C   0  0  0  0  0  0  0  0  0  0  0  0
    8.5229   -9.0750    0.0000 C   0  0  0  0  0  0  0  0  0  0  0  0
    6.3795   -9.4875    0.0000 H   0  0  0  0  0  0  0  0  0  0  0  0
    5.6650   -9.9000    0.0000 C   0  0  0  0  0  0  0  0  0  0  0  0
    6.3795  -10.3125    0.0000 C   0  0  0  0  0  0  0  0  0  0  0  0
    4.9505  -10.3125    0.0000 C   0  0  0  0  0  0  0  0  0  0  0  0
    5.6650   -6.6000    0.0000 C   0  0  0  0  0  0  0  0  0  0  0  0
  1  2  1  0  0  0  0
  2  3  1  0  0  0  0
  3  4  1  0  0  0  0
  4  5  1  0  0  0  0
  5  6  1  0  0  0  0
  6  1  1  0  0  0  0
  4  7  1  0  0  0  0
  7  8  2  0  0  0  0
  8  9  1  0  0  0  0
  9 10  1  0  0  0  0
 10  5  2  0  0  0  0
  8 11  1  0  0  0  0
  4 12  1  1  0  0  0
  3 13  1  1  0  0  0
 13 14  1  0  0  0  0
 13 15  1  0  0  0  0
  6 16  1  6  0  0  0
M  END
>  <cdx:fragmentId>
3326

$$$$
