301051.cdx
  Mrv1902 05222410182D          

 18 18  0  0  0  0            999 V2000
    6.5068   -6.4977    0.0000 C   0  0  0  0  0  0  0  0  0  0  0  0
    5.7923   -6.9102    0.0000 C   0  0  0  0  0  0  0  0  0  0  0  0
    5.0778   -6.4977    0.0000 C   0  0  0  0  0  0  0  0  0  0  0  0
    4.3634   -6.9102    0.0000 C   0  0  0  0  0  0  0  0  0  0  0  0
    5.0778   -5.6727    0.0000 O   0  0  0  0  0  0  0  0  0  0  0  0
    9.4052   -9.6001    0.0000 O   0  0  0  0  0  0  0  0  0  0  0  0
    8.5802   -9.6001    0.0000 C   0  0  0  0  0  0  0  0  0  0  0  0
    8.9927   -8.8856    0.0000 C   0  0  0  0  0  0  0  0  0  0  0  0
    9.8177   -8.8856    0.0000 C   0  0  0  0  0  0  0  0  0  0  0  0
    7.7799   -5.6297    0.0000 C   0  0  0  0  0  0  0  0  0  0  0  0
    9.8177   -7.4567    0.0000 O   0  0  0  0  0  0  0  0  0  0  0  0
    8.6912   -6.6887    0.0000 C   0  0  0  0  0  0  0  0  0  0  0  0
    7.9029   -6.4455    0.0000 C   0  0  0  0  0  0  0  0  0  0  0  0
    7.2213   -6.9102    0.0000 C   0  0  0  0  0  0  0  0  0  0  0  0
    7.1596   -7.7329    0.0000 C   0  0  0  0  0  0  0  0  0  0  0  0
    7.7644   -8.2941    0.0000 C   0  0  0  0  0  0  0  0  0  0  0  0
    8.5802   -8.1711    0.0000 C   0  0  0  0  0  0  0  0  0  0  0  0
    8.9927   -7.4567    0.0000 C   0  0  0  0  0  0  0  0  0  0  0  0
 17  8  1  0  0  0  0
  8  6  1  0  0  0  0
  8  7  1  0  0  0  0
  9  8  1  0  0  0  0
 13 10  1  0  0  0  0
 18 11  2  0  0  0  0
 18 12  1  0  0  0  0
 13 12  2  0  0  0  0
 14 13  1  0  0  0  0
 15 14  2  0  0  0  0
 16 15  1  0  0  0  0
 17 16  2  0  0  0  0
 18 17  1  0  0  0  0
  1  2  1  0  0  0  0
  2  3  1  0  0  0  0
  3  4  1  0  0  0  0
  3  5  2  0  0  0  0
 14  1  1  0  0  0  0
M  END
>  <cdx:fragmentId>
3846

$$$$
