301067.cdx
  Mrv1902 05222410272D          

 20 21  0  0  0  0            999 V2000
    5.3865  -15.0883    0.0000 N   0  0  0  0  0  0  0  0  0  0  0  0
    4.6720  -14.6758    0.0000 C   0  0  0  0  0  0  0  0  0  0  0  0
    4.6720  -13.8508    0.0000 C   0  0  1  0  0  0  0  0  0  0  0  0
    5.3865  -13.4383    0.0000 N   0  0  0  0  0  0  0  0  0  0  0  0
    6.1010  -13.8508    0.0000 C   0  0  0  0  0  0  0  0  0  0  0  0
    6.1010  -14.6758    0.0000 C   0  0  2  0  0  0  0  0  0  0  0  0
    3.9575  -15.0883    0.0000 O   0  0  0  0  0  0  0  0  0  0  0  0
    6.8154  -13.4383    0.0000 O   0  0  0  0  0  0  0  0  0  0  0  0
    6.8154  -15.0883    0.0000 C   0  0  0  0  0  0  0  0  0  0  0  0
    7.5299  -14.6758    0.0000 C   0  0  0  0  0  0  0  0  0  0  0  0
    7.5299  -13.8508    0.0000 C   0  0  0  0  0  0  0  0  0  0  0  0
    8.2444  -13.4383    0.0000 C   0  0  0  0  0  0  0  0  0  0  0  0
    8.9588  -13.8508    0.0000 C   0  0  0  0  0  0  0  0  0  0  0  0
    8.9588  -14.6758    0.0000 C   0  0  0  0  0  0  0  0  0  0  0  0
    8.2444  -15.0883    0.0000 C   0  0  0  0  0  0  0  0  0  0  0  0
    9.6733  -13.4383    0.0000 O   0  0  0  0  0  0  0  0  0  0  0  0
    3.9575  -12.6133    0.0000 C   0  0  0  0  0  0  0  0  0  0  0  0
    3.9575  -13.4383    0.0000 C   0  0  1  0  0  0  0  0  0  0  0  0
    3.2431  -13.8508    0.0000 C   0  0  0  0  0  0  0  0  0  0  0  0
    2.5286  -13.4383    0.0000 C   0  0  0  0  0  0  0  0  0  0  0  0
  1  2  1  0  0  0  0
  2  3  1  0  0  0  0
  3  4  1  6  0  0  0
  4  5  1  0  0  0  0
  5  6  1  0  0  0  0
  1  6  1  0  0  0  0
  2  7  2  0  0  0  0
  5  8  2  0  0  0  0
 10 11  1  0  0  0  0
 11 12  2  0  0  0  0
 12 13  1  0  0  0  0
 13 14  2  0  0  0  0
 14 15  1  0  0  0  0
 10 15  2  0  0  0  0
 13 16  1  0  0  0  0
  9 10  1  0  0  0  0
  6  9  1  6  0  0  0
 18 17  1  6  0  0  0
 18 19  1  0  0  0  0
 19 20  1  0  0  0  0
  3 18  1  0  0  0  0
M  END
>  <cdx:fragmentId>
4847

$$$$
