301012.cdx
  Mrv1902 05222410232D          

 45 49  0  0  0  0            999 V2000
    6.7061   -5.8451    0.0000 C   0  0  0  0  0  0  0  0  0  0  0  0
    6.7061   -6.6701    0.0000 C   0  0  0  0  0  0  0  0  0  0  0  0
    7.4205   -7.0826    0.0000 C   0  0  0  0  0  0  0  0  0  0  0  0
    8.1350   -6.6701    0.0000 C   0  0  0  0  0  0  0  0  0  0  0  0
    8.1350   -5.8451    0.0000 C   0  0  0  0  0  0  0  0  0  0  0  0
    7.4205   -5.4326    0.0000 C   0  0  0  0  0  0  0  0  0  0  0  0
    8.8495   -7.0826    0.0000 C   0  0  0  0  0  0  0  0  0  0  0  0
    9.5639   -6.6701    0.0000 C   0  0  0  0  0  0  0  0  0  0  0  0
    9.5639   -5.8451    0.0000 C   0  0  0  0  0  0  0  0  0  0  0  0
    8.8495   -5.4326    0.0000 O   0  0  0  0  0  0  0  0  0  0  0  0
    8.8495   -7.9076    0.0000 O   0  0  0  0  0  0  0  0  0  0  0  0
    7.4205   -7.9076    0.0000 O   0  0  0  0  0  0  0  0  0  0  0  0
    5.9916   -5.4326    0.0000 O   0  0  0  0  0  0  0  0  0  0  0  0
   10.2784   -5.4326    0.0000 C   0  0  0  0  0  0  0  0  0  0  0  0
   10.9929   -5.8451    0.0000 C   0  0  0  0  0  0  0  0  0  0  0  0
   11.7074   -5.4326    0.0000 C   0  0  0  0  0  0  0  0  0  0  0  0
   11.7074   -4.6076    0.0000 C   0  0  0  0  0  0  0  0  0  0  0  0
   10.9929   -4.1951    0.0000 C   0  0  0  0  0  0  0  0  0  0  0  0
   10.2784   -4.6076    0.0000 C   0  0  0  0  0  0  0  0  0  0  0  0
   12.4218   -4.1951    0.0000 O   0  0  0  0  0  0  0  0  0  0  0  0
   13.2187   -4.4086    0.0000 C   0  0  0  0  0  0  0  0  0  0  0  0
   10.9929   -3.3701    0.0000 O   0  0  0  0  0  0  0  0  0  0  0  0
   10.7794   -2.5732    0.0000 C   0  0  0  0  0  0  0  0  0  0  0  0
    5.2771   -5.8451    0.0000 C   0  0  2  0  0  0  0  0  0  0  0  0
    4.5626   -5.4326    0.0000 O   0  0  0  0  0  0  0  0  0  0  0  0
    3.8482   -5.8451    0.0000 C   0  0  1  0  0  0  0  0  0  0  0  0
    3.8482   -6.6701    0.0000 C   0  0  2  0  0  0  0  0  0  0  0  0
    4.5626   -7.0826    0.0000 C   0  0  1  0  0  0  0  0  0  0  0  0
    5.2771   -6.6701    0.0000 C   0  0  1  0  0  0  0  0  0  0  0  0
    3.1337   -5.4326    0.0000 C   0  0  0  0  0  0  0  0  0  0  0  0
    4.5626   -7.9076    0.0000 O   0  0  0  0  0  0  0  0  0  0  0  0
    3.1337   -7.0826    0.0000 O   0  0  0  0  0  0  0  0  0  0  0  0
    5.9916   -7.0826    0.0000 O   0  0  0  0  0  0  0  0  0  0  0  0
    2.4192   -5.8451    0.0000 O   0  0  0  0  0  0  0  0  0  0  0  0
    3.1337   -7.9076    0.0000 C   0  0  2  0  0  0  0  0  0  0  0  0
    2.4192   -8.3201    0.0000 O   0  0  0  0  0  0  0  0  0  0  0  0
    2.4192   -9.1451    0.0000 C   0  0  1  0  0  0  0  0  0  0  0  0
    3.1337   -9.5576    0.0000 C   0  0  2  0  0  0  0  0  0  0  0  0
    3.8482   -9.1451    0.0000 C   0  0  1  0  0  0  0  0  0  0  0  0
    3.8482   -8.3201    0.0000 C   0  0  1  0  0  0  0  0  0  0  0  0
    1.7048   -9.5576    0.0000 C   0  0  0  0  0  0  0  0  0  0  0  0
    4.5626   -9.5576    0.0000 O   0  0  0  0  0  0  0  0  0  0  0  0
    4.6732   -8.3201    0.0000 O   0  0  0  0  0  0  0  0  0  0  0  0
    3.1337  -10.3826    0.0000 O   0  0  0  0  0  0  0  0  0  0  0  0
    1.7048  -10.3826    0.0000 O   0  0  0  0  0  0  0  0  0  0  0  0
  1  2  2  0  0  0  0
  2  3  1  0  0  0  0
  3  4  2  0  0  0  0
  4  5  1  0  0  0  0
  5  6  2  0  0  0  0
  6  1  1  0  0  0  0
  4  7  1  0  0  0  0
  7  8  1  0  0  0  0
  8  9  2  0  0  0  0
  9 10  1  0  0  0  0
 10  5  1  0  0  0  0
  7 11  2  0  0  0  0
  3 12  1  0  0  0  0
  1 13  1  0  0  0  0
  9 14  1  0  0  0  0
 14 15  2  0  0  0  0
 15 16  1  0  0  0  0
 16 17  2  0  0  0  0
 17 18  1  0  0  0  0
 18 19  2  0  0  0  0
 19 14  1  0  0  0  0
 17 20  1  0  0  0  0
 20 21  1  0  0  0  0
 18 22  1  0  0  0  0
 22 23  1  0  0  0  0
 24 13  1  1  0  0  0
 24 25  1  0  0  0  0
 25 26  1  0  0  0  0
 26 27  1  0  0  0  0
 27 28  1  0  0  0  0
 28 29  1  0  0  0  0
 29 24  1  0  0  0  0
 26 30  1  1  0  0  0
 28 31  1  1  0  0  0
 27 32  1  6  0  0  0
 29 33  1  6  0  0  0
 30 34  1  0  0  0  0
 35 32  1  1  0  0  0
 35 36  1  0  0  0  0
 36 37  1  0  0  0  0
 37 38  1  0  0  0  0
 38 39  1  0  0  0  0
 39 40  1  0  0  0  0
 40 35  1  0  0  0  0
 37 41  1  1  0  0  0
 39 42  1  1  0  0  0
 40 43  1  6  0  0  0
 38 44  1  6  0  0  0
 41 45  1  0  0  0  0
M  END
>  <cdx:fragmentId>
611

$$$$
