301058.cdx
  Mrv1902 05222410262D          

 49 55  0  0  0  0            999 V2000
    5.5319   -5.9775    0.0000 C   0  0  0  0  0  0  0  0  0  0  0  0
    5.5319   -6.8025    0.0000 C   0  0  0  0  0  0  0  0  0  0  0  0
    6.2464   -7.2150    0.0000 C   0  0  0  0  0  0  0  0  0  0  0  0
    6.9609   -6.8025    0.0000 C   0  0  0  0  0  0  0  0  0  0  0  0
    6.9609   -5.9775    0.0000 C   0  0  0  0  0  0  0  0  0  0  0  0
    6.2464   -5.5650    0.0000 C   0  0  0  0  0  0  0  0  0  0  0  0
    7.6753   -7.2150    0.0000 C   0  0  2  0  0  0  0  0  0  0  0  0
    8.3898   -6.8025    0.0000 N   0  3  0  0  0  0  0  0  0  0  0  0
    8.3898   -5.9775    0.0000 C   0  0  0  0  0  0  0  0  0  0  0  0
    7.6753   -5.5650    0.0000 C   0  0  0  0  0  0  0  0  0  0  0  0
    5.6630   -7.7984    0.0000 O   0  0  0  0  0  0  0  0  0  0  0  0
    8.2587   -7.7984    0.0000 C   0  0  0  0  0  0  0  0  0  0  0  0
    5.6630   -8.6234    0.0000 C   0  0  0  0  0  0  0  0  0  0  0  0
    8.2587   -8.6234    0.0000 C   0  0  0  0  0  0  0  0  0  0  0  0
    4.9486   -9.0359    0.0000 C   0  0  0  0  0  0  0  0  0  0  0  0
    4.9486   -9.8609    0.0000 C   0  0  0  0  0  0  0  0  0  0  0  0
    5.6630  -10.2734    0.0000 C   0  0  0  0  0  0  0  0  0  0  0  0
    6.3775   -9.8609    0.0000 C   0  0  0  0  0  0  0  0  0  0  0  0
    6.3775   -9.0359    0.0000 C   0  0  0  0  0  0  0  0  0  0  0  0
    7.5442   -9.0359    0.0000 C   0  0  0  0  0  0  0  0  0  0  0  0
    7.5442   -9.8609    0.0000 C   0  0  0  0  0  0  0  0  0  0  0  0
    8.2587  -10.2734    0.0000 C   0  0  0  0  0  0  0  0  0  0  0  0
    8.9732   -9.8609    0.0000 C   0  0  0  0  0  0  0  0  0  0  0  0
    8.9732   -9.0359    0.0000 C   0  0  0  0  0  0  0  0  0  0  0  0
    5.6630  -11.0984    0.0000 C   0  0  0  0  0  0  0  0  0  0  0  0
    8.2587  -11.0984    0.0000 O   0  0  0  0  0  0  0  0  0  0  0  0
    6.3775  -11.5109    0.0000 C   0  0  1  0  0  0  0  0  0  0  0  0
    5.6630  -11.9234    0.0000 N   0  0  0  0  0  0  0  0  0  0  0  0
    5.6630  -12.7484    0.0000 C   0  0  0  0  0  0  0  0  0  0  0  0
    6.3775  -13.1609    0.0000 C   0  0  0  0  0  0  0  0  0  0  0  0
    7.0920  -12.7484    0.0000 C   0  0  0  0  0  0  0  0  0  0  0  0
    7.0920  -11.9234    0.0000 C   0  0  0  0  0  0  0  0  0  0  0  0
    7.8065  -13.1609    0.0000 C   0  0  0  0  0  0  0  0  0  0  0  0
    8.5209  -12.7484    0.0000 C   0  0  0  0  0  0  0  0  0  0  0  0
    8.5209  -11.9234    0.0000 C   0  0  0  0  0  0  0  0  0  0  0  0
    7.8065  -11.5109    0.0000 C   0  0  0  0  0  0  0  0  0  0  0  0
    9.2354  -11.5109    0.0000 O   0  0  0  0  0  0  0  0  0  0  0  0
    9.9499  -11.9234    0.0000 C   0  0  0  0  0  0  0  0  0  0  0  0
    9.2354  -13.1609    0.0000 O   0  0  0  0  0  0  0  0  0  0  0  0
    9.2354  -13.9859    0.0000 C   0  0  0  0  0  0  0  0  0  0  0  0
    9.1043   -7.2150    0.0000 C   0  0  0  0  0  0  0  0  0  0  0  0
    4.8175   -5.5650    0.0000 O   0  0  0  0  0  0  0  0  0  0  0  0
    4.8175   -4.7400    0.0000 C   0  0  0  0  0  0  0  0  0  0  0  0
    4.8175   -7.2150    0.0000 O   0  0  0  0  0  0  0  0  0  0  0  0
    4.0206   -7.0015    0.0000 C   0  0  0  0  0  0  0  0  0  0  0  0
    7.0920   -7.7984    0.0000 H   0  0  0  0  0  0  0  0  0  0  0  0
    6.9609  -10.9275    0.0000 H   0  0  0  0  0  0  0  0  0  0  0  0
    4.9486  -11.5109    0.0000 C   0  0  0  0  0  0  0  0  0  0  0  0
    9.2148   -6.8025    0.0000 O   0  5  0  0  0  0  0  0  0  0  0  0
  1  2  2  0  0  0  0
  2  3  1  0  0  0  0
  3  4  2  0  0  0  0
  4  5  1  0  0  0  0
  5  6  2  0  0  0  0
  6  1  1  0  0  0  0
  4  7  1  0  0  0  0
  7  8  1  0  0  0  0
  8  9  1  0  0  0  0
  9 10  1  0  0  0  0
 10  5  1  0  0  0  0
  3 11  1  0  0  0  0
  7 12  1  0  0  0  0
 11 13  1  0  0  0  0
 12 14  1  0  0  0  0
 13 15  2  0  0  0  0
 15 16  1  0  0  0  0
 16 17  2  0  0  0  0
 17 18  1  0  0  0  0
 18 19  2  0  0  0  0
 19 13  1  0  0  0  0
 14 20  2  0  0  0  0
 20 21  1  0  0  0  0
 21 22  2  0  0  0  0
 22 23  1  0  0  0  0
 23 24  2  0  0  0  0
 24 14  1  0  0  0  0
 17 25  1  0  0  0  0
 22 26  1  0  0  0  0
 25 27  1  0  0  0  0
 27 28  1  0  0  0  0
 28 29  1  0  0  0  0
 29 30  1  0  0  0  0
 30 31  1  0  0  0  0
 31 32  1  0  0  0  0
 32 27  1  0  0  0  0
 31 33  2  0  0  0  0
 33 34  1  0  0  0  0
 34 35  2  0  0  0  0
 35 36  1  0  0  0  0
 36 32  2  0  0  0  0
 36 26  1  0  0  0  0
 35 37  1  0  0  0  0
 37 38  1  0  0  0  0
 34 39  1  0  0  0  0
 39 40  1  0  0  0  0
  8 41  1  0  0  0  0
  1 42  1  0  0  0  0
 42 43  1  0  0  0  0
  2 44  1  0  0  0  0
 44 45  1  0  0  0  0
  7 46  1  1  0  0  0
 27 47  1  1  0  0  0
 28 48  1  0  0  0  0
  8 49  1  0  0  0  0
M  CHG  2   8   1  49  -1
M  END
>  <cdx:fragmentId>
3344

$$$$
