301081.cdx
  Mrv1902 05222410192D          

 35 40  0  0  0  0            999 V2000
    6.1600  -10.8219    0.0000 H   0  0  0  0  0  0  0  0  0  0  0  0
    8.4340   -8.2991    0.0000 H   0  0  0  0  0  0  0  0  0  0  0  0
    8.3055  -12.0558    0.0000 H   0  0  0  0  0  0  0  0  0  0  0  0
    8.0181  -12.3311    0.0000 H   0  0  0  0  0  0  0  0  0  0  0  0
   10.4879   -9.6638    0.0000 H   0  0  0  0  0  0  0  0  0  0  0  0
   10.1429  -10.5790    0.0000 C   0  0  0  0  0  0  0  0  0  0  0  0
   10.0077   -6.6678    0.0000 C   0  0  0  0  0  0  0  0  0  0  0  0
    7.6159   -9.1763    0.0000 C   0  0  0  0  0  0  0  0  0  0  0  0
    5.8759  -11.1534    0.0000 C   0  0  0  0  0  0  0  0  0  0  0  0
    3.7862  -13.3046    0.0000 O   0  0  0  0  0  0  0  0  0  0  0  0
    9.6304   -9.9325    0.0000 C   0  0  2  0  0  0  0  0  0  0  0  0
    8.5186   -9.1938    0.0000 O   0  0  0  0  0  0  0  0  0  0  0  0
   10.5912   -8.7711    0.0000 N   0  0  0  0  0  0  0  0  0  0  0  0
   10.6430   -7.9477    0.0000 C   0  0  0  0  0  0  0  0  0  0  0  0
    9.9559   -7.4911    0.0000 C   0  0  2  0  0  0  0  0  0  0  0  0
    9.2169   -7.8580    0.0000 C   0  0  0  0  0  0  0  0  0  0  0  0
    9.1651   -8.6813    0.0000 C   0  0  2  0  0  0  0  0  0  0  0  0
    9.8523   -9.1379    0.0000 C   0  0  2  0  0  0  0  0  0  0  0  0
    5.1448  -11.5962    0.0000 C   0  0  0  0  0  0  0  0  0  0  0  0
    4.4482  -12.0383    0.0000 C   0  0  0  0  0  0  0  0  0  0  0  0
    4.4828  -12.8625    0.0000 C   0  0  1  0  0  0  0  0  0  0  0  0
    5.2139  -13.2448    0.0000 C   0  0  0  0  0  0  0  0  0  0  0  0
    7.5262  -10.6024    0.0000 C   0  0  0  0  0  0  0  0  0  0  0  0
    7.9828   -9.9152    0.0000 C   0  0  0  0  0  0  0  0  0  0  0  0
    8.8061   -9.9670    0.0000 C   0  0  1  0  0  0  0  0  0  0  0  0
    9.1730  -10.7060    0.0000 C   0  0  0  0  0  0  0  0  0  0  0  0
    8.7164  -11.3932    0.0000 C   0  0  0  0  0  0  0  0  0  0  0  0
    7.8930  -11.3414    0.0000 C   0  0  1  0  0  0  0  0  0  0  0  0
    7.3036  -11.9186    0.0000 C   0  0  2  0  0  0  0  0  0  0  0  0
    7.3381  -12.7429    0.0000 C   0  0  0  0  0  0  0  0  0  0  0  0
    6.6416  -13.1849    0.0000 C   0  0  0  0  0  0  0  0  0  0  0  0
    5.9105  -12.8027    0.0000 C   0  0  0  0  0  0  0  0  0  0  0  0
    5.8759  -11.9784    0.0000 C   0  0  2  0  0  0  0  0  0  0  0  0
    6.5725  -11.5364    0.0000 C   0  0  1  0  0  0  0  0  0  0  0  0
    6.7101  -10.7229    0.0000 C   0  0  0  0  0  0  0  0  0  0  0  0
 34  1  1  6  0  0  0
 17  2  1  1  0  0  0
 28  3  1  6  0  0  0
 29  4  1  1  0  0  0
 18  5  1  6  0  0  0
 11  6  1  1  0  0  0
 15  7  1  6  0  0  0
 24  8  1  0  0  0  0
 33  9  1  1  0  0  0
 21 10  1  1  0  0  0
 25 11  1  0  0  0  0
 25 12  1  1  0  0  0
 17 12  1  0  0  0  0
 18 11  1  0  0  0  0
 18 13  1  0  0  0  0
 14 13  1  0  0  0  0
 15 14  1  0  0  0  0
 16 15  1  0  0  0  0
 17 16  1  0  0  0  0
 18 17  1  0  0  0  0
 32 22  1  0  0  0  0
 33 19  1  0  0  0  0
 20 19  1  0  0  0  0
 21 20  1  0  0  0  0
 22 21  1  0  0  0  0
 35 23  1  0  0  0  0
 28 23  1  0  0  0  0
 24 23  2  0  0  0  0
 25 24  1  0  0  0  0
 26 25  1  0  0  0  0
 27 26  1  0  0  0  0
 28 27  1  0  0  0  0
 29 28  1  0  0  0  0
 34 29  1  0  0  0  0
 30 29  1  0  0  0  0
 31 30  1  0  0  0  0
 32 31  2  0  0  0  0
 33 32  1  0  0  0  0
 34 33  1  0  0  0  0
 35 34  1  0  0  0  0
M  END
>  <cdx:fragmentId>
5805

$$$$
