301024.cdx
  Mrv1902 05222410212D          

 21 21  0  0  0  0            999 V2000
   11.9656   -7.8447    0.0000 C   0  0  0  0  0  0  0  0  0  0  0  0
   11.2511   -7.4322    0.0000 C   0  0  0  0  0  0  0  0  0  0  0  0
   10.5367   -7.8447    0.0000 C   0  0  0  0  0  0  0  0  0  0  0  0
    9.8222   -7.4322    0.0000 C   0  0  0  0  0  0  0  0  0  0  0  0
    9.1077   -7.8447    0.0000 C   0  0  0  0  0  0  0  0  0  0  0  0
    8.3932   -7.4322    0.0000 C   0  0  0  0  0  0  0  0  0  0  0  0
    7.6788   -7.8447    0.0000 C   0  0  0  0  0  0  0  0  0  0  0  0
    6.9643   -7.4322    0.0000 C   0  0  0  0  0  0  0  0  0  0  0  0
   11.9656   -8.6697    0.0000 O   0  0  0  0  0  0  0  0  0  0  0  0
   12.6801   -7.4322    0.0000 O   0  0  0  0  0  0  0  0  0  0  0  0
    5.8373   -8.5592    0.0000 O   0  0  0  0  0  0  0  0  0  0  0  0
    6.2498   -7.8447    0.0000 C   0  0  0  0  0  0  0  0  0  0  0  0
    5.4248   -7.8447    0.0000 C   0  0  0  0  0  0  0  0  0  0  0  0
    4.7104   -7.4322    0.0000 C   0  0  0  0  0  0  0  0  0  0  0  0
    3.9959   -7.8447    0.0000 C   0  0  0  0  0  0  0  0  0  0  0  0
    3.2814   -7.4322    0.0000 C   0  0  0  0  0  0  0  0  0  0  0  0
    3.2814   -6.6072    0.0000 C   0  0  0  0  0  0  0  0  0  0  0  0
    2.5669   -6.1947    0.0000 C   0  0  0  0  0  0  0  0  0  0  0  0
    2.5669   -5.3697    0.0000 C   0  0  0  0  0  0  0  0  0  0  0  0
    1.8525   -4.9572    0.0000 C   0  0  0  0  0  0  0  0  0  0  0  0
    1.8525   -4.1322    0.0000 C   0  0  0  0  0  0  0  0  0  0  0  0
  1  2  1  0  0  0  0
  2  3  1  0  0  0  0
  3  4  1  0  0  0  0
  4  5  1  0  0  0  0
  5  6  1  0  0  0  0
  6  7  1  0  0  0  0
  7  8  1  0  0  0  0
  1  9  2  0  0  0  0
  1 10  1  0  0  0  0
 11 12  1  0  0  0  0
 12 13  1  0  0  0  0
 11 13  1  0  0  0  0
 14 15  1  0  0  0  0
 15 16  2  0  0  0  0
 16 17  1  0  0  0  0
 17 18  1  0  0  0  0
 18 19  1  0  0  0  0
 19 20  1  0  0  0  0
 20 21  1  0  0  0  0
 13 14  1  0  0  0  0
  8 12  1  0  0  0  0
M  END
>  <cdx:fragmentId>
2141

$$$$
