30106.cdx
  Mrv1902 05222410282D          

  9  8  0  0  0  0            999 V2000
    9.2379   -5.5958    0.0000 N   0  0  0  0  0  0  0  0  0  0  0  0
    9.9614   -5.9924    0.0000 C   0  0  0  0  0  0  0  0  0  0  0  0
    8.5328   -6.0241    0.0000 C   0  0  0  0  0  0  0  0  0  0  0  0
    7.8093   -5.6275    0.0000 C   0  0  0  0  0  0  0  0  0  0  0  0
    7.1042   -6.0557    0.0000 C   0  0  0  0  0  0  0  0  0  0  0  0
    6.3807   -5.6592    0.0000 C   0  0  0  0  0  0  0  0  0  0  0  0
    5.6756   -6.0874    0.0000 C   0  0  0  0  0  0  0  0  0  0  0  0
    4.9521   -5.6909    0.0000 C   0  0  0  0  0  0  0  0  0  0  0  0
    4.2470   -6.1191    0.0000 C   0  0  0  0  0  0  0  0  0  0  0  0
  1  2  1  0  0  0  0
  1  3  2  0  0  0  0
  3  4  1  0  0  0  0
  4  5  1  0  0  0  0
  5  6  1  0  0  0  0
  6  7  1  0  0  0  0
  7  8  1  0  0  0  0
  8  9  1  0  0  0  0
M  END
>  <cdx:fragmentId>
4563

$$$$
