301046.cdx
  Mrv1902 05222410192D          

 49 53  0  0  0  0            999 V2000
   10.3081   -8.8269    0.0000 C   0  0  0  0  0  0  0  0  0  0  0  0
   10.3081   -9.6519    0.0000 C   0  0  0  0  0  0  0  0  0  0  0  0
    9.5936  -10.0644    0.0000 C   0  0  0  0  0  0  0  0  0  0  0  0
    8.8791   -9.6519    0.0000 C   0  0  0  0  0  0  0  0  0  0  0  0
    8.1647  -10.0644    0.0000 C   0  0  0  0  0  0  0  0  0  0  0  0
    7.4502   -9.6519    0.0000 C   0  0  0  0  0  0  0  0  0  0  0  0
    7.4502   -8.8269    0.0000 C   0  0  0  0  0  0  0  0  0  0  0  0
    8.1647   -8.4144    0.0000 C   0  0  0  0  0  0  0  0  0  0  0  0
    8.8791   -8.8269    0.0000 C   0  0  0  0  0  0  0  0  0  0  0  0
    9.5936   -8.4144    0.0000 O   0  0  0  0  0  0  0  0  0  0  0  0
    9.5936  -10.8894    0.0000 O   0  0  0  0  0  0  0  0  0  0  0  0
    8.1647   -7.5894    0.0000 C   0  0  0  0  0  0  0  0  0  0  0  0
    7.4502   -7.1769    0.0000 C   0  0  0  0  0  0  0  0  0  0  0  0
    7.4502   -6.3519    0.0000 C   0  0  0  0  0  0  0  0  0  0  0  0
    8.1647   -5.9394    0.0000 C   0  0  0  0  0  0  0  0  0  0  0  0
    6.7357   -5.9394    0.0000 C   0  0  0  0  0  0  0  0  0  0  0  0
   11.0225   -8.4144    0.0000 C   0  0  0  0  0  0  0  0  0  0  0  0
   11.0225   -7.5894    0.0000 C   0  0  0  0  0  0  0  0  0  0  0  0
   11.7370   -7.1769    0.0000 C   0  0  0  0  0  0  0  0  0  0  0  0
   12.4515   -7.5894    0.0000 C   0  0  0  0  0  0  0  0  0  0  0  0
   12.4515   -8.4144    0.0000 C   0  0  0  0  0  0  0  0  0  0  0  0
   11.7370   -8.8269    0.0000 C   0  0  0  0  0  0  0  0  0  0  0  0
   13.1660   -7.1769    0.0000 O   0  0  0  0  0  0  0  0  0  0  0  0
   13.8804   -7.5894    0.0000 C   0  0  0  0  0  0  0  0  0  0  0  0
    8.1647  -10.8894    0.0000 O   0  0  0  0  0  0  0  0  0  0  0  0
   11.0225  -10.0644    0.0000 O   0  0  0  0  0  0  0  0  0  0  0  0
    6.7357   -8.4144    0.0000 O   0  0  0  0  0  0  0  0  0  0  0  0
    5.3068   -8.4144    0.0000 O   0  0  0  0  0  0  0  0  0  0  0  0
    6.0213   -8.8269    0.0000 C   0  0  2  0  0  0  0  0  0  0  0  0
    6.0213   -9.6519    0.0000 C   0  0  1  0  0  0  0  0  0  0  0  0
    5.3068  -10.0644    0.0000 C   0  0  2  0  0  0  0  0  0  0  0  0
    4.5923   -9.6519    0.0000 C   0  0  1  0  0  0  0  0  0  0  0  0
    4.5923   -8.8269    0.0000 C   0  0  1  0  0  0  0  0  0  0  0  0
    3.8778   -8.4144    0.0000 C   0  0  0  0  0  0  0  0  0  0  0  0
    3.8778   -7.5894    0.0000 O   0  0  0  0  0  0  0  0  0  0  0  0
    5.3068  -10.8894    0.0000 O   0  0  0  0  0  0  0  0  0  0  0  0
    6.7357  -10.0644    0.0000 O   0  0  0  0  0  0  0  0  0  0  0  0
    2.4489  -10.8894    0.0000 O   0  0  0  0  0  0  0  0  0  0  0  0
    1.0200  -10.0644    0.0000 O   0  0  0  0  0  0  0  0  0  0  0  0
    1.0200   -8.4144    0.0000 O   0  0  0  0  0  0  0  0  0  0  0  0
    1.7344   -7.1769    0.0000 O   0  0  0  0  0  0  0  0  0  0  0  0
    2.4489   -7.5894    0.0000 C   0  0  0  0  0  0  0  0  0  0  0  0
    2.4489   -8.4144    0.0000 C   0  0  2  0  0  0  0  0  0  0  0  0
    1.7344   -8.8269    0.0000 C   0  0  2  0  0  0  0  0  0  0  0  0
    1.7344   -9.6519    0.0000 C   0  0  1  0  0  0  0  0  0  0  0  0
    2.4489  -10.0644    0.0000 C   0  0  2  0  0  0  0  0  0  0  0  0
    3.1634   -9.6519    0.0000 C   0  0  1  0  0  0  0  0  0  0  0  0
    3.1634   -8.8269    0.0000 O   0  0  0  0  0  0  0  0  0  0  0  0
    3.8778  -10.0644    0.0000 O   0  0  0  0  0  0  0  0  0  0  0  0
 47 49  1  1  0  0  0
 46 38  1  6  0  0  0
 45 39  1  1  0  0  0
 44 40  1  6  0  0  0
 43 42  1  1  0  0  0
 42 41  1  0  0  0  0
 48 43  1  0  0  0  0
 44 43  1  0  0  0  0
 45 44  1  0  0  0  0
 46 45  1  0  0  0  0
 47 46  1  0  0  0  0
 48 47  1  0  0  0  0
  1  2  2  0  0  0  0
  2  3  1  0  0  0  0
  3  4  1  0  0  0  0
  4  5  1  0  0  0  0
  5  6  2  0  0  0  0
  6  7  1  0  0  0  0
  7  8  2  0  0  0  0
  8  9  1  0  0  0  0
  4  9  2  0  0  0  0
  9 10  1  0  0  0  0
  1 10  1  0  0  0  0
  3 11  2  0  0  0  0
 12 13  1  0  0  0  0
 13 14  2  0  0  0  0
 14 15  1  0  0  0  0
 14 16  1  0  0  0  0
  8 12  1  0  0  0  0
 17 18  1  0  0  0  0
 18 19  2  0  0  0  0
 19 20  1  0  0  0  0
 20 21  2  0  0  0  0
 21 22  1  0  0  0  0
 17 22  2  0  0  0  0
 23 24  1  0  0  0  0
 20 23  1  0  0  0  0
  1 17  1  0  0  0  0
  5 25  1  0  0  0  0
  2 26  1  0  0  0  0
 28 29  1  0  0  0  0
 29 30  1  0  0  0  0
 30 31  1  0  0  0  0
 31 32  1  0  0  0  0
 32 33  1  0  0  0  0
 28 33  1  0  0  0  0
 32 49  1  6  0  0  0
 34 35  1  0  0  0  0
 33 34  1  1  0  0  0
 31 36  1  1  0  0  0
 30 37  1  6  0  0  0
 29 27  1  1  0  0  0
  7 27  1  0  0  0  0
M  END
>  <cdx:fragmentId>
3442

$$$$
