301066.cdx
  Mrv1902 05222410262D          

 17 18  0  0  0  0            999 V2000
    4.7223  -13.1897    0.0000 N   0  0  0  0  0  0  0  0  0  0  0  0
    5.4368  -13.6022    0.0000 C   0  0  0  0  0  0  0  0  0  0  0  0
    5.4368  -14.4272    0.0000 C   0  0  0  0  0  0  0  0  0  0  0  0
    4.7223  -14.8397    0.0000 N   0  0  0  0  0  0  0  0  0  0  0  0
    4.0078  -14.4272    0.0000 C   0  0  0  0  0  0  0  0  0  0  0  0
    4.0078  -13.6022    0.0000 C   0  0  0  0  0  0  0  0  0  0  0  0
    6.1512  -13.1897    0.0000 O   0  0  0  0  0  0  0  0  0  0  0  0
    3.2934  -14.8397    0.0000 O   0  0  0  0  0  0  0  0  0  0  0  0
    3.2934  -13.1897    0.0000 C   0  0  0  0  0  0  0  0  0  0  0  0
    6.1512  -14.8397    0.0000 C   0  0  0  0  0  0  0  0  0  0  0  0
    6.8657  -14.4272    0.0000 C   0  0  0  0  0  0  0  0  0  0  0  0
    6.8657  -13.6022    0.0000 C   0  0  0  0  0  0  0  0  0  0  0  0
    7.5802  -13.1897    0.0000 C   0  0  0  0  0  0  0  0  0  0  0  0
    8.2946  -13.6022    0.0000 C   0  0  0  0  0  0  0  0  0  0  0  0
    8.2946  -14.4272    0.0000 C   0  0  0  0  0  0  0  0  0  0  0  0
    7.5802  -14.8397    0.0000 C   0  0  0  0  0  0  0  0  0  0  0  0
    9.0091  -13.1897    0.0000 O   0  0  0  0  0  0  0  0  0  0  0  0
  1  2  1  0  0  0  0
  2  3  1  0  0  0  0
  3  4  1  0  0  0  0
  4  5  1  0  0  0  0
  5  6  1  0  0  0  0
  1  6  1  0  0  0  0
  2  7  2  0  0  0  0
  5  8  2  0  0  0  0
  6  9  1  0  0  0  0
 11 12  1  0  0  0  0
 12 13  2  0  0  0  0
 13 14  1  0  0  0  0
 14 15  2  0  0  0  0
 15 16  1  0  0  0  0
 11 16  2  0  0  0  0
 14 17  1  0  0  0  0
 10 11  1  0  0  0  0
  3 10  1  0  0  0  0
M  END
>  <cdx:fragmentId>
4774

$$$$
