301044.cdx
  Mrv1902 05222410182D          

 42 43  0  0  0  0            999 V2000
   -2.6633  -14.2209    0.0000 C   0  0  0  0  0  0  0  0  0  0  0  0
   -1.9488  -13.8084    0.0000 C   0  0  2  0  0  0  0  0  0  0  0  0
   -1.2344  -14.2209    0.0000 C   0  0  1  0  0  0  0  0  0  0  0  0
   -1.2344  -15.0459    0.0000 C   0  0  0  0  0  0  0  0  0  0  0  0
   -1.9488  -15.4584    0.0000 C   0  0  0  0  0  0  0  0  0  0  0  0
   -2.6633  -15.0459    0.0000 C   0  0  0  0  0  0  0  0  0  0  0  0
   -3.3778  -13.8084    0.0000 O   0  0  0  0  0  0  0  0  0  0  0  0
   -0.4094  -15.0459    0.0000 C   0  0  0  0  0  0  0  0  0  0  0  0
   -0.8219  -15.7604    0.0000 C   0  0  0  0  0  0  0  0  0  0  0  0
   -1.9488  -12.9834    0.0000 C   0  0  0  0  0  0  0  0  0  0  0  0
   -0.5199  -13.8084    0.0000 C   0  0  0  0  0  0  0  0  0  0  0  0
    0.1946  -14.2209    0.0000 C   0  0  0  0  0  0  0  0  0  0  0  0
    0.9090  -13.8084    0.0000 C   0  0  0  0  0  0  0  0  0  0  0  0
    1.6235  -14.2209    0.0000 C   0  0  0  0  0  0  0  0  0  0  0  0
    2.3380  -13.8084    0.0000 C   0  0  0  0  0  0  0  0  0  0  0  0
    3.0525  -14.2209    0.0000 C   0  0  0  0  0  0  0  0  0  0  0  0
    3.7669  -13.8084    0.0000 C   0  0  0  0  0  0  0  0  0  0  0  0
    4.4814  -14.2209    0.0000 C   0  0  0  0  0  0  0  0  0  0  0  0
    5.1959  -13.8084    0.0000 C   0  0  0  0  0  0  0  0  0  0  0  0
    5.9103  -14.2209    0.0000 C   0  0  0  0  0  0  0  0  0  0  0  0
    6.6248  -13.8084    0.0000 C   0  0  0  0  0  0  0  0  0  0  0  0
    7.3393  -14.2209    0.0000 C   0  0  0  0  0  0  0  0  0  0  0  0
    8.0538  -13.8084    0.0000 C   0  0  0  0  0  0  0  0  0  0  0  0
    8.7682  -14.2209    0.0000 C   0  0  0  0  0  0  0  0  0  0  0  0
    9.4827  -13.8084    0.0000 C   0  0  0  0  0  0  0  0  0  0  0  0
   10.1972  -14.2209    0.0000 C   0  0  0  0  0  0  0  0  0  0  0  0
   10.9116  -13.8084    0.0000 C   0  0  0  0  0  0  0  0  0  0  0  0
   11.6261  -14.2209    0.0000 C   0  0  0  0  0  0  0  0  0  0  0  0
   10.1972  -15.0459    0.0000 C   0  0  0  0  0  0  0  0  0  0  0  0
    7.3393  -15.0459    0.0000 C   0  0  0  0  0  0  0  0  0  0  0  0
    3.7669  -12.9834    0.0000 C   0  0  0  0  0  0  0  0  0  0  0  0
    0.9090  -12.9834    0.0000 C   0  0  0  0  0  0  0  0  0  0  0  0
   12.3406  -13.8084    0.0000 C   0  0  2  0  0  0  0  0  0  0  0  0
   12.3406  -12.9834    0.0000 C   0  0  0  0  0  0  0  0  0  0  0  0
   13.0551  -12.5709    0.0000 C   0  0  0  0  0  0  0  0  0  0  0  0
   13.7695  -12.9834    0.0000 C   0  0  0  0  0  0  0  0  0  0  0  0
   13.7695  -13.8084    0.0000 C   0  0  1  0  0  0  0  0  0  0  0  0
   13.0551  -14.2209    0.0000 C   0  0  1  0  0  0  0  0  0  0  0  0
   13.0551  -15.0459    0.0000 C   0  0  0  0  0  0  0  0  0  0  0  0
   11.5156  -12.9834    0.0000 C   0  0  0  0  0  0  0  0  0  0  0  0
   11.9281  -12.2690    0.0000 C   0  0  0  0  0  0  0  0  0  0  0  0
   14.4840  -14.2209    0.0000 O   0  0  0  0  0  0  0  0  0  0  0  0
  1  2  1  0  0  0  0
  2  3  1  0  0  0  0
  3  4  1  0  0  0  0
  4  5  1  0  0  0  0
  5  6  1  0  0  0  0
  1  6  1  0  0  0  0
  1  7  2  0  0  0  0
  4  8  1  0  0  0  0
  4  9  1  0  0  0  0
  2 10  1  1  0  0  0
 11 12  2  0  0  0  0
 12 13  1  0  0  0  0
 13 14  2  0  0  0  0
 14 15  1  0  0  0  0
 15 16  2  0  0  0  0
 16 17  1  0  0  0  0
 17 18  2  0  0  0  0
 18 19  1  0  0  0  0
 19 20  2  0  0  0  0
 20 21  1  0  0  0  0
 21 22  2  0  0  0  0
 22 23  1  0  0  0  0
 23 24  2  0  0  0  0
 24 25  1  0  0  0  0
 25 26  2  0  0  0  0
 26 27  1  0  0  0  0
 27 28  2  0  0  0  0
 26 29  1  0  0  0  0
 22 30  1  0  0  0  0
 17 31  1  0  0  0  0
 13 32  1  0  0  0  0
 33 34  1  0  0  0  0
 34 35  1  0  0  0  0
 35 36  1  0  0  0  0
 36 37  1  0  0  0  0
 37 38  1  0  0  0  0
 33 38  1  0  0  0  0
 38 39  1  1  0  0  0
 34 40  1  0  0  0  0
 34 41  1  0  0  0  0
 37 42  1  6  0  0  0
 33 28  1  6  0  0  0
  3 11  1  6  0  0  0
M  END
>  <cdx:fragmentId>
3328

$$$$
