301035.cdx
  Mrv1902 05222410222D          

 26 29  0  0  0  0            999 V2000
    4.6638   -8.3281    0.0000 C   0  0  0  0  0  0  0  0  0  0  0  0
    5.3757   -7.9111    0.0000 C   0  0  0  0  0  0  0  0  0  0  0  0
    6.0927   -8.3191    0.0000 C   0  0  0  0  0  0  0  0  0  0  0  0
    6.0979   -9.1441    0.0000 C   0  0  0  0  0  0  0  0  0  0  0  0
    6.8149   -9.5521    0.0000 C   0  0  0  0  0  0  0  0  0  0  0  0
    6.8201  -10.3771    0.0000 C   0  0  0  0  0  0  0  0  0  0  0  0
    6.1082  -10.7941    0.0000 C   0  0  0  0  0  0  0  0  0  0  0  0
    5.3912  -10.3861    0.0000 C   0  0  0  0  0  0  0  0  0  0  0  0
    5.3860   -9.5611    0.0000 C   0  0  0  0  0  0  0  0  0  0  0  0
    4.6690   -9.1531    0.0000 O   0  0  0  0  0  0  0  0  0  0  0  0
    7.5371  -10.7851    0.0000 C   0  0  0  0  0  0  0  0  0  0  0  0
    8.2490  -10.3682    0.0000 C   0  0  2  0  0  0  0  0  0  0  0  0
    8.2439   -9.5432    0.0000 C   0  0  2  0  0  0  0  0  0  0  0  0
    7.5268   -9.1352    0.0000 O   0  0  0  0  0  0  0  0  0  0  0  0
    3.9468   -7.9201    0.0000 O   0  0  0  0  0  0  0  0  0  0  0  0
    5.3705   -7.0861    0.0000 O   0  0  0  0  0  0  0  0  0  0  0  0
    6.1134  -11.6191    0.0000 O   0  0  0  0  0  0  0  0  0  0  0  0
    8.9661  -10.7762    0.0000 O   0  0  0  0  0  0  0  0  0  0  0  0
   11.1017   -9.5253    0.0000 O   0  0  0  0  0  0  0  0  0  0  0  0
   11.0913   -7.8753    0.0000 O   0  0  0  0  0  0  0  0  0  0  0  0
    8.9506   -8.3012    0.0000 C   0  0  0  0  0  0  0  0  0  0  0  0
    9.6624   -7.8843    0.0000 C   0  0  0  0  0  0  0  0  0  0  0  0
   10.3795   -8.2923    0.0000 C   0  0  0  0  0  0  0  0  0  0  0  0
   10.3846   -9.1173    0.0000 C   0  0  0  0  0  0  0  0  0  0  0  0
    9.6728   -9.5342    0.0000 C   0  0  0  0  0  0  0  0  0  0  0  0
    8.9557   -9.1262    0.0000 C   0  0  0  0  0  0  0  0  0  0  0  0
 24 19  1  0  0  0  0
 23 20  1  0  0  0  0
 26 21  2  0  0  0  0
 22 21  1  0  0  0  0
 23 22  2  0  0  0  0
 24 23  1  0  0  0  0
 25 24  2  0  0  0  0
 26 25  1  0  0  0  0
  1  2  1  0  0  0  0
  2  3  2  0  0  0  0
  3  4  1  0  0  0  0
  4  5  1  0  0  0  0
  5  6  2  0  0  0  0
  6  7  1  0  0  0  0
  7  8  2  0  0  0  0
  8  9  1  0  0  0  0
  4  9  2  0  0  0  0
  9 10  1  0  0  0  0
  1 10  1  0  0  0  0
 11 12  1  0  0  0  0
 12 13  1  0  0  0  0
 13 14  1  0  0  0  0
  5 14  1  0  0  0  0
  6 11  1  0  0  0  0
  1 15  2  0  0  0  0
  2 16  1  0  0  0  0
  7 17  1  0  0  0  0
 12 18  1  6  0  0  0
 13 26  1  6  0  0  0
M  END
>  <cdx:fragmentId>
2699

$$$$
