301025.cdx
  Mrv1902 05222410222D          

 19 19  0  0  0  0            999 V2000
    5.9680   -4.4756    0.0000 C   0  0  0  0  0  0  0  0  0  0  0  0
    5.9680   -5.3006    0.0000 C   0  0  0  0  0  0  0  0  0  0  0  0
    6.6825   -5.7131    0.0000 N   0  0  0  0  0  0  0  0  0  0  0  0
    7.3970   -5.3006    0.0000 C   0  0  0  0  0  0  0  0  0  0  0  0
    7.3970   -4.4756    0.0000 C   0  0  0  0  0  0  0  0  0  0  0  0
    6.6825   -4.0631    0.0000 C   0  0  0  0  0  0  0  0  0  0  0  0
    6.6825   -6.5381    0.0000 C   0  0  0  0  0  0  0  0  0  0  0  0
    6.6825   -3.2381    0.0000 H   0  0  0  0  0  0  0  0  0  0  0  0
    8.1114   -5.7131    0.0000 C   0  0  0  0  0  0  0  0  0  0  0  0
    8.8259   -5.3006    0.0000 C   0  0  0  0  0  0  0  0  0  0  0  0
    5.2536   -5.7131    0.0000 C   0  0  0  0  0  0  0  0  0  0  0  0
    4.5391   -5.3006    0.0000 C   0  0  0  0  0  0  0  0  0  0  0  0
    9.5404   -5.7131    0.0000 C   0  0  0  0  0  0  0  0  0  0  0  0
    3.8246   -5.7131    0.0000 C   0  0  0  0  0  0  0  0  0  0  0  0
    4.5391   -4.4756    0.0000 O   0  0  0  0  0  0  0  0  0  0  0  0
    3.1101   -5.3006    0.0000 C   0  0  0  0  0  0  0  0  0  0  0  0
    2.3957   -5.7131    0.0000 C   0  0  0  0  0  0  0  0  0  0  0  0
    8.8259   -4.4756    0.0000 O   0  0  0  0  0  0  0  0  0  0  0  0
   10.2549   -5.3006    0.0000 C   0  0  0  0  0  0  0  0  0  0  0  0
  1  2  1  0  0  0  0
  2  3  1  0  0  0  0
  3  4  1  0  0  0  0
  4  5  1  0  0  0  0
  5  6  1  0  0  0  0
  6  1  1  0  0  0  0
  3  7  1  0  0  0  0
  6  8  1  0  0  0  0
  4  9  1  0  0  0  0
  9 10  1  0  0  0  0
  2 11  1  0  0  0  0
 11 12  1  0  0  0  0
 10 13  1  0  0  0  0
 12 14  1  0  0  0  0
 12 15  1  0  0  0  0
 14 16  1  0  0  0  0
 16 17  1  0  0  0  0
 10 18  2  0  0  0  0
 13 19  1  0  0  0  0
M  END
>  <cdx:fragmentId>
681

$$$$
