301099.cdx
  Mrv1902 05222410262D          

 20 21  0  0  0  0            999 V2000
    9.6963   -6.4424    0.0000 C   0  0  0  0  0  0  0  0  0  0  0  0
    8.9818   -6.0299    0.0000 O   0  0  0  0  0  0  0  0  0  0  0  0
    5.4095   -6.4424    0.0000 C   0  0  0  0  0  0  0  0  0  0  0  0
    6.1239   -6.0299    0.0000 O   0  0  0  0  0  0  0  0  0  0  0  0
    6.8384   -8.9174    0.0000 C   0  0  0  0  0  0  0  0  0  0  0  0
    6.8384   -9.7424    0.0000 C   0  0  0  0  0  0  0  0  0  0  0  0
    6.1239  -10.1549    0.0000 C   0  0  0  0  0  0  0  0  0  0  0  0
    5.4095   -9.7424    0.0000 C   0  0  0  0  0  0  0  0  0  0  0  0
    5.4095   -8.9174    0.0000 C   0  0  0  0  0  0  0  0  0  0  0  0
    6.1239   -8.5049    0.0000 C   0  0  0  0  0  0  0  0  0  0  0  0
    4.6950   -7.6799    0.0000 C   0  0  0  0  0  0  0  0  0  0  0  0
    5.4095   -7.2674    0.0000 C   0  0  0  0  0  0  0  0  0  0  0  0
    6.1239   -7.6799    0.0000 C   0  0  2  0  0  0  0  0  0  0  0  0
    8.9818   -7.6799    0.0000 O   0  0  0  0  0  0  0  0  0  0  0  0
    7.5529   -7.6799    0.0000 C   0  0  0  0  0  0  0  0  0  0  0  0
    6.8384   -7.2674    0.0000 C   0  0  0  0  0  0  0  0  0  0  0  0
    6.8384   -6.4424    0.0000 C   0  0  0  0  0  0  0  0  0  0  0  0
    7.5529   -6.0299    0.0000 C   0  0  0  0  0  0  0  0  0  0  0  0
    8.2674   -6.4424    0.0000 C   0  0  0  0  0  0  0  0  0  0  0  0
    8.2674   -7.2674    0.0000 C   0  0  0  0  0  0  0  0  0  0  0  0
 19  2  1  0  0  0  0
  2  1  1  0  0  0  0
 17  4  1  0  0  0  0
  4  3  1  0  0  0  0
 16 13  1  0  0  0  0
 13 10  1  0  0  0  0
 10  5  2  0  0  0  0
  6  5  1  0  0  0  0
  7  6  2  0  0  0  0
  8  7  1  0  0  0  0
  9  8  2  0  0  0  0
 10  9  1  0  0  0  0
 12 11  2  0  0  0  0
 13 12  1  6  0  0  0
 20 14  1  0  0  0  0
 20 15  2  0  0  0  0
 16 15  1  0  0  0  0
 17 16  2  0  0  0  0
 18 17  1  0  0  0  0
 19 18  2  0  0  0  0
 20 19  1  0  0  0  0
M  END
>  <cdx:fragmentId>
25

$$$$
