301193.cdx
  Mrv1902 05222410212D          

 30 32  0  0  0  0            999 V2000
    7.5612   -8.8595    0.0000 C   0  0  0  0  0  0  0  0  0  0  0  0
    7.5612   -8.0345    0.0000 C   0  0  0  0  0  0  0  0  0  0  0  0
    6.8467   -7.6220    0.0000 C   0  0  0  0  0  0  0  0  0  0  0  0
    6.1322   -8.0345    0.0000 C   0  0  0  0  0  0  0  0  0  0  0  0
    5.4178   -7.6220    0.0000 C   0  0  0  0  0  0  0  0  0  0  0  0
    4.7033   -8.0345    0.0000 C   0  0  0  0  0  0  0  0  0  0  0  0
    4.7033   -8.8595    0.0000 C   0  0  0  0  0  0  0  0  0  0  0  0
    5.4178   -9.2720    0.0000 C   0  0  0  0  0  0  0  0  0  0  0  0
    6.1322   -8.8595    0.0000 C   0  0  0  0  0  0  0  0  0  0  0  0
    6.8467   -9.2720    0.0000 O   0  0  0  0  0  0  0  0  0  0  0  0
    6.8467   -6.7970    0.0000 O   0  0  0  0  0  0  0  0  0  0  0  0
    8.2756   -7.6220    0.0000 C   0  0  0  0  0  0  0  0  0  0  0  0
    8.2756   -6.7970    0.0000 C   0  0  0  0  0  0  0  0  0  0  0  0
    8.9901   -6.3845    0.0000 C   0  0  0  0  0  0  0  0  0  0  0  0
    9.7046   -6.7970    0.0000 C   0  0  0  0  0  0  0  0  0  0  0  0
    8.9901   -5.5595    0.0000 C   0  0  0  0  0  0  0  0  0  0  0  0
    7.9737   -9.5740    0.0000 C   0  0  0  0  0  0  0  0  0  0  0  0
    7.5612  -10.2884    0.0000 C   0  0  0  0  0  0  0  0  0  0  0  0
    7.9737  -11.0029    0.0000 C   0  0  0  0  0  0  0  0  0  0  0  0
    8.7987  -11.0029    0.0000 C   0  0  0  0  0  0  0  0  0  0  0  0
    7.5612  -11.7174    0.0000 C   0  0  0  0  0  0  0  0  0  0  0  0
    8.3862   -8.8595    0.0000 C   0  0  0  0  0  0  0  0  0  0  0  0
    8.7987   -8.1450    0.0000 C   0  0  0  0  0  0  0  0  0  0  0  0
    9.6237   -8.1450    0.0000 C   0  0  0  0  0  0  0  0  0  0  0  0
   10.0362   -8.8595    0.0000 C   0  0  0  0  0  0  0  0  0  0  0  0
    9.6237   -9.5740    0.0000 C   0  0  0  0  0  0  0  0  0  0  0  0
    8.7987   -9.5740    0.0000 C   0  0  0  0  0  0  0  0  0  0  0  0
   10.8612   -8.8595    0.0000 O   0  0  0  0  0  0  0  0  0  0  0  0
    3.9888   -9.2720    0.0000 O   0  0  0  0  0  0  0  0  0  0  0  0
    5.4178   -6.7970    0.0000 O   0  0  0  0  0  0  0  0  0  0  0  0
  1  2  1  0  0  0  0
  2  3  1  0  0  0  0
  3  4  1  0  0  0  0
  4  5  1  0  0  0  0
  5  6  2  0  0  0  0
  6  7  1  0  0  0  0
  7  8  2  0  0  0  0
  8  9  1  0  0  0  0
  4  9  2  0  0  0  0
  9 10  1  0  0  0  0
  1 10  1  0  0  0  0
  3 11  2  0  0  0  0
 12 13  1  0  0  0  0
 13 14  2  0  0  0  0
 14 15  1  0  0  0  0
 14 16  1  0  0  0  0
  2 12  1  0  0  0  0
 17 18  1  0  0  0  0
 18 19  2  0  0  0  0
 19 20  1  0  0  0  0
 19 21  1  0  0  0  0
  1 17  1  0  0  0  0
 22 23  1  0  0  0  0
 23 24  2  0  0  0  0
 24 25  1  0  0  0  0
 25 26  2  0  0  0  0
 26 27  1  0  0  0  0
 22 27  2  0  0  0  0
 25 28  1  0  0  0  0
  1 22  1  0  0  0  0
  7 29  1  0  0  0  0
  5 30  1  0  0  0  0
M  END
>  <cdx:groupId>
4297

>  <cdx:fragmentId>
4208

$$$$
