301169.cdx
  Mrv1902 05222410222D          

 26 30  0  0  0  0            999 V2000
    4.9283   -6.7237    0.0000 C   0  0  0  0  0  0  0  0  0  0  0  0
    4.2138   -7.1362    0.0000 O   0  0  0  0  0  0  0  0  0  0  0  0
    7.7862   -6.7237    0.0000 C   0  0  1  0  0  0  0  0  0  0  0  0
    8.5006   -7.1362    0.0000 C   0  0  0  0  0  0  0  0  0  0  0  0
    9.2853   -6.8813    0.0000 N   0  0  0  0  0  0  0  0  0  0  0  0
    9.7702   -7.5487    0.0000 C   0  0  0  0  0  0  0  0  0  0  0  0
   10.5907   -7.6349    0.0000 C   0  0  0  0  0  0  0  0  0  0  0  0
   10.9262   -8.3886    0.0000 C   0  0  0  0  0  0  0  0  0  0  0  0
   10.4413   -9.0561    0.0000 C   0  0  0  0  0  0  0  0  0  0  0  0
    9.6208   -8.9698    0.0000 C   0  0  0  0  0  0  0  0  0  0  0  0
    9.2853   -8.2161    0.0000 C   0  0  0  0  0  0  0  0  0  0  0  0
    8.5006   -7.9612    0.0000 C   0  0  0  0  0  0  0  0  0  0  0  0
    7.7862   -8.3737    0.0000 C   0  0  0  0  0  0  0  0  0  0  0  0
    7.0717   -7.9612    0.0000 C   0  0  1  0  0  0  0  0  0  0  0  0
    6.3572   -8.3737    0.0000 C   0  0  0  0  0  0  0  0  0  0  0  0
    5.6428   -7.9612    0.0000 C   0  0  1  0  0  0  0  0  0  0  0  0
    5.6428   -7.1362    0.0000 C   0  0  2  0  0  0  0  0  0  0  0  0
    6.3572   -6.7237    0.0000 C   0  0  1  0  0  0  0  0  0  0  0  0
    7.0717   -7.1362    0.0000 N   0  0  0  0  0  0  0  0  0  0  0  0
    6.8740   -6.7423    0.0000 C   0  0  0  0  0  0  0  0  0  0  0  0
    6.3572   -5.8987    0.0000 C   0  0  0  0  0  0  0  0  0  0  0  0
    6.3572   -9.1987    0.0000 C   0  0  0  0  0  0  0  0  0  0  0  0
    5.6428   -9.6112    0.0000 O   0  0  0  0  0  0  0  0  0  0  0  0
    7.9916   -5.9247    0.0000 H   0  0  0  0  0  0  0  0  0  0  0  0
    7.0717   -8.7862    0.0000 H   0  0  0  0  0  0  0  0  0  0  0  0
    4.9283   -8.3737    0.0000 H   0  0  0  0  0  0  0  0  0  0  0  0
  1  2  1  0  0  0  0
  3  4  1  0  0  0  0
  4  5  1  0  0  0  0
  5  6  1  0  0  0  0
  6  7  2  0  0  0  0
  7  8  1  0  0  0  0
  8  9  2  0  0  0  0
  9 10  1  0  0  0  0
 10 11  2  0  0  0  0
 11 12  1  0  0  0  0
 12 13  1  0  0  0  0
 13 14  1  0  0  0  0
 14 15  1  0  0  0  0
 15 16  1  0  0  0  0
 16 17  1  0  0  0  0
 17 18  1  0  0  0  0
 18 19  1  0  0  0  0
  3 19  1  0  0  0  0
  3 20  1  1  0  0  0
 16 20  1  6  0  0  0
 14 19  1  0  0  0  0
  4 12  2  0  0  0  0
  6 11  1  0  0  0  0
 18 21  1  6  0  0  0
 22 23  1  0  0  0  0
 15 22  1  0  0  0  0
 17  1  1  1  0  0  0
  3 24  1  0  0  0  0
 14 25  1  6  0  0  0
 16 26  1  0  0  0  0
M  END
>  <cdx:groupId>
2405

>  <cdx:fragmentId>
2330

$$$$
