301130.cdx
  Mrv1902 05222410182D          

 25 25  0  0  0  0            999 V2000
    8.6378   -8.2907    0.0000 C   0  0  0  0  0  0  0  0  0  0  0  0
    9.3537   -8.7008    0.0000 C   0  0  0  0  0  0  0  0  0  0  0  0
   10.0668   -8.2859    0.0000 C   0  0  0  0  0  0  0  0  0  0  0  0
   10.0640   -7.4609    0.0000 C   0  0  0  0  0  0  0  0  0  0  0  0
    8.6351   -7.4657    0.0000 O   0  0  0  0  0  0  0  0  0  0  0  0
    7.9247   -8.7056    0.0000 C   0  0  0  0  0  0  0  0  0  0  0  0
    7.9275   -9.5306    0.0000 C   0  0  0  0  0  0  0  0  0  0  0  0
    7.2144   -9.9455    0.0000 C   0  0  0  0  0  0  0  0  0  0  0  0
    6.4986   -9.5354    0.0000 C   0  0  0  0  0  0  0  0  0  0  0  0
    6.4958   -8.7104    0.0000 C   0  0  0  0  0  0  0  0  0  0  0  0
    7.2089   -8.2955    0.0000 C   0  0  0  0  0  0  0  0  0  0  0  0
    5.0586   -6.2402    0.0000 C   0  0  0  0  0  0  0  0  0  0  0  0
    8.6516  -12.4157    0.0000 C   0  0  0  0  0  0  0  0  0  0  0  0
    7.2061   -7.4705    0.0000 O   0  0  0  0  0  0  0  0  0  0  0  0
    5.7855   -9.9503    0.0000 O   0  0  0  0  0  0  0  0  0  0  0  0
    8.6434   -9.9407    0.0000 O   0  0  0  0  0  0  0  0  0  0  0  0
   10.7826   -8.6960    0.0000 C   0  0  0  0  0  0  0  0  0  0  0  0
    4.3483   -7.4801    0.0000 C   0  0  0  0  0  0  0  0  0  0  0  0
    5.0613   -7.0652    0.0000 C   0  0  0  0  0  0  0  0  0  0  0  0
    5.7772   -7.4753    0.0000 C   0  0  0  0  0  0  0  0  0  0  0  0
    5.7800   -8.3003    0.0000 C   0  0  0  0  0  0  0  0  0  0  0  0
    7.2227  -12.4205    0.0000 C   0  0  0  0  0  0  0  0  0  0  0  0
    7.9358  -12.0056    0.0000 C   0  0  0  0  0  0  0  0  0  0  0  0
    7.9330  -11.1806    0.0000 C   0  0  0  0  0  0  0  0  0  0  0  0
    7.2172  -10.7705    0.0000 C   0  0  0  0  0  0  0  0  0  0  0  0
 19 12  1  0  0  0  0
 19 18  1  0  0  0  0
 20 19  2  0  0  0  0
 21 20  1  0  0  0  0
 23 13  1  0  0  0  0
 23 22  1  0  0  0  0
 24 23  2  0  0  0  0
 25 24  1  0  0  0  0
  1  2  1  0  0  0  0
  2  3  1  0  0  0  0
  3  4  1  0  0  0  0
  1  5  2  0  0  0  0
  6  7  1  0  0  0  0
  7  8  2  0  0  0  0
  8  9  1  0  0  0  0
  9 10  2  0  0  0  0
 10 11  1  0  0  0  0
  6 11  2  0  0  0  0
 10 21  1  0  0  0  0
  8 25  1  0  0  0  0
 11 14  1  0  0  0  0
  9 15  1  0  0  0  0
  7 16  1  0  0  0  0
  1  6  1  0  0  0  0
  3 17  1  0  0  0  0
M  END
>  <cdx:groupId>
2069

>  <cdx:fragmentId>
2007

$$$$
