301189.cdx
  Mrv1902 05222410252D          

 28 32  0  0  0  0            999 V2000
    8.3235   -4.8843    0.0000 O   0  0  0  0  0  0  0  0  0  0  0  0
    8.5782   -5.6690    0.0000 C   0  0  0  0  0  0  0  0  0  0  0  0
    7.9106   -6.1538    0.0000 C   0  0  0  0  0  0  0  0  0  0  0  0
    7.2433   -5.6687    0.0000 C   0  0  0  0  0  0  0  0  0  0  0  0
    7.4985   -4.8841    0.0000 C   0  0  0  0  0  0  0  0  0  0  0  0
    4.3378   -8.2154    0.0000 O   0  0  0  0  0  0  0  0  0  0  0  0
    9.3390   -8.6291    0.0000 O   0  0  0  0  0  0  0  0  0  0  0  0
    6.4809   -9.4534    0.0000 C   0  0  1  0  0  0  0  0  0  0  0  0
    5.7667   -8.2157    0.0000 C   0  0  0  0  0  0  0  0  0  0  0  0
    5.0522   -8.6281    0.0000 C   0  0  2  0  0  0  0  0  0  0  0  0
    5.0519   -9.4531    0.0000 C   0  0  0  0  0  0  0  0  0  0  0  0
    5.7663   -9.8657    0.0000 C   0  0  1  0  0  0  0  0  0  0  0  0
    7.1953   -9.8661    0.0000 C   0  0  2  0  0  0  0  0  0  0  0  0
    7.9098   -9.4538    0.0000 C   0  0  0  0  0  0  0  0  0  0  0  0
    7.9100   -8.6288    0.0000 C   0  0  2  0  0  0  0  0  0  0  0  0
    8.6246   -8.2164    0.0000 C   0  0  0  0  0  0  0  0  0  0  0  0
    8.6248   -7.3914    0.0000 O   0  0  0  0  0  0  0  0  0  0  0  0
    7.9104   -6.9788    0.0000 C   0  0  1  0  0  0  0  0  0  0  0  0
    7.1959   -7.3911    0.0000 C   0  0  0  0  0  0  0  0  0  0  0  0
    7.1957   -8.2161    0.0000 C   0  0  1  0  0  0  0  0  0  0  0  0
    6.4811   -8.6284    0.0000 C   0  0  1  0  0  0  0  0  0  0  0  0
    7.1957   -9.0411    0.0000 C   0  0  0  0  0  0  0  0  0  0  0  0
    8.6245   -9.0413    0.0000 H   0  0  0  0  0  0  0  0  0  0  0  0
    6.4813   -7.8034    0.0000 H   0  0  0  0  0  0  0  0  0  0  0  0
    6.4809  -10.2784    0.0000 H   0  0  0  0  0  0  0  0  0  0  0  0
    5.7661  -10.6907    0.0000 C   0  0  0  0  0  0  0  0  0  0  0  0
    7.1951  -10.6911    0.0000 O   0  0  0  0  0  0  0  0  0  0  0  0
    5.1826  -11.2740    0.0000 O   0  0  0  0  0  0  0  0  0  0  0  0
 18  3  1  1  0  0  0
 10  6  1  6  0  0  0
 16  7  2  0  0  0  0
 12  8  1  0  0  0  0
 20 15  1  0  0  0  0
  8 13  1  0  0  0  0
 21  8  1  0  0  0  0
 21  9  1  0  0  0  0
 10  9  1  0  0  0  0
 11 10  1  0  0  0  0
 12 11  1  0  0  0  0
 14 13  1  0  0  0  0
 15 14  1  0  0  0  0
 16 15  1  0  0  0  0
 17 16  1  0  0  0  0
 18 17  1  0  0  0  0
 19 18  1  0  0  0  0
 20 19  1  0  0  0  0
 21 20  1  0  0  0  0
  1  2  1  0  0  0  0
  2  3  2  0  0  0  0
  3  4  1  0  0  0  0
  4  5  2  0  0  0  0
  1  5  1  0  0  0  0
 20 22  1  1  0  0  0
 15 23  1  6  0  0  0
 21 24  1  6  0  0  0
  8 25  1  1  0  0  0
 12 26  1  6  0  0  0
 13 27  1  6  0  0  0
 26 27  1  0  0  0  0
 26 28  2  0  0  0  0
M  END
>  <cdx:fragmentId>
5

$$$$
