301168.cdx
  Mrv1902 05222410222D          

 26 29  0  0  0  0            999 V2000
    7.0678   -9.2056    0.0000 C   0  0  0  0  0  0  0  0  0  0  0  0
    7.7822   -8.7931    0.0000 N   0  0  0  0  0  0  0  0  0  0  0  0
    7.7822   -7.9681    0.0000 C   0  0  0  0  0  0  0  0  0  0  0  0
    7.0678   -7.5556    0.0000 C   0  0  0  0  0  0  0  0  0  0  0  0
    6.3533   -7.9681    0.0000 C   0  0  0  0  0  0  0  0  0  0  0  0
    5.6388   -7.5556    0.0000 C   0  0  0  0  0  0  0  0  0  0  0  0
    4.9244   -7.9681    0.0000 C   0  0  0  0  0  0  0  0  0  0  0  0
    4.9244   -8.7931    0.0000 C   0  0  0  0  0  0  0  0  0  0  0  0
    5.6388   -9.2056    0.0000 C   0  0  0  0  0  0  0  0  0  0  0  0
    6.3533   -8.7931    0.0000 C   0  0  0  0  0  0  0  0  0  0  0  0
    8.4967   -9.2056    0.0000 C   0  0  0  0  0  0  0  0  0  0  0  0
    9.2112   -8.7931    0.0000 C   0  0  0  0  0  0  0  0  0  0  0  0
    9.2112   -7.9681    0.0000 C   0  0  0  0  0  0  0  0  0  0  0  0
    9.9256   -7.5556    0.0000 C   0  0  0  0  0  0  0  0  0  0  0  0
    9.9256   -6.7306    0.0000 C   0  0  0  0  0  0  0  0  0  0  0  0
    9.2112   -6.3181    0.0000 C   0  0  0  0  0  0  0  0  0  0  0  0
    8.4967   -6.7306    0.0000 C   0  0  0  0  0  0  0  0  0  0  0  0
    8.4967   -7.5556    0.0000 C   0  0  0  0  0  0  0  0  0  0  0  0
    4.2099   -9.2056    0.0000 O   0  0  0  0  0  0  0  0  0  0  0  0
    3.4954   -8.7931    0.0000 C   0  0  0  0  0  0  0  0  0  0  0  0
    5.6388  -10.0306    0.0000 O   0  0  0  0  0  0  0  0  0  0  0  0
    4.9244  -10.4431    0.0000 C   0  0  0  0  0  0  0  0  0  0  0  0
   10.6401   -6.3181    0.0000 O   0  0  0  0  0  0  0  0  0  0  0  0
   11.3546   -6.7306    0.0000 C   0  0  0  0  0  0  0  0  0  0  0  0
    9.2112   -5.4931    0.0000 O   0  0  0  0  0  0  0  0  0  0  0  0
    9.9256   -5.0806    0.0000 C   0  0  0  0  0  0  0  0  0  0  0  0
  1  2  1  0  0  0  0
  2  3  1  0  0  0  0
  3  4  2  0  0  0  0
  4  5  1  0  0  0  0
  5  6  1  0  0  0  0
  6  7  2  0  0  0  0
  7  8  1  0  0  0  0
  8  9  2  0  0  0  0
  9 10  1  0  0  0  0
  1 10  1  0  0  0  0
  5 10  2  0  0  0  0
 11 12  1  0  0  0  0
 12 13  1  0  0  0  0
 13 14  1  0  0  0  0
 14 15  2  0  0  0  0
 15 16  1  0  0  0  0
 16 17  2  0  0  0  0
 17 18  1  0  0  0  0
 13 18  2  0  0  0  0
 11  2  1  0  0  0  0
 18  3  1  0  0  0  0
 19 20  1  0  0  0  0
  8 19  1  0  0  0  0
 21 22  1  0  0  0  0
  9 21  1  0  0  0  0
 23 24  1  0  0  0  0
 15 23  1  0  0  0  0
 25 26  1  0  0  0  0
 16 25  1  0  0  0  0
M  END
>  <cdx:groupId>
2314

>  <cdx:fragmentId>
2236

$$$$
