301134.cdx
  Mrv1902 05222410202D          

 45 50  0  0  0  0            999 V2000
    8.8687   -7.9104    0.0000 C   0  0  1  0  0  0  0  0  0  0  0  0
    4.9524   -7.5016    0.0000 N   0  0  0  0  0  0  0  0  0  0  0  0
    5.4374   -6.8342    0.0000 C   0  0  0  0  0  0  0  0  0  0  0  0
    6.2578   -6.7479    0.0000 C   0  0  1  0  0  0  0  0  0  0  0  0
    6.5934   -5.9943    0.0000 N   0  0  0  0  0  0  0  0  0  0  0  0
    6.1085   -5.3268    0.0000 C   0  0  0  0  0  0  0  0  0  0  0  0
    5.2880   -5.4131    0.0000 C   0  0  0  0  0  0  0  0  0  0  0  0
    4.9524   -6.1667    0.0000 C   0  0  0  0  0  0  0  0  0  0  0  0
    4.1678   -6.4217    0.0000 C   0  0  0  0  0  0  0  0  0  0  0  0
    3.4533   -6.0092    0.0000 C   0  0  0  0  0  0  0  0  0  0  0  0
    2.7389   -6.4217    0.0000 C   0  0  0  0  0  0  0  0  0  0  0  0
    2.7389   -7.2467    0.0000 C   0  0  0  0  0  0  0  0  0  0  0  0
    3.4533   -7.6592    0.0000 C   0  0  0  0  0  0  0  0  0  0  0  0
    4.1678   -7.2467    0.0000 C   0  0  0  0  0  0  0  0  0  0  0  0
    7.4139   -5.9080    0.0000 C   0  0  0  0  0  0  0  0  0  0  0  0
    7.8988   -6.5755    0.0000 C   0  0  2  0  0  0  0  0  0  0  0  0
    8.7193   -6.4892    0.0000 C   0  0  1  0  0  0  0  0  0  0  0  0
    9.2042   -7.1567    0.0000 C   0  0  1  0  0  0  0  0  0  0  0  0
    8.0482   -7.9966    0.0000 C   0  0  0  0  0  0  0  0  0  0  0  0
    7.5632   -7.3291    0.0000 C   0  0  2  0  0  0  0  0  0  0  0  0
    6.7428   -7.4154    0.0000 C   0  0  0  0  0  0  0  0  0  0  0  0
    9.0548   -5.7356    0.0000 C   0  0  0  0  0  0  0  0  0  0  0  0
    8.5699   -5.0681    0.0000 O   0  0  0  0  0  0  0  0  0  0  0  0
    9.8753   -5.6493    0.0000 O   0  0  0  0  0  0  0  0  0  0  0  0
    8.2344   -5.8218    0.0000 H   0  0  0  0  0  0  0  0  0  0  0  0
    7.2277   -8.0828    0.0000 H   0  0  0  0  0  0  0  0  0  0  0  0
    5.9223   -7.5016    0.0000 H   0  0  0  0  0  0  0  0  0  0  0  0
    9.3536   -8.5778    0.0000 O   0  0  0  0  0  0  0  0  0  0  0  0
    9.0180   -9.3315    0.0000 C   0  0  0  0  0  0  0  0  0  0  0  0
    9.5029   -9.9989    0.0000 C   0  0  0  0  0  0  0  0  0  0  0  0
    9.1674  -10.7526    0.0000 C   0  0  0  0  0  0  0  0  0  0  0  0
    9.6523  -11.4200    0.0000 C   0  0  0  0  0  0  0  0  0  0  0  0
   10.4728  -11.3338    0.0000 C   0  0  0  0  0  0  0  0  0  0  0  0
   10.8083  -10.5801    0.0000 C   0  0  0  0  0  0  0  0  0  0  0  0
   10.3234   -9.9127    0.0000 C   0  0  0  0  0  0  0  0  0  0  0  0
    8.1975   -9.4177    0.0000 O   0  0  0  0  0  0  0  0  0  0  0  0
   11.6288  -10.4939    0.0000 O   0  0  0  0  0  0  0  0  0  0  0  0
   12.1137  -11.1613    0.0000 C   0  0  0  0  0  0  0  0  0  0  0  0
   10.9577  -12.0012    0.0000 O   0  0  0  0  0  0  0  0  0  0  0  0
   11.7782  -11.9150    0.0000 C   0  0  0  0  0  0  0  0  0  0  0  0
    9.3167  -12.1737    0.0000 O   0  0  0  0  0  0  0  0  0  0  0  0
    8.4963  -12.2599    0.0000 C   0  0  0  0  0  0  0  0  0  0  0  0
   10.0247   -7.0704    0.0000 O   0  0  0  0  0  0  0  0  0  0  0  0
   10.5096   -7.7379    0.0000 C   0  0  0  0  0  0  0  0  0  0  0  0
   10.2109   -4.8956    0.0000 C   0  0  0  0  0  0  0  0  0  0  0  0
  2  3  1  0  0  0  0
  3  4  1  0  0  0  0
  4  5  1  0  0  0  0
  5  6  1  0  0  0  0
  6  7  1  0  0  0  0
  7  8  1  0  0  0  0
  3  8  2  0  0  0  0
  8  9  1  0  0  0  0
  9 10  1  0  0  0  0
 10 11  2  0  0  0  0
 11 12  1  0  0  0  0
 12 13  2  0  0  0  0
 13 14  1  0  0  0  0
  9 14  2  0  0  0  0
  2 14  1  0  0  0  0
  5 15  1  0  0  0  0
 15 16  1  0  0  0  0
 16 17  1  0  0  0  0
 17 18  1  0  0  0  0
  1 18  1  0  0  0  0
  1 19  1  0  0  0  0
 19 20  1  0  0  0  0
 16 20  1  0  0  0  0
 20 21  1  0  0  0  0
  4 21  1  0  0  0  0
 22 23  2  0  0  0  0
 22 24  1  0  0  0  0
 17 22  1  6  0  0  0
 16 25  1  1  0  0  0
 20 26  1  1  0  0  0
  4 27  1  6  0  0  0
 29 30  1  0  0  0  0
 30 31  1  0  0  0  0
 31 32  2  0  0  0  0
 32 33  1  0  0  0  0
 33 34  2  0  0  0  0
 34 35  1  0  0  0  0
 30 35  2  0  0  0  0
 29 36  2  0  0  0  0
 37 38  1  0  0  0  0
 34 37  1  0  0  0  0
 39 40  1  0  0  0  0
 33 39  1  0  0  0  0
 41 42  1  0  0  0  0
 32 41  1  0  0  0  0
 28 29  1  0  0  0  0
  1 28  1  6  0  0  0
 43 44  1  0  0  0  0
 18 43  1  1  0  0  0
 24 45  1  0  0  0  0
M  END
>  <cdx:groupId>
2477

>  <cdx:fragmentId>
2342

$$$$
