301167.cdx
  Mrv1902 05222410232D          

 24 26  0  0  0  0            999 V2000
    8.5538   -8.5309    0.0000 C   0  0  0  0  0  0  0  0  0  0  0  0
    8.9657   -9.2457    0.0000 C   0  0  0  0  0  0  0  0  0  0  0  0
    3.8532  -10.0664    0.0000 O   0  0  0  0  0  0  0  0  0  0  0  0
    8.1401  -10.0700    0.0000 O   0  0  0  0  0  0  0  0  0  0  0  0
    8.1407   -9.2450    0.0000 C   0  0  0  0  0  0  0  0  0  0  0  0
    7.4266   -8.8319    0.0000 C   0  0  0  0  0  0  0  0  0  0  0  0
    6.7118   -9.2438    0.0000 C   0  0  0  0  0  0  0  0  0  0  0  0
    5.2822  -10.0676    0.0000 O   0  0  0  0  0  0  0  0  0  0  0  0
    5.9963  -10.4807    0.0000 C   0  0  0  0  0  0  0  0  0  0  0  0
    6.7111  -10.0688    0.0000 C   0  0  0  0  0  0  0  0  0  0  0  0
    7.4252  -10.4819    0.0000 C   0  0  0  0  0  0  0  0  0  0  0  0
    7.4246  -11.3069    0.0000 C   0  0  0  0  0  0  0  0  0  0  0  0
    6.7097  -11.7188    0.0000 C   0  0  0  0  0  0  0  0  0  0  0  0
    5.9956  -11.3057    0.0000 C   0  0  0  0  0  0  0  0  0  0  0  0
    5.2808  -11.7176    0.0000 C   0  0  0  0  0  0  0  0  0  0  0  0
    4.5667  -11.3045    0.0000 C   0  0  0  0  0  0  0  0  0  0  0  0
    4.5674  -10.4795    0.0000 C   0  0  0  0  0  0  0  0  0  0  0  0
    7.4287   -6.3569    0.0000 C   0  0  0  0  0  0  0  0  0  0  0  0
    7.4273   -8.0069    0.0000 O   0  0  0  0  0  0  0  0  0  0  0  0
    8.8562   -8.0081    0.0000 O   0  0  0  0  0  0  0  0  0  0  0  0
    8.8583   -5.5331    0.0000 C   0  0  0  0  0  0  0  0  0  0  0  0
    8.8576   -6.3581    0.0000 C   0  0  0  0  0  0  0  0  0  0  0  0
    8.1428   -6.7700    0.0000 C   0  0  0  0  0  0  0  0  0  0  0  0
    8.1421   -7.5950    0.0000 C   0  0  0  0  0  0  0  0  0  0  0  0
 19  6  1  0  0  0  0
  5  1  1  0  0  0  0
  5  2  1  0  0  0  0
 17  3  2  0  0  0  0
  7 10  1  0  0  0  0
  4 11  1  0  0  0  0
  5  4  1  0  0  0  0
  6  5  1  0  0  0  0
  7  6  1  0  0  0  0
 17  8  1  0  0  0  0
  9  8  1  0  0  0  0
 14  9  2  0  0  0  0
 10  9  1  0  0  0  0
 11 10  2  0  0  0  0
 12 11  1  0  0  0  0
 13 12  2  0  0  0  0
 14 13  1  0  0  0  0
 15 14  1  0  0  0  0
 16 15  2  0  0  0  0
 17 16  1  0  0  0  0
 23 18  1  0  0  0  0
 24 19  1  0  0  0  0
 24 20  2  0  0  0  0
 22 21  1  0  0  0  0
 23 22  1  0  0  0  0
 24 23  1  0  0  0  0
M  END
>  <cdx:fragmentId>
19

$$$$
