301108.cdx
  Mrv1902 05222410202D          

 41 45  0  0  0  0            999 V2000
    7.6037   -9.0307    0.0000 O   0  0  0  0  0  0  0  0  0  0  0  0
    6.1749   -9.0102    0.0000 O   0  0  0  0  0  0  0  0  0  0  0  0
    6.8834   -9.4329    0.0000 C   0  0  2  0  0  0  0  0  0  0  0  0
    6.8716  -10.2578    0.0000 C   0  0  1  0  0  0  0  0  0  0  0  0
    6.1513  -10.6601    0.0000 C   0  0  2  0  0  0  0  0  0  0  0  0
    5.4428  -10.2374    0.0000 C   0  0  1  0  0  0  0  0  0  0  0  0
    5.4546   -9.4125    0.0000 C   0  0  1  0  0  0  0  0  0  0  0  0
    4.7461   -8.9898    0.0000 C   0  0  0  0  0  0  0  0  0  0  0  0
    4.0258   -9.3920    0.0000 O   0  0  0  0  0  0  0  0  0  0  0  0
    2.5970   -9.3715    0.0000 O   0  0  0  0  0  0  0  0  0  0  0  0
    3.3173   -8.9693    0.0000 C   0  0  2  0  0  0  0  0  0  0  0  0
    3.3292   -8.1444    0.0000 C   0  0  1  0  0  0  0  0  0  0  0  0
    2.6207   -7.7217    0.0000 C   0  0  2  0  0  0  0  0  0  0  0  0
    1.9004   -8.1239    0.0000 C   0  0  1  0  0  0  0  0  0  0  0  0
    1.8885   -8.9488    0.0000 C   0  0  1  0  0  0  0  0  0  0  0  0
    1.1682   -9.3511    0.0000 C   0  0  0  0  0  0  0  0  0  0  0  0
    0.4538   -8.9386    0.0000 O   0  0  0  0  0  0  0  0  0  0  0  0
    1.1919   -7.7012    0.0000 O   0  0  0  0  0  0  0  0  0  0  0  0
    2.6325   -6.8968    0.0000 O   0  0  0  0  0  0  0  0  0  0  0  0
    4.0495   -7.7422    0.0000 O   0  0  0  0  0  0  0  0  0  0  0  0
    4.7225  -10.6396    0.0000 O   0  0  0  0  0  0  0  0  0  0  0  0
    6.1395  -11.4850    0.0000 O   0  0  0  0  0  0  0  0  0  0  0  0
    7.5801  -10.6805    0.0000 O   0  0  0  0  0  0  0  0  0  0  0  0
    8.4216   -9.8609    0.0000 C   0  0  0  0  0  0  0  0  0  0  0  0
    8.4216   -9.0359    0.0000 C   0  0  0  0  0  0  0  0  0  0  0  0
    8.4216   -8.2109    0.0000 C   0  0  0  0  0  0  0  0  0  0  0  0
   14.0885   -8.2109    0.0000 O   0  0  0  0  0  0  0  0  0  0  0  0
    9.2466   -9.0359    0.0000 C   0  0  1  0  0  0  0  0  0  0  0  0
    9.7315   -9.7033    0.0000 C   0  0  0  0  0  0  0  0  0  0  0  0
    9.7315   -8.3684    0.0000 O   0  0  0  0  0  0  0  0  0  0  0  0
   12.6595   -8.2109    0.0000 O   0  0  0  0  0  0  0  0  0  0  0  0
   11.9451   -8.6234    0.0000 C   0  0  0  0  0  0  0  0  0  0  0  0
   11.2306   -8.2109    0.0000 C   0  0  0  0  0  0  0  0  0  0  0  0
   10.5161   -8.6234    0.0000 C   0  0  0  0  0  0  0  0  0  0  0  0
   10.5161   -9.4484    0.0000 C   0  0  0  0  0  0  0  0  0  0  0  0
   11.2306   -9.8609    0.0000 C   0  0  0  0  0  0  0  0  0  0  0  0
   11.9451   -9.4484    0.0000 C   0  0  0  0  0  0  0  0  0  0  0  0
   12.6595   -9.8609    0.0000 C   0  0  0  0  0  0  0  0  0  0  0  0
   13.3740   -9.4484    0.0000 C   0  0  0  0  0  0  0  0  0  0  0  0
   13.3740   -8.6234    0.0000 C   0  0  0  0  0  0  0  0  0  0  0  0
    8.8341   -8.3214    0.0000 H   0  0  0  0  0  0  0  0  0  0  0  0
 28 25  1  0  0  0  0
  2  3  1  0  0  0  0
 25 24  1  0  0  0  0
 26 25  1  0  0  0  0
 40 27  2  0  0  0  0
 30 34  1  0  0  0  0
 29 35  1  0  0  0  0
 28 30  1  0  0  0  0
 29 28  1  0  0  0  0
 40 31  1  0  0  0  0
 32 31  1  0  0  0  0
 37 32  1  0  0  0  0
 33 32  2  0  0  0  0
 34 33  1  0  0  0  0
 35 34  2  0  0  0  0
 36 35  1  0  0  0  0
 37 36  2  0  0  0  0
 38 37  1  0  0  0  0
 39 38  2  0  0  0  0
 40 39  1  0  0  0  0
  3  4  1  0  0  0  0
  4  5  1  0  0  0  0
  5  6  1  0  0  0  0
  6  7  1  0  0  0  0
  2  7  1  0  0  0  0
 10 11  1  0  0  0  0
 11 12  1  0  0  0  0
 12 13  1  0  0  0  0
 13 14  1  0  0  0  0
 14 15  1  0  0  0  0
 10 15  1  0  0  0  0
 16 17  1  0  0  0  0
 15 16  1  6  0  0  0
 14 18  1  1  0  0  0
 13 19  1  6  0  0  0
 12 20  1  1  0  0  0
 11  9  1  6  0  0  0
  8  9  1  0  0  0  0
  7  8  1  1  0  0  0
  6 21  1  6  0  0  0
  5 22  1  1  0  0  0
  4 23  1  6  0  0  0
  3  1  1  1  0  0  0
 28 41  1  1  0  0  0
  1 25  1  0  0  0  0
M  END
>  <cdx:fragmentId>
350

$$$$
