301113.cdx
  Mrv1902 05222410272D          

 18 20  0  0  0  0            999 V2000
    9.1628   -5.8179    0.0000 C   0  0  0  0  0  0  0  0  0  0  0  0
    9.1628   -6.6429    0.0000 C   0  0  0  0  0  0  0  0  0  0  0  0
    8.4483   -7.0554    0.0000 C   0  0  0  0  0  0  0  0  0  0  0  0
    7.7338   -6.6429    0.0000 C   0  0  0  0  0  0  0  0  0  0  0  0
    7.0194   -7.0554    0.0000 C   0  0  0  0  0  0  0  0  0  0  0  0
    6.3049   -6.6429    0.0000 C   0  0  0  0  0  0  0  0  0  0  0  0
    6.3049   -5.8179    0.0000 C   0  0  0  0  0  0  0  0  0  0  0  0
    7.0194   -5.4054    0.0000 C   0  0  0  0  0  0  0  0  0  0  0  0
    7.7338   -5.8179    0.0000 C   0  0  0  0  0  0  0  0  0  0  0  0
    8.4483   -5.4054    0.0000 O   0  0  0  0  0  0  0  0  0  0  0  0
    5.5904   -5.4054    0.0000 C   0  0  0  0  0  0  0  0  0  0  0  0
    4.8760   -5.8179    0.0000 C   0  0  0  0  0  0  0  0  0  0  0  0
    4.8760   -6.6429    0.0000 C   0  0  0  0  0  0  0  0  0  0  0  0
    5.5904   -7.0554    0.0000 C   0  0  0  0  0  0  0  0  0  0  0  0
    7.0194   -7.8804    0.0000 O   0  0  0  0  0  0  0  0  0  0  0  0
    7.0194   -4.5804    0.0000 O   0  0  0  0  0  0  0  0  0  0  0  0
    9.5753   -5.1034    0.0000 C   0  0  0  0  0  0  0  0  0  0  0  0
    9.9878   -5.8179    0.0000 C   0  0  0  0  0  0  0  0  0  0  0  0
  1  2  1  0  0  0  0
  2  3  2  0  0  0  0
  3  4  1  0  0  0  0
  4  5  1  0  0  0  0
  5  6  1  0  0  0  0
  6  7  1  0  0  0  0
  7  8  1  0  0  0  0
  8  9  1  0  0  0  0
  4  9  2  0  0  0  0
  9 10  1  0  0  0  0
  1 10  1  0  0  0  0
 11 12  1  0  0  0  0
 12 13  2  0  0  0  0
 13 14  1  0  0  0  0
 14  6  2  0  0  0  0
 11  7  2  0  0  0  0
  5 15  2  0  0  0  0
  8 16  2  0  0  0  0
  1 17  1  0  0  0  0
  1 18  1  0  0  0  0
M  END
>  <cdx:groupId>
945

>  <cdx:fragmentId>
892

$$$$
