301181.cdx
  Mrv1902 05222410232D          

 10 10  0  0  0  0            999 V2000
    8.4589   -8.1823    0.0000 C   0  0  0  0  0  0  0  0  0  0  0  0
    7.7444   -7.7698    0.0000 C   0  0  0  0  0  0  0  0  0  0  0  0
    7.0300   -8.1823    0.0000 C   0  0  0  0  0  0  0  0  0  0  0  0
    6.3155   -7.7698    0.0000 C   0  0  0  0  0  0  0  0  0  0  0  0
    6.3155   -6.9448    0.0000 C   0  0  0  0  0  0  0  0  0  0  0  0
    7.0300   -6.5323    0.0000 C   0  0  0  0  0  0  0  0  0  0  0  0
    7.7444   -6.9448    0.0000 C   0  0  0  0  0  0  0  0  0  0  0  0
    9.1734   -7.7698    0.0000 O   0  0  0  0  0  0  0  0  0  0  0  0
    5.6010   -8.1823    0.0000 C   0  0  0  0  0  0  0  0  0  0  0  0
    7.0300   -9.0073    0.0000 C   0  0  0  0  0  0  0  0  0  0  0  0
  1  2  1  0  0  0  0
  2  3  1  0  0  0  0
  3  4  2  0  0  0  0
  4  5  1  0  0  0  0
  5  6  2  0  0  0  0
  6  7  1  0  0  0  0
  2  7  2  0  0  0  0
  1  8  2  0  0  0  0
  4  9  1  0  0  0  0
  3 10  1  0  0  0  0
M  END
>  <cdx:groupId>
3179

>  <cdx:fragmentId>
3152

$$$$
