301138.cdx
  Mrv1902 05222410262D          

 29 31  0  0  0  0            999 V2000
    5.7751   -5.5908    0.0000 O   0  0  0  0  0  0  0  0  0  0  0  0
    6.4834   -6.0138    0.0000 C   0  0  0  0  0  0  0  0  0  0  0  0
    6.4713   -6.8387    0.0000 C   0  0  0  0  0  0  0  0  0  0  0  0
    7.1797   -7.2616    0.0000 C   0  0  0  0  0  0  0  0  0  0  0  0
    7.9001   -6.8597    0.0000 C   0  0  0  0  0  0  0  0  0  0  0  0
    7.9122   -6.0348    0.0000 C   0  0  0  0  0  0  0  0  0  0  0  0
    7.2039   -5.6118    0.0000 C   0  0  0  0  0  0  0  0  0  0  0  0
    8.6327   -5.6328    0.0000 C   0  0  0  0  0  0  0  0  0  0  0  0
    9.3410   -6.0558    0.0000 C   0  0  0  0  0  0  0  0  0  0  0  0
   10.0615   -5.6538    0.0000 C   0  0  0  0  0  0  0  0  0  0  0  0
   10.0736   -4.8289    0.0000 C   0  0  0  0  0  0  0  0  0  0  0  0
   10.7940   -4.4269    0.0000 C   0  0  0  0  0  0  0  0  0  0  0  0
   11.5024   -4.8499    0.0000 C   0  0  0  0  0  0  0  0  0  0  0  0
   11.4903   -5.6748    0.0000 C   0  0  0  0  0  0  0  0  0  0  0  0
   10.7698   -6.0768    0.0000 C   0  0  0  0  0  0  0  0  0  0  0  0
   12.2228   -4.4479    0.0000 O   0  0  0  0  0  0  0  0  0  0  0  0
   12.9312   -4.8709    0.0000 C   0  0  0  0  0  0  0  0  0  0  0  0
    7.1675   -8.0865    0.0000 O   0  0  0  0  0  0  0  0  0  0  0  0
    6.4471   -8.4885    0.0000 C   0  0  2  0  0  0  0  0  0  0  0  0
    5.7450   -8.0552    0.0000 O   0  0  0  0  0  0  0  0  0  0  0  0
    5.0187   -8.4465    0.0000 C   0  0  1  0  0  0  0  0  0  0  0  0
    5.0187   -9.2712    0.0000 C   0  0  2  0  0  0  0  0  0  0  0  0
    5.7450   -9.7045    0.0000 C   0  0  1  0  0  0  0  0  0  0  0  0
    6.4471   -9.3131    0.0000 C   0  0  1  0  0  0  0  0  0  0  0  0
    4.3104   -8.0236    0.0000 C   0  0  0  0  0  0  0  0  0  0  0  0
    5.7329  -10.5294    0.0000 O   0  0  0  0  0  0  0  0  0  0  0  0
    7.1584   -9.7310    0.0000 O   0  0  0  0  0  0  0  0  0  0  0  0
    4.3013   -9.6785    0.0000 O   0  0  0  0  0  0  0  0  0  0  0  0
    3.5900   -8.4255    0.0000 O   0  0  0  0  0  0  0  0  0  0  0  0
  2  3  1  0  0  0  0
  3  4  2  0  0  0  0
  4  5  1  0  0  0  0
  5  6  2  0  0  0  0
  6  7  1  0  0  0  0
  2  7  2  0  0  0  0
  1  2  1  0  0  0  0
  8  9  2  0  0  0  0
 10 11  1  0  0  0  0
 11 12  2  0  0  0  0
 12 13  1  0  0  0  0
 13 14  2  0  0  0  0
 14 15  1  0  0  0  0
 10 15  2  0  0  0  0
 16 17  1  0  0  0  0
 13 16  1  0  0  0  0
  9 10  1  0  0  0  0
  6  8  1  0  0  0  0
  4 18  1  0  0  0  0
 19 18  1  1  0  0  0
 19 20  1  0  0  0  0
 20 21  1  0  0  0  0
 21 22  1  0  0  0  0
 22 23  1  0  0  0  0
 23 24  1  0  0  0  0
 24 19  1  0  0  0  0
 21 25  1  1  0  0  0
 23 26  1  1  0  0  0
 24 27  1  6  0  0  0
 22 28  1  6  0  0  0
 25 29  1  0  0  0  0
M  END
>  <cdx:fragmentId>
237

$$$$
