301115.cdx
  Mrv1902 05222410282D          

 15 17  0  0  0  0            999 V2000
    6.7105   -5.5946    0.0000 C   0  0  0  0  0  0  0  0  0  0  0  0
    7.0112   -4.8263    0.0000 N   0  0  0  0  0  0  0  0  0  0  0  0
    7.8362   -4.8263    0.0000 C   0  0  0  0  0  0  0  0  0  0  0  0
    8.1395   -5.5946    0.0000 C   0  0  0  0  0  0  0  0  0  0  0  0
    8.8539   -6.0071    0.0000 C   0  0  0  0  0  0  0  0  0  0  0  0
    8.8539   -6.8321    0.0000 C   0  0  0  0  0  0  0  0  0  0  0  0
    8.1395   -7.2446    0.0000 N   0  3  0  0  0  0  0  0  0  0  0  0
    7.4250   -6.8321    0.0000 C   0  0  0  0  0  0  0  0  0  0  0  0
    6.7105   -7.2446    0.0000 C   0  0  0  0  0  0  0  0  0  0  0  0
    5.9961   -6.8321    0.0000 C   0  0  0  0  0  0  0  0  0  0  0  0
    5.9961   -6.0071    0.0000 C   0  0  0  0  0  0  0  0  0  0  0  0
    7.4250   -6.0071    0.0000 C   0  0  0  0  0  0  0  0  0  0  0  0
    6.7105   -8.0696    0.0000 O   0  0  0  0  0  0  0  0  0  0  0  0
    7.7270   -7.9590    0.0000 C   0  0  0  0  0  0  0  0  0  0  0  0
    8.5520   -7.9590    0.0000 C   0  0  0  0  0  0  0  0  0  0  0  0
  1  2  1  0  0  0  0
  2  3  1  0  0  0  0
  3  4  2  0  0  0  0
  4  5  1  0  0  0  0
  5  6  1  0  0  0  0
  6  7  1  0  0  0  0
  7  8  1  0  0  0  0
  8  9  2  0  0  0  0
  9 10  1  0  0  0  0
 10 11  2  0  0  0  0
  1 11  1  0  0  0  0
  1 12  2  0  0  0  0
 12  8  1  0  0  0  0
  4 12  1  0  0  0  0
  9 13  1  0  0  0  0
  7 14  1  0  0  0  0
  7 15  1  0  0  0  0
M  CHG  1   7   1
M  END
>  <cdx:groupId>
1038

>  <cdx:fragmentId>
994

$$$$
