301143.cdx
  Mrv1902 05222410232D          

 47 49  0  0  0  0            999 V2000
    5.7475   -4.7850    0.0000 C   0  0  1  0  0  0  0  0  0  0  0  0
    6.4620   -5.1975    0.0000 C   0  0  0  0  0  0  0  0  0  0  0  0
    7.1764   -4.7850    0.0000 N   0  0  0  0  0  0  0  0  0  0  0  0
    6.4620   -6.0225    0.0000 O   0  0  0  0  0  0  0  0  0  0  0  0
    7.8909   -5.1975    0.0000 C   0  0  1  0  0  0  0  0  0  0  0  0
    8.6054   -4.7850    0.0000 C   0  0  1  0  0  0  0  0  0  0  0  0
    7.8909   -6.0225    0.0000 C   0  0  0  0  0  0  0  0  0  0  0  0
    9.3199   -5.1975    0.0000 C   0  0  0  0  0  0  0  0  0  0  0  0
    8.6054   -3.9600    0.0000 C   0  0  0  0  0  0  0  0  0  0  0  0
    9.3199   -3.5475    0.0000 C   0  0  0  0  0  0  0  0  0  0  0  0
    8.6054   -6.4350    0.0000 N   0  0  0  0  0  0  0  0  0  0  0  0
    7.1764   -6.4350    0.0000 O   0  0  0  0  0  0  0  0  0  0  0  0
    8.6054   -7.2600    0.0000 C   0  0  1  0  0  0  0  0  0  0  0  0
    9.3199   -7.6725    0.0000 C   0  0  0  0  0  0  0  0  0  0  0  0
    7.8909   -7.6725    0.0000 C   0  0  0  0  0  0  0  0  0  0  0  0
    7.1764   -7.2600    0.0000 O   0  0  0  0  0  0  0  0  0  0  0  0
    7.8909   -8.4975    0.0000 N   0  0  0  0  0  0  0  0  0  0  0  0
   10.0343   -7.2600    0.0000 C   0  0  0  0  0  0  0  0  0  0  0  0
   10.7488   -7.6725    0.0000 C   0  0  0  0  0  0  0  0  0  0  0  0
   11.4633   -7.2600    0.0000 C   0  0  0  0  0  0  0  0  0  0  0  0
   11.4633   -6.4350    0.0000 C   0  0  0  0  0  0  0  0  0  0  0  0
   10.7488   -6.0225    0.0000 C   0  0  0  0  0  0  0  0  0  0  0  0
   10.0343   -6.4350    0.0000 C   0  0  0  0  0  0  0  0  0  0  0  0
    7.1764   -8.9100    0.0000 C   0  0  0  0  0  0  0  0  0  0  0  0
    6.4620   -8.4975    0.0000 C   0  0  0  0  0  0  0  0  0  0  0  0
    5.7475   -8.9100    0.0000 N   0  0  0  0  0  0  0  0  0  0  0  0
    6.4620   -7.6725    0.0000 O   0  0  0  0  0  0  0  0  0  0  0  0
    5.0801   -8.4251    0.0000 C   0  0  1  0  0  0  0  0  0  0  0  0
    4.4126   -8.9100    0.0000 C   0  0  0  0  0  0  0  0  0  0  0  0
    4.6675   -9.6946    0.0000 C   0  0  0  0  0  0  0  0  0  0  0  0
    5.4925   -9.6946    0.0000 C   0  0  0  0  0  0  0  0  0  0  0  0
    5.0801   -7.6001    0.0000 C   0  0  0  0  0  0  0  0  0  0  0  0
    4.3656   -8.0126    0.0000 H   0  0  0  0  0  0  0  0  0  0  0  0
    4.3656   -7.1876    0.0000 N   0  0  0  0  0  0  0  0  0  0  0  0
    5.7946   -7.1876    0.0000 O   0  0  0  0  0  0  0  0  0  0  0  0
    4.3656   -6.3626    0.0000 C   0  0  1  0  0  0  0  0  0  0  0  0
    3.6511   -5.9501    0.0000 C   0  0  0  0  0  0  0  0  0  0  0  0
    5.0801   -5.9501    0.0000 C   0  0  0  0  0  0  0  0  0  0  0  0
    2.9367   -6.3626    0.0000 C   0  0  0  0  0  0  0  0  0  0  0  0
    3.6511   -5.1251    0.0000 C   0  0  0  0  0  0  0  0  0  0  0  0
    5.7946   -6.3626    0.0000 O   0  0  0  0  0  0  0  0  0  0  0  0
    5.0801   -5.1251    0.0000 N   0  0  0  0  0  0  0  0  0  0  0  0
    5.7691   -3.9603    0.0000 C   0  0  2  0  0  0  0  0  0  0  0  0
    5.0330   -4.3725    0.0000 H   0  0  0  0  0  0  0  0  0  0  0  0
    5.0657   -3.5292    0.0000 O   0  0  0  0  0  0  0  0  0  0  0  0
    6.4941   -3.5666    0.0000 C   0  0  0  0  0  0  0  0  0  0  0  0
    7.8909   -4.3725    0.0000 H   0  0  0  0  0  0  0  0  0  0  0  0
  1  2  1  0  0  0  0
  2  3  1  0  0  0  0
  2  4  2  0  0  0  0
  3  5  1  0  0  0  0
  5  6  1  0  0  0  0
  5  7  1  0  0  0  0
  6  8  1  6  0  0  0
  6  9  1  0  0  0  0
  9 10  1  0  0  0  0
  7 11  1  0  0  0  0
  7 12  2  0  0  0  0
 11 13  1  0  0  0  0
 13 14  1  1  0  0  0
 13 15  1  0  0  0  0
 15 16  2  0  0  0  0
 15 17  1  0  0  0  0
 14 18  1  0  0  0  0
 18 19  2  0  0  0  0
 19 20  1  0  0  0  0
 20 21  2  0  0  0  0
 21 22  1  0  0  0  0
 22 23  2  0  0  0  0
 23 18  1  0  0  0  0
 17 24  1  0  0  0  0
 24 25  1  0  0  0  0
 25 26  1  0  0  0  0
 25 27  2  0  0  0  0
 26 28  1  0  0  0  0
 28 29  1  0  0  0  0
 29 30  1  0  0  0  0
 30 31  1  0  0  0  0
 31 26  1  0  0  0  0
 28 32  1  0  0  0  0
 28 33  1  6  0  0  0
 32 34  1  0  0  0  0
 32 35  2  0  0  0  0
 34 36  1  0  0  0  0
 36 37  1  1  0  0  0
 36 38  1  0  0  0  0
 37 39  1  0  0  0  0
 37 40  1  0  0  0  0
 38 41  2  0  0  0  0
 38 42  1  0  0  0  0
  1 42  1  0  0  0  0
  1 43  1  0  0  0  0
  1 44  1  6  0  0  0
 43 45  1  6  0  0  0
 43 46  1  0  0  0  0
  5 47  1  6  0  0  0
M  END
>  <cdx:fragmentId>
781

$$$$
