301165.cdx
  Mrv1902 05222410242D          

 21 23  0  0  0  0            999 V2000
    7.2886   -6.4227    0.0000 O   0  0  0  0  0  0  0  0  0  0  0  0
    7.3625   -7.2444    0.0000 C   0  0  1  0  0  0  0  0  0  0  0  0
    8.1668   -7.4280    0.0000 C   0  0  2  0  0  0  0  0  0  0  0  0
    8.5900   -6.7198    0.0000 C   0  0  1  0  0  0  0  0  0  0  0  0
    8.0472   -6.0985    0.0000 C   0  0  0  0  0  0  0  0  0  0  0  0
    5.9329   -8.8387    0.0000 C   0  0  0  0  0  0  0  0  0  0  0  0
    5.4480   -8.1713    0.0000 C   0  0  0  0  0  0  0  0  0  0  0  0
    5.9329   -7.5038    0.0000 C   0  0  0  0  0  0  0  0  0  0  0  0
    6.7175   -7.7588    0.0000 C   0  0  1  0  0  0  0  0  0  0  0  0
    8.5248   -8.1713    0.0000 C   0  0  0  0  0  0  0  0  0  0  0  0
    8.1668   -8.9146    0.0000 C   0  0  0  0  0  0  0  0  0  0  0  0
    7.3625   -9.0982    0.0000 C   0  0  0  0  0  0  0  0  0  0  0  0
    6.7175   -8.5838    0.0000 C   0  0  2  0  0  0  0  0  0  0  0  0
    8.2307   -5.2942    0.0000 O   0  0  0  0  0  0  0  0  0  0  0  0
    5.6779   -6.7192    0.0000 C   0  0  0  0  0  0  0  0  0  0  0  0
    7.1789   -9.9025    0.0000 C   0  0  0  0  0  0  0  0  0  0  0  0
    9.4116   -6.6458    0.0000 C   0  0  0  0  0  0  0  0  0  0  0  0
    8.9918   -7.4280    0.0000 H   0  0  0  0  0  0  0  0  0  0  0  0
    6.5702   -9.3955    0.0000 H   0  0  0  0  0  0  0  0  0  0  0  0
    6.7175   -6.9338    0.0000 H   0  0  0  0  0  0  0  0  0  0  0  0
    7.3625   -8.0694    0.0000 H   0  0  0  0  0  0  0  0  0  0  0  0
  1  2  1  0  0  0  0
  2  3  1  0  0  0  0
  3  4  1  0  0  0  0
  4  5  1  0  0  0  0
  1  5  1  0  0  0  0
  6  7  1  0  0  0  0
  7  8  1  0  0  0  0
  8  9  1  0  0  0  0
 10 11  1  0  0  0  0
 11 12  1  0  0  0  0
 12 13  1  0  0  0  0
  6 13  1  0  0  0  0
  9 13  1  0  0  0  0
  9  2  1  0  0  0  0
 10  3  1  0  0  0  0
  5 14  2  0  0  0  0
  8 15  2  0  0  0  0
 12 16  2  0  0  0  0
  4 17  1  1  0  0  0
  3 18  1  1  0  0  0
 13 19  1  1  0  0  0
  9 20  1  1  0  0  0
  2 21  1  6  0  0  0
M  END
>  <cdx:groupId>
2142

>  <cdx:fragmentId>
2098

$$$$
