301170.cdx
  Mrv1902 05222410242D          

 20 21  0  0  0  0            999 V2000
    9.5887   -8.4080    0.0000 C   0  0  0  0  0  0  0  0  0  0  0  0
    8.8742   -8.8205    0.0000 C   0  0  0  0  0  0  0  0  0  0  0  0
    8.1597   -8.4080    0.0000 C   0  0  0  0  0  0  0  0  0  0  0  0
    8.1597   -7.5830    0.0000 C   0  0  0  0  0  0  0  0  0  0  0  0
    7.4453   -7.1705    0.0000 C   0  0  0  0  0  0  0  0  0  0  0  0
    9.5887   -7.5830    0.0000 O   0  0  0  0  0  0  0  0  0  0  0  0
   10.3031   -8.8205    0.0000 O   0  0  0  0  0  0  0  0  0  0  0  0
    7.4453   -8.8205    0.0000 C   0  0  0  0  0  0  0  0  0  0  0  0
    5.8051   -7.0480    0.0000 C   0  0  0  0  0  0  0  0  0  0  0  0
    5.2000   -7.6089    0.0000 C   0  0  0  0  0  0  0  0  0  0  0  0
    5.2613   -8.4316    0.0000 C   0  0  0  0  0  0  0  0  0  0  0  0
    5.9428   -8.8967    0.0000 C   0  0  0  0  0  0  0  0  0  0  0  0
    6.7312   -8.6538    0.0000 C   0  0  0  0  0  0  0  0  0  0  0  0
    7.0330   -7.8860    0.0000 O   0  0  0  0  0  0  0  0  0  0  0  0
    6.6208   -7.1714    0.0000 C   0  0  0  0  0  0  0  0  0  0  0  0
    6.7308   -7.5830    0.0000 C   0  0  0  0  0  0  0  0  0  0  0  0
    7.2921   -9.2589    0.0000 C   0  0  0  0  0  0  0  0  0  0  0  0
    5.5622   -6.2596    0.0000 C   0  0  0  0  0  0  0  0  0  0  0  0
    6.0163   -7.9955    0.0000 O   0  0  0  0  0  0  0  0  0  0  0  0
    4.5469   -8.8441    0.0000 O   0  0  0  0  0  0  0  0  0  0  0  0
  1  2  1  0  0  0  0
  2  3  2  0  0  0  0
  3  4  1  0  0  0  0
  4  5  2  0  0  0  0
  1  6  2  0  0  0  0
  1  7  1  0  0  0  0
  3  8  1  0  0  0  0
  9 10  1  0  0  0  0
 10 11  1  0  0  0  0
 11 12  1  0  0  0  0
 12 13  1  0  0  0  0
 13 14  1  0  0  0  0
 14 15  1  0  0  0  0
  9 15  1  0  0  0  0
  9 16  1  0  0  0  0
 16 13  1  0  0  0  0
 13 17  1  0  0  0  0
  9 18  1  0  0  0  0
 16 19  1  0  0  0  0
 11 20  1  0  0  0  0
  5 16  1  0  0  0  0
M  END
>  <cdx:groupId>
2475

>  <cdx:fragmentId>
2433

$$$$
