301164.cdx
  Mrv1902 05222410242D          

 26 29  0  0  0  0            999 V2000
    7.0678   -8.5816    0.0000 C   0  0  0  0  0  0  0  0  0  0  0  0
    7.0678   -7.7566    0.0000 C   0  0  1  0  0  0  0  0  0  0  0  0
    7.7822   -7.3441    0.0000 C   0  0  2  0  0  0  0  0  0  0  0  0
    7.7822   -6.5191    0.0000 C   0  0  0  0  0  0  0  0  0  0  0  0
    6.3533   -8.9941    0.0000 O   0  0  0  0  0  0  0  0  0  0  0  0
    7.0678   -6.1066    0.0000 O   0  0  0  0  0  0  0  0  0  0  0  0
    8.4967   -7.7566    0.0000 C   0  0  0  0  0  0  0  0  0  0  0  0
   11.4247   -6.2642    0.0000 O   0  0  0  0  0  0  0  0  0  0  0  0
   11.9097   -6.9316    0.0000 C   0  0  0  0  0  0  0  0  0  0  0  0
   11.4247   -7.5990    0.0000 O   0  0  0  0  0  0  0  0  0  0  0  0
   10.6401   -7.3441    0.0000 C   0  0  0  0  0  0  0  0  0  0  0  0
   10.6401   -6.5191    0.0000 C   0  0  0  0  0  0  0  0  0  0  0  0
    9.9256   -7.7566    0.0000 C   0  0  0  0  0  0  0  0  0  0  0  0
    9.2112   -7.3441    0.0000 C   0  0  0  0  0  0  0  0  0  0  0  0
    9.2112   -6.5191    0.0000 C   0  0  0  0  0  0  0  0  0  0  0  0
    9.9256   -6.1066    0.0000 C   0  0  0  0  0  0  0  0  0  0  0  0
    6.3533   -7.3441    0.0000 C   0  0  0  0  0  0  0  0  0  0  0  0
    3.4253   -8.8365    0.0000 O   0  0  0  0  0  0  0  0  0  0  0  0
    2.9403   -8.1691    0.0000 C   0  0  0  0  0  0  0  0  0  0  0  0
    3.4253   -7.5017    0.0000 O   0  0  0  0  0  0  0  0  0  0  0  0
    4.2099   -7.7566    0.0000 C   0  0  0  0  0  0  0  0  0  0  0  0
    4.2099   -8.5816    0.0000 C   0  0  0  0  0  0  0  0  0  0  0  0
    4.9244   -7.3441    0.0000 C   0  0  0  0  0  0  0  0  0  0  0  0
    5.6388   -7.7566    0.0000 C   0  0  0  0  0  0  0  0  0  0  0  0
    5.6388   -8.5816    0.0000 C   0  0  0  0  0  0  0  0  0  0  0  0
    4.9244   -8.9941    0.0000 C   0  0  0  0  0  0  0  0  0  0  0  0
  2  1  1  6  0  0  0
  2  3  1  0  0  0  0
  3  4  1  6  0  0  0
  1  5  1  0  0  0  0
  4  6  1  0  0  0  0
  8  9  1  0  0  0  0
  9 10  1  0  0  0  0
 10 11  1  0  0  0  0
 11 12  1  0  0  0  0
  8 12  1  0  0  0  0
 13 14  1  0  0  0  0
 14 15  2  0  0  0  0
 15 16  1  0  0  0  0
 16 12  2  0  0  0  0
 13 11  2  0  0  0  0
  7 14  1  0  0  0  0
  3  7  1  0  0  0  0
 18 19  1  0  0  0  0
 19 20  1  0  0  0  0
 20 21  1  0  0  0  0
 21 22  1  0  0  0  0
 18 22  1  0  0  0  0
 23 24  1  0  0  0  0
 24 25  2  0  0  0  0
 25 26  1  0  0  0  0
 26 22  2  0  0  0  0
 23 21  2  0  0  0  0
 17 24  1  0  0  0  0
  2 17  1  0  0  0  0
M  END
>  <cdx:groupId>
2069

>  <cdx:fragmentId>
2005

$$$$
