301101.cdx
  Mrv1902 05222410282D          

 29 32  0  0  0  0            999 V2000
    7.9307   -4.4682    0.0000 C   0  0  0  0  0  0  0  0  0  0  0  0
    8.3479   -3.7570    0.0000 C   0  0  0  0  0  0  0  0  0  0  0  0
    9.1684   -3.8432    0.0000 O   0  0  0  0  0  0  0  0  0  0  0  0
    9.4298   -4.6257    0.0000 C   0  0  1  0  0  0  0  0  0  0  0  0
    9.9147   -5.2932    0.0000 C   0  0  0  0  0  0  0  0  0  0  0  0
    9.4298   -5.9606    0.0000 C   0  0  0  0  0  0  0  0  0  0  0  0
    8.6451   -5.7057    0.0000 C   0  0  1  0  0  0  0  0  0  0  0  0
    7.9307   -6.1182    0.0000 C   0  0  1  0  0  0  0  0  0  0  0  0
    7.2162   -5.7057    0.0000 O   0  0  0  0  0  0  0  0  0  0  0  0
    7.2162   -4.8807    0.0000 C   0  0  0  0  0  0  0  0  0  0  0  0
    8.6451   -4.8807    0.0000 C   0  0  1  0  0  0  0  0  0  0  0  0
    7.9354   -3.0425    0.0000 O   0  0  0  0  0  0  0  0  0  0  0  0
    7.9307   -6.9432    0.0000 O   0  0  0  0  0  0  0  0  0  0  0  0
    6.5017   -6.9432    0.0000 O   0  0  0  0  0  0  0  0  0  0  0  0
    7.2162   -7.3557    0.0000 C   0  0  2  0  0  0  0  0  0  0  0  0
    7.2162   -8.1807    0.0000 C   0  0  1  0  0  0  0  0  0  0  0  0
    6.5017   -8.5932    0.0000 C   0  0  2  0  0  0  0  0  0  0  0  0
    5.7873   -8.1807    0.0000 C   0  0  1  0  0  0  0  0  0  0  0  0
    5.7873   -7.3557    0.0000 C   0  0  1  0  0  0  0  0  0  0  0  0
    5.0728   -6.9432    0.0000 C   0  0  0  0  0  0  0  0  0  0  0  0
    4.3583   -7.3557    0.0000 O   0  0  0  0  0  0  0  0  0  0  0  0
    5.0728   -8.5932    0.0000 O   0  0  0  0  0  0  0  0  0  0  0  0
    6.5017   -9.4182    0.0000 O   0  0  0  0  0  0  0  0  0  0  0  0
    7.9307   -8.5932    0.0000 O   0  0  0  0  0  0  0  0  0  0  0  0
    9.6847   -6.7452    0.0000 C   0  0  0  0  0  0  0  0  0  0  0  0
   10.4917   -6.9168    0.0000 O   0  0  0  0  0  0  0  0  0  0  0  0
   10.1442   -4.2132    0.0000 H   0  0  0  0  0  0  0  0  0  0  0  0
    8.7314   -6.5262    0.0000 H   0  0  0  0  0  0  0  0  0  0  0  0
    8.6451   -4.2619    0.0000 H   0  0  0  0  0  0  0  0  0  0  0  0
  1  2  1  0  0  0  0
  2  3  1  0  0  0  0
  3  4  1  0  0  0  0
  4  5  1  0  0  0  0
  5  6  2  0  0  0  0
  6  7  1  0  0  0  0
  7  8  1  0  0  0  0
  8  9  1  0  0  0  0
  9 10  1  0  0  0  0
  1 10  2  0  0  0  0
  1 11  1  0  0  0  0
 11  7  1  0  0  0  0
  4 11  1  0  0  0  0
  2 12  2  0  0  0  0
 14 15  1  0  0  0  0
 15 16  1  0  0  0  0
 16 17  1  0  0  0  0
 17 18  1  0  0  0  0
 18 19  1  0  0  0  0
 14 19  1  0  0  0  0
 20 21  1  0  0  0  0
 19 20  1  1  0  0  0
 18 22  1  6  0  0  0
 17 23  1  1  0  0  0
 16 24  1  6  0  0  0
 15 13  1  1  0  0  0
  8 13  1  6  0  0  0
 25 26  1  0  0  0  0
  6 25  1  0  0  0  0
  4 27  1  6  0  0  0
  7 28  1  6  0  0  0
 11 29  1  6  0  0  0
M  END
>  <cdx:groupId>
209

>  <cdx:fragmentId>
122

$$$$
