301131.cdx
  Mrv1902 05222410182D          

 32 36  0  0  0  0            999 V2000
    8.3507   -6.7169    0.0000 C   0  0  0  0  0  0  0  0  0  0  0  0
    9.0651   -6.3044    0.0000 C   0  0  0  0  0  0  0  0  0  0  0  0
    9.7796   -6.7169    0.0000 C   0  0  0  0  0  0  0  0  0  0  0  0
    9.7796   -7.5419    0.0000 C   0  0  0  0  0  0  0  0  0  0  0  0
    9.0651   -7.9544    0.0000 C   0  0  0  0  0  0  0  0  0  0  0  0
    9.0651   -8.7794    0.0000 C   0  0  0  0  0  0  0  0  0  0  0  0
    8.3507   -9.1919    0.0000 C   0  0  0  0  0  0  0  0  0  0  0  0
    7.6362   -8.7794    0.0000 C   0  0  0  0  0  0  0  0  0  0  0  0
    6.9217   -9.1919    0.0000 C   0  0  0  0  0  0  0  0  0  0  0  0
    6.9217  -10.0169    0.0000 C   0  0  0  0  0  0  0  0  0  0  0  0
    6.2072  -10.4294    0.0000 C   0  0  0  0  0  0  0  0  0  0  0  0
    5.4928  -10.0169    0.0000 C   0  0  0  0  0  0  0  0  0  0  0  0
    4.7783  -10.4294    0.0000 C   0  0  0  0  0  0  0  0  0  0  0  0
    4.0638  -10.0169    0.0000 C   0  0  0  0  0  0  0  0  0  0  0  0
    4.0638   -9.1919    0.0000 C   0  0  0  0  0  0  0  0  0  0  0  0
    4.7783   -8.7794    0.0000 C   0  0  0  0  0  0  0  0  0  0  0  0
    5.4928   -9.1919    0.0000 C   0  0  0  0  0  0  0  0  0  0  0  0
    6.2072   -8.7794    0.0000 C   0  0  0  0  0  0  0  0  0  0  0  0
    6.2072   -7.9544    0.0000 C   0  0  0  0  0  0  0  0  0  0  0  0
    6.9217   -7.5419    0.0000 C   0  0  0  0  0  0  0  0  0  0  0  0
    7.6362   -7.9544    0.0000 C   0  0  0  0  0  0  0  0  0  0  0  0
    8.3507   -7.5419    0.0000 C   0  0  0  0  0  0  0  0  0  0  0  0
    9.7796   -8.3669    0.0000 C   0  0  0  0  0  0  0  0  0  0  0  0
    9.7796   -9.1919    0.0000 O   0  0  0  0  0  0  0  0  0  0  0  0
   10.4941   -7.9544    0.0000 O   0  0  0  0  0  0  0  0  0  0  0  0
    5.4928   -8.3669    0.0000 C   0  0  0  0  0  0  0  0  0  0  0  0
    5.1908  -11.1438    0.0000 C   0  0  0  0  0  0  0  0  0  0  0  0
    4.3658  -11.1438    0.0000 C   0  0  0  0  0  0  0  0  0  0  0  0
    7.6362   -9.6044    0.0000 C   0  0  0  0  0  0  0  0  0  0  0  0
    8.6526   -5.5899    0.0000 C   0  0  0  0  0  0  0  0  0  0  0  0
    9.4776   -5.5899    0.0000 C   0  0  0  0  0  0  0  0  0  0  0  0
    6.9217   -8.3669    0.0000 C   0  0  0  0  0  0  0  0  0  0  0  0
  1  2  1  0  0  0  0
  2  3  1  0  0  0  0
  3  4  1  0  0  0  0
  4  5  1  0  0  0  0
  5  6  1  0  0  0  0
  6  7  1  0  0  0  0
  7  8  1  0  0  0  0
  8  9  1  0  0  0  0
  9 10  1  0  0  0  0
 10 11  1  0  0  0  0
 11 12  1  0  0  0  0
 12 13  1  0  0  0  0
 13 14  1  0  0  0  0
 14 15  1  0  0  0  0
 15 16  1  0  0  0  0
 16 17  1  0  0  0  0
 12 17  1  0  0  0  0
 17 18  1  0  0  0  0
  9 18  1  0  0  0  0
 18 19  1  0  0  0  0
 19 20  1  0  0  0  0
 20 21  2  0  0  0  0
  8 21  1  0  0  0  0
 21 22  1  0  0  0  0
  5 22  1  0  0  0  0
  1 22  1  0  0  0  0
 23 24  2  0  0  0  0
 23 25  1  0  0  0  0
  5 23  1  0  0  0  0
 17 26  1  0  0  0  0
 13 27  1  0  0  0  0
 13 28  1  0  0  0  0
  8 29  1  0  0  0  0
  2 30  1  0  0  0  0
  2 31  1  0  0  0  0
  9 32  1  0  0  0  0
M  END
>  <cdx:groupId>
2176

>  <cdx:fragmentId>
2079

$$$$
