301199.cdx
  Mrv1902 05222410232D          

 26 25  0  0  0  0            999 V2000
    2.2056   -9.0354    0.0000 C   0  0  0  0  0  0  0  0  0  0  0  0
    2.9200   -8.6229    0.0000 C   0  0  0  0  0  0  0  0  0  0  0  0
    3.6345   -9.0354    0.0000 C   0  0  0  0  0  0  0  0  0  0  0  0
    4.3490   -8.6229    0.0000 C   0  0  0  0  0  0  0  0  0  0  0  0
    5.0634   -9.0354    0.0000 C   0  0  0  0  0  0  0  0  0  0  0  0
    5.7779   -8.6229    0.0000 C   0  0  0  0  0  0  0  0  0  0  0  0
    6.4924   -9.0354    0.0000 C   0  0  0  0  0  0  0  0  0  0  0  0
    7.2069   -8.6229    0.0000 C   0  0  0  0  0  0  0  0  0  0  0  0
    7.9213   -9.0354    0.0000 C   0  0  0  0  0  0  0  0  0  0  0  0
    8.6358   -8.6229    0.0000 C   0  0  0  0  0  0  0  0  0  0  0  0
    9.3503   -9.0354    0.0000 C   0  0  0  0  0  0  0  0  0  0  0  0
   10.0647   -8.6229    0.0000 C   0  0  0  0  0  0  0  0  0  0  0  0
   10.7792   -9.0354    0.0000 C   0  0  0  0  0  0  0  0  0  0  0  0
   11.4937   -8.6229    0.0000 C   0  0  0  0  0  0  0  0  0  0  0  0
   12.2081   -9.0354    0.0000 C   0  0  0  0  0  0  0  0  0  0  0  0
   12.9226   -8.6229    0.0000 C   0  0  0  0  0  0  0  0  0  0  0  0
   13.6371   -9.0354    0.0000 C   0  0  0  0  0  0  0  0  0  0  0  0
   14.3516   -8.6229    0.0000 C   0  0  0  0  0  0  0  0  0  0  0  0
   15.0660   -9.0354    0.0000 C   0  0  0  0  0  0  0  0  0  0  0  0
   15.7805   -8.6229    0.0000 C   0  0  0  0  0  0  0  0  0  0  0  0
   16.4950   -9.0354    0.0000 C   0  0  0  0  0  0  0  0  0  0  0  0
   17.2094   -8.6229    0.0000 C   0  0  0  0  0  0  0  0  0  0  0  0
    2.2056   -9.8604    0.0000 O   0  0  0  0  0  0  0  0  0  0  0  0
    1.4911   -8.6229    0.0000 O   0  0  0  0  0  0  0  0  0  0  0  0
   17.2094   -7.7979    0.0000 O   0  0  0  0  0  0  0  0  0  0  0  0
   17.9239   -9.0354    0.0000 O   0  0  0  0  0  0  0  0  0  0  0  0
  1  2  1  0  0  0  0
  2  3  1  0  0  0  0
  3  4  1  0  0  0  0
  4  5  1  0  0  0  0
  5  6  1  0  0  0  0
  6  7  1  0  0  0  0
  7  8  1  0  0  0  0
  8  9  1  0  0  0  0
  9 10  1  0  0  0  0
 10 11  1  0  0  0  0
 11 12  1  0  0  0  0
 12 13  1  0  0  0  0
 13 14  1  0  0  0  0
 14 15  1  0  0  0  0
 15 16  1  0  0  0  0
 16 17  1  0  0  0  0
 17 18  1  0  0  0  0
 18 19  1  0  0  0  0
 19 20  1  0  0  0  0
 20 21  1  0  0  0  0
 21 22  1  0  0  0  0
  1 23  2  0  0  0  0
  1 24  1  0  0  0  0
 22 25  2  0  0  0  0
 22 26  1  0  0  0  0
M  END
>  <cdx:fragmentId>
5129

$$$$
