30115.cdx
  Mrv1902 05222410262D          

 25 29  0  0  0  0            999 V2000
    3.0368   -6.7364    0.0000 C   0  0  0  0  0  0  0  0  0  0  0  0
    3.0368   -7.5614    0.0000 C   0  0  0  0  0  0  0  0  0  0  0  0
    3.7513   -7.9739    0.0000 C   0  0  0  0  0  0  0  0  0  0  0  0
    4.4657   -7.5614    0.0000 C   0  0  0  0  0  0  0  0  0  0  0  0
    4.4657   -6.7364    0.0000 C   0  0  0  0  0  0  0  0  0  0  0  0
    3.7513   -6.3239    0.0000 C   0  0  0  0  0  0  0  0  0  0  0  0
    5.2504   -7.8163    0.0000 N   0  0  0  0  0  0  0  0  0  0  0  0
    5.7353   -7.1489    0.0000 C   0  0  2  0  0  0  0  0  0  0  0  0
    5.2504   -6.4815    0.0000 C   0  0  2  0  0  0  0  0  0  0  0  0
    6.0932   -7.8922    0.0000 C   0  0  0  0  0  0  0  0  0  0  0  0
    6.8976   -8.0758    0.0000 N   0  0  0  0  0  0  0  0  0  0  0  0
    7.5426   -7.5614    0.0000 C   0  0  0  0  0  0  0  0  0  0  0  0
    7.5426   -6.7364    0.0000 C   0  0  0  0  0  0  0  0  0  0  0  0
    6.8976   -6.2220    0.0000 C   0  0  0  0  0  0  0  0  0  0  0  0
    6.0932   -6.4056    0.0000 N   0  0  0  0  0  0  0  0  0  0  0  0
    8.2570   -7.9739    0.0000 C   0  0  0  0  0  0  0  0  0  0  0  0
    8.9715   -7.5614    0.0000 C   0  0  0  0  0  0  0  0  0  0  0  0
    8.9715   -6.7364    0.0000 C   0  0  0  0  0  0  0  0  0  0  0  0
    8.2570   -6.3239    0.0000 C   0  0  0  0  0  0  0  0  0  0  0  0
    7.0811   -8.8801    0.0000 C   0  0  0  0  0  0  0  0  0  0  0  0
    7.0811   -5.4177    0.0000 O   0  0  0  0  0  0  0  0  0  0  0  0
    5.5789   -8.5372    0.0000 O   0  0  0  0  0  0  0  0  0  0  0  0
    5.2504   -5.6565    0.0000 C   0  0  0  0  0  0  0  0  0  0  0  0
    5.8522   -5.4850    0.0000 C   0  0  0  0  0  0  0  0  0  0  0  0
    4.6670   -5.8981    0.0000 O   0  0  0  0  0  0  0  0  0  0  0  0
  1  2  2  0  0  0  0
  2  3  1  0  0  0  0
  3  4  2  0  0  0  0
  4  5  1  0  0  0  0
  5  6  2  0  0  0  0
  6  1  1  0  0  0  0
  4  7  1  0  0  0  0
  7  8  1  0  0  0  0
  8  9  1  0  0  0  0
  9  5  1  0  0  0  0
  8 10  1  6  0  0  0
 10 11  1  0  0  0  0
 11 12  1  0  0  0  0
 12 13  2  0  0  0  0
 13 14  1  0  0  0  0
 14 15  1  0  0  0  0
  8 15  1  1  0  0  0
 12 16  1  0  0  0  0
 16 17  2  0  0  0  0
 17 18  1  0  0  0  0
 18 19  2  0  0  0  0
 19 13  1  0  0  0  0
 11 20  1  0  0  0  0
 14 21  2  0  0  0  0
 10 22  2  0  0  0  0
  9 23  1  0  0  0  0
 15 24  1  0  0  0  0
 23 24  1  0  0  0  0
  9 25  1  6  0  0  0
M  END
>  <cdx:fragmentId>
5

$$$$
