301114.cdx
  Mrv1902 05222410282D          

 12 12  0  0  0  0            999 V2000
    6.5634   -6.8200    0.0000 O   0  0  0  0  0  0  0  0  0  0  0  0
    6.0114   -6.2069    0.0000 C   0  0  0  0  0  0  0  0  0  0  0  0
    6.4239   -5.4924    0.0000 C   0  0  0  0  0  0  0  0  0  0  0  0
    7.2309   -5.6640    0.0000 C   0  0  0  0  0  0  0  0  0  0  0  0
    7.3171   -6.4844    0.0000 C   0  0  1  0  0  0  0  0  0  0  0  0
    5.1909   -6.2931    0.0000 O   0  0  0  0  0  0  0  0  0  0  0  0
    6.0883   -4.7388    0.0000 O   0  0  0  0  0  0  0  0  0  0  0  0
    7.8439   -5.1119    0.0000 O   0  0  0  0  0  0  0  0  0  0  0  0
    8.0316   -6.8969    0.0000 C   0  0  2  0  0  0  0  0  0  0  0  0
    8.7460   -6.4844    0.0000 C   0  0  0  0  0  0  0  0  0  0  0  0
    9.4605   -6.8969    0.0000 O   0  0  0  0  0  0  0  0  0  0  0  0
    8.0316   -7.7219    0.0000 O   0  0  0  0  0  0  0  0  0  0  0  0
  1  2  1  0  0  0  0
  2  3  1  0  0  0  0
  3  4  1  0  0  0  0
  4  5  1  0  0  0  0
  5  1  1  1  0  0  0
  2  6  2  0  0  0  0
  3  7  2  0  0  0  0
  4  8  2  0  0  0  0
  9 10  1  0  0  0  0
 10 11  1  0  0  0  0
  9 12  1  6  0  0  0
  5  9  1  0  0  0  0
M  END
>  <cdx:groupId>
986

>  <cdx:fragmentId>
953

$$$$
