301182.cdx
  Mrv1902 05222410222D          

 12 13  0  0  0  0            999 V2000
    7.7857   -7.3414    0.0000 C   0  0  0  0  0  0  0  0  0  0  0  0
    8.5001   -7.7539    0.0000 C   0  0  0  0  0  0  0  0  0  0  0  0
    8.5001   -8.5789    0.0000 C   0  0  0  0  0  0  0  0  0  0  0  0
    7.7857   -8.9914    0.0000 C   0  0  0  0  0  0  0  0  0  0  0  0
    7.0712   -8.5789    0.0000 C   0  0  0  0  0  0  0  0  0  0  0  0
    6.3567   -8.9914    0.0000 C   0  0  0  0  0  0  0  0  0  0  0  0
    5.6423   -8.5789    0.0000 C   0  0  0  0  0  0  0  0  0  0  0  0
    5.6423   -7.7539    0.0000 C   0  0  0  0  0  0  0  0  0  0  0  0
    6.3567   -7.3414    0.0000 C   0  0  0  0  0  0  0  0  0  0  0  0
    7.0712   -7.7539    0.0000 C   0  0  0  0  0  0  0  0  0  0  0  0
    9.2146   -7.3414    0.0000 C   0  0  0  0  0  0  0  0  0  0  0  0
    7.7857   -6.5164    0.0000 C   0  0  0  0  0  0  0  0  0  0  0  0
  1  2  1  0  0  0  0
  2  3  2  0  0  0  0
  3  4  1  0  0  0  0
  4  5  2  0  0  0  0
  5  6  1  0  0  0  0
  6  7  2  0  0  0  0
  7  8  1  0  0  0  0
  8  9  2  0  0  0  0
  9 10  1  0  0  0  0
  1 10  2  0  0  0  0
  5 10  1  0  0  0  0
  2 11  1  0  0  0  0
  1 12  1  0  0  0  0
M  END
>  <cdx:groupId>
3218

>  <cdx:fragmentId>
3184

$$$$
