301105.cdx
  Mrv1902 05222410262D          

 25 27  0  0  0  0            999 V2000
    5.2850   -6.3372    0.0000 C   0  0  0  0  0  0  0  0  0  0  0  0
    4.5706   -6.7497    0.0000 C   0  0  0  0  0  0  0  0  0  0  0  0
    4.5706   -7.5747    0.0000 C   0  0  0  0  0  0  0  0  0  0  0  0
    5.2850   -7.9872    0.0000 C   0  0  0  0  0  0  0  0  0  0  0  0
    5.9995   -7.5747    0.0000 C   0  0  0  0  0  0  0  0  0  0  0  0
    6.7140   -7.9872    0.0000 C   0  0  0  0  0  0  0  0  0  0  0  0
    7.4284   -7.5747    0.0000 C   0  0  0  0  0  0  0  0  0  0  0  0
    7.4284   -6.7497    0.0000 C   0  0  0  0  0  0  0  0  0  0  0  0
    6.7140   -6.3372    0.0000 C   0  0  0  0  0  0  0  0  0  0  0  0
    5.9995   -6.7497    0.0000 C   0  0  0  0  0  0  0  0  0  0  0  0
    8.1429   -6.3372    0.0000 C   0  0  0  0  0  0  0  0  0  0  0  0
    5.9995   -5.9247    0.0000 C   0  0  0  0  0  0  0  0  0  0  0  0
    5.6975   -8.7017    0.0000 C   0  0  0  0  0  0  0  0  0  0  0  0
    4.8725   -8.7017    0.0000 C   0  0  0  0  0  0  0  0  0  0  0  0
    6.7140   -5.5122    0.0000 C   0  0  0  0  0  0  0  0  0  0  0  0
    7.4284   -5.0997    0.0000 C   0  0  0  0  0  0  0  0  0  0  0  0
    7.4284   -4.2747    0.0000 C   0  0  0  0  0  0  0  0  0  0  0  0
    8.1429   -3.8622    0.0000 C   0  0  0  0  0  0  0  0  0  0  0  0
    8.8574   -4.2747    0.0000 C   0  0  0  0  0  0  0  0  0  0  0  0
    8.8574   -5.0997    0.0000 C   0  0  0  0  0  0  0  0  0  0  0  0
    8.1429   -5.5122    0.0000 C   0  0  0  0  0  0  0  0  0  0  0  0
    9.5719   -5.5122    0.0000 O   0  0  0  0  0  0  0  0  0  0  0  0
   10.2863   -5.0997    0.0000 C   0  0  0  0  0  0  0  0  0  0  0  0
    6.7140   -3.8622    0.0000 O   0  0  0  0  0  0  0  0  0  0  0  0
    5.9995   -4.2747    0.0000 C   0  0  0  0  0  0  0  0  0  0  0  0
  1  2  1  0  0  0  0
  2  3  1  0  0  0  0
  3  4  1  0  0  0  0
  4  5  1  0  0  0  0
  5  6  1  0  0  0  0
  6  7  1  0  0  0  0
  7  8  1  0  0  0  0
  8  9  1  0  0  0  0
  9 10  1  0  0  0  0
  1 10  1  0  0  0  0
  5 10  1  0  0  0  0
  8 11  2  0  0  0  0
 10 12  1  0  0  0  0
  4 13  1  0  0  0  0
  4 14  1  0  0  0  0
 16 17  1  0  0  0  0
 17 18  2  0  0  0  0
 18 19  1  0  0  0  0
 19 20  2  0  0  0  0
 20 21  1  0  0  0  0
 16 21  2  0  0  0  0
 22 23  1  0  0  0  0
 20 22  1  0  0  0  0
 24 25  1  0  0  0  0
 17 24  1  0  0  0  0
 15 16  1  0  0  0  0
  9 15  1  0  0  0  0
M  END
>  <cdx:groupId>
79

>  <cdx:fragmentId>
5

$$$$
