301190.cdx
  Mrv1902 05222410212D          

 29 32  0  0  0  0            999 V2000
    9.3105   -7.6076    0.0000 O   0  0  0  0  0  0  0  0  0  0  0  0
    8.5960   -7.1951    0.0000 C   0  0  1  0  0  0  0  0  0  0  0  0
    7.8815   -7.6076    0.0000 C   0  0  0  0  0  0  0  0  0  0  0  0
    7.8815   -8.4326    0.0000 C   0  0  1  0  0  0  0  0  0  0  0  0
    7.1671   -8.8451    0.0000 C   0  0  1  0  0  0  0  0  0  0  0  0
    7.1671   -9.6701    0.0000 C   0  0  2  0  0  0  0  0  0  0  0  0
    7.8815  -10.0826    0.0000 C   0  0  0  0  0  0  0  0  0  0  0  0
    8.5960   -9.6701    0.0000 C   0  0  0  0  0  0  0  0  0  0  0  0
    8.5960   -8.8451    0.0000 C   0  0  2  0  0  0  0  0  0  0  0  0
    9.3105   -8.4326    0.0000 C   0  0  0  0  0  0  0  0  0  0  0  0
    6.4526  -10.0826    0.0000 C   0  0  1  0  0  0  0  0  0  0  0  0
    5.7381   -9.6701    0.0000 C   0  0  0  0  0  0  0  0  0  0  0  0
    5.7381   -8.8451    0.0000 C   0  0  1  0  0  0  0  0  0  0  0  0
    6.4526   -8.4326    0.0000 C   0  0  0  0  0  0  0  0  0  0  0  0
    6.4526  -10.9076    0.0000 C   0  0  0  0  0  0  0  0  0  0  0  0
    7.1671  -11.3201    0.0000 O   0  0  0  0  0  0  0  0  0  0  0  0
    5.7381  -11.3201    0.0000 O   0  0  0  0  0  0  0  0  0  0  0  0
    7.8815  -10.9076    0.0000 O   0  0  0  0  0  0  0  0  0  0  0  0
   10.0249   -8.8451    0.0000 O   0  0  0  0  0  0  0  0  0  0  0  0
    7.8815   -9.2576    0.0000 C   0  0  0  0  0  0  0  0  0  0  0  0
    5.0236   -8.4326    0.0000 O   0  0  0  0  0  0  0  0  0  0  0  0
    9.0085   -5.1006    0.0000 O   0  0  0  0  0  0  0  0  0  0  0  0
    9.2634   -5.8852    0.0000 C   0  0  0  0  0  0  0  0  0  0  0  0
    8.5960   -6.3701    0.0000 C   0  0  0  0  0  0  0  0  0  0  0  0
    7.9286   -5.8852    0.0000 C   0  0  0  0  0  0  0  0  0  0  0  0
    8.1835   -5.1006    0.0000 C   0  0  0  0  0  0  0  0  0  0  0  0
    9.3105   -9.2576    0.0000 H   0  0  0  0  0  0  0  0  0  0  0  0
    7.1671  -10.4951    0.0000 H   0  0  0  0  0  0  0  0  0  0  0  0
    7.1671   -8.0201    0.0000 H   0  0  0  0  0  0  0  0  0  0  0  0
  1  2  1  0  0  0  0
  2  3  1  0  0  0  0
  3  4  1  0  0  0  0
  4  5  1  0  0  0  0
  5  6  1  0  0  0  0
  6  7  1  0  0  0  0
  7  8  1  0  0  0  0
  8  9  1  0  0  0  0
  4  9  1  0  0  0  0
  9 10  1  0  0  0  0
  1 10  1  0  0  0  0
 11 12  1  0  0  0  0
 12 13  1  0  0  0  0
 13 14  1  0  0  0  0
 14  5  1  0  0  0  0
 11  6  1  0  0  0  0
 15 16  2  0  0  0  0
 15 17  1  0  0  0  0
 11 15  1  6  0  0  0
  7 18  2  0  0  0  0
 10 19  2  0  0  0  0
  4 20  1  1  0  0  0
 13 21  1  6  0  0  0
 22 23  1  0  0  0  0
 23 24  2  0  0  0  0
 24 25  1  0  0  0  0
 25 26  2  0  0  0  0
 22 26  1  0  0  0  0
  2 24  1  1  0  0  0
  9 27  1  6  0  0  0
  6 28  1  1  0  0  0
  5 29  1  6  0  0  0
M  END
>  <cdx:groupId>
3868

>  <cdx:fragmentId>
3781

$$$$
