301110.cdx
  Mrv1902 05222410262D          

122132  0  0  0  0            999 V2000
    3.8267   -7.7291    0.0000 C   0  0  0  0  0  0  0  0  0  0  0  0
    3.1123   -8.1416    0.0000 C   0  0  0  0  0  0  0  0  0  0  0  0
    3.1123   -8.9666    0.0000 C   0  0  0  0  0  0  0  0  0  0  0  0
    2.3978   -9.3791    0.0000 C   0  0  0  0  0  0  0  0  0  0  0  0
    1.6833   -8.9666    0.0000 C   0  0  0  0  0  0  0  0  0  0  0  0
    1.6833   -8.1416    0.0000 C   0  0  0  0  0  0  0  0  0  0  0  0
    2.3978   -7.7291    0.0000 C   0  0  0  0  0  0  0  0  0  0  0  0
    3.8267   -6.9041    0.0000 O   0  0  0  0  0  0  0  0  0  0  0  0
    4.5412   -8.1416    0.0000 O   0  0  0  0  0  0  0  0  0  0  0  0
    0.9688   -7.7291    0.0000 O   0  0  0  0  0  0  0  0  0  0  0  0
    0.9688   -9.3791    0.0000 O   0  0  0  0  0  0  0  0  0  0  0  0
    2.3978  -10.2041    0.0000 O   0  0  0  0  0  0  0  0  0  0  0  0
    5.2557   -7.7291    0.0000 C   0  0  0  0  0  0  0  0  0  0  0  0
    5.2557   -6.9041    0.0000 C   0  0  0  0  0  0  0  0  0  0  0  0
    5.9701   -6.4916    0.0000 C   0  0  0  0  0  0  0  0  0  0  0  0
    6.6846   -6.9041    0.0000 C   0  0  0  0  0  0  0  0  0  0  0  0
    6.6846   -7.7291    0.0000 C   0  0  0  0  0  0  0  0  0  0  0  0
    5.9701   -8.1416    0.0000 C   0  0  0  0  0  0  0  0  0  0  0  0
    7.3991   -8.1416    0.0000 C   0  0  0  0  0  0  0  0  0  0  0  0
    7.3991   -8.9666    0.0000 O   0  0  0  0  0  0  0  0  0  0  0  0
    8.1136   -7.7291    0.0000 O   0  0  0  0  0  0  0  0  0  0  0  0
    8.8280   -8.1416    0.0000 C   0  0  0  0  0  0  0  0  0  0  0  0
    9.5425   -6.9041    0.0000 O   0  0  0  0  0  0  0  0  0  0  0  0
    9.5425   -7.7291    0.0000 C   0  0  1  0  0  0  0  0  0  0  0  0
   10.2570   -8.1416    0.0000 C   0  0  2  0  0  0  0  0  0  0  0  0
   10.9714   -7.7291    0.0000 C   0  0  1  0  0  0  0  0  0  0  0  0
   10.9714   -6.9041    0.0000 C   0  0  2  0  0  0  0  0  0  0  0  0
   10.2570   -6.4916    0.0000 C   0  0  2  0  0  0  0  0  0  0  0  0
   10.2570   -5.6666    0.0000 O   0  0  0  0  0  0  0  0  0  0  0  0
    9.5425   -5.2541    0.0000 C   0  0  0  0  0  0  0  0  0  0  0  0
    9.5425   -4.4291    0.0000 C   0  0  0  0  0  0  0  0  0  0  0  0
   10.2570   -4.0166    0.0000 C   0  0  0  0  0  0  0  0  0  0  0  0
   10.2570   -3.1916    0.0000 C   0  0  0  0  0  0  0  0  0  0  0  0
    9.5425   -2.7791    0.0000 C   0  0  0  0  0  0  0  0  0  0  0  0
    8.8280   -3.1916    0.0000 C   0  0  0  0  0  0  0  0  0  0  0  0
    8.8280   -4.0166    0.0000 C   0  0  0  0  0  0  0  0  0  0  0  0
    8.8280   -5.6666    0.0000 O   0  0  0  0  0  0  0  0  0  0  0  0
    8.1136   -2.7791    0.0000 O   0  0  0  0  0  0  0  0  0  0  0  0
    7.3991   -3.1916    0.0000 C   0  0  0  0  0  0  0  0  0  0  0  0
    6.6846   -2.7791    0.0000 C   0  0  0  0  0  0  0  0  0  0  0  0
    5.9701   -3.1916    0.0000 C   0  0  0  0  0  0  0  0  0  0  0  0
    5.2557   -2.7791    0.0000 C   0  0  0  0  0  0  0  0  0  0  0  0
    5.2557   -1.9541    0.0000 C   0  0  0  0  0  0  0  0  0  0  0  0
    5.9701   -1.5416    0.0000 C   0  0  0  0  0  0  0  0  0  0  0  0
    6.6846   -1.9541    0.0000 C   0  0  0  0  0  0  0  0  0  0  0  0
    7.3991   -4.0166    0.0000 O   0  0  0  0  0  0  0  0  0  0  0  0
    5.9701   -0.7166    0.0000 O   0  0  0  0  0  0  0  0  0  0  0  0
    4.5412   -1.5416    0.0000 O   0  0  0  0  0  0  0  0  0  0  0  0
    4.5412   -3.1916    0.0000 O   0  0  0  0  0  0  0  0  0  0  0  0
    9.5425   -1.9541    0.0000 O   0  0  0  0  0  0  0  0  0  0  0  0
   10.9714   -2.7791    0.0000 O   0  0  0  0  0  0  0  0  0  0  0  0
   11.6859   -6.4916    0.0000 O   0  0  0  0  0  0  0  0  0  0  0  0
   11.6859   -5.6666    0.0000 C   0  0  0  0  0  0  0  0  0  0  0  0
   12.4004   -5.2541    0.0000 C   0  0  0  0  0  0  0  0  0  0  0  0
   12.4004   -4.4291    0.0000 C   0  0  0  0  0  0  0  0  0  0  0  0
   13.1149   -4.0166    0.0000 C   0  0  0  0  0  0  0  0  0  0  0  0
   13.8293   -4.4291    0.0000 C   0  0  0  0  0  0  0  0  0  0  0  0
   13.8293   -5.2541    0.0000 C   0  0  0  0  0  0  0  0  0  0  0  0
   13.1149   -5.6666    0.0000 C   0  0  0  0  0  0  0  0  0  0  0  0
   10.9714   -5.2541    0.0000 O   0  0  0  0  0  0  0  0  0  0  0  0
   14.5438   -5.6666    0.0000 O   0  0  0  0  0  0  0  0  0  0  0  0
   15.2583   -5.2541    0.0000 C   0  0  0  0  0  0  0  0  0  0  0  0
   15.9727   -5.6666    0.0000 C   0  0  0  0  0  0  0  0  0  0  0  0
   16.6872   -5.2541    0.0000 C   0  0  0  0  0  0  0  0  0  0  0  0
   17.4017   -5.6666    0.0000 C   0  0  0  0  0  0  0  0  0  0  0  0
   17.4017   -6.4916    0.0000 C   0  0  0  0  0  0  0  0  0  0  0  0
   16.6872   -6.9041    0.0000 C   0  0  0  0  0  0  0  0  0  0  0  0
   15.9727   -6.4916    0.0000 C   0  0  0  0  0  0  0  0  0  0  0  0
   15.2583   -4.4291    0.0000 O   0  0  0  0  0  0  0  0  0  0  0  0
   16.6872   -7.7291    0.0000 O   0  0  0  0  0  0  0  0  0  0  0  0
   18.1162   -6.9041    0.0000 O   0  0  0  0  0  0  0  0  0  0  0  0
   18.1162   -5.2541    0.0000 O   0  0  0  0  0  0  0  0  0  0  0  0
   14.5438   -4.0166    0.0000 O   0  0  0  0  0  0  0  0  0  0  0  0
   13.1149   -3.1916    0.0000 O   0  0  0  0  0  0  0  0  0  0  0  0
   11.6859   -8.1416    0.0000 O   0  0  0  0  0  0  0  0  0  0  0  0
   12.4004   -7.7291    0.0000 C   0  0  0  0  0  0  0  0  0  0  0  0
   13.1149   -8.1416    0.0000 C   0  0  0  0  0  0  0  0  0  0  0  0
   13.8293   -7.7291    0.0000 C   0  0  0  0  0  0  0  0  0  0  0  0
   14.5438   -8.1416    0.0000 C   0  0  0  0  0  0  0  0  0  0  0  0
   14.5438   -8.9666    0.0000 C   0  0  0  0  0  0  0  0  0  0  0  0
   13.8293   -9.3791    0.0000 C   0  0  0  0  0  0  0  0  0  0  0  0
   13.1149   -8.9666    0.0000 C   0  0  0  0  0  0  0  0  0  0  0  0
   12.4004   -6.9041    0.0000 O   0  0  0  0  0  0  0  0  0  0  0  0
   13.8293  -10.2041    0.0000 O   0  0  0  0  0  0  0  0  0  0  0  0
   14.5438  -10.6166    0.0000 C   0  0  0  0  0  0  0  0  0  0  0  0
   14.5438  -11.4416    0.0000 C   0  0  0  0  0  0  0  0  0  0  0  0
   15.2583  -11.8541    0.0000 C   0  0  0  0  0  0  0  0  0  0  0  0
   15.2583  -12.6791    0.0000 C   0  0  0  0  0  0  0  0  0  0  0  0
   14.5438  -13.0916    0.0000 C   0  0  0  0  0  0  0  0  0  0  0  0
   13.8293  -12.6791    0.0000 C   0  0  0  0  0  0  0  0  0  0  0  0
   13.8293  -11.8541    0.0000 C   0  0  0  0  0  0  0  0  0  0  0  0
   15.2583  -10.2041    0.0000 O   0  0  0  0  0  0  0  0  0  0  0  0
   13.1149  -13.0916    0.0000 O   0  0  0  0  0  0  0  0  0  0  0  0
   14.5438  -13.9166    0.0000 O   0  0  0  0  0  0  0  0  0  0  0  0
   15.9727  -13.0916    0.0000 O   0  0  0  0  0  0  0  0  0  0  0  0
   15.2583   -9.3791    0.0000 O   0  0  0  0  0  0  0  0  0  0  0  0
   15.2583   -7.7291    0.0000 O   0  0  0  0  0  0  0  0  0  0  0  0
   10.2570   -8.9666    0.0000 O   0  0  0  0  0  0  0  0  0  0  0  0
    9.5425   -9.3791    0.0000 C   0  0  0  0  0  0  0  0  0  0  0  0
    9.5425  -10.2041    0.0000 C   0  0  0  0  0  0  0  0  0  0  0  0
   10.2570  -10.6166    0.0000 C   0  0  0  0  0  0  0  0  0  0  0  0
   10.2570  -11.4416    0.0000 C   0  0  0  0  0  0  0  0  0  0  0  0
    9.5425  -11.8541    0.0000 C   0  0  0  0  0  0  0  0  0  0  0  0
    8.8280  -11.4416    0.0000 C   0  0  0  0  0  0  0  0  0  0  0  0
    8.8280  -10.6166    0.0000 C   0  0  0  0  0  0  0  0  0  0  0  0
    8.8280   -8.9666    0.0000 O   0  0  0  0  0  0  0  0  0  0  0  0
    8.1136  -11.8541    0.0000 O   0  0  0  0  0  0  0  0  0  0  0  0
    7.3991  -11.4416    0.0000 C   0  0  0  0  0  0  0  0  0  0  0  0
    6.6846  -11.8541    0.0000 C   0  0  0  0  0  0  0  0  0  0  0  0
    6.6846  -12.6791    0.0000 C   0  0  0  0  0  0  0  0  0  0  0  0
    5.9701  -13.0916    0.0000 C   0  0  0  0  0  0  0  0  0  0  0  0
    5.2557  -12.6791    0.0000 C   0  0  0  0  0  0  0  0  0  0  0  0
    5.2557  -11.8541    0.0000 C   0  0  0  0  0  0  0  0  0  0  0  0
    5.9701  -11.4416    0.0000 C   0  0  0  0  0  0  0  0  0  0  0  0
    7.3991  -10.6166    0.0000 O   0  0  0  0  0  0  0  0  0  0  0  0
    4.5412  -11.4416    0.0000 O   0  0  0  0  0  0  0  0  0  0  0  0
    4.5412  -13.0916    0.0000 O   0  0  0  0  0  0  0  0  0  0  0  0
    5.9701  -13.9166    0.0000 O   0  0  0  0  0  0  0  0  0  0  0  0
    9.5425  -12.6791    0.0000 O   0  0  0  0  0  0  0  0  0  0  0  0
   10.9714  -11.8541    0.0000 O   0  0  0  0  0  0  0  0  0  0  0  0
    5.9701   -5.6666    0.0000 O   0  0  0  0  0  0  0  0  0  0  0  0
    4.5412   -6.4916    0.0000 O   0  0  0  0  0  0  0  0  0  0  0  0
  1  2  1  0  0  0  0
  2  3  1  0  0  0  0
  3  4  2  0  0  0  0
  4  5  1  0  0  0  0
  5  6  2  0  0  0  0
  6  7  1  0  0  0  0
  2  7  2  0  0  0  0
  1  8  2  0  0  0  0
  1  9  1  0  0  0  0
  6 10  1  0  0  0  0
  5 11  1  0  0  0  0
  4 12  1  0  0  0  0
 13 14  1  0  0  0  0
 14 15  2  0  0  0  0
 15 16  1  0  0  0  0
 16 17  2  0  0  0  0
 17 18  1  0  0  0  0
 13 18  2  0  0  0  0
 19 20  2  0  0  0  0
 21 22  1  0  0  0  0
 19 21  1  0  0  0  0
 23 24  1  0  0  0  0
 24 25  1  0  0  0  0
 25 26  1  0  0  0  0
 26 27  1  0  0  0  0
 27 28  1  0  0  0  0
 23 28  1  0  0  0  0
 30 31  1  0  0  0  0
 31 32  1  0  0  0  0
 32 33  2  0  0  0  0
 33 34  1  0  0  0  0
 34 35  2  0  0  0  0
 35 36  1  0  0  0  0
 31 36  2  0  0  0  0
 30 37  2  0  0  0  0
 39 40  1  0  0  0  0
 40 41  1  0  0  0  0
 41 42  2  0  0  0  0
 42 43  1  0  0  0  0
 43 44  2  0  0  0  0
 44 45  1  0  0  0  0
 40 45  2  0  0  0  0
 39 46  2  0  0  0  0
 44 47  1  0  0  0  0
 43 48  1  0  0  0  0
 42 49  1  0  0  0  0
 38 39  1  0  0  0  0
 35 38  1  0  0  0  0
 34 50  1  0  0  0  0
 33 51  1  0  0  0  0
 29 30  1  0  0  0  0
 28 29  1  1  0  0  0
 53 54  1  0  0  0  0
 54 55  1  0  0  0  0
 55 56  2  0  0  0  0
 56 57  1  0  0  0  0
 57 58  2  0  0  0  0
 58 59  1  0  0  0  0
 54 59  2  0  0  0  0
 53 60  2  0  0  0  0
 62 63  1  0  0  0  0
 63 64  1  0  0  0  0
 64 65  2  0  0  0  0
 65 66  1  0  0  0  0
 66 67  2  0  0  0  0
 67 68  1  0  0  0  0
 63 68  2  0  0  0  0
 62 69  2  0  0  0  0
 67 70  1  0  0  0  0
 66 71  1  0  0  0  0
 65 72  1  0  0  0  0
 61 62  1  0  0  0  0
 58 61  1  0  0  0  0
 57 73  1  0  0  0  0
 56 74  1  0  0  0  0
 52 53  1  0  0  0  0
 27 52  1  6  0  0  0
 76 77  1  0  0  0  0
 77 78  1  0  0  0  0
 78 79  2  0  0  0  0
 79 80  1  0  0  0  0
 80 81  2  0  0  0  0
 81 82  1  0  0  0  0
 77 82  2  0  0  0  0
 76 83  2  0  0  0  0
 85 86  1  0  0  0  0
 86 87  1  0  0  0  0
 87 88  2  0  0  0  0
 88 89  1  0  0  0  0
 89 90  2  0  0  0  0
 90 91  1  0  0  0  0
 86 91  2  0  0  0  0
 85 92  2  0  0  0  0
 90 93  1  0  0  0  0
 89 94  1  0  0  0  0
 88 95  1  0  0  0  0
 84 85  1  0  0  0  0
 81 84  1  0  0  0  0
 80 96  1  0  0  0  0
 79 97  1  0  0  0  0
 75 76  1  0  0  0  0
 26 75  1  1  0  0  0
 99100  1  0  0  0  0
100101  1  0  0  0  0
101102  2  0  0  0  0
102103  1  0  0  0  0
103104  2  0  0  0  0
104105  1  0  0  0  0
100105  2  0  0  0  0
 99106  2  0  0  0  0
108109  1  0  0  0  0
109110  1  0  0  0  0
110111  2  0  0  0  0
111112  1  0  0  0  0
112113  2  0  0  0  0
113114  1  0  0  0  0
109114  2  0  0  0  0
108115  2  0  0  0  0
113116  1  0  0  0  0
112117  1  0  0  0  0
111118  1  0  0  0  0
107108  1  0  0  0  0
104107  1  0  0  0  0
103119  1  0  0  0  0
102120  1  0  0  0  0
 98 99  1  0  0  0  0
 25 98  1  6  0  0  0
 24 22  1  1  0  0  0
 17 19  1  0  0  0  0
 15121  1  0  0  0  0
 14122  1  0  0  0  0
  9 13  1  0  0  0  0
M  END
>  <cdx:fragmentId>
253

$$$$
