301173.cdx
  Mrv1902 05222410232D          

 16 16  0  0  0  0            999 V2000
    6.9275   -6.8574    0.0000 O   0  0  0  0  0  0  0  0  0  0  0  0
    6.4120   -6.5273    0.0000 O   0  0  0  0  0  0  0  0  0  0  0  0
    5.5870   -6.5273    0.0000 C   0  0  0  0  0  0  0  0  0  0  0  0
    7.5390   -8.4793    0.0000 C   0  0  0  0  0  0  0  0  0  0  0  0
    7.1265   -9.1938    0.0000 C   0  0  0  0  0  0  0  0  0  0  0  0
    6.7140   -8.4793    0.0000 C   0  0  0  0  0  0  0  0  0  0  0  0
    5.9995   -8.8918    0.0000 C   0  0  0  0  0  0  0  0  0  0  0  0
    5.2850   -8.4793    0.0000 C   0  0  0  0  0  0  0  0  0  0  0  0
    5.2850   -7.6543    0.0000 C   0  0  0  0  0  0  0  0  0  0  0  0
    5.9995   -7.2418    0.0000 C   0  0  2  0  0  0  0  0  0  0  0  0
    6.7140   -7.6543    0.0000 C   0  0  2  0  0  0  0  0  0  0  0  0
    8.8574   -6.4168    0.0000 O   0  0  0  0  0  0  0  0  0  0  0  0
    7.4284   -7.2418    0.0000 C   0  0  0  0  0  0  0  0  0  0  0  0
    8.1429   -7.6543    0.0000 C   0  0  0  0  0  0  0  0  0  0  0  0
    8.8574   -7.2418    0.0000 C   0  0  0  0  0  0  0  0  0  0  0  0
    9.5719   -7.6543    0.0000 C   0  0  0  0  0  0  0  0  0  0  0  0
 13 11  1  0  0  0  0
 11  1  1  6  0  0  0
 10  2  1  1  0  0  0
 10  3  1  6  0  0  0
  6  4  1  0  0  0  0
  6  5  1  0  0  0  0
 11  6  1  0  0  0  0
  7  6  1  0  0  0  0
  8  7  1  0  0  0  0
  9  8  1  0  0  0  0
 10  9  1  0  0  0  0
 11 10  1  0  0  0  0
 15 12  2  0  0  0  0
 14 13  2  0  0  0  0
 15 14  1  0  0  0  0
 16 15  1  0  0  0  0
M  END
>  <cdx:fragmentId>
2635

$$$$
