301120.cdx
  Mrv1902 05222410202D          

 25 28  0  0  0  0            999 V2000
    7.2755   -8.9084    0.0000 C   0  0  0  0  0  0  0  0  0  0  0  0
    7.9900   -8.4959    0.0000 N   0  3  0  0  0  0  0  0  0  0  0  0
    7.9900   -7.6709    0.0000 C   0  0  0  0  0  0  0  0  0  0  0  0
    7.2755   -7.2584    0.0000 C   0  0  0  0  0  0  0  0  0  0  0  0
    6.5610   -7.6709    0.0000 C   0  0  0  0  0  0  0  0  0  0  0  0
    5.8466   -7.2584    0.0000 C   0  0  0  0  0  0  0  0  0  0  0  0
    5.1321   -7.6709    0.0000 C   0  0  0  0  0  0  0  0  0  0  0  0
    5.1321   -8.4959    0.0000 C   0  0  0  0  0  0  0  0  0  0  0  0
    5.8466   -8.9084    0.0000 C   0  0  0  0  0  0  0  0  0  0  0  0
    6.5610   -8.4959    0.0000 C   0  0  0  0  0  0  0  0  0  0  0  0
    8.7045   -8.9084    0.0000 C   0  0  0  0  0  0  0  0  0  0  0  0
    9.4189   -8.4959    0.0000 C   0  0  0  0  0  0  0  0  0  0  0  0
    9.4189   -7.6709    0.0000 C   0  0  0  0  0  0  0  0  0  0  0  0
   10.1334   -7.2584    0.0000 C   0  0  0  0  0  0  0  0  0  0  0  0
   10.1334   -6.4334    0.0000 C   0  0  0  0  0  0  0  0  0  0  0  0
    9.4189   -6.0209    0.0000 C   0  0  0  0  0  0  0  0  0  0  0  0
    8.7045   -6.4334    0.0000 C   0  0  0  0  0  0  0  0  0  0  0  0
    8.7045   -7.2584    0.0000 C   0  0  0  0  0  0  0  0  0  0  0  0
   10.8479   -6.0209    0.0000 O   0  0  0  0  0  0  0  0  0  0  0  0
    4.4176   -7.2584    0.0000 O   0  0  0  0  0  0  0  0  0  0  0  0
    3.7032   -7.6709    0.0000 C   0  0  0  0  0  0  0  0  0  0  0  0
    4.4176   -8.9084    0.0000 O   0  0  0  0  0  0  0  0  0  0  0  0
    3.7032   -8.4959    0.0000 C   0  0  0  0  0  0  0  0  0  0  0  0
    9.4189   -5.1959    0.0000 O   0  0  0  0  0  0  0  0  0  0  0  0
   10.1334   -4.7834    0.0000 C   0  0  0  0  0  0  0  0  0  0  0  0
  1  2  1  0  0  0  0
  2  3  2  0  0  0  0
  3  4  1  0  0  0  0
  4  5  2  0  0  0  0
  5  6  1  0  0  0  0
  6  7  2  0  0  0  0
  7  8  1  0  0  0  0
  8  9  2  0  0  0  0
  9 10  1  0  0  0  0
  1 10  2  0  0  0  0
  5 10  1  0  0  0  0
 11 12  1  0  0  0  0
 12 13  1  0  0  0  0
 13 14  1  0  0  0  0
 14 15  2  0  0  0  0
 15 16  1  0  0  0  0
 16 17  2  0  0  0  0
 17 18  1  0  0  0  0
 13 18  2  0  0  0  0
 11  2  1  0  0  0  0
 18  3  1  0  0  0  0
 15 19  1  0  0  0  0
 20 21  1  0  0  0  0
  7 20  1  0  0  0  0
 22 23  1  0  0  0  0
  8 22  1  0  0  0  0
 24 25  1  0  0  0  0
 16 24  1  0  0  0  0
M  CHG  1   2   1
M  END
>  <cdx:fragmentId>
1355

$$$$
