301178.cdx
  Mrv1902 05222410212D          

 18 18  0  0  0  0            999 V2000
    7.7822   -7.3579    0.0000 C   0  0  0  0  0  0  0  0  0  0  0  0
    7.7822   -8.1829    0.0000 C   0  0  0  0  0  0  0  0  0  0  0  0
    7.0678   -8.5954    0.0000 C   0  0  0  0  0  0  0  0  0  0  0  0
    6.3533   -8.1829    0.0000 C   0  0  0  0  0  0  0  0  0  0  0  0
    6.3533   -7.3579    0.0000 C   0  0  0  0  0  0  0  0  0  0  0  0
    7.0678   -6.9454    0.0000 C   0  0  0  0  0  0  0  0  0  0  0  0
    8.4967   -6.9454    0.0000 C   0  0  0  0  0  0  0  0  0  0  0  0
    8.4967   -6.1204    0.0000 O   0  0  0  0  0  0  0  0  0  0  0  0
    9.2112   -7.3579    0.0000 O   0  0  0  0  0  0  0  0  0  0  0  0
    8.4967   -8.5954    0.0000 C   0  0  0  0  0  0  0  0  0  0  0  0
    8.4967   -9.4204    0.0000 O   0  0  0  0  0  0  0  0  0  0  0  0
    9.2112   -8.1829    0.0000 O   0  0  0  0  0  0  0  0  0  0  0  0
    5.6388   -8.5954    0.0000 O   0  0  0  0  0  0  0  0  0  0  0  0
    4.9244   -8.1829    0.0000 C   0  0  0  0  0  0  0  0  0  0  0  0
    7.0678   -6.1204    0.0000 O   0  0  0  0  0  0  0  0  0  0  0  0
    7.0678   -9.4204    0.0000 O   0  0  0  0  0  0  0  0  0  0  0  0
    9.9256   -6.9454    0.0000 C   0  0  0  0  0  0  0  0  0  0  0  0
    9.9256   -8.5954    0.0000 C   0  0  0  0  0  0  0  0  0  0  0  0
  1  2  1  0  0  0  0
  2  3  2  0  0  0  0
  3  4  1  0  0  0  0
  4  5  2  0  0  0  0
  5  6  1  0  0  0  0
  1  6  2  0  0  0  0
  7  8  2  0  0  0  0
  7  9  1  0  0  0  0
  1  7  1  0  0  0  0
 10 11  2  0  0  0  0
 10 12  1  0  0  0  0
  2 10  1  0  0  0  0
 13 14  1  0  0  0  0
  4 13  1  0  0  0  0
  6 15  1  0  0  0  0
  3 16  1  0  0  0  0
  9 17  1  0  0  0  0
 12 18  1  0  0  0  0
M  END
>  <cdx:groupId>
2955

>  <cdx:fragmentId>
2904

$$$$
