301188.cdx
  Mrv1902 05222410252D          

 30 34  0  0  0  0            999 V2000
    6.1035  -10.3653    0.0000 C   0  0  1  0  0  0  0  0  0  0  0  0
    6.7486   -9.8509    0.0000 C   0  0  1  0  0  0  0  0  0  0  0  0
    7.4630  -10.2634    0.0000 C   0  0  0  0  0  0  0  0  0  0  0  0
    8.1775   -9.8509    0.0000 C   0  0  0  0  0  0  0  0  0  0  0  0
    8.1775   -9.0259    0.0000 C   0  0  2  0  0  0  0  0  0  0  0  0
    8.8920   -8.6134    0.0000 C   0  0  0  0  0  0  0  0  0  0  0  0
    8.8920   -7.7884    0.0000 O   0  0  0  0  0  0  0  0  0  0  0  0
    8.1775   -7.3759    0.0000 C   0  0  1  0  0  0  0  0  0  0  0  0
    7.4630   -7.7884    0.0000 C   0  0  0  0  0  0  0  0  0  0  0  0
    7.4630   -8.6134    0.0000 C   0  0  1  0  0  0  0  0  0  0  0  0
    6.7486   -9.0259    0.0000 C   0  0  2  0  0  0  0  0  0  0  0  0
    6.1035   -8.5115    0.0000 C   0  0  0  0  0  0  0  0  0  0  0  0
    5.2992   -8.6951    0.0000 C   0  0  2  0  0  0  0  0  0  0  0  0
    4.9413   -9.4384    0.0000 O   0  0  0  0  0  0  0  0  0  0  0  0
    5.2992  -10.1817    0.0000 C   0  0  0  0  0  0  0  0  0  0  0  0
    6.1827   -9.2974    0.0000 C   0  0  0  0  0  0  0  0  0  0  0  0
    7.4630  -11.0884    0.0000 O   0  0  0  0  0  0  0  0  0  0  0  0
    9.6064   -9.0259    0.0000 O   0  0  0  0  0  0  0  0  0  0  0  0
    4.7849  -10.8267    0.0000 O   0  0  0  0  0  0  0  0  0  0  0  0
    7.4630   -9.4384    0.0000 C   0  0  0  0  0  0  0  0  0  0  0  0
    8.5900   -5.2814    0.0000 O   0  0  0  0  0  0  0  0  0  0  0  0
    8.8449   -6.0660    0.0000 C   0  0  0  0  0  0  0  0  0  0  0  0
    8.1775   -6.5509    0.0000 C   0  0  0  0  0  0  0  0  0  0  0  0
    7.5101   -6.0660    0.0000 C   0  0  0  0  0  0  0  0  0  0  0  0
    7.7650   -5.2814    0.0000 C   0  0  0  0  0  0  0  0  0  0  0  0
    6.2871  -11.1696    0.0000 H   0  0  0  0  0  0  0  0  0  0  0  0
    6.7486  -10.6759    0.0000 H   0  0  0  0  0  0  0  0  0  0  0  0
    8.8920   -9.4384    0.0000 H   0  0  0  0  0  0  0  0  0  0  0  0
    6.7486   -8.2009    0.0000 H   0  0  0  0  0  0  0  0  0  0  0  0
    4.7849   -8.0501    0.0000 H   0  0  0  0  0  0  0  0  0  0  0  0
  1  2  1  0  0  0  0
  2  3  1  0  0  0  0
  3  4  1  0  0  0  0
  4  5  1  0  0  0  0
  5  6  1  0  0  0  0
  6  7  1  0  0  0  0
  7  8  1  0  0  0  0
  8  9  1  0  0  0  0
  9 10  1  0  0  0  0
 10 11  1  0  0  0  0
 11 12  1  0  0  0  0
 12 13  1  0  0  0  0
 13 14  1  0  0  0  0
 14 15  1  0  0  0  0
  1 15  1  0  0  0  0
  1 16  1  0  0  0  0
 13 16  1  0  0  0  0
  2 11  1  0  0  0  0
  5 10  1  0  0  0  0
  3 17  2  0  0  0  0
  6 18  2  0  0  0  0
 15 19  2  0  0  0  0
 10 20  1  1  0  0  0
 21 22  1  0  0  0  0
 22 23  2  0  0  0  0
 23 24  1  0  0  0  0
 24 25  2  0  0  0  0
 21 25  1  0  0  0  0
  8 23  1  1  0  0  0
  1 26  1  6  0  0  0
  2 27  1  1  0  0  0
  5 28  1  6  0  0  0
 11 29  1  6  0  0  0
 13 30  1  6  0  0  0
M  END
>  <cdx:fragmentId>
5

$$$$
