301127.cdx
  Mrv1902 05222410192D          

 26 28  0  0  0  0            999 V2000
    7.5023   -8.3863    0.0000 O   0  0  0  0  0  0  0  0  0  0  0  0
    7.9872   -7.7189    0.0000 C   0  0  2  0  0  0  0  0  0  0  0  0
    7.5023   -7.0514    0.0000 C   0  0  2  0  0  0  0  0  0  0  0  0
    6.7176   -7.3064    0.0000 C   0  0  2  0  0  0  0  0  0  0  0  0
    6.0032   -6.8939    0.0000 C   0  0  0  0  0  0  0  0  0  0  0  0
    5.2887   -7.3064    0.0000 C   0  0  0  0  0  0  0  0  0  0  0  0
    5.2887   -8.1314    0.0000 C   0  0  0  0  0  0  0  0  0  0  0  0
    6.0032   -8.5439    0.0000 C   0  0  0  0  0  0  0  0  0  0  0  0
    6.7176   -8.1314    0.0000 C   0  0  0  0  0  0  0  0  0  0  0  0
    4.5742   -8.5439    0.0000 O   0  0  0  0  0  0  0  0  0  0  0  0
    4.5742   -6.8939    0.0000 C   0  0  0  0  0  0  0  0  0  0  0  0
    3.8598   -7.3064    0.0000 C   0  0  0  0  0  0  0  0  0  0  0  0
    3.1453   -6.8939    0.0000 C   0  0  0  0  0  0  0  0  0  0  0  0
    7.7572   -6.2668    0.0000 C   0  0  0  0  0  0  0  0  0  0  0  0
    6.8039   -6.4859    0.0000 O   0  0  0  0  0  0  0  0  0  0  0  0
    6.1364   -6.0010    0.0000 C   0  0  0  0  0  0  0  0  0  0  0  0
    8.8122   -7.7189    0.0000 C   0  0  0  0  0  0  0  0  0  0  0  0
    9.2247   -7.0044    0.0000 C   0  0  0  0  0  0  0  0  0  0  0  0
   10.0497   -7.0044    0.0000 C   0  0  0  0  0  0  0  0  0  0  0  0
   10.4622   -7.7189    0.0000 C   0  0  0  0  0  0  0  0  0  0  0  0
   10.0497   -8.4334    0.0000 C   0  0  0  0  0  0  0  0  0  0  0  0
    9.2247   -8.4334    0.0000 C   0  0  0  0  0  0  0  0  0  0  0  0
   11.2872   -7.7189    0.0000 O   0  0  0  0  0  0  0  0  0  0  0  0
   11.6997   -7.0044    0.0000 C   0  0  0  0  0  0  0  0  0  0  0  0
   10.4622   -6.2899    0.0000 O   0  0  0  0  0  0  0  0  0  0  0  0
   11.2872   -6.2899    0.0000 C   0  0  0  0  0  0  0  0  0  0  0  0
  1  2  1  0  0  0  0
  2  3  1  0  0  0  0
  3  4  1  0  0  0  0
  4  5  1  0  0  0  0
  5  6  2  0  0  0  0
  6  7  1  0  0  0  0
  7  8  1  0  0  0  0
  8  9  2  0  0  0  0
  4  9  1  0  0  0  0
  1  9  1  0  0  0  0
  7 10  2  0  0  0  0
 11 12  1  0  0  0  0
 12 13  2  0  0  0  0
  6 11  1  0  0  0  0
  3 14  1  6  0  0  0
 15 16  1  0  0  0  0
  4 15  1  6  0  0  0
 17 18  1  0  0  0  0
 18 19  2  0  0  0  0
 19 20  1  0  0  0  0
 20 21  2  0  0  0  0
 21 22  1  0  0  0  0
 17 22  2  0  0  0  0
 23 24  1  0  0  0  0
 20 23  1  0  0  0  0
 25 26  1  0  0  0  0
 19 25  1  0  0  0  0
  2 17  1  6  0  0  0
M  END
>  <cdx:groupId>
1831

>  <cdx:fragmentId>
1754

$$$$
