301119.cdx
  Mrv1902 05222410182D          

 37 40  0  0  0  0            999 V2000
    4.7439   -7.6466    0.0000 C   0  0  0  0  0  0  0  0  0  0  0  0
    5.4625   -8.0518    0.0000 C   0  0  0  0  0  0  0  0  0  0  0  0
    6.1728   -7.6321    0.0000 C   0  0  0  0  0  0  0  0  0  0  0  0
    9.1158   -9.0948    0.0000 O   0  0  0  0  0  0  0  0  0  0  0  0
    9.5939   -8.4225    0.0000 C   0  0  2  0  0  0  0  0  0  0  0  0
    9.1023   -7.7600    0.0000 C   0  0  1  0  0  0  0  0  0  0  0  0
    8.3203   -8.0229    0.0000 C   0  0  0  0  0  0  0  0  0  0  0  0
    7.6017   -7.6177    0.0000 C   0  0  0  0  0  0  0  0  0  0  0  0
    6.8914   -8.0374    0.0000 C   0  0  0  0  0  0  0  0  0  0  0  0
    6.8997   -8.8623    0.0000 C   0  0  0  0  0  0  0  0  0  0  0  0
    7.6184   -9.2676    0.0000 C   0  0  0  0  0  0  0  0  0  0  0  0
    8.3286   -8.8479    0.0000 C   0  0  0  0  0  0  0  0  0  0  0  0
    7.6267  -10.0925    0.0000 O   0  0  0  0  0  0  0  0  0  0  0  0
    6.9126  -10.5056    0.0000 C   0  0  0  0  0  0  0  0  0  0  0  0
    9.3493   -6.9729    0.0000 C   0  0  0  0  0  0  0  0  0  0  0  0
    8.7654   -6.3900    0.0000 O   0  0  0  0  0  0  0  0  0  0  0  0
    4.0337   -8.0663    0.0000 O   0  0  0  0  0  0  0  0  0  0  0  0
    1.8812   -5.1855    0.0000 O   0  0  0  0  0  0  0  0  0  0  0  0
    2.5970   -5.5958    0.0000 C   0  0  0  0  0  0  0  0  0  0  0  0
    1.1706   -6.4252    0.0000 O   0  0  0  0  0  0  0  0  0  0  0  0
    1.1758   -8.0752    0.0000 O   0  0  0  0  0  0  0  0  0  0  0  0
    2.6073   -8.8958    0.0000 O   0  0  0  0  0  0  0  0  0  0  0  0
    2.5996   -6.4208    0.0000 C   0  0  2  0  0  0  0  0  0  0  0  0
    1.8864   -6.8355    0.0000 C   0  0  2  0  0  0  0  0  0  0  0  0
    1.8890   -7.6605    0.0000 C   0  0  1  0  0  0  0  0  0  0  0  0
    2.6047   -8.0708    0.0000 C   0  0  2  0  0  0  0  0  0  0  0  0
    3.3179   -7.6560    0.0000 C   0  0  1  0  0  0  0  0  0  0  0  0
   12.8938   -8.3891    0.0000 O   0  0  0  0  0  0  0  0  0  0  0  0
   12.9083   -9.8257    0.0000 C   0  0  0  0  0  0  0  0  0  0  0  0
   12.0833   -9.8264    0.0000 O   0  0  0  0  0  0  0  0  0  0  0  0
   10.8241   -7.6956    0.0000 C   0  0  0  0  0  0  0  0  0  0  0  0
   11.6491   -7.6872    0.0000 C   0  0  0  0  0  0  0  0  0  0  0  0
   12.0688   -8.3975    0.0000 C   0  0  0  0  0  0  0  0  0  0  0  0
   11.6635   -9.1161    0.0000 C   0  0  0  0  0  0  0  0  0  0  0  0
   10.8386   -9.1244    0.0000 C   0  0  0  0  0  0  0  0  0  0  0  0
   10.4189   -8.4142    0.0000 C   0  0  0  0  0  0  0  0  0  0  0  0
    3.3153   -6.8310    0.0000 O   0  0  0  0  0  0  0  0  0  0  0  0
 27 17  1  1  0  0  0
 23 19  1  1  0  0  0
 19 18  1  0  0  0  0
 24 20  1  6  0  0  0
 25 21  1  1  0  0  0
 26 22  1  6  0  0  0
 37 23  1  0  0  0  0
 24 23  1  0  0  0  0
 25 24  1  0  0  0  0
 26 25  1  0  0  0  0
 27 26  1  0  0  0  0
 37 27  1  0  0  0  0
 33 28  1  0  0  0  0
 34 30  1  0  0  0  0
 30 29  1  0  0  0  0
 36 31  2  0  0  0  0
 32 31  1  0  0  0  0
 33 32  2  0  0  0  0
 34 33  1  0  0  0  0
 35 34  2  0  0  0  0
 36 35  1  0  0  0  0
  1  2  1  0  0  0  0
  2  3  2  0  0  0  0
 17  1  1  0  0  0  0
  4  5  1  0  0  0  0
  5  6  1  0  0  0  0
  6  7  1  0  0  0  0
  7  8  1  0  0  0  0
  8  9  2  0  0  0  0
  9 10  1  0  0  0  0
 10 11  2  0  0  0  0
 11 12  1  0  0  0  0
  7 12  2  0  0  0  0
  4 12  1  0  0  0  0
 13 14  1  0  0  0  0
 11 13  1  0  0  0  0
 15 16  1  0  0  0  0
  6 15  1  1  0  0  0
  5 36  1  6  0  0  0
  3  9  1  0  0  0  0
M  END
>  <cdx:fragmentId>
1260

$$$$
