301118.cdx
  Mrv1902 05222410182D          

 37 40  0  0  0  0            999 V2000
   11.6469   -6.1826    0.0000 O   0  0  0  0  0  0  0  0  0  0  0  0
   12.0594   -5.4681    0.0000 C   0  0  1  0  0  0  0  0  0  0  0  0
   11.6469   -4.7537    0.0000 C   0  0  2  0  0  0  0  0  0  0  0  0
   10.8219   -4.7537    0.0000 C   0  0  1  0  0  0  0  0  0  0  0  0
   10.4094   -5.4681    0.0000 C   0  0  2  0  0  0  0  0  0  0  0  0
   10.8219   -6.1826    0.0000 C   0  0  2  0  0  0  0  0  0  0  0  0
   12.0594   -4.0392    0.0000 O   0  0  0  0  0  0  0  0  0  0  0  0
   10.4094   -4.0392    0.0000 O   0  0  0  0  0  0  0  0  0  0  0  0
    9.5844   -5.4681    0.0000 O   0  0  0  0  0  0  0  0  0  0  0  0
   10.4094   -6.8971    0.0000 O   0  0  0  0  0  0  0  0  0  0  0  0
    9.5844   -6.8971    0.0000 C   0  0  0  0  0  0  0  0  0  0  0  0
    9.1719   -7.6116    0.0000 C   0  0  0  0  0  0  0  0  0  0  0  0
    8.3469   -7.6116    0.0000 C   0  0  0  0  0  0  0  0  0  0  0  0
    7.9344   -6.8971    0.0000 C   0  0  0  0  0  0  0  0  0  0  0  0
    8.3469   -6.1826    0.0000 C   0  0  0  0  0  0  0  0  0  0  0  0
    9.1719   -6.1826    0.0000 C   0  0  0  0  0  0  0  0  0  0  0  0
    9.5844   -8.3260    0.0000 O   0  0  0  0  0  0  0  0  0  0  0  0
   10.4094   -8.3260    0.0000 C   0  0  0  0  0  0  0  0  0  0  0  0
    6.6245   -7.5645    0.0000 O   0  0  0  0  0  0  0  0  0  0  0  0
    7.1094   -6.8971    0.0000 C   0  0  1  0  0  0  0  0  0  0  0  0
    6.6245   -6.2297    0.0000 C   0  0  2  0  0  0  0  0  0  0  0  0
    5.8399   -6.4846    0.0000 C   0  0  0  0  0  0  0  0  0  0  0  0
    5.1254   -6.0721    0.0000 C   0  0  0  0  0  0  0  0  0  0  0  0
    4.4109   -6.4846    0.0000 C   0  0  0  0  0  0  0  0  0  0  0  0
    4.4109   -7.3096    0.0000 C   0  0  0  0  0  0  0  0  0  0  0  0
    5.1254   -7.7221    0.0000 C   0  0  0  0  0  0  0  0  0  0  0  0
    5.8399   -7.3096    0.0000 C   0  0  0  0  0  0  0  0  0  0  0  0
    5.1254   -8.5471    0.0000 O   0  0  0  0  0  0  0  0  0  0  0  0
    4.4109   -8.9596    0.0000 C   0  0  0  0  0  0  0  0  0  0  0  0
    3.6965   -6.0721    0.0000 C   0  0  0  0  0  0  0  0  0  0  0  0
    2.9820   -6.4846    0.0000 C   0  0  0  0  0  0  0  0  0  0  0  0
    2.2675   -6.0721    0.0000 C   0  0  0  0  0  0  0  0  0  0  0  0
    1.5531   -6.4846    0.0000 O   0  0  0  0  0  0  0  0  0  0  0  0
    6.8795   -5.4450    0.0000 C   0  0  0  0  0  0  0  0  0  0  0  0
    7.6864   -5.2735    0.0000 O   0  0  0  0  0  0  0  0  0  0  0  0
   12.8844   -5.4681    0.0000 C   0  0  0  0  0  0  0  0  0  0  0  0
   13.2969   -6.1826    0.0000 O   0  0  0  0  0  0  0  0  0  0  0  0
  1  2  1  0  0  0  0
  2  3  1  0  0  0  0
  3  4  1  0  0  0  0
  4  5  1  0  0  0  0
  5  6  1  0  0  0  0
  1  6  1  0  0  0  0
  3  7  1  6  0  0  0
  4  8  1  1  0  0  0
  5  9  1  6  0  0  0
 11 12  1  0  0  0  0
 12 13  2  0  0  0  0
 13 14  1  0  0  0  0
 14 15  2  0  0  0  0
 15 16  1  0  0  0  0
 11 16  2  0  0  0  0
 10 11  1  0  0  0  0
 17 18  1  0  0  0  0
 12 17  1  0  0  0  0
 19 20  1  0  0  0  0
 20 21  1  0  0  0  0
 21 22  1  0  0  0  0
 22 23  1  0  0  0  0
 23 24  2  0  0  0  0
 24 25  1  0  0  0  0
 25 26  2  0  0  0  0
 26 27  1  0  0  0  0
 22 27  2  0  0  0  0
 19 27  1  0  0  0  0
 28 29  1  0  0  0  0
 26 28  1  0  0  0  0
 30 31  2  0  0  0  0
 31 32  1  0  0  0  0
 32 33  1  0  0  0  0
 24 30  1  0  0  0  0
 34 35  1  0  0  0  0
 21 34  1  6  0  0  0
 20 14  1  1  0  0  0
  6 10  1  1  0  0  0
 36 37  1  0  0  0  0
  2 36  1  1  0  0  0
M  END
>  <cdx:fragmentId>
1139

$$$$
