301174.cdx
  Mrv1902 05222410252D          

  6  5  0  0  0  0            999 V2000
    7.2172   -7.9766    0.0000 C   0  0  0  0  0  0  0  0  0  0  0  0
    7.9317   -7.5641    0.0000 C   0  0  0  0  0  0  0  0  0  0  0  0
    8.6462   -7.9766    0.0000 C   0  0  0  0  0  0  0  0  0  0  0  0
    7.9317   -6.7391    0.0000 O   0  0  0  0  0  0  0  0  0  0  0  0
    6.5028   -7.5641    0.0000 O   0  0  0  0  0  0  0  0  0  0  0  0
    7.2172   -8.8016    0.0000 O   0  0  0  0  0  0  0  0  0  0  0  0
  1  2  1  0  0  0  0
  2  3  1  0  0  0  0
  2  4  2  0  0  0  0
  1  5  1  0  0  0  0
  1  6  1  0  0  0  0
M  END
>  <cdx:groupId>
2690

>  <cdx:fragmentId>
2676

$$$$
