301191.cdx
  Mrv1902 05222410212D          

 57 62  0  0  0  0            999 V2000
   10.6550  -11.0416    0.0000 O   0  0  0  0  0  0  0  0  0  0  0  0
    9.2304  -11.8742    0.0000 O   0  0  0  0  0  0  0  0  0  0  0  0
    7.7971  -11.0567    0.0000 C   0  0  0  0  0  0  0  0  0  0  0  0
   12.0708   -8.5591    0.0000 O   0  0  0  0  0  0  0  0  0  0  0  0
   13.5041   -9.3765    0.0000 O   0  0  0  0  0  0  0  0  0  0  0  0
   13.5128  -11.0265    0.0000 O   0  0  0  0  0  0  0  0  0  0  0  0
   12.0882  -11.8591    0.0000 C   0  0  0  0  0  0  0  0  0  0  0  0
   12.0839  -11.0341    0.0000 C   0  0  1  0  0  0  0  0  0  0  0  0
   12.7962  -10.6178    0.0000 C   0  0  1  0  0  0  0  0  0  0  0  0
   12.7918   -9.7928    0.0000 C   0  0  2  0  0  0  0  0  0  0  0  0
   12.0752   -9.3841    0.0000 C   0  0  2  0  0  0  0  0  0  0  0  0
   11.3629   -9.8004    0.0000 C   0  0  1  0  0  0  0  0  0  0  0  0
   11.3672  -10.6253    0.0000 O   0  0  0  0  0  0  0  0  0  0  0  0
   10.6462   -9.3916    0.0000 O   0  0  0  0  0  0  0  0  0  0  0  0
    8.5094  -10.6404    0.0000 C   0  0  1  0  0  0  0  0  0  0  0  0
    9.2260  -11.0492    0.0000 C   0  0  1  0  0  0  0  0  0  0  0  0
    9.9383  -10.6329    0.0000 C   0  0  2  0  0  0  0  0  0  0  0  0
    9.9340   -9.8079    0.0000 C   0  0  2  0  0  0  0  0  0  0  0  0
    9.2173   -9.3992    0.0000 C   0  0  1  0  0  0  0  0  0  0  0  0
    8.5050   -9.8155    0.0000 O   0  0  0  0  0  0  0  0  0  0  0  0
    9.2130   -8.5742    0.0000 O   0  0  0  0  0  0  0  0  0  0  0  0
    6.3595   -9.4143    0.0000 O   0  0  0  0  0  0  0  0  0  0  0  0
   11.3411   -5.6754    0.0000 O   0  0  0  0  0  0  0  0  0  0  0  0
    9.1999   -6.0992    0.0000 C   0  0  0  0  0  0  0  0  0  0  0  0
    9.9122   -5.6830    0.0000 C   0  0  0  0  0  0  0  0  0  0  0  0
   10.6288   -6.0917    0.0000 C   0  0  0  0  0  0  0  0  0  0  0  0
   10.6332   -6.9167    0.0000 C   0  0  0  0  0  0  0  0  0  0  0  0
    9.9209   -7.3329    0.0000 C   0  0  0  0  0  0  0  0  0  0  0  0
    9.2042   -6.9242    0.0000 C   0  0  0  0  0  0  0  0  0  0  0  0
    4.9044   -4.4719    0.0000 C   0  0  0  0  0  0  0  0  0  0  0  0
    6.3333   -4.4644    0.0000 C   0  0  0  0  0  0  0  0  0  0  0  0
    5.6210   -4.8806    0.0000 C   0  0  0  0  0  0  0  0  0  0  0  0
    5.6254   -5.7056    0.0000 C   0  0  0  0  0  0  0  0  0  0  0  0
    6.3420   -6.1143    0.0000 C   0  0  0  0  0  0  0  0  0  0  0  0
    4.9262   -8.5968    0.0000 O   0  0  0  0  0  0  0  0  0  0  0  0
    3.5016   -9.4294    0.0000 O   0  0  0  0  0  0  0  0  0  0  0  0
    2.0684   -8.6119    0.0000 O   0  0  0  0  0  0  0  0  0  0  0  0
    1.3474   -7.3782    0.0000 O   0  0  0  0  0  0  0  0  0  0  0  0
    2.0596   -6.9620    0.0000 C   0  0  0  0  0  0  0  0  0  0  0  0
    2.7763   -7.3707    0.0000 C   0  0  2  0  0  0  0  0  0  0  0  0
    2.7806   -8.1957    0.0000 C   0  0  2  0  0  0  0  0  0  0  0  0
    3.4973   -8.6044    0.0000 C   0  0  1  0  0  0  0  0  0  0  0  0
    4.2096   -8.1881    0.0000 C   0  0  2  0  0  0  0  0  0  0  0  0
    4.2052   -7.3631    0.0000 C   0  0  1  0  0  0  0  0  0  0  0  0
    3.4886   -6.9544    0.0000 O   0  0  0  0  0  0  0  0  0  0  0  0
    4.9175   -6.9469    0.0000 O   0  0  0  0  0  0  0  0  0  0  0  0
    7.7884   -9.4067    0.0000 O   0  0  0  0  0  0  0  0  0  0  0  0
    7.7753   -6.9318    0.0000 O   0  0  0  0  0  0  0  0  0  0  0  0
    7.0630   -7.3480    0.0000 C   0  0  0  0  0  0  0  0  0  0  0  0
    6.3464   -6.9393    0.0000 C   0  0  0  0  0  0  0  0  0  0  0  0
    5.6341   -7.3556    0.0000 C   0  0  0  0  0  0  0  0  0  0  0  0
    5.6385   -8.1806    0.0000 C   0  0  0  0  0  0  0  0  0  0  0  0
    6.3551   -8.5893    0.0000 C   0  0  0  0  0  0  0  0  0  0  0  0
    7.0674   -8.1730    0.0000 C   0  0  0  0  0  0  0  0  0  0  0  0
    7.7840   -8.5817    0.0000 C   0  0  0  0  0  0  0  0  0  0  0  0
    8.4963   -8.1655    0.0000 C   0  0  0  0  0  0  0  0  0  0  0  0
    8.4920   -7.3405    0.0000 C   0  0  0  0  0  0  0  0  0  0  0  0
 56 21  1  0  0  0  0
 19 21  1  1  0  0  0
 17  1  1  6  0  0  0
 16  2  1  1  0  0  0
 15  3  1  6  0  0  0
 18 14  1  6  0  0  0
 12 14  1  1  0  0  0
 11  4  1  6  0  0  0
 10  5  1  6  0  0  0
  9  6  1  1  0  0  0
  8  7  1  6  0  0  0
 13  8  1  0  0  0  0
  9  8  1  0  0  0  0
 10  9  1  0  0  0  0
 11 10  1  0  0  0  0
 12 11  1  0  0  0  0
 13 12  1  0  0  0  0
 20 15  1  0  0  0  0
 16 15  1  0  0  0  0
 17 16  1  0  0  0  0
 18 17  1  0  0  0  0
 19 18  1  0  0  0  0
 20 19  1  0  0  0  0
 53 22  1  0  0  0  0
 57 29  1  0  0  0  0
 26 23  1  0  0  0  0
 29 24  2  0  0  0  0
 25 24  1  0  0  0  0
 26 25  2  0  0  0  0
 27 26  1  0  0  0  0
 28 27  2  0  0  0  0
 29 28  1  0  0  0  0
 50 34  1  0  0  0  0
 32 30  1  0  0  0  0
 32 31  1  0  0  0  0
 33 32  2  0  0  0  0
 34 33  1  0  0  0  0
 51 46  1  0  0  0  0
 44 46  1  1  0  0  0
 43 35  1  6  0  0  0
 42 36  1  1  0  0  0
 41 37  1  6  0  0  0
 40 39  1  1  0  0  0
 39 38  1  0  0  0  0
 45 40  1  0  0  0  0
 41 40  1  0  0  0  0
 42 41  1  0  0  0  0
 43 42  1  0  0  0  0
 44 43  1  0  0  0  0
 45 44  1  0  0  0  0
 55 47  2  0  0  0  0
 57 48  1  0  0  0  0
 49 48  1  0  0  0  0
 54 49  2  0  0  0  0
 50 49  1  0  0  0  0
 51 50  2  0  0  0  0
 52 51  1  0  0  0  0
 53 52  2  0  0  0  0
 54 53  1  0  0  0  0
 55 54  1  0  0  0  0
 56 55  1  0  0  0  0
 57 56  2  0  0  0  0
M  END
>  <cdx:groupId>
4052

>  <cdx:fragmentId>
3903

$$$$
