301128.cdx
  Mrv1902 05222410282D          

 25 25  0  0  0  0            999 V2000
    7.9296   -5.4991    0.0000 C   0  0  0  0  0  0  0  0  0  0  0  0
    8.6507   -5.8999    0.0000 C   0  0  0  0  0  0  0  0  0  0  0  0
    9.3583   -5.4758    0.0000 C   0  0  0  0  0  0  0  0  0  0  0  0
   10.0794   -5.8765    0.0000 C   0  0  0  0  0  0  0  0  0  0  0  0
    7.9161   -4.6742    0.0000 O   0  0  0  0  0  0  0  0  0  0  0  0
    7.2219   -5.9232    0.0000 C   0  0  0  0  0  0  0  0  0  0  0  0
    7.2354   -6.7481    0.0000 C   0  0  0  0  0  0  0  0  0  0  0  0
    6.5278   -7.1722    0.0000 C   0  0  0  0  0  0  0  0  0  0  0  0
    5.8067   -6.7715    0.0000 C   0  0  0  0  0  0  0  0  0  0  0  0
    5.7932   -5.9466    0.0000 C   0  0  0  0  0  0  0  0  0  0  0  0
    6.5008   -5.5225    0.0000 C   0  0  0  0  0  0  0  0  0  0  0  0
    4.3240   -3.4953    0.0000 C   0  0  0  0  0  0  0  0  0  0  0  0
    7.9970   -9.6236    0.0000 C   0  0  0  0  0  0  0  0  0  0  0  0
    6.4873   -4.6976    0.0000 O   0  0  0  0  0  0  0  0  0  0  0  0
    5.0990   -7.1956    0.0000 O   0  0  0  0  0  0  0  0  0  0  0  0
    7.9565   -7.1489    0.0000 O   0  0  0  0  0  0  0  0  0  0  0  0
    8.6642   -6.7248    0.0000 C   0  0  0  0  0  0  0  0  0  0  0  0
    3.6298   -4.7443    0.0000 C   0  0  0  0  0  0  0  0  0  0  0  0
    4.3375   -4.3202    0.0000 C   0  0  0  0  0  0  0  0  0  0  0  0
    5.0586   -4.7209    0.0000 C   0  0  0  0  0  0  0  0  0  0  0  0
    5.0721   -5.5458    0.0000 C   0  0  0  0  0  0  0  0  0  0  0  0
    6.5682   -9.6469    0.0000 C   0  0  0  0  0  0  0  0  0  0  0  0
    7.2759   -9.2228    0.0000 C   0  0  0  0  0  0  0  0  0  0  0  0
    7.2624   -8.3979    0.0000 C   0  0  0  0  0  0  0  0  0  0  0  0
    6.5413   -7.9971    0.0000 C   0  0  0  0  0  0  0  0  0  0  0  0
 19 12  1  0  0  0  0
 19 18  1  0  0  0  0
 20 19  2  0  0  0  0
 21 20  1  0  0  0  0
 23 13  1  0  0  0  0
 23 22  1  0  0  0  0
 24 23  2  0  0  0  0
 25 24  1  0  0  0  0
  1  2  1  0  0  0  0
  2  3  1  0  0  0  0
  3  4  1  0  0  0  0
  1  5  2  0  0  0  0
  6  7  1  0  0  0  0
  7  8  2  0  0  0  0
  8  9  1  0  0  0  0
  9 10  2  0  0  0  0
 10 11  1  0  0  0  0
  6 11  2  0  0  0  0
 10 21  1  0  0  0  0
  8 25  1  0  0  0  0
 11 14  1  0  0  0  0
  9 15  1  0  0  0  0
  7 16  1  0  0  0  0
  1  6  1  0  0  0  0
  2 17  1  0  0  0  0
M  END
>  <cdx:groupId>
1911

>  <cdx:fragmentId>
1849

$$$$
