301180.cdx
  Mrv1902 05222410232D          

  3  2  0  0  0  0            999 V2000
    6.7105   -8.1379    0.0000 C   0  0  0  0  0  0  0  0  0  0  0  0
    7.4250   -7.7254    0.0000 N   0  0  0  0  0  0  0  0  0  0  0  0
    8.1395   -8.1379    0.0000 C   0  0  0  0  0  0  0  0  0  0  0  0
  1  2  1  0  0  0  0
  2  3  1  0  0  0  0
M  END
>  <cdx:groupId>
3147

>  <cdx:fragmentId>
3142

$$$$
