301129.cdx
  Mrv1902 05222410282D          

 24 24  0  0  0  0            999 V2000
    9.7835   -6.9616    0.0000 C   0  0  0  0  0  0  0  0  0  0  0  0
    8.3795   -8.6329    0.0000 O   0  0  0  0  0  0  0  0  0  0  0  0
    5.5219   -8.6759    0.0000 O   0  0  0  0  0  0  0  0  0  0  0  0
    6.9135   -6.1797    0.0000 O   0  0  0  0  0  0  0  0  0  0  0  0
    8.4167  -11.1076    0.0000 C   0  0  0  0  0  0  0  0  0  0  0  0
    6.9879  -11.1291    0.0000 C   0  0  0  0  0  0  0  0  0  0  0  0
    7.6961  -10.7059    0.0000 C   0  0  0  0  0  0  0  0  0  0  0  0
    7.6837   -9.8810    0.0000 C   0  0  0  0  0  0  0  0  0  0  0  0
    6.9631   -9.4793    0.0000 C   0  0  0  0  0  0  0  0  0  0  0  0
    4.7517   -4.9745    0.0000 C   0  0  0  0  0  0  0  0  0  0  0  0
    4.0559   -6.2226    0.0000 C   0  0  0  0  0  0  0  0  0  0  0  0
    4.7641   -5.7994    0.0000 C   0  0  0  0  0  0  0  0  0  0  0  0
    5.4847   -6.2011    0.0000 C   0  0  0  0  0  0  0  0  0  0  0  0
    5.4971   -7.0260    0.0000 C   0  0  0  0  0  0  0  0  0  0  0  0
    6.9259   -7.0046    0.0000 C   0  0  0  0  0  0  0  0  0  0  0  0
    6.2177   -7.4278    0.0000 C   0  0  0  0  0  0  0  0  0  0  0  0
    6.2301   -8.2527    0.0000 C   0  0  0  0  0  0  0  0  0  0  0  0
    6.9507   -8.6544    0.0000 C   0  0  0  0  0  0  0  0  0  0  0  0
    7.6589   -8.2312    0.0000 C   0  0  0  0  0  0  0  0  0  0  0  0
    7.6465   -7.4063    0.0000 C   0  0  0  0  0  0  0  0  0  0  0  0
    8.3423   -6.1582    0.0000 O   0  0  0  0  0  0  0  0  0  0  0  0
    9.0877   -8.2097    0.0000 C   0  0  0  0  0  0  0  0  0  0  0  0
    9.0753   -7.3848    0.0000 C   0  0  0  0  0  0  0  0  0  0  0  0
    8.3547   -6.9831    0.0000 C   0  0  0  0  0  0  0  0  0  0  0  0
 23  1  1  0  0  0  0
 24 20  1  0  0  0  0
 19  2  1  0  0  0  0
 17  3  1  0  0  0  0
 15  4  1  0  0  0  0
 18  9  1  0  0  0  0
  7  5  1  0  0  0  0
  7  6  1  0  0  0  0
  8  7  2  0  0  0  0
  9  8  1  0  0  0  0
 16 14  1  0  0  0  0
 12 10  1  0  0  0  0
 12 11  1  0  0  0  0
 13 12  2  0  0  0  0
 14 13  1  0  0  0  0
 20 15  2  0  0  0  0
 16 15  1  0  0  0  0
 17 16  2  0  0  0  0
 18 17  1  0  0  0  0
 19 18  2  0  0  0  0
 20 19  1  0  0  0  0
 24 21  2  0  0  0  0
 23 22  1  0  0  0  0
 24 23  1  0  0  0  0
M  END
>  <cdx:groupId>
1989

>  <cdx:fragmentId>
1928

$$$$
