301158.cdx
  Mrv1902 05222410242D          

 13 14  0  0  0  0            999 V2000
    9.6076   -7.7184    0.0000 O   0  0  0  0  0  0  0  0  0  0  0  0
    8.8539   -7.3829    0.0000 C   0  0  0  0  0  0  0  0  0  0  0  0
    8.9402   -6.5624    0.0000 C   0  0  0  0  0  0  0  0  0  0  0  0
    9.7471   -6.3909    0.0000 C   0  0  0  0  0  0  0  0  0  0  0  0
   10.1596   -7.1053    0.0000 C   0  0  0  0  0  0  0  0  0  0  0  0
    8.1395   -7.7954    0.0000 C   0  0  0  0  0  0  0  0  0  0  0  0
    7.4250   -7.3829    0.0000 S   0  0  0  0  0  0  0  0  0  0  0  0
    6.7105   -7.7954    0.0000 C   0  0  0  0  0  0  0  0  0  0  0  0
    5.9098   -6.5624    0.0000 O   0  0  0  0  0  0  0  0  0  0  0  0
    5.9961   -7.3829    0.0000 C   0  0  0  0  0  0  0  0  0  0  0  0
    5.2424   -7.7184    0.0000 C   0  0  0  0  0  0  0  0  0  0  0  0
    4.6903   -7.1053    0.0000 C   0  0  0  0  0  0  0  0  0  0  0  0
    5.1028   -6.3909    0.0000 C   0  0  0  0  0  0  0  0  0  0  0  0
  1  2  1  0  0  0  0
  2  3  2  0  0  0  0
  3  4  1  0  0  0  0
  4  5  2  0  0  0  0
  1  5  1  0  0  0  0
  7  8  1  0  0  0  0
  9 10  1  0  0  0  0
 10 11  2  0  0  0  0
 11 12  1  0  0  0  0
 12 13  2  0  0  0  0
  9 13  1  0  0  0  0
  8 10  1  0  0  0  0
  6  7  1  0  0  0  0
  2  6  1  0  0  0  0
M  END
>  <cdx:groupId>
1529

>  <cdx:fragmentId>
1508

$$$$
