301151.cdx
  Mrv1902 05222410212D          

 34 35  0  0  0  0            999 V2000
    6.3533   -6.6841    0.0000 C   0  0  0  0  0  0  0  0  0  0  0  0
    7.0678   -7.0966    0.0000 C   0  0  0  0  0  0  0  0  0  0  0  0
    7.7822   -6.6841    0.0000 C   0  0  0  0  0  0  0  0  0  0  0  0
    8.4967   -7.0966    0.0000 C   0  0  0  0  0  0  0  0  0  0  0  0
    6.3533   -5.8591    0.0000 O   0  0  0  0  0  0  0  0  0  0  0  0
    5.6388   -7.0966    0.0000 O   0  0  0  0  0  0  0  0  0  0  0  0
    8.4967   -7.9216    0.0000 O   0  0  0  0  0  0  0  0  0  0  0  0
    9.2112   -6.6841    0.0000 O   0  0  0  0  0  0  0  0  0  0  0  0
    7.7822   -5.8591    0.0000 O   0  0  0  0  0  0  0  0  0  0  0  0
    7.0678   -7.9216    0.0000 O   0  0  0  0  0  0  0  0  0  0  0  0
    4.9244   -6.6841    0.0000 C   0  0  0  0  0  0  0  0  0  0  0  0
    4.2099   -7.0966    0.0000 C   0  0  0  0  0  0  0  0  0  0  0  0
    3.4954   -6.6841    0.0000 C   0  0  0  0  0  0  0  0  0  0  0  0
    4.9244   -5.8591    0.0000 O   0  0  0  0  0  0  0  0  0  0  0  0
    2.7809   -7.0966    0.0000 C   0  0  0  0  0  0  0  0  0  0  0  0
    2.0665   -6.6841    0.0000 C   0  0  0  0  0  0  0  0  0  0  0  0
    1.3520   -7.0966    0.0000 C   0  0  0  0  0  0  0  0  0  0  0  0
    1.3520   -7.9216    0.0000 C   0  0  0  0  0  0  0  0  0  0  0  0
    2.0665   -8.3341    0.0000 C   0  0  0  0  0  0  0  0  0  0  0  0
    2.7809   -7.9216    0.0000 C   0  0  0  0  0  0  0  0  0  0  0  0
    0.6375   -8.3341    0.0000 O   0  0  0  0  0  0  0  0  0  0  0  0
    0.6375   -6.6841    0.0000 O   0  0  0  0  0  0  0  0  0  0  0  0
    9.9256   -7.0966    0.0000 C   0  0  0  0  0  0  0  0  0  0  0  0
   10.6401   -6.6841    0.0000 C   0  0  0  0  0  0  0  0  0  0  0  0
   11.3546   -7.0966    0.0000 C   0  0  0  0  0  0  0  0  0  0  0  0
    9.9256   -7.9216    0.0000 O   0  0  0  0  0  0  0  0  0  0  0  0
   12.0691   -6.6841    0.0000 C   0  0  0  0  0  0  0  0  0  0  0  0
   12.7835   -7.0966    0.0000 C   0  0  0  0  0  0  0  0  0  0  0  0
   13.4980   -6.6841    0.0000 C   0  0  0  0  0  0  0  0  0  0  0  0
   13.4980   -5.8591    0.0000 C   0  0  0  0  0  0  0  0  0  0  0  0
   12.7835   -5.4466    0.0000 C   0  0  0  0  0  0  0  0  0  0  0  0
   12.0691   -5.8591    0.0000 C   0  0  0  0  0  0  0  0  0  0  0  0
   14.2125   -5.4466    0.0000 O   0  0  0  0  0  0  0  0  0  0  0  0
   14.2125   -7.0966    0.0000 O   0  0  0  0  0  0  0  0  0  0  0  0
  1  2  1  0  0  0  0
  2  3  1  0  0  0  0
  3  4  1  0  0  0  0
  1  5  2  0  0  0  0
  1  6  1  0  0  0  0
  4  7  2  0  0  0  0
  4  8  1  0  0  0  0
  3  9  1  0  0  0  0
  2 10  1  0  0  0  0
 11 12  1  0  0  0  0
 12 13  2  0  0  0  0
 11 14  2  0  0  0  0
 15 16  1  0  0  0  0
 16 17  2  0  0  0  0
 17 18  1  0  0  0  0
 18 19  2  0  0  0  0
 19 20  1  0  0  0  0
 15 20  2  0  0  0  0
 18 21  1  0  0  0  0
 17 22  1  0  0  0  0
 13 15  1  0  0  0  0
  6 11  1  0  0  0  0
 23 24  1  0  0  0  0
 24 25  2  0  0  0  0
 23 26  2  0  0  0  0
 27 28  1  0  0  0  0
 28 29  2  0  0  0  0
 29 30  1  0  0  0  0
 30 31  2  0  0  0  0
 31 32  1  0  0  0  0
 27 32  2  0  0  0  0
 30 33  1  0  0  0  0
 29 34  1  0  0  0  0
 25 27  1  0  0  0  0
  8 23  1  0  0  0  0
M  END
>  <cdx:groupId>
1106

>  <cdx:fragmentId>
1034

$$$$
