301198.cdx
  Mrv1902 05222410232D          

 10 10  0  0  0  0            999 V2000
    6.6335   -7.9069    0.0000 N   0  0  0  0  0  0  0  0  0  0  0  0
    7.2853   -8.4126    0.0000 C   0  0  0  0  0  0  0  0  0  0  0  0
    7.0058   -9.1888    0.0000 C   0  0  0  0  0  0  0  0  0  0  0  0
    6.1812   -9.1628    0.0000 C   0  0  0  0  0  0  0  0  0  0  0  0
    5.9511   -8.3706    0.0000 C   0  0  0  0  0  0  0  0  0  0  0  0
    8.0776   -8.1824    0.0000 C   0  0  0  0  0  0  0  0  0  0  0  0
    8.2744   -7.3813    0.0000 O   0  0  0  0  0  0  0  0  0  0  0  0
    8.6730   -8.7535    0.0000 O   0  0  0  0  0  0  0  0  0  0  0  0
    5.1749   -8.0910    0.0000 O   0  0  0  0  0  0  0  0  0  0  0  0
    9.4652   -8.5234    0.0000 C   0  0  0  0  0  0  0  0  0  0  0  0
  1  2  1  0  0  0  0
  2  3  1  0  0  0  0
  3  4  1  0  0  0  0
  4  5  1  0  0  0  0
  1  5  1  0  0  0  0
  6  7  2  0  0  0  0
  6  8  1  0  0  0  0
  2  6  1  0  0  0  0
  5  9  2  0  0  0  0
  8 10  1  0  0  0  0
M  END
>  <cdx:fragmentId>
5095

$$$$
