301176.cdx
  Mrv1902 05222410252D          

 28 31  0  0  0  0            999 V2000
    5.4476   -7.8975    0.0000 C   0  0  0  0  0  0  0  0  0  0  0  0
    4.7331   -8.3100    0.0000 C   0  0  0  0  0  0  0  0  0  0  0  0
    4.7331   -9.1350    0.0000 C   0  0  0  0  0  0  0  0  0  0  0  0
    5.4476   -9.5475    0.0000 C   0  0  0  0  0  0  0  0  0  0  0  0
    6.1621   -9.1350    0.0000 C   0  0  0  0  0  0  0  0  0  0  0  0
    6.8765   -9.5475    0.0000 C   0  0  2  0  0  0  0  0  0  0  0  0
    7.5910   -9.1350    0.0000 C   0  0  0  0  0  0  0  0  0  0  0  0
    7.5910   -8.3100    0.0000 C   0  0  1  0  0  0  0  0  0  0  0  0
    8.3055   -7.8975    0.0000 C   0  0  2  0  0  0  0  0  0  0  0  0
    9.0901   -8.1524    0.0000 C   0  0  0  0  0  0  0  0  0  0  0  0
    9.5750   -7.4850    0.0000 C   0  0  0  0  0  0  0  0  0  0  0  0
    9.0901   -6.8176    0.0000 C   0  0  2  0  0  0  0  0  0  0  0  0
    8.3055   -7.0725    0.0000 C   0  0  1  0  0  0  0  0  0  0  0  0
    7.5910   -6.6600    0.0000 C   0  0  0  0  0  0  0  0  0  0  0  0
    6.8765   -7.0725    0.0000 C   0  0  0  0  0  0  0  0  0  0  0  0
    6.8765   -7.8975    0.0000 C   0  0  2  0  0  0  0  0  0  0  0  0
    6.1621   -8.3100    0.0000 C   0  0  1  0  0  0  0  0  0  0  0  0
    4.0187   -9.5475    0.0000 O   0  0  0  0  0  0  0  0  0  0  0  0
    9.7032   -6.2655    0.0000 C   0  0  0  0  0  0  0  0  0  0  0  0
   10.3163   -5.7135    0.0000 C   0  0  0  0  0  0  0  0  0  0  0  0
   10.9294   -5.1615    0.0000 C   0  0  0  0  0  0  0  0  0  0  0  0
    8.3055   -6.2475    0.0000 C   0  0  0  0  0  0  0  0  0  0  0  0
    6.1621   -7.4850    0.0000 C   0  0  0  0  0  0  0  0  0  0  0  0
    6.8765  -10.3725    0.0000 C   0  0  0  0  0  0  0  0  0  0  0  0
    8.9186   -6.0106    0.0000 O   0  0  0  0  0  0  0  0  0  0  0  0
    7.5910   -7.4850    0.0000 H   0  0  0  0  0  0  0  0  0  0  0  0
    6.8765   -8.7225    0.0000 H   0  0  0  0  0  0  0  0  0  0  0  0
    8.3055   -8.7225    0.0000 H   0  0  0  0  0  0  0  0  0  0  0  0
  1  2  1  0  0  0  0
  2  3  1  0  0  0  0
  3  4  1  0  0  0  0
  4  5  2  0  0  0  0
  5  6  1  0  0  0  0
  6  7  1  0  0  0  0
  7  8  1  0  0  0  0
  8  9  1  0  0  0  0
  9 10  1  0  0  0  0
 10 11  1  0  0  0  0
 11 12  1  0  0  0  0
 12 13  1  0  0  0  0
  9 13  1  0  0  0  0
 13 14  1  0  0  0  0
 14 15  1  0  0  0  0
 15 16  1  0  0  0  0
  8 16  1  0  0  0  0
 16 17  1  0  0  0  0
  5 17  1  0  0  0  0
  1 17  1  0  0  0  0
  3 18  2  0  0  0  0
 19 20  3  0  0  0  0
 20 21  1  0  0  0  0
 12 19  1  0  0  0  0
 13 22  1  1  0  0  0
 17 23  1  1  0  0  0
  6 24  1  6  0  0  0
 12 25  1  1  0  0  0
  8 26  1  1  0  0  0
 16 27  1  6  0  0  0
  9 28  1  6  0  0  0
M  END
>  <cdx:groupId>
2842

>  <cdx:fragmentId>
2758

$$$$
