301140.cdx
  Mrv1902 05222410222D          

 15 15  0  0  0  0            999 V2000
    3.1441   -6.3116    0.0000 C   0  0  0  0  0  0  0  0  0  0  0  0
   11.7005   -6.9154    0.0000 C   0  0  0  0  0  0  0  0  0  0  0  0
   10.9860   -6.5029    0.0000 C   0  0  0  0  0  0  0  0  0  0  0  0
   10.2716   -6.9154    0.0000 C   0  0  0  0  0  0  0  0  0  0  0  0
    9.5571   -6.5029    0.0000 C   0  0  0  0  0  0  0  0  0  0  0  0
    8.8426   -6.9154    0.0000 C   0  0  0  0  0  0  0  0  0  0  0  0
    8.1281   -6.5029    0.0000 C   0  0  0  0  0  0  0  0  0  0  0  0
    7.4137   -6.9154    0.0000 C   0  0  0  0  0  0  0  0  0  0  0  0
    6.6992   -6.5029    0.0000 C   0  0  0  0  0  0  0  0  0  0  0  0
    5.9847   -6.9154    0.0000 C   0  0  0  0  0  0  0  0  0  0  0  0
    4.3770   -5.5109    0.0000 C   0  0  0  0  0  0  0  0  0  0  0  0
    3.9645   -6.2253    0.0000 C   0  0  0  0  0  0  0  0  0  0  0  0
    4.5166   -6.8384    0.0000 O   0  0  0  0  0  0  0  0  0  0  0  0
    5.2703   -6.5029    0.0000 C   0  0  0  0  0  0  0  0  0  0  0  0
    5.1840   -5.6824    0.0000 O   0  0  0  0  0  0  0  0  0  0  0  0
 12  1  1  0  0  0  0
 14 10  1  0  0  0  0
  3  2  1  0  0  0  0
  4  3  1  0  0  0  0
  5  4  1  0  0  0  0
  6  5  1  0  0  0  0
  7  6  1  0  0  0  0
  8  7  1  0  0  0  0
  9  8  1  0  0  0  0
 10  9  1  0  0  0  0
 15 11  1  0  0  0  0
 12 11  1  0  0  0  0
 13 12  1  0  0  0  0
 14 13  1  0  0  0  0
 15 14  1  0  0  0  0
M  END
>  <cdx:fragmentId>
15

$$$$
