301192.cdx
  Mrv1902 05222410212D          

 42 45  0  0  0  0            999 V2000
    6.3533   -8.4356    0.0000 C   0  0  0  0  0  0  0  0  0  0  0  0
    7.0678   -8.8481    0.0000 C   0  0  0  0  0  0  0  0  0  0  0  0
    7.0678   -9.6731    0.0000 C   0  0  0  0  0  0  0  0  0  0  0  0
    6.3533  -10.0856    0.0000 C   0  0  0  0  0  0  0  0  0  0  0  0
    5.6388   -9.6731    0.0000 C   0  0  0  0  0  0  0  0  0  0  0  0
    5.6388   -8.8481    0.0000 C   0  0  0  0  0  0  0  0  0  0  0  0
    6.3533   -7.6106    0.0000 O   0  0  0  0  0  0  0  0  0  0  0  0
    5.6388  -12.1481    0.0000 C   0  0  0  0  0  0  0  0  0  0  0  0
    4.9244   -8.4356    0.0000 C   0  0  1  0  0  0  0  0  0  0  0  0
    4.9244   -7.6106    0.0000 C   0  0  0  0  0  0  0  0  0  0  0  0
    4.2099   -7.1981    0.0000 C   0  0  0  0  0  0  0  0  0  0  0  0
    3.4954   -7.6106    0.0000 C   0  0  0  0  0  0  0  0  0  0  0  0
    3.4954   -8.4356    0.0000 C   0  0  0  0  0  0  0  0  0  0  0  0
    4.2099   -8.8481    0.0000 C   0  0  1  0  0  0  0  0  0  0  0  0
    3.4954  -10.0856    0.0000 C   0  0  0  0  0  0  0  0  0  0  0  0
    4.2099   -9.6731    0.0000 C   0  0  0  0  0  0  0  0  0  0  0  0
    4.9244  -10.0856    0.0000 C   0  0  0  0  0  0  0  0  0  0  0  0
    4.2099   -6.3731    0.0000 C   0  0  0  0  0  0  0  0  0  0  0  0
    7.7822   -8.4356    0.0000 C   0  0  0  0  0  0  0  0  0  0  0  0
    8.4967   -8.8481    0.0000 C   0  0  0  0  0  0  0  0  0  0  0  0
    9.2112   -8.4356    0.0000 C   0  0  0  0  0  0  0  0  0  0  0  0
    9.2112   -7.6106    0.0000 C   0  0  0  0  0  0  0  0  0  0  0  0
    8.4967   -7.1981    0.0000 C   0  0  0  0  0  0  0  0  0  0  0  0
    7.7822   -7.6106    0.0000 C   0  0  0  0  0  0  0  0  0  0  0  0
    8.4967   -6.3731    0.0000 C   0  0  0  0  0  0  0  0  0  0  0  0
    9.2112   -5.9606    0.0000 C   0  0  0  0  0  0  0  0  0  0  0  0
    9.2112   -5.1356    0.0000 C   0  0  0  0  0  0  0  0  0  0  0  0
    9.9256   -8.8481    0.0000 C   0  0  1  0  0  0  0  0  0  0  0  0
    9.9256   -9.6731    0.0000 C   0  0  0  0  0  0  0  0  0  0  0  0
   10.6401  -10.0856    0.0000 C   0  0  0  0  0  0  0  0  0  0  0  0
   11.3546   -9.6731    0.0000 C   0  0  0  0  0  0  0  0  0  0  0  0
   11.3546   -8.8481    0.0000 C   0  0  0  0  0  0  0  0  0  0  0  0
   10.6401   -8.4356    0.0000 C   0  0  1  0  0  0  0  0  0  0  0  0
   11.3546   -7.1981    0.0000 C   0  0  0  0  0  0  0  0  0  0  0  0
   10.6401   -7.6106    0.0000 C   0  0  0  0  0  0  0  0  0  0  0  0
    9.9256   -7.1981    0.0000 C   0  0  0  0  0  0  0  0  0  0  0  0
   10.6401  -10.9106    0.0000 C   0  0  0  0  0  0  0  0  0  0  0  0
    8.4967   -9.6731    0.0000 O   0  0  0  0  0  0  0  0  0  0  0  0
    5.6388  -11.3231    0.0000 C   0  0  0  0  0  0  0  0  0  0  0  0
    6.3533  -10.9106    0.0000 C   0  0  0  0  0  0  0  0  0  0  0  0
    5.6388   -8.0231    0.0000 H   0  0  0  0  0  0  0  0  0  0  0  0
    9.2112   -9.2606    0.0000 H   0  0  0  0  0  0  0  0  0  0  0  0
 39  8  2  0  0  0  0
 40 39  1  0  0  0  0
  1  2  1  0  0  0  0
  2  3  2  0  0  0  0
  3  4  1  0  0  0  0
  4  5  2  0  0  0  0
  5  6  1  0  0  0  0
  1  6  2  0  0  0  0
  1  7  1  0  0  0  0
  4 40  1  0  0  0  0
  9 10  1  0  0  0  0
 10 11  2  0  0  0  0
 11 12  1  0  0  0  0
 12 13  1  0  0  0  0
 13 14  1  0  0  0  0
  9 14  1  0  0  0  0
 15 16  1  0  0  0  0
 16 17  1  0  0  0  0
 14 16  1  6  0  0  0
 11 18  1  0  0  0  0
  9  6  1  0  0  0  0
 19 20  1  0  0  0  0
 20 21  2  0  0  0  0
 21 22  1  0  0  0  0
 22 23  2  0  0  0  0
 23 24  1  0  0  0  0
 19 24  2  0  0  0  0
 25 26  1  0  0  0  0
 26 27  2  0  0  0  0
 23 25  1  0  0  0  0
 28 29  1  0  0  0  0
 29 30  2  0  0  0  0
 30 31  1  0  0  0  0
 31 32  1  0  0  0  0
 32 33  1  0  0  0  0
 28 33  1  0  0  0  0
 34 35  1  0  0  0  0
 35 36  1  0  0  0  0
 33 35  1  6  0  0  0
 30 37  1  0  0  0  0
 28 21  1  0  0  0  0
 20 38  1  0  0  0  0
  2 19  1  0  0  0  0
  9 41  1  1  0  0  0
 28 42  1  1  0  0  0
M  END
>  <cdx:fragmentId>
4131

$$$$
