301148.cdx
  Mrv1902 05222410252D          

 11 11  0  0  0  0            999 V2000
    6.6683   -7.0379    0.0000 C   0  0  0  0  0  0  0  0  0  0  0  0
    6.4060   -7.8201    0.0000 C   0  0  1  0  0  0  0  0  0  0  0  0
    7.0689   -8.3112    0.0000 O   0  0  0  0  0  0  0  0  0  0  0  0
    7.7408   -7.8325    0.0000 C   0  0  2  0  0  0  0  0  0  0  0  0
    7.4932   -7.0455    0.0000 C   0  0  0  0  0  0  0  0  0  0  0  0
    5.6916   -8.2326    0.0000 C   0  0  0  0  0  0  0  0  0  0  0  0
    8.4553   -7.4200    0.0000 C   0  0  0  0  0  0  0  0  0  0  0  0
    4.9771   -7.8201    0.0000 C   0  0  0  0  0  0  0  0  0  0  0  0
    5.6916   -9.0576    0.0000 C   0  0  0  0  0  0  0  0  0  0  0  0
    8.1869   -8.5265    0.0000 C   0  0  0  0  0  0  0  0  0  0  0  0
    7.8090   -9.2598    0.0000 C   0  0  0  0  0  0  0  0  0  0  0  0
  1  2  1  0  0  0  0
  2  3  1  0  0  0  0
  3  4  1  0  0  0  0
  4  5  1  0  0  0  0
  5  1  1  0  0  0  0
  2  6  1  1  0  0  0
  4  7  1  6  0  0  0
  6  8  1  0  0  0  0
  6  9  2  0  0  0  0
  4 10  1  0  0  0  0
 10 11  2  0  0  0  0
M  END
>  <cdx:fragmentId>
5

$$$$
