301145.cdx
  Mrv1902 05222410212D          

 22 21  0  0  0  0            999 V2000
   10.6401   -7.0966    0.0000 C   0  0  0  0  0  0  0  0  0  0  0  0
    9.9256   -6.6841    0.0000 C   0  0  0  0  0  0  0  0  0  0  0  0
    9.2112   -7.0966    0.0000 C   0  0  0  0  0  0  0  0  0  0  0  0
    8.4967   -6.6841    0.0000 C   0  0  0  0  0  0  0  0  0  0  0  0
    7.7822   -7.0966    0.0000 C   0  0  0  0  0  0  0  0  0  0  0  0
    7.0678   -6.6841    0.0000 C   0  0  0  0  0  0  0  0  0  0  0  0
    6.3533   -7.0966    0.0000 C   0  0  0  0  0  0  0  0  0  0  0  0
    5.6388   -6.6841    0.0000 C   0  0  0  0  0  0  0  0  0  0  0  0
    4.9244   -7.0966    0.0000 C   0  0  0  0  0  0  0  0  0  0  0  0
    4.2099   -6.6841    0.0000 C   0  0  0  0  0  0  0  0  0  0  0  0
   10.6401   -7.9216    0.0000 O   0  0  0  0  0  0  0  0  0  0  0  0
   11.3546   -6.6841    0.0000 O   0  0  0  0  0  0  0  0  0  0  0  0
    4.2099   -5.8591    0.0000 O   0  0  0  0  0  0  0  0  0  0  0  0
    3.4954   -7.0966    0.0000 O   0  0  0  0  0  0  0  0  0  0  0  0
   12.0691   -7.0966    0.0000 C   0  0  0  0  0  0  0  0  0  0  0  0
   12.7835   -6.6841    0.0000 C   0  0  0  0  0  0  0  0  0  0  0  0
   13.4980   -7.0966    0.0000 C   0  0  0  0  0  0  0  0  0  0  0  0
   14.2125   -6.6841    0.0000 C   0  0  0  0  0  0  0  0  0  0  0  0
    2.7809   -6.6841    0.0000 C   0  0  0  0  0  0  0  0  0  0  0  0
    2.0665   -7.0966    0.0000 C   0  0  0  0  0  0  0  0  0  0  0  0
    1.3520   -6.6841    0.0000 C   0  0  0  0  0  0  0  0  0  0  0  0
    0.6375   -7.0966    0.0000 C   0  0  0  0  0  0  0  0  0  0  0  0
  1  2  1  0  0  0  0
  2  3  1  0  0  0  0
  3  4  1  0  0  0  0
  4  5  1  0  0  0  0
  5  6  1  0  0  0  0
  6  7  1  0  0  0  0
  7  8  1  0  0  0  0
  8  9  1  0  0  0  0
  9 10  1  0  0  0  0
  1 11  2  0  0  0  0
  1 12  1  0  0  0  0
 10 13  2  0  0  0  0
 10 14  1  0  0  0  0
 15 16  1  0  0  0  0
 16 17  1  0  0  0  0
 17 18  1  0  0  0  0
 12 15  1  0  0  0  0
 19 20  1  0  0  0  0
 20 21  1  0  0  0  0
 21 22  1  0  0  0  0
 14 19  1  0  0  0  0
M  END
>  <cdx:groupId>
898

>  <cdx:fragmentId>
836

$$$$
