301150.cdx
  Mrv1902 05222410212D          

 30 31  0  0  0  0            999 V2000
    9.9256   -7.0966    0.0000 C   0  0  0  0  0  0  0  0  0  0  0  0
   10.6401   -6.6841    0.0000 C   0  0  0  0  0  0  0  0  0  0  0  0
   11.3546   -7.0966    0.0000 C   0  0  0  0  0  0  0  0  0  0  0  0
    9.9256   -7.9216    0.0000 O   0  0  0  0  0  0  0  0  0  0  0  0
    9.2112   -6.6841    0.0000 N   0  0  0  0  0  0  0  0  0  0  0  0
    8.4967   -7.0966    0.0000 C   0  0  0  0  0  0  0  0  0  0  0  0
    7.7822   -6.6841    0.0000 C   0  0  0  0  0  0  0  0  0  0  0  0
    7.0678   -7.0966    0.0000 C   0  0  0  0  0  0  0  0  0  0  0  0
    6.3533   -6.6841    0.0000 C   0  0  0  0  0  0  0  0  0  0  0  0
    5.6388   -7.0966    0.0000 N   0  0  0  0  0  0  0  0  0  0  0  0
    4.9244   -6.6841    0.0000 C   0  0  0  0  0  0  0  0  0  0  0  0
    4.2099   -7.0966    0.0000 C   0  0  0  0  0  0  0  0  0  0  0  0
    3.4954   -6.6841    0.0000 C   0  0  0  0  0  0  0  0  0  0  0  0
    4.9244   -5.8591    0.0000 O   0  0  0  0  0  0  0  0  0  0  0  0
    2.7809   -7.0966    0.0000 C   0  0  0  0  0  0  0  0  0  0  0  0
    2.0665   -6.6841    0.0000 C   0  0  0  0  0  0  0  0  0  0  0  0
    1.3520   -7.0966    0.0000 C   0  0  0  0  0  0  0  0  0  0  0  0
    1.3520   -7.9216    0.0000 C   0  0  0  0  0  0  0  0  0  0  0  0
    2.0665   -8.3341    0.0000 C   0  0  0  0  0  0  0  0  0  0  0  0
    2.7809   -7.9216    0.0000 C   0  0  0  0  0  0  0  0  0  0  0  0
    0.6375   -8.3341    0.0000 O   0  0  0  0  0  0  0  0  0  0  0  0
    0.6375   -6.6841    0.0000 O   0  0  0  0  0  0  0  0  0  0  0  0
   12.0691   -6.6841    0.0000 C   0  0  0  0  0  0  0  0  0  0  0  0
   12.7835   -7.0966    0.0000 C   0  0  0  0  0  0  0  0  0  0  0  0
   13.4980   -6.6841    0.0000 C   0  0  0  0  0  0  0  0  0  0  0  0
   13.4980   -5.8591    0.0000 C   0  0  0  0  0  0  0  0  0  0  0  0
   12.7835   -5.4466    0.0000 C   0  0  0  0  0  0  0  0  0  0  0  0
   12.0691   -5.8591    0.0000 C   0  0  0  0  0  0  0  0  0  0  0  0
   14.2125   -5.4466    0.0000 O   0  0  0  0  0  0  0  0  0  0  0  0
   14.2125   -7.0966    0.0000 O   0  0  0  0  0  0  0  0  0  0  0  0
  1  2  1  0  0  0  0
  2  3  2  0  0  0  0
  1  4  2  0  0  0  0
  1  5  1  0  0  0  0
  6  7  1  0  0  0  0
  7  8  1  0  0  0  0
  8  9  1  0  0  0  0
 11 12  1  0  0  0  0
 12 13  2  0  0  0  0
 11 14  2  0  0  0  0
 15 16  1  0  0  0  0
 16 17  2  0  0  0  0
 17 18  1  0  0  0  0
 18 19  2  0  0  0  0
 19 20  1  0  0  0  0
 15 20  2  0  0  0  0
 18 21  1  0  0  0  0
 17 22  1  0  0  0  0
 13 15  1  0  0  0  0
 10 11  1  0  0  0  0
  9 10  1  0  0  0  0
  5  6  1  0  0  0  0
 23 24  1  0  0  0  0
 24 25  2  0  0  0  0
 25 26  1  0  0  0  0
 26 27  2  0  0  0  0
 27 28  1  0  0  0  0
 23 28  2  0  0  0  0
 26 29  1  0  0  0  0
 25 30  1  0  0  0  0
  3 23  1  0  0  0  0
M  END
>  <cdx:groupId>
995

>  <cdx:fragmentId>
935

$$$$
