30117.cdx
  Mrv1902 05222410262D          

 12 11  0  0  0  0            999 V2000
    7.5904   -5.6320    0.0000 O   0  0  0  0  0  0  0  0  0  0  0  0
    7.5962   -6.4570    0.0000 C   0  0  0  0  0  0  0  0  0  0  0  0
    6.8847   -6.8745    0.0000 C   0  0  2  0  0  0  0  0  0  0  0  0
    6.8905   -7.6995    0.0000 C   0  0  0  0  0  0  0  0  0  0  0  0
    6.1790   -8.1170    0.0000 S   0  0  0  0  0  0  0  0  0  0  0  0
    6.1848   -8.9420    0.0000 C   0  0  0  0  0  0  0  0  0  0  0  0
    5.4733   -9.3596    0.0000 C   0  0  0  0  0  0  0  0  0  0  0  0
    5.4791  -10.1845    0.0000 C   0  0  0  0  0  0  0  0  0  0  0  0
    4.7676  -10.6021    0.0000 C   0  0  0  0  0  0  0  0  0  0  0  0
    8.3136   -6.8644    0.0000 O   0  0  0  0  0  0  0  0  0  0  0  0
    5.4616   -7.7096    0.0000 O   0  0  0  0  0  0  0  0  0  0  0  0
    6.1673   -6.4671    0.0000 N   0  0  0  0  0  0  0  0  0  0  0  0
  1  2  1  0  0  0  0
  2  3  1  0  0  0  0
  3  4  1  0  0  0  0
  4  5  1  0  0  0  0
  5  6  1  0  0  0  0
  6  7  1  0  0  0  0
  7  8  1  0  0  0  0
  8  9  1  0  0  0  0
  2 10  2  0  0  0  0
  5 11  2  0  0  0  0
  3 12  1  6  0  0  0
M  END
>  <cdx:fragmentId>
3

$$$$
