301136.cdx
  Mrv1902 05222410192D          

 28 29  0  0  0  0            999 V2000
    4.7107   -7.3507    0.0000 C   0  0  0  0  0  0  0  0  0  0  0  0
    7.5686   -5.7007    0.0000 C   0  0  0  0  0  0  0  0  0  0  0  0
   10.4265   -5.7007    0.0000 C   0  0  0  0  0  0  0  0  0  0  0  0
   13.2844   -5.7007    0.0000 C   0  0  0  0  0  0  0  0  0  0  0  0
   13.9988   -6.9382    0.0000 C   0  0  0  0  0  0  0  0  0  0  0  0
   13.2844   -6.5257    0.0000 C   0  0  0  0  0  0  0  0  0  0  0  0
   12.5699   -6.9382    0.0000 C   0  0  0  0  0  0  0  0  0  0  0  0
   11.8554   -6.5257    0.0000 C   0  0  0  0  0  0  0  0  0  0  0  0
   11.1410   -6.9382    0.0000 C   0  0  0  0  0  0  0  0  0  0  0  0
   10.4265   -6.5257    0.0000 C   0  0  2  0  0  0  0  0  0  0  0  0
    9.7120   -6.9382    0.0000 C   0  0  0  0  0  0  0  0  0  0  0  0
    8.9975   -6.5257    0.0000 C   0  0  0  0  0  0  0  0  0  0  0  0
    8.2831   -6.9382    0.0000 C   0  0  0  0  0  0  0  0  0  0  0  0
    7.5686   -6.5257    0.0000 C   0  0  2  0  0  0  0  0  0  0  0  0
    6.8541   -6.9382    0.0000 C   0  0  0  0  0  0  0  0  0  0  0  0
    6.1397   -6.5257    0.0000 C   0  0  0  0  0  0  0  0  0  0  0  0
    5.4252   -6.9382    0.0000 C   0  0  0  0  0  0  0  0  0  0  0  0
    1.1384   -5.2882    0.0000 O   0  0  0  0  0  0  0  0  0  0  0  0
    3.9962   -6.9382    0.0000 O   0  0  0  0  0  0  0  0  0  0  0  0
    3.2818   -6.5257    0.0000 C   0  0  0  0  0  0  0  0  0  0  0  0
    2.5673   -6.9382    0.0000 C   0  0  0  0  0  0  0  0  0  0  0  0
    1.8528   -6.5257    0.0000 C   0  0  0  0  0  0  0  0  0  0  0  0
    1.8528   -5.7007    0.0000 C   0  0  0  0  0  0  0  0  0  0  0  0
    2.5673   -5.2882    0.0000 C   0  0  0  0  0  0  0  0  0  0  0  0
    3.2818   -5.7007    0.0000 C   0  0  0  0  0  0  0  0  0  0  0  0
    3.9962   -5.2882    0.0000 C   0  0  0  0  0  0  0  0  0  0  0  0
    4.7107   -5.7007    0.0000 C   0  0  0  0  0  0  0  0  0  0  0  0
    4.7107   -6.5257    0.0000 C   0  0  2  0  0  0  0  0  0  0  0  0
 28  1  1  6  0  0  0
 28 17  1  0  0  0  0
 14  2  1  6  0  0  0
 10  3  1  6  0  0  0
  6  4  1  0  0  0  0
  6  5  1  0  0  0  0
  7  6  1  0  0  0  0
  8  7  1  0  0  0  0
  9  8  1  0  0  0  0
 10  9  1  0  0  0  0
 11 10  1  0  0  0  0
 12 11  1  0  0  0  0
 13 12  1  0  0  0  0
 14 13  1  0  0  0  0
 15 14  1  0  0  0  0
 16 15  1  0  0  0  0
 17 16  1  0  0  0  0
 23 18  1  0  0  0  0
 28 19  1  0  0  0  0
 20 19  1  0  0  0  0
 25 20  2  0  0  0  0
 21 20  1  0  0  0  0
 22 21  2  0  0  0  0
 23 22  1  0  0  0  0
 24 23  2  0  0  0  0
 25 24  1  0  0  0  0
 26 25  1  0  0  0  0
 27 26  1  0  0  0  0
 28 27  1  0  0  0  0
M  END
>  <cdx:fragmentId>
27

$$$$
