301154.cdx
  Mrv1902 05222410222D          

 18 20  0  0  0  0            999 V2000
    7.1498   -5.5535    0.0000 N   0  0  0  0  0  0  0  0  0  0  0  0
    6.6588   -6.2164    0.0000 C   0  0  0  0  0  0  0  0  0  0  0  0
    7.1376   -6.8883    0.0000 N   0  0  0  0  0  0  0  0  0  0  0  0
    7.9245   -6.6406    0.0000 C   0  0  0  0  0  0  0  0  0  0  0  0
    8.6351   -7.0596    0.0000 N   0  0  0  0  0  0  0  0  0  0  0  0
    9.3534   -6.6537    0.0000 C   0  0  0  0  0  0  0  0  0  0  0  0
    9.3609   -5.8287    0.0000 N   0  0  0  0  0  0  0  0  0  0  0  0
    8.6503   -5.4097    0.0000 C   0  0  0  0  0  0  0  0  0  0  0  0
    7.9321   -5.8156    0.0000 C   0  0  0  0  0  0  0  0  0  0  0  0
    8.6579   -4.5847    0.0000 O   0  0  0  0  0  0  0  0  0  0  0  0
    6.0885   -7.9183    0.0000 O   0  0  0  0  0  0  0  0  0  0  0  0
    6.8754   -7.6705    0.0000 C   0  0  2  0  0  0  0  0  0  0  0  0
    7.3542   -8.3424    0.0000 C   0  0  0  0  0  0  0  0  0  0  0  0
    6.8632   -9.0054    0.0000 C   0  0  0  0  0  0  0  0  0  0  0  0
    6.0809   -8.7432    0.0000 C   0  0  1  0  0  0  0  0  0  0  0  0
    5.4091   -9.2220    0.0000 C   0  0  0  0  0  0  0  0  0  0  0  0
    5.6226  -10.0189    0.0000 O   0  0  0  0  0  0  0  0  0  0  0  0
   10.0640   -7.0727    0.0000 N   0  0  0  0  0  0  0  0  0  0  0  0
  1  2  2  0  0  0  0
  2  3  1  0  0  0  0
  3  4  1  0  0  0  0
  4  5  1  0  0  0  0
  5  6  2  0  0  0  0
  6  7  1  0  0  0  0
  7  8  1  0  0  0  0
  8  9  1  0  0  0  0
  1  9  1  0  0  0  0
  4  9  2  0  0  0  0
  8 10  2  0  0  0  0
 11 12  1  0  0  0  0
 12 13  1  0  0  0  0
 13 14  1  0  0  0  0
 14 15  1  0  0  0  0
 11 15  1  0  0  0  0
 16 17  1  0  0  0  0
 15 16  1  1  0  0  0
 12  3  1  1  0  0  0
  6 18  1  0  0  0  0
M  END
>  <cdx:groupId>
1261

>  <cdx:fragmentId>
1208

$$$$
