301156.cdx
  Mrv1902 05222410222D          

 12 11  0  0  0  0            999 V2000
    8.4967   -7.3166    0.0000 C   0  0  0  0  0  0  0  0  0  0  0  0
    7.7822   -6.9041    0.0000 C   0  0  0  0  0  0  0  0  0  0  0  0
    7.0678   -7.3166    0.0000 C   0  0  0  0  0  0  0  0  0  0  0  0
    6.3533   -6.9041    0.0000 C   0  0  0  0  0  0  0  0  0  0  0  0
    8.4967   -8.1416    0.0000 O   0  0  0  0  0  0  0  0  0  0  0  0
    9.2112   -6.9041    0.0000 O   0  0  0  0  0  0  0  0  0  0  0  0
    6.3533   -6.0791    0.0000 O   0  0  0  0  0  0  0  0  0  0  0  0
    5.6388   -7.3166    0.0000 O   0  0  0  0  0  0  0  0  0  0  0  0
    9.9256   -7.3166    0.0000 C   0  0  0  0  0  0  0  0  0  0  0  0
   10.6401   -6.9041    0.0000 C   0  0  0  0  0  0  0  0  0  0  0  0
    4.9244   -6.9041    0.0000 C   0  0  0  0  0  0  0  0  0  0  0  0
    4.2099   -7.3166    0.0000 C   0  0  0  0  0  0  0  0  0  0  0  0
  1  2  1  0  0  0  0
  2  3  1  0  0  0  0
  3  4  1  0  0  0  0
  1  5  2  0  0  0  0
  1  6  1  0  0  0  0
  4  7  2  0  0  0  0
  4  8  1  0  0  0  0
  9 10  1  0  0  0  0
  6  9  1  0  0  0  0
 11 12  1  0  0  0  0
  8 11  1  0  0  0  0
M  END
>  <cdx:groupId>
1418

>  <cdx:fragmentId>
1386

$$$$
