301141.cdx
  Mrv1902 05222410222D          

 30 33  0  0  0  0            999 V2000
    5.2284   -7.0373    0.0000 C   0  0  0  0  0  0  0  0  0  0  0  0
    4.5139   -7.4498    0.0000 C   0  0  0  0  0  0  0  0  0  0  0  0
    4.5139   -8.2748    0.0000 C   0  0  0  0  0  0  0  0  0  0  0  0
    5.2284   -8.6873    0.0000 C   0  0  0  0  0  0  0  0  0  0  0  0
    5.9429   -8.2748    0.0000 C   0  0  0  0  0  0  0  0  0  0  0  0
    6.6573   -8.6873    0.0000 C   0  0  0  0  0  0  0  0  0  0  0  0
    7.3718   -8.2748    0.0000 C   0  0  0  0  0  0  0  0  0  0  0  0
    7.3718   -7.4498    0.0000 C   0  0  1  0  0  0  0  0  0  0  0  0
    8.0863   -7.0373    0.0000 C   0  0  2  0  0  0  0  0  0  0  0  0
    8.8709   -7.2923    0.0000 C   0  0  0  0  0  0  0  0  0  0  0  0
    9.3558   -6.6248    0.0000 C   0  0  2  0  0  0  0  0  0  0  0  0
    8.8709   -5.9574    0.0000 C   0  0  1  0  0  0  0  0  0  0  0  0
    8.0863   -6.2123    0.0000 C   0  0  1  0  0  0  0  0  0  0  0  0
    7.3718   -5.7998    0.0000 C   0  0  0  0  0  0  0  0  0  0  0  0
    6.6573   -6.2123    0.0000 C   0  0  1  0  0  0  0  0  0  0  0  0
    6.6573   -7.0373    0.0000 C   0  0  2  0  0  0  0  0  0  0  0  0
    5.9429   -7.4498    0.0000 C   0  0  1  0  0  0  0  0  0  0  0  0
    3.7994   -8.6873    0.0000 O   0  0  0  0  0  0  0  0  0  0  0  0
   10.1808   -6.6248    0.0000 C   0  0  0  0  0  0  0  0  0  0  0  0
    8.1725   -5.3918    0.0000 C   0  0  0  0  0  0  0  0  0  0  0  0
    5.9429   -6.6248    0.0000 C   0  0  0  0  0  0  0  0  0  0  0  0
    9.4840   -5.4054    0.0000 C   0  0  0  0  0  0  0  0  0  0  0  0
    9.3125   -4.5984    0.0000 O   0  0  0  0  0  0  0  0  0  0  0  0
   10.2686   -5.6603    0.0000 C   0  0  0  0  0  0  0  0  0  0  0  0
   10.8520   -5.0769    0.0000 O   0  0  0  0  0  0  0  0  0  0  0  0
    8.6994   -5.1504    0.0000 O   0  0  0  0  0  0  0  0  0  0  0  0
    5.9429   -5.7998    0.0000 O   0  0  0  0  0  0  0  0  0  0  0  0
    6.6573   -7.8623    0.0000 F   0  0  0  0  0  0  0  0  0  0  0  0
    7.3718   -6.6248    0.0000 H   0  0  0  0  0  0  0  0  0  0  0  0
    8.0863   -7.8623    0.0000 H   0  0  0  0  0  0  0  0  0  0  0  0
  1  2  2  0  0  0  0
  2  3  1  0  0  0  0
  3  4  1  0  0  0  0
  4  5  2  0  0  0  0
  5  6  1  0  0  0  0
  6  7  1  0  0  0  0
  7  8  1  0  0  0  0
  8  9  1  0  0  0  0
  9 10  1  0  0  0  0
 10 11  1  0  0  0  0
 11 12  1  0  0  0  0
 12 13  1  0  0  0  0
  9 13  1  0  0  0  0
 13 14  1  0  0  0  0
 14 15  1  0  0  0  0
 15 16  1  0  0  0  0
  8 16  1  0  0  0  0
 16 17  1  0  0  0  0
  5 17  1  0  0  0  0
  1 17  1  0  0  0  0
  3 18  2  0  0  0  0
 11 19  1  6  0  0  0
 13 20  1  1  0  0  0
 17 21  1  1  0  0  0
 22 23  2  0  0  0  0
 22 24  1  0  0  0  0
 24 25  1  0  0  0  0
 12 22  1  1  0  0  0
 12 26  1  6  0  0  0
 15 27  1  1  0  0  0
 16 28  1  6  0  0  0
  8 29  1  1  0  0  0
  9 30  1  6  0  0  0
M  END
>  <cdx:groupId>
472

>  <cdx:fragmentId>
382

$$$$
