301124.cdx
  Mrv1902 05222410182D          

 26 29  0  0  0  0            999 V2000
    8.1362   -7.1074    0.0000 C   0  0  0  0  0  0  0  0  0  0  0  0
    7.4218   -7.5199    0.0000 C   0  0  0  0  0  0  0  0  0  0  0  0
    6.7073   -7.1074    0.0000 C   0  0  0  0  0  0  0  0  0  0  0  0
    5.9928   -7.5199    0.0000 C   0  0  0  0  0  0  0  0  0  0  0  0
    5.9928   -8.3449    0.0000 C   0  0  0  0  0  0  0  0  0  0  0  0
    6.7073   -8.7574    0.0000 C   0  0  0  0  0  0  0  0  0  0  0  0
    7.4218   -8.3449    0.0000 C   0  0  0  0  0  0  0  0  0  0  0  0
    8.1362   -8.7574    0.0000 C   0  0  0  0  0  0  0  0  0  0  0  0
    8.8507   -8.3449    0.0000 C   0  0  0  0  0  0  0  0  0  0  0  0
    9.5646   -8.7583    0.0000 N   0  0  0  0  0  0  0  0  0  0  0  0
   10.2790   -8.3456    0.0000 C   0  0  0  0  0  0  0  0  0  0  0  0
   10.2792   -7.5206    0.0000 C   0  0  0  0  0  0  0  0  0  0  0  0
    9.5652   -7.1074    0.0000 C   0  0  0  0  0  0  0  0  0  0  0  0
    9.5652   -6.2824    0.0000 C   0  0  0  0  0  0  0  0  0  0  0  0
    8.8507   -5.8699    0.0000 C   0  0  0  0  0  0  0  0  0  0  0  0
    8.1362   -6.2824    0.0000 C   0  0  0  0  0  0  0  0  0  0  0  0
    8.8507   -7.5199    0.0000 C   0  0  0  0  0  0  0  0  0  0  0  0
    9.5646   -9.5833    0.0000 C   0  0  0  0  0  0  0  0  0  0  0  0
    7.4218   -5.8699    0.0000 O   0  0  0  0  0  0  0  0  0  0  0  0
    6.7073   -6.2824    0.0000 C   0  0  0  0  0  0  0  0  0  0  0  0
    8.8507   -5.0449    0.0000 O   0  0  0  0  0  0  0  0  0  0  0  0
    9.5652   -4.6324    0.0000 C   0  0  0  0  0  0  0  0  0  0  0  0
    5.2784   -8.7574    0.0000 O   0  0  0  0  0  0  0  0  0  0  0  0
    4.5639   -8.3449    0.0000 C   0  0  0  0  0  0  0  0  0  0  0  0
    5.2784   -7.1074    0.0000 O   0  0  0  0  0  0  0  0  0  0  0  0
    4.5639   -7.5199    0.0000 C   0  0  0  0  0  0  0  0  0  0  0  0
  1  2  2  0  0  0  0
  2  3  1  0  0  0  0
  3  4  2  0  0  0  0
  4  5  1  0  0  0  0
  5  6  2  0  0  0  0
  6  7  1  0  0  0  0
  7  8  2  0  0  0  0
  8  9  1  0  0  0  0
  9 10  1  0  0  0  0
 10 11  1  0  0  0  0
 11 12  1  0  0  0  0
 12 13  1  0  0  0  0
 13 14  2  0  0  0  0
 14 15  1  0  0  0  0
 15 16  2  0  0  0  0
  1 16  1  0  0  0  0
  1 17  1  0  0  0  0
 17  9  2  0  0  0  0
  2  7  1  0  0  0  0
 13 17  1  0  0  0  0
 10 18  1  0  0  0  0
 19 20  1  0  0  0  0
 16 19  1  0  0  0  0
 21 22  1  0  0  0  0
 15 21  1  0  0  0  0
 23 24  1  0  0  0  0
  5 23  1  0  0  0  0
 25 26  1  0  0  0  0
  4 25  1  0  0  0  0
M  END
>  <cdx:groupId>
1631

>  <cdx:fragmentId>
1553

$$$$
