301160.cdx
  Mrv1902 05222410252D          

 50 56  0  0  0  0            999 V2000
    3.8702  -10.2689    0.0000 C   0  0  0  0  0  0  0  0  0  0  0  0
    4.5847   -9.8564    0.0000 C   0  0  1  0  0  0  0  0  0  0  0  0
    4.5847   -9.0314    0.0000 C   0  0  2  0  0  0  0  0  0  0  0  0
    3.8702   -8.6189    0.0000 O   0  0  0  0  0  0  0  0  0  0  0  0
    5.2991  -10.2689    0.0000 O   0  0  0  0  0  0  0  0  0  0  0  0
    6.0136   -9.8564    0.0000 C   0  0  1  0  0  0  0  0  0  0  0  0
    6.0136   -9.0314    0.0000 C   0  0  0  0  0  0  0  0  0  0  0  0
    5.2991   -8.6189    0.0000 C   0  0  1  0  0  0  0  0  0  0  0  0
    6.7281  -10.2689    0.0000 O   0  0  0  0  0  0  0  0  0  0  0  0
    7.4426   -9.8564    0.0000 C   0  0  1  0  0  0  0  0  0  0  0  0
    7.4426   -9.0314    0.0000 C   0  0  0  0  0  0  0  0  0  0  0  0
    8.1570  -10.2689    0.0000 C   0  0  0  0  0  0  0  0  0  0  0  0
    8.8715   -9.8564    0.0000 C   0  0  2  0  0  0  0  0  0  0  0  0
    8.8715   -9.0314    0.0000 C   0  0  2  0  0  0  0  0  0  0  0  0
    8.1570   -8.6189    0.0000 C   0  0  0  0  0  0  0  0  0  0  0  0
    9.5860  -10.2689    0.0000 C   0  0  0  0  0  0  0  0  0  0  0  0
   10.3004   -9.8564    0.0000 C   0  0  0  0  0  0  0  0  0  0  0  0
   10.3004   -9.0314    0.0000 C   0  0  2  0  0  0  0  0  0  0  0  0
    9.5860   -8.6189    0.0000 C   0  0  2  0  0  0  0  0  0  0  0  0
   11.0149   -8.6189    0.0000 C   0  0  2  0  0  0  0  0  0  0  0  0
   11.0149   -7.7939    0.0000 C   0  0  2  0  0  0  0  0  0  0  0  0
   10.3004   -7.3814    0.0000 C   0  0  1  0  0  0  0  0  0  0  0  0
    9.5860   -7.7939    0.0000 C   0  0  0  0  0  0  0  0  0  0  0  0
   11.7995   -8.8738    0.0000 C   0  0  0  0  0  0  0  0  0  0  0  0
   12.2845   -8.2064    0.0000 C   0  0  0  0  0  0  0  0  0  0  0  0
   11.7995   -7.5389    0.0000 C   0  0  2  0  0  0  0  0  0  0  0  0
   12.0545   -6.7543    0.0000 C   0  0  0  0  0  0  0  0  0  0  0  0
   12.8391   -6.4994    0.0000 C   0  0  0  0  0  0  0  0  0  0  0  0
   12.8391   -5.6744    0.0000 C   0  0  0  0  0  0  0  0  0  0  0  0
   12.0545   -5.4194    0.0000 O   0  0  0  0  0  0  0  0  0  0  0  0
   11.5696   -6.0869    0.0000 C   0  0  0  0  0  0  0  0  0  0  0  0
   13.5065   -5.1894    0.0000 O   0  0  0  0  0  0  0  0  0  0  0  0
    8.8715   -8.2064    0.0000 C   0  0  0  0  0  0  0  0  0  0  0  0
    8.8715  -10.6814    0.0000 H   0  0  0  0  0  0  0  0  0  0  0  0
   10.3004   -8.2064    0.0000 H   0  0  0  0  0  0  0  0  0  0  0  0
   10.3004   -6.5564    0.0000 O   0  0  0  0  0  0  0  0  0  0  0  0
   11.1012   -6.9734    0.0000 C   0  0  0  0  0  0  0  0  0  0  0  0
   11.1012   -9.4393    0.0000 O   0  0  0  0  0  0  0  0  0  0  0  0
    5.2991   -7.7939    0.0000 O   0  0  0  0  0  0  0  0  0  0  0  0
    9.5860   -9.4439    0.0000 H   0  0  0  0  0  0  0  0  0  0  0  0
    2.4595   -7.8003    0.0000 O   0  0  0  0  0  0  0  0  0  0  0  0
    1.0306  -10.2753    0.0000 O   0  0  0  0  0  0  0  0  0  0  0  0
    2.4595  -11.1003    0.0000 C   0  0  0  0  0  0  0  0  0  0  0  0
    1.0306   -8.6253    0.0000 O   0  0  0  0  0  0  0  0  0  0  0  0
    2.4595  -10.2753    0.0000 C   0  0  1  0  0  0  0  0  0  0  0  0
    3.1740   -9.8628    0.0000 O   0  0  0  0  0  0  0  0  0  0  0  0
    3.1740   -9.0378    0.0000 C   0  0  2  0  0  0  0  0  0  0  0  0
    2.4595   -8.6253    0.0000 C   0  0  1  0  0  0  0  0  0  0  0  0
    1.7451   -9.0378    0.0000 C   0  0  2  0  0  0  0  0  0  0  0  0
    1.7451   -9.8628    0.0000 C   0  0  2  0  0  0  0  0  0  0  0  0
  2  1  1  1  0  0  0
  2  3  1  0  0  0  0
  3  4  1  6  0  0  0
  2  5  1  0  0  0  0
  5  6  1  0  0  0  0
  6  7  1  0  0  0  0
  7  8  1  0  0  0  0
  8  3  1  0  0  0  0
  6  9  1  1  0  0  0
 10  9  1  1  0  0  0
 10 11  1  0  0  0  0
 10 12  1  0  0  0  0
 12 13  1  0  0  0  0
 13 14  1  0  0  0  0
 14 15  1  0  0  0  0
 15 11  1  0  0  0  0
 13 16  1  0  0  0  0
 16 17  1  0  0  0  0
 17 18  1  0  0  0  0
 18 19  1  0  0  0  0
 19 14  1  0  0  0  0
 18 20  1  0  0  0  0
 20 21  1  0  0  0  0
 21 22  1  0  0  0  0
 22 23  1  0  0  0  0
 23 19  1  0  0  0  0
 20 24  1  0  0  0  0
 24 25  1  0  0  0  0
 25 26  1  0  0  0  0
 26 21  1  0  0  0  0
 26 27  1  1  0  0  0
 27 28  2  0  0  0  0
 28 29  1  0  0  0  0
 29 30  1  0  0  0  0
 30 31  1  0  0  0  0
 31 27  1  0  0  0  0
 29 32  2  0  0  0  0
 14 33  1  1  0  0  0
 13 34  1  1  0  0  0
 18 35  1  1  0  0  0
 22 36  1  1  0  0  0
 21 37  1  1  0  0  0
 20 38  1  1  0  0  0
  8 39  1  6  0  0  0
 19 40  1  6  0  0  0
 48 41  1  1  0  0  0
 50 42  1  1  0  0  0
 45 43  1  6  0  0  0
 49 44  1  6  0  0  0
 45 50  1  0  0  0  0
 46 45  1  0  0  0  0
 47 46  1  0  0  0  0
 48 47  1  0  0  0  0
 49 48  1  0  0  0  0
 50 49  1  0  0  0  0
 47  4  1  6  0  0  0
M  END
>  <cdx:fragmentId>
5

$$$$
