301126.cdx
  Mrv1902 05222410192D          

 19 18  0  0  0  0            999 V2000
    3.8513   -7.9242    0.0000 C   0  0  0  0  0  0  0  0  0  0  0  0
    4.5667   -7.5133    0.0000 C   0  0  0  0  0  0  0  0  0  0  0  0
    5.2821   -7.1024    0.0000 C   0  0  0  0  0  0  0  0  0  0  0  0
    5.9975   -6.6915    0.0000 C   0  0  0  0  0  0  0  0  0  0  0  0
    6.7128   -6.2806    0.0000 C   0  0  0  0  0  0  0  0  0  0  0  0
    7.4264   -6.6946    0.0000 C   0  0  0  0  0  0  0  0  0  0  0  0
    8.1418   -6.2837    0.0000 C   0  0  2  0  0  0  0  0  0  0  0  0
    8.8553   -6.6978    0.0000 C   0  0  0  0  0  0  0  0  0  0  0  0
    9.5707   -6.2869    0.0000 C   0  0  0  0  0  0  0  0  0  0  0  0
   10.2843   -6.7010    0.0000 C   0  0  0  0  0  0  0  0  0  0  0  0
   10.9996   -6.2901    0.0000 C   0  0  0  0  0  0  0  0  0  0  0  0
   11.7132   -6.7041    0.0000 C   0  0  0  0  0  0  0  0  0  0  0  0
   12.4286   -6.2932    0.0000 C   0  0  0  0  0  0  0  0  0  0  0  0
   13.1421   -6.7073    0.0000 C   0  0  0  0  0  0  0  0  0  0  0  0
    2.4224   -7.9211    0.0000 O   0  0  0  0  0  0  0  0  0  0  0  0
    8.1436   -5.4587    0.0000 O   0  0  0  0  0  0  0  0  0  0  0  0
    3.1359   -8.3351    0.0000 C   0  0  1  0  0  0  0  0  0  0  0  0
    3.1341   -9.1601    0.0000 C   0  0  0  0  0  0  0  0  0  0  0  0
    2.4187   -9.5711    0.0000 C   0  0  0  0  0  0  0  0  0  0  0  0
 17 15  1  6  0  0  0
 18 17  1  0  0  0  0
 19 18  2  0  0  0  0
 17  1  1  0  0  0  0
  1  2  3  0  0  0  0
  2  3  1  0  0  0  0
  3  4  3  0  0  0  0
  4  5  1  0  0  0  0
  5  6  2  0  0  0  0
  6  7  1  0  0  0  0
  7  8  1  0  0  0  0
  8  9  1  0  0  0  0
  9 10  1  0  0  0  0
 10 11  1  0  0  0  0
 11 12  1  0  0  0  0
 12 13  1  0  0  0  0
 13 14  2  0  0  0  0
  7 16  1  1  0  0  0
M  END
>  <cdx:fragmentId>
1692

$$$$
