301117.cdx
  Mrv1902 05222410272D          

 19 21  0  0  0  0            999 V2000
    8.1395   -2.3006    0.0000 C   0  0  0  0  0  0  0  0  0  0  0  0
    8.8539   -2.7131    0.0000 C   0  0  0  0  0  0  0  0  0  0  0  0
    8.1395   -1.4756    0.0000 O   0  0  0  0  0  0  0  0  0  0  0  0
    7.4250   -2.7131    0.0000 O   0  0  0  0  0  0  0  0  0  0  0  0
    7.0125   -4.8077    0.0000 C   0  0  0  0  0  0  0  0  0  0  0  0
    6.7576   -4.0230    0.0000 C   0  0  0  0  0  0  0  0  0  0  0  0
    7.4250   -3.5381    0.0000 C   0  0  0  0  0  0  0  0  0  0  0  0
    8.0924   -4.0230    0.0000 C   0  0  0  0  0  0  0  0  0  0  0  0
    8.9174   -4.0230    0.0000 C   0  0  0  0  0  0  0  0  0  0  0  0
    9.1724   -4.8077    0.0000 C   0  0  0  0  0  0  0  0  0  0  0  0
    8.5049   -5.2926    0.0000 C   0  0  0  0  0  0  0  0  0  0  0  0
    7.8375   -4.8077    0.0000 C   0  0  0  0  0  0  0  0  0  0  0  0
    5.9326   -4.0230    0.0000 C   0  0  0  0  0  0  0  0  0  0  0  0
    5.6776   -4.8077    0.0000 C   0  0  0  0  0  0  0  0  0  0  0  0
    6.3451   -5.2926    0.0000 C   0  0  0  0  0  0  0  0  0  0  0  0
    6.5026   -3.2384    0.0000 C   0  0  0  0  0  0  0  0  0  0  0  0
    6.7576   -6.0071    0.0000 C   0  0  0  0  0  0  0  0  0  0  0  0
    5.9326   -6.0071    0.0000 C   0  0  0  0  0  0  0  0  0  0  0  0
    8.5049   -6.1176    0.0000 C   0  0  0  0  0  0  0  0  0  0  0  0
  1  2  1  0  0  0  0
  1  3  2  0  0  0  0
  1  4  1  0  0  0  0
  5  6  1  0  0  0  0
  6  7  1  0  0  0  0
  7  8  1  0  0  0  0
  8  9  1  0  0  0  0
  9 10  1  0  0  0  0
 10 11  1  0  0  0  0
 11 12  1  0  0  0  0
  5 12  1  0  0  0  0
  8 12  1  0  0  0  0
 13 14  1  0  0  0  0
 14 15  1  0  0  0  0
 15  5  1  0  0  0  0
 13  6  1  0  0  0  0
  6 16  1  0  0  0  0
 15 17  1  0  0  0  0
 15 18  1  0  0  0  0
 11 19  1  0  0  0  0
  4  7  1  0  0  0  0
M  END
>  <cdx:groupId>
61

>  <cdx:fragmentId>
13

$$$$
