301111.cdx
  Mrv1902 05222410262D          

 28 30  0  0  0  0            999 V2000
    9.0545   -5.3188    0.0000 C   0  0  2  0  0  0  0  0  0  0  0  0
    9.8428   -5.5619    0.0000 O   0  0  0  0  0  0  0  0  0  0  0  0
   10.1442   -6.3299    0.0000 C   0  0  2  0  0  0  0  0  0  0  0  0
    9.7317   -7.0444    0.0000 C   0  0  0  0  0  0  0  0  0  0  0  0
    8.9159   -7.1673    0.0000 C   0  0  1  0  0  0  0  0  0  0  0  0
    8.3112   -6.6062    0.0000 O   0  0  0  0  0  0  0  0  0  0  0  0
    8.3728   -5.7835    0.0000 C   0  0  2  0  0  0  0  0  0  0  0  0
    8.4521   -6.2022    0.0000 C   0  0  2  0  0  0  0  0  0  0  0  0
   10.9692   -6.3299    0.0000 C   0  0  0  0  0  0  0  0  0  0  0  0
   11.3817   -5.6154    0.0000 O   0  0  0  0  0  0  0  0  0  0  0  0
   11.3817   -7.0444    0.0000 O   0  0  0  0  0  0  0  0  0  0  0  0
    7.6583   -5.3710    0.0000 C   0  0  0  0  0  0  0  0  0  0  0  0
    6.9439   -5.7835    0.0000 O   0  0  0  0  0  0  0  0  0  0  0  0
    6.2294   -5.3710    0.0000 C   0  0  0  0  0  0  0  0  0  0  0  0
    5.5149   -5.7835    0.0000 C   0  0  0  0  0  0  0  0  0  0  0  0
    4.8005   -5.3710    0.0000 C   0  0  0  0  0  0  0  0  0  0  0  0
    6.2294   -4.5460    0.0000 O   0  0  0  0  0  0  0  0  0  0  0  0
    4.0860   -5.7835    0.0000 C   0  0  0  0  0  0  0  0  0  0  0  0
    4.0860   -6.6085    0.0000 C   0  0  0  0  0  0  0  0  0  0  0  0
    3.3715   -7.0210    0.0000 C   0  0  0  0  0  0  0  0  0  0  0  0
    2.6570   -6.6085    0.0000 C   0  0  0  0  0  0  0  0  0  0  0  0
    2.6570   -5.7835    0.0000 C   0  0  0  0  0  0  0  0  0  0  0  0
    3.3715   -5.3710    0.0000 C   0  0  0  0  0  0  0  0  0  0  0  0
    7.6271   -6.2022    0.0000 O   0  0  0  0  0  0  0  0  0  0  0  0
   10.5567   -7.0444    0.0000 O   0  0  0  0  0  0  0  0  0  0  0  0
    8.9315   -4.5030    0.0000 H   0  0  0  0  0  0  0  0  0  0  0  0
    8.6728   -7.9557    0.0000 H   0  0  0  0  0  0  0  0  0  0  0  0
   12.2067   -7.0444    0.0000 C   0  0  0  0  0  0  0  0  0  0  0  0
  1  2  1  0  0  0  0
  2  3  1  0  0  0  0
  3  4  1  0  0  0  0
  4  5  1  0  0  0  0
  5  6  1  1  0  0  0
  6  7  1  0  0  0  0
  1  7  1  0  0  0  0
  1  8  1  0  0  0  0
  8  5  1  0  0  0  0
  9 10  2  0  0  0  0
  9 11  1  0  0  0  0
  3  9  1  0  0  0  0
 14 15  1  0  0  0  0
 15 16  2  0  0  0  0
 14 17  2  0  0  0  0
 18 19  1  0  0  0  0
 19 20  2  0  0  0  0
 20 21  1  0  0  0  0
 21 22  2  0  0  0  0
 22 23  1  0  0  0  0
 18 23  2  0  0  0  0
 16 18  1  0  0  0  0
 13 14  1  0  0  0  0
 12 13  1  0  0  0  0
  7 12  1  6  0  0  0
  8 24  1  6  0  0  0
  3 25  1  6  0  0  0
  1 26  1  6  0  0  0
  5 27  1  0  0  0  0
 11 28  1  0  0  0  0
M  END
>  <cdx:groupId>
784

>  <cdx:fragmentId>
735

$$$$
