301186.cdx
  Mrv1902 05222410212D          

 30 35  0  0  0  0            999 V2000
    8.3107   -8.6642    0.0000 C   0  0  0  0  0  0  0  0  0  0  0  0
    8.7338   -7.9560    0.0000 O   0  0  0  0  0  0  0  0  0  0  0  0
    8.1910   -7.3347    0.0000 C   0  0  2  0  0  0  0  0  0  0  0  0
    7.4324   -7.6590    0.0000 C   0  0  0  0  0  0  0  0  0  0  0  0
    7.5064   -8.4806    0.0000 C   0  0  1  0  0  0  0  0  0  0  0  0
    6.8614   -8.9950    0.0000 C   0  0  2  0  0  0  0  0  0  0  0  0
    6.2164   -8.4806    0.0000 C   0  0  0  0  0  0  0  0  0  0  0  0
    5.4120   -8.6642    0.0000 C   0  0  2  0  0  0  0  0  0  0  0  0
    5.0541   -9.4075    0.0000 O   0  0  0  0  0  0  0  0  0  0  0  0
    5.4120  -10.1508    0.0000 C   0  0  0  0  0  0  0  0  0  0  0  0
    6.2164  -10.3344    0.0000 C   0  0  2  0  0  0  0  0  0  0  0  0
    6.8614   -9.8200    0.0000 C   0  0  1  0  0  0  0  0  0  0  0  0
    7.5064  -10.3344    0.0000 C   0  0  2  0  0  0  0  0  0  0  0  0
    8.3107  -10.1508    0.0000 O   0  0  0  0  0  0  0  0  0  0  0  0
    8.6686   -9.4075    0.0000 C   0  0  0  0  0  0  0  0  0  0  0  0
    7.4265   -9.2682    0.0000 C   0  0  0  0  0  0  0  0  0  0  0  0
    6.2955   -9.2665    0.0000 C   0  0  0  0  0  0  0  0  0  0  0  0
    4.8977  -10.7958    0.0000 O   0  0  0  0  0  0  0  0  0  0  0  0
    9.4936   -9.4075    0.0000 O   0  0  0  0  0  0  0  0  0  0  0  0
    7.2242   -9.2559    0.0000 C   0  0  0  0  0  0  0  0  0  0  0  0
    9.0593   -5.3845    0.0000 O   0  0  0  0  0  0  0  0  0  0  0  0
    9.1332   -6.2062    0.0000 C   0  0  0  0  0  0  0  0  0  0  0  0
    8.3746   -6.5304    0.0000 C   0  0  0  0  0  0  0  0  0  0  0  0
    7.8318   -5.9091    0.0000 C   0  0  0  0  0  0  0  0  0  0  0  0
    8.2550   -5.2009    0.0000 C   0  0  0  0  0  0  0  0  0  0  0  0
    6.8614   -8.1700    0.0000 H   0  0  0  0  0  0  0  0  0  0  0  0
    4.8977   -8.0192    0.0000 H   0  0  0  0  0  0  0  0  0  0  0  0
    6.3999  -11.1387    0.0000 H   0  0  0  0  0  0  0  0  0  0  0  0
    6.8614  -10.6450    0.0000 H   0  0  0  0  0  0  0  0  0  0  0  0
    7.3228  -11.1387    0.0000 H   0  0  0  0  0  0  0  0  0  0  0  0
  1  2  1  0  0  0  0
  2  3  1  0  0  0  0
  3  4  1  0  0  0  0
  4  5  1  0  0  0  0
  5  6  1  0  0  0  0
  6  7  1  0  0  0  0
  7  8  1  0  0  0  0
  8  9  1  0  0  0  0
  9 10  1  0  0  0  0
 10 11  1  0  0  0  0
 11 12  1  0  0  0  0
 12 13  1  0  0  0  0
 13 14  1  0  0  0  0
 14 15  1  0  0  0  0
  1 15  1  0  0  0  0
  1 16  1  0  0  0  0
 13 16  1  0  0  0  0
  6 12  1  0  0  0  0
 11 17  1  0  0  0  0
  8 17  1  0  0  0  0
  1  5  1  0  0  0  0
 10 18  2  0  0  0  0
 15 19  2  0  0  0  0
  5 20  1  1  0  0  0
 21 22  1  0  0  0  0
 22 23  2  0  0  0  0
 23 24  1  0  0  0  0
 24 25  2  0  0  0  0
 21 25  1  0  0  0  0
  3 23  1  6  0  0  0
  6 26  1  6  0  0  0
  8 27  1  6  0  0  0
 11 28  1  6  0  0  0
 12 29  1  1  0  0  0
 13 30  1  6  0  0  0
M  END
>  <cdx:fragmentId>
5

$$$$
