301122.cdx
  Mrv1902 05222410192D          

 18 17  0  0  0  0            999 V2000
    2.1644  -10.4719    0.0000 C   0  0  0  0  0  0  0  0  0  0  0  0
    2.8777  -10.0575    0.0000 C   0  0  0  0  0  0  0  0  0  0  0  0
    3.5933  -10.4680    0.0000 C   0  0  2  0  0  0  0  0  0  0  0  0
    4.3067  -10.0535    0.0000 C   0  0  0  0  0  0  0  0  0  0  0  0
    5.0200   -9.6390    0.0000 C   0  0  0  0  0  0  0  0  0  0  0  0
    5.7333   -9.2246    0.0000 C   0  0  0  0  0  0  0  0  0  0  0  0
    6.4467   -8.8101    0.0000 C   0  0  0  0  0  0  0  0  0  0  0  0
    7.1600   -8.3956    0.0000 C   0  0  0  0  0  0  0  0  0  0  0  0
    7.8756   -8.8061    0.0000 C   0  0  0  0  0  0  0  0  0  0  0  0
    8.5943   -8.4011    0.0000 C   0  0  0  0  0  0  0  0  0  0  0  0
    8.5673   -7.5765    0.0000 C   0  0  0  0  0  0  0  0  0  0  0  0
    9.2679   -7.1408    0.0000 C   0  0  0  0  0  0  0  0  0  0  0  0
    9.2408   -6.3163    0.0000 C   0  0  0  0  0  0  0  0  0  0  0  0
    9.9414   -5.8806    0.0000 C   0  0  0  0  0  0  0  0  0  0  0  0
    9.9144   -5.0560    0.0000 C   0  0  0  0  0  0  0  0  0  0  0  0
   10.6149   -4.6203    0.0000 C   0  0  0  0  0  0  0  0  0  0  0  0
   10.5879   -3.7958    0.0000 C   0  0  0  0  0  0  0  0  0  0  0  0
    3.5956  -11.2930    0.0000 O   0  0  0  0  0  0  0  0  0  0  0  0
  1  2  2  0  0  0  0
  2  3  1  0  0  0  0
  3  4  1  0  0  0  0
  4  5  3  0  0  0  0
  5  6  1  0  0  0  0
  6  7  3  0  0  0  0
  7  8  1  0  0  0  0
  8  9  1  0  0  0  0
  9 10  2  0  0  0  0
 10 11  1  0  0  0  0
 11 12  1  0  0  0  0
 12 13  1  0  0  0  0
 13 14  1  0  0  0  0
 14 15  1  0  0  0  0
 15 16  1  0  0  0  0
 16 17  2  0  0  0  0
  3 18  1  6  0  0  0
M  END
>  <cdx:fragmentId>
1441

$$$$
