301153.cdx
  Mrv1902 05222410202D          

 15 16  0  0  0  0            999 V2000
    7.3027   -7.7213    0.0000 O   0  0  0  0  0  0  0  0  0  0  0  0
    7.9637   -7.2277    0.0000 C   0  0  2  0  0  0  0  0  0  0  0  0
    8.6374   -7.7039    0.0000 C   0  0  0  0  0  0  0  0  0  0  0  0
    8.3928   -8.4917    0.0000 C   0  0  0  0  0  0  0  0  0  0  0  0
    7.5678   -8.5025    0.0000 C   0  0  1  0  0  0  0  0  0  0  0  0
    7.0917   -9.1762    0.0000 C   0  0  0  0  0  0  0  0  0  0  0  0
    7.4371   -9.9255    0.0000 O   0  0  0  0  0  0  0  0  0  0  0  0
    7.9206   -3.9280    0.0000 N   0  0  0  0  0  0  0  0  0  0  0  0
    9.3818   -6.3841    0.0000 O   0  0  0  0  0  0  0  0  0  0  0  0
    7.9530   -6.4028    0.0000 N   0  0  0  0  0  0  0  0  0  0  0  0
    7.2332   -5.9996    0.0000 C   0  0  0  0  0  0  0  0  0  0  0  0
    7.2224   -5.1747    0.0000 C   0  0  0  0  0  0  0  0  0  0  0  0
    7.9314   -4.7529    0.0000 C   0  0  0  0  0  0  0  0  0  0  0  0
    8.6512   -5.1560    0.0000 N   0  0  0  0  0  0  0  0  0  0  0  0
    8.6620   -5.9810    0.0000 C   0  0  0  0  0  0  0  0  0  0  0  0
 13  8  1  0  0  0  0
 15  9  2  0  0  0  0
 15 10  1  0  0  0  0
 11 10  1  0  0  0  0
 12 11  2  0  0  0  0
 13 12  1  0  0  0  0
 14 13  2  0  0  0  0
 15 14  1  0  0  0  0
  1  2  1  0  0  0  0
  2  3  1  0  0  0  0
  3  4  1  0  0  0  0
  4  5  1  0  0  0  0
  1  5  1  0  0  0  0
  6  7  1  0  0  0  0
  5  6  1  1  0  0  0
  2 10  1  1  0  0  0
M  END
>  <cdx:groupId>
1202

>  <cdx:fragmentId>
1159

$$$$
