301112.cdx
  Mrv1902 05222410272D          

 29 31  0  0  0  0            999 V2000
    6.5580   -6.4280    0.0000 C   0  0  2  0  0  0  0  0  0  0  0  0
    7.3464   -6.6712    0.0000 O   0  0  0  0  0  0  0  0  0  0  0  0
    8.0280   -6.2064    0.0000 C   0  0  2  0  0  0  0  0  0  0  0  0
    8.0897   -5.3837    0.0000 C   0  0  0  0  0  0  0  0  0  0  0  0
    7.4849   -4.8226    0.0000 C   0  0  1  0  0  0  0  0  0  0  0  0
    6.6691   -4.9455    0.0000 O   0  0  0  0  0  0  0  0  0  0  0  0
    6.2566   -5.6600    0.0000 C   0  0  2  0  0  0  0  0  0  0  0  0
    6.5580   -5.3588    0.0000 C   0  0  2  0  0  0  0  0  0  0  0  0
    8.7425   -6.6189    0.0000 C   0  0  0  0  0  0  0  0  0  0  0  0
    8.7425   -7.4439    0.0000 O   0  0  0  0  0  0  0  0  0  0  0  0
    9.4570   -6.2064    0.0000 O   0  0  0  0  0  0  0  0  0  0  0  0
    5.8436   -4.9463    0.0000 O   0  0  0  0  0  0  0  0  0  0  0  0
    8.0280   -7.0314    0.0000 O   0  0  0  0  0  0  0  0  0  0  0  0
    5.4316   -5.6600    0.0000 C   0  0  0  0  0  0  0  0  0  0  0  0
    5.0191   -6.3745    0.0000 O   0  0  0  0  0  0  0  0  0  0  0  0
    4.1941   -6.3745    0.0000 C   0  0  0  0  0  0  0  0  0  0  0  0
    3.7816   -7.0890    0.0000 C   0  0  0  0  0  0  0  0  0  0  0  0
    2.9566   -7.0890    0.0000 C   0  0  0  0  0  0  0  0  0  0  0  0
    2.5441   -7.8034    0.0000 C   0  0  0  0  0  0  0  0  0  0  0  0
    2.9566   -8.5179    0.0000 C   0  0  0  0  0  0  0  0  0  0  0  0
    3.7816   -8.5179    0.0000 C   0  0  0  0  0  0  0  0  0  0  0  0
    4.1941   -7.8034    0.0000 C   0  0  0  0  0  0  0  0  0  0  0  0
    3.7816   -5.6600    0.0000 O   0  0  0  0  0  0  0  0  0  0  0  0
    5.9969   -7.0328    0.0000 H   0  0  0  0  0  0  0  0  0  0  0  0
    7.7281   -4.0342    0.0000 H   0  0  0  0  0  0  0  0  0  0  0  0
   10.1715   -6.6189    0.0000 C   0  0  0  0  0  0  0  0  0  0  0  0
   10.8859   -6.2064    0.0000 C   0  0  0  0  0  0  0  0  0  0  0  0
   11.6004   -6.6189    0.0000 C   0  0  0  0  0  0  0  0  0  0  0  0
   12.3149   -6.2064    0.0000 C   0  0  0  0  0  0  0  0  0  0  0  0
  1  2  1  0  0  0  0
  2  3  1  0  0  0  0
  3  4  1  0  0  0  0
  4  5  1  0  0  0  0
  5  6  1  6  0  0  0
  6  7  1  0  0  0  0
  1  7  1  0  0  0  0
  1  8  1  0  0  0  0
  8  5  1  0  0  0  0
  9 10  2  0  0  0  0
  9 11  1  0  0  0  0
  3  9  1  0  0  0  0
  8 12  1  1  0  0  0
  3 13  1  1  0  0  0
 16 17  1  0  0  0  0
 17 18  1  0  0  0  0
 18 19  2  0  0  0  0
 19 20  1  0  0  0  0
 20 21  2  0  0  0  0
 21 22  1  0  0  0  0
 17 22  2  0  0  0  0
 16 23  2  0  0  0  0
 15 16  1  0  0  0  0
 14 15  1  0  0  0  0
  7 14  1  1  0  0  0
  1 24  1  1  0  0  0
  5 25  1  0  0  0  0
 26 27  1  0  0  0  0
 27 28  1  0  0  0  0
 28 29  1  0  0  0  0
 11 26  1  0  0  0  0
M  END
>  <cdx:groupId>
879

>  <cdx:fragmentId>
793

$$$$
