30119.cdx
  Mrv1902 05222410192D          

 12 13  0  0  0  0            999 V2000
    4.7556   -9.2939    0.0000 C   0  0  0  0  0  0  0  0  0  0  0  0
    4.7556  -10.1189    0.0000 C   0  0  0  0  0  0  0  0  0  0  0  0
    5.4700  -10.5314    0.0000 C   0  0  0  0  0  0  0  0  0  0  0  0
    6.1845  -10.1189    0.0000 C   0  0  0  0  0  0  0  0  0  0  0  0
    6.1845   -9.2939    0.0000 C   0  0  0  0  0  0  0  0  0  0  0  0
    5.4700   -8.8814    0.0000 C   0  0  0  0  0  0  0  0  0  0  0  0
    6.8990  -10.5314    0.0000 N   0  0  0  0  0  0  0  0  0  0  0  0
    7.6134  -10.1189    0.0000 C   0  0  0  0  0  0  0  0  0  0  0  0
    7.6134   -9.2939    0.0000 N   0  0  0  0  0  0  0  0  0  0  0  0
    6.8990   -8.8814    0.0000 C   0  0  0  0  0  0  0  0  0  0  0  0
    6.8990   -8.0564    0.0000 O   0  0  0  0  0  0  0  0  0  0  0  0
    8.3279  -10.5314    0.0000 O   0  0  0  0  0  0  0  0  0  0  0  0
  1  2  2  0  0  0  0
  2  3  1  0  0  0  0
  3  4  2  0  0  0  0
  4  5  1  0  0  0  0
  5  6  2  0  0  0  0
  6  1  1  0  0  0  0
  4  7  1  0  0  0  0
  7  8  1  0  0  0  0
  8  9  1  0  0  0  0
  9 10  1  0  0  0  0
 10  5  1  0  0  0  0
 10 11  2  0  0  0  0
  8 12  2  0  0  0  0
M  END
>  <cdx:fragmentId>
5

$$$$
