301109.cdx
  Mrv1902 05222410202D          

 31 34  0  0  0  0            999 V2000
    5.7103   -6.5919    0.0000 O   0  0  0  0  0  0  0  0  0  0  0  0
    4.2815   -6.5777    0.0000 O   0  0  0  0  0  0  0  0  0  0  0  0
    4.9918   -6.9972    0.0000 C   0  0  2  0  0  0  0  0  0  0  0  0
    4.9836   -7.8222    0.0000 C   0  0  1  0  0  0  0  0  0  0  0  0
    4.2651   -8.2276    0.0000 C   0  0  2  0  0  0  0  0  0  0  0  0
    3.5547   -7.8080    0.0000 C   0  0  1  0  0  0  0  0  0  0  0  0
    3.5629   -6.9830    0.0000 C   0  0  1  0  0  0  0  0  0  0  0  0
    2.8526   -6.5635    0.0000 C   0  0  0  0  0  0  0  0  0  0  0  0
    2.1340   -6.9689    0.0000 O   0  0  0  0  0  0  0  0  0  0  0  0
    2.8362   -8.2134    0.0000 O   0  0  0  0  0  0  0  0  0  0  0  0
    4.2569   -9.0525    0.0000 O   0  0  0  0  0  0  0  0  0  0  0  0
    7.5928   -8.0281    0.0000 O   0  0  0  0  0  0  0  0  0  0  0  0
    5.6939   -8.2418    0.0000 O   0  0  0  0  0  0  0  0  0  0  0  0
    6.5378   -7.4010    0.0000 C   0  0  0  0  0  0  0  0  0  0  0  0
    6.5378   -6.5760    0.0000 C   0  0  0  0  0  0  0  0  0  0  0  0
    6.5378   -5.7510    0.0000 C   0  0  0  0  0  0  0  0  0  0  0  0
   12.2047   -5.7510    0.0000 O   0  0  0  0  0  0  0  0  0  0  0  0
    7.3628   -6.5760    0.0000 C   0  0  1  0  0  0  0  0  0  0  0  0
    7.8478   -7.2435    0.0000 C   0  0  1  0  0  0  0  0  0  0  0  0
    7.8478   -5.9086    0.0000 O   0  0  0  0  0  0  0  0  0  0  0  0
   10.7758   -5.7510    0.0000 O   0  0  0  0  0  0  0  0  0  0  0  0
   10.0613   -6.1635    0.0000 C   0  0  0  0  0  0  0  0  0  0  0  0
    9.3468   -5.7510    0.0000 C   0  0  0  0  0  0  0  0  0  0  0  0
    8.6324   -6.1635    0.0000 C   0  0  0  0  0  0  0  0  0  0  0  0
    8.6324   -6.9885    0.0000 C   0  0  0  0  0  0  0  0  0  0  0  0
    9.3468   -7.4010    0.0000 C   0  0  0  0  0  0  0  0  0  0  0  0
   10.0613   -6.9885    0.0000 C   0  0  0  0  0  0  0  0  0  0  0  0
   10.7758   -7.4010    0.0000 C   0  0  0  0  0  0  0  0  0  0  0  0
   11.4903   -6.9885    0.0000 C   0  0  0  0  0  0  0  0  0  0  0  0
   11.4903   -6.1635    0.0000 C   0  0  0  0  0  0  0  0  0  0  0  0
    6.9503   -5.8616    0.0000 H   0  0  0  0  0  0  0  0  0  0  0  0
 19 12  1  1  0  0  0
 18 15  1  0  0  0  0
 15 14  1  0  0  0  0
 16 15  1  0  0  0  0
 30 17  2  0  0  0  0
 20 24  1  0  0  0  0
 19 25  1  0  0  0  0
 20 18  1  0  0  0  0
 19 18  1  0  0  0  0
 30 21  1  0  0  0  0
 22 21  1  0  0  0  0
 27 22  1  0  0  0  0
 23 22  2  0  0  0  0
 24 23  1  0  0  0  0
 25 24  2  0  0  0  0
 26 25  1  0  0  0  0
 27 26  2  0  0  0  0
 28 27  1  0  0  0  0
 29 28  2  0  0  0  0
 30 29  1  0  0  0  0
  2  3  1  0  0  0  0
  3  4  1  0  0  0  0
  4  5  1  0  0  0  0
  5  6  1  0  0  0  0
  6  7  1  0  0  0  0
  2  7  1  0  0  0  0
  8  9  1  0  0  0  0
  7  8  1  1  0  0  0
  6 10  1  6  0  0  0
  5 11  1  1  0  0  0
  4 13  1  6  0  0  0
 18 31  1  1  0  0  0
  3  1  1  1  0  0  0
  1 15  1  0  0  0  0
M  END
>  <cdx:fragmentId>
526

$$$$
