301163.cdx
  Mrv1902 05222410252D          

 29 31  0  0  0  0            999 V2000
    8.3342   -7.6931    0.0000 C   0  0  1  0  0  0  0  0  0  0  0  0
    9.0486   -7.2806    0.0000 C   0  0  1  0  0  0  0  0  0  0  0  0
    9.0486   -6.4556    0.0000 C   0  0  1  0  0  0  0  0  0  0  0  0
    8.3342   -6.0431    0.0000 C   0  0  0  0  0  0  0  0  0  0  0  0
    7.6197   -6.4556    0.0000 C   0  0  0  0  0  0  0  0  0  0  0  0
    7.6197   -7.2806    0.0000 O   0  0  0  0  0  0  0  0  0  0  0  0
    9.8333   -6.2007    0.0000 C   0  0  1  0  0  0  0  0  0  0  0  0
   10.3182   -6.8681    0.0000 C   0  0  0  0  0  0  0  0  0  0  0  0
    9.8333   -7.5356    0.0000 C   0  0  2  0  0  0  0  0  0  0  0  0
    8.3342   -5.2181    0.0000 C   0  0  0  0  0  0  0  0  0  0  0  0
    9.0486   -4.8056    0.0000 O   0  0  0  0  0  0  0  0  0  0  0  0
    7.6197   -4.8056    0.0000 O   0  0  0  0  0  0  0  0  0  0  0  0
    8.3342   -8.5181    0.0000 O   0  0  0  0  0  0  0  0  0  0  0  0
    6.9052   -8.5181    0.0000 O   0  0  0  0  0  0  0  0  0  0  0  0
    7.6197   -8.9306    0.0000 C   0  0  2  0  0  0  0  0  0  0  0  0
    7.6197   -9.7556    0.0000 C   0  0  1  0  0  0  0  0  0  0  0  0
    6.9052  -10.1681    0.0000 C   0  0  2  0  0  0  0  0  0  0  0  0
    6.1907   -9.7556    0.0000 C   0  0  1  0  0  0  0  0  0  0  0  0
    6.1907   -8.9306    0.0000 C   0  0  1  0  0  0  0  0  0  0  0  0
    5.4763   -8.5181    0.0000 C   0  0  0  0  0  0  0  0  0  0  0  0
    4.7618   -8.9306    0.0000 O   0  0  0  0  0  0  0  0  0  0  0  0
    5.4763  -10.1681    0.0000 O   0  0  0  0  0  0  0  0  0  0  0  0
    6.9052  -10.9931    0.0000 O   0  0  0  0  0  0  0  0  0  0  0  0
    8.3342  -10.1681    0.0000 O   0  0  0  0  0  0  0  0  0  0  0  0
   10.0882   -8.3202    0.0000 C   0  0  0  0  0  0  0  0  0  0  0  0
   10.0882   -5.4161    0.0000 O   0  0  0  0  0  0  0  0  0  0  0  0
    9.1349   -5.6351    0.0000 H   0  0  0  0  0  0  0  0  0  0  0  0
    9.1349   -8.1011    0.0000 H   0  0  0  0  0  0  0  0  0  0  0  0
    7.6197   -3.9806    0.0000 C   0  0  0  0  0  0  0  0  0  0  0  0
  1  2  1  0  0  0  0
  2  3  1  0  0  0  0
  3  4  1  0  0  0  0
  4  5  2  0  0  0  0
  5  6  1  0  0  0  0
  1  6  1  0  0  0  0
  7  8  1  0  0  0  0
  8  9  1  0  0  0  0
  9  2  1  0  0  0  0
  7  3  1  0  0  0  0
 10 11  2  0  0  0  0
 10 12  1  0  0  0  0
  4 10  1  0  0  0  0
 14 15  1  0  0  0  0
 15 16  1  0  0  0  0
 16 17  1  0  0  0  0
 17 18  1  0  0  0  0
 18 19  1  0  0  0  0
 14 19  1  0  0  0  0
 20 21  1  0  0  0  0
 19 20  1  1  0  0  0
 18 22  1  6  0  0  0
 17 23  1  1  0  0  0
 16 24  1  6  0  0  0
 15 13  1  1  0  0  0
  1 13  1  6  0  0  0
  9 25  1  6  0  0  0
  7 26  1  6  0  0  0
  3 27  1  6  0  0  0
  2 28  1  6  0  0  0
 12 29  1  0  0  0  0
M  END
>  <cdx:groupId>
1982

>  <cdx:fragmentId>
1896

$$$$
