301142.cdx
  Mrv1902 05222410222D          

 15 14  0  0  0  0            999 V2000
    6.7347   -6.8491    0.0000 C   0  0  0  0  0  0  0  0  0  0  0  0
    6.0203   -7.2616    0.0000 O   0  0  0  0  0  0  0  0  0  0  0  0
    6.7347   -6.0241    0.0000 O   0  0  0  0  0  0  0  0  0  0  0  0
    7.4492   -7.2616    0.0000 O   0  0  0  0  0  0  0  0  0  0  0  0
    5.3058   -6.8491    0.0000 C   0  0  0  0  0  0  0  0  0  0  0  0
    4.8933   -7.5636    0.0000 C   0  0  0  0  0  0  0  0  0  0  0  0
    4.5913   -6.4366    0.0000 C   0  0  0  0  0  0  0  0  0  0  0  0
    5.7183   -6.1346    0.0000 C   0  0  0  0  0  0  0  0  0  0  0  0
    8.1637   -6.8491    0.0000 C   0  0  0  0  0  0  0  0  0  0  0  0
    8.8781   -7.2616    0.0000 O   0  0  0  0  0  0  0  0  0  0  0  0
    8.1637   -6.0241    0.0000 O   0  0  0  0  0  0  0  0  0  0  0  0
    9.5926   -6.8491    0.0000 C   0  0  0  0  0  0  0  0  0  0  0  0
   10.0051   -7.5636    0.0000 C   0  0  0  0  0  0  0  0  0  0  0  0
    9.1801   -6.1346    0.0000 C   0  0  0  0  0  0  0  0  0  0  0  0
   10.3071   -6.4366    0.0000 C   0  0  0  0  0  0  0  0  0  0  0  0
  1  2  1  0  0  0  0
  1  3  2  0  0  0  0
  1  4  1  0  0  0  0
  5  6  1  0  0  0  0
  5  8  1  0  0  0  0
  5  7  1  0  0  0  0
  2  5  1  0  0  0  0
  4  9  1  0  0  0  0
  9 10  1  0  0  0  0
  9 11  2  0  0  0  0
 10 12  1  0  0  0  0
 12 13  1  0  0  0  0
 12 14  1  0  0  0  0
 12 15  1  0  0  0  0
M  END
>  <cdx:groupId>
503

>  <cdx:fragmentId>
491

$$$$
