301133.cdx
  Mrv1902 05222410192D          

 13 14  0  0  0  0            999 V2000
    8.9778   -6.7765    0.0000 O   0  0  0  0  0  0  0  0  0  0  0  0
    8.2634   -7.1890    0.0000 C   0  0  0  0  0  0  0  0  0  0  0  0
    5.7024  -10.4626    0.0000 O   0  0  0  0  0  0  0  0  0  0  0  0
    6.5093  -10.2911    0.0000 C   0  0  0  0  0  0  0  0  0  0  0  0
    6.7643   -9.5065    0.0000 C   0  0  0  0  0  0  0  0  0  0  0  0
    6.2794   -8.8390    0.0000 C   0  0  0  0  0  0  0  0  0  0  0  0
    6.7643   -8.1716    0.0000 C   0  0  0  0  0  0  0  0  0  0  0  0
    8.9778   -9.2515    0.0000 O   0  0  0  0  0  0  0  0  0  0  0  0
    8.9778   -8.4265    0.0000 C   0  0  0  0  0  0  0  0  0  0  0  0
    8.2634   -8.0140    0.0000 C   0  0  0  0  0  0  0  0  0  0  0  0
    7.5489   -8.4265    0.0000 C   0  0  0  0  0  0  0  0  0  0  0  0
    7.5489   -9.2515    0.0000 C   0  0  0  0  0  0  0  0  0  0  0  0
    8.2634   -9.6640    0.0000 C   0  0  0  0  0  0  0  0  0  0  0  0
 10  2  1  0  0  0  0
  2  1  1  0  0  0  0
  5  4  1  0  0  0  0
  4  3  2  0  0  0  0
  7 11  2  0  0  0  0
  5 12  1  0  0  0  0
  6  5  2  0  0  0  0
  7  6  1  0  0  0  0
 13  8  1  0  0  0  0
  9  8  1  0  0  0  0
 10  9  2  0  0  0  0
 11 10  1  0  0  0  0
 12 11  1  0  0  0  0
 13 12  2  0  0  0  0
M  END
>  <cdx:groupId>
2332

>  <cdx:fragmentId>
2295

$$$$
