30113.cdx
  Mrv1902 05222410282D          

 22 24  0  0  0  0            999 V2000
    8.1581  -11.6249    0.0000 H   0  0  0  0  0  0  0  0  0  0  0  0
    8.1992   -9.1502    0.0000 H   0  0  0  0  0  0  0  0  0  0  0  0
    9.1940  -11.8567    0.0000 O   0  0  0  0  0  0  0  0  0  0  0  0
    8.9521  -11.0679    0.0000 C   0  0  0  0  0  0  0  0  0  0  0  0
    9.4480  -10.4086    0.0000 O   0  0  0  0  0  0  0  0  0  0  0  0
    8.9743   -9.7332    0.0000 C   0  0  0  0  0  0  0  0  0  0  0  0
    6.9093  -10.3665    0.0000 O   0  0  0  0  0  0  0  0  0  0  0  0
    7.3831  -11.0419    0.0000 C   0  0  0  0  0  0  0  0  0  0  0  0
    8.1718  -10.8000    0.0000 C   0  0  2  0  0  0  0  0  0  0  0  0
    8.1855   -9.9751    0.0000 C   0  0  2  0  0  0  0  0  0  0  0  0
    7.4052   -9.7072    0.0000 C   0  0  2  0  0  0  0  0  0  0  0  0
    5.0716   -6.9711    0.0000 C   0  0  0  0  0  0  0  0  0  0  0  0
    5.3135   -7.7599    0.0000 O   0  0  0  0  0  0  0  0  0  0  0  0
    7.8039   -6.1332    0.0000 C   0  0  0  0  0  0  0  0  0  0  0  0
    8.0457   -6.9220    0.0000 O   0  0  0  0  0  0  0  0  0  0  0  0
    6.4377   -6.5522    0.0000 O   0  0  0  0  0  0  0  0  0  0  0  0
    7.7255   -8.3146    0.0000 C   0  0  0  0  0  0  0  0  0  0  0  0
    7.4836   -7.5258    0.0000 C   0  0  0  0  0  0  0  0  0  0  0  0
    6.6796   -7.3409    0.0000 C   0  0  0  0  0  0  0  0  0  0  0  0
    6.1175   -7.9448    0.0000 C   0  0  0  0  0  0  0  0  0  0  0  0
    6.3593   -8.7335    0.0000 C   0  0  0  0  0  0  0  0  0  0  0  0
    7.1634   -8.9184    0.0000 C   0  0  0  0  0  0  0  0  0  0  0  0
  9  1  1  1  0  0  0
 10  2  1  1  0  0  0
  4  3  2  0  0  0  0
  4  9  1  0  0  0  0
  5  4  1  0  0  0  0
  6  5  1  0  0  0  0
 10  6  1  0  0  0  0
  7 11  1  0  0  0  0
  8  7  1  0  0  0  0
  9  8  1  0  0  0  0
 10  9  1  0  0  0  0
 11 10  1  0  0  0  0
 11 22  1  1  0  0  0
 13 12  1  0  0  0  0
 20 13  1  0  0  0  0
 15 14  1  0  0  0  0
 18 15  1  0  0  0  0
 19 16  1  0  0  0  0
 17 22  1  0  0  0  0
 18 17  2  0  0  0  0
 19 18  1  0  0  0  0
 20 19  2  0  0  0  0
 21 20  1  0  0  0  0
 22 21  2  0  0  0  0
M  END
>  <cdx:fragmentId>
5

$$$$
