301106.cdx
  Mrv1902 05222410272D          

 11 10  0  0  0  0            999 V2000
   10.9818   -7.8537    0.0000 I   0  0  0  0  0  0  0  0  0  0  0  0
    3.8371   -7.8537    0.0000 C   0  0  0  0  0  0  0  0  0  0  0  0
    4.5516   -7.4412    0.0000 C   0  0  0  0  0  0  0  0  0  0  0  0
    5.2661   -7.8537    0.0000 C   0  0  0  0  0  0  0  0  0  0  0  0
    5.9805   -7.4412    0.0000 C   0  0  0  0  0  0  0  0  0  0  0  0
    6.6950   -7.8537    0.0000 C   0  0  0  0  0  0  0  0  0  0  0  0
    7.4095   -7.4412    0.0000 C   0  0  0  0  0  0  0  0  0  0  0  0
    8.1240   -7.8537    0.0000 C   0  0  0  0  0  0  0  0  0  0  0  0
    8.8384   -7.4412    0.0000 C   0  0  0  0  0  0  0  0  0  0  0  0
    9.5529   -7.8537    0.0000 C   0  0  0  0  0  0  0  0  0  0  0  0
   10.2674   -7.4412    0.0000 C   0  0  0  0  0  0  0  0  0  0  0  0
 11  1  1  0  0  0  0
  3  2  1  0  0  0  0
  4  3  1  0  0  0  0
  5  4  1  0  0  0  0
  6  5  1  0  0  0  0
  7  6  1  0  0  0  0
  8  7  1  0  0  0  0
  9  8  1  0  0  0  0
 10  9  1  0  0  0  0
 11 10  1  0  0  0  0
M  END
>  <cdx:fragmentId>
87

$$$$
