301175.cdx
  Mrv1902 05222410252D          

 19 21  0  0  0  0            999 V2000
    7.0570   -8.8303    0.0000 O   0  0  0  0  0  0  0  0  0  0  0  0
    5.6281   -8.8168    0.0000 O   0  0  0  0  0  0  0  0  0  0  0  0
    9.2120   -7.6130    0.0000 C   0  0  0  0  0  0  0  0  0  0  0  0
    9.9225   -8.0323    0.0000 C   0  0  0  0  0  0  0  0  0  0  0  0
    9.9147   -8.8572    0.0000 C   0  0  0  0  0  0  0  0  0  0  0  0
    9.1964   -9.2630    0.0000 C   0  0  0  0  0  0  0  0  0  0  0  0
    8.4858   -8.8437    0.0000 C   0  0  0  0  0  0  0  0  0  0  0  0
    8.4936   -8.0188    0.0000 C   0  0  0  0  0  0  0  0  0  0  0  0
    8.5092   -6.3689    0.0000 O   0  0  0  0  0  0  0  0  0  0  0  0
    7.0803   -6.3554    0.0000 O   0  0  0  0  0  0  0  0  0  0  0  0
    6.3620   -6.7611    0.0000 C   0  0  0  0  0  0  0  0  0  0  0  0
    5.6514   -6.3419    0.0000 C   0  0  0  0  0  0  0  0  0  0  0  0
    4.9331   -6.7476    0.0000 C   0  0  0  0  0  0  0  0  0  0  0  0
    4.9253   -7.5726    0.0000 C   0  0  0  0  0  0  0  0  0  0  0  0
    5.6359   -7.9918    0.0000 C   0  0  0  0  0  0  0  0  0  0  0  0
    6.3542   -7.5861    0.0000 C   0  0  0  0  0  0  0  0  0  0  0  0
    7.0647   -8.0053    0.0000 C   0  0  0  0  0  0  0  0  0  0  0  0
    7.7831   -7.5996    0.0000 C   0  0  0  0  0  0  0  0  0  0  0  0
    7.7909   -6.7746    0.0000 C   0  0  0  0  0  0  0  0  0  0  0  0
 17  1  1  0  0  0  0
 15  2  1  0  0  0  0
 18  8  1  0  0  0  0
  8  3  2  0  0  0  0
  4  3  1  0  0  0  0
  5  4  2  0  0  0  0
  6  5  1  0  0  0  0
  7  6  2  0  0  0  0
  8  7  1  0  0  0  0
 19  9  2  0  0  0  0
 19 10  1  0  0  0  0
 11 10  1  0  0  0  0
 16 11  2  0  0  0  0
 12 11  1  0  0  0  0
 13 12  2  0  0  0  0
 14 13  1  0  0  0  0
 15 14  2  0  0  0  0
 16 15  1  0  0  0  0
 17 16  1  0  0  0  0
 18 17  2  0  0  0  0
 19 18  1  0  0  0  0
M  END
>  <cdx:groupId>
2751

>  <cdx:fragmentId>
2695

$$$$
