301187.cdx
  Mrv1902 05222410212D          

 29 33  0  0  0  0            999 V2000
    8.4998   -8.4972    0.0000 C   0  0  0  0  0  0  0  0  0  0  0  0
    8.9230   -7.7890    0.0000 O   0  0  0  0  0  0  0  0  0  0  0  0
    8.3802   -7.1677    0.0000 C   0  0  2  0  0  0  0  0  0  0  0  0
    7.6216   -7.4919    0.0000 C   0  0  0  0  0  0  0  0  0  0  0  0
    7.6955   -8.3136    0.0000 C   0  0  1  0  0  0  0  0  0  0  0  0
    7.0505   -8.8280    0.0000 C   0  0  2  0  0  0  0  0  0  0  0  0
    6.3360   -8.4155    0.0000 C   0  0  0  0  0  0  0  0  0  0  0  0
    5.6216   -8.8280    0.0000 C   0  0  2  0  0  0  0  0  0  0  0  0
    5.6216   -9.6530    0.0000 C   0  0  0  0  0  0  0  0  0  0  0  0
    6.3360  -10.0655    0.0000 C   0  0  2  0  0  0  0  0  0  0  0  0
    7.0505   -9.6530    0.0000 C   0  0  1  0  0  0  0  0  0  0  0  0
    7.6955  -10.1674    0.0000 C   0  0  2  0  0  0  0  0  0  0  0  0
    8.4998   -9.9838    0.0000 O   0  0  0  0  0  0  0  0  0  0  0  0
    8.8578   -9.2405    0.0000 C   0  0  0  0  0  0  0  0  0  0  0  0
    7.6156   -9.1012    0.0000 C   0  0  0  0  0  0  0  0  0  0  0  0
    6.3360  -10.8905    0.0000 C   0  0  0  0  0  0  0  0  0  0  0  0
    7.0505  -11.3030    0.0000 O   0  0  0  0  0  0  0  0  0  0  0  0
    5.6216  -11.3030    0.0000 O   0  0  0  0  0  0  0  0  0  0  0  0
    9.6828   -9.2405    0.0000 O   0  0  0  0  0  0  0  0  0  0  0  0
    7.4134   -9.0889    0.0000 C   0  0  0  0  0  0  0  0  0  0  0  0
    4.9071   -8.4155    0.0000 O   0  0  0  0  0  0  0  0  0  0  0  0
    9.2484   -5.2175    0.0000 O   0  0  0  0  0  0  0  0  0  0  0  0
    9.3224   -6.0391    0.0000 C   0  0  0  0  0  0  0  0  0  0  0  0
    8.5638   -6.3634    0.0000 C   0  0  0  0  0  0  0  0  0  0  0  0
    8.0210   -5.7421    0.0000 C   0  0  0  0  0  0  0  0  0  0  0  0
    8.4441   -5.0339    0.0000 C   0  0  0  0  0  0  0  0  0  0  0  0
    7.0505   -8.0030    0.0000 H   0  0  0  0  0  0  0  0  0  0  0  0
    7.0505  -10.4780    0.0000 H   0  0  0  0  0  0  0  0  0  0  0  0
    7.5119  -10.9717    0.0000 H   0  0  0  0  0  0  0  0  0  0  0  0
  1  2  1  0  0  0  0
  2  3  1  0  0  0  0
  3  4  1  0  0  0  0
  4  5  1  0  0  0  0
  5  6  1  0  0  0  0
  6  7  1  0  0  0  0
  7  8  1  0  0  0  0
  8  9  1  0  0  0  0
  9 10  1  0  0  0  0
 10 11  1  0  0  0  0
 11 12  1  0  0  0  0
 12 13  1  0  0  0  0
 13 14  1  0  0  0  0
  1 14  1  0  0  0  0
  1 15  1  0  0  0  0
 12 15  1  0  0  0  0
  6 11  1  0  0  0  0
  1  5  1  0  0  0  0
 16 17  2  0  0  0  0
 16 18  1  0  0  0  0
 10 16  1  6  0  0  0
 14 19  2  0  0  0  0
  5 20  1  1  0  0  0
  8 21  1  6  0  0  0
 22 23  1  0  0  0  0
 23 24  2  0  0  0  0
 24 25  1  0  0  0  0
 25 26  2  0  0  0  0
 22 26  1  0  0  0  0
  3 24  1  6  0  0  0
  6 27  1  6  0  0  0
 11 28  1  1  0  0  0
 12 29  1  6  0  0  0
M  END
>  <cdx:fragmentId>
5

$$$$
