301195.cdx
  Mrv1902 05222410233D          

 52 59  0  0  0  0            999 V2000
   17.2902  -14.8058   -0.0815 H   0  0  0  0  0  0  0  0  0  0  0  0
   17.0553  -16.6613    0.0338 H   0  0  0  0  0  0  0  0  0  0  0  0
   11.9454  -11.7437   -0.0415 O   0  0  0  0  0  0  0  0  0  0  0  0
    7.9631  -14.0539    0.3446 C   0  0  0  0  0  0  0  0  0  0  0  0
    9.2906  -13.2838    0.2159 O   0  0  0  0  0  0  0  0  0  0  0  0
   19.9361  -11.7303   -0.4676 C   0  0  0  0  0  0  0  0  0  0  0  0
   18.6000  -10.9647   -0.4543 O   0  0  0  0  0  0  0  0  0  0  0  0
   15.7266  -16.9196   -0.0393 C   0  0  0  0  0  0  0  0  0  0  0  0
   15.9277   -9.4335   -0.4276 O   0  0  0  0  0  0  0  0  0  0  0  0
   14.9566  -15.5859   -0.0393 N   0  0  0  0  0  0  0  0  0  0  0  0
   13.9795  -15.0760   -0.0393 C   0  0  0  0  0  0  0  0  0  0  0  0
   13.9765  -14.2033   -0.0393 C   0  0  0  0  0  0  0  0  0  0  0  0
   14.6090  -11.7392   -0.1836 C   0  0  0  0  0  0  0  0  0  0  0  0
   15.9364  -10.9692   -0.3123 C   0  0  0  0  0  0  0  0  0  0  0  0
   17.2725  -11.7348   -0.3256 C   0  0  0  0  0  0  0  0  0  0  0  0
   17.2813  -13.2704   -0.2102 C   0  0  0  0  0  0  0  0  0  0  0  0
   15.9539  -14.0405   -0.0815 C   0  0  0  0  0  0  0  0  0  0  0  0
   15.9626  -15.5761    0.0338 C   0  0  1  0  0  0  0  0  0  0  0  0
   14.6352  -16.3462    0.1626 C   0  0  0  0  0  0  0  0  0  0  0  0
   13.2990  -15.5806    0.1759 C   0  0  0  0  0  0  0  0  0  0  0  0
   11.9716  -16.3507    0.3046 C   0  0  0  0  0  0  0  0  0  0  0  0
   10.6354  -15.5851    0.3179 C   0  0  0  0  0  0  0  0  0  0  0  0
   10.6267  -14.0494    0.2025 C   0  0  0  0  0  0  0  0  0  0  0  0
   11.9541  -13.2794    0.0738 C   0  0  0  0  0  0  0  0  0  0  0  0
   13.2903  -14.0450    0.0605 C   0  0  0  0  0  0  0  0  0  0  0  0
   14.6177  -13.2749   -0.0682 C   0  0  2  0  0  0  0  0  0  0  0  0
   14.6071  -20.9975    0.0289 C   0  0  2  0  0  0  0  0  0  0  0  0
   13.2770  -20.2321   -0.0998 C   0  0  0  0  0  0  0  0  0  0  0  0
   11.9436  -21.0023   -0.1131 C   0  0  0  0  0  0  0  0  0  0  0  0
   10.6135  -20.2369   -0.2418 C   0  0  0  0  0  0  0  0  0  0  0  0
   10.6169  -18.7012   -0.3572 C   0  0  0  0  0  0  0  0  0  0  0  0
   11.9504  -17.9310   -0.3439 C   0  0  0  0  0  0  0  0  0  0  0  0
   13.2804  -18.6964   -0.2152 C   0  0  0  0  0  0  0  0  0  0  0  0
   14.6139  -17.9262   -0.2018 C   0  0  0  0  0  0  0  0  0  0  0  0
   15.9440  -18.6916   -0.0731 C   0  0  2  0  0  0  0  0  0  0  0  0
   15.9406  -20.2273    0.0422 C   0  0  0  0  0  0  0  0  0  0  0  0
   17.2707  -20.9927    0.1709 C   0  0  0  0  0  0  0  0  0  0  0  0
   17.2673  -22.5284    0.2863 C   0  0  0  0  0  0  0  0  0  0  0  0
   15.9338  -23.2986    0.2730 C   0  0  0  0  0  0  0  0  0  0  0  0
   14.6037  -22.5332    0.1443 C   0  0  0  0  0  0  0  0  0  0  0  0
   13.9627  -20.0713    0.0000 C   0  0  0  0  0  0  0  0  0  0  0  0
   13.9627  -19.1987    0.0000 C   0  0  0  0  0  0  0  0  0  0  0  0
   14.9380  -18.6853    0.0000 N   0  0  0  0  0  0  0  0  0  0  0  0
   15.9304  -24.8343    0.3884 O   0  0  0  0  0  0  0  0  0  0  0  0
   15.7080  -17.3517    0.0000 C   0  0  0  0  0  0  0  0  0  0  0  0
   18.5974  -23.2939    0.4150 O   0  0  0  0  0  0  0  0  0  0  0  0
   19.9309  -22.5236    0.4284 C   0  0  0  0  0  0  0  0  0  0  0  0
    9.2800  -21.0071   -0.2551 O   0  0  0  0  0  0  0  0  0  0  0  0
    7.9499  -20.2416   -0.3838 C   0  0  0  0  0  0  0  0  0  0  0  0
   11.9402  -22.5380    0.0023 O   0  0  0  0  0  0  0  0  0  0  0  0
   17.0330  -17.6027   -0.0731 H   0  0  0  0  0  0  0  0  0  0  0  0
   17.2743  -19.4573    0.0422 H   0  0  0  0  0  0  0  0  0  0  0  0
 17  1  1  1  0  0  0
 18  2  1  1  0  0  0
 24  3  1  0  0  0  0
 23  5  1  0  0  0  0
  5  4  1  0  0  0  0
 15  7  1  0  0  0  0
  7  6  1  0  0  0  0
 10  8  1  0  0  0  0
 14  9  2  0  0  0  0
 25 20  2  0  0  0  0
 26 17  1  0  0  0  0
 18 10  1  0  0  0  0
 26 12  1  0  0  0  0
 26 13  1  1  0  0  0
 11 10  1  0  0  0  0
 12 11  1  0  0  0  0
 14 13  1  0  0  0  0
 15 14  1  0  0  0  0
 16 15  2  0  0  0  0
 17 16  1  0  0  0  0
 18 17  1  0  0  0  0
 19 18  1  0  0  0  0
 20 19  1  0  0  0  0
 21 20  1  0  0  0  0
 22 21  2  0  0  0  0
 23 22  1  0  0  0  0
 24 23  2  0  0  0  0
 25 24  1  0  0  0  0
 26 25  1  0  0  0  0
 27 28  1  0  0  0  0
 28 29  1  0  0  0  0
 29 30  2  0  0  0  0
 30 31  1  0  0  0  0
 31 32  2  0  0  0  0
 32 33  1  0  0  0  0
 33 34  1  0  0  0  0
 34 35  1  0  0  0  0
 35 36  1  0  0  0  0
 36 37  1  0  0  0  0
 37 38  2  0  0  0  0
 38 39  1  0  0  0  0
 39 40  1  0  0  0  0
 41 42  1  0  0  0  0
 42 43  1  0  0  0  0
 27 40  1  6  0  0  0
 27 41  1  0  0  0  0
 35 43  1  0  0  0  0
 27 36  1  0  0  0  0
 28 33  2  0  0  0  0
 39 44  2  0  0  0  0
 43 45  1  0  0  0  0
 46 47  1  0  0  0  0
 38 46  1  0  0  0  0
 48 49  1  0  0  0  0
 30 48  1  0  0  0  0
 29 50  1  0  0  0  0
 35 51  1  6  0  0  0
 36 52  1  6  0  0  0
 21 32  1  0  0  0  0
M  END
>  <cdx:fragmentId>
451

$$$$
