301157.cdx
  Mrv1902 05222410232D          

 20 21  0  0  0  0            999 V2000
    7.0678   -9.7916    0.0000 C   0  0  0  0  0  0  0  0  0  0  0  0
    6.3533   -9.3791    0.0000 C   0  0  0  0  0  0  0  0  0  0  0  0
    6.3533   -8.5541    0.0000 C   0  0  0  0  0  0  0  0  0  0  0  0
    7.0678   -8.1416    0.0000 C   0  0  0  0  0  0  0  0  0  0  0  0
    7.7822   -8.5541    0.0000 C   0  0  0  0  0  0  0  0  0  0  0  0
    7.7822   -9.3791    0.0000 C   0  0  0  0  0  0  0  0  0  0  0  0
    7.0678  -10.6166    0.0000 O   0  0  0  0  0  0  0  0  0  0  0  0
    5.6388   -7.3166    0.0000 C   0  0  0  0  0  0  0  0  0  0  0  0
    6.3533   -6.9041    0.0000 C   0  0  0  0  0  0  0  0  0  0  0  0
    7.0678   -7.3166    0.0000 C   0  0  0  0  0  0  0  0  0  0  0  0
    7.7822   -6.9041    0.0000 C   0  0  0  0  0  0  0  0  0  0  0  0
    8.4967   -7.3166    0.0000 C   0  0  0  0  0  0  0  0  0  0  0  0
    9.2112   -6.9041    0.0000 C   0  0  0  0  0  0  0  0  0  0  0  0
    7.7822   -6.0791    0.0000 C   0  0  0  0  0  0  0  0  0  0  0  0
    7.0678   -5.6666    0.0000 C   0  0  0  0  0  0  0  0  0  0  0  0
    7.0678   -4.8416    0.0000 C   0  0  0  0  0  0  0  0  0  0  0  0
    7.7822   -4.4291    0.0000 C   0  0  0  0  0  0  0  0  0  0  0  0
    8.4967   -4.8416    0.0000 C   0  0  0  0  0  0  0  0  0  0  0  0
    8.4967   -5.6666    0.0000 C   0  0  0  0  0  0  0  0  0  0  0  0
    7.7822   -3.6041    0.0000 O   0  0  0  0  0  0  0  0  0  0  0  0
  1  2  1  0  0  0  0
  2  3  2  0  0  0  0
  3  4  1  0  0  0  0
  4  5  2  0  0  0  0
  5  6  1  0  0  0  0
  1  6  2  0  0  0  0
  1  7  1  0  0  0  0
  8  9  1  0  0  0  0
  9 10  1  0  0  0  0
 10 11  2  0  0  0  0
 11 12  1  0  0  0  0
 12 13  1  0  0  0  0
 14 15  1  0  0  0  0
 15 16  2  0  0  0  0
 16 17  1  0  0  0  0
 17 18  2  0  0  0  0
 18 19  1  0  0  0  0
 14 19  2  0  0  0  0
 17 20  1  0  0  0  0
 11 14  1  0  0  0  0
  4 10  1  0  0  0  0
M  END
>  <cdx:groupId>
1482

>  <cdx:fragmentId>
1450

$$$$
