301100.cdx
  Mrv1902 05222410282D          

 33 37  0  0  0  0            999 V2000
    5.4000  -15.2489    0.0000 C   0  0  2  0  0  0  0  0  0  0  0  0
    6.1145  -14.8364    0.0000 C   0  0  0  0  0  0  0  0  0  0  0  0
    6.2860  -14.0294    0.0000 N   0  0  0  0  0  0  0  0  0  0  0  0
    7.1065  -13.9432    0.0000 C   0  0  0  0  0  0  0  0  0  0  0  0
    7.5914  -13.2757    0.0000 C   0  0  0  0  0  0  0  0  0  0  0  0
    8.4119  -13.3620    0.0000 C   0  0  0  0  0  0  0  0  0  0  0  0
    8.7475  -14.1157    0.0000 C   0  0  0  0  0  0  0  0  0  0  0  0
    8.2626  -14.7831    0.0000 C   0  0  0  0  0  0  0  0  0  0  0  0
    7.4421  -14.6969    0.0000 C   0  0  0  0  0  0  0  0  0  0  0  0
    6.8290  -15.2489    0.0000 C   0  0  0  0  0  0  0  0  0  0  0  0
    6.8290  -16.0739    0.0000 C   0  0  0  0  0  0  0  0  0  0  0  0
    6.1145  -16.4864    0.0000 C   0  0  0  0  0  0  0  0  0  0  0  0
    5.4000  -16.0739    0.0000 N   0  0  0  0  0  0  0  0  0  0  0  0
    4.6856  -16.4864    0.0000 C   0  0  0  0  0  0  0  0  0  0  0  0
    3.9711  -16.0739    0.0000 C   0  0  1  0  0  0  0  0  0  0  0  0
    3.2566  -16.4864    0.0000 C   0  0  0  0  0  0  0  0  0  0  0  0
    2.5422  -16.0739    0.0000 O   0  0  0  0  0  0  0  0  0  0  0  0
    2.5422  -15.2489    0.0000 C   0  0  0  0  0  0  0  0  0  0  0  0
    3.2566  -14.8364    0.0000 C   0  0  0  0  0  0  0  0  0  0  0  0
    3.9711  -15.2489    0.0000 C   0  0  1  0  0  0  0  0  0  0  0  0
    4.6856  -14.8364    0.0000 C   0  0  0  0  0  0  0  0  0  0  0  0
    3.2566  -14.0114    0.0000 C   0  0  0  0  0  0  0  0  0  0  0  0
    3.9711  -13.5989    0.0000 O   0  0  0  0  0  0  0  0  0  0  0  0
    2.5422  -13.5989    0.0000 O   0  0  0  0  0  0  0  0  0  0  0  0
    3.2566  -17.3114    0.0000 C   0  0  0  0  0  0  0  0  0  0  0  0
    9.5680  -14.2019    0.0000 O   0  0  0  0  0  0  0  0  0  0  0  0
   10.0529  -13.5345    0.0000 C   0  0  0  0  0  0  0  0  0  0  0  0
    8.8968  -12.6945    0.0000 O   0  0  0  0  0  0  0  0  0  0  0  0
    9.7173  -12.7808    0.0000 C   0  0  0  0  0  0  0  0  0  0  0  0
    5.4000  -14.4239    0.0000 H   0  0  0  0  0  0  0  0  0  0  0  0
    3.9711  -16.8989    0.0000 H   0  0  0  0  0  0  0  0  0  0  0  0
    3.9711  -14.4239    0.0000 H   0  0  0  0  0  0  0  0  0  0  0  0
    2.5422  -12.7739    0.0000 C   0  0  0  0  0  0  0  0  0  0  0  0
  1  2  1  0  0  0  0
  2  3  1  0  0  0  0
  3  4  1  0  0  0  0
  4  5  2  0  0  0  0
  5  6  1  0  0  0  0
  6  7  2  0  0  0  0
  7  8  1  0  0  0  0
  8  9  2  0  0  0  0
  9 10  1  0  0  0  0
 10 11  1  0  0  0  0
 11 12  1  0  0  0  0
 12 13  1  0  0  0  0
 13 14  1  0  0  0  0
 14 15  1  0  0  0  0
 15 16  1  0  0  0  0
 16 17  1  0  0  0  0
 17 18  1  0  0  0  0
 18 19  2  0  0  0  0
 19 20  1  0  0  0  0
 20 21  1  0  0  0  0
  1 21  1  0  0  0  0
  1 13  1  0  0  0  0
  2 10  2  0  0  0  0
  4  9  1  0  0  0  0
 15 20  1  0  0  0  0
 22 23  2  0  0  0  0
 22 24  1  0  0  0  0
 19 22  1  0  0  0  0
 16 25  2  0  0  0  0
 26 27  1  0  0  0  0
  7 26  1  0  0  0  0
 28 29  1  0  0  0  0
  6 28  1  0  0  0  0
  1 30  1  1  0  0  0
 15 31  1  6  0  0  0
 20 32  1  6  0  0  0
 24 33  1  0  0  0  0
M  END
>  <cdx:fragmentId>
6594

$$$$
