301162.cdx
  Mrv1902 05222410252D          

 24 25  0  0  0  0            999 V2000
    6.5028   -7.1379    0.0000 C   0  0  0  0  0  0  0  0  0  0  0  0
    5.7883   -7.5504    0.0000 C   0  0  0  0  0  0  0  0  0  0  0  0
    5.0738   -7.1379    0.0000 C   0  0  0  0  0  0  0  0  0  0  0  0
    6.5028   -6.3129    0.0000 O   0  0  0  0  0  0  0  0  0  0  0  0
    7.2172   -7.5504    0.0000 O   0  0  0  0  0  0  0  0  0  0  0  0
    4.3594   -7.5504    0.0000 C   0  0  0  0  0  0  0  0  0  0  0  0
    4.3594   -8.3754    0.0000 C   0  0  0  0  0  0  0  0  0  0  0  0
    3.6449   -8.7879    0.0000 C   0  0  0  0  0  0  0  0  0  0  0  0
    2.9304   -8.3754    0.0000 C   0  0  0  0  0  0  0  0  0  0  0  0
    2.9304   -7.5504    0.0000 C   0  0  0  0  0  0  0  0  0  0  0  0
    3.6449   -7.1379    0.0000 C   0  0  0  0  0  0  0  0  0  0  0  0
    2.2160   -8.7879    0.0000 O   0  0  0  0  0  0  0  0  0  0  0  0
    7.9317   -7.1379    0.0000 C   0  0  0  0  0  0  0  0  0  0  0  0
    8.6462   -7.5504    0.0000 C   0  0  0  0  0  0  0  0  0  0  0  0
    9.3607   -7.1379    0.0000 C   0  0  0  0  0  0  0  0  0  0  0  0
   10.0751   -7.5504    0.0000 C   0  0  0  0  0  0  0  0  0  0  0  0
   10.0751   -8.3754    0.0000 C   0  0  0  0  0  0  0  0  0  0  0  0
   10.7896   -8.7879    0.0000 C   0  0  0  0  0  0  0  0  0  0  0  0
   11.5041   -8.3754    0.0000 C   0  0  0  0  0  0  0  0  0  0  0  0
   11.5041   -7.5504    0.0000 C   0  0  0  0  0  0  0  0  0  0  0  0
   10.7896   -7.1379    0.0000 C   0  0  0  0  0  0  0  0  0  0  0  0
   12.2185   -7.1379    0.0000 O   0  0  0  0  0  0  0  0  0  0  0  0
   12.9330   -7.5504    0.0000 C   0  0  0  0  0  0  0  0  0  0  0  0
   12.2185   -8.7879    0.0000 O   0  0  0  0  0  0  0  0  0  0  0  0
  1  2  1  0  0  0  0
  2  3  2  0  0  0  0
  1  4  2  0  0  0  0
  1  5  1  0  0  0  0
  6  7  1  0  0  0  0
  7  8  2  0  0  0  0
  8  9  1  0  0  0  0
  9 10  2  0  0  0  0
 10 11  1  0  0  0  0
  6 11  1  0  0  0  0
  9 12  1  0  0  0  0
  3  6  1  0  0  0  0
 13 14  1  0  0  0  0
 14 15  2  0  0  0  0
 16 17  1  0  0  0  0
 17 18  2  0  0  0  0
 18 19  1  0  0  0  0
 19 20  2  0  0  0  0
 20 21  1  0  0  0  0
 16 21  1  0  0  0  0
 22 23  1  0  0  0  0
 20 22  1  0  0  0  0
 19 24  1  0  0  0  0
 15 16  1  0  0  0  0
  5 13  1  0  0  0  0
M  END
>  <cdx:groupId>
1887

>  <cdx:fragmentId>
1847

$$$$
