301104.cdx
  Mrv1902 05222410262D          

 31 30  0  0  0  0            999 V2000
    1.0249   -6.0241    0.0000 C   0  0  0  0  0  0  0  0  0  0  0  0
    1.7394   -6.4366    0.0000 C   0  0  0  0  0  0  0  0  0  0  0  0
    2.4538   -6.0241    0.0000 O   0  0  0  0  0  0  0  0  0  0  0  0
    3.1683   -6.4366    0.0000 C   0  0  0  0  0  0  0  0  0  0  0  0
    3.8828   -6.0241    0.0000 C   0  0  0  0  0  0  0  0  0  0  0  0
    4.5973   -6.4366    0.0000 O   0  0  0  0  0  0  0  0  0  0  0  0
    5.3117   -6.0241    0.0000 C   0  0  0  0  0  0  0  0  0  0  0  0
    6.0262   -6.4366    0.0000 C   0  0  0  0  0  0  0  0  0  0  0  0
    6.7407   -6.0241    0.0000 O   0  0  0  0  0  0  0  0  0  0  0  0
    7.4551   -6.4366    0.0000 C   0  0  0  0  0  0  0  0  0  0  0  0
    8.1696   -6.0241    0.0000 C   0  0  0  0  0  0  0  0  0  0  0  0
    8.8841   -6.4366    0.0000 O   0  0  0  0  0  0  0  0  0  0  0  0
    9.5986   -6.0241    0.0000 C   0  0  0  0  0  0  0  0  0  0  0  0
   10.3130   -6.4366    0.0000 C   0  0  0  0  0  0  0  0  0  0  0  0
   11.0275   -6.0241    0.0000 O   0  0  0  0  0  0  0  0  0  0  0  0
   11.7420   -6.4366    0.0000 C   0  0  0  0  0  0  0  0  0  0  0  0
   12.4564   -6.0241    0.0000 C   0  0  0  0  0  0  0  0  0  0  0  0
   13.1709   -6.4366    0.0000 O   0  0  0  0  0  0  0  0  0  0  0  0
   13.8854   -6.0241    0.0000 C   0  0  0  0  0  0  0  0  0  0  0  0
   14.5999   -6.4366    0.0000 C   0  0  0  0  0  0  0  0  0  0  0  0
   15.3143   -6.0241    0.0000 O   0  0  0  0  0  0  0  0  0  0  0  0
   16.0288   -6.4366    0.0000 C   0  0  0  0  0  0  0  0  0  0  0  0
   16.7433   -6.0241    0.0000 C   0  0  0  0  0  0  0  0  0  0  0  0
   17.4577   -6.4366    0.0000 O   0  0  0  0  0  0  0  0  0  0  0  0
   18.1722   -6.0241    0.0000 C   0  0  0  0  0  0  0  0  0  0  0  0
   18.8867   -6.4366    0.0000 C   0  0  0  0  0  0  0  0  0  0  0  0
   19.6012   -6.0241    0.0000 O   0  0  0  0  0  0  0  0  0  0  0  0
   20.3156   -6.4366    0.0000 C   0  0  0  0  0  0  0  0  0  0  0  0
   21.0301   -6.0241    0.0000 C   0  0  0  0  0  0  0  0  0  0  0  0
   21.7446   -6.4366    0.0000 O   0  0  0  0  0  0  0  0  0  0  0  0
    0.3104   -6.4366    0.0000 O   0  0  0  0  0  0  0  0  0  0  0  0
  1  2  1  0  0  0  0
  4  5  1  0  0  0  0
  3  4  1  0  0  0  0
  7  8  1  0  0  0  0
  6  7  1  0  0  0  0
 10 11  1  0  0  0  0
  9 10  1  0  0  0  0
 13 14  1  0  0  0  0
 12 13  1  0  0  0  0
 16 17  1  0  0  0  0
 15 16  1  0  0  0  0
 19 20  1  0  0  0  0
 18 19  1  0  0  0  0
 22 23  1  0  0  0  0
 21 22  1  0  0  0  0
 25 26  1  0  0  0  0
 24 25  1  0  0  0  0
 28 29  1  0  0  0  0
 27 28  1  0  0  0  0
 29 30  1  0  0  0  0
 26 27  1  0  0  0  0
 23 24  1  0  0  0  0
 20 21  1  0  0  0  0
 17 18  1  0  0  0  0
 14 15  1  0  0  0  0
 11 12  1  0  0  0  0
  8  9  1  0  0  0  0
  5  6  1  0  0  0  0
  2  3  1  0  0  0  0
  1 31  1  0  0  0  0
M  END
>  <cdx:groupId>
434

>  <cdx:fragmentId>
399

$$$$
