301137.cdx
  Mrv1902 05222410192D          

 31 34  0  0  0  0            999 V2000
    7.5510   -8.1716    0.0000 H   0  0  0  0  0  0  0  0  0  0  0  0
    7.5510   -7.3466    0.0000 O   0  0  0  0  0  0  0  0  0  0  0  0
    6.8365   -7.7591    0.0000 C   0  0  2  0  0  0  0  0  0  0  0  0
    6.1220   -7.3466    0.0000 C   0  0  1  0  0  0  0  0  0  0  0  0
    6.1220   -6.5216    0.0000 C   0  0  2  0  0  0  0  0  0  0  0  0
    6.8365   -6.1091    0.0000 C   0  0  1  0  0  0  0  0  0  0  0  0
    7.5510   -6.5216    0.0000 C   0  0  1  0  0  0  0  0  0  0  0  0
    8.2654   -6.1091    0.0000 C   0  0  0  0  0  0  0  0  0  0  0  0
    8.2654   -5.2841    0.0000 O   0  0  0  0  0  0  0  0  0  0  0  0
    6.8365   -5.2841    0.0000 O   0  0  0  0  0  0  0  0  0  0  0  0
    8.2654  -11.0591    0.0000 O   0  0  0  0  0  0  0  0  0  0  0  0
    5.4076  -11.0591    0.0000 O   0  0  0  0  0  0  0  0  0  0  0  0
    9.6944   -8.5841    0.0000 C   0  0  0  0  0  0  0  0  0  0  0  0
    5.4076   -6.1091    0.0000 O   0  0  0  0  0  0  0  0  0  0  0  0
    5.4076   -7.7591    0.0000 O   0  0  0  0  0  0  0  0  0  0  0  0
    6.8365  -11.0591    0.0000 O   0  0  0  0  0  0  0  0  0  0  0  0
    7.5510   -9.8216    0.0000 C   0  0  0  0  0  0  0  0  0  0  0  0
    6.8365  -10.2341    0.0000 C   0  0  0  0  0  0  0  0  0  0  0  0
    6.1220   -9.8216    0.0000 C   0  0  0  0  0  0  0  0  0  0  0  0
    5.4076  -10.2341    0.0000 C   0  0  0  0  0  0  0  0  0  0  0  0
    4.6931   -9.8216    0.0000 C   0  0  0  0  0  0  0  0  0  0  0  0
    4.6931   -8.9966    0.0000 C   0  0  0  0  0  0  0  0  0  0  0  0
    5.4076   -8.5841    0.0000 C   0  0  0  0  0  0  0  0  0  0  0  0
    6.1220   -8.9966    0.0000 C   0  0  0  0  0  0  0  0  0  0  0  0
    6.8365   -8.5841    0.0000 C   0  0  1  0  0  0  0  0  0  0  0  0
    7.5510   -8.9966    0.0000 C   0  0  0  0  0  0  0  0  0  0  0  0
    8.2654   -8.5841    0.0000 C   0  0  0  0  0  0  0  0  0  0  0  0
    8.9799   -8.9966    0.0000 C   0  0  0  0  0  0  0  0  0  0  0  0
    8.9799   -9.8216    0.0000 C   0  0  0  0  0  0  0  0  0  0  0  0
    8.2654  -10.2341    0.0000 C   0  0  0  0  0  0  0  0  0  0  0  0
    6.1220   -8.1716    0.0000 H   0  0  0  0  0  0  0  0  0  0  0  0
 30 11  1  0  0  0  0
 20 12  1  0  0  0  0
 28 13  1  0  0  0  0
 25  3  1  0  0  0  0
  3  1  1  6  0  0  0
 18 16  2  0  0  0  0
 30 17  2  0  0  0  0
 26 17  1  0  0  0  0
 18 17  1  0  0  0  0
 19 18  1  0  0  0  0
 24 19  2  0  0  0  0
 20 19  1  0  0  0  0
 21 20  2  0  0  0  0
 22 21  1  0  0  0  0
 23 22  2  0  0  0  0
 24 23  1  0  0  0  0
 25 24  1  0  0  0  0
 26 25  1  0  0  0  0
 27 26  2  0  0  0  0
 28 27  1  0  0  0  0
 29 28  2  0  0  0  0
 30 29  1  0  0  0  0
  3  2  1  0  0  0  0
  3  4  1  0  0  0  0
  4  5  1  0  0  0  0
  5  6  1  0  0  0  0
  6  7  1  0  0  0  0
  2  7  1  0  0  0  0
  8  9  1  0  0  0  0
  7  8  1  1  0  0  0
  6 10  1  6  0  0  0
 25 31  1  1  0  0  0
  5 14  1  1  0  0  0
  4 15  1  6  0  0  0
M  END
>  <cdx:fragmentId>
5

$$$$
