301102.cdx
  Mrv1902 05222410272D          

 19 21  0  0  0  0            999 V2000
    8.0880   -4.4154    0.0000 C   0  0  2  0  0  0  0  0  0  0  0  0
    8.8025   -4.0029    0.0000 C   0  0  1  0  0  0  0  0  0  0  0  0
    8.8025   -3.1779    0.0000 C   0  0  0  0  0  0  0  0  0  0  0  0
    8.0880   -2.7654    0.0000 C   0  0  2  0  0  0  0  0  0  0  0  0
    7.3736   -3.1779    0.0000 C   0  0  0  0  0  0  0  0  0  0  0  0
    6.6591   -2.7654    0.0000 C   0  0  0  0  0  0  0  0  0  0  0  0
    5.9446   -3.1779    0.0000 C   0  0  0  0  0  0  0  0  0  0  0  0
    5.9446   -4.0029    0.0000 C   0  0  0  0  0  0  0  0  0  0  0  0
    6.6591   -4.4154    0.0000 C   0  0  2  0  0  0  0  0  0  0  0  0
    7.3736   -4.0029    0.0000 C   0  0  2  0  0  0  0  0  0  0  0  0
    8.8025   -4.8279    0.0000 C   0  0  0  0  0  0  0  0  0  0  0  0
    5.2301   -2.7654    0.0000 O   0  0  0  0  0  0  0  0  0  0  0  0
    7.3736   -4.8279    0.0000 C   0  0  0  0  0  0  0  0  0  0  0  0
    6.6591   -5.2404    0.0000 C   0  0  0  0  0  0  0  0  0  0  0  0
    9.5170   -5.2404    0.0000 C   0  0  0  0  0  0  0  0  0  0  0  0
    8.8025   -5.6529    0.0000 C   0  0  0  0  0  0  0  0  0  0  0  0
    8.0880   -1.9404    0.0000 O   0  0  0  0  0  0  0  0  0  0  0  0
    9.6275   -4.0029    0.0000 H   0  0  0  0  0  0  0  0  0  0  0  0
    7.6755   -5.1298    0.0000 H   0  0  0  0  0  0  0  0  0  0  0  0
  1  2  1  0  0  0  0
  2  3  1  0  0  0  0
  3  4  1  0  0  0  0
  4  5  1  0  0  0  0
  5  6  2  0  0  0  0
  6  7  1  0  0  0  0
  7  8  1  0  0  0  0
  8  9  1  0  0  0  0
  9 10  1  0  0  0  0
  1 10  1  0  0  0  0
  5 10  1  0  0  0  0
 11  1  1  0  0  0  0
 11  2  1  0  0  0  0
  7 12  2  0  0  0  0
 10 13  1  6  0  0  0
  9 14  1  6  0  0  0
 11 15  1  0  0  0  0
 11 16  1  0  0  0  0
  4 17  1  6  0  0  0
  2 18  1  6  0  0  0
  1 19  1  6  0  0  0
M  END
>  <cdx:groupId>
274

>  <cdx:fragmentId>
218

$$$$
