30114.cdx
  Mrv1902 05222410272D          

 22 24  0  0  0  0            999 V2000
    7.4785   -7.6094    0.0000 C   0  0  0  0  0  0  0  0  0  0  0  0
    7.4941   -8.4343    0.0000 C   0  0  0  0  0  0  0  0  0  0  0  0
    8.2163   -8.8332    0.0000 C   0  0  0  0  0  0  0  0  0  0  0  0
    8.9228   -8.4072    0.0000 C   0  0  0  0  0  0  0  0  0  0  0  0
    8.9072   -7.5823    0.0000 C   0  0  0  0  0  0  0  0  0  0  0  0
    8.1850   -7.1835    0.0000 C   0  0  0  0  0  0  0  0  0  0  0  0
    9.6450   -8.8061    0.0000 O   0  0  0  0  0  0  0  0  0  0  0  0
    9.6137   -7.1564    0.0000 O   0  0  0  0  0  0  0  0  0  0  0  0
   10.3359   -7.5552    0.0000 C   0  0  0  0  0  0  0  0  0  0  0  0
    8.2320   -9.6580    0.0000 O   0  0  0  0  0  0  0  0  0  0  0  0
    8.9541  -10.0569    0.0000 C   0  0  0  0  0  0  0  0  0  0  0  0
    6.7563   -7.2106    0.0000 C   0  0  2  0  0  0  0  0  0  0  0  0
    6.6546   -6.3919    0.0000 C   0  0  2  0  0  0  0  0  0  0  0  0
    5.8445   -6.2357    0.0000 C   0  0  2  0  0  0  0  0  0  0  0  0
    5.4456   -6.9578    0.0000 C   0  0  0  0  0  0  0  0  0  0  0  0
    6.0092   -7.5603    0.0000 O   0  0  0  0  0  0  0  0  0  0  0  0
    7.0534   -5.6697    0.0000 C   0  0  0  0  0  0  0  0  0  0  0  0
    6.4899   -5.0672    0.0000 O   0  0  0  0  0  0  0  0  0  0  0  0
    5.7427   -5.4170    0.0000 C   0  0  0  0  0  0  0  0  0  0  0  0
    5.0205   -5.0181    0.0000 O   0  0  0  0  0  0  0  0  0  0  0  0
    7.4646   -6.5481    0.0000 H   0  0  0  0  0  0  0  0  0  0  0  0
    5.0344   -6.0795    0.0000 H   0  0  0  0  0  0  0  0  0  0  0  0
  1  2  2  0  0  0  0
  2  3  1  0  0  0  0
  3  4  2  0  0  0  0
  4  5  1  0  0  0  0
  5  6  2  0  0  0  0
  6  1  1  0  0  0  0
  4  7  1  0  0  0  0
  5  8  1  0  0  0  0
  8  9  1  0  0  0  0
  3 10  1  0  0  0  0
 10 11  1  0  0  0  0
 12  1  1  1  0  0  0
 12 13  1  0  0  0  0
 13 14  1  0  0  0  0
 14 15  1  0  0  0  0
 15 16  1  0  0  0  0
 16 12  1  0  0  0  0
 13 17  1  0  0  0  0
 17 18  1  0  0  0  0
 18 19  1  0  0  0  0
 19 14  1  0  0  0  0
 19 20  2  0  0  0  0
 13 21  1  1  0  0  0
 14 22  1  1  0  0  0
M  END
>  <cdx:fragmentId>
5

$$$$
