301152.cdx
  Mrv1902 05222410212D          

 13 14  0  0  0  0            999 V2000
    6.4556   -7.6297    0.0000 C   0  0  1  0  0  0  0  0  0  0  0  0
    5.9706   -6.9623    0.0000 C   0  0  0  0  0  0  0  0  0  0  0  0
    6.4556   -6.2949    0.0000 C   0  0  0  0  0  0  0  0  0  0  0  0
    7.2402   -6.5498    0.0000 C   0  0  0  0  0  0  0  0  0  0  0  0
    7.8852   -6.0354    0.0000 C   0  0  0  0  0  0  0  0  0  0  0  0
    8.6895   -6.2190    0.0000 C   0  0  0  0  0  0  0  0  0  0  0  0
    9.0475   -6.9623    0.0000 C   0  0  0  0  0  0  0  0  0  0  0  0
    8.6895   -7.7056    0.0000 C   0  0  0  0  0  0  0  0  0  0  0  0
    7.8852   -7.8892    0.0000 C   0  0  0  0  0  0  0  0  0  0  0  0
    7.2402   -7.3748    0.0000 C   0  0  0  0  0  0  0  0  0  0  0  0
    6.6271   -8.4367    0.0000 O   0  0  0  0  0  0  0  0  0  0  0  0
    7.7016   -5.2311    0.0000 C   0  0  0  0  0  0  0  0  0  0  0  0
    5.8425   -8.1818    0.0000 C   0  0  0  0  0  0  0  0  0  0  0  0
  1  2  1  0  0  0  0
  2  3  1  0  0  0  0
  3  4  1  0  0  0  0
  4  5  1  0  0  0  0
  5  6  1  0  0  0  0
  6  7  1  0  0  0  0
  7  8  1  0  0  0  0
  8  9  2  0  0  0  0
  9 10  1  0  0  0  0
  1 10  1  0  0  0  0
  4 10  1  0  0  0  0
  1 11  1  1  0  0  0
  5 12  2  0  0  0  0
  1 13  1  6  0  0  0
M  END
>  <cdx:groupId>
1153

>  <cdx:fragmentId>
1116

$$$$
