301297.cdx
  Mrv1902 05222410192D          

 15 15  0  0  0  0            999 V2000
    7.1730  -10.0680    0.0000 O   0  0  0  0  0  0  0  0  0  0  0  0
    8.6018  -10.0886    0.0000 C   0  0  0  0  0  0  0  0  0  0  0  0
    8.6137   -9.2637    0.0000 O   0  0  0  0  0  0  0  0  0  0  0  0
    5.7442  -10.0473    0.0000 C   0  0  0  0  0  0  0  0  0  0  0  0
    5.7561   -9.2224    0.0000 O   0  0  0  0  0  0  0  0  0  0  0  0
    6.4884   -7.9954    0.0000 C   0  0  0  0  0  0  0  0  0  0  0  0
    6.4764   -8.8203    0.0000 C   0  0  0  0  0  0  0  0  0  0  0  0
    7.1849   -9.2431    0.0000 C   0  0  0  0  0  0  0  0  0  0  0  0
    7.9052   -8.8409    0.0000 C   0  0  0  0  0  0  0  0  0  0  0  0
    7.9172   -8.0160    0.0000 C   0  0  0  0  0  0  0  0  0  0  0  0
    7.2087   -7.5932    0.0000 C   0  0  0  0  0  0  0  0  0  0  0  0
    7.9529   -5.5413    0.0000 O   0  0  0  0  0  0  0  0  0  0  0  0
    6.5122   -6.3455    0.0000 O   0  0  0  0  0  0  0  0  0  0  0  0
    7.9410   -6.3662    0.0000 C   0  0  0  0  0  0  0  0  0  0  0  0
    7.2206   -6.7683    0.0000 C   0  0  0  0  0  0  0  0  0  0  0  0
 15 11  1  0  0  0  0
  8  1  1  0  0  0  0
  9  3  1  0  0  0  0
  3  2  1  0  0  0  0
  7  5  1  0  0  0  0
  5  4  1  0  0  0  0
 11  6  2  0  0  0  0
  7  6  1  0  0  0  0
  8  7  2  0  0  0  0
  9  8  1  0  0  0  0
 10  9  2  0  0  0  0
 11 10  1  0  0  0  0
 14 12  1  0  0  0  0
 15 13  1  0  0  0  0
 15 14  1  0  0  0  0
M  END
>  <cdx:groupId>
3320

>  <cdx:fragmentId>
3286

$$$$
