301213.cdx
  Mrv1902 05222410242D          

 51 57  0  0  0  0            999 V2000
   11.6049   -3.6470    0.0000 O   0  0  0  0  0  0  0  0  0  0  0  0
   11.1200   -4.3144    0.0000 C   0  0  0  0  0  0  0  0  0  0  0  0
   11.6049   -4.9819    0.0000 C   0  0  0  0  0  0  0  0  0  0  0  0
   12.3895   -4.7269    0.0000 C   0  0  0  0  0  0  0  0  0  0  0  0
   12.3895   -3.9019    0.0000 C   0  0  0  0  0  0  0  0  0  0  0  0
   13.0569   -3.4170    0.0000 O   0  0  0  0  0  0  0  0  0  0  0  0
    7.7074   -6.8464    0.0000 C   0  0  0  0  0  0  0  0  0  0  0  0
    6.9930   -7.2589    0.0000 C   0  0  0  0  0  0  0  0  0  0  0  0
    6.9930   -8.0839    0.0000 C   0  0  1  0  0  0  0  0  0  0  0  0
    7.7074   -8.4964    0.0000 C   0  0  0  0  0  0  0  0  0  0  0  0
    8.4219   -8.0839    0.0000 C   0  0  1  0  0  0  0  0  0  0  0  0
    9.1364   -8.4964    0.0000 C   0  0  0  0  0  0  0  0  0  0  0  0
    9.8508   -8.0839    0.0000 C   0  0  0  0  0  0  0  0  0  0  0  0
    9.8508   -7.2589    0.0000 C   0  0  1  0  0  0  0  0  0  0  0  0
   10.5653   -6.8464    0.0000 C   0  0  1  0  0  0  0  0  0  0  0  0
   11.3499   -7.1014    0.0000 C   0  0  0  0  0  0  0  0  0  0  0  0
   11.8349   -6.4339    0.0000 C   0  0  0  0  0  0  0  0  0  0  0  0
   11.3499   -5.7665    0.0000 C   0  0  1  0  0  0  0  0  0  0  0  0
   10.5653   -6.0214    0.0000 C   0  0  1  0  0  0  0  0  0  0  0  0
    9.8508   -5.6089    0.0000 C   0  0  0  0  0  0  0  0  0  0  0  0
    9.1364   -6.0214    0.0000 C   0  0  0  0  0  0  0  0  0  0  0  0
    9.1364   -6.8464    0.0000 C   0  0  2  0  0  0  0  0  0  0  0  0
    8.4219   -7.2589    0.0000 C   0  0  1  0  0  0  0  0  0  0  0  0
   10.6515   -5.2010    0.0000 C   0  0  0  0  0  0  0  0  0  0  0  0
    8.4219   -6.4339    0.0000 C   0  0  0  0  0  0  0  0  0  0  0  0
    6.2785   -8.4964    0.0000 O   0  0  0  0  0  0  0  0  0  0  0  0
    5.5640   -7.2589    0.0000 O   0  0  0  0  0  0  0  0  0  0  0  0
    5.5640   -8.0839    0.0000 C   0  0  2  0  0  0  0  0  0  0  0  0
    4.8495   -8.4964    0.0000 C   0  0  0  0  0  0  0  0  0  0  0  0
    4.1351   -8.0839    0.0000 C   0  0  1  0  0  0  0  0  0  0  0  0
    4.1351   -7.2589    0.0000 C   0  0  1  0  0  0  0  0  0  0  0  0
    4.8495   -6.8464    0.0000 C   0  0  1  0  0  0  0  0  0  0  0  0
    3.4206   -6.8464    0.0000 O   0  0  0  0  0  0  0  0  0  0  0  0
    4.1351   -5.6089    0.0000 O   0  0  0  0  0  0  0  0  0  0  0  0
    3.4206   -6.0214    0.0000 C   0  0  2  0  0  0  0  0  0  0  0  0
    2.7061   -5.6089    0.0000 C   0  0  1  0  0  0  0  0  0  0  0  0
    2.7061   -4.7839    0.0000 C   0  0  2  0  0  0  0  0  0  0  0  0
    3.4206   -4.3714    0.0000 C   0  0  1  0  0  0  0  0  0  0  0  0
    4.1351   -4.7839    0.0000 C   0  0  1  0  0  0  0  0  0  0  0  0
    4.8495   -4.3714    0.0000 C   0  0  0  0  0  0  0  0  0  0  0  0
    5.5640   -4.7839    0.0000 O   0  0  0  0  0  0  0  0  0  0  0  0
    3.4206   -3.5464    0.0000 O   0  0  0  0  0  0  0  0  0  0  0  0
    1.9917   -4.3714    0.0000 O   0  0  0  0  0  0  0  0  0  0  0  0
    1.9917   -6.0214    0.0000 O   0  0  0  0  0  0  0  0  0  0  0  0
    4.8495   -6.0214    0.0000 C   0  0  0  0  0  0  0  0  0  0  0  0
    3.4206   -8.4964    0.0000 O   0  0  0  0  0  0  0  0  0  0  0  0
    2.7061   -8.0839    0.0000 C   0  0  0  0  0  0  0  0  0  0  0  0
   10.5653   -7.6714    0.0000 O   0  0  0  0  0  0  0  0  0  0  0  0
    8.4219   -8.9089    0.0000 H   0  0  0  0  0  0  0  0  0  0  0  0
    9.8508   -6.4339    0.0000 H   0  0  0  0  0  0  0  0  0  0  0  0
    9.1364   -7.6714    0.0000 H   0  0  0  0  0  0  0  0  0  0  0  0
  1  2  1  0  0  0  0
  2  3  1  0  0  0  0
  3  4  2  0  0  0  0
  4  5  1  0  0  0  0
  1  5  1  0  0  0  0
  5  6  2  0  0  0  0
  7  8  1  0  0  0  0
  8  9  1  0  0  0  0
  9 10  1  0  0  0  0
 10 11  1  0  0  0  0
 11 12  1  0  0  0  0
 12 13  1  0  0  0  0
 13 14  1  0  0  0  0
 14 15  1  0  0  0  0
 15 16  1  0  0  0  0
 16 17  1  0  0  0  0
 17 18  1  0  0  0  0
 18 19  1  0  0  0  0
 15 19  1  0  0  0  0
 19 20  1  0  0  0  0
 20 21  1  0  0  0  0
 21 22  1  0  0  0  0
 14 22  1  0  0  0  0
 22 23  1  0  0  0  0
 11 23  1  0  0  0  0
  7 23  1  0  0  0  0
 19 24  1  1  0  0  0
 23 25  1  1  0  0  0
 27 28  1  0  0  0  0
 28 29  1  0  0  0  0
 29 30  1  0  0  0  0
 30 31  1  0  0  0  0
 31 32  1  0  0  0  0
 27 32  1  0  0  0  0
 34 35  1  0  0  0  0
 35 36  1  0  0  0  0
 36 37  1  0  0  0  0
 37 38  1  0  0  0  0
 38 39  1  0  0  0  0
 34 39  1  0  0  0  0
 40 41  1  0  0  0  0
 39 40  1  1  0  0  0
 38 42  1  6  0  0  0
 37 43  1  1  0  0  0
 36 44  1  6  0  0  0
 35 33  1  1  0  0  0
 31 33  1  6  0  0  0
 32 45  1  1  0  0  0
 46 47  1  0  0  0  0
 30 46  1  6  0  0  0
 28 26  1  1  0  0  0
  9 26  1  1  0  0  0
 15 48  1  1  0  0  0
 18  3  1  1  0  0  0
 11 49  1  1  0  0  0
 14 50  1  1  0  0  0
 22 51  1  6  0  0  0
M  END
>  <cdx:groupId>
472

>  <cdx:fragmentId>
382

$$$$
