301202.cdx
  Mrv1902 05222410242D          

 14 13  0  0  0  0            999 V2000
   10.7943   -6.4077    0.0000 C   0  0  0  0  0  0  0  0  0  0  0  0
   10.0799   -6.8202    0.0000 C   0  0  0  0  0  0  0  0  0  0  0  0
    9.3654   -6.4077    0.0000 C   0  0  0  0  0  0  0  0  0  0  0  0
    8.6509   -6.8202    0.0000 C   0  0  0  0  0  0  0  0  0  0  0  0
    7.9365   -6.4077    0.0000 C   0  0  0  0  0  0  0  0  0  0  0  0
    7.2220   -6.8202    0.0000 C   0  0  0  0  0  0  0  0  0  0  0  0
    6.5075   -6.4077    0.0000 C   0  0  0  0  0  0  0  0  0  0  0  0
    5.7930   -6.8202    0.0000 C   0  0  0  0  0  0  0  0  0  0  0  0
    5.0786   -6.4077    0.0000 C   0  0  0  0  0  0  0  0  0  0  0  0
    4.3641   -6.8202    0.0000 C   0  0  0  0  0  0  0  0  0  0  0  0
    3.6496   -6.4077    0.0000 C   0  0  0  0  0  0  0  0  0  0  0  0
    2.9352   -6.8202    0.0000 C   0  0  0  0  0  0  0  0  0  0  0  0
   10.7943   -5.5827    0.0000 O   0  0  0  0  0  0  0  0  0  0  0  0
   11.5088   -6.8202    0.0000 N   0  0  0  0  0  0  0  0  0  0  0  0
  1  2  1  0  0  0  0
  2  3  1  0  0  0  0
  3  4  1  0  0  0  0
  4  5  1  0  0  0  0
  5  6  1  0  0  0  0
  6  7  1  0  0  0  0
  7  8  1  0  0  0  0
  8  9  1  0  0  0  0
  9 10  1  0  0  0  0
 10 11  1  0  0  0  0
 11 12  1  0  0  0  0
  1 13  2  0  0  0  0
  1 14  1  0  0  0  0
M  END
>  <cdx:groupId>
160

>  <cdx:fragmentId>
122

$$$$
