301260.cdx
  Mrv1902 05222410272D          

 13 13  0  0  0  0            999 V2000
    8.1429   -5.8649    0.0000 C   0  0  0  0  0  0  0  0  0  0  0  0
    7.4284   -6.2774    0.0000 C   0  0  0  0  0  0  0  0  0  0  0  0
    6.7140   -5.8649    0.0000 C   0  0  0  0  0  0  0  0  0  0  0  0
    8.1429   -5.0399    0.0000 O   0  0  0  0  0  0  0  0  0  0  0  0
    8.8574   -6.2774    0.0000 O   0  0  0  0  0  0  0  0  0  0  0  0
    5.9995   -6.2774    0.0000 C   0  0  0  0  0  0  0  0  0  0  0  0
    5.9995   -7.1024    0.0000 C   0  0  0  0  0  0  0  0  0  0  0  0
    5.2850   -7.5149    0.0000 C   0  0  0  0  0  0  0  0  0  0  0  0
    4.5706   -7.1024    0.0000 C   0  0  0  0  0  0  0  0  0  0  0  0
    4.5706   -6.2774    0.0000 C   0  0  0  0  0  0  0  0  0  0  0  0
    5.2850   -5.8649    0.0000 C   0  0  0  0  0  0  0  0  0  0  0  0
    9.5719   -5.8649    0.0000 C   0  0  0  0  0  0  0  0  0  0  0  0
   10.2863   -6.2774    0.0000 C   0  0  0  0  0  0  0  0  0  0  0  0
  1  2  1  0  0  0  0
  2  3  1  0  0  0  0
  1  4  2  0  0  0  0
  1  5  1  0  0  0  0
  6  7  1  0  0  0  0
  7  8  2  0  0  0  0
  8  9  1  0  0  0  0
  9 10  2  0  0  0  0
 10 11  1  0  0  0  0
  6 11  2  0  0  0  0
  3  6  1  0  0  0  0
 12 13  1  0  0  0  0
  5 12  1  0  0  0  0
M  END
>  <cdx:groupId>
361

>  <cdx:fragmentId>
335

$$$$
