301219.cdx
  Mrv1902 05222410202D          

 43 47  0  0  0  0            999 V2000
    6.8600   -5.9666    0.0000 O   0  0  0  0  0  0  0  0  0  0  0  0
    6.1455   -6.3791    0.0000 C   0  0  1  0  0  0  0  0  0  0  0  0
    6.1455   -7.2041    0.0000 C   0  0  2  0  0  0  0  0  0  0  0  0
    6.8600   -7.6166    0.0000 C   0  0  1  0  0  0  0  0  0  0  0  0
    7.5745   -7.2041    0.0000 C   0  0  2  0  0  0  0  0  0  0  0  0
    7.5745   -6.3791    0.0000 C   0  0  2  0  0  0  0  0  0  0  0  0
    5.4311   -5.9666    0.0000 C   0  0  0  0  0  0  0  0  0  0  0  0
    4.7166   -6.3791    0.0000 O   0  0  0  0  0  0  0  0  0  0  0  0
    8.2890   -7.6166    0.0000 O   0  0  0  0  0  0  0  0  0  0  0  0
    6.8600   -8.4416    0.0000 O   0  0  0  0  0  0  0  0  0  0  0  0
    8.2890   -5.9666    0.0000 O   0  0  0  0  0  0  0  0  0  0  0  0
   10.4324   -3.9041    0.0000 O   0  0  0  0  0  0  0  0  0  0  0  0
   10.4324   -4.7291    0.0000 C   0  0  1  0  0  0  0  0  0  0  0  0
    9.7179   -5.1416    0.0000 C   0  0  2  0  0  0  0  0  0  0  0  0
    9.0034   -4.7291    0.0000 C   0  0  0  0  0  0  0  0  0  0  0  0
    8.2890   -5.1416    0.0000 C   0  0  0  0  0  0  0  0  0  0  0  0
    7.5745   -4.7291    0.0000 C   0  0  0  0  0  0  0  0  0  0  0  0
    7.5745   -3.9041    0.0000 C   0  0  0  0  0  0  0  0  0  0  0  0
    8.2890   -3.4916    0.0000 C   0  0  0  0  0  0  0  0  0  0  0  0
    9.0034   -3.9041    0.0000 C   0  0  0  0  0  0  0  0  0  0  0  0
    9.7179   -3.4916    0.0000 C   0  0  1  0  0  0  0  0  0  0  0  0
    6.8600   -3.4916    0.0000 C   0  0  0  0  0  0  0  0  0  0  0  0
    6.1455   -3.9041    0.0000 C   0  0  0  0  0  0  0  0  0  0  0  0
    6.1455   -4.7291    0.0000 C   0  0  0  0  0  0  0  0  0  0  0  0
    6.8600   -5.1416    0.0000 C   0  0  0  0  0  0  0  0  0  0  0  0
   11.1468   -5.1416    0.0000 C   0  0  0  0  0  0  0  0  0  0  0  0
    9.7179   -2.6666    0.0000 C   0  0  0  0  0  0  0  0  0  0  0  0
    6.8600   -2.6666    0.0000 O   0  0  0  0  0  0  0  0  0  0  0  0
    6.1455   -2.2541    0.0000 C   0  0  0  0  0  0  0  0  0  0  0  0
    8.2890   -2.6666    0.0000 O   0  0  0  0  0  0  0  0  0  0  0  0
    9.7179   -5.9666    0.0000 O   0  0  0  0  0  0  0  0  0  0  0  0
    5.4311   -7.6166    0.0000 O   0  0  0  0  0  0  0  0  0  0  0  0
    2.5619   -9.7913    0.0000 O   0  0  0  0  0  0  0  0  0  0  0  0
    2.9744   -9.0768    0.0000 C   0  0  0  0  0  0  0  0  0  0  0  0
    3.8174  -10.4952    0.0000 O   0  0  0  0  0  0  0  0  0  0  0  0
    5.4673  -10.4742    0.0000 O   0  0  0  0  0  0  0  0  0  0  0  0
    6.2741   -9.0349    0.0000 O   0  0  0  0  0  0  0  0  0  0  0  0
    3.7993   -9.0663    0.0000 C   0  0  2  0  0  0  0  0  0  0  0  0
    4.2209   -9.7755    0.0000 C   0  0  2  0  0  0  0  0  0  0  0  0
    5.0458   -9.7651    0.0000 C   0  0  1  0  0  0  0  0  0  0  0  0
    5.4492   -9.0454    0.0000 C   0  0  2  0  0  0  0  0  0  0  0  0
    5.0277   -8.3362    0.0000 C   0  0  1  0  0  0  0  0  0  0  0  0
    4.2027   -8.3467    0.0000 O   0  0  0  0  0  0  0  0  0  0  0  0
 42 32  1  1  0  0  0
 38 34  1  1  0  0  0
 34 33  1  0  0  0  0
 39 35  1  6  0  0  0
 40 36  1  1  0  0  0
 41 37  1  6  0  0  0
 43 38  1  0  0  0  0
 39 38  1  0  0  0  0
 40 39  1  0  0  0  0
 41 40  1  0  0  0  0
 42 41  1  0  0  0  0
 43 42  1  0  0  0  0
  1  2  1  0  0  0  0
  2  3  1  0  0  0  0
  3  4  1  0  0  0  0
  4  5  1  0  0  0  0
  5  6  1  0  0  0  0
  1  6  1  0  0  0  0
  7  8  1  0  0  0  0
  2  7  1  1  0  0  0
  5  9  1  6  0  0  0
  4 10  1  1  0  0  0
 12 13  1  0  0  0  0
 13 14  1  0  0  0  0
 14 15  1  0  0  0  0
 15 16  1  0  0  0  0
 16 17  2  0  0  0  0
 17 18  1  0  0  0  0
 18 19  2  0  0  0  0
 19 20  1  0  0  0  0
 15 20  2  0  0  0  0
 20 21  1  0  0  0  0
 12 21  1  0  0  0  0
 22 23  2  0  0  0  0
 23 24  1  0  0  0  0
 24 25  2  0  0  0  0
 25 17  1  0  0  0  0
 22 18  1  0  0  0  0
 13 26  1  6  0  0  0
 21 27  1  1  0  0  0
 28 29  1  0  0  0  0
 22 28  1  0  0  0  0
 19 30  1  0  0  0  0
 14 31  1  1  0  0  0
 11 16  1  0  0  0  0
  6 11  1  1  0  0  0
  3 32  1  6  0  0  0
M  END
>  <cdx:fragmentId>
175

$$$$
