301246.cdx
  Mrv1902 05222410182D          

 18 19  0  0  0  0            999 V2000
    9.2143   -6.6652    0.0000 C   0  0  0  0  0  0  0  0  0  0  0  0
    8.4073   -6.8367    0.0000 C   0  0  1  0  0  0  0  0  0  0  0  0
    8.1523   -7.6213    0.0000 C   0  0  1  0  0  0  0  0  0  0  0  0
    7.3454   -7.7928    0.0000 C   0  0  0  0  0  0  0  0  0  0  0  0
    9.4692   -5.8805    0.0000 O   0  0  0  0  0  0  0  0  0  0  0  0
    9.7663   -7.2783    0.0000 O   0  0  0  0  0  0  0  0  0  0  0  0
    8.7044   -8.2344    0.0000 O   0  0  0  0  0  0  0  0  0  0  0  0
    7.8552   -6.2236    0.0000 O   0  0  0  0  0  0  0  0  0  0  0  0
    7.0904   -9.9123    0.0000 N   0  0  0  0  0  0  0  0  0  0  0  0
    7.5754   -9.2449    0.0000 C   0  0  0  0  0  0  0  0  0  0  0  0
    7.0904   -8.5775    0.0000 N   0  0  0  0  0  0  0  0  0  0  0  0
    6.3058   -8.8324    0.0000 C   0  0  0  0  0  0  0  0  0  0  0  0
    5.5913   -8.4199    0.0000 N   0  0  0  0  0  0  0  0  0  0  0  0
    4.8769   -8.8324    0.0000 C   0  0  0  0  0  0  0  0  0  0  0  0
    4.8769   -9.6574    0.0000 N   0  0  0  0  0  0  0  0  0  0  0  0
    5.5913  -10.0699    0.0000 C   0  0  0  0  0  0  0  0  0  0  0  0
    6.3058   -9.6574    0.0000 C   0  0  0  0  0  0  0  0  0  0  0  0
    5.5913  -10.8949    0.0000 N   0  0  0  0  0  0  0  0  0  0  0  0
  1  2  1  0  0  0  0
  2  3  1  0  0  0  0
  3  4  1  0  0  0  0
  1  5  2  0  0  0  0
  1  6  1  0  0  0  0
  3  7  1  6  0  0  0
  2  8  1  1  0  0  0
  9 10  2  0  0  0  0
 10 11  1  0  0  0  0
 11 12  1  0  0  0  0
 12 13  2  0  0  0  0
 13 14  1  0  0  0  0
 14 15  2  0  0  0  0
 15 16  1  0  0  0  0
 16 17  2  0  0  0  0
  9 17  1  0  0  0  0
 12 17  1  0  0  0  0
 16 18  1  0  0  0  0
  4 11  1  0  0  0  0
M  END
>  <cdx:groupId>
3195

>  <cdx:fragmentId>
3159

$$$$
