30124.cdx
  Mrv1902 05222410192D          

 28 27  0  0  0  0            999 V2000
    5.2650   -8.0426    0.0000 O   0  0  0  0  0  0  0  0  0  0  0  0
    3.1222  -10.1045    0.0000 C   0  0  0  0  0  0  0  0  0  0  0  0
    2.4080   -8.8674    0.0000 C   0  0  0  0  0  0  0  0  0  0  0  0
    3.1222   -9.2798    0.0000 C   0  0  0  0  0  0  0  0  0  0  0  0
    3.8365   -8.8674    0.0000 C   0  0  0  0  0  0  0  0  0  0  0  0
    4.5507   -9.2798    0.0000 N   0  0  0  0  0  0  0  0  0  0  0  0
    5.2650   -8.8674    0.0000 C   0  0  0  0  0  0  0  0  0  0  0  0
    5.9792   -9.2798    0.0000 C   0  0  0  0  0  0  0  0  0  0  0  0
    6.6934   -8.8674    0.0000 C   0  0  0  0  0  0  0  0  0  0  0  0
    7.4077   -9.2798    0.0000 C   0  0  0  0  0  0  0  0  0  0  0  0
    8.1219   -8.8674    0.0000 C   0  0  0  0  0  0  0  0  0  0  0  0
    8.8362   -9.2798    0.0000 C   0  0  0  0  0  0  0  0  0  0  0  0
    9.5504   -8.8674    0.0000 C   0  0  0  0  0  0  0  0  0  0  0  0
   10.2647   -9.2798    0.0000 C   0  0  0  0  0  0  0  0  0  0  0  0
   10.9789   -8.8674    0.0000 C   0  0  0  0  0  0  0  0  0  0  0  0
   11.6932   -9.2798    0.0000 C   0  0  0  0  0  0  0  0  0  0  0  0
   12.4074   -8.8674    0.0000 C   0  0  0  0  0  0  0  0  0  0  0  0
   13.1217   -9.2798    0.0000 C   0  0  0  0  0  0  0  0  0  0  0  0
   13.8359   -8.8674    0.0000 C   0  0  0  0  0  0  0  0  0  0  0  0
   14.5501   -9.2798    0.0000 C   0  0  0  0  0  0  0  0  0  0  0  0
   15.2644   -8.8674    0.0000 C   0  0  0  0  0  0  0  0  0  0  0  0
   15.9786   -9.2798    0.0000 C   0  0  0  0  0  0  0  0  0  0  0  0
   16.6929   -8.8674    0.0000 C   0  0  0  0  0  0  0  0  0  0  0  0
   17.4071   -9.2798    0.0000 C   0  0  0  0  0  0  0  0  0  0  0  0
   18.1214   -8.8674    0.0000 C   0  0  0  0  0  0  0  0  0  0  0  0
   18.8356   -9.2798    0.0000 C   0  0  0  0  0  0  0  0  0  0  0  0
   19.5501   -8.8673    0.0000 C   0  0  0  0  0  0  0  0  0  0  0  0
   20.2646   -9.2798    0.0000 C   0  0  0  0  0  0  0  0  0  0  0  0
  7  1  2  0  0  0  0
  4  2  1  0  0  0  0
  4  3  1  0  0  0  0
  5  4  1  0  0  0  0
  6  5  1  0  0  0  0
  7  6  1  0  0  0  0
  8  7  1  0  0  0  0
  9  8  2  0  0  0  0
 10  9  1  0  0  0  0
 11 10  2  0  0  0  0
 12 11  1  0  0  0  0
 13 12  1  0  0  0  0
 14 13  1  0  0  0  0
 15 14  1  0  0  0  0
 16 15  1  0  0  0  0
 17 16  1  0  0  0  0
 18 17  1  0  0  0  0
 19 18  1  0  0  0  0
 20 19  1  0  0  0  0
 21 20  1  0  0  0  0
 22 21  1  0  0  0  0
 23 22  2  0  0  0  0
 24 23  1  0  0  0  0
 25 24  1  0  0  0  0
 26 25  1  0  0  0  0
 26 27  1  0  0  0  0
 27 28  1  0  0  0  0
M  END
>  <cdx:fragmentId>
3

$$$$
