301227.cdx
  Mrv1902 05222410212D          

 29 33  0  0  0  0            999 V2000
    8.0209   -5.9835    0.0000 C   0  0  1  0  0  0  0  0  0  0  0  0
    7.3064   -6.3960    0.0000 C   0  0  2  0  0  0  0  0  0  0  0  0
    6.6614   -5.8816    0.0000 C   0  0  0  0  0  0  0  0  0  0  0  0
    5.8571   -6.0652    0.0000 C   0  0  0  0  0  0  0  0  0  0  0  0
    5.4992   -6.8085    0.0000 C   0  0  1  0  0  0  0  0  0  0  0  0
    5.8571   -7.5518    0.0000 C   0  0  0  0  0  0  0  0  0  0  0  0
    6.6614   -7.7354    0.0000 C   0  0  2  0  0  0  0  0  0  0  0  0
    7.3064   -7.2210    0.0000 C   0  0  1  0  0  0  0  0  0  0  0  0
    8.0209   -7.6335    0.0000 C   0  0  1  0  0  0  0  0  0  0  0  0
    8.7354   -7.2210    0.0000 C   0  0  2  0  0  0  0  0  0  0  0  0
    8.7354   -6.3960    0.0000 C   0  0  2  0  0  0  0  0  0  0  0  0
    9.4498   -5.9835    0.0000 C   0  0  0  0  0  0  0  0  0  0  0  0
    9.4498   -5.1585    0.0000 C   0  0  0  0  0  0  0  0  0  0  0  0
    8.7354   -4.7460    0.0000 C   0  0  0  0  0  0  0  0  0  0  0  0
    8.0209   -5.1585    0.0000 C   0  0  2  0  0  0  0  0  0  0  0  0
    8.3622   -6.4996    0.0000 C   0  0  0  0  0  0  0  0  0  0  0  0
    8.3622   -7.1184    0.0000 O   0  0  0  0  0  0  0  0  0  0  0  0
    6.2847   -7.5362    0.0000 C   0  0  0  0  0  0  0  0  0  0  0  0
    6.8450   -8.5397    0.0000 O   0  0  0  0  0  0  0  0  0  0  0  0
    8.0209   -8.4585    0.0000 O   0  0  0  0  0  0  0  0  0  0  0  0
    9.4498   -7.6335    0.0000 O   0  0  0  0  0  0  0  0  0  0  0  0
    7.3064   -4.7460    0.0000 O   0  0  0  0  0  0  0  0  0  0  0  0
    6.1015   -8.3406    0.0000 O   0  0  0  0  0  0  0  0  0  0  0  0
    5.3427   -8.1968    0.0000 C   0  0  0  0  0  0  0  0  0  0  0  0
   10.2748   -5.9835    0.0000 C   0  0  0  0  0  0  0  0  0  0  0  0
    9.8623   -6.6980    0.0000 C   0  0  0  0  0  0  0  0  0  0  0  0
    7.3064   -5.5710    0.0000 H   0  0  0  0  0  0  0  0  0  0  0  0
    4.6742   -6.8085    0.0000 H   0  0  0  0  0  0  0  0  0  0  0  0
    9.4498   -6.8085    0.0000 H   0  0  0  0  0  0  0  0  0  0  0  0
  1  2  1  0  0  0  0
  2  3  1  0  0  0  0
  3  4  1  0  0  0  0
  4  5  1  0  0  0  0
  5  6  1  6  0  0  0
  6  7  1  0  0  0  0
  7  8  1  0  0  0  0
  8  9  1  0  0  0  0
  9 10  1  0  0  0  0
 10 11  1  0  0  0  0
 11 12  1  0  0  0  0
 12 13  1  0  0  0  0
 13 14  1  0  0  0  0
 14 15  1  0  0  0  0
 16 17  1  0  0  0  0
  1 15  1  0  0  0  0
  1 16  1  1  0  0  0
  9 17  1  1  0  0  0
  1 11  1  0  0  0  0
  8 18  1  1  0  0  0
 18  5  1  0  0  0  0
  2  8  1  0  0  0  0
  7 19  1  6  0  0  0
  9 20  1  0  0  0  0
 10 21  1  6  0  0  0
 15 22  1  1  0  0  0
 18 23  1  0  0  0  0
  6 24  2  0  0  0  0
 12 25  1  0  0  0  0
 12 26  1  0  0  0  0
  2 27  1  6  0  0  0
  5 28  1  0  0  0  0
 11 29  1  6  0  0  0
M  END
>  <cdx:groupId>
832

>  <cdx:fragmentId>
744

$$$$
