301265.cdx
  Mrv1902 05222410272D          

 15 15  0  0  0  0            999 V2000
    8.5001   -6.5873    0.0000 C   0  0  0  0  0  0  0  0  0  0  0  0
    7.7857   -6.9998    0.0000 C   0  0  0  0  0  0  0  0  0  0  0  0
    7.0712   -6.5873    0.0000 C   0  0  0  0  0  0  0  0  0  0  0  0
    6.3567   -6.9998    0.0000 C   0  0  0  0  0  0  0  0  0  0  0  0
    8.5001   -5.7623    0.0000 O   0  0  0  0  0  0  0  0  0  0  0  0
    9.2146   -6.9998    0.0000 O   0  0  0  0  0  0  0  0  0  0  0  0
    5.6423   -6.5873    0.0000 C   0  0  0  0  0  0  0  0  0  0  0  0
    5.6423   -5.7623    0.0000 C   0  0  0  0  0  0  0  0  0  0  0  0
    4.9278   -5.3498    0.0000 C   0  0  0  0  0  0  0  0  0  0  0  0
    4.2133   -5.7623    0.0000 C   0  0  0  0  0  0  0  0  0  0  0  0
    4.2133   -6.5873    0.0000 C   0  0  0  0  0  0  0  0  0  0  0  0
    4.9278   -6.9998    0.0000 C   0  0  0  0  0  0  0  0  0  0  0  0
    7.7857   -7.8248    0.0000 O   0  0  0  0  0  0  0  0  0  0  0  0
    9.9291   -6.5873    0.0000 C   0  0  0  0  0  0  0  0  0  0  0  0
   10.6436   -6.9998    0.0000 C   0  0  0  0  0  0  0  0  0  0  0  0
  1  2  1  0  0  0  0
  2  3  1  0  0  0  0
  3  4  1  0  0  0  0
  1  5  2  0  0  0  0
  1  6  1  0  0  0  0
  7  8  1  0  0  0  0
  8  9  2  0  0  0  0
  9 10  1  0  0  0  0
 10 11  2  0  0  0  0
 11 12  1  0  0  0  0
  7 12  2  0  0  0  0
  4  7  1  0  0  0  0
  2 13  2  0  0  0  0
 14 15  1  0  0  0  0
  6 14  1  0  0  0  0
M  END
>  <cdx:groupId>
571

>  <cdx:fragmentId>
541

$$$$
