301282.cdx
  Mrv1902 05222410192D          

 25 27  0  0  0  0            999 V2000
   10.6966   -8.1141    0.0000 O   0  0  0  0  0  0  0  0  0  0  0  0
   10.6966   -6.4641    0.0000 O   0  0  0  0  0  0  0  0  0  0  0  0
    8.5532   -6.8766    0.0000 C   0  0  0  0  0  0  0  0  0  0  0  0
    9.2677   -6.4641    0.0000 C   0  0  0  0  0  0  0  0  0  0  0  0
    9.9821   -6.8766    0.0000 C   0  0  0  0  0  0  0  0  0  0  0  0
    9.9821   -7.7016    0.0000 C   0  0  0  0  0  0  0  0  0  0  0  0
    9.2677   -8.1141    0.0000 C   0  0  0  0  0  0  0  0  0  0  0  0
    8.5532   -7.7016    0.0000 C   0  0  0  0  0  0  0  0  0  0  0  0
    8.5532   -9.3516    0.0000 O   0  0  0  0  0  0  0  0  0  0  0  0
    5.6953  -10.1766    0.0000 O   0  0  0  0  0  0  0  0  0  0  0  0
    3.5519   -8.9391    0.0000 C   0  0  0  0  0  0  0  0  0  0  0  0
    4.2664   -9.3516    0.0000 O   0  0  0  0  0  0  0  0  0  0  0  0
    3.5519   -8.1141    0.0000 C   0  0  0  0  0  0  0  0  0  0  0  0
    4.2664   -7.7016    0.0000 O   0  0  0  0  0  0  0  0  0  0  0  0
    7.1243  -10.1766    0.0000 O   0  0  0  0  0  0  0  0  0  0  0  0
    7.1243   -7.7016    0.0000 O   0  0  0  0  0  0  0  0  0  0  0  0
    6.4098   -8.1141    0.0000 C   0  0  0  0  0  0  0  0  0  0  0  0
    5.6953   -7.7016    0.0000 C   0  0  0  0  0  0  0  0  0  0  0  0
    4.9809   -8.1141    0.0000 C   0  0  0  0  0  0  0  0  0  0  0  0
    4.9809   -8.9391    0.0000 C   0  0  0  0  0  0  0  0  0  0  0  0
    5.6953   -9.3516    0.0000 C   0  0  0  0  0  0  0  0  0  0  0  0
    6.4098   -8.9391    0.0000 C   0  0  0  0  0  0  0  0  0  0  0  0
    7.1243   -9.3516    0.0000 C   0  0  0  0  0  0  0  0  0  0  0  0
    7.8387   -8.9391    0.0000 C   0  0  0  0  0  0  0  0  0  0  0  0
    7.8387   -8.1141    0.0000 C   0  0  0  0  0  0  0  0  0  0  0  0
 25  8  1  0  0  0  0
  6  1  1  0  0  0  0
  5  2  1  0  0  0  0
  8  3  2  0  0  0  0
  4  3  1  0  0  0  0
  5  4  2  0  0  0  0
  6  5  1  0  0  0  0
  7  6  2  0  0  0  0
  8  7  1  0  0  0  0
 24  9  1  0  0  0  0
 21 10  1  0  0  0  0
 20 12  1  0  0  0  0
 12 11  1  0  0  0  0
 19 14  1  0  0  0  0
 14 13  1  0  0  0  0
 23 15  2  0  0  0  0
 25 16  1  0  0  0  0
 17 16  1  0  0  0  0
 22 17  2  0  0  0  0
 18 17  1  0  0  0  0
 19 18  2  0  0  0  0
 20 19  1  0  0  0  0
 21 20  2  0  0  0  0
 22 21  1  0  0  0  0
 23 22  1  0  0  0  0
 24 23  1  0  0  0  0
 25 24  2  0  0  0  0
M  END
>  <cdx:fragmentId>
1817

$$$$
