301220.cdx
  Mrv1902 05222410222D          

 50 56  0  0  0  0            999 V2000
    7.8684   -7.1686    0.0000 C   0  0  0  0  0  0  0  0  0  0  0  0
    8.5829   -7.5811    0.0000 C   0  0  0  0  0  0  0  0  0  0  0  0
    8.5829   -8.4061    0.0000 C   0  0  0  0  0  0  0  0  0  0  0  0
    7.8684   -8.8186    0.0000 C   0  0  0  0  0  0  0  0  0  0  0  0
    7.1539   -8.4061    0.0000 C   0  0  0  0  0  0  0  0  0  0  0  0
    6.4395   -8.8186    0.0000 C   0  0  0  0  0  0  0  0  0  0  0  0
    5.7250   -8.4061    0.0000 C   0  0  0  0  0  0  0  0  0  0  0  0
    5.0105   -8.8186    0.0000 C   0  0  0  0  0  0  0  0  0  0  0  0
    4.2961   -8.4061    0.0000 C   0  0  0  0  0  0  0  0  0  0  0  0
    4.2961   -7.5811    0.0000 C   0  0  0  0  0  0  0  0  0  0  0  0
    5.0105   -7.1686    0.0000 C   0  0  0  0  0  0  0  0  0  0  0  0
    5.7250   -7.5811    0.0000 C   0  0  0  0  0  0  0  0  0  0  0  0
    6.4395   -7.1686    0.0000 C   0  0  0  0  0  0  0  0  0  0  0  0
    7.1539   -7.5811    0.0000 C   0  0  0  0  0  0  0  0  0  0  0  0
    6.4395   -6.3436    0.0000 O   0  0  0  0  0  0  0  0  0  0  0  0
    6.4395   -9.6436    0.0000 O   0  0  0  0  0  0  0  0  0  0  0  0
    3.5816   -8.8186    0.0000 C   0  0  0  0  0  0  0  0  0  0  0  0
    2.8671   -8.4061    0.0000 O   0  0  0  0  0  0  0  0  0  0  0  0
    5.0105   -6.3436    0.0000 O   0  0  0  0  0  0  0  0  0  0  0  0
    7.8684   -6.5499    0.0000 O   0  0  0  0  0  0  0  0  0  0  0  0
    9.5455   -5.7614    0.0000 C   0  0  0  0  0  0  0  0  0  0  0  0
   10.0758   -5.1294    0.0000 C   0  0  0  0  0  0  0  0  0  0  0  0
   10.8883   -5.2727    0.0000 C   0  0  0  0  0  0  0  0  0  0  0  0
   11.1704   -6.0479    0.0000 C   0  0  0  0  0  0  0  0  0  0  0  0
   10.6401   -6.6799    0.0000 C   0  0  0  0  0  0  0  0  0  0  0  0
   10.9223   -7.4551    0.0000 C   0  0  0  0  0  0  0  0  0  0  0  0
   10.3920   -8.0871    0.0000 C   0  0  0  0  0  0  0  0  0  0  0  0
   10.6742   -8.8624    0.0000 C   0  0  0  0  0  0  0  0  0  0  0  0
   10.1439   -9.4944    0.0000 C   0  0  0  0  0  0  0  0  0  0  0  0
    9.3314   -9.3511    0.0000 C   0  0  0  0  0  0  0  0  0  0  0  0
    9.0492   -8.5758    0.0000 C   0  0  0  0  0  0  0  0  0  0  0  0
    9.5795   -7.9439    0.0000 C   0  0  0  0  0  0  0  0  0  0  0  0
    9.2974   -7.1686    0.0000 C   0  0  0  0  0  0  0  0  0  0  0  0
    9.8277   -6.5366    0.0000 C   0  0  0  0  0  0  0  0  0  0  0  0
    8.5720   -5.1926    0.0000 O   0  0  0  0  0  0  0  0  0  0  0  0
    8.2898   -5.9678    0.0000 C   0  0  2  0  0  0  0  0  0  0  0  0
    7.4773   -6.1111    0.0000 C   0  0  1  0  0  0  0  0  0  0  0  0
    6.9470   -5.4791    0.0000 C   0  0  2  0  0  0  0  0  0  0  0  0
    7.2292   -4.7039    0.0000 C   0  0  1  0  0  0  0  0  0  0  0  0
    8.0417   -4.5606    0.0000 C   0  0  1  0  0  0  0  0  0  0  0  0
    8.3238   -3.7854    0.0000 C   0  0  0  0  0  0  0  0  0  0  0  0
    9.1363   -3.6421    0.0000 O   0  0  0  0  0  0  0  0  0  0  0  0
    6.6989   -4.0719    0.0000 O   0  0  0  0  0  0  0  0  0  0  0  0
    6.1346   -5.6224    0.0000 O   0  0  0  0  0  0  0  0  0  0  0  0
    7.1952   -6.8863    0.0000 O   0  0  0  0  0  0  0  0  0  0  0  0
   11.7348   -7.5984    0.0000 O   0  0  0  0  0  0  0  0  0  0  0  0
    9.7936   -4.3541    0.0000 C   0  0  0  0  0  0  0  0  0  0  0  0
   10.3239   -3.7222    0.0000 O   0  0  0  0  0  0  0  0  0  0  0  0
   11.4866   -9.0056    0.0000 O   0  0  0  0  0  0  0  0  0  0  0  0
   11.9829   -6.1912    0.0000 O   0  0  0  0  0  0  0  0  0  0  0  0
  1  2  1  0  0  0  0
  2  3  2  0  0  0  0
  3  4  1  0  0  0  0
  4  5  2  0  0  0  0
  5  6  1  0  0  0  0
  6  7  1  0  0  0  0
  7  8  1  0  0  0  0
  8  9  2  0  0  0  0
  9 10  1  0  0  0  0
 10 11  2  0  0  0  0
 11 12  1  0  0  0  0
  7 12  2  0  0  0  0
 12 13  1  0  0  0  0
 13 14  1  0  0  0  0
  5 14  1  0  0  0  0
  1 14  2  0  0  0  0
 13 15  2  0  0  0  0
  6 16  2  0  0  0  0
 17 18  1  0  0  0  0
  9 17  1  0  0  0  0
 11 19  1  0  0  0  0
  1 20  1  0  0  0  0
 21 22  1  0  0  0  0
 22 23  2  0  0  0  0
 23 24  1  0  0  0  0
 24 25  2  0  0  0  0
 25 26  1  0  0  0  0
 26 27  1  0  0  0  0
 27 28  1  0  0  0  0
 28 29  2  0  0  0  0
 29 30  1  0  0  0  0
 30 31  2  0  0  0  0
 31 32  1  0  0  0  0
 27 32  2  0  0  0  0
 32 33  1  0  0  0  0
 33 34  1  0  0  0  0
 25 34  1  0  0  0  0
 21 34  2  0  0  0  0
 36 35  1  1  0  0  0
 36 37  1  0  0  0  0
 37 38  1  0  0  0  0
 38 39  1  0  0  0  0
 39 40  1  0  0  0  0
 35 40  1  0  0  0  0
 41 42  1  0  0  0  0
 40 41  1  1  0  0  0
 39 43  1  6  0  0  0
 38 44  1  1  0  0  0
 37 45  1  6  0  0  0
 33 36  1  0  0  0  0
 26 46  2  0  0  0  0
 47 48  1  0  0  0  0
 22 47  1  0  0  0  0
 28 49  1  0  0  0  0
 24 50  1  0  0  0  0
  2 33  1  0  0  0  0
M  END
>  <cdx:groupId>
428

>  <cdx:fragmentId>
315

$$$$
