301253.cdx
  Mrv1902 05222410182D          

 24 27  0  0  0  0            999 V2000
    5.6633   -6.3376    0.0000 C   0  0  0  0  0  0  0  0  0  0  0  0
    4.9488   -6.7501    0.0000 C   0  0  0  0  0  0  0  0  0  0  0  0
    4.9488   -7.5751    0.0000 C   0  0  0  0  0  0  0  0  0  0  0  0
    5.6633   -7.9876    0.0000 C   0  0  0  0  0  0  0  0  0  0  0  0
    6.3777   -7.5751    0.0000 C   0  0  0  0  0  0  0  0  0  0  0  0
    7.0922   -7.9876    0.0000 C   0  0  0  0  0  0  0  0  0  0  0  0
    7.8067   -7.5751    0.0000 C   0  0  0  0  0  0  0  0  0  0  0  0
    7.8067   -6.7501    0.0000 C   0  0  1  0  0  0  0  0  0  0  0  0
    8.5211   -6.3376    0.0000 C   0  0  2  0  0  0  0  0  0  0  0  0
    9.3058   -6.5926    0.0000 C   0  0  0  0  0  0  0  0  0  0  0  0
    9.7907   -5.9251    0.0000 C   0  0  2  0  0  0  0  0  0  0  0  0
    9.3058   -5.2577    0.0000 C   0  0  1  0  0  0  0  0  0  0  0  0
    8.5211   -5.5126    0.0000 C   0  0  1  0  0  0  0  0  0  0  0  0
    7.8067   -5.1001    0.0000 C   0  0  0  0  0  0  0  0  0  0  0  0
    7.0922   -5.5126    0.0000 C   0  0  0  0  0  0  0  0  0  0  0  0
    7.0922   -6.3376    0.0000 C   0  0  2  0  0  0  0  0  0  0  0  0
    6.3777   -6.7501    0.0000 C   0  0  0  0  0  0  0  0  0  0  0  0
    4.2343   -7.9876    0.0000 O   0  0  0  0  0  0  0  0  0  0  0  0
   10.6157   -5.9251    0.0000 O   0  0  0  0  0  0  0  0  0  0  0  0
    9.5607   -4.4731    0.0000 O   0  0  0  0  0  0  0  0  0  0  0  0
    8.6074   -4.6922    0.0000 C   0  0  0  0  0  0  0  0  0  0  0  0
    7.8067   -5.9251    0.0000 H   0  0  0  0  0  0  0  0  0  0  0  0
    7.0922   -7.1626    0.0000 H   0  0  0  0  0  0  0  0  0  0  0  0
    8.5211   -7.1626    0.0000 H   0  0  0  0  0  0  0  0  0  0  0  0
  1  2  1  0  0  0  0
  2  3  2  0  0  0  0
  3  4  1  0  0  0  0
  4  5  2  0  0  0  0
  5  6  1  0  0  0  0
  6  7  1  0  0  0  0
  7  8  1  0  0  0  0
  8  9  1  0  0  0  0
  9 10  1  0  0  0  0
 10 11  1  0  0  0  0
 11 12  1  0  0  0  0
 12 13  1  0  0  0  0
  9 13  1  0  0  0  0
 13 14  1  0  0  0  0
 14 15  1  0  0  0  0
 15 16  1  0  0  0  0
  8 16  1  0  0  0  0
 16 17  1  0  0  0  0
  5 17  1  0  0  0  0
  1 17  2  0  0  0  0
  3 18  1  0  0  0  0
 11 19  1  6  0  0  0
 12 20  1  1  0  0  0
 13 21  1  1  0  0  0
  8 22  1  1  0  0  0
 16 23  1  6  0  0  0
  9 24  1  6  0  0  0
M  END
>  <cdx:groupId>
77

>  <cdx:fragmentId>
5

$$$$
