30129.cdx
  Mrv1902 05222410262D          

 22 24  0  0  0  0            999 V2000
   10.6132   -4.9220    0.0000 O   0  0  0  0  0  0  0  0  0  0  0  0
    5.6165   -5.3859    0.0000 O   0  0  0  0  0  0  0  0  0  0  0  0
    4.1961   -6.2255    0.0000 O   0  0  0  0  0  0  0  0  0  0  0  0
    4.2130   -7.8754    0.0000 O   0  0  0  0  0  0  0  0  0  0  0  0
    5.6504   -8.6857    0.0000 O   0  0  0  0  0  0  0  0  0  0  0  0
    9.9115   -6.1668    0.0000 C   0  0  0  0  0  0  0  0  0  0  0  0
    9.9031   -5.3418    0.0000 C   0  0  0  0  0  0  0  0  0  0  0  0
    9.1844   -4.9367    0.0000 C   0  0  0  0  0  0  0  0  0  0  0  0
    8.4742   -5.3565    0.0000 C   0  0  0  0  0  0  0  0  0  0  0  0
    8.4996   -7.8314    0.0000 O   0  0  0  0  0  0  0  0  0  0  0  0
    9.2013   -6.5866    0.0000 C   0  0  0  0  0  0  0  0  0  0  0  0
    8.4827   -6.1815    0.0000 C   0  0  0  0  0  0  0  0  0  0  0  0
    7.0708   -7.8461    0.0000 C   0  0  0  0  0  0  0  0  0  0  0  0
    7.7809   -7.4262    0.0000 C   0  0  0  0  0  0  0  0  0  0  0  0
    7.7725   -6.6013    0.0000 C   0  0  0  0  0  0  0  0  0  0  0  0
    7.0538   -6.1961    0.0000 O   0  0  0  0  0  0  0  0  0  0  0  0
    5.6419   -7.8607    0.0000 C   0  0  0  0  0  0  0  0  0  0  0  0
    6.3521   -7.4409    0.0000 C   0  0  0  0  0  0  0  0  0  0  0  0
    6.3436   -6.6160    0.0000 C   0  0  0  0  0  0  0  0  0  0  0  0
    5.6249   -6.2108    0.0000 C   0  0  0  0  0  0  0  0  0  0  0  0
    4.9147   -6.6307    0.0000 C   0  0  0  0  0  0  0  0  0  0  0  0
    4.9232   -7.4556    0.0000 C   0  0  0  0  0  0  0  0  0  0  0  0
  7  1  1  0  0  0  0
 20  2  1  0  0  0  0
 21  3  1  0  0  0  0
 22  4  1  0  0  0  0
 17  5  1  0  0  0  0
  6 11  1  0  0  0  0
  7  6  2  0  0  0  0
  8  7  1  0  0  0  0
  9  8  2  0  0  0  0
 12  9  1  0  0  0  0
 10 14  1  0  0  0  0
 12 11  2  0  0  0  0
 15 12  1  0  0  0  0
 13 18  1  0  0  0  0
 14 13  1  0  0  0  0
 15 14  1  0  0  0  0
 16 15  1  0  0  0  0
 19 16  1  0  0  0  0
 17 22  1  0  0  0  0
 18 17  2  0  0  0  0
 19 18  1  0  0  0  0
 20 19  2  0  0  0  0
 21 20  1  0  0  0  0
 22 21  2  0  0  0  0
M  END
>  <cdx:fragmentId>
5

$$$$
