301268.cdx
  Mrv1902 05222410192D          

 20 19  0  0  0  0            999 V2000
    1.8745   -8.0041    0.0000 C   0  0  0  0  0  0  0  0  0  0  0  0
    2.5890   -8.4166    0.0000 C   0  0  0  0  0  0  0  0  0  0  0  0
    3.3034   -8.0041    0.0000 O   0  0  0  0  0  0  0  0  0  0  0  0
    4.0179   -9.2416    0.0000 O   0  0  0  0  0  0  0  0  0  0  0  0
    9.7337   -8.4166    0.0000 C   0  0  0  0  0  0  0  0  0  0  0  0
    9.0192   -8.0041    0.0000 C   0  0  0  0  0  0  0  0  0  0  0  0
    8.3047   -8.4166    0.0000 C   0  0  0  0  0  0  0  0  0  0  0  0
    7.5903   -8.0041    0.0000 C   0  0  0  0  0  0  0  0  0  0  0  0
    6.8758   -8.4166    0.0000 C   0  0  0  0  0  0  0  0  0  0  0  0
    6.1613   -8.0041    0.0000 C   0  0  0  0  0  0  0  0  0  0  0  0
    5.4469   -8.4166    0.0000 C   0  0  0  0  0  0  0  0  0  0  0  0
    4.7324   -8.0041    0.0000 C   0  0  0  0  0  0  0  0  0  0  0  0
    4.0179   -8.4166    0.0000 C   0  0  0  0  0  0  0  0  0  0  0  0
   10.4481   -8.0041    0.0000 C   0  0  0  0  0  0  0  0  0  0  0  0
   10.4481   -7.1791    0.0000 C   0  0  0  0  0  0  0  0  0  0  0  0
   11.1626   -6.7666    0.0000 C   0  0  0  0  0  0  0  0  0  0  0  0
   11.1626   -5.9416    0.0000 C   0  0  0  0  0  0  0  0  0  0  0  0
   11.8771   -5.5291    0.0000 C   0  0  0  0  0  0  0  0  0  0  0  0
   11.8771   -4.7041    0.0000 C   0  0  0  0  0  0  0  0  0  0  0  0
   12.5916   -4.2916    0.0000 C   0  0  0  0  0  0  0  0  0  0  0  0
  3  2  1  0  0  0  0
  2  1  1  0  0  0  0
 13  3  1  0  0  0  0
 13  4  2  0  0  0  0
  6  5  1  0  0  0  0
  7  6  1  0  0  0  0
  8  7  1  0  0  0  0
  9  8  1  0  0  0  0
 10  9  1  0  0  0  0
 11 10  1  0  0  0  0
 12 11  1  0  0  0  0
 13 12  1  0  0  0  0
  5 14  2  0  0  0  0
 14 15  1  0  0  0  0
 15 16  1  0  0  0  0
 16 17  1  0  0  0  0
 17 18  1  0  0  0  0
 18 19  1  0  0  0  0
 19 20  1  0  0  0  0
M  END
>  <cdx:fragmentId>
689

$$$$
