301299.cdx
  Mrv1902 05222410262D          

 14 15  0  0  0  0            999 V2000
    6.7105   -5.8179    0.0000 C   0  0  0  0  0  0  0  0  0  0  0  0
    5.9961   -6.2304    0.0000 C   0  0  0  0  0  0  0  0  0  0  0  0
    5.9961   -7.0554    0.0000 C   0  0  0  0  0  0  0  0  0  0  0  0
    6.7105   -7.4679    0.0000 C   0  0  0  0  0  0  0  0  0  0  0  0
    7.4250   -7.0554    0.0000 C   0  0  0  0  0  0  0  0  0  0  0  0
    8.1395   -7.4679    0.0000 C   0  0  0  0  0  0  0  0  0  0  0  0
    8.8539   -7.0554    0.0000 C   0  0  1  0  0  0  0  0  0  0  0  0
    8.8539   -6.2304    0.0000 C   0  0  0  0  0  0  0  0  0  0  0  0
    8.1395   -5.8179    0.0000 C   0  0  2  0  0  0  0  0  0  0  0  0
    7.4250   -6.2304    0.0000 C   0  0  0  0  0  0  0  0  0  0  0  0
    6.7105   -4.9929    0.0000 O   0  0  0  0  0  0  0  0  0  0  0  0
    5.2816   -7.4679    0.0000 O   0  0  0  0  0  0  0  0  0  0  0  0
    9.5684   -7.4679    0.0000 O   0  0  0  0  0  0  0  0  0  0  0  0
    8.1395   -4.9929    0.0000 C   0  0  0  0  0  0  0  0  0  0  0  0
  1  2  1  0  0  0  0
  2  3  2  0  0  0  0
  3  4  1  0  0  0  0
  4  5  2  0  0  0  0
  5  6  1  0  0  0  0
  6  7  1  0  0  0  0
  7  8  1  0  0  0  0
  8  9  1  0  0  0  0
  9 10  1  0  0  0  0
  1 10  2  0  0  0  0
  5 10  1  0  0  0  0
  1 11  1  0  0  0  0
  3 12  1  0  0  0  0
  7 13  1  1  0  0  0
  9 14  1  6  0  0  0
M  END
>  <cdx:groupId>
45

>  <cdx:fragmentId>
5

$$$$
