301239.cdx
  Mrv1902 05222410242D          

 45 51  0  0  0  0            999 V2000
    5.2384   -7.7622    0.0000 C   0  0  0  0  0  0  0  0  0  0  0  0
    5.9529   -8.1747    0.0000 C   0  0  0  0  0  0  0  0  0  0  0  0
    5.9529   -8.9997    0.0000 C   0  0  0  0  0  0  0  0  0  0  0  0
    5.2379   -9.4113    0.0000 C   0  0  0  0  0  0  0  0  0  0  0  0
    5.2381  -10.2363    0.0000 C   0  0  0  0  0  0  0  0  0  0  0  0
    5.9525  -10.6490    0.0000 C   0  0  0  0  0  0  0  0  0  0  0  0
    6.6673  -10.2372    0.0000 C   0  0  0  0  0  0  0  0  0  0  0  0
    7.3818  -10.6497    0.0000 O   0  0  0  0  0  0  0  0  0  0  0  0
    8.0963  -10.2372    0.0000 C   0  0  0  0  0  0  0  0  0  0  0  0
    8.0976   -9.4122    0.0000 C   0  0  0  0  0  0  0  0  0  0  0  0
    8.8121   -8.9997    0.0000 C   0  0  0  0  0  0  0  0  0  0  0  0
    9.5252   -9.4122    0.0000 C   0  0  0  0  0  0  0  0  0  0  0  0
   10.2397   -8.9997    0.0000 C   0  0  0  0  0  0  0  0  0  0  0  0
   10.2397   -8.1747    0.0000 C   0  0  0  0  0  0  0  0  0  0  0  0
   10.9547   -7.7632    0.0000 N   0  0  0  0  0  0  0  0  0  0  0  0
   10.9544   -6.9382    0.0000 C   0  0  0  0  0  0  0  0  0  0  0  0
   10.2401   -6.5254    0.0000 C   0  0  0  0  0  0  0  0  0  0  0  0
    9.5252   -6.9372    0.0000 C   0  0  0  0  0  0  0  0  0  0  0  0
    8.8107   -6.5247    0.0000 C   0  0  0  0  0  0  0  0  0  0  0  0
    8.0963   -6.9372    0.0000 C   0  0  0  0  0  0  0  0  0  0  0  0
    8.0963   -7.7622    0.0000 C   0  0  0  0  0  0  0  0  0  0  0  0
    8.8107   -8.1747    0.0000 C   0  0  0  0  0  0  0  0  0  0  0  0
    8.3982   -8.8892    0.0000 O   0  0  0  0  0  0  0  0  0  0  0  0
    5.9529   -5.6997    0.0000 C   0  0  0  0  0  0  0  0  0  0  0  0
    5.2397   -5.2872    0.0000 C   0  0  0  0  0  0  0  0  0  0  0  0
    4.5253   -5.6997    0.0000 C   0  0  0  0  0  0  0  0  0  0  0  0
    4.5239   -6.5247    0.0000 C   0  0  0  0  0  0  0  0  0  0  0  0
    3.8095   -6.9372    0.0000 C   0  0  0  0  0  0  0  0  0  0  0  0
    3.8095   -7.7622    0.0000 C   0  0  0  0  0  0  0  0  0  0  0  0
    4.5239   -8.1747    0.0000 N   0  0  0  0  0  0  0  0  0  0  0  0
    5.2384   -6.9372    0.0000 C   0  0  0  0  0  0  0  0  0  0  0  0
    5.9529   -6.5247    0.0000 C   0  0  0  0  0  0  0  0  0  0  0  0
    9.5252   -7.7622    0.0000 C   0  0  0  0  0  0  0  0  0  0  0  0
    9.5252  -10.2372    0.0000 C   0  0  0  0  0  0  0  0  0  0  0  0
    8.8107  -10.6497    0.0000 C   0  0  0  0  0  0  0  0  0  0  0  0
    6.6673   -9.4122    0.0000 C   0  0  0  0  0  0  0  0  0  0  0  0
    4.5239   -8.9997    0.0000 C   0  0  0  0  0  0  0  0  0  0  0  0
    5.2397   -4.4622    0.0000 O   0  0  0  0  0  0  0  0  0  0  0  0
    4.5253   -4.0497    0.0000 C   0  0  0  0  0  0  0  0  0  0  0  0
    7.3818   -8.1747    0.0000 O   0  0  0  0  0  0  0  0  0  0  0  0
    6.6673   -7.7622    0.0000 C   0  0  0  0  0  0  0  0  0  0  0  0
    7.3818   -6.5247    0.0000 O   0  0  0  0  0  0  0  0  0  0  0  0
    7.3818   -5.6997    0.0000 C   0  0  0  0  0  0  0  0  0  0  0  0
    5.9525  -11.4740    0.0000 O   0  0  0  0  0  0  0  0  0  0  0  0
    5.2380  -11.8865    0.0000 C   0  0  0  0  0  0  0  0  0  0  0  0
  1  2  1  0  0  0  0
  2  3  1  0  0  0  0
  3  4  1  0  0  0  0
  4  5  2  0  0  0  0
  5  6  1  0  0  0  0
  6  7  2  0  0  0  0
  7  8  1  0  0  0  0
  8  9  1  0  0  0  0
  9 10  1  0  0  0  0
 10 11  2  0  0  0  0
 11 12  1  0  0  0  0
 12 13  1  0  0  0  0
 13 14  1  0  0  0  0
 14 15  2  0  0  0  0
 15 16  1  0  0  0  0
 16 17  1  0  0  0  0
 17 18  1  0  0  0  0
 18 19  2  0  0  0  0
 19 20  1  0  0  0  0
 20 21  2  0  0  0  0
 21 22  1  0  0  0  0
 22 23  1  0  0  0  0
 23 24  1  0  0  0  0
 24 25  2  0  0  0  0
 25 26  1  0  0  0  0
 26 27  2  0  0  0  0
 27 28  1  0  0  0  0
 28 29  1  0  0  0  0
 29 30  1  0  0  0  0
 31 32  2  0  0  0  0
 34 35  1  0  0  0  0
  1 30  1  0  0  0  0
  1 31  1  0  0  0  0
 32 24  1  0  0  0  0
 27 31  1  0  0  0  0
 18 33  1  0  0  0  0
 33 14  1  0  0  0  0
 12 34  2  0  0  0  0
 35  9  2  0  0  0  0
  7 36  1  0  0  0  0
 36  3  2  0  0  0  0
 22 33  2  0  0  0  0
 30 37  1  0  0  0  0
 38 39  1  0  0  0  0
 25 38  1  0  0  0  0
 40 41  1  0  0  0  0
 21 40  1  0  0  0  0
 42 43  1  0  0  0  0
 20 42  1  0  0  0  0
 44 45  1  0  0  0  0
  6 44  1  0  0  0  0
M  END
>  <cdx:groupId>
2541

>  <cdx:fragmentId>
2403

$$$$
