301249.cdx
  Mrv1902 05222410272D          

 24 26  0  0  0  0            999 V2000
    7.6846   -8.1109    0.0000 C   0  0  0  0  0  0  0  0  0  0  0  0
    8.3990   -8.5234    0.0000 C   0  0  0  0  0  0  0  0  0  0  0  0
    4.1122   -9.3484    0.0000 C   0  0  0  0  0  0  0  0  0  0  0  0
    4.1122   -8.5234    0.0000 C   0  0  0  0  0  0  0  0  0  0  0  0
    4.8267   -8.1109    0.0000 C   0  0  0  0  0  0  0  0  0  0  0  0
    5.5412   -8.5234    0.0000 C   0  0  0  0  0  0  0  0  0  0  0  0
    6.2556   -8.1109    0.0000 C   0  0  0  0  0  0  0  0  0  0  0  0
    6.9701   -8.5234    0.0000 C   0  0  0  0  0  0  0  0  0  0  0  0
    6.9701   -9.3484    0.0000 C   0  0  0  0  0  0  0  0  0  0  0  0
    6.2556   -9.7609    0.0000 C   0  0  0  0  0  0  0  0  0  0  0  0
    5.5412   -9.3484    0.0000 C   0  0  0  0  0  0  0  0  0  0  0  0
    4.8267   -9.7609    0.0000 O   0  0  0  0  0  0  0  0  0  0  0  0
    3.6997  -10.0629    0.0000 C   0  0  0  0  0  0  0  0  0  0  0  0
    3.2872   -9.3484    0.0000 C   0  0  0  0  0  0  0  0  0  0  0  0
    6.2556   -7.2859    0.0000 O   0  0  0  0  0  0  0  0  0  0  0  0
    9.1135   -8.1109    0.0000 C   0  0  0  0  0  0  0  0  0  0  0  0
    9.1135   -7.2859    0.0000 C   0  0  0  0  0  0  0  0  0  0  0  0
    9.8280   -6.8734    0.0000 C   0  0  0  0  0  0  0  0  0  0  0  0
   10.5425   -7.2859    0.0000 C   0  0  0  0  0  0  0  0  0  0  0  0
   10.5425   -8.1109    0.0000 C   0  0  0  0  0  0  0  0  0  0  0  0
    9.8280   -8.5234    0.0000 C   0  0  0  0  0  0  0  0  0  0  0  0
   11.2569   -6.8734    0.0000 O   0  0  0  0  0  0  0  0  0  0  0  0
    8.3990   -6.8734    0.0000 O   0  0  0  0  0  0  0  0  0  0  0  0
    7.6846   -7.2859    0.0000 O   0  0  0  0  0  0  0  0  0  0  0  0
  1  2  1  0  0  0  0
  3  4  1  0  0  0  0
  4  5  2  0  0  0  0
  5  6  1  0  0  0  0
  6  7  1  0  0  0  0
  7  8  2  0  0  0  0
  8  9  1  0  0  0  0
  9 10  2  0  0  0  0
 10 11  1  0  0  0  0
  6 11  2  0  0  0  0
 11 12  1  0  0  0  0
  3 12  1  0  0  0  0
  3 13  1  0  0  0  0
  3 14  1  0  0  0  0
  7 15  1  0  0  0  0
  1  8  1  0  0  0  0
 16 17  1  0  0  0  0
 17 18  2  0  0  0  0
 18 19  1  0  0  0  0
 19 20  2  0  0  0  0
 20 21  1  0  0  0  0
 16 21  2  0  0  0  0
 19 22  1  0  0  0  0
 17 23  1  0  0  0  0
  2 16  1  0  0  0  0
  1 24  2  0  0  0  0
M  END
>  <cdx:groupId>
3474

>  <cdx:fragmentId>
3407

$$$$
