301206.cdx
  Mrv1902 05222410242D          

 15 16  0  0  0  0            999 V2000
    8.5102   -8.4761    0.0000 O   0  0  0  0  0  0  0  0  0  0  0  0
    8.0253   -9.1436    0.0000 C   0  0  0  0  0  0  0  0  0  0  0  0
    7.2407   -8.8886    0.0000 C   0  0  0  0  0  0  0  0  0  0  0  0
    7.2407   -8.0636    0.0000 C   0  0  0  0  0  0  0  0  0  0  0  0
    8.0253   -7.8087    0.0000 C   0  0  0  0  0  0  0  0  0  0  0  0
    6.5262   -7.6511    0.0000 C   0  0  0  0  0  0  0  0  0  0  0  0
    5.8118   -8.0636    0.0000 C   0  0  0  0  0  0  0  0  0  0  0  0
    5.8118   -8.8886    0.0000 C   0  0  0  0  0  0  0  0  0  0  0  0
    6.5262   -9.3011    0.0000 C   0  0  0  0  0  0  0  0  0  0  0  0
    8.2803   -9.9282    0.0000 O   0  0  0  0  0  0  0  0  0  0  0  0
    6.9213   -6.5825    0.0000 O   0  0  0  0  0  0  0  0  0  0  0  0
    7.4311   -5.0133    0.0000 C   0  0  0  0  0  0  0  0  0  0  0  0
    7.9832   -5.6264    0.0000 C   0  0  0  0  0  0  0  0  0  0  0  0
    7.7282   -6.4110    0.0000 C   0  0  0  0  0  0  0  0  0  0  0  0
    8.2803   -7.0241    0.0000 C   0  0  0  0  0  0  0  0  0  0  0  0
 14 11  1  0  0  0  0
 13 12  1  0  0  0  0
 14 13  1  0  0  0  0
 15 14  1  0  0  0  0
  1  2  1  0  0  0  0
  2  3  1  0  0  0  0
  3  4  1  0  0  0  0
  4  5  1  0  0  0  0
  1  5  1  0  0  0  0
  6  7  1  0  0  0  0
  7  8  2  0  0  0  0
  8  9  1  0  0  0  0
  9  3  2  0  0  0  0
  6  4  2  0  0  0  0
  2 10  2  0  0  0  0
  5 15  2  0  0  0  0
M  END
>  <cdx:fragmentId>
5

$$$$
