301275.cdx
  Mrv1902 05222410272D          

 33 35  0  0  0  0            999 V2000
    4.3790   -6.0335    0.0000 O   0  0  0  0  0  0  0  0  0  0  0  0
    3.6715   -5.6092    0.0000 C   0  0  2  0  0  0  0  0  0  0  0  0
    2.9503   -6.0098    0.0000 C   0  0  1  0  0  0  0  0  0  0  0  0
    2.9366   -6.8347    0.0000 C   0  0  2  0  0  0  0  0  0  0  0  0
    3.6442   -7.2590    0.0000 C   0  0  2  0  0  0  0  0  0  0  0  0
    4.3654   -6.8583    0.0000 C   0  0  2  0  0  0  0  0  0  0  0  0
    2.2427   -5.5855    0.0000 O   0  0  0  0  0  0  0  0  0  0  0  0
    2.2154   -7.2353    0.0000 O   0  0  0  0  0  0  0  0  0  0  0  0
    3.6305   -8.0838    0.0000 O   0  0  0  0  0  0  0  0  0  0  0  0
    5.0729   -7.2826    0.0000 O   0  0  0  0  0  0  0  0  0  0  0  0
    3.6852   -4.7843    0.0000 C   0  0  0  0  0  0  0  0  0  0  0  0
    5.7822   -8.5231    0.0000 O   0  0  0  0  0  0  0  0  0  0  0  0
    7.2077   -9.3540    0.0000 O   0  0  0  0  0  0  0  0  0  0  0  0
    8.6401   -8.5350    0.0000 O   0  0  0  0  0  0  0  0  0  0  0  0
   10.7955   -5.6564    0.0000 C   0  0  0  0  0  0  0  0  0  0  0  0
   10.0793   -6.0660    0.0000 O   0  0  0  0  0  0  0  0  0  0  0  0
   12.9269   -8.5528    0.0000 C   0  0  0  0  0  0  0  0  0  0  0  0
   12.2141   -8.1374    0.0000 C   0  0  0  0  0  0  0  0  0  0  0  0
   11.4980   -8.5469    0.0000 C   0  0  0  0  0  0  0  0  0  0  0  0
    9.3563   -8.1255    0.0000 C   0  0  0  0  0  0  0  0  0  0  0  0
   10.0690   -8.5409    0.0000 C   0  0  0  0  0  0  0  0  0  0  0  0
   10.7852   -8.1314    0.0000 C   0  0  0  0  0  0  0  0  0  0  0  0
   10.7886   -7.3064    0.0000 C   0  0  0  0  0  0  0  0  0  0  0  0
   10.0759   -6.8910    0.0000 C   0  0  0  0  0  0  0  0  0  0  0  0
    9.3597   -7.3005    0.0000 C   0  0  0  0  0  0  0  0  0  0  0  0
    8.6470   -6.8850    0.0000 O   0  0  0  0  0  0  0  0  0  0  0  0
    7.9308   -7.2945    0.0000 C   0  0  1  0  0  0  0  0  0  0  0  0
    7.9273   -8.1195    0.0000 C   0  0  1  0  0  0  0  0  0  0  0  0
    7.2112   -8.5290    0.0000 C   0  0  2  0  0  0  0  0  0  0  0  0
    6.4984   -8.1136    0.0000 C   0  0  1  0  0  0  0  0  0  0  0  0
    6.5019   -7.2886    0.0000 C   0  0  2  0  0  0  0  0  0  0  0  0
    7.2180   -6.8791    0.0000 O   0  0  0  0  0  0  0  0  0  0  0  0
    5.7891   -6.8731    0.0000 C   0  0  0  0  0  0  0  0  0  0  0  0
 31 33  1  1  0  0  0
 30 12  1  6  0  0  0
 29 13  1  1  0  0  0
 28 14  1  6  0  0  0
 27 26  1  1  0  0  0
 24 16  1  0  0  0  0
 16 15  1  0  0  0  0
 22 19  1  0  0  0  0
 18 17  2  0  0  0  0
 19 18  1  0  0  0  0
 26 25  1  0  0  0  0
 25 20  2  0  0  0  0
 21 20  1  0  0  0  0
 22 21  2  0  0  0  0
 23 22  1  0  0  0  0
 24 23  2  0  0  0  0
 25 24  1  0  0  0  0
 32 27  1  0  0  0  0
 28 27  1  0  0  0  0
 29 28  1  0  0  0  0
 30 29  1  0  0  0  0
 31 30  1  0  0  0  0
 32 31  1  0  0  0  0
 10 33  1  0  0  0  0
  1  2  1  0  0  0  0
  2  3  1  0  0  0  0
  3  4  1  0  0  0  0
  4  5  1  0  0  0  0
  5  6  1  0  0  0  0
  1  6  1  0  0  0  0
  3  7  1  1  0  0  0
  4  8  1  6  0  0  0
  5  9  1  6  0  0  0
  6 10  1  1  0  0  0
  2 11  1  6  0  0  0
M  END
>  <cdx:fragmentId>
1126

$$$$
