301284.cdx
  Mrv1902 05222410182D          

 43 46  0  0  0  0            999 V2000
    4.7296  -10.1430    0.0000 C   0  0  0  0  0  0  0  0  0  0  0  0
    4.4750  -10.9277    0.0000 C   0  0  0  0  0  0  0  0  0  0  0  0
    4.1773   -9.5302    0.0000 O   0  0  0  0  0  0  0  0  0  0  0  0
    5.5365   -9.9711    0.0000 O   0  0  0  0  0  0  0  0  0  0  0  0
    6.5752   -8.1060    0.0000 C   0  0  2  0  0  0  0  0  0  0  0  0
    7.1582   -7.5224    0.0000 C   0  0  0  0  0  0  0  0  0  0  0  0
    7.9832   -7.5220    0.0000 C   0  0  0  0  0  0  0  0  0  0  0  0
    8.5669   -8.1051    0.0000 C   0  0  0  0  0  0  0  0  0  0  0  0
    9.3514   -7.8498    0.0000 C   0  0  1  0  0  0  0  0  0  0  0  0
   10.1718   -7.7632    0.0000 C   0  0  0  0  0  0  0  0  0  0  0  0
    9.8366   -8.5170    0.0000 C   0  0  1  0  0  0  0  0  0  0  0  0
    9.3520   -9.1847    0.0000 C   0  0  0  0  0  0  0  0  0  0  0  0
    8.5673   -8.9301    0.0000 C   0  0  0  0  0  0  0  0  0  0  0  0
    7.9842   -9.5137    0.0000 C   0  0  0  0  0  0  0  0  0  0  0  0
    7.1592   -9.5141    0.0000 C   0  0  0  0  0  0  0  0  0  0  0  0
    6.5755   -8.9310    0.0000 C   0  0  1  0  0  0  0  0  0  0  0  0
    5.7910   -9.1863    0.0000 C   0  0  2  0  0  0  0  0  0  0  0  0
    5.3058   -8.5191    0.0000 C   0  0  2  0  0  0  0  0  0  0  0  0
    5.7904   -7.8515    0.0000 C   0  0  0  0  0  0  0  0  0  0  0  0
    6.8422   -6.7603    0.0000 O   0  0  0  0  0  0  0  0  0  0  0  0
    4.4808   -8.5195    0.0000 C   0  0  0  0  0  0  0  0  0  0  0  0
   10.5070   -7.0093    0.0000 C   0  0  0  0  0  0  0  0  0  0  0  0
   10.9923   -7.6765    0.0000 C   0  0  0  0  0  0  0  0  0  0  0  0
    8.2986   -6.7597    0.0000 C   0  0  0  0  0  0  0  0  0  0  0  0
    6.3822   -7.3039    0.0000 O   0  0  0  0  0  0  0  0  0  0  0  0
    5.5910   -7.0700    0.0000 C   0  0  0  0  0  0  0  0  0  0  0  0
    5.3981   -6.2679    0.0000 O   0  0  0  0  0  0  0  0  0  0  0  0
    5.0080   -7.6536    0.0000 C   0  0  0  0  0  0  0  0  0  0  0  0
    9.1795   -7.0429    0.0000 H   0  0  0  0  0  0  0  0  0  0  0  0
   10.5513   -8.9292    0.0000 H   0  0  0  0  0  0  0  0  0  0  0  0
    6.3833   -9.7333    0.0000 H   0  0  0  0  0  0  0  0  0  0  0  0
    3.6681  -11.0996    0.0000 C   0  0  0  0  0  0  0  0  0  0  0  0
    3.4135  -11.8844    0.0000 C   0  0  0  0  0  0  0  0  0  0  0  0
    2.6067  -12.0563    0.0000 C   0  0  0  0  0  0  0  0  0  0  0  0
    2.3521  -12.8410    0.0000 C   0  0  0  0  0  0  0  0  0  0  0  0
    2.9044  -13.4539    0.0000 C   0  0  0  0  0  0  0  0  0  0  0  0
    3.7113  -13.2820    0.0000 C   0  0  0  0  0  0  0  0  0  0  0  0
    3.9659  -12.4972    0.0000 C   0  0  0  0  0  0  0  0  0  0  0  0
    8.3003  -10.2758    0.0000 C   0  0  0  0  0  0  0  0  0  0  0  0
    7.7983  -10.9305    0.0000 O   0  0  0  0  0  0  0  0  0  0  0  0
    8.1144  -11.6926    0.0000 C   0  0  0  0  0  0  0  0  0  0  0  0
    7.6125  -12.3473    0.0000 O   0  0  0  0  0  0  0  0  0  0  0  0
    8.9324  -11.7999    0.0000 C   0  0  0  0  0  0  0  0  0  0  0  0
  1  2  1  0  0  0  0
  1  3  2  0  0  0  0
  1  4  1  0  0  0  0
  5  6  1  0  0  0  0
  6  7  1  0  0  0  0
  7  8  2  0  0  0  0
  8  9  1  0  0  0  0
  9 10  1  0  0  0  0
 10 11  1  0  0  0  0
 11 12  1  0  0  0  0
 12 13  1  0  0  0  0
 13 14  1  0  0  0  0
 14 15  2  0  0  0  0
 15 16  1  0  0  0  0
 16 17  1  0  0  0  0
 17 18  1  0  0  0  0
 18 19  1  0  0  0  0
  5 19  1  0  0  0  0
  5 16  1  0  0  0  0
  9 11  1  0  0  0  0
  6 20  2  0  0  0  0
 18 21  1  1  0  0  0
 10 22  1  0  0  0  0
 10 23  1  0  0  0  0
  7 24  1  0  0  0  0
 26 27  2  0  0  0  0
 26 28  1  0  0  0  0
 25 26  1  0  0  0  0
  5 25  1  1  0  0  0
 17  4  1  1  0  0  0
  9 29  1  6  0  0  0
 11 30  1  6  0  0  0
 16 31  1  6  0  0  0
  2 32  2  0  0  0  0
 32 33  1  0  0  0  0
 33 34  2  0  0  0  0
 34 35  1  0  0  0  0
 35 36  2  0  0  0  0
 36 37  1  0  0  0  0
 37 38  2  0  0  0  0
 38 33  1  0  0  0  0
 14 39  1  0  0  0  0
 39 40  1  0  0  0  0
 40 41  1  0  0  0  0
 41 42  2  0  0  0  0
 41 43  1  0  0  0  0
M  END
>  <cdx:fragmentId>
23

$$$$
