301209.cdx
  Mrv1902 05222410232D          

 27 31  0  0  0  0            999 V2000
    6.4748   -5.1388    0.0000 O   0  0  0  0  0  0  0  0  0  0  0  0
   10.0379   -5.1982    0.0000 C   0  0  0  0  0  0  0  0  0  0  0  0
    6.4685   -5.9638    0.0000 C   0  0  0  0  0  0  0  0  0  0  0  0
    6.1452   -8.7384    0.0000 C   0  0  0  0  0  0  0  0  0  0  0  0
    5.3202   -8.7321    0.0000 C   0  0  0  0  0  0  0  0  0  0  0  0
    9.3205   -3.5529    0.0000 O   0  0  0  0  0  0  0  0  0  0  0  0
    7.8847   -7.6247    0.0000 C   0  0  0  0  0  0  0  0  0  0  0  0
    7.1671   -8.0317    0.0000 C   0  0  0  0  0  0  0  0  0  0  0  0
    6.4558   -7.6138    0.0000 C   0  0  2  0  0  0  0  0  0  0  0  0
    5.7382   -8.0208    0.0000 C   0  0  0  0  0  0  0  0  0  0  0  0
    5.0269   -7.6028    0.0000 C   0  0  0  0  0  0  0  0  0  0  0  0
    5.0332   -6.7778    0.0000 C   0  0  0  0  0  0  0  0  0  0  0  0
    5.7508   -6.3708    0.0000 C   0  0  0  0  0  0  0  0  0  0  0  0
    6.4621   -6.7888    0.0000 C   0  0  2  0  0  0  0  0  0  0  0  0
    7.1797   -6.3818    0.0000 C   0  0  2  0  0  0  0  0  0  0  0  0
    7.1861   -5.5568    0.0000 C   0  0  1  0  0  0  0  0  0  0  0  0
    7.9037   -5.1498    0.0000 C   0  0  2  0  0  0  0  0  0  0  0  0
    8.0814   -4.3442    0.0000 O   0  0  0  0  0  0  0  0  0  0  0  0
    8.9025   -4.2642    0.0000 C   0  0  0  0  0  0  0  0  0  0  0  0
    9.2323   -5.0204    0.0000 C   0  0  0  0  0  0  0  0  0  0  0  0
    8.6150   -5.5678    0.0000 C   0  0  0  0  0  0  0  0  0  0  0  0
    8.6086   -6.3927    0.0000 C   0  0  1  0  0  0  0  0  0  0  0  0
    8.6023   -7.2177    0.0000 O   0  0  0  0  0  0  0  0  0  0  0  0
    7.8910   -6.7997    0.0000 C   0  0  2  0  0  0  0  0  0  0  0  0
    6.4495   -8.4387    0.0000 H   0  0  0  0  0  0  0  0  0  0  0  0
    7.1734   -7.2068    0.0000 H   0  0  0  0  0  0  0  0  0  0  0  0
    7.9037   -5.9748    0.0000 H   0  0  0  0  0  0  0  0  0  0  0  0
 16  1  1  6  0  0  0
 20  2  1  0  0  0  0
 14  3  1  6  0  0  0
 10  4  1  0  0  0  0
 10  5  1  0  0  0  0
 19  6  2  0  0  0  0
 24 22  1  0  0  0  0
 21 17  1  0  0  0  0
 14  9  1  0  0  0  0
 24 15  1  0  0  0  0
 24  7  1  0  0  0  0
  8  7  1  0  0  0  0
  9  8  1  0  0  0  0
 10  9  1  0  0  0  0
 11 10  1  0  0  0  0
 12 11  1  0  0  0  0
 13 12  1  0  0  0  0
 14 13  1  0  0  0  0
 15 14  1  0  0  0  0
 16 15  1  0  0  0  0
 17 16  1  0  0  0  0
 18 17  1  0  0  0  0
 19 18  1  0  0  0  0
 20 19  1  0  0  0  0
 21 20  2  0  0  0  0
 22 21  1  0  0  0  0
 22 23  1  1  0  0  0
 24 23  1  1  0  0  0
  9 25  1  1  0  0  0
 15 26  1  1  0  0  0
 17 27  1  1  0  0  0
M  END
>  <cdx:groupId>
304

>  <cdx:fragmentId>
231

$$$$
