301291.cdx
  Mrv1902 05222410182D          

 38 43  0  0  0  0            999 V2000
    8.1395   -7.5837    0.0000 C   0  0  1  0  0  0  0  0  0  0  0  0
    7.4250   -7.9962    0.0000 C   0  0  2  0  0  0  0  0  0  0  0  0
    7.4250   -8.8212    0.0000 C   0  0  0  0  0  0  0  0  0  0  0  0
    6.7105   -9.2337    0.0000 C   0  0  0  0  0  0  0  0  0  0  0  0
    5.9961   -8.8212    0.0000 C   0  0  1  0  0  0  0  0  0  0  0  0
    5.2816   -9.2337    0.0000 C   0  0  2  0  0  0  0  0  0  0  0  0
    4.5671   -8.8212    0.0000 C   0  0  2  0  0  0  0  0  0  0  0  0
    4.5671   -7.9962    0.0000 C   0  0  0  0  0  0  0  0  0  0  0  0
    5.2816   -7.5837    0.0000 C   0  0  0  0  0  0  0  0  0  0  0  0
    5.9961   -7.9962    0.0000 C   0  0  2  0  0  0  0  0  0  0  0  0
    6.7105   -7.5837    0.0000 C   0  0  1  0  0  0  0  0  0  0  0  0
    6.7105   -6.7587    0.0000 C   0  0  0  0  0  0  0  0  0  0  0  0
    7.4250   -6.3462    0.0000 C   0  0  0  0  0  0  0  0  0  0  0  0
    8.1395   -6.7587    0.0000 C   0  0  1  0  0  0  0  0  0  0  0  0
    8.8539   -6.3462    0.0000 C   0  0  2  0  0  0  0  0  0  0  0  0
    8.8539   -5.5212    0.0000 C   0  0  2  0  0  0  0  0  0  0  0  0
    9.5684   -5.1087    0.0000 C   0  0  1  0  0  0  0  0  0  0  0  0
   10.2829   -5.5212    0.0000 C   0  0  0  0  0  0  0  0  0  0  0  0
   10.2829   -6.3462    0.0000 C   0  0  0  0  0  0  0  0  0  0  0  0
    9.5684   -6.7587    0.0000 C   0  0  2  0  0  0  0  0  0  0  0  0
    9.5684   -7.5837    0.0000 C   0  0  0  0  0  0  0  0  0  0  0  0
    8.8539   -7.9962    0.0000 C   0  0  0  0  0  0  0  0  0  0  0  0
    8.8539   -7.1712    0.0000 C   0  0  0  0  0  0  0  0  0  0  0  0
   10.2829   -7.1712    0.0000 C   0  0  0  0  0  0  0  0  0  0  0  0
   10.2829   -7.9962    0.0000 O   0  0  0  0  0  0  0  0  0  0  0  0
   10.9974   -6.7587    0.0000 O   0  0  0  0  0  0  0  0  0  0  0  0
    9.5684   -4.2837    0.0000 C   0  0  0  0  0  0  0  0  0  0  0  0
    8.4414   -4.8067    0.0000 C   0  0  0  0  0  0  0  0  0  0  0  0
    5.9961   -7.1712    0.0000 C   0  0  0  0  0  0  0  0  0  0  0  0
    4.8691   -9.9481    0.0000 C   0  0  0  0  0  0  0  0  0  0  0  0
    7.4250   -7.1712    0.0000 C   0  0  0  0  0  0  0  0  0  0  0  0
    5.6941   -9.9481    0.0000 C   0  0  0  0  0  0  0  0  0  0  0  0
    5.2816  -10.6626    0.0000 O   0  0  0  0  0  0  0  0  0  0  0  0
    8.0289   -5.5212    0.0000 O   0  0  0  0  0  0  0  0  0  0  0  0
    3.8526   -9.2337    0.0000 O   0  0  0  0  0  0  0  0  0  0  0  0
    5.9961   -9.6462    0.0000 H   0  0  0  0  0  0  0  0  0  0  0  0
    6.7105   -8.4087    0.0000 H   0  0  0  0  0  0  0  0  0  0  0  0
    8.1395   -5.9337    0.0000 H   0  0  0  0  0  0  0  0  0  0  0  0
  1  2  1  0  0  0  0
  2  3  1  0  0  0  0
  3  4  1  0  0  0  0
  4  5  1  0  0  0  0
  5  6  1  0  0  0  0
  6  7  1  0  0  0  0
  7  8  1  0  0  0  0
  8  9  1  0  0  0  0
  9 10  1  0  0  0  0
 10 11  1  0  0  0  0
 11 12  1  0  0  0  0
 12 13  2  0  0  0  0
 13 14  1  0  0  0  0
 14 15  1  0  0  0  0
 15 16  1  0  0  0  0
 16 17  1  0  0  0  0
 17 18  1  0  0  0  0
 18 19  1  0  0  0  0
 19 20  1  0  0  0  0
 20 21  1  0  0  0  0
 21 22  1  0  0  0  0
  1 22  1  0  0  0  0
  1 23  1  6  0  0  0
 14 23  1  6  0  0  0
 15 20  1  0  0  0  0
  1 14  1  0  0  0  0
  2 11  1  0  0  0  0
  5 10  1  0  0  0  0
 24 25  2  0  0  0  0
 24 26  1  0  0  0  0
 20 24  1  1  0  0  0
 17 27  1  6  0  0  0
 16 28  1  1  0  0  0
 10 29  1  1  0  0  0
  6 30  1  1  0  0  0
  2 31  1  1  0  0  0
 32 33  1  0  0  0  0
  6 32  1  6  0  0  0
 16 34  1  6  0  0  0
  7 35  1  1  0  0  0
  5 36  1  6  0  0  0
 11 37  1  6  0  0  0
 15 38  1  1  0  0  0
M  END
>  <cdx:groupId>
2638

>  <cdx:fragmentId>
2522

$$$$
