301204.cdx
  Mrv1902 05222410232D          

 14 13  0  0  0  0            999 V2000
    2.7809   -6.4281    0.0000 C   0  0  0  0  0  0  0  0  0  0  0  0
    3.4954   -6.0156    0.0000 C   0  0  0  0  0  0  0  0  0  0  0  0
    4.2099   -6.4281    0.0000 C   0  0  0  0  0  0  0  0  0  0  0  0
    4.9244   -6.0156    0.0000 C   0  0  0  0  0  0  0  0  0  0  0  0
    5.6388   -6.4281    0.0000 C   0  0  0  0  0  0  0  0  0  0  0  0
    6.3533   -6.0156    0.0000 C   0  0  0  0  0  0  0  0  0  0  0  0
    7.0678   -6.4281    0.0000 C   0  0  0  0  0  0  0  0  0  0  0  0
    7.7822   -6.0156    0.0000 C   0  0  0  0  0  0  0  0  0  0  0  0
    8.4967   -6.4281    0.0000 C   0  0  0  0  0  0  0  0  0  0  0  0
    9.2112   -6.0156    0.0000 C   0  0  0  0  0  0  0  0  0  0  0  0
    9.9256   -6.4281    0.0000 C   0  0  0  0  0  0  0  0  0  0  0  0
   10.6401   -6.0156    0.0000 C   0  0  0  0  0  0  0  0  0  0  0  0
   11.3546   -6.4281    0.0000 C   0  0  0  0  0  0  0  0  0  0  0  0
   12.0691   -6.0156    0.0000 C   0  0  0  0  0  0  0  0  0  0  0  0
  1  2  2  0  0  0  0
  2  3  1  0  0  0  0
  3  4  1  0  0  0  0
  4  5  1  0  0  0  0
  5  6  1  0  0  0  0
  6  7  1  0  0  0  0
  7  8  1  0  0  0  0
  8  9  1  0  0  0  0
  9 10  2  0  0  0  0
 10 11  1  0  0  0  0
 11 12  1  0  0  0  0
 12 13  1  0  0  0  0
 13 14  1  0  0  0  0
M  END
>  <cdx:groupId>
43

>  <cdx:fragmentId>
5

$$$$
