301236.cdx
  Mrv1902 05222410222D          

 51 55  0  0  0  0            999 V2000
    8.8501   -9.7663    0.0000 O   0  0  0  0  0  0  0  0  0  0  0  0
    8.1355  -11.0037    0.0000 O   0  0  0  0  0  0  0  0  0  0  0  0
    8.8500  -10.5913    0.0000 C   0  0  2  0  0  0  0  0  0  0  0  0
    9.5644  -11.0039    0.0000 C   0  0  1  0  0  0  0  0  0  0  0  0
    9.5643  -11.8289    0.0000 C   0  0  2  0  0  0  0  0  0  0  0  0
    8.8498  -12.2413    0.0000 C   0  0  1  0  0  0  0  0  0  0  0  0
    8.1353  -11.8287    0.0000 C   0  0  1  0  0  0  0  0  0  0  0  0
    7.4208  -12.2411    0.0000 C   0  0  0  0  0  0  0  0  0  0  0  0
    7.4207  -13.0661    0.0000 O   0  0  0  0  0  0  0  0  0  0  0  0
    8.8497  -13.0663    0.0000 O   0  0  0  0  0  0  0  0  0  0  0  0
   10.2787  -12.2415    0.0000 O   0  0  0  0  0  0  0  0  0  0  0  0
   10.2789  -10.5915    0.0000 O   0  0  0  0  0  0  0  0  0  0  0  0
    6.7065  -11.0035    0.0000 C   0  0  0  0  0  0  0  0  0  0  0  0
    5.9921  -10.5909    0.0000 C   0  0  0  0  0  0  0  0  0  0  0  0
    6.7064  -11.8285    0.0000 O   0  0  0  0  0  0  0  0  0  0  0  0
    4.5635   -8.1157    0.0000 O   0  0  0  0  0  0  0  0  0  0  0  0
    3.1349   -5.6406    0.0000 O   0  0  0  0  0  0  0  0  0  0  0  0
   10.2797   -4.8165    0.0000 C   0  0  0  0  0  0  0  0  0  0  0  0
    9.5652   -4.4039    0.0000 O   0  0  0  0  0  0  0  0  0  0  0  0
    7.4218   -4.8161    0.0000 C   0  0  0  0  0  0  0  0  0  0  0  0
    8.1363   -4.4037    0.0000 C   0  0  0  0  0  0  0  0  0  0  0  0
    8.8507   -4.8163    0.0000 C   0  0  0  0  0  0  0  0  0  0  0  0
    8.8506   -5.6413    0.0000 C   0  0  0  0  0  0  0  0  0  0  0  0
    8.1361   -6.0537    0.0000 C   0  0  0  0  0  0  0  0  0  0  0  0
    7.4217   -5.6411    0.0000 C   0  0  0  0  0  0  0  0  0  0  0  0
    3.1352   -3.1656    0.0000 C   0  0  0  0  0  0  0  0  0  0  0  0
    4.5641   -3.1657    0.0000 C   0  0  0  0  0  0  0  0  0  0  0  0
    3.8496   -3.5782    0.0000 C   0  0  0  0  0  0  0  0  0  0  0  0
    3.8495   -4.4032    0.0000 C   0  0  0  0  0  0  0  0  0  0  0  0
    4.5639   -4.8157    0.0000 C   0  0  0  0  0  0  0  0  0  0  0  0
    5.9924   -8.1159    0.0000 O   0  0  0  0  0  0  0  0  0  0  0  0
    5.9927   -5.6409    0.0000 O   0  0  0  0  0  0  0  0  0  0  0  0
    5.2782   -6.0533    0.0000 C   0  0  0  0  0  0  0  0  0  0  0  0
    4.5638   -5.6407    0.0000 C   0  0  0  0  0  0  0  0  0  0  0  0
    3.8493   -6.0532    0.0000 C   0  0  0  0  0  0  0  0  0  0  0  0
    3.8492   -6.8782    0.0000 C   0  0  0  0  0  0  0  0  0  0  0  0
    4.5636   -7.2907    0.0000 C   0  0  0  0  0  0  0  0  0  0  0  0
    5.2781   -6.8783    0.0000 C   0  0  0  0  0  0  0  0  0  0  0  0
    5.9925   -7.2909    0.0000 C   0  0  0  0  0  0  0  0  0  0  0  0
    6.7070   -6.8785    0.0000 C   0  0  0  0  0  0  0  0  0  0  0  0
    6.7072   -6.0535    0.0000 C   0  0  0  0  0  0  0  0  0  0  0  0
    7.4215   -7.2911    0.0000 O   0  0  0  0  0  0  0  0  0  0  0  0
    8.8503   -8.1163    0.0000 O   0  0  0  0  0  0  0  0  0  0  0  0
    5.9922   -9.7659    0.0000 C   0  0  0  0  0  0  0  0  0  0  0  0
    7.4214   -8.1161    0.0000 C   0  0  1  0  0  0  0  0  0  0  0  0
    8.1358   -8.5287    0.0000 C   0  0  1  0  0  0  0  0  0  0  0  0
    8.1357   -9.3537    0.0000 C   0  0  1  0  0  0  0  0  0  0  0  0
    7.4211   -9.7661    0.0000 C   0  0  2  0  0  0  0  0  0  0  0  0
    6.7067   -9.3535    0.0000 C   0  0  1  0  0  0  0  0  0  0  0  0
    6.7068   -8.5285    0.0000 O   0  0  0  0  0  0  0  0  0  0  0  0
    7.4210  -10.5911    0.0000 O   0  0  0  0  0  0  0  0  0  0  0  0
 48 51  1  1  0  0  0
 45 42  1  1  0  0  0
 42 40  1  0  0  0  0
 37 16  1  0  0  0  0
 35 17  1  0  0  0  0
 41 25  1  0  0  0  0
 22 19  1  0  0  0  0
 19 18  1  0  0  0  0
 25 20  2  0  0  0  0
 21 20  1  0  0  0  0
 22 21  2  0  0  0  0
 23 22  1  0  0  0  0
 24 23  2  0  0  0  0
 25 24  1  0  0  0  0
 34 30  1  0  0  0  0
 28 26  1  0  0  0  0
 28 27  1  0  0  0  0
 29 28  2  0  0  0  0
 30 29  1  0  0  0  0
 39 31  2  0  0  0  0
 41 32  1  0  0  0  0
 33 32  1  0  0  0  0
 38 33  2  0  0  0  0
 34 33  1  0  0  0  0
 35 34  2  0  0  0  0
 36 35  1  0  0  0  0
 37 36  2  0  0  0  0
 38 37  1  0  0  0  0
 39 38  1  0  0  0  0
 40 39  1  0  0  0  0
 41 40  2  0  0  0  0
 46 43  1  6  0  0  0
 49 44  1  6  0  0  0
 47  1  1  6  0  0  0
 50 45  1  0  0  0  0
 46 45  1  0  0  0  0
 47 46  1  0  0  0  0
 48 47  1  0  0  0  0
 49 48  1  0  0  0  0
 50 49  1  0  0  0  0
  2  3  1  0  0  0  0
  3  4  1  0  0  0  0
  4  5  1  0  0  0  0
  5  6  1  0  0  0  0
  6  7  1  0  0  0  0
  2  7  1  0  0  0  0
  8  9  1  0  0  0  0
  7  8  1  1  0  0  0
  6 10  1  6  0  0  0
  5 11  1  1  0  0  0
  4 12  1  6  0  0  0
  3  1  1  1  0  0  0
 13 14  1  0  0  0  0
 13 15  2  0  0  0  0
 13 51  1  0  0  0  0
M  END
>  <cdx:groupId>
2017

>  <cdx:fragmentId>
1913

$$$$
