301208.cdx
  Mrv1902 05222410222D          

 24 26  0  0  0  0            999 V2000
    6.2387   -7.0066    0.0000 C   0  0  1  0  0  0  0  0  0  0  0  0
    5.5243   -6.5941    0.0000 C   0  0  2  0  0  0  0  0  0  0  0  0
    5.5243   -5.7691    0.0000 C   0  0  0  0  0  0  0  0  0  0  0  0
    6.2387   -5.3566    0.0000 C   0  0  0  0  0  0  0  0  0  0  0  0
    6.9532   -5.7691    0.0000 C   0  0  0  0  0  0  0  0  0  0  0  0
    7.6677   -5.3566    0.0000 C   0  0  2  0  0  0  0  0  0  0  0  0
    7.6677   -4.5316    0.0000 C   0  0  0  0  0  0  0  0  0  0  0  0
    8.3822   -4.1191    0.0000 C   0  0  0  0  0  0  0  0  0  0  0  0
    9.0966   -4.5316    0.0000 C   0  0  2  0  0  0  0  0  0  0  0  0
    9.0966   -5.3566    0.0000 C   0  0  0  0  0  0  0  0  0  0  0  0
    8.3822   -5.7691    0.0000 C   0  0  1  0  0  0  0  0  0  0  0  0
    8.3822   -6.5941    0.0000 C   0  0  0  0  0  0  0  0  0  0  0  0
    7.6677   -7.0066    0.0000 C   0  0  0  0  0  0  0  0  0  0  0  0
    6.9532   -6.5941    0.0000 C   0  0  1  0  0  0  0  0  0  0  0  0
    4.8098   -7.0066    0.0000 O   0  0  0  0  0  0  0  0  0  0  0  0
    9.5091   -3.8171    0.0000 C   0  0  0  0  0  0  0  0  0  0  0  0
    6.9532   -4.9441    0.0000 C   0  0  0  0  0  0  0  0  0  0  0  0
    5.8262   -7.7210    0.0000 C   0  0  0  0  0  0  0  0  0  0  0  0
    6.6512   -7.7210    0.0000 C   0  0  0  0  0  0  0  0  0  0  0  0
    9.9216   -4.5316    0.0000 C   0  0  0  0  0  0  0  0  0  0  0  0
    9.0966   -6.1816    0.0000 H   0  0  0  0  0  0  0  0  0  0  0  0
    6.9532   -7.4191    0.0000 H   0  0  0  0  0  0  0  0  0  0  0  0
    6.2387   -8.4355    0.0000 O   0  0  0  0  0  0  0  0  0  0  0  0
   10.3341   -3.8171    0.0000 C   0  0  0  0  0  0  0  0  0  0  0  0
  1  2  1  0  0  0  0
  2  3  1  0  0  0  0
  3  4  1  0  0  0  0
  4  5  2  0  0  0  0
  5  6  1  0  0  0  0
  6  7  1  0  0  0  0
  7  8  1  0  0  0  0
  8  9  1  0  0  0  0
  9 10  1  0  0  0  0
 10 11  1  0  0  0  0
  6 11  1  0  0  0  0
 11 12  1  0  0  0  0
 12 13  1  0  0  0  0
 13 14  1  0  0  0  0
  1 14  1  0  0  0  0
  5 14  1  0  0  0  0
  2 15  1  1  0  0  0
  9 16  1  1  0  0  0
  6 17  1  1  0  0  0
  1 18  1  1  0  0  0
  1 19  1  6  0  0  0
  9 20  1  6  0  0  0
 11 21  1  6  0  0  0
 14 22  1  6  0  0  0
 18 23  1  0  0  0  0
 16 24  2  0  0  0  0
M  END
>  <cdx:groupId>
223

>  <cdx:fragmentId>
152

$$$$
