301255.cdx
  Mrv1902 05222410192D          

  4  3  0  0  0  0            999 V2000
    7.0122   -6.2266    0.0000 C   0  0  0  0  0  0  0  0  0  0  0  0
    7.8372   -6.2266    0.0000 C   0  0  0  0  0  0  0  0  0  0  0  0
    6.1872   -6.2266    0.0000 N   0  0  0  0  0  0  0  0  0  0  0  0
    8.6622   -6.2266    0.0000 N   0  0  0  0  0  0  0  0  0  0  0  0
  1  2  1  0  0  0  0
  1  3  3  0  0  0  0
  2  4  3  0  0  0  0
M  END
>  <cdx:groupId>
122

>  <cdx:fragmentId>
114

$$$$
