301285.cdx
  Mrv1902 05222410182D          

 41 44  0  0  0  0            999 V2000
    4.7296  -10.1430    0.0000 C   0  0  0  0  0  0  0  0  0  0  0  0
    4.4750  -10.9277    0.0000 C   0  0  0  0  0  0  0  0  0  0  0  0
    5.0273  -11.5406    0.0000 C   0  0  0  0  0  0  0  0  0  0  0  0
    4.7728  -12.3253    0.0000 C   0  0  0  0  0  0  0  0  0  0  0  0
    3.9659  -12.4972    0.0000 C   0  0  0  0  0  0  0  0  0  0  0  0
    3.4136  -11.8844    0.0000 N   0  0  0  0  0  0  0  0  0  0  0  0
    3.6681  -11.0996    0.0000 C   0  0  0  0  0  0  0  0  0  0  0  0
    4.1773   -9.5302    0.0000 O   0  0  0  0  0  0  0  0  0  0  0  0
    5.5365   -9.9711    0.0000 O   0  0  0  0  0  0  0  0  0  0  0  0
    6.5752   -8.1060    0.0000 C   0  0  2  0  0  0  0  0  0  0  0  0
    7.1582   -7.5224    0.0000 C   0  0  0  0  0  0  0  0  0  0  0  0
    7.9832   -7.5220    0.0000 C   0  0  0  0  0  0  0  0  0  0  0  0
    8.5669   -8.1051    0.0000 C   0  0  0  0  0  0  0  0  0  0  0  0
    9.3514   -7.8498    0.0000 C   0  0  1  0  0  0  0  0  0  0  0  0
   10.1718   -7.7632    0.0000 C   0  0  0  0  0  0  0  0  0  0  0  0
    9.8366   -8.5170    0.0000 C   0  0  1  0  0  0  0  0  0  0  0  0
    9.3520   -9.1847    0.0000 C   0  0  0  0  0  0  0  0  0  0  0  0
    8.5673   -8.9301    0.0000 C   0  0  0  0  0  0  0  0  0  0  0  0
    7.9842   -9.5137    0.0000 C   0  0  0  0  0  0  0  0  0  0  0  0
    7.1592   -9.5141    0.0000 C   0  0  1  0  0  0  0  0  0  0  0  0
    6.5755   -8.9310    0.0000 C   0  0  1  0  0  0  0  0  0  0  0  0
    5.7910   -9.1863    0.0000 C   0  0  2  0  0  0  0  0  0  0  0  0
    5.3058   -8.5191    0.0000 C   0  0  2  0  0  0  0  0  0  0  0  0
    5.7904   -7.8515    0.0000 C   0  0  0  0  0  0  0  0  0  0  0  0
    6.8422   -6.7603    0.0000 O   0  0  0  0  0  0  0  0  0  0  0  0
    8.3003  -10.2758    0.0000 C   0  0  0  0  0  0  0  0  0  0  0  0
    4.4808   -8.5195    0.0000 C   0  0  0  0  0  0  0  0  0  0  0  0
   10.5070   -7.0093    0.0000 C   0  0  0  0  0  0  0  0  0  0  0  0
   10.9923   -7.6765    0.0000 C   0  0  0  0  0  0  0  0  0  0  0  0
    8.2986   -6.7597    0.0000 C   0  0  0  0  0  0  0  0  0  0  0  0
    6.8438  -10.2765    0.0000 O   0  0  0  0  0  0  0  0  0  0  0  0
    7.3464  -10.9307    0.0000 C   0  0  0  0  0  0  0  0  0  0  0  0
    7.0310  -11.6931    0.0000 O   0  0  0  0  0  0  0  0  0  0  0  0
    8.1643  -10.8227    0.0000 C   0  0  0  0  0  0  0  0  0  0  0  0
    6.3822   -7.3039    0.0000 O   0  0  0  0  0  0  0  0  0  0  0  0
    5.5910   -7.0700    0.0000 C   0  0  0  0  0  0  0  0  0  0  0  0
    5.3981   -6.2679    0.0000 O   0  0  0  0  0  0  0  0  0  0  0  0
    5.0080   -7.6536    0.0000 C   0  0  0  0  0  0  0  0  0  0  0  0
    9.1795   -7.0429    0.0000 H   0  0  0  0  0  0  0  0  0  0  0  0
   10.5513   -8.9292    0.0000 H   0  0  0  0  0  0  0  0  0  0  0  0
    6.3833   -9.7333    0.0000 H   0  0  0  0  0  0  0  0  0  0  0  0
  1  2  1  0  0  0  0
  2  3  1  0  0  0  0
  3  4  2  0  0  0  0
  4  5  1  0  0  0  0
  5  6  2  0  0  0  0
  6  7  1  0  0  0  0
  2  7  2  0  0  0  0
  1  8  2  0  0  0  0
  1  9  1  0  0  0  0
 10 11  1  0  0  0  0
 11 12  1  0  0  0  0
 12 13  2  0  0  0  0
 13 14  1  0  0  0  0
 14 15  1  0  0  0  0
 15 16  1  0  0  0  0
 16 17  1  0  0  0  0
 17 18  1  0  0  0  0
 18 19  1  0  0  0  0
 19 20  1  0  0  0  0
 20 21  1  0  0  0  0
 21 22  1  0  0  0  0
 22 23  1  0  0  0  0
 23 24  1  0  0  0  0
 10 24  1  0  0  0  0
 10 21  1  0  0  0  0
 14 16  1  0  0  0  0
 11 25  2  0  0  0  0
 19 26  2  0  0  0  0
 23 27  1  1  0  0  0
 15 28  1  0  0  0  0
 15 29  1  0  0  0  0
 12 30  1  0  0  0  0
 32 33  2  0  0  0  0
 32 34  1  0  0  0  0
 31 32  1  0  0  0  0
 20 31  1  6  0  0  0
 36 37  2  0  0  0  0
 36 38  1  0  0  0  0
 35 36  1  0  0  0  0
 10 35  1  1  0  0  0
 22  9  1  1  0  0  0
 14 39  1  6  0  0  0
 16 40  1  6  0  0  0
 21 41  1  6  0  0  0
M  END
>  <cdx:fragmentId>
23

$$$$
