301245.cdx
  Mrv1902 05222410182D          

 21 22  0  0  0  0            999 V2000
    6.7105   -8.0041    0.0000 C   0  0  0  0  0  0  0  0  0  0  0  0
    7.4250   -8.4166    0.0000 C   0  0  0  0  0  0  0  0  0  0  0  0
    8.1395   -8.0041    0.0000 C   0  0  0  0  0  0  0  0  0  0  0  0
    6.7105   -7.1791    0.0000 O   0  0  0  0  0  0  0  0  0  0  0  0
    5.9961   -8.4166    0.0000 C   0  0  0  0  0  0  0  0  0  0  0  0
    5.9961   -9.2416    0.0000 C   0  0  0  0  0  0  0  0  0  0  0  0
    5.2816   -9.6541    0.0000 C   0  0  0  0  0  0  0  0  0  0  0  0
    4.5671   -9.2416    0.0000 C   0  0  0  0  0  0  0  0  0  0  0  0
    4.5671   -8.4166    0.0000 C   0  0  0  0  0  0  0  0  0  0  0  0
    5.2816   -8.0041    0.0000 C   0  0  0  0  0  0  0  0  0  0  0  0
    5.2816   -7.1791    0.0000 O   0  0  0  0  0  0  0  0  0  0  0  0
    3.8526   -9.6541    0.0000 O   0  0  0  0  0  0  0  0  0  0  0  0
    6.7105   -9.6541    0.0000 O   0  0  0  0  0  0  0  0  0  0  0  0
    8.8539   -8.4166    0.0000 C   0  0  0  0  0  0  0  0  0  0  0  0
    9.5684   -8.0041    0.0000 C   0  0  0  0  0  0  0  0  0  0  0  0
   10.2829   -8.4166    0.0000 C   0  0  0  0  0  0  0  0  0  0  0  0
   10.2829   -9.2416    0.0000 C   0  0  0  0  0  0  0  0  0  0  0  0
    9.5684   -9.6541    0.0000 C   0  0  0  0  0  0  0  0  0  0  0  0
    8.8539   -9.2416    0.0000 C   0  0  0  0  0  0  0  0  0  0  0  0
   10.9974   -9.6541    0.0000 O   0  0  0  0  0  0  0  0  0  0  0  0
   10.9974   -8.0041    0.0000 O   0  0  0  0  0  0  0  0  0  0  0  0
  1  2  1  0  0  0  0
  2  3  2  0  0  0  0
  1  4  2  0  0  0  0
  5  6  1  0  0  0  0
  6  7  2  0  0  0  0
  7  8  1  0  0  0  0
  8  9  2  0  0  0  0
  9 10  1  0  0  0  0
  5 10  2  0  0  0  0
 10 11  1  0  0  0  0
  8 12  1  0  0  0  0
  6 13  1  0  0  0  0
  1  5  1  0  0  0  0
 14 15  1  0  0  0  0
 15 16  2  0  0  0  0
 16 17  1  0  0  0  0
 17 18  2  0  0  0  0
 18 19  1  0  0  0  0
 14 19  2  0  0  0  0
 17 20  1  0  0  0  0
 16 21  1  0  0  0  0
  3 14  1  0  0  0  0
M  END
>  <cdx:groupId>
3137

>  <cdx:fragmentId>
3084

$$$$
