301261.cdx
  Mrv1902 05222410272D          

 12 11  0  0  0  0            999 V2000
    3.8526   -5.6116    0.0000 C   0  0  0  0  0  0  0  0  0  0  0  0
    4.5671   -6.0241    0.0000 C   0  0  0  0  0  0  0  0  0  0  0  0
    5.2816   -5.6116    0.0000 O   0  0  0  0  0  0  0  0  0  0  0  0
    5.9961   -6.8491    0.0000 O   0  0  0  0  0  0  0  0  0  0  0  0
   10.9974   -5.6116    0.0000 C   0  0  0  0  0  0  0  0  0  0  0  0
   10.2829   -6.0241    0.0000 C   0  0  0  0  0  0  0  0  0  0  0  0
    9.5684   -5.6116    0.0000 C   0  0  0  0  0  0  0  0  0  0  0  0
    8.8539   -6.0241    0.0000 C   0  0  0  0  0  0  0  0  0  0  0  0
    8.1395   -5.6116    0.0000 C   0  0  0  0  0  0  0  0  0  0  0  0
    7.4250   -6.0241    0.0000 C   0  0  0  0  0  0  0  0  0  0  0  0
    6.7105   -5.6116    0.0000 C   0  0  0  0  0  0  0  0  0  0  0  0
    5.9961   -6.0241    0.0000 C   0  0  0  0  0  0  0  0  0  0  0  0
  3  2  1  0  0  0  0
  2  1  1  0  0  0  0
 12  3  1  0  0  0  0
 12  4  2  0  0  0  0
  6  5  2  0  0  0  0
  7  6  1  0  0  0  0
  8  7  1  0  0  0  0
  9  8  1  0  0  0  0
 10  9  1  0  0  0  0
 11 10  1  0  0  0  0
 12 11  1  0  0  0  0
M  END
>  <cdx:fragmentId>
369

$$$$
