301283.cdx
  Mrv1902 05222410192D          

 32 36  0  0  0  0            999 V2000
    9.3622   -8.2157    0.0000 C   0  0  0  0  0  0  0  0  0  0  0  0
   10.1872   -8.2157    0.0000 C   0  0  0  0  0  0  0  0  0  0  0  0
   10.5997   -8.9302    0.0000 C   0  0  0  0  0  0  0  0  0  0  0  0
   10.1872   -9.6447    0.0000 C   0  0  0  0  0  0  0  0  0  0  0  0
    8.9497   -8.9302    0.0000 O   0  0  0  0  0  0  0  0  0  0  0  0
    8.9497   -7.5013    0.0000 O   0  0  0  0  0  0  0  0  0  0  0  0
   10.5997   -7.5013    0.0000 C   0  0  0  0  0  0  0  0  0  0  0  0
    6.3174   -7.0888    0.0000 C   0  0  2  0  0  0  0  0  0  0  0  0
    6.9624   -6.5744    0.0000 C   0  0  1  0  0  0  0  0  0  0  0  0
    6.8885   -5.7527    0.0000 O   0  0  0  0  0  0  0  0  0  0  0  0
    7.6471   -5.4285    0.0000 C   0  0  0  0  0  0  0  0  0  0  0  0
    8.1899   -6.0497    0.0000 C   0  0  0  0  0  0  0  0  0  0  0  0
    7.7668   -6.7580    0.0000 C   0  0  2  0  0  0  0  0  0  0  0  0
    8.1247   -7.5013    0.0000 C   0  0  1  0  0  0  0  0  0  0  0  0
    7.7668   -8.2446    0.0000 C   0  0  0  0  0  0  0  0  0  0  0  0
    6.9624   -8.4281    0.0000 C   0  0  2  0  0  0  0  0  0  0  0  0
    6.3174   -7.9138    0.0000 C   0  0  2  0  0  0  0  0  0  0  0  0
    5.5328   -8.1687    0.0000 C   0  0  1  0  0  0  0  0  0  0  0  0
    5.0479   -7.5013    0.0000 C   0  0  1  0  0  0  0  0  0  0  0  0
    4.7123   -6.7476    0.0000 O   0  0  0  0  0  0  0  0  0  0  0  0
    5.5328   -6.8338    0.0000 C   0  0  1  0  0  0  0  0  0  0  0  0
    7.2056   -9.2165    0.0000 O   0  0  0  0  0  0  0  0  0  0  0  0
    6.4013   -9.0329    0.0000 C   0  0  0  0  0  0  0  0  0  0  0  0
    7.8307   -4.6242    0.0000 O   0  0  0  0  0  0  0  0  0  0  0  0
    9.0116   -5.9758    0.0000 C   0  0  0  0  0  0  0  0  0  0  0  0
    5.7043   -6.0269    0.0000 C   0  0  0  0  0  0  0  0  0  0  0  0
    5.2779   -8.9533    0.0000 O   0  0  0  0  0  0  0  0  0  0  0  0
    6.3174   -6.2638    0.0000 O   0  0  0  0  0  0  0  0  0  0  0  0
    6.9624   -7.3994    0.0000 H   0  0  0  0  0  0  0  0  0  0  0  0
    8.5918   -6.7580    0.0000 H   0  0  0  0  0  0  0  0  0  0  0  0
    6.2069   -8.5226    0.0000 H   0  0  0  0  0  0  0  0  0  0  0  0
    4.3334   -7.9138    0.0000 H   0  0  0  0  0  0  0  0  0  0  0  0
  1  2  1  0  0  0  0
  2  3  2  0  0  0  0
  3  4  1  0  0  0  0
  1  5  2  0  0  0  0
  1  6  1  0  0  0  0
  2  7  1  0  0  0  0
  8  9  1  0  0  0  0
  9 10  1  0  0  0  0
 10 11  1  0  0  0  0
 11 12  1  0  0  0  0
 12 13  1  0  0  0  0
 13 14  1  0  0  0  0
 14 15  1  0  0  0  0
 15 16  1  0  0  0  0
 16 17  1  0  0  0  0
 17 18  1  0  0  0  0
 18 19  1  0  0  0  0
 19 20  1  0  0  0  0
 20 21  1  0  0  0  0
  8 21  1  0  0  0  0
  8 17  1  0  0  0  0
  9 13  1  0  0  0  0
 19 21  1  0  0  0  0
 22 23  1  0  0  0  0
 16 22  1  1  0  0  0
 16 23  1  6  0  0  0
 11 24  2  0  0  0  0
 12 25  2  0  0  0  0
 21 26  1  6  0  0  0
 18 27  1  6  0  0  0
  8 28  1  1  0  0  0
 14  6  1  6  0  0  0
  9 29  1  6  0  0  0
 13 30  1  1  0  0  0
 17 31  1  1  0  0  0
 19 32  1  6  0  0  0
M  END
>  <cdx:groupId>
2001

>  <cdx:fragmentId>
1918

$$$$
