301259.cdx
  Mrv1902 05222410272D          

 13 13  0  0  0  0            999 V2000
    7.9317   -5.8179    0.0000 C   0  0  0  0  0  0  0  0  0  0  0  0
    7.2172   -6.2304    0.0000 C   0  0  0  0  0  0  0  0  0  0  0  0
    7.2172   -7.0554    0.0000 C   0  0  0  0  0  0  0  0  0  0  0  0
    6.5028   -7.4679    0.0000 C   0  0  0  0  0  0  0  0  0  0  0  0
    5.7883   -7.0554    0.0000 C   0  0  0  0  0  0  0  0  0  0  0  0
    5.7883   -6.2304    0.0000 C   0  0  0  0  0  0  0  0  0  0  0  0
    6.5028   -5.8179    0.0000 C   0  0  0  0  0  0  0  0  0  0  0  0
    7.9317   -4.9929    0.0000 O   0  0  0  0  0  0  0  0  0  0  0  0
    8.6462   -6.2304    0.0000 O   0  0  0  0  0  0  0  0  0  0  0  0
    5.0738   -7.4679    0.0000 O   0  0  0  0  0  0  0  0  0  0  0  0
    7.9317   -7.4679    0.0000 O   0  0  0  0  0  0  0  0  0  0  0  0
    9.3607   -5.8179    0.0000 C   0  0  0  0  0  0  0  0  0  0  0  0
   10.0751   -6.2304    0.0000 C   0  0  0  0  0  0  0  0  0  0  0  0
  1  2  1  0  0  0  0
  2  3  1  0  0  0  0
  3  4  2  0  0  0  0
  4  5  1  0  0  0  0
  5  6  2  0  0  0  0
  6  7  1  0  0  0  0
  2  7  2  0  0  0  0
  1  8  2  0  0  0  0
  1  9  1  0  0  0  0
  5 10  1  0  0  0  0
  3 11  1  0  0  0  0
 12 13  1  0  0  0  0
  9 12  1  0  0  0  0
M  END
>  <cdx:groupId>
318

>  <cdx:fragmentId>
282

$$$$
