30128.cdx
  Mrv1902 05222410272D          

 27 29  0  0  0  0            999 V2000
    4.3843  -10.6964    0.0000 C   0  0  0  0  0  0  0  0  0  0  0  0
    4.3843  -11.5214    0.0000 C   0  0  0  0  0  0  0  0  0  0  0  0
    5.0988  -11.9339    0.0000 C   0  0  0  0  0  0  0  0  0  0  0  0
    5.8132  -11.5214    0.0000 C   0  0  0  0  0  0  0  0  0  0  0  0
    5.8132  -10.6964    0.0000 C   0  0  0  0  0  0  0  0  0  0  0  0
    5.0988  -10.2839    0.0000 C   0  0  0  0  0  0  0  0  0  0  0  0
    3.6698  -10.2839    0.0000 O   0  0  0  0  0  0  0  0  0  0  0  0
    2.9554   -9.8714    0.0000 C   0  0  0  0  0  0  0  0  0  0  0  0
    3.6698  -11.9339    0.0000 O   0  0  0  0  0  0  0  0  0  0  0  0
    5.0988  -12.7589    0.0000 O   0  0  0  0  0  0  0  0  0  0  0  0
    6.5277  -10.2839    0.0000 C   0  0  1  0  0  0  0  0  0  0  0  0
    6.5277   -9.4589    0.0000 C   0  0  1  0  0  0  0  0  0  0  0  0
    7.2422  -10.6964    0.0000 O   0  0  0  0  0  0  0  0  0  0  0  0
    7.9567  -10.2839    0.0000 C   0  0  0  0  0  0  0  0  0  0  0  0
    7.9567   -9.4589    0.0000 C   0  0  0  0  0  0  0  0  0  0  0  0
    8.6711  -10.6964    0.0000 C   0  0  0  0  0  0  0  0  0  0  0  0
    9.3856  -10.2839    0.0000 C   0  0  0  0  0  0  0  0  0  0  0  0
    9.3856   -9.4589    0.0000 C   0  0  0  0  0  0  0  0  0  0  0  0
    8.6711   -9.0464    0.0000 C   0  0  0  0  0  0  0  0  0  0  0  0
    8.6711  -11.5214    0.0000 O   0  0  0  0  0  0  0  0  0  0  0  0
   10.1001   -9.0464    0.0000 C   0  0  0  0  0  0  0  0  0  0  0  0
   10.1001   -8.2214    0.0000 C   0  0  0  0  0  0  0  0  0  0  0  0
   10.8145   -9.4589    0.0000 O   0  0  0  0  0  0  0  0  0  0  0  0
    5.9444   -8.8755    0.0000 C   0  0  0  0  0  0  0  0  0  0  0  0
    5.0988  -13.5839    0.0000 C   0  0  0  0  0  0  0  0  0  0  0  0
    8.6711  -12.3464    0.0000 C   0  0  0  0  0  0  0  0  0  0  0  0
    5.3610   -8.2922    0.0000 O   0  0  0  0  0  0  0  0  0  0  0  0
  1  2  2  0  0  0  0
  2  3  1  0  0  0  0
  3  4  2  0  0  0  0
  4  5  1  0  0  0  0
  5  6  2  0  0  0  0
  6  1  1  0  0  0  0
  1  7  1  0  0  0  0
  2  9  1  0  0  0  0
  3 10  1  0  0  0  0
 11  5  1  1  0  0  0
 11 12  1  0  0  0  0
 11 13  1  0  0  0  0
 13 14  1  0  0  0  0
 14 15  2  0  0  0  0
 12 15  1  0  0  0  0
 14 16  1  0  0  0  0
 16 17  2  0  0  0  0
 17 18  1  0  0  0  0
 18 19  2  0  0  0  0
 19 15  1  0  0  0  0
 16 20  1  0  0  0  0
 18 21  1  0  0  0  0
 21 22  1  0  0  0  0
 21 23  2  0  0  0  0
 12 24  1  6  0  0  0
  7  8  1  0  0  0  0
 10 25  1  0  0  0  0
 20 26  1  0  0  0  0
 24 27  1  0  0  0  0
M  STY  4   1 SUP   2 SUP   3 SUP   4 SUP
M  SAL   1  2   7   8
M  SBL   1  1   7
M  SMT   1 OCH3
M  SAP   1  1   7   1  1
M  SAL   2  2  10  25
M  SBL   2  1   9
M  SMT   2 OCH3
M  SAP   2  1  10   3  1
M  SAL   3  2  20  26
M  SBL   3  1  21
M  SMT   3 OCH3
M  SAP   3  1  20  16  1
M  SAL   4  2  24  27
M  SBL   4  1  25
M  SMT   4 CH2OH
M  SAP   4  1  24  12  1
M  END
>  <cdx:fragmentId>
5

$$$$
