30121.cdx
  Mrv1902 05222410192D          

 16 18  0  0  0  0            999 V2000
    7.0835   -8.2660    0.0000 C   0  0  1  0  0  0  0  0  0  0  0  0
    6.4713   -8.8190    0.0000 C   0  0  0  0  0  0  0  0  0  0  0  0
    6.8080   -9.5721    0.0000 C   0  0  0  0  0  0  0  0  0  0  0  0
    7.6283   -9.4846    0.0000 C   0  0  2  0  0  0  0  0  0  0  0  0
    8.4369   -9.6483    0.0000 C   0  0  0  0  0  0  0  0  0  0  0  0
    8.9209   -8.9802    0.0000 C   0  0  0  0  0  0  0  0  0  0  0  0
    8.5125   -8.2638    0.0000 C   0  0  1  0  0  0  0  0  0  0  0  0
    8.5112   -7.4388    0.0000 C   0  0  0  0  0  0  0  0  0  0  0  0
    7.7961   -7.0274    0.0000 C   0  0  0  0  0  0  0  0  0  0  0  0
    7.0823   -7.4410    0.0000 C   0  0  0  0  0  0  0  0  0  0  0  0
    7.7986   -8.6774    0.0000 C   0  0  2  0  0  0  0  0  0  0  0  0
    9.3098   -8.0519    0.0000 C   0  0  0  0  0  0  0  0  0  0  0  0
    7.6296  -10.3096    0.0000 C   0  0  0  0  0  0  0  0  0  0  0  0
    6.3966  -10.2872    0.0000 C   0  0  0  0  0  0  0  0  0  0  0  0
    6.3294   -7.9316    0.0000 C   0  0  0  0  0  0  0  0  0  0  0  0
    8.3350   -8.9860    0.0000 H   0  0  0  0  0  0  0  0  0  0  0  0
  1  2  1  0  0  0  0
  2  3  2  0  0  0  0
  3  4  1  0  0  0  0
  4  5  1  0  0  0  0
  5  6  1  0  0  0  0
  6  7  1  0  0  0  0
  7  8  1  0  0  0  0
  8  9  1  0  0  0  0
  9 10  1  0  0  0  0
  1 10  1  0  0  0  0
  1 11  1  0  0  0  0
 11  7  1  0  0  0  0
  4 11  1  0  0  0  0
  7 12  1  1  0  0  0
  4 13  1  6  0  0  0
  3 14  1  0  0  0  0
  1 15  1  6  0  0  0
 11 16  1  6  0  0  0
M  END
>  <cdx:fragmentId>
5

$$$$
