301251.cdx
  Mrv1902 05222410182D          

 47 52  0  0  0  0            999 V2000
    5.6388   -9.7450    0.0000 C   0  0  0  0  0  0  0  0  0  0  0  0
    4.9244  -10.1575    0.0000 C   0  0  0  0  0  0  0  0  0  0  0  0
    4.2099   -9.7450    0.0000 C   0  0  0  0  0  0  0  0  0  0  0  0
    5.6388   -8.9200    0.0000 O   0  0  0  0  0  0  0  0  0  0  0  0
    6.3533  -10.1575    0.0000 O   0  0  0  0  0  0  0  0  0  0  0  0
    3.4954  -10.1575    0.0000 C   0  0  0  0  0  0  0  0  0  0  0  0
    2.7809   -9.7450    0.0000 C   0  0  0  0  0  0  0  0  0  0  0  0
    2.0665  -10.1575    0.0000 C   0  0  0  0  0  0  0  0  0  0  0  0
    2.0665  -10.9825    0.0000 C   0  0  0  0  0  0  0  0  0  0  0  0
    2.7809  -11.3950    0.0000 C   0  0  0  0  0  0  0  0  0  0  0  0
    3.4954  -10.9825    0.0000 C   0  0  0  0  0  0  0  0  0  0  0  0
    1.3520  -11.3950    0.0000 O   0  0  0  0  0  0  0  0  0  0  0  0
    1.3520   -9.7450    0.0000 O   0  0  0  0  0  0  0  0  0  0  0  0
    7.7822   -8.5075    0.0000 C   0  0  0  0  0  0  0  0  0  0  0  0
    7.0678   -8.9200    0.0000 C   0  0  0  0  0  0  0  0  0  0  0  0
    7.0678   -9.7450    0.0000 C   0  0  1  0  0  0  0  0  0  0  0  0
    7.7822  -10.1575    0.0000 C   0  0  0  0  0  0  0  0  0  0  0  0
    8.4967   -9.7450    0.0000 C   0  0  2  0  0  0  0  0  0  0  0  0
    9.2112  -10.1575    0.0000 C   0  0  0  0  0  0  0  0  0  0  0  0
    9.9256   -9.7450    0.0000 C   0  0  0  0  0  0  0  0  0  0  0  0
    9.9256   -8.9200    0.0000 C   0  0  1  0  0  0  0  0  0  0  0  0
   10.6401   -8.5075    0.0000 C   0  0  2  0  0  0  0  0  0  0  0  0
   11.3546   -8.9200    0.0000 C   0  0  0  0  0  0  0  0  0  0  0  0
   12.0691   -8.5075    0.0000 C   0  0  0  0  0  0  0  0  0  0  0  0
   12.0691   -7.6825    0.0000 C   0  0  1  0  0  0  0  0  0  0  0  0
   12.7835   -7.2700    0.0000 C   0  0  0  0  0  0  0  0  0  0  0  0
   12.7835   -6.4450    0.0000 C   0  0  0  0  0  0  0  0  0  0  0  0
   12.0691   -6.0325    0.0000 C   0  0  0  0  0  0  0  0  0  0  0  0
   11.3546   -6.4450    0.0000 C   0  0  0  0  0  0  0  0  0  0  0  0
   11.3546   -7.2700    0.0000 C   0  0  1  0  0  0  0  0  0  0  0  0
   10.6401   -7.6825    0.0000 C   0  0  0  0  0  0  0  0  0  0  0  0
    9.9256   -7.2700    0.0000 C   0  0  0  0  0  0  0  0  0  0  0  0
    9.2112   -7.6825    0.0000 C   0  0  0  0  0  0  0  0  0  0  0  0
    9.2112   -8.5075    0.0000 C   0  0  2  0  0  0  0  0  0  0  0  0
    8.4967   -8.9200    0.0000 C   0  0  1  0  0  0  0  0  0  0  0  0
    8.4967   -8.0950    0.0000 C   0  0  0  0  0  0  0  0  0  0  0  0
   11.6566   -5.3181    0.0000 C   0  0  0  0  0  0  0  0  0  0  0  0
   12.4816   -5.3181    0.0000 C   0  0  0  0  0  0  0  0  0  0  0  0
   10.6401   -9.3325    0.0000 C   0  0  0  0  0  0  0  0  0  0  0  0
    9.9256   -8.0950    0.0000 C   0  0  0  0  0  0  0  0  0  0  0  0
    8.1947  -10.8720    0.0000 C   0  0  0  0  0  0  0  0  0  0  0  0
    7.3697  -10.8720    0.0000 C   0  0  0  0  0  0  0  0  0  0  0  0
   12.7835   -8.0950    0.0000 C   0  0  0  0  0  0  0  0  0  0  0  0
   13.4980   -7.6825    0.0000 O   0  0  0  0  0  0  0  0  0  0  0  0
    8.4967  -10.5700    0.0000 H   0  0  0  0  0  0  0  0  0  0  0  0
   11.3546   -8.0950    0.0000 H   0  0  0  0  0  0  0  0  0  0  0  0
    9.2112   -9.3325    0.0000 H   0  0  0  0  0  0  0  0  0  0  0  0
  1  2  1  0  0  0  0
  2  3  2  0  0  0  0
  1  4  2  0  0  0  0
  1  5  1  0  0  0  0
  6  7  1  0  0  0  0
  7  8  2  0  0  0  0
  8  9  1  0  0  0  0
  9 10  2  0  0  0  0
 10 11  1  0  0  0  0
  6 11  2  0  0  0  0
  9 12  1  0  0  0  0
  8 13  1  0  0  0  0
  3  6  1  0  0  0  0
 14 15  1  0  0  0  0
 15 16  1  0  0  0  0
 16 17  1  0  0  0  0
 17 18  1  0  0  0  0
 18 19  1  0  0  0  0
 19 20  1  0  0  0  0
 20 21  1  0  0  0  0
 21 22  1  0  0  0  0
 22 23  1  0  0  0  0
 23 24  1  0  0  0  0
 24 25  1  0  0  0  0
 25 26  1  0  0  0  0
 26 27  1  0  0  0  0
 27 28  1  0  0  0  0
 28 29  1  0  0  0  0
 29 30  1  0  0  0  0
 25 30  1  0  0  0  0
 30 31  1  0  0  0  0
 22 31  1  0  0  0  0
 31 32  2  0  0  0  0
 32 33  1  0  0  0  0
 33 34  1  0  0  0  0
 21 34  1  0  0  0  0
 34 35  1  0  0  0  0
 18 35  1  0  0  0  0
 14 35  1  0  0  0  0
 35 36  1  1  0  0  0
 28 37  1  0  0  0  0
 28 38  1  0  0  0  0
 22 39  1  6  0  0  0
 21 40  1  1  0  0  0
 17 41  1  0  0  0  0
 17 42  1  0  0  0  0
 43 44  1  0  0  0  0
 25 43  1  1  0  0  0
 16  5  1  1  0  0  0
 18 45  1  6  0  0  0
 30 46  1  1  0  0  0
 34 47  1  6  0  0  0
M  END
>  <cdx:fragmentId>
3601

$$$$
