301230.cdx
  Mrv1902 05222410212D          

 13 13  0  0  0  0            999 V2000
    7.2774   -7.4758    0.0000 C   0  0  2  0  0  0  0  0  0  0  0  0
    7.1912   -6.6553    0.0000 C   0  0  1  0  0  0  0  0  0  0  0  0
    7.9448   -6.3198    0.0000 C   0  0  0  0  0  0  0  0  0  0  0  0
    8.4969   -6.9329    0.0000 C   0  0  0  0  0  0  0  0  0  0  0  0
    8.0844   -7.6473    0.0000 C   0  0  0  0  0  0  0  0  0  0  0  0
    6.6643   -8.0278    0.0000 O   0  0  0  0  0  0  0  0  0  0  0  0
    9.3173   -6.8466    0.0000 C   0  0  0  0  0  0  0  0  0  0  0  0
    9.8023   -7.5141    0.0000 O   0  0  0  0  0  0  0  0  0  0  0  0
    8.1164   -5.5128    0.0000 C   0  0  0  0  0  0  0  0  0  0  0  0
    8.9010   -5.2579    0.0000 O   0  0  0  0  0  0  0  0  0  0  0  0
    6.4767   -6.2428    0.0000 C   0  0  0  0  0  0  0  0  0  0  0  0
    5.7622   -6.6553    0.0000 C   0  0  0  0  0  0  0  0  0  0  0  0
    5.0477   -6.2428    0.0000 O   0  0  0  0  0  0  0  0  0  0  0  0
  1  2  1  0  0  0  0
  2  3  1  0  0  0  0
  3  4  2  0  0  0  0
  4  5  1  0  0  0  0
  1  5  1  0  0  0  0
  1  6  1  6  0  0  0
  7  8  1  0  0  0  0
  4  7  1  0  0  0  0
  9 10  1  0  0  0  0
  3  9  1  0  0  0  0
 11 12  1  0  0  0  0
 12 13  1  0  0  0  0
  2 11  1  6  0  0  0
M  END
>  <cdx:groupId>
1064

>  <cdx:fragmentId>
1028

$$$$
