301229.cdx
  Mrv1902 05222410252D          

 33 36  0  0  0  0            999 V2000
    6.9183   -6.0241    0.0000 C   0  0  0  0  0  0  0  0  0  0  0  0
    6.2038   -5.6116    0.0000 C   0  0  0  0  0  0  0  0  0  0  0  0
    6.2038   -4.7866    0.0000 C   0  0  0  0  0  0  0  0  0  0  0  0
    5.4893   -4.3741    0.0000 C   0  0  0  0  0  0  0  0  0  0  0  0
    4.7749   -4.7866    0.0000 C   0  0  0  0  0  0  0  0  0  0  0  0
    4.7749   -5.6116    0.0000 C   0  0  0  0  0  0  0  0  0  0  0  0
    5.4893   -6.0241    0.0000 C   0  0  0  0  0  0  0  0  0  0  0  0
    7.6327   -5.6116    0.0000 O   0  0  0  0  0  0  0  0  0  0  0  0
    6.9183   -6.8491    0.0000 O   0  0  0  0  0  0  0  0  0  0  0  0
    4.0604   -6.0241    0.0000 O   0  0  0  0  0  0  0  0  0  0  0  0
    3.3459   -5.6116    0.0000 C   0  0  0  0  0  0  0  0  0  0  0  0
    4.0604   -4.3741    0.0000 O   0  0  0  0  0  0  0  0  0  0  0  0
    5.4893   -3.5491    0.0000 O   0  0  0  0  0  0  0  0  0  0  0  0
    7.6327   -8.0866    0.0000 C   0  0  2  0  0  0  0  0  0  0  0  0
    7.6327   -7.2616    0.0000 C   0  0  1  0  0  0  0  0  0  0  0  0
    8.3472   -6.8491    0.0000 C   0  0  0  0  0  0  0  0  0  0  0  0
    9.0617   -7.2616    0.0000 C   0  0  0  0  0  0  0  0  0  0  0  0
    9.7762   -6.8491    0.0000 C   0  0  0  0  0  0  0  0  0  0  0  0
   10.4906   -7.2616    0.0000 C   0  0  0  0  0  0  0  0  0  0  0  0
   10.4906   -8.0866    0.0000 C   0  0  0  0  0  0  0  0  0  0  0  0
    9.7762   -8.4991    0.0000 C   0  0  0  0  0  0  0  0  0  0  0  0
    9.0617   -8.0866    0.0000 C   0  0  0  0  0  0  0  0  0  0  0  0
    8.3472   -8.4991    0.0000 O   0  0  0  0  0  0  0  0  0  0  0  0
   11.2051   -8.4991    0.0000 O   0  0  0  0  0  0  0  0  0  0  0  0
    9.7762   -6.0241    0.0000 O   0  0  0  0  0  0  0  0  0  0  0  0
    6.9183   -8.4991    0.0000 C   0  0  0  0  0  0  0  0  0  0  0  0
    6.2038   -8.0866    0.0000 C   0  0  0  0  0  0  0  0  0  0  0  0
    5.4893   -8.4991    0.0000 C   0  0  0  0  0  0  0  0  0  0  0  0
    5.4893   -9.3241    0.0000 C   0  0  0  0  0  0  0  0  0  0  0  0
    6.2038   -9.7366    0.0000 C   0  0  0  0  0  0  0  0  0  0  0  0
    6.9183   -9.3241    0.0000 C   0  0  0  0  0  0  0  0  0  0  0  0
    4.7749   -9.7366    0.0000 O   0  0  0  0  0  0  0  0  0  0  0  0
    4.7749   -8.0866    0.0000 O   0  0  0  0  0  0  0  0  0  0  0  0
  1  2  1  0  0  0  0
  2  3  1  0  0  0  0
  3  4  2  0  0  0  0
  4  5  1  0  0  0  0
  5  6  2  0  0  0  0
  6  7  1  0  0  0  0
  2  7  2  0  0  0  0
  1  8  2  0  0  0  0
  1  9  1  0  0  0  0
 10 11  1  0  0  0  0
  6 10  1  0  0  0  0
  5 12  1  0  0  0  0
  4 13  1  0  0  0  0
 14 15  1  0  0  0  0
 15 16  1  0  0  0  0
 16 17  1  0  0  0  0
 17 18  1  0  0  0  0
 18 19  2  0  0  0  0
 19 20  1  0  0  0  0
 20 21  2  0  0  0  0
 21 22  1  0  0  0  0
 17 22  2  0  0  0  0
 22 23  1  0  0  0  0
 14 23  1  0  0  0  0
 20 24  1  0  0  0  0
 18 25  1  0  0  0  0
 26 27  1  0  0  0  0
 27 28  2  0  0  0  0
 28 29  1  0  0  0  0
 29 30  2  0  0  0  0
 30 31  1  0  0  0  0
 26 31  2  0  0  0  0
 29 32  1  0  0  0  0
 28 33  1  0  0  0  0
 14 26  1  6  0  0  0
 15  9  1  6  0  0  0
M  END
>  <cdx:groupId>
1017

>  <cdx:fragmentId>
944

$$$$
