301241.cdx
  Mrv1902 05222410192D          

 21 23  0  0  0  0            999 V2000
    7.2894   -7.2945    0.0000 O   0  0  0  0  0  0  0  0  0  0  0  0
    7.3634   -8.1162    0.0000 C   0  0  1  0  0  0  0  0  0  0  0  0
    8.1677   -8.2997    0.0000 C   0  0  2  0  0  0  0  0  0  0  0  0
    8.5908   -7.5915    0.0000 C   0  0  0  0  0  0  0  0  0  0  0  0
    8.0480   -6.9702    0.0000 C   0  0  0  0  0  0  0  0  0  0  0  0
    5.9337   -9.7105    0.0000 C   0  0  0  0  0  0  0  0  0  0  0  0
    5.4488   -9.0430    0.0000 C   0  0  0  0  0  0  0  0  0  0  0  0
    5.9337   -8.3756    0.0000 C   0  0  0  0  0  0  0  0  0  0  0  0
    6.7184   -8.6305    0.0000 C   0  0  1  0  0  0  0  0  0  0  0  0
    8.5256   -9.0430    0.0000 C   0  0  0  0  0  0  0  0  0  0  0  0
    8.1677   -9.7863    0.0000 C   0  0  0  0  0  0  0  0  0  0  0  0
    7.3634   -9.9699    0.0000 C   0  0  0  0  0  0  0  0  0  0  0  0
    6.7184   -9.4555    0.0000 C   0  0  2  0  0  0  0  0  0  0  0  0
    8.2316   -6.1659    0.0000 O   0  0  0  0  0  0  0  0  0  0  0  0
    5.6788   -7.5910    0.0000 C   0  0  0  0  0  0  0  0  0  0  0  0
    9.4125   -7.5176    0.0000 C   0  0  0  0  0  0  0  0  0  0  0  0
    7.1798  -10.7742    0.0000 C   0  0  0  0  0  0  0  0  0  0  0  0
    8.9927   -8.2997    0.0000 H   0  0  0  0  0  0  0  0  0  0  0  0
    6.5711  -10.2673    0.0000 H   0  0  0  0  0  0  0  0  0  0  0  0
    6.7184   -7.8055    0.0000 H   0  0  0  0  0  0  0  0  0  0  0  0
    7.3634   -8.9412    0.0000 H   0  0  0  0  0  0  0  0  0  0  0  0
  1  2  1  0  0  0  0
  2  3  1  0  0  0  0
  3  4  1  0  0  0  0
  4  5  1  0  0  0  0
  1  5  1  0  0  0  0
  6  7  1  0  0  0  0
  7  8  1  0  0  0  0
  8  9  1  0  0  0  0
 10 11  1  0  0  0  0
 11 12  2  0  0  0  0
 12 13  1  0  0  0  0
  6 13  1  0  0  0  0
  9 13  1  0  0  0  0
  9  2  1  0  0  0  0
 10  3  1  0  0  0  0
  5 14  2  0  0  0  0
  8 15  2  0  0  0  0
  4 16  2  0  0  0  0
 12 17  1  0  0  0  0
  3 18  1  1  0  0  0
 13 19  1  1  0  0  0
  9 20  1  1  0  0  0
  2 21  1  6  0  0  0
M  END
>  <cdx:groupId>
2674

>  <cdx:fragmentId>
2630

$$$$
