301294.cdx
  Mrv1902 05222410202D          

 29 31  0  0  0  0            999 V2000
    6.9436   -5.4941    0.0000 C   0  0  0  0  0  0  0  0  0  0  0  0
    7.6565   -5.0788    0.0000 C   0  0  0  0  0  0  0  0  0  0  0  0
    8.3726   -5.4885    0.0000 C   0  0  2  0  0  0  0  0  0  0  0  0
    8.3758   -6.3135    0.0000 C   0  0  2  0  0  0  0  0  0  0  0  0
    7.6629   -6.7288    0.0000 C   0  0  1  0  0  0  0  0  0  0  0  0
    6.9468   -6.3191    0.0000 O   0  0  0  0  0  0  0  0  0  0  0  0
    7.6533   -4.2538    0.0000 C   0  0  0  0  0  0  0  0  0  0  0  0
    9.0854   -5.0733    0.0000 C   0  0  0  0  0  0  0  0  0  0  0  0
    9.0822   -4.2483    0.0000 C   0  0  0  0  0  0  0  0  0  0  0  0
    8.3661   -3.8386    0.0000 O   0  0  0  0  0  0  0  0  0  0  0  0
    6.9372   -3.8441    0.0000 O   0  0  0  0  0  0  0  0  0  0  0  0
    9.0886   -5.8983    0.0000 O   0  0  0  0  0  0  0  0  0  0  0  0
    9.0918   -6.7233    0.0000 C   0  0  1  0  0  0  0  0  0  0  0  0
    9.0950   -7.5482    0.0000 C   0  0  0  0  0  0  0  0  0  0  0  0
    9.8111   -7.9580    0.0000 O   0  0  0  0  0  0  0  0  0  0  0  0
    9.8047   -6.3080    0.0000 O   0  0  0  0  0  0  0  0  0  0  0  0
    7.6417   -9.2036    0.0000 O   0  0  0  0  0  0  0  0  0  0  0  0
    6.2007  -10.0074    0.0000 O   0  0  0  0  0  0  0  0  0  0  0  0
    4.7841   -9.1613    0.0000 O   0  0  0  0  0  0  0  0  0  0  0  0
    4.0880   -7.9134    0.0000 O   0  0  0  0  0  0  0  0  0  0  0  0
    4.8085   -7.5115    0.0000 C   0  0  0  0  0  0  0  0  0  0  0  0
    5.5168   -7.9345    0.0000 C   0  0  2  0  0  0  0  0  0  0  0  0
    5.5046   -8.7594    0.0000 C   0  0  2  0  0  0  0  0  0  0  0  0
    6.2129   -9.1825    0.0000 C   0  0  1  0  0  0  0  0  0  0  0  0
    6.9334   -8.7806    0.0000 C   0  0  2  0  0  0  0  0  0  0  0  0
    6.9456   -7.9557    0.0000 C   0  0  1  0  0  0  0  0  0  0  0  0
    6.2373   -7.5326    0.0000 O   0  0  0  0  0  0  0  0  0  0  0  0
    7.6661   -7.5538    0.0000 O   0  0  0  0  0  0  0  0  0  0  0  0
    8.3790   -7.1385    0.0000 H   0  0  0  0  0  0  0  0  0  0  0  0
 26 28  1  1  0  0  0
 25 17  1  6  0  0  0
 24 18  1  1  0  0  0
 23 19  1  6  0  0  0
 22 21  1  1  0  0  0
 21 20  1  0  0  0  0
 27 22  1  0  0  0  0
 23 22  1  0  0  0  0
 24 23  1  0  0  0  0
 25 24  1  0  0  0  0
 26 25  1  0  0  0  0
 27 26  1  0  0  0  0
  1  2  2  0  0  0  0
  2  3  1  0  0  0  0
  3  4  1  0  0  0  0
  4  5  1  0  0  0  0
  5  6  1  0  0  0  0
  1  6  1  0  0  0  0
  8  9  1  0  0  0  0
  9 10  1  0  0  0  0
  7 10  1  0  0  0  0
  7  2  1  0  0  0  0
  8  3  1  0  0  0  0
  7 11  2  0  0  0  0
  5 28  1  6  0  0  0
  3 12  1  6  0  0  0
 13 14  1  0  0  0  0
 14 15  1  0  0  0  0
 13 16  1  6  0  0  0
  4 13  1  0  0  0  0
  4 29  1  6  0  0  0
M  END
>  <cdx:fragmentId>
2924

$$$$
