301296.cdx
  Mrv1902 05222410192D          

 49 54  0  0  0  0            999 V2000
    7.4575  -10.3775    0.0000 H   0  0  0  0  0  0  0  0  0  0  0  0
    8.1705   -9.1391    0.0000 H   0  0  0  0  0  0  0  0  0  0  0  0
    9.5973   -6.6623    0.0000 H   0  0  0  0  0  0  0  0  0  0  0  0
    5.3126   -8.3177    0.0000 O   0  0  0  0  0  0  0  0  0  0  0  0
    7.1561  -10.6803    0.0000 C   0  0  0  0  0  0  0  0  0  0  0  0
    8.8855   -7.9007    0.0000 C   0  0  0  0  0  0  0  0  0  0  0  0
   10.6118   -5.1215    0.0000 C   0  0  0  0  0  0  0  0  0  0  0  0
   11.4368   -5.1205    0.0000 C   0  0  0  0  0  0  0  0  0  0  0  0
    7.4565   -7.9025    0.0000 C   0  0  0  0  0  0  0  0  0  0  0  0
    3.8868  -10.7945    0.0000 O   0  0  0  0  0  0  0  0  0  0  0  0
    2.4568   -9.9713    0.0000 O   0  0  0  0  0  0  0  0  0  0  0  0
    2.4547   -8.3213    0.0000 O   0  0  0  0  0  0  0  0  0  0  0  0
    3.1676   -7.0829    0.0000 O   0  0  0  0  0  0  0  0  0  0  0  0
    3.8826   -7.4945    0.0000 C   0  0  0  0  0  0  0  0  0  0  0  0
    3.8836   -8.3195    0.0000 C   0  0  2  0  0  0  0  0  0  0  0  0
    3.1697   -8.7329    0.0000 C   0  0  2  0  0  0  0  0  0  0  0  0
    3.1707   -9.5579    0.0000 C   0  0  1  0  0  0  0  0  0  0  0  0
    3.8857   -9.9695    0.0000 C   0  0  2  0  0  0  0  0  0  0  0  0
    4.5997   -9.5561    0.0000 C   0  0  1  0  0  0  0  0  0  0  0  0
    4.5986   -8.7311    0.0000 O   0  0  0  0  0  0  0  0  0  0  0  0
    5.3147   -9.9677    0.0000 O   0  0  0  0  0  0  0  0  0  0  0  0
   12.4562   -7.4837    0.0000 O   0  0  0  0  0  0  0  0  0  0  0  0
   11.7433   -8.7221    0.0000 O   0  0  0  0  0  0  0  0  0  0  0  0
   11.7423   -7.8971    0.0000 C   0  0  0  0  0  0  0  0  0  0  0  0
    7.4565   -8.7275    0.0000 C   0  0  1  0  0  0  0  0  0  0  0  0
    8.1705   -8.3141    0.0000 C   0  0  1  0  0  0  0  0  0  0  0  0
    8.1694   -7.4891    0.0000 C   0  0  0  0  0  0  0  0  0  0  0  0
    8.8834   -7.0757    0.0000 C   0  0  0  0  0  0  0  0  0  0  0  0
    9.5984   -7.4873    0.0000 C   0  0  0  0  0  0  0  0  0  0  0  0
   10.3123   -7.0739    0.0000 C   0  0  2  0  0  0  0  0  0  0  0  0
   10.3113   -6.2489    0.0000 C   0  0  0  0  0  0  0  0  0  0  0  0
   11.0252   -5.8355    0.0000 C   0  0  0  0  0  0  0  0  0  0  0  0
   11.7402   -6.2471    0.0000 C   0  0  0  0  0  0  0  0  0  0  0  0
   11.7413   -7.0721    0.0000 C   0  0  0  0  0  0  0  0  0  0  0  0
   11.0273   -7.4855    0.0000 C   0  0  1  0  0  0  0  0  0  0  0  0
   11.0283   -8.3105    0.0000 C   0  0  0  0  0  0  0  0  0  0  0  0
   10.3144   -8.7239    0.0000 C   0  0  0  0  0  0  0  0  0  0  0  0
    9.5994   -8.3123    0.0000 C   0  0  0  0  0  0  0  0  0  0  0  0
    8.8855   -8.7257    0.0000 C   0  0  1  0  0  0  0  0  0  0  0  0
    8.8865   -9.5507    0.0000 C   0  0  0  0  0  0  0  0  0  0  0  0
    8.1725   -9.9641    0.0000 C   0  0  0  0  0  0  0  0  0  0  0  0
    7.4575   -9.5525    0.0000 C   0  0  1  0  0  0  0  0  0  0  0  0
    6.7436   -9.9659    0.0000 C   0  0  2  0  0  0  0  0  0  0  0  0
    6.0286   -9.5543    0.0000 C   0  0  2  0  0  0  0  0  0  0  0  0
    6.0276   -8.7293    0.0000 C   0  0  2  0  0  0  0  0  0  0  0  0
    6.7415   -8.3159    0.0000 C   0  0  0  0  0  0  0  0  0  0  0  0
    6.3311  -10.6803    0.0000 C   0  0  0  0  0  0  0  0  0  0  0  0
    6.7436  -11.3948    0.0000 O   0  0  0  0  0  0  0  0  0  0  0  0
    5.5061  -10.6803    0.0000 O   0  0  0  0  0  0  0  0  0  0  0  0
 42  1  1  6  0  0  0
 26  2  1  6  0  0  0
 30  3  1  1  0  0  0
 45  4  1  1  0  0  0
 43  5  1  1  0  0  0
 39  6  1  1  0  0  0
 32  7  1  0  0  0  0
 32  8  1  0  0  0  0
 25  9  1  1  0  0  0
 44 21  1  1  0  0  0
 19 21  1  1  0  0  0
 18 10  1  6  0  0  0
 17 11  1  1  0  0  0
 16 12  1  6  0  0  0
 15 14  1  1  0  0  0
 14 13  1  0  0  0  0
 20 15  1  0  0  0  0
 16 15  1  0  0  0  0
 17 16  1  0  0  0  0
 18 17  1  0  0  0  0
 19 18  1  0  0  0  0
 20 19  1  0  0  0  0
 35 24  1  1  0  0  0
 24 22  1  0  0  0  0
 24 23  2  0  0  0  0
 46 25  1  0  0  0  0
 42 25  1  0  0  0  0
 26 25  1  0  0  0  0
 39 26  1  0  0  0  0
 27 26  1  0  0  0  0
 28 27  1  0  0  0  0
 29 28  1  0  0  0  0
 38 29  2  0  0  0  0
 30 29  1  0  0  0  0
 35 30  1  0  0  0  0
 31 30  1  0  0  0  0
 32 31  1  0  0  0  0
 33 32  1  0  0  0  0
 34 33  1  0  0  0  0
 35 34  1  0  0  0  0
 36 35  1  0  0  0  0
 37 36  1  0  0  0  0
 38 37  1  0  0  0  0
 39 38  1  0  0  0  0
 40 39  1  0  0  0  0
 41 40  1  0  0  0  0
 42 41  1  0  0  0  0
 43 42  1  0  0  0  0
 44 43  1  0  0  0  0
 45 44  1  0  0  0  0
 46 45  1  0  0  0  0
 43 47  1  0  0  0  0
 47 48  1  0  0  0  0
 47 49  2  0  0  0  0
M  END
>  <cdx:fragmentId>
3124

$$$$
