301281.cdx
  Mrv1902 05222410202D          

 40 45  0  0  0  0            999 V2000
    4.2547   -9.8272    0.0000 C   0  0  2  0  0  0  0  0  0  0  0  0
    3.5992  -10.3281    0.0000 C   0  0  2  0  0  0  0  0  0  0  0  0
    2.8200  -10.0570    0.0000 C   0  0  0  0  0  0  0  0  0  0  0  0
    2.3214  -10.7143    0.0000 C   0  0  0  0  0  0  0  0  0  0  0  0
    2.7924  -11.3916    0.0000 C   0  0  0  0  0  0  0  0  0  0  0  0
    3.5821  -11.1530    0.0000 C   0  0  1  0  0  0  0  0  0  0  0  0
    4.2163  -11.6806    0.0000 C   0  0  1  0  0  0  0  0  0  0  0  0
    5.0243  -11.5136    0.0000 C   0  0  1  0  0  0  0  0  0  0  0  0
    5.8481  -11.4690    0.0000 O   0  0  0  0  0  0  0  0  0  0  0  0
    5.3975  -10.7779    0.0000 C   0  0  1  0  0  0  0  0  0  0  0  0
    5.0550  -10.0274    0.0000 C   0  0  1  0  0  0  0  0  0  0  0  0
    5.6285   -9.4343    0.0000 C   0  0  1  0  0  0  0  0  0  0  0  0
    6.4530   -9.4637    0.0000 O   0  0  0  0  0  0  0  0  0  0  0  0
    6.7358   -8.6887    0.0000 C   0  0  0  0  0  0  0  0  0  0  0  0
    6.0860   -8.1803    0.0000 O   0  0  0  0  0  0  0  0  0  0  0  0
    5.4017   -8.6411    0.0000 C   0  0  1  0  0  0  0  0  0  0  0  0
    4.6014   -8.4410    0.0000 C   0  0  0  0  0  0  0  0  0  0  0  0
    4.0279   -9.0340    0.0000 C   0  0  1  0  0  0  0  0  0  0  0  0
    4.8675   -9.2125    0.0000 O   0  0  0  0  0  0  0  0  0  0  0  0
    2.5213  -12.1708    0.0000 O   0  0  0  0  0  0  0  0  0  0  0  0
    3.2275   -8.8338    0.0000 C   0  0  0  0  0  0  0  0  0  0  0  0
    1.4965  -10.6972    0.0000 C   0  0  0  0  0  0  0  0  0  0  0  0
    5.1304  -12.3318    0.0000 C   0  0  0  0  0  0  0  0  0  0  0  0
    5.8919  -12.6490    0.0000 O   0  0  0  0  0  0  0  0  0  0  0  0
    4.0162  -12.4809    0.0000 O   0  0  0  0  0  0  0  0  0  0  0  0
    3.4180  -11.9615    0.0000 O   0  0  0  0  0  0  0  0  0  0  0  0
    3.4687   -9.5135    0.0000 H   0  0  0  0  0  0  0  0  0  0  0  0
    5.8371  -10.2901    0.0000 H   0  0  0  0  0  0  0  0  0  0  0  0
    5.4017   -7.8161    0.0000 C   0  0  0  0  0  0  0  0  0  0  0  0
    4.6873   -7.4036    0.0000 C   0  0  0  0  0  0  0  0  0  0  0  0
    6.1162   -7.4036    0.0000 C   0  0  0  0  0  0  0  0  0  0  0  0
    7.5290   -8.4619    0.0000 C   0  0  0  0  0  0  0  0  0  0  0  0
    8.1220   -9.0354    0.0000 C   0  0  0  0  0  0  0  0  0  0  0  0
    8.9152   -8.8086    0.0000 C   0  0  0  0  0  0  0  0  0  0  0  0
    9.5082   -9.3821    0.0000 C   0  0  0  0  0  0  0  0  0  0  0  0
   10.3014   -9.1553    0.0000 C   0  0  0  0  0  0  0  0  0  0  0  0
   10.8945   -9.7288    0.0000 C   0  0  0  0  0  0  0  0  0  0  0  0
   11.6877   -9.5020    0.0000 C   0  0  0  0  0  0  0  0  0  0  0  0
   12.2807  -10.0755    0.0000 C   0  0  0  0  0  0  0  0  0  0  0  0
   13.0739   -9.8487    0.0000 C   0  0  0  0  0  0  0  0  0  0  0  0
  1  2  1  0  0  0  0
  2  3  1  0  0  0  0
  3  4  2  0  0  0  0
  4  5  1  0  0  0  0
  5  6  1  0  0  0  0
  6  7  1  0  0  0  0
  7  8  1  0  0  0  0
  8  9  1  6  0  0  0
 10  9  1  6  0  0  0
 10 11  1  0  0  0  0
 11 12  1  0  0  0  0
 12 13  1  6  0  0  0
 13 14  1  0  0  0  0
 14 15  1  0  0  0  0
 16 15  1  6  0  0  0
 16 17  1  0  0  0  0
 17 18  1  0  0  0  0
  1 18  1  0  0  0  0
  1 19  1  6  0  0  0
 19 14  1  0  0  0  0
 12 16  1  0  0  0  0
  1 11  1  0  0  0  0
  8 10  1  0  0  0  0
  2  6  1  0  0  0  0
  5 20  2  0  0  0  0
 18 21  1  6  0  0  0
  4 22  1  0  0  0  0
 23 24  1  0  0  0  0
  8 23  1  0  0  0  0
  7 25  1  1  0  0  0
  6 26  1  1  0  0  0
  2 27  1  6  0  0  0
 11 28  1  1  0  0  0
 16 29  1  0  0  0  0
 29 30  1  0  0  0  0
 29 31  2  0  0  0  0
 14 32  1  0  0  0  0
 32 33  2  0  0  0  0
 33 34  1  0  0  0  0
 34 35  2  0  0  0  0
 35 36  1  0  0  0  0
 36 37  2  0  0  0  0
 37 38  1  0  0  0  0
 38 39  1  0  0  0  0
 39 40  1  0  0  0  0
M  END
>  <cdx:fragmentId>
2993

$$$$
