301292.cdx
  Mrv1902 05222410182D          

 38 43  0  0  0  0            999 V2000
    8.1395   -7.9925    0.0000 C   0  0  1  0  0  0  0  0  0  0  0  0
    7.4250   -8.4050    0.0000 C   0  0  2  0  0  0  0  0  0  0  0  0
    7.4250   -9.2300    0.0000 C   0  0  0  0  0  0  0  0  0  0  0  0
    6.7105   -9.6425    0.0000 C   0  0  0  0  0  0  0  0  0  0  0  0
    5.9961   -9.2300    0.0000 C   0  0  1  0  0  0  0  0  0  0  0  0
    5.2816   -9.6425    0.0000 C   0  0  0  0  0  0  0  0  0  0  0  0
    4.5671   -9.2300    0.0000 C   0  0  1  0  0  0  0  0  0  0  0  0
    4.5671   -8.4050    0.0000 C   0  0  1  0  0  0  0  0  0  0  0  0
    5.2816   -7.9925    0.0000 C   0  0  0  0  0  0  0  0  0  0  0  0
    5.9961   -8.4050    0.0000 C   0  0  2  0  0  0  0  0  0  0  0  0
    6.7105   -7.9925    0.0000 C   0  0  1  0  0  0  0  0  0  0  0  0
    6.7105   -7.1675    0.0000 C   0  0  0  0  0  0  0  0  0  0  0  0
    7.4250   -6.7550    0.0000 C   0  0  0  0  0  0  0  0  0  0  0  0
    8.1395   -7.1675    0.0000 C   0  0  1  0  0  0  0  0  0  0  0  0
    8.8539   -6.7550    0.0000 C   0  0  2  0  0  0  0  0  0  0  0  0
    8.8539   -5.9300    0.0000 C   0  0  2  0  0  0  0  0  0  0  0  0
    9.5684   -5.5175    0.0000 C   0  0  1  0  0  0  0  0  0  0  0  0
   10.2829   -5.9300    0.0000 C   0  0  0  0  0  0  0  0  0  0  0  0
   10.2829   -6.7550    0.0000 C   0  0  0  0  0  0  0  0  0  0  0  0
    9.5684   -7.1675    0.0000 C   0  0  2  0  0  0  0  0  0  0  0  0
    9.5684   -7.9925    0.0000 C   0  0  0  0  0  0  0  0  0  0  0  0
    8.8539   -8.4050    0.0000 C   0  0  0  0  0  0  0  0  0  0  0  0
    8.8539   -7.5800    0.0000 C   0  0  0  0  0  0  0  0  0  0  0  0
   10.2829   -7.5800    0.0000 C   0  0  0  0  0  0  0  0  0  0  0  0
   10.2829   -8.4050    0.0000 O   0  0  0  0  0  0  0  0  0  0  0  0
   10.9974   -7.1675    0.0000 O   0  0  0  0  0  0  0  0  0  0  0  0
    9.5684   -4.6925    0.0000 C   0  0  0  0  0  0  0  0  0  0  0  0
    8.4414   -5.2155    0.0000 C   0  0  0  0  0  0  0  0  0  0  0  0
    5.9961   -7.5800    0.0000 C   0  0  0  0  0  0  0  0  0  0  0  0
    5.6941  -10.3569    0.0000 C   0  0  0  0  0  0  0  0  0  0  0  0
    4.8691  -10.3569    0.0000 C   0  0  0  0  0  0  0  0  0  0  0  0
    7.4250   -7.5800    0.0000 C   0  0  0  0  0  0  0  0  0  0  0  0
    8.0289   -5.9300    0.0000 O   0  0  0  0  0  0  0  0  0  0  0  0
    3.8526   -7.9925    0.0000 O   0  0  0  0  0  0  0  0  0  0  0  0
    3.8526   -9.6425    0.0000 O   0  0  0  0  0  0  0  0  0  0  0  0
    5.9961  -10.0550    0.0000 H   0  0  0  0  0  0  0  0  0  0  0  0
    6.7105   -8.8175    0.0000 H   0  0  0  0  0  0  0  0  0  0  0  0
    8.1395   -6.3425    0.0000 H   0  0  0  0  0  0  0  0  0  0  0  0
  1  2  1  0  0  0  0
  2  3  1  0  0  0  0
  3  4  1  0  0  0  0
  4  5  1  0  0  0  0
  5  6  1  0  0  0  0
  6  7  1  0  0  0  0
  7  8  1  0  0  0  0
  8  9  1  0  0  0  0
  9 10  1  0  0  0  0
 10 11  1  0  0  0  0
 11 12  1  0  0  0  0
 12 13  2  0  0  0  0
 13 14  1  0  0  0  0
 14 15  1  0  0  0  0
 15 16  1  0  0  0  0
 16 17  1  0  0  0  0
 17 18  1  0  0  0  0
 18 19  1  0  0  0  0
 19 20  1  0  0  0  0
 20 21  1  0  0  0  0
 21 22  1  0  0  0  0
  1 22  1  0  0  0  0
  1 23  1  6  0  0  0
 14 23  1  6  0  0  0
 15 20  1  0  0  0  0
  1 14  1  0  0  0  0
  2 11  1  0  0  0  0
  5 10  1  0  0  0  0
 24 25  2  0  0  0  0
 24 26  1  0  0  0  0
 20 24  1  1  0  0  0
 17 27  1  6  0  0  0
 16 28  1  1  0  0  0
 10 29  1  1  0  0  0
  6 30  1  0  0  0  0
  6 31  1  0  0  0  0
  2 32  1  1  0  0  0
 16 33  1  6  0  0  0
  8 34  1  6  0  0  0
  7 35  1  6  0  0  0
  5 36  1  6  0  0  0
 11 37  1  6  0  0  0
 15 38  1  1  0  0  0
M  END
>  <cdx:groupId>
2764

>  <cdx:fragmentId>
2648

$$$$
