301242.cdx
  Mrv1902 05222410202D          

 16 17  0  0  0  0            999 V2000
    8.7079   -9.6536    0.0000 C   0  0  0  0  0  0  0  0  0  0  0  0
    8.7079   -8.8286    0.0000 C   0  0  0  0  0  0  0  0  0  0  0  0
    9.4224   -8.4161    0.0000 C   0  0  0  0  0  0  0  0  0  0  0  0
    9.4224   -9.2411    0.0000 O   0  0  0  0  0  0  0  0  0  0  0  0
    7.2790   -8.8286    0.0000 C   0  0  0  0  0  0  0  0  0  0  0  0
    7.9934   -8.4161    0.0000 C   0  0  1  0  0  0  0  0  0  0  0  0
    7.9934   -7.5911    0.0000 C   0  0  0  0  0  0  0  0  0  0  0  0
    7.2790   -7.1786    0.0000 C   0  0  0  0  0  0  0  0  0  0  0  0
    6.5645   -7.5911    0.0000 C   0  0  0  0  0  0  0  0  0  0  0  0
    5.8500   -7.1786    0.0000 C   0  0  0  0  0  0  0  0  0  0  0  0
    5.1355   -7.5911    0.0000 C   0  0  0  0  0  0  0  0  0  0  0  0
    5.1355   -8.4161    0.0000 C   0  0  0  0  0  0  0  0  0  0  0  0
    5.8500   -8.8286    0.0000 C   0  0  1  0  0  0  0  0  0  0  0  0
    6.5645   -8.4161    0.0000 C   0  0  1  0  0  0  0  0  0  0  0  0
    6.5645   -9.2411    0.0000 C   0  0  0  0  0  0  0  0  0  0  0  0
    5.8500   -9.6536    0.0000 C   0  0  0  0  0  0  0  0  0  0  0  0
  1  2  1  0  0  0  0
  2  3  1  0  0  0  0
  2  4  1  0  0  0  0
  5  6  1  0  0  0  0
  6  7  1  0  0  0  0
  7  8  1  0  0  0  0
  8  9  1  0  0  0  0
  9 10  2  0  0  0  0
 10 11  1  0  0  0  0
 11 12  1  0  0  0  0
 12 13  1  0  0  0  0
 13 14  1  0  0  0  0
  5 14  1  0  0  0  0
  9 14  1  0  0  0  0
 14 15  1  1  0  0  0
 13 16  1  1  0  0  0
  6  2  1  1  0  0  0
M  END
>  <cdx:groupId>
2728

>  <cdx:fragmentId>
2690

$$$$
