301298.cdx
  Mrv1902 05222410262D          

 44 48  0  0  0  0            999 V2000
   14.7922  -10.2957    0.0000 P   0  0  0  0  0  0  0  0  0  0  0  0
   14.7922   -9.4707    0.0000 O   0  0  0  0  0  0  0  0  0  0  0  0
   14.7922  -11.1207    0.0000 O   0  0  0  0  0  0  0  0  0  0  0  0
   15.5066  -10.7082    0.0000 O   0  0  0  0  0  0  0  0  0  0  0  0
   14.0777  -10.7082    0.0000 O   0  0  0  0  0  0  0  0  0  0  0  0
   16.2211  -10.2957    0.0000 C   0  0  0  0  0  0  0  0  0  0  0  0
   17.6893  -10.3726    0.0000 O   0  0  0  0  0  0  0  0  0  0  0  0
   16.9356  -10.7082    0.0000 C   0  0  1  0  0  0  0  0  0  0  0  0
   17.0218  -11.5286    0.0000 C   0  0  2  0  0  0  0  0  0  0  0  0
   17.8288  -11.7002    0.0000 C   0  0  2  0  0  0  0  0  0  0  0  0
   18.2413  -10.9857    0.0000 C   0  0  2  0  0  0  0  0  0  0  0  0
   18.1643  -12.4538    0.0000 O   0  0  0  0  0  0  0  0  0  0  0  0
   16.4087  -12.0807    0.0000 O   0  0  0  0  0  0  0  0  0  0  0  0
   19.0618  -10.8995    0.0000 C   0  0  0  0  0  0  0  0  0  0  0  0
   19.3973  -10.1458    0.0000 C   0  0  0  0  0  0  0  0  0  0  0  0
   20.2178  -10.0596    0.0000 C   0  0  0  0  0  0  0  0  0  0  0  0
   20.7027  -10.7270    0.0000 C   0  0  0  0  0  0  0  0  0  0  0  0
   20.3672  -11.4807    0.0000 C   0  0  0  0  0  0  0  0  0  0  0  0
   19.5467  -11.5669    0.0000 N   0  0  0  0  0  0  0  0  0  0  0  0
   20.8521  -12.1481    0.0000 C   0  0  0  0  0  0  0  0  0  0  0  0
   21.6726  -12.0619    0.0000 N   0  0  0  0  0  0  0  0  0  0  0  0
   20.5165  -12.9018    0.0000 O   0  0  0  0  0  0  0  0  0  0  0  0
   13.3632  -10.2957    0.0000 P   0  0  0  0  0  0  0  0  0  0  0  0
   13.3632   -9.4707    0.0000 O   0  0  0  0  0  0  0  0  0  0  0  0
   12.6488  -10.7082    0.0000 O   0  0  0  0  0  0  0  0  0  0  0  0
   13.3632  -11.1207    0.0000 O   0  0  0  0  0  0  0  0  0  0  0  0
   10.8893  -11.3104    0.0000 O   0  0  0  0  0  0  0  0  0  0  0  0
   11.1383  -10.5239    0.0000 C   0  0  1  0  0  0  0  0  0  0  0  0
   10.4673  -10.0440    0.0000 C   0  0  2  0  0  0  0  0  0  0  0  0
    9.8035  -10.5339    0.0000 C   0  0  2  0  0  0  0  0  0  0  0  0
   10.0643  -11.3166    0.0000 C   0  0  2  0  0  0  0  0  0  0  0  0
    9.0170  -10.2849    0.0000 O   0  0  0  0  0  0  0  0  0  0  0  0
   10.4611   -9.2190    0.0000 O   0  0  0  0  0  0  0  0  0  0  0  0
    9.1814  -13.2603    0.0000 N   0  0  0  0  0  0  0  0  0  0  0  0
    9.8452  -12.7703    0.0000 C   0  0  0  0  0  0  0  0  0  0  0  0
    9.5844  -11.9877    0.0000 N   0  0  0  0  0  0  0  0  0  0  0  0
    8.7594  -11.9938    0.0000 C   0  0  0  0  0  0  0  0  0  0  0  0
    8.2028  -11.3849    0.0000 N   0  0  0  0  0  0  0  0  0  0  0  0
    7.3971  -11.5625    0.0000 C   0  0  0  0  0  0  0  0  0  0  0  0
    7.1481  -12.3490    0.0000 N   0  0  0  0  0  0  0  0  0  0  0  0
    7.7047  -12.9579    0.0000 C   0  0  0  0  0  0  0  0  0  0  0  0
    8.5104  -12.7803    0.0000 C   0  0  0  0  0  0  0  0  0  0  0  0
    7.4556  -13.7444    0.0000 N   0  0  0  0  0  0  0  0  0  0  0  0
   11.9210  -10.2631    0.0000 C   0  0  0  0  0  0  0  0  0  0  0  0
  1  2  2  0  0  0  0
  1  3  1  0  0  0  0
  1  4  1  0  0  0  0
  1  5  1  0  0  0  0
  7  8  1  0  0  0  0
  8  9  1  0  0  0  0
  9 10  1  0  0  0  0
 10 11  1  0  0  0  0
  7 11  1  0  0  0  0
 10 12  1  6  0  0  0
  9 13  1  6  0  0  0
 14 15  1  0  0  0  0
 15 16  2  0  0  0  0
 16 17  1  0  0  0  0
 17 18  2  0  0  0  0
 18 19  1  0  0  0  0
 14 19  2  0  0  0  0
 20 21  1  0  0  0  0
 20 22  2  0  0  0  0
 18 20  1  0  0  0  0
 11 14  1  1  0  0  0
  8  6  1  1  0  0  0
  4  6  1  0  0  0  0
 23 24  2  0  0  0  0
 23 25  1  0  0  0  0
 23 26  1  0  0  0  0
 27 28  1  0  0  0  0
 28 29  1  0  0  0  0
 29 30  1  0  0  0  0
 30 31  1  0  0  0  0
 27 31  1  0  0  0  0
 30 32  1  6  0  0  0
 29 33  1  6  0  0  0
 34 35  2  0  0  0  0
 35 36  1  0  0  0  0
 36 37  1  0  0  0  0
 37 38  2  0  0  0  0
 38 39  1  0  0  0  0
 39 40  2  0  0  0  0
 40 41  1  0  0  0  0
 41 42  2  0  0  0  0
 34 42  1  0  0  0  0
 37 42  1  0  0  0  0
 41 43  1  0  0  0  0
 31 36  1  1  0  0  0
  5 23  1  0  0  0  0
 28 44  1  1  0  0  0
 44 25  1  0  0  0  0
M  END
>  <cdx:fragmentId>
3581

$$$$
