301267.cdx
  Mrv1902 05222410262D          

 13 12  0  0  0  0            999 V2000
    3.4954   -6.0241    0.0000 C   0  0  0  0  0  0  0  0  0  0  0  0
    4.2099   -6.4366    0.0000 C   0  0  0  0  0  0  0  0  0  0  0  0
    4.9244   -6.0241    0.0000 O   0  0  0  0  0  0  0  0  0  0  0  0
    5.6388   -7.2616    0.0000 O   0  0  0  0  0  0  0  0  0  0  0  0
   11.3546   -6.4366    0.0000 C   0  0  0  0  0  0  0  0  0  0  0  0
   10.6401   -6.0241    0.0000 C   0  0  0  0  0  0  0  0  0  0  0  0
    9.9256   -6.4366    0.0000 C   0  0  0  0  0  0  0  0  0  0  0  0
    9.2112   -6.0241    0.0000 C   0  0  0  0  0  0  0  0  0  0  0  0
    8.4967   -6.4366    0.0000 C   0  0  0  0  0  0  0  0  0  0  0  0
    7.7822   -6.0241    0.0000 C   0  0  0  0  0  0  0  0  0  0  0  0
    7.0678   -6.4366    0.0000 C   0  0  0  0  0  0  0  0  0  0  0  0
    6.3533   -6.0241    0.0000 C   0  0  0  0  0  0  0  0  0  0  0  0
    5.6388   -6.4366    0.0000 C   0  0  0  0  0  0  0  0  0  0  0  0
  3  2  1  0  0  0  0
  2  1  1  0  0  0  0
 13  3  1  0  0  0  0
 13  4  2  0  0  0  0
  6  5  1  0  0  0  0
  7  6  1  0  0  0  0
  8  7  1  0  0  0  0
  9  8  1  0  0  0  0
 10  9  1  0  0  0  0
 11 10  1  0  0  0  0
 12 11  1  0  0  0  0
 13 12  1  0  0  0  0
M  END
>  <cdx:fragmentId>
647

$$$$
