301224.cdx
  Mrv1902 05222410212D          

 19 21  0  0  0  0            999 V2000
    8.7045   -6.2304    0.0000 C   0  0  0  0  0  0  0  0  0  0  0  0
    9.4189   -6.6429    0.0000 C   0  0  0  0  0  0  0  0  0  0  0  0
    9.4189   -7.4679    0.0000 C   0  0  0  0  0  0  0  0  0  0  0  0
    8.7045   -7.8804    0.0000 C   0  0  0  0  0  0  0  0  0  0  0  0
    7.9900   -7.4679    0.0000 C   0  0  0  0  0  0  0  0  0  0  0  0
    7.2755   -7.8804    0.0000 C   0  0  0  0  0  0  0  0  0  0  0  0
    6.5610   -7.4679    0.0000 C   0  0  0  0  0  0  0  0  0  0  0  0
    5.8466   -7.8804    0.0000 C   0  0  0  0  0  0  0  0  0  0  0  0
    5.1321   -7.4679    0.0000 C   0  0  0  0  0  0  0  0  0  0  0  0
    5.1321   -6.6429    0.0000 C   0  0  0  0  0  0  0  0  0  0  0  0
    5.8466   -6.2304    0.0000 C   0  0  0  0  0  0  0  0  0  0  0  0
    6.5610   -6.6429    0.0000 C   0  0  0  0  0  0  0  0  0  0  0  0
    7.2755   -6.2304    0.0000 C   0  0  0  0  0  0  0  0  0  0  0  0
    7.9900   -6.6429    0.0000 C   0  0  0  0  0  0  0  0  0  0  0  0
    7.2755   -5.4054    0.0000 O   0  0  0  0  0  0  0  0  0  0  0  0
    4.4176   -7.8804    0.0000 C   0  0  0  0  0  0  0  0  0  0  0  0
    5.8466   -5.4054    0.0000 O   0  0  0  0  0  0  0  0  0  0  0  0
   10.1334   -7.8804    0.0000 O   0  0  0  0  0  0  0  0  0  0  0  0
    8.7045   -5.4054    0.0000 O   0  0  0  0  0  0  0  0  0  0  0  0
  1  2  1  0  0  0  0
  2  3  2  0  0  0  0
  3  4  1  0  0  0  0
  4  5  2  0  0  0  0
  5  6  1  0  0  0  0
  6  7  1  0  0  0  0
  7  8  1  0  0  0  0
  8  9  2  0  0  0  0
  9 10  1  0  0  0  0
 10 11  2  0  0  0  0
 11 12  1  0  0  0  0
  7 12  2  0  0  0  0
 12 13  1  0  0  0  0
 13 14  1  0  0  0  0
  5 14  1  0  0  0  0
  1 14  2  0  0  0  0
 13 15  2  0  0  0  0
  9 16  1  0  0  0  0
 11 17  1  0  0  0  0
  3 18  1  0  0  0  0
  1 19  1  0  0  0  0
M  END
>  <cdx:groupId>
616

>  <cdx:fragmentId>
560

$$$$
