301235.cdx
  Mrv1902 05222410232D          

 68 73  0  0  0  0            999 V2000
    8.7165  -12.8374    0.0000 C   0  0  0  0  0  0  0  0  0  0  0  0
    8.7049  -13.6623    0.0000 C   0  0  0  0  0  0  0  0  0  0  0  0
    8.0078  -12.4149    0.0000 O   0  0  0  0  0  0  0  0  0  0  0  0
    9.4366  -12.4350    0.0000 O   0  0  0  0  0  0  0  0  0  0  0  0
    9.4482  -11.6101    0.0000 C   0  0  0  0  0  0  0  0  0  0  0  0
   10.1800  -10.3827    0.0000 O   0  0  0  0  0  0  0  0  0  0  0  0
   10.1684  -11.2076    0.0000 C   0  0  1  0  0  0  0  0  0  0  0  0
    9.4714   -9.9602    0.0000 O   0  0  0  0  0  0  0  0  0  0  0  0
    8.7512  -10.3627    0.0000 C   0  0  0  0  0  0  0  0  0  0  0  0
    8.7396  -11.1876    0.0000 O   0  0  0  0  0  0  0  0  0  0  0  0
   10.8770  -11.6301    0.0000 C   0  0  2  0  0  0  0  0  0  0  0  0
   11.5972  -11.2277    0.0000 C   0  0  1  0  0  0  0  0  0  0  0  0
   11.6088  -10.4027    0.0000 C   0  0  2  0  0  0  0  0  0  0  0  0
   10.9002   -9.9803    0.0000 C   0  0  2  0  0  0  0  0  0  0  0  0
   12.3290  -10.0003    0.0000 O   0  0  0  0  0  0  0  0  0  0  0  0
   10.8654  -12.4550    0.0000 O   0  0  0  0  0  0  0  0  0  0  0  0
   10.9117   -9.1554    0.0000 O   0  0  0  0  0  0  0  0  0  0  0  0
   12.3058  -11.6501    0.0000 O   0  0  0  0  0  0  0  0  0  0  0  0
   12.2942  -12.4751    0.0000 C   0  0  0  0  0  0  0  0  0  0  0  0
   11.5741  -12.8775    0.0000 O   0  0  0  0  0  0  0  0  0  0  0  0
   13.0029  -12.8975    0.0000 C   0  0  0  0  0  0  0  0  0  0  0  0
    8.0426   -9.9402    0.0000 C   0  0  0  0  0  0  0  0  0  0  0  0
   10.9349   -7.5055    0.0000 O   0  0  0  0  0  0  0  0  0  0  0  0
    6.6485   -7.4454    0.0000 O   0  0  0  0  0  0  0  0  0  0  0  0
   12.4099   -4.2259    0.0000 C   0  0  0  0  0  0  0  0  0  0  0  0
   11.7013   -3.8034    0.0000 O   0  0  0  0  0  0  0  0  0  0  0  0
    9.5523   -4.1858    0.0000 C   0  0  0  0  0  0  0  0  0  0  0  0
   10.2725   -3.7834    0.0000 C   0  0  0  0  0  0  0  0  0  0  0  0
   10.9811   -4.2058    0.0000 C   0  0  0  0  0  0  0  0  0  0  0  0
   10.9696   -5.0308    0.0000 C   0  0  0  0  0  0  0  0  0  0  0  0
   10.2494   -5.4332    0.0000 C   0  0  0  0  0  0  0  0  0  0  0  0
    9.5408   -5.0107    0.0000 C   0  0  0  0  0  0  0  0  0  0  0  0
    5.2891   -2.4758    0.0000 C   0  0  0  0  0  0  0  0  0  0  0  0
    6.7179   -2.4959    0.0000 C   0  0  0  0  0  0  0  0  0  0  0  0
    5.9977   -2.8983    0.0000 C   0  0  0  0  0  0  0  0  0  0  0  0
    5.9861   -3.7232    0.0000 C   0  0  0  0  0  0  0  0  0  0  0  0
    6.6947   -4.1457    0.0000 C   0  0  0  0  0  0  0  0  0  0  0  0
    8.0773   -7.4654    0.0000 O   0  0  0  0  0  0  0  0  0  0  0  0
    5.2312   -6.6004    0.0000 O   0  0  0  0  0  0  0  0  0  0  0  0
    3.7909   -7.4053    0.0000 O   0  0  0  0  0  0  0  0  0  0  0  0
    2.3736   -6.5604    0.0000 O   0  0  0  0  0  0  0  0  0  0  0  0
    1.6766   -5.3130    0.0000 O   0  0  0  0  0  0  0  0  0  0  0  0
    2.3968   -4.9105    0.0000 C   0  0  0  0  0  0  0  0  0  0  0  0
    3.1054   -5.3330    0.0000 C   0  0  2  0  0  0  0  0  0  0  0  0
    3.0938   -6.1579    0.0000 C   0  0  2  0  0  0  0  0  0  0  0  0
    3.8024   -6.5804    0.0000 C   0  0  1  0  0  0  0  0  0  0  0  0
    4.5226   -6.1780    0.0000 C   0  0  2  0  0  0  0  0  0  0  0  0
    4.5342   -5.3530    0.0000 C   0  0  1  0  0  0  0  0  0  0  0  0
    3.8256   -4.9306    0.0000 O   0  0  0  0  0  0  0  0  0  0  0  0
    5.2544   -4.9506    0.0000 O   0  0  0  0  0  0  0  0  0  0  0  0
    8.1120   -4.9907    0.0000 O   0  0  0  0  0  0  0  0  0  0  0  0
    7.3918   -5.3931    0.0000 C   0  0  0  0  0  0  0  0  0  0  0  0
    6.6832   -4.9706    0.0000 C   0  0  0  0  0  0  0  0  0  0  0  0
    5.9630   -5.3731    0.0000 C   0  0  0  0  0  0  0  0  0  0  0  0
    5.9514   -6.1980    0.0000 C   0  0  0  0  0  0  0  0  0  0  0  0
    6.6600   -6.6205    0.0000 C   0  0  0  0  0  0  0  0  0  0  0  0
    7.3802   -6.2180    0.0000 C   0  0  0  0  0  0  0  0  0  0  0  0
    8.0888   -6.6405    0.0000 C   0  0  0  0  0  0  0  0  0  0  0  0
    8.8090   -6.2381    0.0000 C   0  0  0  0  0  0  0  0  0  0  0  0
    8.8206   -5.4132    0.0000 C   0  0  0  0  0  0  0  0  0  0  0  0
    9.5176   -6.6606    0.0000 O   0  0  0  0  0  0  0  0  0  0  0  0
    8.0541   -9.1153    0.0000 C   0  0  0  0  0  0  0  0  0  0  0  0
    8.7743   -8.7128    0.0000 C   0  0  1  0  0  0  0  0  0  0  0  0
    9.4829   -9.1353    0.0000 C   0  0  1  0  0  0  0  0  0  0  0  0
   10.2031   -8.7329    0.0000 C   0  0  2  0  0  0  0  0  0  0  0  0
   10.2147   -7.9080    0.0000 C   0  0  2  0  0  0  0  0  0  0  0  0
    9.5061   -7.4855    0.0000 C   0  0  1  0  0  0  0  0  0  0  0  0
    8.7859   -7.8879    0.0000 O   0  0  0  0  0  0  0  0  0  0  0  0
 65 17  1  6  0  0  0
 64  8  1  1  0  0  0
 66 23  1  6  0  0  0
 67 61  1  1  0  0  0
 61 59  1  0  0  0  0
 56 24  1  0  0  0  0
 60 32  1  0  0  0  0
 29 26  1  0  0  0  0
 26 25  1  0  0  0  0
 32 27  2  0  0  0  0
 28 27  1  0  0  0  0
 29 28  2  0  0  0  0
 30 29  1  0  0  0  0
 31 30  2  0  0  0  0
 32 31  1  0  0  0  0
 53 37  1  0  0  0  0
 35 33  1  0  0  0  0
 35 34  1  0  0  0  0
 36 35  2  0  0  0  0
 37 36  1  0  0  0  0
 58 38  2  0  0  0  0
 54 50  1  0  0  0  0
 48 50  1  1  0  0  0
 47 39  1  6  0  0  0
 46 40  1  1  0  0  0
 45 41  1  6  0  0  0
 44 43  1  1  0  0  0
 43 42  1  0  0  0  0
 49 44  1  0  0  0  0
 45 44  1  0  0  0  0
 46 45  1  0  0  0  0
 47 46  1  0  0  0  0
 48 47  1  0  0  0  0
 49 48  1  0  0  0  0
 60 51  1  0  0  0  0
 52 51  1  0  0  0  0
 57 52  2  0  0  0  0
 53 52  1  0  0  0  0
 54 53  2  0  0  0  0
 55 54  1  0  0  0  0
 56 55  2  0  0  0  0
 57 56  1  0  0  0  0
 58 57  1  0  0  0  0
 59 58  1  0  0  0  0
 60 59  2  0  0  0  0
 63 62  1  6  0  0  0
 68 63  1  0  0  0  0
 64 63  1  0  0  0  0
 65 64  1  0  0  0  0
 66 65  1  0  0  0  0
 67 66  1  0  0  0  0
 68 67  1  0  0  0  0
  1  2  1  0  0  0  0
  1  3  2  0  0  0  0
  1  4  1  0  0  0  0
  6  7  1  0  0  0  0
  9 10  2  0  0  0  0
  9 22  1  0  0  0  0
  8  9  1  0  0  0  0
  7 11  1  0  0  0  0
 11 12  1  0  0  0  0
 12 13  1  0  0  0  0
 13 14  1  0  0  0  0
  6 14  1  0  0  0  0
 13 15  1  6  0  0  0
 11 16  1  6  0  0  0
 14 17  1  1  0  0  0
 19 20  2  0  0  0  0
 19 21  1  0  0  0  0
 18 19  1  0  0  0  0
 12 18  1  1  0  0  0
  7  5  1  1  0  0  0
  4  5  1  0  0  0  0
M  END
>  <cdx:groupId>
1843

>  <cdx:fragmentId>
1703

$$$$
