301216.cdx
  Mrv1902 05222410242D          

 40 43  0  0  0  0            999 V2000
    4.2672   -5.4079    0.0000 C   0  0  1  0  0  0  0  0  0  0  0  0
    4.9817   -5.8204    0.0000 C   0  0  2  0  0  0  0  0  0  0  0  0
    4.9817   -6.6454    0.0000 C   0  0  0  0  0  0  0  0  0  0  0  0
    4.2672   -4.5829    0.0000 O   0  0  0  0  0  0  0  0  0  0  0  0
    4.2672   -7.0579    0.0000 O   0  0  0  0  0  0  0  0  0  0  0  0
    5.6962   -5.4079    0.0000 O   0  0  0  0  0  0  0  0  0  0  0  0
    6.4106   -5.8204    0.0000 C   0  0  0  0  0  0  0  0  0  0  0  0
    6.4106   -6.6454    0.0000 C   0  0  0  0  0  0  0  0  0  0  0  0
    7.1251   -7.0579    0.0000 C   0  0  0  0  0  0  0  0  0  0  0  0
    7.8396   -6.6454    0.0000 C   0  0  0  0  0  0  0  0  0  0  0  0
    7.8396   -5.8204    0.0000 C   0  0  0  0  0  0  0  0  0  0  0  0
    7.1251   -5.4079    0.0000 C   0  0  0  0  0  0  0  0  0  0  0  0
    8.5541   -7.0579    0.0000 C   0  0  0  0  0  0  0  0  0  0  0  0
   10.0073   -5.4941    0.0000 O   0  0  0  0  0  0  0  0  0  0  0  0
    9.2225   -5.7485    0.0000 C   0  0  0  0  0  0  0  0  0  0  0  0
    9.2219   -6.5735    0.0000 C   0  0  2  0  0  0  0  0  0  0  0  0
   10.0063   -6.8290    0.0000 C   0  0  2  0  0  0  0  0  0  0  0  0
   10.4917   -6.1619    0.0000 C   0  0  2  0  0  0  0  0  0  0  0  0
   10.2606   -7.6138    0.0000 C   0  0  0  0  0  0  0  0  0  0  0  0
    9.7410   -8.2546    0.0000 O   0  0  0  0  0  0  0  0  0  0  0  0
   11.3167   -6.1626    0.0000 C   0  0  0  0  0  0  0  0  0  0  0  0
   11.7298   -5.4484    0.0000 C   0  0  0  0  0  0  0  0  0  0  0  0
   12.5548   -5.4490    0.0000 C   0  0  0  0  0  0  0  0  0  0  0  0
   12.9667   -6.1638    0.0000 C   0  0  0  0  0  0  0  0  0  0  0  0
   12.5537   -6.8780    0.0000 C   0  0  0  0  0  0  0  0  0  0  0  0
   11.7287   -6.8773    0.0000 C   0  0  0  0  0  0  0  0  0  0  0  0
   12.9678   -4.7349    0.0000 O   0  0  0  0  0  0  0  0  0  0  0  0
   13.7928   -4.7355    0.0000 C   0  0  0  0  0  0  0  0  0  0  0  0
   13.7917   -6.1644    0.0000 O   0  0  0  0  0  0  0  0  0  0  0  0
    3.5528   -5.8204    0.0000 C   0  0  0  0  0  0  0  0  0  0  0  0
    2.8383   -5.4079    0.0000 C   0  0  0  0  0  0  0  0  0  0  0  0
    2.1238   -5.8204    0.0000 C   0  0  0  0  0  0  0  0  0  0  0  0
    2.1238   -6.6454    0.0000 C   0  0  0  0  0  0  0  0  0  0  0  0
    2.8383   -7.0579    0.0000 C   0  0  0  0  0  0  0  0  0  0  0  0
    3.5528   -6.6454    0.0000 C   0  0  0  0  0  0  0  0  0  0  0  0
    1.4093   -7.0579    0.0000 O   0  0  0  0  0  0  0  0  0  0  0  0
    7.1251   -4.5829    0.0000 O   0  0  0  0  0  0  0  0  0  0  0  0
    6.4106   -4.1704    0.0000 C   0  0  0  0  0  0  0  0  0  0  0  0
    2.8383   -7.8829    0.0000 O   0  0  0  0  0  0  0  0  0  0  0  0
    2.1238   -8.2954    0.0000 C   0  0  0  0  0  0  0  0  0  0  0  0
  1  2  1  0  0  0  0
  2  3  1  1  0  0  0
  1  4  1  6  0  0  0
  3  5  1  0  0  0  0
  7  8  1  0  0  0  0
  8  9  2  0  0  0  0
  9 10  1  0  0  0  0
 10 11  2  0  0  0  0
 11 12  1  0  0  0  0
  7 12  2  0  0  0  0
  6  7  1  0  0  0  0
 14 15  1  0  0  0  0
 15 16  1  0  0  0  0
 16 17  1  0  0  0  0
 17 18  1  0  0  0  0
 14 18  1  0  0  0  0
 19 20  1  0  0  0  0
 17 19  1  6  0  0  0
 21 22  1  0  0  0  0
 22 23  2  0  0  0  0
 23 24  1  0  0  0  0
 24 25  2  0  0  0  0
 25 26  1  0  0  0  0
 21 26  2  0  0  0  0
 27 28  1  0  0  0  0
 23 27  1  0  0  0  0
 24 29  1  0  0  0  0
 18 21  1  1  0  0  0
 16 13  1  6  0  0  0
 10 13  1  0  0  0  0
  2  6  1  0  0  0  0
 30 31  1  0  0  0  0
 31 32  2  0  0  0  0
 32 33  1  0  0  0  0
 33 34  2  0  0  0  0
 34 35  1  0  0  0  0
 30 35  2  0  0  0  0
 33 36  1  0  0  0  0
  1 30  1  0  0  0  0
 12 37  1  0  0  0  0
 37 38  1  0  0  0  0
 34 39  1  0  0  0  0
 39 40  1  0  0  0  0
M  END
>  <cdx:groupId>
755

>  <cdx:fragmentId>
679

$$$$
