301244.cdx
  Mrv1902 05222410192D          

 43 47  0  0  0  0            999 V2000
   17.2458   -6.9926    0.0000 O   0  0  0  0  0  0  0  0  0  0  0  0
   17.2458   -5.3426    0.0000 O   0  0  0  0  0  0  0  0  0  0  0  0
   15.1023   -5.7551    0.0000 C   0  0  0  0  0  0  0  0  0  0  0  0
   15.8168   -5.3426    0.0000 C   0  0  0  0  0  0  0  0  0  0  0  0
   16.5313   -5.7551    0.0000 C   0  0  0  0  0  0  0  0  0  0  0  0
   16.5313   -6.5801    0.0000 C   0  0  0  0  0  0  0  0  0  0  0  0
   15.8168   -6.9926    0.0000 C   0  0  0  0  0  0  0  0  0  0  0  0
   15.1023   -6.5801    0.0000 C   0  0  0  0  0  0  0  0  0  0  0  0
   12.2445   -9.0551    0.0000 O   0  0  0  0  0  0  0  0  0  0  0  0
   10.8155   -6.5801    0.0000 O   0  0  0  0  0  0  0  0  0  0  0  0
   13.6734   -9.0551    0.0000 O   0  0  0  0  0  0  0  0  0  0  0  0
   13.6734   -6.5801    0.0000 O   0  0  0  0  0  0  0  0  0  0  0  0
   12.9589   -6.9926    0.0000 C   0  0  0  0  0  0  0  0  0  0  0  0
   12.2445   -6.5801    0.0000 C   0  0  0  0  0  0  0  0  0  0  0  0
   11.5300   -6.9926    0.0000 C   0  0  0  0  0  0  0  0  0  0  0  0
   11.5300   -7.8176    0.0000 C   0  0  0  0  0  0  0  0  0  0  0  0
   12.2445   -8.2301    0.0000 C   0  0  0  0  0  0  0  0  0  0  0  0
   12.9589   -7.8176    0.0000 C   0  0  0  0  0  0  0  0  0  0  0  0
   13.6734   -8.2301    0.0000 C   0  0  0  0  0  0  0  0  0  0  0  0
   14.3879   -7.8176    0.0000 C   0  0  0  0  0  0  0  0  0  0  0  0
   14.3879   -6.9926    0.0000 C   0  0  1  0  0  0  0  0  0  0  0  0
   10.1010   -6.9926    0.0000 C   0  0  2  0  0  0  0  0  0  0  0  0
    9.3866   -6.5801    0.0000 O   0  0  0  0  0  0  0  0  0  0  0  0
    8.6721   -6.9926    0.0000 C   0  0  1  0  0  0  0  0  0  0  0  0
    8.6721   -7.8176    0.0000 C   0  0  2  0  0  0  0  0  0  0  0  0
    9.3866   -8.2301    0.0000 C   0  0  1  0  0  0  0  0  0  0  0  0
   10.1010   -7.8176    0.0000 C   0  0  1  0  0  0  0  0  0  0  0  0
    7.9576   -6.5801    0.0000 C   0  0  0  0  0  0  0  0  0  0  0  0
    9.3866   -9.0551    0.0000 O   0  0  0  0  0  0  0  0  0  0  0  0
    7.9576   -8.2301    0.0000 O   0  0  0  0  0  0  0  0  0  0  0  0
   10.8155   -8.2301    0.0000 O   0  0  0  0  0  0  0  0  0  0  0  0
    7.2432   -6.9926    0.0000 O   0  0  0  0  0  0  0  0  0  0  0  0
    6.5287   -6.5801    0.0000 C   0  0  0  0  0  0  0  0  0  0  0  0
    5.8142   -6.9926    0.0000 C   0  0  0  0  0  0  0  0  0  0  0  0
    5.0997   -6.5801    0.0000 C   0  0  0  0  0  0  0  0  0  0  0  0
    4.3853   -6.9926    0.0000 C   0  0  0  0  0  0  0  0  0  0  0  0
    4.3853   -7.8176    0.0000 C   0  0  0  0  0  0  0  0  0  0  0  0
    5.0997   -8.2301    0.0000 C   0  0  0  0  0  0  0  0  0  0  0  0
    5.8142   -7.8176    0.0000 C   0  0  0  0  0  0  0  0  0  0  0  0
    6.5287   -5.7551    0.0000 O   0  0  0  0  0  0  0  0  0  0  0  0
    3.6708   -6.5801    0.0000 O   0  0  0  0  0  0  0  0  0  0  0  0
    3.6708   -8.2301    0.0000 O   0  0  0  0  0  0  0  0  0  0  0  0
    5.0997   -9.0551    0.0000 O   0  0  0  0  0  0  0  0  0  0  0  0
 21  8  1  6  0  0  0
  6  1  1  0  0  0  0
  5  2  1  0  0  0  0
  8  3  2  0  0  0  0
  4  3  1  0  0  0  0
  5  4  2  0  0  0  0
  6  5  1  0  0  0  0
  7  6  2  0  0  0  0
  8  7  1  0  0  0  0
 17  9  1  0  0  0  0
 15 10  1  0  0  0  0
 19 11  2  0  0  0  0
 21 12  1  0  0  0  0
 13 12  1  0  0  0  0
 18 13  2  0  0  0  0
 14 13  1  0  0  0  0
 15 14  2  0  0  0  0
 16 15  1  0  0  0  0
 17 16  2  0  0  0  0
 18 17  1  0  0  0  0
 19 18  1  0  0  0  0
 20 19  1  0  0  0  0
 21 20  1  0  0  0  0
 22 10  1  1  0  0  0
 22 23  1  0  0  0  0
 23 24  1  0  0  0  0
 24 25  1  0  0  0  0
 25 26  1  0  0  0  0
 26 27  1  0  0  0  0
 27 22  1  0  0  0  0
 24 28  1  1  0  0  0
 26 29  1  1  0  0  0
 25 30  1  6  0  0  0
 27 31  1  6  0  0  0
 28 32  1  0  0  0  0
 32 33  1  0  0  0  0
 33 34  1  0  0  0  0
 34 35  2  0  0  0  0
 35 36  1  0  0  0  0
 36 37  2  0  0  0  0
 37 38  1  0  0  0  0
 38 39  2  0  0  0  0
 39 34  1  0  0  0  0
 33 40  2  0  0  0  0
 36 41  1  0  0  0  0
 37 42  1  0  0  0  0
 38 43  1  0  0  0  0
M  END
>  <cdx:fragmentId>
5

$$$$
