301258.cdx
  Mrv1902 05222410262D          

 17 17  0  0  0  0            999 V2000
    6.0610   -5.9878    0.0000 C   0  0  0  0  0  0  0  0  0  0  0  0
    5.3465   -6.4003    0.0000 O   0  0  0  0  0  0  0  0  0  0  0  0
    6.0610   -5.1628    0.0000 O   0  0  0  0  0  0  0  0  0  0  0  0
    6.7755   -6.4003    0.0000 O   0  0  0  0  0  0  0  0  0  0  0  0
    4.6320   -5.9878    0.0000 C   0  0  0  0  0  0  0  0  0  0  0  0
    3.9176   -6.4003    0.0000 C   0  0  0  0  0  0  0  0  0  0  0  0
    7.0774   -5.2734    0.0000 C   0  0  0  0  0  0  0  0  0  0  0  0
    7.4899   -5.9878    0.0000 C   0  0  0  0  0  0  0  0  0  0  0  0
    7.9024   -5.2734    0.0000 C   0  0  0  0  0  0  0  0  0  0  0  0
    8.9581   -6.0648    0.0000 O   0  0  0  0  0  0  0  0  0  0  0  0
    8.2044   -6.4003    0.0000 C   0  0  0  0  0  0  0  0  0  0  0  0
    8.2906   -7.2208    0.0000 C   0  0  0  0  0  0  0  0  0  0  0  0
    9.0976   -7.3923    0.0000 C   0  0  0  0  0  0  0  0  0  0  0  0
    9.5101   -6.6779    0.0000 C   0  0  0  0  0  0  0  0  0  0  0  0
   10.1775   -6.1930    0.0000 C   0  0  0  0  0  0  0  0  0  0  0  0
   10.2638   -7.0134    0.0000 C   0  0  0  0  0  0  0  0  0  0  0  0
   10.9312   -6.5285    0.0000 C   0  0  0  0  0  0  0  0  0  0  0  0
  1  2  1  0  0  0  0
  1  3  2  0  0  0  0
  1  4  1  0  0  0  0
  5  6  1  0  0  0  0
  2  5  1  0  0  0  0
  7  8  1  0  0  0  0
  8  9  1  0  0  0  0
 10 11  1  0  0  0  0
 11 12  1  0  0  0  0
 12 13  1  0  0  0  0
 13 14  1  0  0  0  0
 10 14  1  0  0  0  0
 14 15  1  0  0  0  0
 16 17  2  0  0  0  0
 14 16  1  0  0  0  0
  8 11  1  0  0  0  0
  4  8  1  0  0  0  0
M  END
>  <cdx:groupId>
274

>  <cdx:fragmentId>
244

$$$$
