301228.cdx
  Mrv1902 05222410262D          

 22 22  0  0  0  0            999 V2000
    8.9387   -5.8179    0.0000 C   0  0  0  0  0  0  0  0  0  0  0  0
    8.2242   -6.2304    0.0000 C   0  0  0  0  0  0  0  0  0  0  0  0
    7.5097   -5.8179    0.0000 C   0  0  0  0  0  0  0  0  0  0  0  0
    8.9387   -4.9929    0.0000 O   0  0  0  0  0  0  0  0  0  0  0  0
    9.6531   -6.2304    0.0000 N   0  0  0  0  0  0  0  0  0  0  0  0
   10.3676   -5.8179    0.0000 C   0  0  0  0  0  0  0  0  0  0  0  0
   11.0821   -6.2304    0.0000 C   0  0  0  0  0  0  0  0  0  0  0  0
    9.6531   -7.0554    0.0000 C   0  0  0  0  0  0  0  0  0  0  0  0
   10.3676   -7.4679    0.0000 C   0  0  0  0  0  0  0  0  0  0  0  0
    6.7953   -6.2304    0.0000 C   0  0  0  0  0  0  0  0  0  0  0  0
    6.7953   -7.0554    0.0000 C   0  0  0  0  0  0  0  0  0  0  0  0
    6.0808   -7.4679    0.0000 C   0  0  0  0  0  0  0  0  0  0  0  0
    5.3663   -7.0554    0.0000 C   0  0  0  0  0  0  0  0  0  0  0  0
    5.3663   -6.2304    0.0000 C   0  0  0  0  0  0  0  0  0  0  0  0
    6.0808   -5.8179    0.0000 C   0  0  0  0  0  0  0  0  0  0  0  0
    4.6519   -5.8179    0.0000 N   0  3  0  0  0  0  0  0  0  0  0  0
    4.6519   -4.9929    0.0000 O   0  0  0  0  0  0  0  0  0  0  0  0
    3.9374   -6.2304    0.0000 O   0  5  0  0  0  0  0  0  0  0  0  0
    4.6519   -7.4679    0.0000 O   0  0  0  0  0  0  0  0  0  0  0  0
    6.0808   -8.2929    0.0000 O   0  0  0  0  0  0  0  0  0  0  0  0
    8.2242   -7.0554    0.0000 C   0  0  0  0  0  0  0  0  0  0  0  0
    8.2242   -7.8804    0.0000 N   0  0  0  0  0  0  0  0  0  0  0  0
  1  2  1  0  0  0  0
  2  3  2  0  0  0  0
  1  4  2  0  0  0  0
  1  5  1  0  0  0  0
  6  7  1  0  0  0  0
  5  6  1  0  0  0  0
  8  9  1  0  0  0  0
  5  8  1  0  0  0  0
 10 11  1  0  0  0  0
 11 12  2  0  0  0  0
 12 13  1  0  0  0  0
 13 14  2  0  0  0  0
 14 15  1  0  0  0  0
 10 15  2  0  0  0  0
 16 17  2  0  0  0  0
 16 18  1  0  0  0  0
 14 16  1  0  0  0  0
 13 19  1  0  0  0  0
 12 20  1  0  0  0  0
  3 10  1  0  0  0  0
 21 22  3  0  0  0  0
  2 21  1  0  0  0  0
M  CHG  2  16   1  18  -1
M  END
>  <cdx:groupId>
909

>  <cdx:fragmentId>
864

$$$$
