301286.cdx
  Mrv1902 05222410182D          

 49 53  0  0  0  0            999 V2000
   17.0140  -11.0439    0.0000 C   0  0  0  0  0  0  0  0  0  0  0  0
   17.7284  -10.6314    0.0000 C   0  0  0  0  0  0  0  0  0  0  0  0
   17.7284   -9.8064    0.0000 C   0  0  0  0  0  0  0  0  0  0  0  0
   16.2995   -9.8064    0.0000 C   0  0  0  0  0  0  0  0  0  0  0  0
   16.2995  -10.6314    0.0000 C   0  0  0  0  0  0  0  0  0  0  0  0
   18.4429  -11.0439    0.0000 O   0  0  0  0  0  0  0  0  0  0  0  0
   19.1574  -10.6314    0.0000 C   0  0  0  0  0  0  0  0  0  0  0  0
   19.1574   -9.8064    0.0000 C   0  0  0  0  0  0  0  0  0  0  0  0
   18.4429   -9.3939    0.0000 C   0  0  0  0  0  0  0  0  0  0  0  0
   19.8719  -11.0439    0.0000 O   0  0  0  0  0  0  0  0  0  0  0  0
   15.5850   -9.3939    0.0000 O   0  0  0  0  0  0  0  0  0  0  0  0
   14.8730   -8.9828    0.0000 C   0  0  0  0  0  0  0  0  0  0  0  0
   17.0140  -11.8689    0.0000 O   0  0  0  0  0  0  0  0  0  0  0  0
   14.5696  -13.4302    0.0000 C   0  0  0  0  0  0  0  0  0  0  0  0
   15.1990  -13.9635    0.0000 C   0  0  0  0  0  0  0  0  0  0  0  0
   15.8797  -13.4974    0.0000 C   0  0  0  0  0  0  0  0  0  0  0  0
   16.6970  -13.4265    0.0000 C   0  0  0  0  0  0  0  0  0  0  0  0
   16.0676  -12.8931    0.0000 O   0  0  0  0  0  0  0  0  0  0  0  0
   15.3868  -13.3592    0.0000 C   0  0  0  0  0  0  0  0  0  0  0  0
   14.0077  -14.0343    0.0000 O   0  0  0  0  0  0  0  0  0  0  0  0
   14.4999  -14.4016    0.0000 O   0  0  0  0  0  0  0  0  0  0  0  0
   16.6086  -13.8837    0.0000 O   0  0  0  0  0  0  0  0  0  0  0  0
   14.6998  -12.9024    0.0000 C   0  0  0  0  0  0  0  0  0  0  0  0
   14.5371  -12.0936    0.0000 O   0  0  0  0  0  0  0  0  0  0  0  0
   13.9537  -11.5103    0.0000 C   0  0  0  0  0  0  0  0  0  0  0  0
   13.1568  -11.7238    0.0000 C   0  0  0  0  0  0  0  0  0  0  0  0
   14.1672  -10.7134    0.0000 O   0  0  0  0  0  0  0  0  0  0  0  0
   12.5735  -11.1404    0.0000 C   0  0  0  0  0  0  0  0  0  0  0  0
   11.7766  -11.3540    0.0000 C   0  0  0  0  0  0  0  0  0  0  0  0
   11.5631  -12.1509    0.0000 C   0  0  0  0  0  0  0  0  0  0  0  0
   12.1464  -12.7342    0.0000 C   0  0  0  0  0  0  0  0  0  0  0  0
   12.9433  -12.5207    0.0000 C   0  0  0  0  0  0  0  0  0  0  0  0
   11.1932  -10.7706    0.0000 O   0  0  0  0  0  0  0  0  0  0  0  0
   10.8486  -12.5634    0.0000 O   0  0  0  0  0  0  0  0  0  0  0  0
   11.9329  -13.5311    0.0000 O   0  0  0  0  0  0  0  0  0  0  0  0
    7.0005  -12.2106    0.0000 C   0  0  0  0  0  0  0  0  0  0  0  0
    7.3893  -12.9382    0.0000 C   0  0  0  0  0  0  0  0  0  0  0  0
    8.1938  -12.7555    0.0000 C   0  0  0  0  0  0  0  0  0  0  0  0
    8.9797  -12.9906    0.0000 C   0  0  0  0  0  0  0  0  0  0  0  0
    8.5910  -12.2629    0.0000 O   0  0  0  0  0  0  0  0  0  0  0  0
    7.7864  -12.4456    0.0000 C   0  0  0  0  0  0  0  0  0  0  0  0
    6.2557  -12.5653    0.0000 O   0  0  0  0  0  0  0  0  0  0  0  0
    6.5780  -13.0881    0.0000 O   0  0  0  0  0  0  0  0  0  0  0  0
    8.7292  -13.3832    0.0000 O   0  0  0  0  0  0  0  0  0  0  0  0
    7.3160  -11.7679    0.0000 C   0  0  0  0  0  0  0  0  0  0  0  0
   17.0140   -9.3939    0.0000 C   0  0  0  0  0  0  0  0  0  0  0  0
   15.5850  -11.0439    0.0000 O   0  0  0  0  0  0  0  0  0  0  0  0
   10.6119  -10.1893    0.0000 C   0  0  0  0  0  0  0  0  0  0  0  0
   11.7201  -14.3252    0.0000 C   0  0  0  0  0  0  0  0  0  0  0  0
  1  2  2  0  0  0  0
  2  3  1  0  0  0  0
  4  5  2  0  0  0  0
  5  1  1  0  0  0  0
  2  6  1  0  0  0  0
  6  7  1  0  0  0  0
  7  8  1  0  0  0  0
  8  9  2  0  0  0  0
  9  3  1  0  0  0  0
  7 10  2  0  0  0  0
  4 11  1  0  0  0  0
  1 13  1  0  0  0  0
 14 15  1  0  0  0  0
 15 16  1  0  0  0  0
 16 17  1  0  0  0  0
 17 18  1  0  0  0  0
 18 19  1  0  0  0  0
 19 14  1  0  0  0  0
 14 20  1  0  0  0  0
 15 21  1  0  0  0  0
 16 22  1  0  0  0  0
 19 23  1  0  0  0  0
 23 24  1  0  0  0  0
 24 25  1  0  0  0  0
 25 26  1  0  0  0  0
 25 27  2  0  0  0  0
 26 28  2  0  0  0  0
 28 29  1  0  0  0  0
 29 30  2  0  0  0  0
 30 31  1  0  0  0  0
 31 32  2  0  0  0  0
 32 26  1  0  0  0  0
 29 33  1  0  0  0  0
 30 34  1  0  0  0  0
 31 35  1  0  0  0  0
 36 37  1  0  0  0  0
 37 38  1  0  0  0  0
 38 39  1  0  0  0  0
 39 40  1  0  0  0  0
 40 41  1  0  0  0  0
 41 36  1  0  0  0  0
 36 42  1  0  0  0  0
 37 43  1  0  0  0  0
 38 44  1  0  0  0  0
 41 45  1  0  0  0  0
 13 17  1  0  0  0  0
 34 39  1  0  0  0  0
  4 46  1  0  0  0  0
 46  3  2  0  0  0  0
  5 47  1  0  0  0  0
 11 12  1  0  0  0  0
 33 48  1  0  0  0  0
 35 49  1  0  0  0  0
M  STY  3   1 SUP   2 SUP   3 SUP
M  SAL   1  2  11  12
M  SBL   1  1  11
M  SMT   1 OCH3
M  SAP   1  1  11   4  1
M  SAL   2  2  33  48
M  SBL   2  1  33
M  SMT   2 OCH3
M  SAP   2  1  33  29  1
M  SAL   3  2  35  49
M  SBL   3  1  35
M  SMT   3 OCH3
M  SAP   3  1  35  31  1
M  END
>  <cdx:fragmentId>
9284

$$$$
