301273.cdx
  Mrv1902 05222410262D          

 17 18  0  0  0  0            999 V2000
    8.7283   -8.5198    0.0000 C   0  0  0  0  0  0  0  0  0  0  0  0
    8.7294   -7.6948    0.0000 C   0  0  0  0  0  0  0  0  0  0  0  0
    9.4444   -7.2832    0.0000 C   0  0  0  0  0  0  0  0  0  0  0  0
    9.4433   -8.1082    0.0000 O   0  0  0  0  0  0  0  0  0  0  0  0
    7.3005   -7.6929    0.0000 C   0  0  0  0  0  0  0  0  0  0  0  0
    8.0155   -7.2814    0.0000 C   0  0  1  0  0  0  0  0  0  0  0  0
    8.0165   -6.4564    0.0000 C   0  0  0  0  0  0  0  0  0  0  0  0
    7.3026   -6.0430    0.0000 C   0  0  0  0  0  0  0  0  0  0  0  0
    6.5876   -6.4545    0.0000 C   0  0  1  0  0  0  0  0  0  0  0  0
    5.8737   -6.0411    0.0000 C   0  0  0  0  0  0  0  0  0  0  0  0
    5.1587   -6.4527    0.0000 C   0  0  0  0  0  0  0  0  0  0  0  0
    5.1576   -7.2777    0.0000 C   0  0  0  0  0  0  0  0  0  0  0  0
    5.8715   -7.6911    0.0000 C   0  0  1  0  0  0  0  0  0  0  0  0
    6.5865   -7.2795    0.0000 C   0  0  0  0  0  0  0  0  0  0  0  0
    5.8705   -8.5161    0.0000 C   0  0  0  0  0  0  0  0  0  0  0  0
    6.5887   -5.6295    0.0000 C   0  0  0  0  0  0  0  0  0  0  0  0
    8.7299   -6.8689    0.0000 H   0  0  0  0  0  0  0  0  0  0  0  0
  1  2  1  0  0  0  0
  2  3  1  0  0  0  0
  2  4  1  0  0  0  0
  5  6  1  0  0  0  0
  6  7  1  0  0  0  0
  7  8  1  0  0  0  0
  8  9  1  0  0  0  0
  9 10  1  0  0  0  0
 10 11  1  0  0  0  0
 11 12  1  0  0  0  0
 12 13  1  0  0  0  0
 13 14  1  0  0  0  0
  5 14  2  0  0  0  0
  9 14  1  0  0  0  0
 13 15  1  1  0  0  0
  9 16  1  1  0  0  0
  6  2  1  0  0  0  0
  6 17  1  6  0  0  0
M  END
>  <cdx:fragmentId>
992

$$$$
