301201.cdx
  Mrv1902 05222410252D          

 15 17  0  0  0  0            999 V2000
    7.4250   -7.5149    0.0000 C   0  0  0  0  0  0  0  0  0  0  0  0
    6.7105   -7.1024    0.0000 C   0  0  0  0  0  0  0  0  0  0  0  0
    6.7105   -6.2774    0.0000 C   0  0  0  0  0  0  0  0  0  0  0  0
    7.4250   -5.8649    0.0000 C   0  0  0  0  0  0  0  0  0  0  0  0
    8.1395   -6.2774    0.0000 N   0  0  0  0  0  0  0  0  0  0  0  0
    8.8539   -5.8649    0.0000 C   0  0  0  0  0  0  0  0  0  0  0  0
    9.5684   -6.2774    0.0000 C   0  0  0  0  0  0  0  0  0  0  0  0
    9.5684   -7.1024    0.0000 C   0  0  0  0  0  0  0  0  0  0  0  0
    8.8539   -7.5149    0.0000 C   0  0  0  0  0  0  0  0  0  0  0  0
    8.1395   -7.1024    0.0000 C   0  0  0  0  0  0  0  0  0  0  0  0
    5.9961   -5.8649    0.0000 C   0  0  0  0  0  0  0  0  0  0  0  0
    5.2816   -6.2774    0.0000 C   0  0  0  0  0  0  0  0  0  0  0  0
    5.2816   -7.1024    0.0000 C   0  0  0  0  0  0  0  0  0  0  0  0
    5.9961   -7.5149    0.0000 C   0  0  0  0  0  0  0  0  0  0  0  0
    7.4250   -5.0399    0.0000 O   0  0  0  0  0  0  0  0  0  0  0  0
  1  2  1  0  0  0  0
  2  3  1  0  0  0  0
  3  4  1  0  0  0  0
  4  5  1  0  0  0  0
  5  6  1  0  0  0  0
  6  7  1  0  0  0  0
  7  8  1  0  0  0  0
  8  9  1  0  0  0  0
  9 10  1  0  0  0  0
  5 10  1  0  0  0  0
  1 10  1  0  0  0  0
 11 12  1  0  0  0  0
 12 13  1  0  0  0  0
 13 14  1  0  0  0  0
 14  2  1  0  0  0  0
 11  3  1  0  0  0  0
  4 15  2  0  0  0  0
M  END
>  <cdx:groupId>
113

>  <cdx:fragmentId>
69

$$$$
