301295.cdx
  Mrv1902 05222410202D          

 40 45  0  0  0  0            999 V2000
    3.8697   -9.9647    0.0000 C   0  0  2  0  0  0  0  0  0  0  0  0
    3.2142  -10.4656    0.0000 C   0  0  2  0  0  0  0  0  0  0  0  0
    2.4350  -10.1945    0.0000 C   0  0  0  0  0  0  0  0  0  0  0  0
    1.9364  -10.8518    0.0000 C   0  0  0  0  0  0  0  0  0  0  0  0
    2.4074  -11.5291    0.0000 C   0  0  0  0  0  0  0  0  0  0  0  0
    3.1971  -11.2905    0.0000 C   0  0  1  0  0  0  0  0  0  0  0  0
    3.8313  -11.8181    0.0000 C   0  0  1  0  0  0  0  0  0  0  0  0
    4.6393  -11.6511    0.0000 C   0  0  1  0  0  0  0  0  0  0  0  0
    5.4631  -11.6065    0.0000 O   0  0  0  0  0  0  0  0  0  0  0  0
    5.0125  -10.9154    0.0000 C   0  0  1  0  0  0  0  0  0  0  0  0
    4.6700  -10.1649    0.0000 C   0  0  1  0  0  0  0  0  0  0  0  0
    5.2435   -9.5718    0.0000 C   0  0  1  0  0  0  0  0  0  0  0  0
    6.0680   -9.6012    0.0000 O   0  0  0  0  0  0  0  0  0  0  0  0
    6.3508   -8.8262    0.0000 C   0  0  0  0  0  0  0  0  0  0  0  0
    5.7010   -8.3178    0.0000 O   0  0  0  0  0  0  0  0  0  0  0  0
    5.0167   -8.7786    0.0000 C   0  0  1  0  0  0  0  0  0  0  0  0
    4.2164   -8.5785    0.0000 C   0  0  0  0  0  0  0  0  0  0  0  0
    3.6429   -9.1715    0.0000 C   0  0  1  0  0  0  0  0  0  0  0  0
    4.4825   -9.3225    0.0000 O   0  0  0  0  0  0  0  0  0  0  0  0
    2.1363  -12.3083    0.0000 O   0  0  0  0  0  0  0  0  0  0  0  0
    2.8425   -8.9713    0.0000 C   0  0  0  0  0  0  0  0  0  0  0  0
    1.1115  -10.8347    0.0000 C   0  0  0  0  0  0  0  0  0  0  0  0
    4.7454  -12.4693    0.0000 C   0  0  0  0  0  0  0  0  0  0  0  0
    5.5069  -12.7865    0.0000 O   0  0  0  0  0  0  0  0  0  0  0  0
    3.6312  -12.6184    0.0000 O   0  0  0  0  0  0  0  0  0  0  0  0
    3.0330  -12.0990    0.0000 O   0  0  0  0  0  0  0  0  0  0  0  0
    3.0837   -9.6510    0.0000 H   0  0  0  0  0  0  0  0  0  0  0  0
    5.4521  -10.4276    0.0000 H   0  0  0  0  0  0  0  0  0  0  0  0
    5.0167   -7.9536    0.0000 C   0  0  0  0  0  0  0  0  0  0  0  0
    4.3023   -7.5411    0.0000 C   0  0  0  0  0  0  0  0  0  0  0  0
    5.7312   -7.5411    0.0000 C   0  0  0  0  0  0  0  0  0  0  0  0
    7.1440   -8.5994    0.0000 C   0  0  0  0  0  0  0  0  0  0  0  0
    7.7370   -9.1729    0.0000 C   0  0  0  0  0  0  0  0  0  0  0  0
    8.5302   -8.9461    0.0000 C   0  0  0  0  0  0  0  0  0  0  0  0
    9.1232   -9.5196    0.0000 C   0  0  0  0  0  0  0  0  0  0  0  0
    9.9164   -9.2928    0.0000 C   0  0  0  0  0  0  0  0  0  0  0  0
   10.5095   -9.8663    0.0000 C   0  0  0  0  0  0  0  0  0  0  0  0
   11.3027   -9.6395    0.0000 C   0  0  0  0  0  0  0  0  0  0  0  0
   11.8957  -10.2130    0.0000 C   0  0  0  0  0  0  0  0  0  0  0  0
   12.6889   -9.9862    0.0000 C   0  0  0  0  0  0  0  0  0  0  0  0
  1  2  1  0  0  0  0
  2  3  1  0  0  0  0
  3  4  2  0  0  0  0
  4  5  1  0  0  0  0
  5  6  1  0  0  0  0
  6  7  1  0  0  0  0
  7  8  1  0  0  0  0
  8  9  1  6  0  0  0
 10  9  1  6  0  0  0
 10 11  1  0  0  0  0
 11 12  1  0  0  0  0
 12 13  1  6  0  0  0
 13 14  1  0  0  0  0
 14 15  1  0  0  0  0
 16 15  1  6  0  0  0
 16 17  1  0  0  0  0
 17 18  1  0  0  0  0
  1 18  1  0  0  0  0
  1 19  1  6  0  0  0
 19 14  1  0  0  0  0
 12 16  1  0  0  0  0
  1 11  1  0  0  0  0
  8 10  1  0  0  0  0
  2  6  1  0  0  0  0
  5 20  2  0  0  0  0
 18 21  1  6  0  0  0
  4 22  1  0  0  0  0
 23 24  1  0  0  0  0
  8 23  1  0  0  0  0
  7 25  1  1  0  0  0
  6 26  1  1  0  0  0
  2 27  1  6  0  0  0
 11 28  1  1  0  0  0
 16 29  1  0  0  0  0
 29 30  1  0  0  0  0
 29 31  2  0  0  0  0
 14 32  1  0  0  0  0
 32 33  2  0  0  0  0
 33 34  1  0  0  0  0
 34 35  2  0  0  0  0
 35 36  1  0  0  0  0
 36 37  1  0  0  0  0
 37 38  1  0  0  0  0
 38 39  1  0  0  0  0
 39 40  1  0  0  0  0
M  END
>  <cdx:fragmentId>
2993

$$$$
