301264.cdx
  Mrv1902 05222410262D          

 54 60  0  0  0  0            999 V2000
    8.9838   -6.8384    0.0000 C   0  0  2  0  0  0  0  0  0  0  0  0
    9.3439   -7.5807    0.0000 C   0  0  1  0  0  0  0  0  0  0  0  0
    8.9881   -8.3250    0.0000 C   0  0  2  0  0  0  0  0  0  0  0  0
    8.1843   -8.5110    0.0000 C   0  0  1  0  0  0  0  0  0  0  0  0
    7.5378   -7.9985    0.0000 C   0  0  1  0  0  0  0  0  0  0  0  0
    7.5354   -7.1735    0.0000 C   0  0  2  0  0  0  0  0  0  0  0  0
    8.1789   -6.6572    0.0000 C   0  0  2  0  0  0  0  0  0  0  0  0
    6.8246   -8.4130    0.0000 C   0  0  2  0  0  0  0  0  0  0  0  0
    6.1089   -8.0026    0.0000 C   0  0  0  0  0  0  0  0  0  0  0  0
    6.1065   -7.1776    0.0000 C   0  0  0  0  0  0  0  0  0  0  0  0
    6.8197   -6.7630    0.0000 C   0  0  2  0  0  0  0  0  0  0  0  0
    8.1026   -5.8357    0.0000 C   0  0  0  0  0  0  0  0  0  0  0  0
    8.8602   -5.5093    0.0000 C   0  0  1  0  0  0  0  0  0  0  0  0
    9.4048   -6.1290    0.0000 C   0  0  2  0  0  0  0  0  0  0  0  0
    6.8173   -5.9381    0.0000 O   0  0  0  0  0  0  0  0  0  0  0  0
    6.1062   -5.5199    0.0000 C   0  0  0  0  0  0  0  0  0  0  0  0
    6.8270   -9.2380    0.0000 C   0  0  0  0  0  0  0  0  0  0  0  0
    6.1137   -9.6526    0.0000 O   0  0  0  0  0  0  0  0  0  0  0  0
    6.1161  -10.4776    0.0000 C   0  0  0  0  0  0  0  0  0  0  0  0
    7.5350   -6.5175    0.0000 C   0  0  0  0  0  0  0  0  0  0  0  0
    6.8200   -7.5350    0.0000 N   0  0  0  0  0  0  0  0  0  0  0  0
    6.1050   -8.7175    0.0000 C   0  0  0  0  0  0  0  0  0  0  0  0
   10.1425   -7.3735    0.0000 C   0  0  0  0  0  0  0  0  0  0  0  0
   10.1200   -5.6650    0.0000 C   0  0  2  0  0  0  0  0  0  0  0  0
    9.5574   -8.3776    0.0000 O   0  0  0  0  0  0  0  0  0  0  0  0
   10.7250   -6.0775    0.0000 O   0  0  0  0  0  0  0  0  0  0  0  0
    7.5312   -8.8234    0.0000 H   0  0  0  0  0  0  0  0  0  0  0  0
    7.5956   -6.0738    0.0000 H   0  0  0  0  0  0  0  0  0  0  0  0
    9.8087   -6.8450    0.0000 H   0  0  0  0  0  0  0  0  0  0  0  0
    8.8602   -4.6843    0.0000 O   0  0  0  0  0  0  0  0  0  0  0  0
    8.9881   -9.1500    0.0000 O   0  0  0  0  0  0  0  0  0  0  0  0
    5.6375   -7.5350    0.0000 C   0  0  0  0  0  0  0  0  0  0  0  0
    8.1843   -9.3360    0.0000 O   0  0  0  0  0  0  0  0  0  0  0  0
    5.0541   -6.9516    0.0000 C   0  0  0  0  0  0  0  0  0  0  0  0
   10.7345   -5.1145    0.0000 O   0  0  0  0  0  0  0  0  0  0  0  0
   10.7345   -4.2895    0.0000 C   0  0  0  0  0  0  0  0  0  0  0  0
   11.1650   -6.7754    0.0000 C   0  0  0  0  0  0  0  0  0  0  0  0
    9.7026   -9.5625    0.0000 C   0  0  0  0  0  0  0  0  0  0  0  0
    5.4028  -10.8922    0.0000 O   0  0  0  0  0  0  0  0  0  0  0  0
    6.8318  -10.8880    0.0000 C   0  0  0  0  0  0  0  0  0  0  0  0
    6.8354  -11.7130    0.0000 C   0  0  0  0  0  0  0  0  0  0  0  0
    7.5517  -12.1224    0.0000 C   0  0  0  0  0  0  0  0  0  0  0  0
    8.2643  -11.7130    0.0000 C   0  0  0  0  0  0  0  0  0  0  0  0
    8.2643  -10.8880    0.0000 C   0  0  0  0  0  0  0  0  0  0  0  0
    7.5517  -10.4787    0.0000 C   0  0  0  0  0  0  0  0  0  0  0  0
    6.1227  -12.1286    0.0000 N   0  0  0  0  0  0  0  0  0  0  0  0
    6.1263  -12.9536    0.0000 C   0  0  0  0  0  0  0  0  0  0  0  0
    5.4137  -13.3693    0.0000 C   0  0  0  0  0  0  0  0  0  0  0  0
    6.8426  -13.3630    0.0000 O   0  0  0  0  0  0  0  0  0  0  0  0
    4.6974  -12.9599    0.0000 C   0  0  0  0  0  0  0  0  0  0  0  0
    3.9847  -13.3755    0.0000 C   0  0  0  0  0  0  0  0  0  0  0  0
    5.4173  -14.1943    0.0000 C   0  0  0  0  0  0  0  0  0  0  0  0
    3.2685  -12.9662    0.0000 O   0  0  0  0  0  0  0  0  0  0  0  0
    3.9884  -14.2005    0.0000 O   0  0  0  0  0  0  0  0  0  0  0  0
  1  2  1  0  0  0  0
  2  3  1  0  0  0  0
  3  4  1  0  0  0  0
  4  5  1  0  0  0  0
  5  6  1  0  0  0  0
  6  7  1  0  0  0  0
  7  1  1  0  0  0  0
  5  8  1  0  0  0  0
  8  9  1  0  0  0  0
  9 10  1  0  0  0  0
 10 11  1  0  0  0  0
  6 11  1  1  0  0  0
  7 12  1  0  0  0  0
 12 13  1  0  0  0  0
 13 14  1  0  0  0  0
 14  1  1  0  0  0  0
 11 15  1  6  0  0  0
 15 16  1  0  0  0  0
  8 17  1  1  0  0  0
 17 18  1  0  0  0  0
 18 19  1  0  0  0  0
  6 20  1  0  0  0  0
  3 20  1  0  0  0  0
 20 21  1  0  0  0  0
 21 22  1  0  0  0  0
  8 22  1  0  0  0  0
  2 23  1  0  0  0  0
 13 24  1  0  0  0  0
 24 23  1  0  0  0  0
  2 25  1  1  0  0  0
 14 26  1  6  0  0  0
  5 27  1  1  0  0  0
  7 28  1  1  0  0  0
  1 29  1  1  0  0  0
 13 30  1  1  0  0  0
  3 31  1  1  0  0  0
 21 32  1  0  0  0  0
  4 33  1  6  0  0  0
 32 34  1  0  0  0  0
 24 35  1  1  0  0  0
 35 36  1  0  0  0  0
 26 37  1  0  0  0  0
 31 38  1  0  0  0  0
 19 39  2  0  0  0  0
 19 40  1  0  0  0  0
 40 41  2  0  0  0  0
 41 42  1  0  0  0  0
 42 43  2  0  0  0  0
 43 44  1  0  0  0  0
 44 45  2  0  0  0  0
 45 40  1  0  0  0  0
 41 46  1  0  0  0  0
 46 47  1  0  0  0  0
 47 48  1  0  0  0  0
 47 49  2  0  0  0  0
 48 50  1  0  0  0  0
 50 51  1  0  0  0  0
 48 52  1  0  0  0  0
 51 53  1  0  0  0  0
 51 54  2  0  0  0  0
M  END
>  <cdx:fragmentId>
491

$$$$
