301207.cdx
  Mrv1902 05222410242D          

 30 34  0  0  0  0            999 V2000
    4.0740   -4.8307    0.0000 C   0  0  0  0  0  0  0  0  0  0  0  0
    4.2800   -5.6296    0.0000 C   0  0  0  0  0  0  0  0  0  0  0  0
    5.0749   -5.8505    0.0000 C   0  0  0  0  0  0  0  0  0  0  0  0
    5.6637   -5.2726    0.0000 C   0  0  0  0  0  0  0  0  0  0  0  0
    5.4576   -4.4738    0.0000 C   0  0  0  0  0  0  0  0  0  0  0  0
    4.6628   -4.2528    0.0000 C   0  0  0  0  0  0  0  0  0  0  0  0
    5.3287   -6.5065    0.0000 C   0  0  0  0  0  0  0  0  0  0  0  0
    6.4585   -5.4936    0.0000 C   0  0  2  0  0  0  0  0  0  0  0  0
    7.2864   -5.4974    0.0000 C   0  0  2  0  0  0  0  0  0  0  0  0
    7.2951   -4.6825    0.0000 C   0  0  2  0  0  0  0  0  0  0  0  0
    6.4702   -4.6928    0.0000 C   0  0  2  0  0  0  0  0  0  0  0  0
    5.8795   -4.1168    0.0000 C   0  0  0  0  0  0  0  0  0  0  0  0
    5.8692   -3.2919    0.0000 C   0  0  0  0  0  0  0  0  0  0  0  0
    5.1496   -2.8884    0.0000 C   0  0  0  0  0  0  0  0  0  0  0  0
    7.8711   -4.0918    0.0000 C   0  0  0  0  0  0  0  0  0  0  0  0
    7.6476   -3.2977    0.0000 C   0  0  0  0  0  0  0  0  0  0  0  0
    8.0511   -2.5781    0.0000 C   0  0  0  0  0  0  0  0  0  0  0  0
    7.3025   -6.3222    0.0000 C   0  0  0  0  0  0  0  0  0  0  0  0
    8.1034   -6.5201    0.0000 C   0  0  0  0  0  0  0  0  0  0  0  0
    8.5847   -5.8754    0.0000 C   0  0  0  0  0  0  0  0  0  0  0  0
    8.1088   -5.1424    0.0000 O   0  0  0  0  0  0  0  0  0  0  0  0
    8.3324   -7.3127    0.0000 C   0  0  0  0  0  0  0  0  0  0  0  0
    7.7605   -7.9073    0.0000 C   0  0  0  0  0  0  0  0  0  0  0  0
    6.9596   -7.7094    0.0000 C   0  0  0  0  0  0  0  0  0  0  0  0
    6.7306   -6.9168    0.0000 C   0  0  0  0  0  0  0  0  0  0  0  0
    9.5001   -5.9094    0.0000 O   0  0  0  0  0  0  0  0  0  0  0  0
    4.8618   -7.3600    0.0000 O   0  0  0  0  0  0  0  0  0  0  0  0
    6.3822   -6.4743    0.0000 O   0  0  0  0  0  0  0  0  0  0  0  0
    6.8827   -3.9784    0.0000 H   0  0  0  0  0  0  0  0  0  0  0  0
    8.1201   -4.6825    0.0000 H   0  0  0  0  0  0  0  0  0  0  0  0
  1  2  2  0  0  0  0
  2  3  1  0  0  0  0
  3  4  2  0  0  0  0
  4  5  1  0  0  0  0
  5  6  1  0  0  0  0
  6  1  1  0  0  0  0
  3  7  1  0  0  0  0
  8  4  1  1  0  0  0
  8  9  1  0  0  0  0
  9 10  1  0  0  0  0
 10 11  1  0  0  0  0
 11  8  1  0  0  0  0
 11 12  1  1  0  0  0
 12 13  1  0  0  0  0
 13 14  1  0  0  0  0
 10 15  1  6  0  0  0
 15 16  1  0  0  0  0
 16 17  1  0  0  0  0
  9 18  1  6  0  0  0
 18 19  2  0  0  0  0
 19 20  1  0  0  0  0
  9 21  1  1  0  0  0
 20 21  1  0  0  0  0
 19 22  1  0  0  0  0
 22 23  2  0  0  0  0
 23 24  1  0  0  0  0
 24 25  1  0  0  0  0
 25 18  1  0  0  0  0
 20 26  2  0  0  0  0
  7 27  2  0  0  0  0
  8 28  1  6  0  0  0
  7 28  1  0  0  0  0
 11 29  1  6  0  0  0
 10 30  1  1  0  0  0
M  END
>  <cdx:fragmentId>
36

$$$$
