301247.cdx
  Mrv1902 05222410182D          

 34 36  0  0  0  0            999 V2000
    4.5957   -8.4144    0.0000 O   0  0  0  0  0  0  0  0  0  0  0  0
    8.6954   -7.4712    0.0000 O   0  0  0  0  0  0  0  0  0  0  0  0
    5.0126   -9.1263    0.0000 C   0  0  1  0  0  0  0  0  0  0  0  0
    4.6045   -9.8433    0.0000 C   0  0  1  0  0  0  0  0  0  0  0  0
    3.7795   -9.8484    0.0000 C   0  0  2  0  0  0  0  0  0  0  0  0
    3.3626   -9.1365    0.0000 C   0  0  1  0  0  0  0  0  0  0  0  0
    3.7707   -8.4195    0.0000 C   0  0  1  0  0  0  0  0  0  0  0  0
    5.0214  -10.5552    0.0000 O   0  0  0  0  0  0  0  0  0  0  0  0
    3.3714  -10.5654    0.0000 O   0  0  0  0  0  0  0  0  0  0  0  0
    2.5376   -9.1415    0.0000 O   0  0  0  0  0  0  0  0  0  0  0  0
    3.3538   -7.7075    0.0000 C   0  0  0  0  0  0  0  0  0  0  0  0
    2.5288   -7.7126    0.0000 O   0  0  0  0  0  0  0  0  0  0  0  0
    5.8376   -9.1212    0.0000 O   0  0  0  0  0  0  0  0  0  0  0  0
    9.7440   -5.6383    0.0000 O   0  0  0  0  0  0  0  0  0  0  0  0
    8.3239   -4.5406    0.0000 O   0  0  0  0  0  0  0  0  0  0  0  0
    6.6568   -4.7479    0.0000 O   0  0  0  0  0  0  0  0  0  0  0  0
    6.8412   -5.5520    0.0000 C   0  0  0  0  0  0  0  0  0  0  0  0
    7.6179   -5.8302    0.0000 C   0  0  2  0  0  0  0  0  0  0  0  0
    8.2994   -5.3653    0.0000 C   0  0  2  0  0  0  0  0  0  0  0  0
    8.9522   -5.8698    0.0000 C   0  0  1  0  0  0  0  0  0  0  0  0
    8.6741   -6.6465    0.0000 C   0  0  1  0  0  0  0  0  0  0  0  0
    7.8494   -6.6220    0.0000 O   0  0  0  0  0  0  0  0  0  0  0  0
    9.4412   -6.9500    0.0000 C   0  0  0  0  0  0  0  0  0  0  0  0
    7.2665   -9.9462    0.0000 O   0  0  0  0  0  0  0  0  0  0  0  0
    8.6954   -9.1212    0.0000 O   0  0  0  0  0  0  0  0  0  0  0  0
    5.1231   -7.8837    0.0000 O   0  0  0  0  0  0  0  0  0  0  0  0
    5.8376   -7.4712    0.0000 C   0  0  0  0  0  0  0  0  0  0  0  0
    7.9810   -7.8837    0.0000 C   0  0  2  0  0  0  0  0  0  0  0  0
    7.9810   -8.7087    0.0000 C   0  0  1  0  0  0  0  0  0  0  0  0
    7.2665   -9.1212    0.0000 C   0  0  2  0  0  0  0  0  0  0  0  0
    6.5520   -8.7087    0.0000 C   0  0  1  0  0  0  0  0  0  0  0  0
    6.5520   -7.8837    0.0000 C   0  0  2  0  0  0  0  0  0  0  0  0
    7.2665   -7.4712    0.0000 O   0  0  0  0  0  0  0  0  0  0  0  0
   10.0876   -6.4373    0.0000 O   0  0  0  0  0  0  0  0  0  0  0  0
 31 13  1  6  0  0  0
 28  2  1  6  0  0  0
 20 14  1  6  0  0  0
 19 15  1  1  0  0  0
 18 17  1  6  0  0  0
 17 16  1  0  0  0  0
 22 18  1  0  0  0  0
 19 18  1  0  0  0  0
 20 19  1  0  0  0  0
 21 20  1  0  0  0  0
 22 21  1  0  0  0  0
 30 24  1  1  0  0  0
 29 25  1  6  0  0  0
 32 27  1  1  0  0  0
 27 26  1  0  0  0  0
 33 28  1  0  0  0  0
 29 28  1  0  0  0  0
 30 29  1  0  0  0  0
 31 30  1  0  0  0  0
 32 31  1  0  0  0  0
 33 32  1  0  0  0  0
  1  3  1  0  0  0  0
  3  4  1  0  0  0  0
  4  5  1  0  0  0  0
  5  6  1  0  0  0  0
  6  7  1  0  0  0  0
  1  7  1  0  0  0  0
  4  8  1  6  0  0  0
  5  9  1  1  0  0  0
  6 10  1  6  0  0  0
 11 12  1  0  0  0  0
  7 11  1  1  0  0  0
  3 13  1  6  0  0  0
 21 23  1  0  0  0  0
 23 34  1  0  0  0  0
 21  2  1  6  0  0  0
M  END
>  <cdx:groupId>
3304

>  <cdx:fragmentId>
3249

$$$$
