301218.cdx
  Mrv1902 05222410212D          

 34 37  0  0  0  0            999 V2000
    6.3472   -9.1685    0.0000 C   0  0  2  0  0  0  0  0  0  0  0  0
    5.5222   -9.1685    0.0000 C   0  0  2  0  0  0  0  0  0  0  0  0
    7.0114   -8.6804    0.0000 C   0  0  1  0  0  0  0  0  0  0  0  0
    7.2589   -7.8939    0.0000 C   0  0  0  0  0  0  0  0  0  0  0  0
    7.0059   -7.1088    0.0000 C   0  0  2  0  0  0  0  0  0  0  0  0
    6.3431   -6.6165    0.0000 C   0  0  2  0  0  0  0  0  0  0  0  0
    5.5181   -6.6165    0.0000 C   0  0  1  0  0  0  0  0  0  0  0  0
    4.8567   -7.1101    0.0000 C   0  0  0  0  0  0  0  0  0  0  0  0
    4.6024   -7.8952    0.0000 C   0  0  0  0  0  0  0  0  0  0  0  0
    4.8237   -8.6900    0.0000 C   0  0  2  0  0  0  0  0  0  0  0  0
    6.5980   -5.8319    0.0000 C   0  0  0  0  0  0  0  0  0  0  0  0
    5.9306   -5.3470    0.0000 C   0  0  0  0  0  0  0  0  0  0  0  0
    5.2632   -5.8319    0.0000 O   0  0  0  0  0  0  0  0  0  0  0  0
    4.7586   -9.5342    0.0000 O   0  0  0  0  0  0  0  0  0  0  0  0
    7.1020   -9.4996    0.0000 O   0  0  0  0  0  0  0  0  0  0  0  0
    5.9306   -4.5220    0.0000 O   0  0  0  0  0  0  0  0  0  0  0  0
    7.3827   -5.5770    0.0000 C   0  0  0  0  0  0  0  0  0  0  0  0
    3.7776   -7.8781    0.0000 C   0  0  0  0  0  0  0  0  0  0  0  0
    3.3503   -8.5838    0.0000 O   0  0  0  0  0  0  0  0  0  0  0  0
    7.6764   -6.6282    0.0000 O   0  0  0  0  0  0  0  0  0  0  0  0
    8.4279   -6.9686    0.0000 C   0  0  0  0  0  0  0  0  0  0  0  0
    9.0985   -6.4880    0.0000 C   0  0  0  0  0  0  0  0  0  0  0  0
    8.5088   -7.7896    0.0000 O   0  0  0  0  0  0  0  0  0  0  0  0
    9.8500   -6.8284    0.0000 C   0  0  0  0  0  0  0  0  0  0  0  0
    9.0175   -5.6670    0.0000 C   0  0  0  0  0  0  0  0  0  0  0  0
    9.9309   -7.6494    0.0000 C   0  0  0  0  0  0  0  0  0  0  0  0
   10.6824   -7.9899    0.0000 O   0  0  0  0  0  0  0  0  0  0  0  0
   10.7633   -8.8109    0.0000 C   0  0  0  0  0  0  0  0  0  0  0  0
   11.5148   -9.1513    0.0000 C   0  0  0  0  0  0  0  0  0  0  0  0
   10.0927   -9.2915    0.0000 O   0  0  0  0  0  0  0  0  0  0  0  0
    7.1400   -6.4030    0.0000 H   0  0  0  0  0  0  0  0  0  0  0  0
    6.1779   -9.9759    0.0000 H   0  0  0  0  0  0  0  0  0  0  0  0
    4.7212   -6.4030    0.0000 H   0  0  0  0  0  0  0  0  0  0  0  0
    7.8325   -8.7605    0.0000 C   0  0  0  0  0  0  0  0  0  0  0  0
  1  2  1  0  0  0  0
  1  3  1  0  0  0  0
  3  4  1  0  0  0  0
  4  5  1  0  0  0  0
  5  6  1  0  0  0  0
  6  7  1  0  0  0  0
  7  8  1  0  0  0  0
  8  9  2  0  0  0  0
  9 10  1  0  0  0  0
  2 10  1  0  0  0  0
  6 11  1  0  0  0  0
 11 12  1  0  0  0  0
 12 13  1  0  0  0  0
 13  7  1  0  0  0  0
 10 14  1  1  0  0  0
  2 14  1  1  0  0  0
  1 15  1  0  0  0  0
 15  3  1  0  0  0  0
 12 16  2  0  0  0  0
 11 17  2  0  0  0  0
  9 18  1  0  0  0  0
 18 19  1  0  0  0  0
  5 20  1  6  0  0  0
 20 21  1  0  0  0  0
 21 22  1  0  0  0  0
 21 23  2  0  0  0  0
 22 24  2  0  0  0  0
 22 25  1  0  0  0  0
 24 26  1  0  0  0  0
 26 27  1  0  0  0  0
 27 28  1  0  0  0  0
 28 29  1  0  0  0  0
 28 30  2  0  0  0  0
  6 31  1  1  0  0  0
  1 32  1  1  0  0  0
  7 33  1  6  0  0  0
  3 34  1  6  0  0  0
M  END
>  <cdx:groupId>
741

>  <cdx:fragmentId>
742

$$$$
