30123.cdx
  Mrv1902 05222410182D          

 20 22  0  0  0  0            999 V2000
    7.9404   -8.7564    0.0000 C   0  0  1  0  0  0  0  0  0  0  0  0
    7.9404   -9.5814    0.0000 C   0  0  2  0  0  0  0  0  0  0  0  0
    8.6549   -9.9939    0.0000 C   0  0  1  0  0  0  0  0  0  0  0  0
    9.3693   -9.5814    0.0000 O   0  0  0  0  0  0  0  0  0  0  0  0
    9.3693   -8.7564    0.0000 C   0  0  2  0  0  0  0  0  0  0  0  0
    8.6549   -8.3439    0.0000 C   0  0  0  0  0  0  0  0  0  0  0  0
    7.1558   -8.5015    0.0000 C   0  0  0  0  0  0  0  0  0  0  0  0
    6.6709   -9.1689    0.0000 C   0  0  1  0  0  0  0  0  0  0  0  0
    7.1558   -9.8363    0.0000 C   0  0  2  0  0  0  0  0  0  0  0  0
    5.8459   -9.1689    0.0000 O   0  0  0  0  0  0  0  0  0  0  0  0
    5.1205   -8.7759    0.0000 C   0  0  0  0  0  0  0  0  0  0  0  0
    4.4174   -9.2076    0.0000 C   0  0  0  0  0  0  0  0  0  0  0  0
    5.0982   -7.9512    0.0000 O   0  0  0  0  0  0  0  0  0  0  0  0
    6.9008  -10.6210    0.0000 C   0  0  0  0  0  0  0  0  0  0  0  0
    6.1040  -10.8345    0.0000 Cl  0  0  0  0  0  0  0  0  0  0  0  0
    8.6549   -7.5189    0.0000 C   0  0  0  0  0  0  0  0  0  0  0  0
    7.5683   -9.1219    0.0000 O   0  0  0  0  0  0  0  0  0  0  0  0
    7.9404   -7.9314    0.0000 O   0  0  0  0  0  0  0  0  0  0  0  0
    7.9404  -10.4064    0.0000 H   0  0  0  0  0  0  0  0  0  0  0  0
    8.6549  -10.8189    0.0000 O   0  0  0  0  0  0  0  0  0  0  0  0
  2  3  1  0  0  0  0
  3  4  1  0  0  0  0
  4  5  1  0  0  0  0
  5  6  1  0  0  0  0
  6  1  1  0  0  0  0
  1  7  1  0  0  0  0
  7  8  1  0  0  0  0
  8  9  1  0  0  0  0
  9  2  1  0  0  0  0
  8 10  1  1  0  0  0
 10 11  1  0  0  0  0
 11 12  1  0  0  0  0
 11 13  2  0  0  0  0
  9 14  1  0  0  0  0
 14 15  1  0  0  0  0
  6 16  2  0  0  0  0
  9 17  1  6  0  0  0
  5 17  1  6  0  0  0
  1  2  1  0  0  0  0
  1 18  1  1  0  0  0
  2 19  1  1  0  0  0
  3 20  1  1  0  0  0
M  END
>  <cdx:fragmentId>
88

$$$$
