301238.cdx
  Mrv1902 05222410232D          

 56 61  0  0  0  0            999 V2000
   10.5975  -10.8722    0.0000 O   0  0  0  0  0  0  0  0  0  0  0  0
    9.1565  -11.6760    0.0000 O   0  0  0  0  0  0  0  0  0  0  0  0
    7.7399  -10.8299    0.0000 C   0  0  0  0  0  0  0  0  0  0  0  0
   12.0630   -8.4187    0.0000 O   0  0  0  0  0  0  0  0  0  0  0  0
   13.4795   -9.2647    0.0000 O   0  0  0  0  0  0  0  0  0  0  0  0
   13.4551  -10.9146    0.0000 O   0  0  0  0  0  0  0  0  0  0  0  0
   12.0263  -10.8934    0.0000 C   0  0  0  0  0  0  0  0  0  0  0  0
   12.7468  -10.4915    0.0000 C   0  0  2  0  0  0  0  0  0  0  0  0
   12.7590   -9.6666    0.0000 C   0  0  1  0  0  0  0  0  0  0  0  0
   12.0507   -9.2436    0.0000 C   0  0  2  0  0  0  0  0  0  0  0  0
   11.3302   -9.6454    0.0000 C   0  0  1  0  0  0  0  0  0  0  0  0
   11.3180  -10.4704    0.0000 O   0  0  0  0  0  0  0  0  0  0  0  0
   10.6219   -9.2224    0.0000 O   0  0  0  0  0  0  0  0  0  0  0  0
    8.4604  -10.4280    0.0000 C   0  0  1  0  0  0  0  0  0  0  0  0
    9.1687  -10.8510    0.0000 C   0  0  1  0  0  0  0  0  0  0  0  0
    9.8892  -10.4492    0.0000 C   0  0  2  0  0  0  0  0  0  0  0  0
    9.9014   -9.6243    0.0000 C   0  0  2  0  0  0  0  0  0  0  0  0
    9.1932   -9.2012    0.0000 C   0  0  1  0  0  0  0  0  0  0  0  0
    8.4727   -9.6031    0.0000 O   0  0  0  0  0  0  0  0  0  0  0  0
    9.2054   -8.3763    0.0000 O   0  0  0  0  0  0  0  0  0  0  0  0
    6.3356   -9.1589    0.0000 O   0  0  0  0  0  0  0  0  0  0  0  0
   11.3914   -5.5209    0.0000 O   0  0  0  0  0  0  0  0  0  0  0  0
    9.2421   -5.9016    0.0000 C   0  0  0  0  0  0  0  0  0  0  0  0
    9.9626   -5.4997    0.0000 C   0  0  0  0  0  0  0  0  0  0  0  0
   10.6708   -5.9228    0.0000 C   0  0  0  0  0  0  0  0  0  0  0  0
   10.6586   -6.7477    0.0000 C   0  0  0  0  0  0  0  0  0  0  0  0
    9.9381   -7.1495    0.0000 C   0  0  0  0  0  0  0  0  0  0  0  0
    9.2298   -6.7265    0.0000 C   0  0  0  0  0  0  0  0  0  0  0  0
    4.9802   -4.1882    0.0000 C   0  0  0  0  0  0  0  0  0  0  0  0
    6.4089   -4.2094    0.0000 C   0  0  0  0  0  0  0  0  0  0  0  0
    5.6884   -4.6113    0.0000 C   0  0  0  0  0  0  0  0  0  0  0  0
    5.6762   -5.4362    0.0000 C   0  0  0  0  0  0  0  0  0  0  0  0
    6.3845   -5.8592    0.0000 C   0  0  0  0  0  0  0  0  0  0  0  0
    4.9190   -8.3128    0.0000 O   0  0  0  0  0  0  0  0  0  0  0  0
    3.4780   -9.1165    0.0000 O   0  0  0  0  0  0  0  0  0  0  0  0
    2.0615   -8.2704    0.0000 O   0  0  0  0  0  0  0  0  0  0  0  0
    1.3654   -7.0225    0.0000 O   0  0  0  0  0  0  0  0  0  0  0  0
    2.0859   -6.6206    0.0000 C   0  0  0  0  0  0  0  0  0  0  0  0
    2.7942   -7.0437    0.0000 C   0  0  2  0  0  0  0  0  0  0  0  0
    2.7820   -7.8686    0.0000 C   0  0  2  0  0  0  0  0  0  0  0  0
    3.4902   -8.2916    0.0000 C   0  0  1  0  0  0  0  0  0  0  0  0
    4.2108   -7.8897    0.0000 C   0  0  2  0  0  0  0  0  0  0  0  0
    4.2230   -7.0648    0.0000 C   0  0  1  0  0  0  0  0  0  0  0  0
    3.5147   -6.6418    0.0000 O   0  0  0  0  0  0  0  0  0  0  0  0
    4.9435   -6.6630    0.0000 O   0  0  0  0  0  0  0  0  0  0  0  0
    7.7644   -9.1800    0.0000 O   0  0  0  0  0  0  0  0  0  0  0  0
    7.8011   -6.7053    0.0000 O   0  0  0  0  0  0  0  0  0  0  0  0
    7.0805   -7.1072    0.0000 C   0  0  0  0  0  0  0  0  0  0  0  0
    6.3723   -6.6841    0.0000 C   0  0  0  0  0  0  0  0  0  0  0  0
    5.6518   -7.0860    0.0000 C   0  0  0  0  0  0  0  0  0  0  0  0
    5.6395   -7.9109    0.0000 C   0  0  0  0  0  0  0  0  0  0  0  0
    6.3478   -8.3340    0.0000 C   0  0  0  0  0  0  0  0  0  0  0  0
    7.0683   -7.9321    0.0000 C   0  0  0  0  0  0  0  0  0  0  0  0
    7.7766   -8.3551    0.0000 C   0  0  0  0  0  0  0  0  0  0  0  0
    8.4971   -7.9533    0.0000 C   0  0  0  0  0  0  0  0  0  0  0  0
    8.5093   -7.1284    0.0000 C   0  0  0  0  0  0  0  0  0  0  0  0
 55 20  1  0  0  0  0
 18 20  1  1  0  0  0
 16  1  1  6  0  0  0
 15  2  1  1  0  0  0
 14  3  1  6  0  0  0
 17 13  1  6  0  0  0
 11 13  1  1  0  0  0
 10  4  1  6  0  0  0
  9  5  1  1  0  0  0
  8  6  1  6  0  0  0
 12  7  1  0  0  0  0
  8  7  1  0  0  0  0
  9  8  1  0  0  0  0
 10  9  1  0  0  0  0
 11 10  1  0  0  0  0
 12 11  1  0  0  0  0
 19 14  1  0  0  0  0
 15 14  1  0  0  0  0
 16 15  1  0  0  0  0
 17 16  1  0  0  0  0
 18 17  1  0  0  0  0
 19 18  1  0  0  0  0
 52 21  1  0  0  0  0
 56 28  1  0  0  0  0
 25 22  1  0  0  0  0
 28 23  2  0  0  0  0
 24 23  1  0  0  0  0
 25 24  2  0  0  0  0
 26 25  1  0  0  0  0
 27 26  2  0  0  0  0
 28 27  1  0  0  0  0
 49 33  1  0  0  0  0
 31 29  1  0  0  0  0
 31 30  1  0  0  0  0
 32 31  2  0  0  0  0
 33 32  1  0  0  0  0
 50 45  1  0  0  0  0
 43 45  1  1  0  0  0
 42 34  1  6  0  0  0
 41 35  1  1  0  0  0
 40 36  1  6  0  0  0
 39 38  1  1  0  0  0
 38 37  1  0  0  0  0
 44 39  1  0  0  0  0
 40 39  1  0  0  0  0
 41 40  1  0  0  0  0
 42 41  1  0  0  0  0
 43 42  1  0  0  0  0
 44 43  1  0  0  0  0
 54 46  2  0  0  0  0
 56 47  1  0  0  0  0
 48 47  1  0  0  0  0
 53 48  2  0  0  0  0
 49 48  1  0  0  0  0
 50 49  2  0  0  0  0
 51 50  1  0  0  0  0
 52 51  2  0  0  0  0
 53 52  1  0  0  0  0
 54 53  1  0  0  0  0
 55 54  1  0  0  0  0
 56 55  2  0  0  0  0
M  END
>  <cdx:groupId>
2388

>  <cdx:fragmentId>
2242

$$$$
