301277.cdx
  Mrv1902 05222410282D          

 45 48  0  0  0  0            999 V2000
    7.7032   -8.1394    0.0000 O   0  0  0  0  0  0  0  0  0  0  0  0
   11.8029   -7.1962    0.0000 O   0  0  0  0  0  0  0  0  0  0  0  0
    8.1201   -8.8513    0.0000 C   0  0  1  0  0  0  0  0  0  0  0  0
    7.7120   -9.5683    0.0000 C   0  0  1  0  0  0  0  0  0  0  0  0
    6.8870   -9.5734    0.0000 C   0  0  2  0  0  0  0  0  0  0  0  0
    6.4701   -8.8615    0.0000 C   0  0  1  0  0  0  0  0  0  0  0  0
    6.8782   -8.1445    0.0000 C   0  0  1  0  0  0  0  0  0  0  0  0
    8.1289  -10.2802    0.0000 O   0  0  0  0  0  0  0  0  0  0  0  0
    6.4789  -10.2904    0.0000 O   0  0  0  0  0  0  0  0  0  0  0  0
    5.6451   -8.8665    0.0000 O   0  0  0  0  0  0  0  0  0  0  0  0
    6.4613   -7.4325    0.0000 C   0  0  0  0  0  0  0  0  0  0  0  0
    5.6363   -7.4376    0.0000 O   0  0  0  0  0  0  0  0  0  0  0  0
    8.9451   -8.8462    0.0000 O   0  0  0  0  0  0  0  0  0  0  0  0
   12.8515   -5.3633    0.0000 O   0  0  0  0  0  0  0  0  0  0  0  0
   11.4314   -4.2656    0.0000 O   0  0  0  0  0  0  0  0  0  0  0  0
    9.7643   -4.4729    0.0000 O   0  0  0  0  0  0  0  0  0  0  0  0
    9.9487   -5.2770    0.0000 C   0  0  0  0  0  0  0  0  0  0  0  0
   10.7254   -5.5552    0.0000 C   0  0  2  0  0  0  0  0  0  0  0  0
   11.4069   -5.0903    0.0000 C   0  0  2  0  0  0  0  0  0  0  0  0
   12.0597   -5.5948    0.0000 C   0  0  1  0  0  0  0  0  0  0  0  0
   11.7816   -6.3715    0.0000 C   0  0  1  0  0  0  0  0  0  0  0  0
   10.9569   -6.3470    0.0000 O   0  0  0  0  0  0  0  0  0  0  0  0
   12.5487   -6.6750    0.0000 C   0  0  0  0  0  0  0  0  0  0  0  0
   10.3740   -9.6712    0.0000 O   0  0  0  0  0  0  0  0  0  0  0  0
   11.8029   -8.8462    0.0000 O   0  0  0  0  0  0  0  0  0  0  0  0
    8.2306   -7.6087    0.0000 O   0  0  0  0  0  0  0  0  0  0  0  0
    8.9451   -7.1962    0.0000 C   0  0  0  0  0  0  0  0  0  0  0  0
   11.0885   -7.6087    0.0000 C   0  0  2  0  0  0  0  0  0  0  0  0
   11.0885   -8.4337    0.0000 C   0  0  1  0  0  0  0  0  0  0  0  0
   10.3740   -8.8462    0.0000 C   0  0  2  0  0  0  0  0  0  0  0  0
    9.6595   -8.4337    0.0000 C   0  0  1  0  0  0  0  0  0  0  0  0
    9.6595   -7.6087    0.0000 C   0  0  2  0  0  0  0  0  0  0  0  0
   10.3740   -7.1962    0.0000 O   0  0  0  0  0  0  0  0  0  0  0  0
   13.1951   -6.1623    0.0000 O   0  0  0  0  0  0  0  0  0  0  0  0
    4.9360   -9.2881    0.0000 C   0  0  1  0  0  0  0  0  0  0  0  0
    4.2150   -8.8870    0.0000 O   0  0  0  0  0  0  0  0  0  0  0  0
    3.5072   -9.3107    0.0000 C   0  0  1  0  0  0  0  0  0  0  0  0
    3.5088  -10.1291    0.0000 C   0  0  2  0  0  0  0  0  0  0  0  0
    4.2259  -10.5369    0.0000 C   0  0  1  0  0  0  0  0  0  0  0  0
    4.9300  -10.1197    0.0000 C   0  0  1  0  0  0  0  0  0  0  0  0
    2.7891   -8.9046    0.0000 C   0  0  0  0  0  0  0  0  0  0  0  0
    4.2333  -11.3618    0.0000 O   0  0  0  0  0  0  0  0  0  0  0  0
    2.7961  -10.5446    0.0000 O   0  0  0  0  0  0  0  0  0  0  0  0
    5.6453  -10.5308    0.0000 O   0  0  0  0  0  0  0  0  0  0  0  0
    2.0783   -9.3234    0.0000 O   0  0  0  0  0  0  0  0  0  0  0  0
 31 13  1  6  0  0  0
 28  2  1  6  0  0  0
 20 14  1  6  0  0  0
 19 15  1  1  0  0  0
 18 17  1  6  0  0  0
 17 16  1  0  0  0  0
 22 18  1  0  0  0  0
 19 18  1  0  0  0  0
 20 19  1  0  0  0  0
 21 20  1  0  0  0  0
 22 21  1  0  0  0  0
 30 24  1  1  0  0  0
 29 25  1  6  0  0  0
 32 27  1  1  0  0  0
 27 26  1  0  0  0  0
 33 28  1  0  0  0  0
 29 28  1  0  0  0  0
 30 29  1  0  0  0  0
 31 30  1  0  0  0  0
 32 31  1  0  0  0  0
 33 32  1  0  0  0  0
  1  3  1  0  0  0  0
  3  4  1  0  0  0  0
  4  5  1  0  0  0  0
  5  6  1  0  0  0  0
  6  7  1  0  0  0  0
  1  7  1  0  0  0  0
  4  8  1  6  0  0  0
  5  9  1  1  0  0  0
  6 10  1  6  0  0  0
 11 12  1  0  0  0  0
  7 11  1  1  0  0  0
  3 13  1  6  0  0  0
 21 23  1  0  0  0  0
 23 34  1  0  0  0  0
 21  2  1  6  0  0  0
 35 10  1  6  0  0  0
 35 36  1  0  0  0  0
 36 37  1  0  0  0  0
 37 38  1  0  0  0  0
 38 39  1  0  0  0  0
 39 40  1  0  0  0  0
 40 35  1  0  0  0  0
 37 41  1  1  0  0  0
 39 42  1  1  0  0  0
 38 43  1  6  0  0  0
 40 44  1  6  0  0  0
 41 45  1  0  0  0  0
M  END
>  <cdx:groupId>
3304

>  <cdx:fragmentId>
3249

$$$$
