301274.cdx
  Mrv1902 05222410272D          

 16 17  0  0  0  0            999 V2000
    6.5044   -8.5192    0.0000 C   0  0  0  0  0  0  0  0  0  0  0  0
    7.2155   -5.6309    0.0000 C   0  0  0  0  0  0  0  0  0  0  0  0
   10.0753   -7.2775    0.0000 C   0  0  0  0  0  0  0  0  0  0  0  0
    9.3613   -7.6909    0.0000 C   0  0  0  0  0  0  0  0  0  0  0  0
    9.3623   -8.5159    0.0000 C   0  0  0  0  0  0  0  0  0  0  0  0
    5.0726   -6.0459    0.0000 O   0  0  0  0  0  0  0  0  0  0  0  0
    7.2165   -6.4559    0.0000 C   0  0  1  0  0  0  0  0  0  0  0  0
    7.9304   -6.0425    0.0000 C   0  0  0  0  0  0  0  0  0  0  0  0
    8.6454   -6.4542    0.0000 C   0  0  0  0  0  0  0  0  0  0  0  0
    8.6464   -7.2792    0.0000 C   0  0  2  0  0  0  0  0  0  0  0  0
    7.9324   -7.6925    0.0000 C   0  0  0  0  0  0  0  0  0  0  0  0
    7.2174   -7.2809    0.0000 C   0  0  0  0  0  0  0  0  0  0  0  0
    6.5034   -7.6942    0.0000 C   0  0  0  0  0  0  0  0  0  0  0  0
    5.7885   -7.2826    0.0000 C   0  0  0  0  0  0  0  0  0  0  0  0
    5.7875   -6.4576    0.0000 C   0  0  0  0  0  0  0  0  0  0  0  0
    6.5015   -6.0442    0.0000 C   0  0  0  0  0  0  0  0  0  0  0  0
 13  1  1  0  0  0  0
  7  2  1  1  0  0  0
 10  4  1  1  0  0  0
  4  3  1  0  0  0  0
  5  4  2  0  0  0  0
 15  6  1  0  0  0  0
 12  7  1  0  0  0  0
 16  7  1  0  0  0  0
  8  7  1  0  0  0  0
  9  8  1  0  0  0  0
 10  9  1  0  0  0  0
 11 10  1  0  0  0  0
 12 11  1  0  0  0  0
 13 12  2  0  0  0  0
 14 13  1  0  0  0  0
 15 14  1  0  0  0  0
 16 15  1  0  0  0  0
M  END
>  <cdx:fragmentId>
1037

$$$$
