301250.cdx
  Mrv1902 05222410192D          

 28 31  0  0  0  0            999 V2000
    4.7624   -9.2899    0.0000 C   0  0  0  0  0  0  0  0  0  0  0  0
    5.4769   -8.8774    0.0000 C   0  0  0  0  0  0  0  0  0  0  0  0
    4.7624  -10.1149    0.0000 O   0  0  0  0  0  0  0  0  0  0  0  0
    4.0479   -8.8774    0.0000 O   0  0  0  0  0  0  0  0  0  0  0  0
    6.1914   -9.2899    0.0000 S   0  0  0  0  0  0  0  0  0  0  0  0
    6.6039   -8.5755    0.0000 O   0  0  0  0  0  0  0  0  0  0  0  0
    5.7789  -10.0044    0.0000 O   0  0  0  0  0  0  0  0  0  0  0  0
    6.9058   -9.7024    0.0000 O   0  0  0  0  0  0  0  0  0  0  0  0
    9.7637   -8.0524    0.0000 C   0  0  0  0  0  0  0  0  0  0  0  0
   10.4782   -8.4649    0.0000 N   0  0  0  0  0  0  0  0  0  0  0  0
   10.4782   -9.2899    0.0000 C   0  0  0  0  0  0  0  0  0  0  0  0
    9.7637   -9.7024    0.0000 C   0  0  0  0  0  0  0  0  0  0  0  0
    9.0492   -9.2899    0.0000 C   0  0  0  0  0  0  0  0  0  0  0  0
    8.3348   -9.7024    0.0000 C   0  0  0  0  0  0  0  0  0  0  0  0
    7.6203   -9.2899    0.0000 C   0  0  0  0  0  0  0  0  0  0  0  0
    7.6203   -8.4649    0.0000 C   0  0  0  0  0  0  0  0  0  0  0  0
    8.3348   -8.0524    0.0000 C   0  0  0  0  0  0  0  0  0  0  0  0
    9.0492   -8.4649    0.0000 C   0  0  0  0  0  0  0  0  0  0  0  0
   11.0913   -7.9129    0.0000 C   0  0  0  0  0  0  0  0  0  0  0  0
   10.7557   -7.1592    0.0000 C   0  0  0  0  0  0  0  0  0  0  0  0
    9.9352   -7.2455    0.0000 C   0  0  0  0  0  0  0  0  0  0  0  0
    9.4135   -6.6064    0.0000 C   0  0  0  0  0  0  0  0  0  0  0  0
    8.6038   -6.7647    0.0000 C   0  0  0  0  0  0  0  0  0  0  0  0
    8.3618   -7.5534    0.0000 C   0  0  0  0  0  0  0  0  0  0  0  0
    8.9432   -8.1387    0.0000 C   0  0  0  0  0  0  0  0  0  0  0  0
    7.5609   -7.7512    0.0000 O   0  0  0  0  0  0  0  0  0  0  0  0
    6.9775   -7.1679    0.0000 C   0  0  0  0  0  0  0  0  0  0  0  0
    6.9058   -8.0524    0.0000 O   0  0  0  0  0  0  0  0  0  0  0  0
  1  2  1  0  0  0  0
  1  3  2  0  0  0  0
  1  4  1  0  0  0  0
  5  6  2  0  0  0  0
  5  7  2  0  0  0  0
  9 10  1  0  0  0  0
 10 11  1  0  0  0  0
 11 12  1  0  0  0  0
 12 13  1  0  0  0  0
 13 14  1  0  0  0  0
 14 15  2  0  0  0  0
 15 16  1  0  0  0  0
 16 17  2  0  0  0  0
 17 18  1  0  0  0  0
  9 18  1  0  0  0  0
 13 18  2  0  0  0  0
 19 20  1  0  0  0  0
 20 21  2  0  0  0  0
 21 22  1  0  0  0  0
 22 23  2  0  0  0  0
 23 24  1  0  0  0  0
 24 25  1  0  0  0  0
 21  9  1  0  0  0  0
 25  9  1  0  0  0  0
 19 10  1  0  0  0  0
 26 27  1  0  0  0  0
 24 26  1  0  0  0  0
 16 28  1  0  0  0  0
  8 15  1  0  0  0  0
  5  8  1  0  0  0  0
  2  5  1  0  0  0  0
M  END
>  <cdx:groupId>
3566

>  <cdx:fragmentId>
3498

$$$$
