301225.cdx
  Mrv1902 05222410202D          

 19 18  0  0  0  0            999 V2000
    4.4856  -10.1624    0.0000 C   0  0  0  0  0  0  0  0  0  0  0  0
    5.1998   -9.7494    0.0000 C   0  0  0  0  0  0  0  0  0  0  0  0
    5.9139   -9.3363    0.0000 C   0  0  0  0  0  0  0  0  0  0  0  0
    6.6281   -8.9232    0.0000 C   0  0  0  0  0  0  0  0  0  0  0  0
    7.3422   -8.5102    0.0000 C   0  0  2  0  0  0  0  0  0  0  0  0
    8.0570   -8.9221    0.0000 C   0  0  0  0  0  0  0  0  0  0  0  0
    8.7712   -8.5091    0.0000 C   0  0  0  0  0  0  0  0  0  0  0  0
   10.8821   -3.9564    0.0000 C   0  0  0  0  0  0  0  0  0  0  0  0
    3.0567  -10.1635    0.0000 O   0  0  0  0  0  0  0  0  0  0  0  0
    7.3416   -7.6852    0.0000 O   0  0  0  0  0  0  0  0  0  0  0  0
    3.7715  -10.5755    0.0000 C   0  0  1  0  0  0  0  0  0  0  0  0
    3.7721  -11.4005    0.0000 C   0  0  0  0  0  0  0  0  0  0  0  0
   10.8880   -4.7814    0.0000 C   0  0  0  0  0  0  0  0  0  0  0  0
   10.1765   -5.1990    0.0000 C   0  0  0  0  0  0  0  0  0  0  0  0
   10.1824   -6.0239    0.0000 C   0  0  0  0  0  0  0  0  0  0  0  0
    9.4709   -6.4415    0.0000 C   0  0  0  0  0  0  0  0  0  0  0  0
    9.4768   -7.2665    0.0000 C   0  0  0  0  0  0  0  0  0  0  0  0
    8.7653   -7.6841    0.0000 C   0  0  0  0  0  0  0  0  0  0  0  0
    3.0579  -11.8135    0.0000 C   0  0  0  0  0  0  0  0  0  0  0  0
 11  9  1  6  0  0  0
 12 11  1  0  0  0  0
 19 12  2  0  0  0  0
 13  8  2  0  0  0  0
 14 13  1  0  0  0  0
 15 14  1  0  0  0  0
 16 15  1  0  0  0  0
 17 16  1  0  0  0  0
 18 17  1  0  0  0  0
 11  1  1  0  0  0  0
  1  2  3  0  0  0  0
  2  3  1  0  0  0  0
  3  4  3  0  0  0  0
  4  5  1  0  0  0  0
  5  6  1  0  0  0  0
  6  7  2  0  0  0  0
  7 18  1  0  0  0  0
  5 10  1  1  0  0  0
M  END
>  <cdx:fragmentId>
437

$$$$
