301217.cdx
  Mrv1902 05222410252D          

 34 34  0  0  0  0            999 V2000
    5.0087   -5.9004    0.0000 C   0  0  0  0  0  0  0  0  0  0  0  0
    4.2942   -6.3129    0.0000 C   0  0  0  0  0  0  0  0  0  0  0  0
    3.5798   -5.9004    0.0000 C   0  0  0  0  0  0  0  0  0  0  0  0
    5.0087   -5.0754    0.0000 O   0  0  0  0  0  0  0  0  0  0  0  0
    5.7232   -6.3129    0.0000 O   0  0  0  0  0  0  0  0  0  0  0  0
    2.8653   -6.3129    0.0000 C   0  0  0  0  0  0  0  0  0  0  0  0
    2.1508   -5.9004    0.0000 C   0  0  0  0  0  0  0  0  0  0  0  0
    1.4363   -6.3129    0.0000 C   0  0  0  0  0  0  0  0  0  0  0  0
    1.4363   -7.1379    0.0000 C   0  0  0  0  0  0  0  0  0  0  0  0
    2.1508   -7.5504    0.0000 C   0  0  0  0  0  0  0  0  0  0  0  0
    2.8653   -7.1379    0.0000 C   0  0  0  0  0  0  0  0  0  0  0  0
    0.7219   -5.9004    0.0000 O   0  0  0  0  0  0  0  0  0  0  0  0
    0.0074   -6.3129    0.0000 C   0  0  0  0  0  0  0  0  0  0  0  0
    0.7219   -7.5504    0.0000 O   0  0  0  0  0  0  0  0  0  0  0  0
    6.4376   -5.9004    0.0000 C   0  0  0  0  0  0  0  0  0  0  0  0
    7.1521   -6.3129    0.0000 C   0  0  0  0  0  0  0  0  0  0  0  0
    7.8666   -5.9004    0.0000 C   0  0  0  0  0  0  0  0  0  0  0  0
    8.5811   -6.3129    0.0000 C   0  0  0  0  0  0  0  0  0  0  0  0
    9.2955   -5.9004    0.0000 C   0  0  0  0  0  0  0  0  0  0  0  0
   10.0100   -6.3129    0.0000 C   0  0  0  0  0  0  0  0  0  0  0  0
   10.7245   -5.9004    0.0000 C   0  0  0  0  0  0  0  0  0  0  0  0
   11.4389   -6.3129    0.0000 C   0  0  0  0  0  0  0  0  0  0  0  0
   12.1534   -5.9004    0.0000 C   0  0  0  0  0  0  0  0  0  0  0  0
   12.8679   -6.3129    0.0000 C   0  0  0  0  0  0  0  0  0  0  0  0
   13.5824   -5.9004    0.0000 C   0  0  0  0  0  0  0  0  0  0  0  0
   14.2968   -6.3129    0.0000 C   0  0  0  0  0  0  0  0  0  0  0  0
   15.0113   -5.9004    0.0000 C   0  0  0  0  0  0  0  0  0  0  0  0
   15.7258   -6.3129    0.0000 C   0  0  0  0  0  0  0  0  0  0  0  0
   16.4402   -5.9004    0.0000 C   0  0  0  0  0  0  0  0  0  0  0  0
   17.1547   -6.3129    0.0000 C   0  0  0  0  0  0  0  0  0  0  0  0
   17.8692   -5.9004    0.0000 C   0  0  0  0  0  0  0  0  0  0  0  0
   18.5837   -6.3129    0.0000 C   0  0  0  0  0  0  0  0  0  0  0  0
   19.2981   -5.9004    0.0000 C   0  0  0  0  0  0  0  0  0  0  0  0
   20.0126   -6.3129    0.0000 C   0  0  0  0  0  0  0  0  0  0  0  0
  1  2  1  0  0  0  0
  2  3  2  0  0  0  0
  1  4  2  0  0  0  0
  1  5  1  0  0  0  0
  6  7  1  0  0  0  0
  7  8  2  0  0  0  0
  8  9  1  0  0  0  0
  9 10  2  0  0  0  0
 10 11  1  0  0  0  0
  6 11  2  0  0  0  0
 12 13  1  0  0  0  0
  8 12  1  0  0  0  0
  9 14  1  0  0  0  0
  3  6  1  0  0  0  0
 15 16  1  0  0  0  0
 16 17  1  0  0  0  0
 17 18  1  0  0  0  0
 18 19  1  0  0  0  0
 19 20  1  0  0  0  0
 20 21  1  0  0  0  0
 21 22  1  0  0  0  0
 22 23  1  0  0  0  0
 23 24  1  0  0  0  0
 24 25  1  0  0  0  0
 25 26  1  0  0  0  0
 26 27  1  0  0  0  0
 27 28  1  0  0  0  0
 28 29  1  0  0  0  0
 29 30  1  0  0  0  0
 30 31  1  0  0  0  0
 31 32  1  0  0  0  0
 32 33  1  0  0  0  0
 33 34  1  0  0  0  0
  5 15  1  0  0  0  0
M  END
>  <cdx:groupId>
869

>  <cdx:fragmentId>
798

$$$$
