301254.cdx
  Mrv1902 05222410192D          

  8  7  0  0  0  0            999 V2000
    6.2906   -7.8053    0.0000 C   0  0  0  0  0  0  0  0  0  0  0  0
    7.1156   -7.8053    0.0000 C   0  0  0  0  0  0  0  0  0  0  0  0
    7.9406   -7.8053    0.0000 Cl  0  0  0  0  0  0  0  0  0  0  0  0
    5.4656   -7.8053    0.0000 Cl  0  0  0  0  0  0  0  0  0  0  0  0
    6.2906   -6.9803    0.0000 Cl  0  0  0  0  0  0  0  0  0  0  0  0
    6.2906   -8.6303    0.0000 Cl  0  0  0  0  0  0  0  0  0  0  0  0
    7.1156   -6.9803    0.0000 Cl  0  0  0  0  0  0  0  0  0  0  0  0
    7.1156   -8.6303    0.0000 Cl  0  0  0  0  0  0  0  0  0  0  0  0
  1  2  1  0  0  0  0
  2  3  1  0  0  0  0
  1  4  1  0  0  0  0
  1  5  1  0  0  0  0
  1  6  1  0  0  0  0
  2  7  1  0  0  0  0
  2  8  1  0  0  0  0
M  END
>  <cdx:fragmentId>
89

$$$$
