301240.cdx
  Mrv1902 05222410192D          

 16 18  0  0  0  0            999 V2000
    8.1725   -7.7656    0.0000 C   0  0  0  0  0  0  0  0  0  0  0  0
    8.2955   -6.9498    0.0000 O   0  0  0  0  0  0  0  0  0  0  0  0
    7.5275   -7.2512    0.0000 C   0  0  0  0  0  0  0  0  0  0  0  0
    6.7232   -7.4348    0.0000 C   0  0  0  0  0  0  0  0  0  0  0  0
    6.3652   -8.1781    0.0000 C   0  0  0  0  0  0  0  0  0  0  0  0
    6.7232   -8.9214    0.0000 C   0  0  1  0  0  0  0  0  0  0  0  0
    7.5275   -9.1049    0.0000 C   0  0  0  0  0  0  0  0  0  0  0  0
    8.1725   -8.5906    0.0000 C   0  0  0  0  0  0  0  0  0  0  0  0
    8.9571   -8.8455    0.0000 C   0  0  1  0  0  0  0  0  0  0  0  0
    9.4420   -8.1781    0.0000 C   0  0  0  0  0  0  0  0  0  0  0  0
    8.9571   -7.5106    0.0000 C   0  0  0  0  0  0  0  0  0  0  0  0
    6.5102  -10.3344    0.0000 C   0  0  0  0  0  0  0  0  0  0  0  0
    6.2088   -9.5664    0.0000 C   0  0  0  0  0  0  0  0  0  0  0  0
    5.3930   -9.4434    0.0000 C   0  0  0  0  0  0  0  0  0  0  0  0
    9.2121   -9.6301    0.0000 C   0  0  0  0  0  0  0  0  0  0  0  0
    7.2843   -6.4628    0.0000 C   0  0  0  0  0  0  0  0  0  0  0  0
  1  2  1  0  0  0  0
  2  3  1  0  0  0  0
  3  4  1  0  0  0  0
  4  5  1  0  0  0  0
  5  6  1  0  0  0  0
  6  7  1  0  0  0  0
  7  8  1  0  0  0  0
  8  9  1  0  0  0  0
  9 10  1  0  0  0  0
 10 11  1  0  0  0  0
  1 11  1  0  0  0  0
  1  8  1  0  0  0  0
  1  3  1  0  0  0  0
 12 13  2  0  0  0  0
 13 14  1  0  0  0  0
  6 13  1  1  0  0  0
  9 15  1  1  0  0  0
  3 16  1  0  0  0  0
M  END
>  <cdx:groupId>
2604

>  <cdx:fragmentId>
2557

$$$$
