301221.cdx
  Mrv1902 05222410232D          

 13 13  0  0  0  0            999 V2000
    7.6311   -7.1195    0.0000 C   0  0  0  0  0  0  0  0  0  0  0  0
    6.9166   -6.7070    0.0000 C   0  0  0  0  0  0  0  0  0  0  0  0
    6.2021   -7.1195    0.0000 C   0  0  0  0  0  0  0  0  0  0  0  0
    6.6146   -7.8340    0.0000 C   0  0  0  0  0  0  0  0  0  0  0  0
    6.9166   -5.8820    0.0000 O   0  0  0  0  0  0  0  0  0  0  0  0
    5.4877   -7.5320    0.0000 O   0  0  0  0  0  0  0  0  0  0  0  0
    9.0992   -7.0425    0.0000 O   0  0  0  0  0  0  0  0  0  0  0  0
    8.3456   -6.7070    0.0000 C   0  0  0  0  0  0  0  0  0  0  0  0
    8.4318   -5.8865    0.0000 C   0  0  0  0  0  0  0  0  0  0  0  0
    9.2388   -5.7150    0.0000 C   0  0  0  0  0  0  0  0  0  0  0  0
    9.6513   -6.4295    0.0000 C   0  0  0  0  0  0  0  0  0  0  0  0
    7.8187   -5.3345    0.0000 C   0  0  0  0  0  0  0  0  0  0  0  0
    5.7896   -6.4050    0.0000 C   0  0  0  0  0  0  0  0  0  0  0  0
  1  2  1  0  0  0  0
  2  3  1  0  0  0  0
  3  4  1  0  0  0  0
  2  5  1  0  0  0  0
  3  6  1  0  0  0  0
  7  8  1  0  0  0  0
  8  9  2  0  0  0  0
  9 10  1  0  0  0  0
 10 11  2  0  0  0  0
  7 11  1  0  0  0  0
  9 12  1  0  0  0  0
  1  8  1  0  0  0  0
  3 13  1  0  0  0  0
M  END
>  <cdx:groupId>
482

>  <cdx:fragmentId>
458

$$$$
