301266.cdx
  Mrv1902 05222410262D          

 20 19  0  0  0  0            999 V2000
    0.9948   -6.0241    0.0000 C   0  0  0  0  0  0  0  0  0  0  0  0
    1.7092   -6.4366    0.0000 C   0  0  0  0  0  0  0  0  0  0  0  0
    2.4237   -6.0241    0.0000 O   0  0  0  0  0  0  0  0  0  0  0  0
    3.1382   -7.2616    0.0000 O   0  0  0  0  0  0  0  0  0  0  0  0
   13.8552   -6.0241    0.0000 C   0  0  0  0  0  0  0  0  0  0  0  0
   13.1408   -6.4366    0.0000 C   0  0  0  0  0  0  0  0  0  0  0  0
   12.4263   -6.0241    0.0000 C   0  0  0  0  0  0  0  0  0  0  0  0
   11.7118   -6.4366    0.0000 C   0  0  0  0  0  0  0  0  0  0  0  0
   10.9974   -6.0241    0.0000 C   0  0  0  0  0  0  0  0  0  0  0  0
   10.2829   -6.4366    0.0000 C   0  0  0  0  0  0  0  0  0  0  0  0
    9.5684   -6.0241    0.0000 C   0  0  0  0  0  0  0  0  0  0  0  0
    8.8539   -6.4366    0.0000 C   0  0  0  0  0  0  0  0  0  0  0  0
    8.1395   -6.0241    0.0000 C   0  0  0  0  0  0  0  0  0  0  0  0
    7.4250   -6.4366    0.0000 C   0  0  0  0  0  0  0  0  0  0  0  0
    6.7105   -6.0241    0.0000 C   0  0  0  0  0  0  0  0  0  0  0  0
    5.9961   -6.4366    0.0000 C   0  0  0  0  0  0  0  0  0  0  0  0
    5.2816   -6.0241    0.0000 C   0  0  0  0  0  0  0  0  0  0  0  0
    4.5671   -6.4366    0.0000 C   0  0  0  0  0  0  0  0  0  0  0  0
    3.8526   -6.0241    0.0000 C   0  0  0  0  0  0  0  0  0  0  0  0
    3.1382   -6.4366    0.0000 C   0  0  0  0  0  0  0  0  0  0  0  0
  3  2  1  0  0  0  0
  2  1  1  0  0  0  0
 20  3  1  0  0  0  0
 20  4  2  0  0  0  0
  6  5  1  0  0  0  0
  7  6  1  0  0  0  0
  8  7  1  0  0  0  0
  9  8  1  0  0  0  0
 10  9  1  0  0  0  0
 11 10  1  0  0  0  0
 12 11  1  0  0  0  0
 13 12  1  0  0  0  0
 14 13  1  0  0  0  0
 15 14  1  0  0  0  0
 16 15  1  0  0  0  0
 17 16  1  0  0  0  0
 18 17  1  0  0  0  0
 19 18  2  0  0  0  0
 20 19  1  0  0  0  0
M  END
>  <cdx:fragmentId>
580

$$$$
