30127.cdx
  Mrv1902 05222410202D          

 27 29  0  0  0  0            999 V2000
    5.2643   -6.2139    0.0000 C   0  0  0  0  0  0  0  0  0  0  0  0
    5.2643   -7.0389    0.0000 C   0  0  0  0  0  0  0  0  0  0  0  0
    5.9788   -7.4514    0.0000 C   0  0  0  0  0  0  0  0  0  0  0  0
    6.6932   -7.0389    0.0000 C   0  0  0  0  0  0  0  0  0  0  0  0
    6.6932   -6.2139    0.0000 C   0  0  0  0  0  0  0  0  0  0  0  0
    5.9788   -5.8014    0.0000 C   0  0  0  0  0  0  0  0  0  0  0  0
    7.4077   -7.4514    0.0000 C   0  0  0  0  0  0  0  0  0  0  0  0
    8.1222   -7.0389    0.0000 C   0  0  1  0  0  0  0  0  0  0  0  0
    8.1222   -6.2139    0.0000 C   0  0  2  0  0  0  0  0  0  0  0  0
    7.4077   -5.8014    0.0000 O   0  0  0  0  0  0  0  0  0  0  0  0
    8.8367   -7.4514    0.0000 O   0  0  0  0  0  0  0  0  0  0  0  0
    9.5511   -6.2139    0.0000 C   0  0  0  0  0  0  0  0  0  0  0  0
    8.8367   -5.8014    0.0000 C   0  0  0  0  0  0  0  0  0  0  0  0
   10.2656   -5.8014    0.0000 C   0  0  0  0  0  0  0  0  0  0  0  0
   10.2656   -4.9764    0.0000 C   0  0  0  0  0  0  0  0  0  0  0  0
    9.5511   -4.5639    0.0000 C   0  0  0  0  0  0  0  0  0  0  0  0
    8.8367   -4.9764    0.0000 C   0  0  0  0  0  0  0  0  0  0  0  0
    5.9788   -4.9764    0.0000 C   0  0  0  0  0  0  0  0  0  0  0  0
    5.2643   -4.5639    0.0000 C   0  0  0  0  0  0  0  0  0  0  0  0
    4.5498   -5.8014    0.0000 O   0  0  0  0  0  0  0  0  0  0  0  0
    5.9788   -3.3264    0.0000 C   0  0  0  0  0  0  0  0  0  0  0  0
    5.2643   -3.7389    0.0000 C   0  0  0  0  0  0  0  0  0  0  0  0
    5.9788   -8.2764    0.0000 O   0  0  0  0  0  0  0  0  0  0  0  0
    7.4077   -8.2764    0.0000 O   0  0  0  0  0  0  0  0  0  0  0  0
   10.9801   -4.5639    0.0000 O   0  0  0  0  0  0  0  0  0  0  0  0
    4.5498   -3.3264    0.0000 C   0  0  0  0  0  0  0  0  0  0  0  0
    5.2643   -8.6889    0.0000 C   0  0  0  0  0  0  0  0  0  0  0  0
  1  2  2  0  0  0  0
  2  3  1  0  0  0  0
  3  4  2  0  0  0  0
  4  5  1  0  0  0  0
  5  6  2  0  0  0  0
  6  1  1  0  0  0  0
  4  7  1  0  0  0  0
  7  8  1  0  0  0  0
  8  9  1  0  0  0  0
  9 10  1  0  0  0  0
 10  5  1  0  0  0  0
  8 11  1  1  0  0  0
 12 13  2  0  0  0  0
  9 13  1  6  0  0  0
 12 14  1  0  0  0  0
 14 15  2  0  0  0  0
 15 16  1  0  0  0  0
 16 17  2  0  0  0  0
 17 13  1  0  0  0  0
  6 18  1  0  0  0  0
 18 19  1  0  0  0  0
 20  1  1  0  0  0  0
 21 22  1  0  0  0  0
 22 19  2  0  0  0  0
  3 23  1  0  0  0  0
 24  7  2  0  0  0  0
 15 25  1  0  0  0  0
 22 26  1  0  0  0  0
 23 27  1  0  0  0  0
M  END
>  <cdx:fragmentId>
5

$$$$
