30125.cdx
  Mrv1902 05222410192D          

 20 19  0  0  0  0            999 V2000
    1.9775   -9.6376    0.0000 C   0  0  0  0  0  0  0  0  0  0  0  0
    2.6920   -9.2251    0.0000 C   0  0  0  0  0  0  0  0  0  0  0  0
    3.4065   -9.6376    0.0000 C   0  0  0  0  0  0  0  0  0  0  0  0
    4.1209   -9.2251    0.0000 C   0  0  0  0  0  0  0  0  0  0  0  0
    4.8354   -9.6376    0.0000 C   0  0  0  0  0  0  0  0  0  0  0  0
    5.5499   -9.2251    0.0000 C   0  0  0  0  0  0  0  0  0  0  0  0
    6.2644   -9.6376    0.0000 C   0  0  0  0  0  0  0  0  0  0  0  0
    6.9788   -9.2251    0.0000 C   0  0  0  0  0  0  0  0  0  0  0  0
    7.6933   -9.6376    0.0000 C   0  0  0  0  0  0  0  0  0  0  0  0
    8.4078   -9.2251    0.0000 C   0  0  0  0  0  0  0  0  0  0  0  0
    9.1222   -9.6376    0.0000 C   0  0  0  0  0  0  0  0  0  0  0  0
    9.8367   -9.2251    0.0000 C   0  0  0  0  0  0  0  0  0  0  0  0
   10.5512   -9.6376    0.0000 C   0  0  0  0  0  0  0  0  0  0  0  0
   11.2656   -9.2251    0.0000 C   0  0  0  0  0  0  0  0  0  0  0  0
   11.9801   -9.6376    0.0000 C   0  0  0  0  0  0  0  0  0  0  0  0
   12.6946   -9.2251    0.0000 C   0  0  0  0  0  0  0  0  0  0  0  0
    3.4065  -10.4626    0.0000 C   0  0  0  0  0  0  0  0  0  0  0  0
    6.2644  -10.4626    0.0000 C   0  0  0  0  0  0  0  0  0  0  0  0
    9.1222  -10.4626    0.0000 C   0  0  0  0  0  0  0  0  0  0  0  0
   11.9801  -10.4626    0.0000 C   0  0  0  0  0  0  0  0  0  0  0  0
  1  2  1  0  0  0  0
  2  3  2  0  0  0  0
  3  4  1  0  0  0  0
  4  5  1  0  0  0  0
  5  6  1  0  0  0  0
  6  7  1  0  0  0  0
  7  8  1  0  0  0  0
  8  9  1  0  0  0  0
  9 10  1  0  0  0  0
 10 11  1  0  0  0  0
 11 12  1  0  0  0  0
 12 13  1  0  0  0  0
 13 14  1  0  0  0  0
 14 15  1  0  0  0  0
 15 16  1  0  0  0  0
  3 17  1  0  0  0  0
  7 18  1  0  0  0  0
 11 19  1  0  0  0  0
 15 20  1  0  0  0  0
M  END
>  <cdx:fragmentId>
3

$$$$
