301226.cdx
  Mrv1902 05222410212D          

 34 38  0  0  0  0            999 V2000
   10.8600   -6.3571    0.0000 C   0  0  0  0  0  0  0  0  0  0  0  0
   11.5745   -5.9446    0.0000 C   0  0  0  0  0  0  0  0  0  0  0  0
   10.8600   -7.1821    0.0000 O   0  0  0  0  0  0  0  0  0  0  0  0
   10.1456   -5.9446    0.0000 O   0  0  0  0  0  0  0  0  0  0  0  0
    9.4311   -6.3571    0.0000 C   0  0  0  0  0  0  0  0  0  0  0  0
    7.2877   -5.9446    0.0000 C   0  0  1  0  0  0  0  0  0  0  0  0
    6.5732   -6.3571    0.0000 C   0  0  2  0  0  0  0  0  0  0  0  0
    5.9282   -5.8428    0.0000 C   0  0  0  0  0  0  0  0  0  0  0  0
    5.1239   -6.0263    0.0000 C   0  0  0  0  0  0  0  0  0  0  0  0
    4.7659   -6.7696    0.0000 C   0  0  1  0  0  0  0  0  0  0  0  0
    5.1239   -7.5129    0.0000 C   0  0  2  0  0  0  0  0  0  0  0  0
    5.9282   -7.6965    0.0000 C   0  0  0  0  0  0  0  0  0  0  0  0
    6.5732   -7.1821    0.0000 C   0  0  1  0  0  0  0  0  0  0  0  0
    7.2877   -7.5946    0.0000 C   0  0  1  0  0  0  0  0  0  0  0  0
    8.0022   -7.1821    0.0000 C   0  0  2  0  0  0  0  0  0  0  0  0
    8.0022   -6.3571    0.0000 C   0  0  2  0  0  0  0  0  0  0  0  0
    8.7166   -5.9446    0.0000 C   0  0  1  0  0  0  0  0  0  0  0  0
    8.7166   -5.1196    0.0000 C   0  0  0  0  0  0  0  0  0  0  0  0
    8.0022   -4.7071    0.0000 C   0  0  0  0  0  0  0  0  0  0  0  0
    7.2877   -5.1196    0.0000 C   0  0  1  0  0  0  0  0  0  0  0  0
    7.6290   -6.4598    0.0000 C   0  0  0  0  0  0  0  0  0  0  0  0
    7.6290   -7.0785    0.0000 O   0  0  0  0  0  0  0  0  0  0  0  0
    5.7895   -6.4549    0.0000 C   0  0  0  0  0  0  0  0  0  0  0  0
    6.1118   -8.5008    0.0000 O   0  0  0  0  0  0  0  0  0  0  0  0
    9.4311   -5.5321    0.0000 C   0  0  0  0  0  0  0  0  0  0  0  0
    4.6095   -8.1579    0.0000 C   0  0  0  0  0  0  0  0  0  0  0  0
    3.7937   -8.0350    0.0000 O   0  0  0  0  0  0  0  0  0  0  0  0
    3.2794   -8.6800    0.0000 C   0  0  0  0  0  0  0  0  0  0  0  0
    6.5732   -4.7071    0.0000 O   0  0  0  0  0  0  0  0  0  0  0  0
    8.7166   -7.5946    0.0000 O   0  0  0  0  0  0  0  0  0  0  0  0
    7.2877   -8.4196    0.0000 O   0  0  0  0  0  0  0  0  0  0  0  0
    6.5732   -5.5321    0.0000 H   0  0  0  0  0  0  0  0  0  0  0  0
    3.9409   -6.7696    0.0000 H   0  0  0  0  0  0  0  0  0  0  0  0
    8.7166   -6.7696    0.0000 H   0  0  0  0  0  0  0  0  0  0  0  0
  1  2  1  0  0  0  0
  1  3  2  0  0  0  0
  1  4  1  0  0  0  0
  6  7  1  0  0  0  0
  7  8  1  0  0  0  0
  8  9  1  0  0  0  0
  9 10  1  0  0  0  0
 10 11  1  0  0  0  0
 11 12  1  0  0  0  0
 12 13  1  0  0  0  0
 13 14  1  0  0  0  0
 14 15  1  0  0  0  0
 15 16  1  0  0  0  0
 16 17  1  0  0  0  0
 17 18  1  0  0  0  0
 18 19  1  0  0  0  0
 19 20  1  0  0  0  0
 21 22  1  0  0  0  0
  6 20  1  0  0  0  0
  6 21  1  1  0  0  0
 14 22  1  1  0  0  0
  6 16  1  0  0  0  0
 13 23  1  1  0  0  0
 10 23  1  1  0  0  0
  7 13  1  0  0  0  0
 12 24  2  0  0  0  0
 17 25  1  6  0  0  0
 27 28  1  0  0  0  0
 26 27  1  0  0  0  0
 11 26  1  6  0  0  0
 20 29  1  6  0  0  0
 15 30  1  6  0  0  0
 14 31  1  0  0  0  0
  5 17  1  0  0  0  0
  4  5  1  0  0  0  0
  7 32  1  6  0  0  0
 10 33  1  0  0  0  0
 16 34  1  6  0  0  0
M  END
>  <cdx:groupId>
729

>  <cdx:fragmentId>
636

$$$$
