30122.cdx
  Mrv1902 05222410182D          

 13 13  0  0  0  0            999 V2000
    5.9106   -9.1976    0.0000 C   0  0  0  0  0  0  0  0  0  0  0  0
    5.9106  -10.0226    0.0000 C   0  0  1  0  0  0  0  0  0  0  0  0
    6.6250  -10.4351    0.0000 C   0  0  2  0  0  0  0  0  0  0  0  0
    7.3395  -10.0226    0.0000 C   0  0  0  0  0  0  0  0  0  0  0  0
    7.3395   -9.1976    0.0000 C   0  0  0  0  0  0  0  0  0  0  0  0
    6.6250   -8.7851    0.0000 C   0  0  2  0  0  0  0  0  0  0  0  0
    6.2125  -11.1496    0.0000 O   0  0  0  0  0  0  0  0  0  0  0  0
    7.0375  -11.1496    0.0000 C   0  0  0  0  0  0  0  0  0  0  0  0
    6.2125   -8.0707    0.0000 O   0  0  0  0  0  0  0  0  0  0  0  0
    7.0375   -8.0707    0.0000 C   0  0  0  0  0  0  0  0  0  0  0  0
    6.6250   -7.3562    0.0000 C   0  0  0  0  0  0  0  0  0  0  0  0
    7.8625   -8.0707    0.0000 C   0  0  0  0  0  0  0  0  0  0  0  0
    5.1961  -10.4351    0.0000 O   0  0  0  0  0  0  0  0  0  0  0  0
  1  2  1  0  0  0  0
  2  3  1  0  0  0  0
  3  4  1  0  0  0  0
  4  5  1  0  0  0  0
  5  6  1  0  0  0  0
  6  1  1  0  0  0  0
  3  7  1  6  0  0  0
  3  8  1  0  0  0  0
  6  9  1  1  0  0  0
  6 10  1  0  0  0  0
 10 11  1  0  0  0  0
 10 12  1  0  0  0  0
  2 13  1  1  0  0  0
M  END
>  <cdx:fragmentId>
5

$$$$
