301243.cdx
  Mrv1902 05222410202D          

 60 68  0  0  0  0            999 V2000
    9.4160   -8.8841    0.0000 C   0  0  1  0  0  0  0  0  0  0  0  0
    8.7016   -9.2966    0.0000 C   0  0  2  0  0  0  0  0  0  0  0  0
    8.7016  -10.1216    0.0000 C   0  0  0  0  0  0  0  0  0  0  0  0
    7.9871  -10.5341    0.0000 C   0  0  1  0  0  0  0  0  0  0  0  0
    7.2726  -10.1216    0.0000 C   0  0  1  0  0  0  0  0  0  0  0  0
    6.5581  -10.5341    0.0000 C   0  0  0  0  0  0  0  0  0  0  0  0
    5.8437  -10.1216    0.0000 C   0  0  2  0  0  0  0  0  0  0  0  0
    5.8437   -9.2966    0.0000 C   0  0  0  0  0  0  0  0  0  0  0  0
    6.5581   -8.8841    0.0000 C   0  0  0  0  0  0  0  0  0  0  0  0
    7.2726   -9.2966    0.0000 C   0  0  1  0  0  0  0  0  0  0  0  0
    7.2726   -8.4716    0.0000 C   0  0  0  0  0  0  0  0  0  0  0  0
    7.9871   -8.8841    0.0000 C   0  0  1  0  0  0  0  0  0  0  0  0
    7.9871   -8.0591    0.0000 C   0  0  0  0  0  0  0  0  0  0  0  0
    8.7016   -7.6466    0.0000 C   0  0  0  0  0  0  0  0  0  0  0  0
    9.4160   -8.0591    0.0000 C   0  0  2  0  0  0  0  0  0  0  0  0
   10.2007   -7.8042    0.0000 C   0  0  1  0  0  0  0  0  0  0  0  0
   10.5362   -7.0505    0.0000 C   0  0  1  0  0  0  0  0  0  0  0  0
   11.3567   -6.9643    0.0000 C   0  0  1  0  0  0  0  0  0  0  0  0
   11.8416   -6.2968    0.0000 O   0  0  0  0  0  0  0  0  0  0  0  0
   12.6262   -6.5518    0.0000 C   0  0  0  0  0  0  0  0  0  0  0  0
   12.6262   -7.3768    0.0000 C   0  0  0  0  0  0  0  0  0  0  0  0
   11.8416   -7.6317    0.0000 C   0  0  1  0  0  0  0  0  0  0  0  0
   11.5061   -8.3854    0.0000 O   0  0  0  0  0  0  0  0  0  0  0  0
   10.6856   -8.4716    0.0000 C   0  0  1  0  0  0  0  0  0  0  0  0
   10.2007   -9.1390    0.0000 C   0  0  0  0  0  0  0  0  0  0  0  0
    7.9871  -11.3591    0.0000 O   0  0  0  0  0  0  0  0  0  0  0  0
   13.2937   -7.8617    0.0000 O   0  0  0  0  0  0  0  0  0  0  0  0
   12.3936   -8.2448    0.0000 O   0  0  0  0  0  0  0  0  0  0  0  0
   12.9618   -5.7981    0.0000 C   0  0  0  0  0  0  0  0  0  0  0  0
   13.4467   -6.4655    0.0000 C   0  0  0  0  0  0  0  0  0  0  0  0
   10.0513   -6.3831    0.0000 C   0  0  0  0  0  0  0  0  0  0  0  0
    9.2728   -7.2466    0.0000 C   0  0  0  0  0  0  0  0  0  0  0  0
    6.9706  -11.2486    0.0000 C   0  0  0  0  0  0  0  0  0  0  0  0
    6.1456  -11.2486    0.0000 C   0  0  0  0  0  0  0  0  0  0  0  0
    9.4160   -9.7091    0.0000 C   0  0  0  0  0  0  0  0  0  0  0  0
    5.1292  -10.5341    0.0000 O   0  0  0  0  0  0  0  0  0  0  0  0
    4.4002   -9.3051    0.0000 O   0  0  0  0  0  0  0  0  0  0  0  0
    4.4099  -10.1301    0.0000 C   0  0  2  0  0  0  0  0  0  0  0  0
    3.7004  -10.5510    0.0000 C   0  0  1  0  0  0  0  0  0  0  0  0
    2.9811  -10.1469    0.0000 C   0  0  2  0  0  0  0  0  0  0  0  0
    2.9713   -9.3220    0.0000 C   0  0  1  0  0  0  0  0  0  0  0  0
    3.6809   -8.9011    0.0000 C   0  0  0  0  0  0  0  0  0  0  0  0
    3.7101  -11.3759    0.0000 O   0  0  0  0  0  0  0  0  0  0  0  0
    2.2813  -11.3928    0.0000 O   0  0  0  0  0  0  0  0  0  0  0  0
    3.0005  -11.7968    0.0000 C   0  0  2  0  0  0  0  0  0  0  0  0
    3.0103  -12.6218    0.0000 C   0  0  1  0  0  0  0  0  0  0  0  0
    2.3007  -13.0427    0.0000 C   0  0  1  0  0  0  0  0  0  0  0  0
    1.5814  -12.6386    0.0000 C   0  0  2  0  0  0  0  0  0  0  0  0
    1.5717  -11.8137    0.0000 C   0  0  2  0  0  0  0  0  0  0  0  0
    0.8524  -11.4096    0.0000 C   0  0  0  0  0  0  0  0  0  0  0  0
    0.8719  -13.0595    0.0000 O   0  0  0  0  0  0  0  0  0  0  0  0
    2.3105  -13.8676    0.0000 O   0  0  0  0  0  0  0  0  0  0  0  0
    3.7296  -13.0258    0.0000 O   0  0  0  0  0  0  0  0  0  0  0  0
    2.2521   -8.9179    0.0000 O   0  0  0  0  0  0  0  0  0  0  0  0
    2.2715  -10.5678    0.0000 O   0  0  0  0  0  0  0  0  0  0  0  0
    8.7016   -8.4716    0.0000 H   0  0  0  0  0  0  0  0  0  0  0  0
    7.2726  -10.9466    0.0000 H   0  0  0  0  0  0  0  0  0  0  0  0
    9.7635   -7.1045    0.0000 H   0  0  0  0  0  0  0  0  0  0  0  0
   10.9442   -6.2498    0.0000 H   0  0  0  0  0  0  0  0  0  0  0  0
   11.0981   -9.1861    0.0000 H   0  0  0  0  0  0  0  0  0  0  0  0
  1  2  1  0  0  0  0
  2  3  1  0  0  0  0
  3  4  1  0  0  0  0
  4  5  1  0  0  0  0
  5  6  1  0  0  0  0
  6  7  1  0  0  0  0
  7  8  1  0  0  0  0
  8  9  1  0  0  0  0
  9 10  1  0  0  0  0
 10 11  1  1  0  0  0
 12 11  1  1  0  0  0
 12 13  1  0  0  0  0
 13 14  1  0  0  0  0
 14 15  1  0  0  0  0
 15 16  1  0  0  0  0
 16 17  1  0  0  0  0
 17 18  1  0  0  0  0
 18 19  1  0  0  0  0
 19 20  1  0  0  0  0
 20 21  1  0  0  0  0
 21 22  1  0  0  0  0
 22 23  1  0  0  0  0
 23 24  1  0  0  0  0
 24 25  1  0  0  0  0
  1 25  1  0  0  0  0
  1 15  1  0  0  0  0
 16 24  1  0  0  0  0
 18 22  1  0  0  0  0
 10 12  1  0  0  0  0
  2 12  1  0  0  0  0
  5 10  1  0  0  0  0
  4 26  1  6  0  0  0
 21 27  1  0  0  0  0
 22 28  1  6  0  0  0
 20 29  1  0  0  0  0
 20 30  1  0  0  0  0
 17 31  1  6  0  0  0
 15 32  1  1  0  0  0
  6 33  1  0  0  0  0
  6 34  1  0  0  0  0
  1 35  1  6  0  0  0
 37 38  1  0  0  0  0
 38 39  1  0  0  0  0
 39 40  1  0  0  0  0
 40 41  1  0  0  0  0
 41 42  1  0  0  0  0
 37 42  1  0  0  0  0
 44 45  1  0  0  0  0
 45 46  1  0  0  0  0
 46 47  1  0  0  0  0
 47 48  1  0  0  0  0
 48 49  1  0  0  0  0
 44 49  1  0  0  0  0
 49 50  1  6  0  0  0
 48 51  1  1  0  0  0
 47 52  1  6  0  0  0
 46 53  1  6  0  0  0
 45 43  1  1  0  0  0
 39 43  1  6  0  0  0
 41 54  1  6  0  0  0
 40 55  1  1  0  0  0
 38 36  1  1  0  0  0
  7 36  1  1  0  0  0
  2 56  1  1  0  0  0
  5 57  1  6  0  0  0
 16 58  1  6  0  0  0
 18 59  1  6  0  0  0
 24 60  1  6  0  0  0
M  END
>  <cdx:fragmentId>
2735

$$$$
