301252.cdx
  Mrv1902 05222410182D          

 69 76  0  0  0  0            999 V2000
   11.0256   -7.1156    0.0000 C   0  0  0  0  0  0  0  0  0  0  0  0
   11.7401   -6.7031    0.0000 C   0  0  0  0  0  0  0  0  0  0  0  0
   12.4546   -7.1156    0.0000 C   0  0  0  0  0  0  0  0  0  0  0  0
   12.4546   -7.9406    0.0000 C   0  0  0  0  0  0  0  0  0  0  0  0
   11.7401   -8.3531    0.0000 C   0  0  0  0  0  0  0  0  0  0  0  0
   11.7401   -9.1781    0.0000 C   0  0  0  0  0  0  0  0  0  0  0  0
   11.0256   -9.5906    0.0000 C   0  0  0  0  0  0  0  0  0  0  0  0
   10.3112   -9.1781    0.0000 C   0  0  0  0  0  0  0  0  0  0  0  0
    9.5967   -9.5906    0.0000 C   0  0  0  0  0  0  0  0  0  0  0  0
    9.5967  -10.4156    0.0000 C   0  0  0  0  0  0  0  0  0  0  0  0
    8.8822  -10.8281    0.0000 C   0  0  0  0  0  0  0  0  0  0  0  0
    8.1678  -10.4156    0.0000 C   0  0  0  0  0  0  0  0  0  0  0  0
    7.4533  -10.8281    0.0000 C   0  0  0  0  0  0  0  0  0  0  0  0
    6.7388  -10.4156    0.0000 C   0  0  0  0  0  0  0  0  0  0  0  0
    6.7388   -9.5906    0.0000 C   0  0  0  0  0  0  0  0  0  0  0  0
    7.4533   -9.1781    0.0000 C   0  0  0  0  0  0  0  0  0  0  0  0
    8.1678   -9.5906    0.0000 C   0  0  0  0  0  0  0  0  0  0  0  0
    8.8822   -9.1781    0.0000 C   0  0  0  0  0  0  0  0  0  0  0  0
    8.8822   -8.3531    0.0000 C   0  0  0  0  0  0  0  0  0  0  0  0
    9.5967   -7.9406    0.0000 C   0  0  0  0  0  0  0  0  0  0  0  0
   10.3112   -8.3531    0.0000 C   0  0  0  0  0  0  0  0  0  0  0  0
   11.0256   -7.9406    0.0000 C   0  0  0  0  0  0  0  0  0  0  0  0
   11.7401   -5.8781    0.0000 C   0  0  0  0  0  0  0  0  0  0  0  0
   11.0256   -5.4656    0.0000 O   0  0  0  0  0  0  0  0  0  0  0  0
   12.4546   -5.4656    0.0000 O   0  0  0  0  0  0  0  0  0  0  0  0
   12.4546   -8.7656    0.0000 C   0  0  0  0  0  0  0  0  0  0  0  0
   12.4546   -9.5906    0.0000 O   0  0  0  0  0  0  0  0  0  0  0  0
   13.1691   -8.3531    0.0000 O   0  0  0  0  0  0  0  0  0  0  0  0
    8.1678   -8.7656    0.0000 C   0  0  0  0  0  0  0  0  0  0  0  0
    7.0408  -11.5426    0.0000 C   0  0  0  0  0  0  0  0  0  0  0  0
   10.3112  -10.0031    0.0000 C   0  0  0  0  0  0  0  0  0  0  0  0
   12.4546   -6.2906    0.0000 C   0  0  0  0  0  0  0  0  0  0  0  0
    7.8658  -11.5426    0.0000 C   0  0  0  0  0  0  0  0  0  0  0  0
    8.6908  -11.5426    0.0000 O   0  0  0  0  0  0  0  0  0  0  0  0
    6.0244   -9.1781    0.0000 O   0  0  0  0  0  0  0  0  0  0  0  0
    6.0244  -10.8281    0.0000 O   0  0  0  0  0  0  0  0  0  0  0  0
    5.3099   -9.5906    0.0000 O   0  0  0  0  0  0  0  0  0  0  0  0
    5.3099  -10.4156    0.0000 C   0  0  0  0  0  0  0  0  0  0  0  0
    4.5954  -10.8281    0.0000 C   0  0  0  0  0  0  0  0  0  0  0  0
    3.8809  -10.4156    0.0000 C   0  0  0  0  0  0  0  0  0  0  0  0
    3.8809   -9.5906    0.0000 C   0  0  0  0  0  0  0  0  0  0  0  0
    4.5954   -9.1781    0.0000 C   0  0  0  0  0  0  0  0  0  0  0  0
    3.1665   -9.1781    0.0000 O   0  0  0  0  0  0  0  0  0  0  0  0
    2.4520  -10.4156    0.0000 O   0  0  0  0  0  0  0  0  0  0  0  0
    2.4520   -9.5906    0.0000 C   0  0  0  0  0  0  0  0  0  0  0  0
    1.7375   -9.1781    0.0000 C   0  0  0  0  0  0  0  0  0  0  0  0
    1.0231   -9.5906    0.0000 C   0  0  0  0  0  0  0  0  0  0  0  0
    1.0231  -10.4156    0.0000 C   0  0  0  0  0  0  0  0  0  0  0  0
    1.7375  -10.8281    0.0000 C   0  0  0  0  0  0  0  0  0  0  0  0
    1.7375  -11.6531    0.0000 C   0  0  0  0  0  0  0  0  0  0  0  0
    1.0231  -12.0656    0.0000 O   0  0  0  0  0  0  0  0  0  0  0  0
    0.3086  -10.8281    0.0000 O   0  0  0  0  0  0  0  0  0  0  0  0
    0.3086   -9.1781    0.0000 O   0  0  0  0  0  0  0  0  0  0  0  0
    1.7375   -8.3531    0.0000 O   0  0  0  0  0  0  0  0  0  0  0  0
    3.1665  -10.8281    0.0000 O   0  0  0  0  0  0  0  0  0  0  0  0
    4.5954  -11.6531    0.0000 O   0  0  0  0  0  0  0  0  0  0  0  0
   14.5980   -8.3531    0.0000 O   0  0  0  0  0  0  0  0  0  0  0  0
   13.8835   -8.7656    0.0000 C   0  0  0  0  0  0  0  0  0  0  0  0
   13.8835   -9.5906    0.0000 C   0  0  0  0  0  0  0  0  0  0  0  0
   14.5980  -10.0031    0.0000 C   0  0  0  0  0  0  0  0  0  0  0  0
   15.3125   -9.5906    0.0000 C   0  0  0  0  0  0  0  0  0  0  0  0
   15.3125   -8.7656    0.0000 C   0  0  0  0  0  0  0  0  0  0  0  0
   16.0269   -8.3531    0.0000 C   0  0  0  0  0  0  0  0  0  0  0  0
   16.7414   -8.7656    0.0000 O   0  0  0  0  0  0  0  0  0  0  0  0
   16.0269  -10.0031    0.0000 O   0  0  0  0  0  0  0  0  0  0  0  0
   14.5980  -10.8281    0.0000 O   0  0  0  0  0  0  0  0  0  0  0  0
   13.1691  -10.0031    0.0000 O   0  0  0  0  0  0  0  0  0  0  0  0
   12.4546   -4.6406    0.0000 C   0  0  0  0  0  0  0  0  0  0  0  0
   10.1801  -10.1740    0.0000 C   0  0  0  0  0  0  0  0  0  0  0  0
  1  2  1  0  0  0  0
  2  3  1  0  0  0  0
  3  4  1  0  0  0  0
  4  5  1  0  0  0  0
  5  6  1  0  0  0  0
  6  7  1  0  0  0  0
  7  8  1  0  0  0  0
  8  9  1  0  0  0  0
  9 10  1  0  0  0  0
 10 11  1  0  0  0  0
 11 12  1  0  0  0  0
 12 13  1  0  0  0  0
 13 14  1  0  0  0  0
 14 15  1  0  0  0  0
 15 16  1  0  0  0  0
 16 17  1  0  0  0  0
 12 17  1  0  0  0  0
 17 18  1  0  0  0  0
  9 18  1  0  0  0  0
 18 19  1  0  0  0  0
 19 20  1  0  0  0  0
 20 21  2  0  0  0  0
  8 21  1  0  0  0  0
 21 22  1  0  0  0  0
  5 22  1  0  0  0  0
  1 22  1  0  0  0  0
 23 24  2  0  0  0  0
 23 25  1  0  0  0  0
  2 23  1  0  0  0  0
 26 27  2  0  0  0  0
 26 28  1  0  0  0  0
  5 26  1  0  0  0  0
 17 29  1  0  0  0  0
 13 30  1  0  0  0  0
  8 31  1  0  0  0  0
  2 32  1  0  0  0  0
 33 34  1  0  0  0  0
 13 33  1  0  0  0  0
 15 35  1  0  0  0  0
 37 38  1  0  0  0  0
 38 39  1  0  0  0  0
 39 40  1  0  0  0  0
 40 41  1  0  0  0  0
 41 42  1  0  0  0  0
 37 42  1  0  0  0  0
 44 45  1  0  0  0  0
 45 46  1  0  0  0  0
 46 47  1  0  0  0  0
 47 48  1  0  0  0  0
 48 49  1  0  0  0  0
 44 49  1  0  0  0  0
 50 51  1  0  0  0  0
 49 50  1  0  0  0  0
 48 52  1  0  0  0  0
 47 53  1  0  0  0  0
 46 54  1  0  0  0  0
 43 45  1  0  0  0  0
 41 43  1  0  0  0  0
 40 55  1  0  0  0  0
 39 56  1  0  0  0  0
 36 38  1  0  0  0  0
 14 36  1  0  0  0  0
 57 58  1  0  0  0  0
 58 59  1  0  0  0  0
 59 60  1  0  0  0  0
 60 61  1  0  0  0  0
 61 62  1  0  0  0  0
 57 62  1  0  0  0  0
 63 64  1  0  0  0  0
 62 63  1  0  0  0  0
 61 65  1  0  0  0  0
 60 66  1  0  0  0  0
 59 67  1  0  0  0  0
 28 58  1  0  0  0  0
 25 68  1  0  0  0  0
  9 69  1  0  0  0  0
M  END
>  <cdx:groupId>
3937

>  <cdx:fragmentId>
3726

$$$$
