30120.cdx
  Mrv1902 05222410182D          

 30 34  0  0  0  0            999 V2000
    6.3319   -7.6899    0.0000 H   0  0  0  0  0  0  0  0  0  0  0  0
    8.2861   -9.2088    0.0000 H   0  0  0  0  0  0  0  0  0  0  0  0
   10.0147   -9.6120    0.0000 C   0  0  0  0  0  0  0  0  0  0  0  0
    9.2387   -9.3318    0.0000 C   0  0  0  0  0  0  0  0  0  0  0  0
    9.0934   -8.5197    0.0000 C   0  0  0  0  0  0  0  0  0  0  0  0
    9.7241   -7.9878    0.0000 C   0  0  0  0  0  0  0  0  0  0  0  0
   10.6453   -9.0801    0.0000 C   0  0  0  0  0  0  0  0  0  0  0  0
   10.5000   -8.2680    0.0000 C   0  0  0  0  0  0  0  0  0  0  0  0
   11.2275   -7.8788    0.0000 O   0  0  0  0  0  0  0  0  0  0  0  0
   11.8224   -8.4504    0.0000 C   0  0  0  0  0  0  0  0  0  0  0  0
   11.4626   -9.1928    0.0000 O   0  0  0  0  0  0  0  0  0  0  0  0
    7.3545   -9.4784    0.0000 C   0  0  0  0  0  0  0  0  0  0  0  0
    6.3005   -8.6593    0.0000 C   0  0  1  0  0  0  0  0  0  0  0  0
    6.5299   -9.4517    0.0000 O   0  0  0  0  0  0  0  0  0  0  0  0
    8.3175   -8.2394    0.0000 C   0  0  1  0  0  0  0  0  0  0  0  0
    7.6347   -8.7025    0.0000 C   0  0  2  0  0  0  0  0  0  0  0  0
    6.9833   -8.1962    0.0000 C   0  0  2  0  0  0  0  0  0  0  0  0
    7.2635   -7.4203    0.0000 C   0  0  0  0  0  0  0  0  0  0  0  0
    8.0881   -7.4470    0.0000 O   0  0  0  0  0  0  0  0  0  0  0  0
    2.7114   -8.8824    0.0000 C   0  0  0  0  0  0  0  0  0  0  0  0
    3.4873   -9.1626    0.0000 O   0  0  0  0  0  0  0  0  0  0  0  0
    3.6820   -6.1944    0.0000 C   0  0  0  0  0  0  0  0  0  0  0  0
    4.4580   -6.4746    0.0000 O   0  0  0  0  0  0  0  0  0  0  0  0
    3.1967   -7.5384    0.0000 O   0  0  0  0  0  0  0  0  0  0  0  0
    4.6033   -7.2867    0.0000 C   0  0  0  0  0  0  0  0  0  0  0  0
    5.3793   -7.5669    0.0000 C   0  0  0  0  0  0  0  0  0  0  0  0
    5.5246   -8.3791    0.0000 C   0  0  0  0  0  0  0  0  0  0  0  0
    4.8939   -8.9109    0.0000 C   0  0  0  0  0  0  0  0  0  0  0  0
    4.1180   -8.6307    0.0000 C   0  0  0  0  0  0  0  0  0  0  0  0
    3.9727   -7.8186    0.0000 C   0  0  0  0  0  0  0  0  0  0  0  0
 17  1  1  6  0  0  0
 16  2  1  6  0  0  0
 13 27  1  6  0  0  0
 15  5  1  1  0  0  0
  6  8  2  0  0  0  0
  3  7  2  0  0  0  0
  4  3  1  0  0  0  0
  5  4  2  0  0  0  0
  6  5  1  0  0  0  0
 11  7  1  0  0  0  0
  8  7  1  0  0  0  0
  9  8  1  0  0  0  0
 10  9  1  0  0  0  0
 11 10  1  0  0  0  0
 12 16  1  0  0  0  0
 13 17  1  0  0  0  0
 14 12  1  0  0  0  0
 14 13  1  0  0  0  0
 19 15  1  0  0  0  0
 16 15  1  0  0  0  0
 17 16  1  0  0  0  0
 18 17  1  0  0  0  0
 19 18  1  0  0  0  0
 29 21  1  0  0  0  0
 21 20  1  0  0  0  0
 25 23  1  0  0  0  0
 23 22  1  0  0  0  0
 30 24  1  0  0  0  0
 30 25  2  0  0  0  0
 26 25  1  0  0  0  0
 27 26  2  0  0  0  0
 28 27  1  0  0  0  0
 29 28  2  0  0  0  0
 30 29  1  0  0  0  0
M  END
>  <cdx:fragmentId>
43

$$$$
