301222.cdx
  Mrv1902 05222410222D          

 21 21  0  0  0  0            999 V2000
   10.8479   -5.8179    0.0000 C   0  0  0  0  0  0  0  0  0  0  0  0
   10.1334   -6.2304    0.0000 C   0  0  0  0  0  0  0  0  0  0  0  0
   10.1334   -7.0554    0.0000 C   0  0  0  0  0  0  0  0  0  0  0  0
   10.8479   -7.4679    0.0000 C   0  0  0  0  0  0  0  0  0  0  0  0
   11.5623   -7.0554    0.0000 C   0  0  0  0  0  0  0  0  0  0  0  0
   11.5623   -6.2304    0.0000 C   0  0  0  0  0  0  0  0  0  0  0  0
   10.8479   -4.9929    0.0000 O   0  0  0  0  0  0  0  0  0  0  0  0
   10.8479   -8.2929    0.0000 O   0  0  0  0  0  0  0  0  0  0  0  0
    9.4189   -7.4679    0.0000 C   0  0  0  0  0  0  0  0  0  0  0  0
    8.7045   -7.0554    0.0000 C   0  0  0  0  0  0  0  0  0  0  0  0
    7.9900   -7.4679    0.0000 C   0  0  0  0  0  0  0  0  0  0  0  0
    7.2755   -7.0554    0.0000 C   0  0  0  0  0  0  0  0  0  0  0  0
    6.5610   -7.4679    0.0000 C   0  0  0  0  0  0  0  0  0  0  0  0
    5.8466   -7.0554    0.0000 C   0  0  0  0  0  0  0  0  0  0  0  0
    5.1321   -7.4679    0.0000 C   0  0  0  0  0  0  0  0  0  0  0  0
    4.4176   -7.0554    0.0000 C   0  0  0  0  0  0  0  0  0  0  0  0
    3.7032   -7.4679    0.0000 C   0  0  0  0  0  0  0  0  0  0  0  0
    2.9887   -7.0554    0.0000 C   0  0  0  0  0  0  0  0  0  0  0  0
    2.2742   -7.4679    0.0000 C   0  0  0  0  0  0  0  0  0  0  0  0
   12.2768   -7.4679    0.0000 O   0  0  0  0  0  0  0  0  0  0  0  0
    9.4189   -5.8179    0.0000 O   0  0  0  0  0  0  0  0  0  0  0  0
  1  2  1  0  0  0  0
  2  3  2  0  0  0  0
  3  4  1  0  0  0  0
  4  5  1  0  0  0  0
  5  6  2  0  0  0  0
  1  6  1  0  0  0  0
  1  7  2  0  0  0  0
  4  8  2  0  0  0  0
  9 10  1  0  0  0  0
 10 11  1  0  0  0  0
 11 12  1  0  0  0  0
 12 13  1  0  0  0  0
 13 14  1  0  0  0  0
 14 15  1  0  0  0  0
 15 16  1  0  0  0  0
 16 17  1  0  0  0  0
 17 18  1  0  0  0  0
 18 19  1  0  0  0  0
  3  9  1  0  0  0  0
  5 20  1  0  0  0  0
  2 21  1  0  0  0  0
M  END
>  <cdx:groupId>
550

>  <cdx:fragmentId>
506

$$$$
