301272.cdx
  Mrv1902 05222410262D          

 34 38  0  0  0  0            999 V2000
    5.6633   -7.9404    0.0000 C   0  0  0  0  0  0  0  0  0  0  0  0
    4.9488   -8.3529    0.0000 C   0  0  0  0  0  0  0  0  0  0  0  0
    4.9488   -9.1779    0.0000 C   0  0  1  0  0  0  0  0  0  0  0  0
    5.6633   -9.5904    0.0000 C   0  0  0  0  0  0  0  0  0  0  0  0
    6.3777   -9.1779    0.0000 C   0  0  0  0  0  0  0  0  0  0  0  0
    7.0922   -9.5904    0.0000 C   0  0  0  0  0  0  0  0  0  0  0  0
    7.8067   -9.1779    0.0000 C   0  0  0  0  0  0  0  0  0  0  0  0
    7.8067   -8.3529    0.0000 C   0  0  1  0  0  0  0  0  0  0  0  0
    8.5211   -7.9404    0.0000 C   0  0  2  0  0  0  0  0  0  0  0  0
    9.3058   -8.1954    0.0000 C   0  0  0  0  0  0  0  0  0  0  0  0
    9.7907   -7.5279    0.0000 C   0  0  2  0  0  0  0  0  0  0  0  0
    9.3058   -6.8605    0.0000 C   0  0  1  0  0  0  0  0  0  0  0  0
    8.5211   -7.1154    0.0000 C   0  0  1  0  0  0  0  0  0  0  0  0
    7.8067   -6.7029    0.0000 C   0  0  0  0  0  0  0  0  0  0  0  0
    7.0922   -7.1154    0.0000 C   0  0  0  0  0  0  0  0  0  0  0  0
    7.0922   -7.9404    0.0000 C   0  0  2  0  0  0  0  0  0  0  0  0
    6.3777   -8.3529    0.0000 C   0  0  1  0  0  0  0  0  0  0  0  0
    4.2343   -9.5904    0.0000 O   0  0  0  0  0  0  0  0  0  0  0  0
   10.6157   -7.5279    0.0000 O   0  0  0  0  0  0  0  0  0  0  0  0
    9.5607   -6.0759    0.0000 C   0  0  2  0  0  0  0  0  0  0  0  0
   10.3677   -5.9044    0.0000 C   0  0  0  0  0  0  0  0  0  0  0  0
    7.6497   -5.0212    0.0000 C   0  0  0  0  0  0  0  0  0  0  0  0
    7.9046   -4.2366    0.0000 C   0  0  2  0  0  0  0  0  0  0  0  0
    8.7116   -4.0651    0.0000 C   0  0  0  0  0  0  0  0  0  0  0  0
    9.2636   -4.6782    0.0000 C   0  0  0  0  0  0  0  0  0  0  0  0
    9.0087   -5.4628    0.0000 C   0  0  0  0  0  0  0  0  0  0  0  0
    8.2017   -5.6343    0.0000 N   0  0  0  0  0  0  0  0  0  0  0  0
    7.3526   -3.6235    0.0000 C   0  0  0  0  0  0  0  0  0  0  0  0
    8.6074   -6.2950    0.0000 C   0  0  0  0  0  0  0  0  0  0  0  0
    6.3777   -7.5279    0.0000 C   0  0  0  0  0  0  0  0  0  0  0  0
    7.8067   -7.5279    0.0000 H   0  0  0  0  0  0  0  0  0  0  0  0
    7.0922   -8.7654    0.0000 H   0  0  0  0  0  0  0  0  0  0  0  0
    8.5211   -8.7654    0.0000 H   0  0  0  0  0  0  0  0  0  0  0  0
   10.0904   -6.6056    0.0000 H   0  0  0  0  0  0  0  0  0  0  0  0
  1  2  1  0  0  0  0
  2  3  1  0  0  0  0
  3  4  1  0  0  0  0
  4  5  1  0  0  0  0
  5  6  2  0  0  0  0
  6  7  1  0  0  0  0
  7  8  1  0  0  0  0
  8  9  1  0  0  0  0
  9 10  1  0  0  0  0
 10 11  1  0  0  0  0
 12 11  1  0  0  0  0
 12 13  1  0  0  0  0
  9 13  1  0  0  0  0
 13 14  1  0  0  0  0
 14 15  1  0  0  0  0
 15 16  1  0  0  0  0
  8 16  1  0  0  0  0
 16 17  1  0  0  0  0
  5 17  1  0  0  0  0
  1 17  1  0  0  0  0
  3 18  1  1  0  0  0
 11 19  1  6  0  0  0
 20 21  1  1  0  0  0
 22 23  1  0  0  0  0
 23 24  1  0  0  0  0
 24 25  1  0  0  0  0
 25 26  1  0  0  0  0
 26 27  2  0  0  0  0
 22 27  1  0  0  0  0
 23 28  1  1  0  0  0
 20 26  1  0  0  0  0
 12 20  1  0  0  0  0
 13 29  1  1  0  0  0
 17 30  1  1  0  0  0
  8 31  1  1  0  0  0
 16 32  1  6  0  0  0
  9 33  1  6  0  0  0
 12 34  1  6  0  0  0
M  END
>  <cdx:groupId>
974

>  <cdx:fragmentId>
874

$$$$
