301256.cdx
  Mrv1902 05222410202D          

  8  7  0  0  0  0            999 V2000
    7.0678   -6.4366    0.0000 C   0  0  0  0  0  0  0  0  0  0  0  0
    7.7822   -6.0241    0.0000 C   0  0  0  0  0  0  0  0  0  0  0  0
    7.0678   -7.2616    0.0000 O   0  0  0  0  0  0  0  0  0  0  0  0
    6.3533   -6.0241    0.0000 O   0  0  0  0  0  0  0  0  0  0  0  0
    7.7822   -5.1991    0.0000 O   0  0  0  0  0  0  0  0  0  0  0  0
    8.4967   -6.4366    0.0000 O   0  0  0  0  0  0  0  0  0  0  0  0
    5.6388   -6.4366    0.0000 C   0  0  0  0  0  0  0  0  0  0  0  0
    9.2112   -6.0241    0.0000 C   0  0  0  0  0  0  0  0  0  0  0  0
  1  2  1  0  0  0  0
  1  3  2  0  0  0  0
  1  4  1  0  0  0  0
  2  5  2  0  0  0  0
  2  6  1  0  0  0  0
  4  7  1  0  0  0  0
  6  8  1  0  0  0  0
M  END
>  <cdx:groupId>
147

>  <cdx:fragmentId>
127

$$$$
