301237.cdx
  Mrv1902 05222410222D          

 54 58  0  0  0  0            999 V2000
    6.7960  -14.1147    0.0000 C   0  0  0  0  0  0  0  0  0  0  0  0
    6.8003  -14.9397    0.0000 C   0  0  0  0  0  0  0  0  0  0  0  0
    6.0794  -13.7059    0.0000 O   0  0  0  0  0  0  0  0  0  0  0  0
    7.4956  -11.2236    0.0000 O   0  0  0  0  0  0  0  0  0  0  0  0
    6.7833  -11.6398    0.0000 C   0  0  0  0  0  0  0  0  0  0  0  0
    6.7875  -12.4648    0.0000 O   0  0  0  0  0  0  0  0  0  0  0  0
    7.5084  -13.6986    0.0000 O   0  0  0  0  0  0  0  0  0  0  0  0
    7.5041  -12.8736    0.0000 C   0  0  0  0  0  0  0  0  0  0  0  0
    8.2122  -11.6324    0.0000 O   0  0  0  0  0  0  0  0  0  0  0  0
    8.2164  -12.4574    0.0000 C   0  0  1  0  0  0  0  0  0  0  0  0
    8.9330  -12.8662    0.0000 C   0  0  2  0  0  0  0  0  0  0  0  0
    9.6454  -12.4500    0.0000 C   0  0  1  0  0  0  0  0  0  0  0  0
    9.6411  -11.6250    0.0000 C   0  0  2  0  0  0  0  0  0  0  0  0
    8.9245  -11.2162    0.0000 C   0  0  2  0  0  0  0  0  0  0  0  0
   10.3534  -11.2089    0.0000 O   0  0  0  0  0  0  0  0  0  0  0  0
   10.3619  -12.8588    0.0000 O   0  0  0  0  0  0  0  0  0  0  0  0
    8.9373  -13.6912    0.0000 O   0  0  0  0  0  0  0  0  0  0  0  0
    8.9203  -10.3912    0.0000 O   0  0  0  0  0  0  0  0  0  0  0  0
    6.0667  -11.2310    0.0000 C   0  0  0  0  0  0  0  0  0  0  0  0
    4.6250   -8.7634    0.0000 O   0  0  0  0  0  0  0  0  0  0  0  0
    3.1833   -6.2958    0.0000 O   0  0  0  0  0  0  0  0  0  0  0  0
   10.3237   -5.4339    0.0000 C   0  0  0  0  0  0  0  0  0  0  0  0
    9.6071   -5.0251    0.0000 O   0  0  0  0  0  0  0  0  0  0  0  0
    7.4658   -5.4487    0.0000 C   0  0  0  0  0  0  0  0  0  0  0  0
    8.1781   -5.0325    0.0000 C   0  0  0  0  0  0  0  0  0  0  0  0
    8.8947   -5.4413    0.0000 C   0  0  0  0  0  0  0  0  0  0  0  0
    8.8990   -6.2663    0.0000 C   0  0  0  0  0  0  0  0  0  0  0  0
    8.1867   -6.6825    0.0000 C   0  0  0  0  0  0  0  0  0  0  0  0
    7.4701   -6.2737    0.0000 C   0  0  0  0  0  0  0  0  0  0  0  0
    3.1705   -3.8208    0.0000 C   0  0  0  0  0  0  0  0  0  0  0  0
    4.5995   -3.8134    0.0000 C   0  0  0  0  0  0  0  0  0  0  0  0
    3.8871   -4.2296    0.0000 C   0  0  0  0  0  0  0  0  0  0  0  0
    3.8914   -5.0546    0.0000 C   0  0  0  0  0  0  0  0  0  0  0  0
    4.6080   -5.4634    0.0000 C   0  0  0  0  0  0  0  0  0  0  0  0
    6.0539   -8.7560    0.0000 O   0  0  0  0  0  0  0  0  0  0  0  0
    6.0411   -6.2810    0.0000 O   0  0  0  0  0  0  0  0  0  0  0  0
    5.3288   -6.6972    0.0000 C   0  0  0  0  0  0  0  0  0  0  0  0
    4.6122   -6.2884    0.0000 C   0  0  0  0  0  0  0  0  0  0  0  0
    3.8999   -6.7046    0.0000 C   0  0  0  0  0  0  0  0  0  0  0  0
    3.9041   -7.5296    0.0000 C   0  0  0  0  0  0  0  0  0  0  0  0
    4.6207   -7.9384    0.0000 C   0  0  0  0  0  0  0  0  0  0  0  0
    5.3331   -7.5222    0.0000 C   0  0  0  0  0  0  0  0  0  0  0  0
    6.0497   -7.9310    0.0000 C   0  0  0  0  0  0  0  0  0  0  0  0
    6.7620   -7.5148    0.0000 C   0  0  0  0  0  0  0  0  0  0  0  0
    6.7577   -6.6898    0.0000 C   0  0  0  0  0  0  0  0  0  0  0  0
    7.4786   -7.9236    0.0000 O   0  0  0  0  0  0  0  0  0  0  0  0
    8.9118   -8.7413    0.0000 O   0  0  0  0  0  0  0  0  0  0  0  0
    6.0624  -10.4060    0.0000 C   0  0  0  0  0  0  0  0  0  0  0  0
    6.7747   -9.9898    0.0000 C   0  0  1  0  0  0  0  0  0  0  0  0
    7.4913  -10.3986    0.0000 C   0  0  1  0  0  0  0  0  0  0  0  0
    8.2037   -9.9824    0.0000 C   0  0  2  0  0  0  0  0  0  0  0  0
    8.1994   -9.1574    0.0000 C   0  0  2  0  0  0  0  0  0  0  0  0
    7.4828   -8.7486    0.0000 C   0  0  1  0  0  0  0  0  0  0  0  0
    6.7705   -9.1648    0.0000 O   0  0  0  0  0  0  0  0  0  0  0  0
 51 18  1  6  0  0  0
 50  4  1  1  0  0  0
 53 46  1  1  0  0  0
 46 44  1  0  0  0  0
 41 20  1  0  0  0  0
 39 21  1  0  0  0  0
 45 29  1  0  0  0  0
 26 23  1  0  0  0  0
 23 22  1  0  0  0  0
 29 24  2  0  0  0  0
 25 24  1  0  0  0  0
 26 25  2  0  0  0  0
 27 26  1  0  0  0  0
 28 27  2  0  0  0  0
 29 28  1  0  0  0  0
 38 34  1  0  0  0  0
 32 30  1  0  0  0  0
 32 31  1  0  0  0  0
 33 32  2  0  0  0  0
 34 33  1  0  0  0  0
 43 35  2  0  0  0  0
 45 36  1  0  0  0  0
 37 36  1  0  0  0  0
 42 37  2  0  0  0  0
 38 37  1  0  0  0  0
 39 38  2  0  0  0  0
 40 39  1  0  0  0  0
 41 40  2  0  0  0  0
 42 41  1  0  0  0  0
 43 42  1  0  0  0  0
 44 43  1  0  0  0  0
 45 44  2  0  0  0  0
 52 47  1  6  0  0  0
 49 48  1  6  0  0  0
 54 49  1  0  0  0  0
 50 49  1  0  0  0  0
 51 50  1  0  0  0  0
 52 51  1  0  0  0  0
 53 52  1  0  0  0  0
 54 53  1  0  0  0  0
  5  6  2  0  0  0  0
  5 19  1  0  0  0  0
  4  5  1  0  0  0  0
  1  2  1  0  0  0  0
  1  3  2  0  0  0  0
  1  7  1  0  0  0  0
  9 10  1  0  0  0  0
 10 11  1  0  0  0  0
 11 12  1  0  0  0  0
 12 13  1  0  0  0  0
 13 14  1  0  0  0  0
  9 14  1  0  0  0  0
 13 15  1  6  0  0  0
 12 16  1  1  0  0  0
 11 17  1  6  0  0  0
 14 18  1  1  0  0  0
 10  8  1  1  0  0  0
  7  8  1  0  0  0  0
M  END
>  <cdx:groupId>
2200

>  <cdx:fragmentId>
2085

$$$$
