301257.cdx
  Mrv1902 05222410202D          

 22 21  0  0  0  0            999 V2000
   12.0691   -6.4366    0.0000 C   0  0  0  0  0  0  0  0  0  0  0  0
   11.3546   -6.8491    0.0000 C   0  0  0  0  0  0  0  0  0  0  0  0
   10.6401   -6.4366    0.0000 C   0  0  0  0  0  0  0  0  0  0  0  0
    9.9256   -6.8491    0.0000 C   0  0  0  0  0  0  0  0  0  0  0  0
    9.2112   -6.4366    0.0000 C   0  0  0  0  0  0  0  0  0  0  0  0
    8.4967   -6.8491    0.0000 C   0  0  0  0  0  0  0  0  0  0  0  0
    7.7822   -6.4366    0.0000 C   0  0  0  0  0  0  0  0  0  0  0  0
    7.0678   -6.8491    0.0000 C   0  0  0  0  0  0  0  0  0  0  0  0
    6.3533   -6.4366    0.0000 C   0  0  0  0  0  0  0  0  0  0  0  0
    5.6388   -6.8491    0.0000 C   0  0  0  0  0  0  0  0  0  0  0  0
    4.9244   -6.4366    0.0000 C   0  0  0  0  0  0  0  0  0  0  0  0
    4.2099   -6.8491    0.0000 C   0  0  0  0  0  0  0  0  0  0  0  0
    3.4954   -6.4366    0.0000 C   0  0  0  0  0  0  0  0  0  0  0  0
    2.7809   -6.8491    0.0000 C   0  0  0  0  0  0  0  0  0  0  0  0
    2.0665   -6.4366    0.0000 C   0  0  0  0  0  0  0  0  0  0  0  0
    1.3520   -6.8491    0.0000 C   0  0  0  0  0  0  0  0  0  0  0  0
    0.6375   -6.4366    0.0000 C   0  0  0  0  0  0  0  0  0  0  0  0
   12.0691   -5.6116    0.0000 O   0  0  0  0  0  0  0  0  0  0  0  0
   12.7835   -6.8491    0.0000 O   0  0  0  0  0  0  0  0  0  0  0  0
    2.0665   -5.6116    0.0000 C   0  0  0  0  0  0  0  0  0  0  0  0
   13.4980   -6.4366    0.0000 C   0  0  0  0  0  0  0  0  0  0  0  0
   14.2125   -6.8491    0.0000 C   0  0  0  0  0  0  0  0  0  0  0  0
  1  2  1  0  0  0  0
  2  3  1  0  0  0  0
  3  4  1  0  0  0  0
  4  5  1  0  0  0  0
  5  6  1  0  0  0  0
  6  7  1  0  0  0  0
  7  8  1  0  0  0  0
  8  9  1  0  0  0  0
  9 10  1  0  0  0  0
 10 11  1  0  0  0  0
 11 12  1  0  0  0  0
 12 13  1  0  0  0  0
 13 14  1  0  0  0  0
 14 15  1  0  0  0  0
 15 16  1  0  0  0  0
 16 17  1  0  0  0  0
  1 18  2  0  0  0  0
  1 19  1  0  0  0  0
 15 20  1  0  0  0  0
 21 22  1  0  0  0  0
 19 21  1  0  0  0  0
M  END
>  <cdx:groupId>
216

>  <cdx:fragmentId>
154

$$$$
