301231.cdx
  Mrv1902 05222410202D          

 18 19  0  0  0  0            999 V2000
    8.0037   -5.9399    0.0000 O   0  0  0  0  0  0  0  0  0  0  0  0
    8.7182   -6.3524    0.0000 C   0  0  0  0  0  0  0  0  0  0  0  0
    9.4327   -5.9399    0.0000 O   0  0  0  0  0  0  0  0  0  0  0  0
    8.7182   -7.1774    0.0000 C   0  0  0  0  0  0  0  0  0  0  0  0
    8.0037   -7.5899    0.0000 C   0  0  0  0  0  0  0  0  0  0  0  0
    7.2893   -7.1774    0.0000 C   0  0  0  0  0  0  0  0  0  0  0  0
    6.5748   -7.5899    0.0000 C   0  0  0  0  0  0  0  0  0  0  0  0
    5.8603   -7.1774    0.0000 C   0  0  0  0  0  0  0  0  0  0  0  0
    5.8603   -6.3524    0.0000 C   0  0  0  0  0  0  0  0  0  0  0  0
    6.5748   -5.9399    0.0000 C   0  0  0  0  0  0  0  0  0  0  0  0
    7.2893   -6.3524    0.0000 C   0  0  0  0  0  0  0  0  0  0  0  0
    6.5748   -5.1149    0.0000 C   0  0  0  0  0  0  0  0  0  0  0  0
    5.8603   -4.7024    0.0000 C   0  0  0  0  0  0  0  0  0  0  0  0
    5.8603   -3.8774    0.0000 C   0  0  0  0  0  0  0  0  0  0  0  0
    6.5748   -3.4649    0.0000 C   0  0  0  0  0  0  0  0  0  0  0  0
    5.1459   -3.4649    0.0000 C   0  0  0  0  0  0  0  0  0  0  0  0
    5.1459   -5.1149    0.0000 O   0  0  0  0  0  0  0  0  0  0  0  0
    5.1459   -5.9399    0.0000 O   0  0  0  0  0  0  0  0  0  0  0  0
  1  2  1  0  0  0  0
  2  3  2  0  0  0  0
  2  4  1  0  0  0  0
  4  5  2  0  0  0  0
  5  6  1  0  0  0  0
  6  7  1  0  0  0  0
  7  8  2  0  0  0  0
  8  9  1  0  0  0  0
  9 10  2  0  0  0  0
 10 11  1  0  0  0  0
  1 11  1  0  0  0  0
  6 11  2  0  0  0  0
 12 13  1  0  0  0  0
 13 14  1  0  0  0  0
 14 15  2  0  0  0  0
 14 16  1  0  0  0  0
 13 17  1  0  0  0  0
 10 12  1  0  0  0  0
  9 18  1  0  0  0  0
M  END
>  <cdx:fragmentId>
10

$$$$
