301310.cdx
  Mrv1902 05222410262D          

 43 47  0  0  0  0            999 V2000
    6.7265   -5.0411    0.0000 C   0  0  0  0  0  0  0  0  0  0  0  0
    6.9016   -4.2349    0.0000 O   0  0  0  0  0  0  0  0  0  0  0  0
    7.3954   -9.9245    0.0000 C   0  0  0  0  0  0  0  0  0  0  0  0
    8.0240   -7.7425    0.0000 H   0  0  0  0  0  0  0  0  0  0  0  0
    7.6649   -7.9735    0.0000 H   0  0  0  0  0  0  0  0  0  0  0  0
    5.1994   -7.3475    0.0000 H   0  0  0  0  0  0  0  0  0  0  0  0
    5.9407   -5.2925    0.0000 C   0  0  0  0  0  0  0  0  0  0  0  0
    7.3371   -5.5958    0.0000 O   0  0  0  0  0  0  0  0  0  0  0  0
    6.2660   -8.4202    0.0000 O   0  0  0  0  0  0  0  0  0  0  0  0
    5.2464   -9.7756    0.0000 O   0  0  0  0  0  0  0  0  0  0  0  0
    3.3228   -8.5789    0.0000 C   0  0  0  0  0  0  0  0  0  0  0  0
    8.5229   -5.9665    0.0000 C   0  0  0  0  0  0  0  0  0  0  0  0
    8.7744   -6.7523    0.0000 C   0  0  0  0  0  0  0  0  0  0  0  0
    4.9948   -6.6624    0.0000 C   0  0  0  0  0  0  0  0  0  0  0  0
    4.3930  -10.0198    0.0000 O   0  0  0  0  0  0  0  0  0  0  0  0
    5.8010   -6.8375    0.0000 C   0  0  2  0  0  0  0  0  0  0  0  0
    6.3558   -6.2269    0.0000 C   0  0  2  0  0  0  0  0  0  0  0  0
    7.1620   -6.4020    0.0000 C   0  0  2  0  0  0  0  0  0  0  0  0
    7.9682   -6.5772    0.0000 C   0  0  0  0  0  0  0  0  0  0  0  0
    7.4134   -7.1878    0.0000 C   0  0  1  0  0  0  0  0  0  0  0  0
    6.8587   -7.7984    0.0000 C   0  0  2  0  0  0  0  0  0  0  0  0
    7.2244   -8.5379    0.0000 C   0  0  0  0  0  0  0  0  0  0  0  0
    6.8743   -9.2849    0.0000 C   0  0  0  0  0  0  0  0  0  0  0  0
    6.0719   -9.4769    0.0000 C   0  0  0  0  0  0  0  0  0  0  0  0
    5.4216   -8.9694    0.0000 C   0  0  1  0  0  0  0  0  0  0  0  0
    4.6397   -9.2325    0.0000 C   0  0  0  0  0  0  0  0  0  0  0  0
    4.1477   -8.5702    0.0000 C   0  0  0  0  0  0  0  0  0  0  0  0
    4.6256   -7.8977    0.0000 C   0  0  0  0  0  0  0  0  0  0  0  0
    5.4129   -8.1444    0.0000 C   0  0  1  0  0  0  0  0  0  0  0  0
    6.0525   -7.6233    0.0000 C   0  0  2  0  0  0  0  0  0  0  0  0
    8.2098   -9.7930    0.0000 O   0  0  0  0  0  0  0  0  0  0  0  0
    9.9056  -12.6240    0.0000 O   0  0  0  0  0  0  0  0  0  0  0  0
   10.7075  -11.1819    0.0000 O   0  0  0  0  0  0  0  0  0  0  0  0
    9.8596   -9.7664    0.0000 O   0  0  0  0  0  0  0  0  0  0  0  0
    8.6338  -10.5007    0.0000 C   0  0  1  0  0  0  0  0  0  0  0  0
    9.4587  -10.4875    0.0000 C   0  0  1  0  0  0  0  0  0  0  0  0
    9.8826  -11.1952    0.0000 C   0  0  2  0  0  0  0  0  0  0  0  0
    9.4817  -11.9162    0.0000 C   0  0  1  0  0  0  0  0  0  0  0  0
    8.6568  -11.9295    0.0000 C   0  0  2  0  0  0  0  0  0  0  0  0
    8.2328  -11.2217    0.0000 O   0  0  0  0  0  0  0  0  0  0  0  0
    8.2558  -12.6505    0.0000 C   0  0  0  0  0  0  0  0  0  0  0  0
    8.6798  -13.3582    0.0000 O   0  0  0  0  0  0  0  0  0  0  0  0
    6.1043   -5.4412    0.0000 O   0  0  0  0  0  0  0  0  0  0  0  0
 20  4  1  6  0  0  0
 21  5  1  1  0  0  0
 29  6  1  6  0  0  0
 42 41  1  0  0  0  0
 39 41  1  1  0  0  0
 35 31  1  1  0  0  0
  3 23  1  0  0  0  0
 18  8  1  6  0  0  0
  8  1  1  0  0  0  0
 30  9  1  6  0  0  0
 25 10  1  1  0  0  0
 27 11  1  0  0  0  0
 19 12  1  0  0  0  0
 19 13  1  0  0  0  0
 16 14  1  6  0  0  0
 26 15  2  0  0  0  0
 29 25  1  0  0  0  0
 20 18  1  0  0  0  0
 30 21  1  0  0  0  0
 30 16  1  0  0  0  0
 17 16  1  0  0  0  0
 18 17  1  0  0  0  0
 19 18  1  0  0  0  0
 20 19  1  0  0  0  0
 21 20  1  0  0  0  0
 22 21  1  0  0  0  0
 23 22  2  0  0  0  0
 24 23  1  0  0  0  0
 25 24  1  0  0  0  0
 26 25  1  0  0  0  0
 27 26  1  0  0  0  0
 28 27  2  0  0  0  0
 29 28  1  0  0  0  0
 30 29  1  0  0  0  0
 38 32  1  6  0  0  0
 37 33  1  1  0  0  0
 36 34  1  6  0  0  0
 40 35  1  0  0  0  0
 36 35  1  0  0  0  0
 37 36  1  0  0  0  0
 38 37  1  0  0  0  0
 39 38  1  0  0  0  0
 40 39  1  0  0  0  0
  1  2  2  0  0  0  0
  1  7  1  0  0  0  0
 31  3  1  0  0  0  0
 17 43  1  1  0  0  0
M  END
>  <cdx:groupId>
538

>  <cdx:fragmentId>
425

$$$$
