301386.cdx
  Mrv1902 05222410202D          

 92100  0  0  0  0            999 V2000
   18.3575   -5.3944    0.0000 O   0  0  0  0  0  0  0  0  0  0  0  0
   17.6371   -4.9924    0.0000 C   0  0  2  0  0  0  0  0  0  0  0  0
   17.6249   -4.1675    0.0000 C   0  0  1  0  0  0  0  0  0  0  0  0
   18.3332   -3.7445    0.0000 C   0  0  2  0  0  0  0  0  0  0  0  0
   19.0537   -4.1465    0.0000 C   0  0  1  0  0  0  0  0  0  0  0  0
   19.0659   -4.9714    0.0000 C   0  0  1  0  0  0  0  0  0  0  0  0
   16.9045   -3.7656    0.0000 O   0  0  0  0  0  0  0  0  0  0  0  0
   18.3211   -2.9196    0.0000 O   0  0  0  0  0  0  0  0  0  0  0  0
   19.7620   -3.7235    0.0000 O   0  0  0  0  0  0  0  0  0  0  0  0
   16.9288   -5.4154    0.0000 O   0  0  0  0  0  0  0  0  0  0  0  0
   16.9278   -6.2373    0.0000 C   0  0  0  0  0  0  0  0  0  0  0  0
   16.2317   -7.4852    0.0000 O   0  0  0  0  0  0  0  0  0  0  0  0
   16.2195   -6.6602    0.0000 C   0  0  1  0  0  0  0  0  0  0  0  0
   15.4991   -6.2583    0.0000 C   0  0  2  0  0  0  0  0  0  0  0  0
   14.7907   -6.6813    0.0000 C   0  0  1  0  0  0  0  0  0  0  0  0
   14.8029   -7.5062    0.0000 C   0  0  2  0  0  0  0  0  0  0  0  0
   15.5234   -7.9081    0.0000 C   0  0  2  0  0  0  0  0  0  0  0  0
   14.0946   -7.9292    0.0000 O   0  0  0  0  0  0  0  0  0  0  0  0
   14.0703   -6.2794    0.0000 O   0  0  0  0  0  0  0  0  0  0  0  0
   15.4869   -5.4334    0.0000 O   0  0  0  0  0  0  0  0  0  0  0  0
   15.5511   -8.7327    0.0000 O   0  0  0  0  0  0  0  0  0  0  0  0
   16.1179   -9.3167    0.0000 C   0  0  2  0  0  0  0  0  0  0  0  0
   12.2204  -11.1813    0.0000 C   0  0  0  0  0  0  0  0  0  0  0  0
   11.5060  -11.5938    0.0000 C   0  0  0  0  0  0  0  0  0  0  0  0
   11.5060  -12.4188    0.0000 C   0  0  1  0  0  0  0  0  0  0  0  0
   12.2204  -12.8313    0.0000 C   0  0  0  0  0  0  0  0  0  0  0  0
   12.9349  -12.4188    0.0000 C   0  0  2  0  0  0  0  0  0  0  0  0
   13.6494  -12.8313    0.0000 C   0  0  0  0  0  0  0  0  0  0  0  0
   14.3638  -12.4188    0.0000 C   0  0  0  0  0  0  0  0  0  0  0  0
   14.3638  -11.5938    0.0000 C   0  0  1  0  0  0  0  0  0  0  0  0
   15.0783  -11.1813    0.0000 C   0  0  2  0  0  0  0  0  0  0  0  0
   15.8629  -11.4362    0.0000 C   0  0  0  0  0  0  0  0  0  0  0  0
   16.3479  -10.7688    0.0000 C   0  0  0  0  0  0  0  0  0  0  0  0
   15.8629  -10.1013    0.0000 C   0  0  1  0  0  0  0  0  0  0  0  0
   15.0783  -10.3563    0.0000 C   0  0  1  0  0  0  0  0  0  0  0  0
   14.3638   -9.9438    0.0000 C   0  0  1  0  0  0  0  0  0  0  0  0
   13.6494  -10.3563    0.0000 C   0  0  0  0  0  0  0  0  0  0  0  0
   13.6494  -11.1813    0.0000 C   0  0  2  0  0  0  0  0  0  0  0  0
   12.9349  -11.5938    0.0000 C   0  0  1  0  0  0  0  0  0  0  0  0
   15.0783  -12.0063    0.0000 C   0  0  0  0  0  0  0  0  0  0  0  0
   12.9349  -10.7688    0.0000 C   0  0  0  0  0  0  0  0  0  0  0  0
   14.3638  -10.7688    0.0000 C   0  0  0  0  0  0  0  0  0  0  0  0
   12.6329  -13.5457    0.0000 C   0  0  0  0  0  0  0  0  0  0  0  0
   11.8079  -13.5457    0.0000 C   0  0  0  0  0  0  0  0  0  0  0  0
   14.3638   -9.1188    0.0000 O   0  0  0  0  0  0  0  0  0  0  0  0
   10.7915  -12.8313    0.0000 O   0  0  0  0  0  0  0  0  0  0  0  0
   10.0786  -11.5929    0.0000 O   0  0  0  0  0  0  0  0  0  0  0  0
   10.0775  -12.4179    0.0000 C   0  0  2  0  0  0  0  0  0  0  0  0
    9.3626  -12.8295    0.0000 C   0  0  1  0  0  0  0  0  0  0  0  0
    8.6486  -12.4161    0.0000 C   0  0  2  0  0  0  0  0  0  0  0  0
    8.6496  -11.5911    0.0000 C   0  0  1  0  0  0  0  0  0  0  0  0
    9.3646  -11.1795    0.0000 C   0  0  1  0  0  0  0  0  0  0  0  0
    9.3615  -13.6545    0.0000 O   0  0  0  0  0  0  0  0  0  0  0  0
    7.9326  -13.6527    0.0000 O   0  0  0  0  0  0  0  0  0  0  0  0
    8.6465  -14.0661    0.0000 C   0  0  2  0  0  0  0  0  0  0  0  0
    8.6455  -14.8911    0.0000 C   0  0  1  0  0  0  0  0  0  0  0  0
    7.9305  -15.3027    0.0000 C   0  0  2  0  0  0  0  0  0  0  0  0
    7.2166  -14.8893    0.0000 C   0  0  1  0  0  0  0  0  0  0  0  0
    7.2176  -14.0643    0.0000 C   0  0  1  0  0  0  0  0  0  0  0  0
    6.5036  -13.6509    0.0000 C   0  0  0  0  0  0  0  0  0  0  0  0
    6.5016  -15.3009    0.0000 O   0  0  0  0  0  0  0  0  0  0  0  0
    7.9295  -16.1277    0.0000 O   0  0  0  0  0  0  0  0  0  0  0  0
    9.3594  -15.3045    0.0000 O   0  0  0  0  0  0  0  0  0  0  0  0
    9.3657  -10.3545    0.0000 C   0  0  0  0  0  0  0  0  0  0  0  0
    8.6517   -9.9411    0.0000 O   0  0  0  0  0  0  0  0  0  0  0  0
    7.9357  -11.1777    0.0000 O   0  0  0  0  0  0  0  0  0  0  0  0
    7.9336  -12.8277    0.0000 O   0  0  0  0  0  0  0  0  0  0  0  0
   12.9349  -13.2438    0.0000 H   0  0  0  0  0  0  0  0  0  0  0  0
   13.6494  -12.0063    0.0000 H   0  0  0  0  0  0  0  0  0  0  0  0
   15.1646   -9.5358    0.0000 H   0  0  0  0  0  0  0  0  0  0  0  0
   16.6778   -9.9723    0.0000 H   0  0  0  0  0  0  0  0  0  0  0  0
    5.7886  -14.0625    0.0000 O   0  0  0  0  0  0  0  0  0  0  0  0
   16.9249   -9.1452    0.0000 C   0  0  0  0  0  0  0  0  0  0  0  0
   17.4769   -9.7583    0.0000 C   0  0  0  0  0  0  0  0  0  0  0  0
   18.2839   -9.5867    0.0000 C   0  0  0  0  0  0  0  0  0  0  0  0
   18.8359  -10.1998    0.0000 C   0  0  0  0  0  0  0  0  0  0  0  0
   19.6429  -10.0283    0.0000 C   0  0  0  0  0  0  0  0  0  0  0  0
   18.5810  -10.9845    0.0000 C   0  0  0  0  0  0  0  0  0  0  0  0
   16.3728   -8.5321    0.0000 C   0  0  0  0  0  0  0  0  0  0  0  0
   19.7863   -5.3733    0.0000 C   0  0  0  0  0  0  0  0  0  0  0  0
   20.4947   -4.9503    0.0000 O   0  0  0  0  0  0  0  0  0  0  0  0
   10.1844  -15.2961    0.0000 C   0  0  2  0  0  0  0  0  0  0  0  0
   10.6032  -16.0069    0.0000 O   0  0  0  0  0  0  0  0  0  0  0  0
   11.4299  -15.9965    0.0000 C   0  0  1  0  0  0  0  0  0  0  0  0
   11.8343  -15.2774    0.0000 C   0  0  2  0  0  0  0  0  0  0  0  0
   11.4137  -14.5656    0.0000 C   0  0  1  0  0  0  0  0  0  0  0  0
   10.5888  -14.5770    0.0000 C   0  0  1  0  0  0  0  0  0  0  0  0
   11.8509  -16.7060    0.0000 C   0  0  0  0  0  0  0  0  0  0  0  0
   11.8176  -13.8463    0.0000 O   0  0  0  0  0  0  0  0  0  0  0  0
   12.6592  -15.2686    0.0000 O   0  0  0  0  0  0  0  0  0  0  0  0
   10.1673  -13.8678    0.0000 O   0  0  0  0  0  0  0  0  0  0  0  0
   12.6759  -16.6962    0.0000 O   0  0  0  0  0  0  0  0  0  0  0  0
  1  2  1  0  0  0  0
  2  3  1  0  0  0  0
  3  4  1  0  0  0  0
  4  5  1  0  0  0  0
  5  6  1  0  0  0  0
  1  6  1  0  0  0  0
  3  7  1  6  0  0  0
  4  8  1  1  0  0  0
  5  9  1  6  0  0  0
 12 13  1  0  0  0  0
 13 14  1  0  0  0  0
 14 15  1  0  0  0  0
 15 16  1  0  0  0  0
 16 17  1  0  0  0  0
 12 17  1  0  0  0  0
 16 18  1  6  0  0  0
 15 19  1  1  0  0  0
 14 20  1  6  0  0  0
 23 24  1  0  0  0  0
 24 25  1  0  0  0  0
 25 26  1  0  0  0  0
 26 27  1  0  0  0  0
 27 28  1  0  0  0  0
 28 29  1  0  0  0  0
 29 30  1  0  0  0  0
 30 31  1  0  0  0  0
 31 32  1  0  0  0  0
 32 33  1  0  0  0  0
 34 33  1  0  0  0  0
 34 35  1  0  0  0  0
 31 35  1  0  0  0  0
 35 36  1  0  0  0  0
 36 37  1  0  0  0  0
 37 38  1  0  0  0  0
 30 38  1  0  0  0  0
 38 39  1  0  0  0  0
 27 39  1  0  0  0  0
 23 39  1  0  0  0  0
 31 40  1  6  0  0  0
 39 41  1  1  0  0  0
 30 42  1  1  0  0  0
 26 43  1  0  0  0  0
 26 44  1  0  0  0  0
 36 45  1  1  0  0  0
 47 48  1  0  0  0  0
 48 49  1  0  0  0  0
 49 50  1  0  0  0  0
 50 51  1  0  0  0  0
 51 52  1  0  0  0  0
 47 52  1  0  0  0  0
 54 55  1  0  0  0  0
 55 56  1  0  0  0  0
 56 57  1  0  0  0  0
 57 58  1  0  0  0  0
 58 59  1  0  0  0  0
 54 59  1  0  0  0  0
 59 60  1  1  0  0  0
 58 61  1  6  0  0  0
 57 62  1  1  0  0  0
 56 63  1  6  0  0  0
 55 53  1  1  0  0  0
 49 53  1  6  0  0  0
 64 65  1  0  0  0  0
 52 64  1  1  0  0  0
 51 66  1  6  0  0  0
 50 67  1  1  0  0  0
 48 46  1  1  0  0  0
 25 46  1  1  0  0  0
 22 34  1  0  0  0  0
 17 21  1  1  0  0  0
 13 11  1  1  0  0  0
  2 10  1  1  0  0  0
 27 68  1  6  0  0  0
 38 69  1  6  0  0  0
 35 70  1  1  0  0  0
 34 71  1  6  0  0  0
 10 11  1  0  0  0  0
 60 72  1  0  0  0  0
 22 73  1  0  0  0  0
 73 74  1  0  0  0  0
 74 75  1  0  0  0  0
 75 76  2  0  0  0  0
 76 77  1  0  0  0  0
 76 78  1  0  0  0  0
 22 79  1  6  0  0  0
 22 21  1  1  0  0  0
  6 80  1  1  0  0  0
 80 81  1  0  0  0  0
 82 63  1  1  0  0  0
 82 83  1  0  0  0  0
 83 84  1  0  0  0  0
 84 85  1  0  0  0  0
 85 86  1  0  0  0  0
 86 87  1  0  0  0  0
 87 82  1  0  0  0  0
 84 88  1  1  0  0  0
 86 89  1  1  0  0  0
 85 90  1  6  0  0  0
 87 91  1  6  0  0  0
 88 92  1  0  0  0  0
M  END
>  <cdx:fragmentId>
31989

$$$$
