301374.cdx
  Mrv1902 05222410252D          

 30 32  0  0  0  0            999 V2000
    5.6388   -9.3520    0.0000 O   0  0  0  0  0  0  0  0  0  0  0  0
    3.4954   -8.1145    0.0000 C   0  0  0  0  0  0  0  0  0  0  0  0
    4.2099   -8.5270    0.0000 O   0  0  0  0  0  0  0  0  0  0  0  0
    3.4954   -7.2895    0.0000 C   0  0  0  0  0  0  0  0  0  0  0  0
    4.2099   -6.8770    0.0000 O   0  0  0  0  0  0  0  0  0  0  0  0
    4.9244   -5.6395    0.0000 C   0  0  0  0  0  0  0  0  0  0  0  0
    5.6388   -6.0520    0.0000 O   0  0  0  0  0  0  0  0  0  0  0  0
    9.9256   -4.4020    0.0000 C   0  0  0  0  0  0  0  0  0  0  0  0
    9.2112   -4.8145    0.0000 O   0  0  0  0  0  0  0  0  0  0  0  0
   11.3546   -6.0520    0.0000 C   0  0  0  0  0  0  0  0  0  0  0  0
   10.6401   -5.6395    0.0000 O   0  0  0  0  0  0  0  0  0  0  0  0
   11.3546   -6.8770    0.0000 C   0  0  0  0  0  0  0  0  0  0  0  0
   10.6401   -7.2895    0.0000 O   0  0  0  0  0  0  0  0  0  0  0  0
    9.2112   -7.2895    0.0000 C   0  0  0  0  0  0  0  0  0  0  0  0
    9.9256   -6.8770    0.0000 C   0  0  0  0  0  0  0  0  0  0  0  0
    9.9256   -6.0520    0.0000 C   0  0  0  0  0  0  0  0  0  0  0  0
    9.2112   -5.6395    0.0000 C   0  0  0  0  0  0  0  0  0  0  0  0
    8.4967   -6.0520    0.0000 C   0  0  0  0  0  0  0  0  0  0  0  0
    8.4967   -6.8770    0.0000 C   0  0  0  0  0  0  0  0  0  0  0  0
    7.0678   -9.3520    0.0000 O   0  0  0  0  0  0  0  0  0  0  0  0
    7.0678   -6.8770    0.0000 O   0  0  0  0  0  0  0  0  0  0  0  0
    6.3533   -7.2895    0.0000 C   0  0  0  0  0  0  0  0  0  0  0  0
    5.6388   -6.8770    0.0000 C   0  0  0  0  0  0  0  0  0  0  0  0
    4.9244   -7.2895    0.0000 C   0  0  0  0  0  0  0  0  0  0  0  0
    4.9244   -8.1145    0.0000 C   0  0  0  0  0  0  0  0  0  0  0  0
    5.6388   -8.5270    0.0000 C   0  0  0  0  0  0  0  0  0  0  0  0
    6.3533   -8.1145    0.0000 C   0  0  0  0  0  0  0  0  0  0  0  0
    7.0678   -8.5270    0.0000 C   0  0  0  0  0  0  0  0  0  0  0  0
    7.7822   -8.1145    0.0000 C   0  0  0  0  0  0  0  0  0  0  0  0
    7.7822   -7.2895    0.0000 C   0  0  0  0  0  0  0  0  0  0  0  0
 26  1  1  0  0  0  0
 25  3  1  0  0  0  0
  3  2  1  0  0  0  0
 24  5  1  0  0  0  0
  5  4  1  0  0  0  0
 23  7  1  0  0  0  0
  7  6  1  0  0  0  0
 30 19  1  0  0  0  0
 17  9  1  0  0  0  0
  9  8  1  0  0  0  0
 16 11  1  0  0  0  0
 11 10  1  0  0  0  0
 15 13  1  0  0  0  0
 13 12  1  0  0  0  0
 19 14  2  0  0  0  0
 15 14  1  0  0  0  0
 16 15  2  0  0  0  0
 17 16  1  0  0  0  0
 18 17  2  0  0  0  0
 19 18  1  0  0  0  0
 28 20  2  0  0  0  0
 30 21  1  0  0  0  0
 22 21  1  0  0  0  0
 27 22  2  0  0  0  0
 23 22  1  0  0  0  0
 24 23  2  0  0  0  0
 25 24  1  0  0  0  0
 26 25  2  0  0  0  0
 27 26  1  0  0  0  0
 28 27  1  0  0  0  0
 29 28  1  0  0  0  0
 30 29  2  0  0  0  0
M  END
>  <cdx:fragmentId>
5631

$$$$
