301343.cdx
  Mrv1902 05222410222D          

 18 19  0  0  0  0            999 V2000
    7.9327   -6.9986    0.0000 C   0  0  1  0  0  0  0  0  0  0  0  0
    7.9327   -6.1736    0.0000 C   0  0  1  0  0  0  0  0  0  0  0  0
    7.2182   -5.7611    0.0000 C   0  0  0  0  0  0  0  0  0  0  0  0
    6.5037   -6.1736    0.0000 C   0  0  0  0  0  0  0  0  0  0  0  0
    6.5037   -6.9986    0.0000 C   0  0  0  0  0  0  0  0  0  0  0  0
    7.2182   -7.4111    0.0000 O   0  0  0  0  0  0  0  0  0  0  0  0
    8.7173   -5.9186    0.0000 C   0  0  1  0  0  0  0  0  0  0  0  0
    9.2022   -6.5861    0.0000 C   0  0  0  0  0  0  0  0  0  0  0  0
    8.7173   -7.2535    0.0000 C   0  0  0  0  0  0  0  0  0  0  0  0
    5.7893   -7.4111    0.0000 O   0  0  0  0  0  0  0  0  0  0  0  0
    8.4202   -4.5209    0.0000 C   0  0  0  0  0  0  0  0  0  0  0  0
    8.9722   -5.1340    0.0000 C   0  0  0  0  0  0  0  0  0  0  0  0
    9.7792   -4.9625    0.0000 C   0  0  0  0  0  0  0  0  0  0  0  0
    5.7893   -4.9361    0.0000 C   0  0  0  0  0  0  0  0  0  0  0  0
    5.7893   -5.7611    0.0000 C   0  0  0  0  0  0  0  0  0  0  0  0
    5.0748   -6.1736    0.0000 C   0  0  0  0  0  0  0  0  0  0  0  0
    8.0189   -7.8190    0.0000 C   0  0  0  0  0  0  0  0  0  0  0  0
    8.0189   -5.3531    0.0000 H   0  0  0  0  0  0  0  0  0  0  0  0
  1  2  1  0  0  0  0
  2  3  1  0  0  0  0
  3  4  1  0  0  0  0
  4  5  1  0  0  0  0
  5  6  1  0  0  0  0
  1  6  1  0  0  0  0
  7  8  1  0  0  0  0
  8  9  1  0  0  0  0
  9  1  1  0  0  0  0
  7  2  1  0  0  0  0
  5 10  2  0  0  0  0
 11 12  2  0  0  0  0
 12 13  1  0  0  0  0
  7 12  1  6  0  0  0
 14 15  1  0  0  0  0
 15 16  1  0  0  0  0
  4 15  2  0  0  0  0
  1 17  1  1  0  0  0
  2 18  1  6  0  0  0
M  END
>  <cdx:groupId>
3159

>  <cdx:fragmentId>
3107

$$$$
