301378.cdx
  Mrv1902 05222410212D          

 12 13  0  0  0  0            999 V2000
    8.1433   -7.4324    0.0000 C   0  0  0  0  0  0  0  0  0  0  0  0
    7.4288   -7.8449    0.0000 C   0  0  0  0  0  0  0  0  0  0  0  0
    7.4288   -8.6699    0.0000 C   0  0  0  0  0  0  0  0  0  0  0  0
    8.1433   -9.0824    0.0000 C   0  0  0  0  0  0  0  0  0  0  0  0
    8.8578   -8.6699    0.0000 C   0  0  0  0  0  0  0  0  0  0  0  0
    8.8578   -7.8449    0.0000 N   0  0  0  0  0  0  0  0  0  0  0  0
    6.7144   -7.4324    0.0000 C   0  0  0  0  0  0  0  0  0  0  0  0
    6.7144   -9.0824    0.0000 C   0  0  0  0  0  0  0  0  0  0  0  0
    5.9999   -8.6699    0.0000 C   0  0  0  0  0  0  0  0  0  0  0  0
    5.9999   -7.8449    0.0000 O   0  0  0  0  0  0  0  0  0  0  0  0
    6.7144   -6.6074    0.0000 O   0  0  0  0  0  0  0  0  0  0  0  0
    8.1433   -6.6074    0.0000 C   0  0  0  0  0  0  0  0  0  0  0  0
  1  2  1  0  0  0  0
  2  3  2  0  0  0  0
  3  4  1  0  0  0  0
  4  5  2  0  0  0  0
  5  6  1  0  0  0  0
  1  6  2  0  0  0  0
  8  9  1  0  0  0  0
  9 10  1  0  0  0  0
  7 10  1  0  0  0  0
  7  2  1  0  0  0  0
  8  3  1  0  0  0  0
  7 11  1  0  0  0  0
  1 12  1  0  0  0  0
M  END
>  <cdx:groupId>
6001

>  <cdx:fragmentId>
5967

$$$$
