301331.cdx
  Mrv1902 05222410192D          

 34 35  0  0  0  0            999 V2000
    1.7386   -4.8416    0.0000 O   0  0  0  0  0  0  0  0  0  0  0  0
    1.7386   -3.1916    0.0000 O   0  0  0  0  0  0  0  0  0  0  0  0
    3.8820   -3.6041    0.0000 C   0  0  0  0  0  0  0  0  0  0  0  0
    3.1675   -3.1916    0.0000 C   0  0  0  0  0  0  0  0  0  0  0  0
    2.4531   -3.6041    0.0000 C   0  0  0  0  0  0  0  0  0  0  0  0
    2.4531   -4.4291    0.0000 C   0  0  0  0  0  0  0  0  0  0  0  0
    3.1675   -4.8416    0.0000 C   0  0  0  0  0  0  0  0  0  0  0  0
    3.8820   -4.4291    0.0000 C   0  0  0  0  0  0  0  0  0  0  0  0
   18.1714   -4.4291    0.0000 O   0  0  0  0  0  0  0  0  0  0  0  0
   18.1714   -6.0791    0.0000 O   0  0  0  0  0  0  0  0  0  0  0  0
   16.0280   -5.6666    0.0000 C   0  0  0  0  0  0  0  0  0  0  0  0
   16.7425   -6.0791    0.0000 C   0  0  0  0  0  0  0  0  0  0  0  0
   17.4569   -5.6666    0.0000 C   0  0  0  0  0  0  0  0  0  0  0  0
   17.4569   -4.8416    0.0000 C   0  0  0  0  0  0  0  0  0  0  0  0
   16.7425   -4.4291    0.0000 C   0  0  0  0  0  0  0  0  0  0  0  0
   16.0280   -4.8416    0.0000 C   0  0  0  0  0  0  0  0  0  0  0  0
   13.8846   -3.6041    0.0000 O   0  0  0  0  0  0  0  0  0  0  0  0
   15.3135   -4.4291    0.0000 C   0  0  0  0  0  0  0  0  0  0  0  0
   14.5991   -4.8416    0.0000 C   0  0  0  0  0  0  0  0  0  0  0  0
   13.8846   -4.4291    0.0000 C   0  0  0  0  0  0  0  0  0  0  0  0
   13.1701   -4.8416    0.0000 N   0  0  0  0  0  0  0  0  0  0  0  0
   12.4556   -4.4291    0.0000 C   0  0  0  0  0  0  0  0  0  0  0  0
   11.7412   -4.8416    0.0000 C   0  0  0  0  0  0  0  0  0  0  0  0
   11.0267   -4.4291    0.0000 C   0  0  0  0  0  0  0  0  0  0  0  0
   10.3122   -4.8416    0.0000 N   0  0  0  0  0  0  0  0  0  0  0  0
    9.5978   -4.4291    0.0000 C   0  0  0  0  0  0  0  0  0  0  0  0
    8.8833   -4.8416    0.0000 C   0  0  0  0  0  0  0  0  0  0  0  0
    8.1688   -4.4291    0.0000 C   0  0  0  0  0  0  0  0  0  0  0  0
    7.4544   -4.8416    0.0000 C   0  0  0  0  0  0  0  0  0  0  0  0
    6.7399   -4.4291    0.0000 N   0  0  0  0  0  0  0  0  0  0  0  0
    6.0254   -5.6666    0.0000 O   0  0  0  0  0  0  0  0  0  0  0  0
    4.5965   -4.8416    0.0000 C   0  0  0  0  0  0  0  0  0  0  0  0
    5.3109   -4.4291    0.0000 C   0  0  0  0  0  0  0  0  0  0  0  0
    6.0254   -4.8416    0.0000 C   0  0  0  0  0  0  0  0  0  0  0  0
 32  8  1  0  0  0  0
  6  1  1  0  0  0  0
  5  2  1  0  0  0  0
  8  3  2  0  0  0  0
  4  3  1  0  0  0  0
  5  4  2  0  0  0  0
  6  5  1  0  0  0  0
  7  6  2  0  0  0  0
  8  7  1  0  0  0  0
 30 29  1  0  0  0  0
 26 25  1  0  0  0  0
 25 24  1  0  0  0  0
 22 21  1  0  0  0  0
 21 20  1  0  0  0  0
 18 16  1  0  0  0  0
 14  9  1  0  0  0  0
 13 10  1  0  0  0  0
 16 11  2  0  0  0  0
 12 11  1  0  0  0  0
 13 12  2  0  0  0  0
 14 13  1  0  0  0  0
 15 14  2  0  0  0  0
 16 15  1  0  0  0  0
 20 17  2  0  0  0  0
 19 18  2  0  0  0  0
 20 19  1  0  0  0  0
 23 22  1  0  0  0  0
 24 23  1  0  0  0  0
 27 26  1  0  0  0  0
 28 27  1  0  0  0  0
 29 28  1  0  0  0  0
 34 30  1  0  0  0  0
 34 31  2  0  0  0  0
 33 32  2  0  0  0  0
 34 33  1  0  0  0  0
M  END
>  <cdx:fragmentId>
41

$$$$
