301324.cdx
  Mrv1902 05222410192D          

 32 34  0  0  0  0            999 V2000
    6.4463   -7.1890    0.0000 O   0  0  0  0  0  0  0  0  0  0  0  0
    7.8690   -8.0247    0.0000 O   0  0  0  0  0  0  0  0  0  0  0  0
    9.3041   -7.2104    0.0000 O   0  0  0  0  0  0  0  0  0  0  0  0
   11.4629   -5.1640    0.0000 O   0  0  0  0  0  0  0  0  0  0  0  0
   13.5908   -7.2425    0.0000 O   0  0  0  0  0  0  0  0  0  0  0  0
   12.1743   -5.5819    0.0000 C   0  0  0  0  0  0  0  0  0  0  0  0
   12.8856   -5.9997    0.0000 C   0  0  0  0  0  0  0  0  0  0  0  0
   12.8795   -6.8247    0.0000 C   0  0  0  0  0  0  0  0  0  0  0  0
   12.1619   -7.2318    0.0000 C   0  0  0  0  0  0  0  0  0  0  0  0
   11.4506   -6.8140    0.0000 C   0  0  0  0  0  0  0  0  0  0  0  0
   11.4567   -5.9890    0.0000 C   0  0  0  0  0  0  0  0  0  0  0  0
   10.7454   -5.5712    0.0000 C   0  0  0  0  0  0  0  0  0  0  0  0
   10.0278   -5.9783    0.0000 C   0  0  0  0  0  0  0  0  0  0  0  0
    9.3165   -5.5605    0.0000 O   0  0  0  0  0  0  0  0  0  0  0  0
    8.5989   -5.9676    0.0000 C   0  0  1  0  0  0  0  0  0  0  0  0
    8.5928   -6.7926    0.0000 C   0  0  1  0  0  0  0  0  0  0  0  0
    7.8752   -7.1997    0.0000 C   0  0  2  0  0  0  0  0  0  0  0  0
    7.1639   -6.7819    0.0000 C   0  0  1  0  0  0  0  0  0  0  0  0
    7.1700   -5.9569    0.0000 C   0  0  2  0  0  0  0  0  0  0  0  0
    7.8876   -5.5498    0.0000 O   0  0  0  0  0  0  0  0  0  0  0  0
    6.4587   -5.5391    0.0000 C   0  0  0  0  0  0  0  0  0  0  0  0
    1.4668   -4.2641    0.0000 O   0  0  0  0  0  0  0  0  0  0  0  0
    2.8833   -5.9248    0.0000 C   0  0  0  0  0  0  0  0  0  0  0  0
    2.1720   -5.5069    0.0000 C   0  0  0  0  0  0  0  0  0  0  0  0
    2.1782   -4.6820    0.0000 C   0  0  0  0  0  0  0  0  0  0  0  0
    2.8957   -4.2748    0.0000 C   0  0  0  0  0  0  0  0  0  0  0  0
    3.6071   -4.6927    0.0000 C   0  0  0  0  0  0  0  0  0  0  0  0
    3.6009   -5.5176    0.0000 C   0  0  0  0  0  0  0  0  0  0  0  0
    5.7411   -5.9462    0.0000 O   0  0  0  0  0  0  0  0  0  0  0  0
    5.0360   -4.7034    0.0000 O   0  0  0  0  0  0  0  0  0  0  0  0
    4.3122   -5.9355    0.0000 C   0  0  0  0  0  0  0  0  0  0  0  0
    5.0298   -5.5283    0.0000 C   0  0  0  0  0  0  0  0  0  0  0  0
 29 21  1  0  0  0  0
 19 21  1  1  0  0  0
 18  1  1  6  0  0  0
 17  2  1  1  0  0  0
 16  3  1  6  0  0  0
 15 14  1  1  0  0  0
 12 11  1  0  0  0  0
 11  4  1  0  0  0  0
  8  5  2  0  0  0  0
 11  6  1  0  0  0  0
  7  6  2  0  0  0  0
  8  7  1  0  0  0  0
  9  8  1  0  0  0  0
 10  9  2  0  0  0  0
 11 10  1  0  0  0  0
 14 13  1  0  0  0  0
 13 12  1  0  0  0  0
 20 15  1  0  0  0  0
 16 15  1  0  0  0  0
 17 16  1  0  0  0  0
 18 17  1  0  0  0  0
 19 18  1  0  0  0  0
 20 19  1  0  0  0  0
 31 28  1  0  0  0  0
 25 22  1  0  0  0  0
 28 23  2  0  0  0  0
 24 23  1  0  0  0  0
 25 24  2  0  0  0  0
 26 25  1  0  0  0  0
 27 26  2  0  0  0  0
 28 27  1  0  0  0  0
 32 29  1  0  0  0  0
 32 30  2  0  0  0  0
 32 31  1  0  0  0  0
M  END
>  <cdx:fragmentId>
2180

$$$$
