301397.cdx
  Mrv1902 05222410222D          

 38 42  0  0  0  0            999 V2000
    9.0384   -6.7591    0.0000 C   0  0  0  0  0  0  0  0  0  0  0  0
    9.6515   -7.3111    0.0000 C   0  0  0  0  0  0  0  0  0  0  0  0
    9.4800   -8.1181    0.0000 C   0  0  0  0  0  0  0  0  0  0  0  0
    8.2538   -7.0141    0.0000 O   0  0  0  0  0  0  0  0  0  0  0  0
    9.2099   -5.9521    0.0000 O   0  0  0  0  0  0  0  0  0  0  0  0
   10.0633   -8.7015    0.0000 C   0  0  0  0  0  0  0  0  0  0  0  0
   10.8602   -8.4880    0.0000 C   0  0  0  0  0  0  0  0  0  0  0  0
   11.4436   -9.0713    0.0000 C   0  0  0  0  0  0  0  0  0  0  0  0
   11.2301   -9.8682    0.0000 C   0  0  0  0  0  0  0  0  0  0  0  0
   10.4332  -10.0817    0.0000 C   0  0  0  0  0  0  0  0  0  0  0  0
    9.8498   -9.4984    0.0000 C   0  0  0  0  0  0  0  0  0  0  0  0
    8.5968   -5.4001    0.0000 C   0  0  0  0  0  0  0  0  0  0  0  0
    7.9837   -4.3382    0.0000 C   0  0  2  0  0  0  0  0  0  0  0  0
    8.7684   -4.5931    0.0000 C   0  0  2  0  0  0  0  0  0  0  0  0
    9.5888   -4.6794    0.0000 O   0  0  0  0  0  0  0  0  0  0  0  0
    9.2533   -3.9257    0.0000 C   0  0  1  0  0  0  0  0  0  0  0  0
    8.7684   -3.2583    0.0000 C   0  0  2  0  0  0  0  0  0  0  0  0
    7.9837   -3.5132    0.0000 C   0  0  2  0  0  0  0  0  0  0  0  0
    7.2693   -3.1007    0.0000 C   0  0  0  0  0  0  0  0  0  0  0  0
    6.5548   -3.5132    0.0000 C   0  0  0  0  0  0  0  0  0  0  0  0
    6.5548   -4.3382    0.0000 O   0  0  0  0  0  0  0  0  0  0  0  0
    7.2693   -4.7507    0.0000 C   0  0  1  0  0  0  0  0  0  0  0  0
    7.2693   -5.5757    0.0000 O   0  0  0  0  0  0  0  0  0  0  0  0
    5.8403   -5.5757    0.0000 O   0  0  0  0  0  0  0  0  0  0  0  0
    6.5548   -5.9882    0.0000 C   0  0  2  0  0  0  0  0  0  0  0  0
    6.5548   -6.8132    0.0000 C   0  0  1  0  0  0  0  0  0  0  0  0
    5.8403   -7.2257    0.0000 C   0  0  2  0  0  0  0  0  0  0  0  0
    5.1259   -6.8132    0.0000 C   0  0  1  0  0  0  0  0  0  0  0  0
    5.1259   -5.9882    0.0000 C   0  0  1  0  0  0  0  0  0  0  0  0
    4.4114   -5.5757    0.0000 C   0  0  0  0  0  0  0  0  0  0  0  0
    3.6969   -5.9882    0.0000 O   0  0  0  0  0  0  0  0  0  0  0  0
    4.4114   -7.2257    0.0000 O   0  0  0  0  0  0  0  0  0  0  0  0
    5.8403   -8.0507    0.0000 O   0  0  0  0  0  0  0  0  0  0  0  0
    7.2693   -7.2257    0.0000 O   0  0  0  0  0  0  0  0  0  0  0  0
    9.0233   -2.4736    0.0000 O   0  0  0  0  0  0  0  0  0  0  0  0
    7.9837   -5.1632    0.0000 H   0  0  0  0  0  0  0  0  0  0  0  0
    9.9678   -3.5132    0.0000 H   0  0  0  0  0  0  0  0  0  0  0  0
    8.0700   -2.6927    0.0000 H   0  0  0  0  0  0  0  0  0  0  0  0
  1  2  1  0  0  0  0
  2  3  2  0  0  0  0
  1  4  2  0  0  0  0
  1  5  1  0  0  0  0
  6  7  1  0  0  0  0
  7  8  2  0  0  0  0
  8  9  1  0  0  0  0
  9 10  2  0  0  0  0
 10 11  1  0  0  0  0
  6 11  2  0  0  0  0
  3  6  1  0  0  0  0
 13 14  1  0  0  0  0
 14 15  1  0  0  0  0
 15 16  1  0  0  0  0
 16 17  1  0  0  0  0
 17 18  1  0  0  0  0
 18 19  1  0  0  0  0
 19 20  2  0  0  0  0
 20 21  1  0  0  0  0
 21 22  1  0  0  0  0
 13 22  1  0  0  0  0
 13 18  1  0  0  0  0
 14 16  1  0  0  0  0
 24 25  1  0  0  0  0
 25 26  1  0  0  0  0
 26 27  1  0  0  0  0
 27 28  1  0  0  0  0
 28 29  1  0  0  0  0
 24 29  1  0  0  0  0
 30 31  1  0  0  0  0
 29 30  1  1  0  0  0
 28 32  1  6  0  0  0
 27 33  1  1  0  0  0
 26 34  1  6  0  0  0
 25 23  1  1  0  0  0
 22 23  1  6  0  0  0
 17 35  1  6  0  0  0
 14 12  1  1  0  0  0
  5 12  1  0  0  0  0
 13 36  1  6  0  0  0
 16 37  1  1  0  0  0
 18 38  1  6  0  0  0
M  END
>  <cdx:groupId>
542

>  <cdx:fragmentId>
473

$$$$
