301305.cdx
  Mrv1902 05222410272D          

 28 29  0  0  0  0            999 V2000
    4.5706   -7.0554    0.0000 C   0  0  0  0  0  0  0  0  0  0  0  0
    5.2850   -7.4679    0.0000 C   0  0  0  0  0  0  0  0  0  0  0  0
    5.9995   -7.0554    0.0000 C   0  0  0  0  0  0  0  0  0  0  0  0
    6.7140   -7.4679    0.0000 C   0  0  0  0  0  0  0  0  0  0  0  0
    7.4284   -7.0554    0.0000 C   0  0  0  0  0  0  0  0  0  0  0  0
    8.1429   -7.4679    0.0000 C   0  0  0  0  0  0  0  0  0  0  0  0
    8.8574   -7.0554    0.0000 C   0  0  0  0  0  0  0  0  0  0  0  0
    5.9995   -6.2304    0.0000 O   0  0  0  0  0  0  0  0  0  0  0  0
    3.8561   -7.4679    0.0000 C   0  0  0  0  0  0  0  0  0  0  0  0
    3.8561   -8.2929    0.0000 C   0  0  0  0  0  0  0  0  0  0  0  0
    3.1416   -8.7054    0.0000 C   0  0  0  0  0  0  0  0  0  0  0  0
    2.4271   -8.2929    0.0000 C   0  0  0  0  0  0  0  0  0  0  0  0
    2.4271   -7.4679    0.0000 C   0  0  0  0  0  0  0  0  0  0  0  0
    3.1416   -7.0554    0.0000 C   0  0  0  0  0  0  0  0  0  0  0  0
    9.5719   -7.4679    0.0000 C   0  0  0  0  0  0  0  0  0  0  0  0
   10.2863   -7.0554    0.0000 C   0  0  0  0  0  0  0  0  0  0  0  0
   11.0008   -7.4679    0.0000 C   0  0  0  0  0  0  0  0  0  0  0  0
   11.0008   -8.2929    0.0000 C   0  0  0  0  0  0  0  0  0  0  0  0
   10.2863   -8.7054    0.0000 C   0  0  0  0  0  0  0  0  0  0  0  0
    9.5719   -8.2929    0.0000 C   0  0  0  0  0  0  0  0  0  0  0  0
   11.7153   -7.0554    0.0000 O   0  0  0  0  0  0  0  0  0  0  0  0
   12.4297   -7.4679    0.0000 C   0  0  0  0  0  0  0  0  0  0  0  0
   11.7153   -8.7054    0.0000 O   0  0  0  0  0  0  0  0  0  0  0  0
    7.4284   -6.2304    0.0000 O   0  0  0  0  0  0  0  0  0  0  0  0
    1.7127   -7.0554    0.0000 O   0  0  0  0  0  0  0  0  0  0  0  0
    0.9982   -7.4679    0.0000 C   0  0  0  0  0  0  0  0  0  0  0  0
    1.7127   -8.7054    0.0000 O   0  0  0  0  0  0  0  0  0  0  0  0
   10.2863   -9.5304    0.0000 O   0  0  0  0  0  0  0  0  0  0  0  0
  1  2  1  0  0  0  0
  2  3  1  0  0  0  0
  3  4  1  0  0  0  0
  4  5  1  0  0  0  0
  5  6  1  0  0  0  0
  6  7  1  0  0  0  0
  3  8  1  0  0  0  0
  9 10  1  0  0  0  0
 10 11  2  0  0  0  0
 11 12  1  0  0  0  0
 12 13  2  0  0  0  0
 13 14  1  0  0  0  0
  9 14  2  0  0  0  0
  1  9  1  0  0  0  0
 15 16  1  0  0  0  0
 16 17  2  0  0  0  0
 17 18  1  0  0  0  0
 18 19  2  0  0  0  0
 19 20  1  0  0  0  0
 15 20  2  0  0  0  0
 21 22  1  0  0  0  0
 17 21  1  0  0  0  0
 18 23  1  0  0  0  0
  7 15  1  0  0  0  0
  5 24  1  0  0  0  0
 13 25  1  0  0  0  0
 25 26  1  0  0  0  0
 12 27  1  0  0  0  0
 19 28  1  0  0  0  0
M  END
>  <cdx:groupId>
1071

>  <cdx:fragmentId>
1001

$$$$
