301338.cdx
  Mrv1902 05222410262D          

 49 52  0  0  0  0            999 V2000
    4.5925   -4.6200    0.0000 C   0  0  2  0  0  0  0  0  0  0  0  0
    3.8780   -5.0325    0.0000 N   0  0  0  0  0  0  0  0  0  0  0  0
    5.3070   -5.0325    0.0000 C   0  0  0  0  0  0  0  0  0  0  0  0
    4.5925   -3.7950    0.0000 C   0  0  0  0  0  0  0  0  0  0  0  0
    3.8780   -3.3825    0.0000 C   0  0  0  0  0  0  0  0  0  0  0  0
    5.3070   -3.3825    0.0000 C   0  0  0  0  0  0  0  0  0  0  0  0
    3.8780   -2.5575    0.0000 C   0  0  0  0  0  0  0  0  0  0  0  0
    3.8780   -5.8575    0.0000 C   0  0  0  0  0  0  0  0  0  0  0  0
    6.0214   -4.6200    0.0000 N   0  0  0  0  0  0  0  0  0  0  0  0
    5.3070   -5.8575    0.0000 O   0  0  0  0  0  0  0  0  0  0  0  0
    6.9344   -5.0325    0.0000 C   0  0  2  0  0  0  0  0  0  0  0  0
    6.9344   -5.8575    0.0000 C   0  0  0  0  0  0  0  0  0  0  0  0
    7.6276   -4.5851    0.0000 C   0  0  0  0  0  0  0  0  0  0  0  0
    8.3616   -4.9616    0.0000 C   0  0  0  0  0  0  0  0  0  0  0  0
    7.5867   -3.7611    0.0000 C   0  0  0  0  0  0  0  0  0  0  0  0
    7.6489   -6.2700    0.0000 N   0  0  0  0  0  0  0  0  0  0  0  0
    6.2200   -6.2700    0.0000 O   0  0  0  0  0  0  0  0  0  0  0  0
    7.6489   -7.0950    0.0000 C   0  0  1  0  0  0  0  0  0  0  0  0
    8.3634   -7.5075    0.0000 C   0  0  0  0  0  0  0  0  0  0  0  0
    6.9344   -7.5075    0.0000 C   0  0  0  0  0  0  0  0  0  0  0  0
    6.2200   -7.0950    0.0000 O   0  0  0  0  0  0  0  0  0  0  0  0
    6.9344   -8.3325    0.0000 N   0  0  0  0  0  0  0  0  0  0  0  0
    9.0779   -7.0950    0.0000 C   0  0  0  0  0  0  0  0  0  0  0  0
    9.7923   -7.5075    0.0000 C   0  0  0  0  0  0  0  0  0  0  0  0
   10.5068   -7.0950    0.0000 C   0  0  0  0  0  0  0  0  0  0  0  0
   10.5068   -6.2700    0.0000 C   0  0  0  0  0  0  0  0  0  0  0  0
    9.7923   -5.8575    0.0000 C   0  0  0  0  0  0  0  0  0  0  0  0
    9.0779   -6.2700    0.0000 C   0  0  0  0  0  0  0  0  0  0  0  0
   11.2213   -5.8575    0.0000 O   0  0  0  0  0  0  0  0  0  0  0  0
    6.3085   -8.7450    0.0000 C   0  0  1  0  0  0  0  0  0  0  0  0
    6.3085   -9.5700    0.0000 C   0  0  0  0  0  0  0  0  0  0  0  0
    5.4840   -9.1575    0.0000 C   0  0  0  0  0  0  0  0  0  0  0  0
    4.5771   -8.8275    0.0000 N   0  0  0  0  0  0  0  0  0  0  0  0
    5.4840   -9.9825    0.0000 O   0  0  0  0  0  0  0  0  0  0  0  0
    3.9104   -8.3414    0.0000 C   0  0  1  0  0  0  0  0  0  0  0  0
    3.2422   -8.8252    0.0000 C   0  0  0  0  0  0  0  0  0  0  0  0
    3.4958   -9.6103    0.0000 C   0  0  0  0  0  0  0  0  0  0  0  0
    4.3208   -9.6117    0.0000 C   0  0  0  0  0  0  0  0  0  0  0  0
    3.9118   -7.5164    0.0000 C   0  0  0  0  0  0  0  0  0  0  0  0
    3.1981   -7.1027    0.0000 N   0  0  0  0  0  0  0  0  0  0  0  0
    4.6270   -7.1052    0.0000 O   0  0  0  0  0  0  0  0  0  0  0  0
    3.1981   -6.2777    0.0000 C   0  0  0  0  0  0  0  0  0  0  0  0
    4.5925   -6.2700    0.0000 O   0  0  0  0  0  0  0  0  0  0  0  0
    7.0230   -9.9825    0.0000 C   0  0  0  0  0  0  0  0  0  0  0  0
    7.0230  -10.8075    0.0000 C   0  0  0  0  0  0  0  0  0  0  0  0
    7.7374  -11.2200    0.0000 C   0  0  0  0  0  0  0  0  0  0  0  0
    8.4519  -10.8075    0.0000 C   0  0  0  0  0  0  0  0  0  0  0  0
    8.4519   -9.9825    0.0000 C   0  0  0  0  0  0  0  0  0  0  0  0
    7.7374   -9.5700    0.0000 C   0  0  0  0  0  0  0  0  0  0  0  0
  1  2  1  0  0  0  0
  1  3  1  0  0  0  0
  1  4  1  1  0  0  0
  4  5  1  0  0  0  0
  4  6  1  0  0  0  0
  5  7  1  0  0  0  0
  2  8  1  0  0  0  0
  3  9  1  0  0  0  0
  3 10  2  0  0  0  0
  9 11  1  0  0  0  0
 11 12  1  0  0  0  0
 11 13  1  1  0  0  0
 13 14  1  0  0  0  0
 13 15  1  0  0  0  0
 12 16  1  0  0  0  0
 12 17  2  0  0  0  0
 16 18  1  0  0  0  0
 18 19  1  1  0  0  0
 18 20  1  0  0  0  0
 20 21  2  0  0  0  0
 20 22  1  0  0  0  0
 19 23  1  0  0  0  0
 23 24  2  0  0  0  0
 24 25  1  0  0  0  0
 25 26  2  0  0  0  0
 26 27  1  0  0  0  0
 27 28  2  0  0  0  0
 28 23  1  0  0  0  0
 26 29  1  0  0  0  0
 22 30  1  0  0  0  0
 30 31  1  1  0  0  0
 30 32  1  0  0  0  0
 32 33  1  0  0  0  0
 32 34  2  0  0  0  0
 33 35  1  0  0  0  0
 35 36  1  1  0  0  0
 36 37  1  0  0  0  0
 37 38  1  0  0  0  0
 38 33  1  0  0  0  0
 35 39  1  0  0  0  0
 39 40  1  0  0  0  0
 39 41  2  0  0  0  0
 40 42  1  0  0  0  0
  8 43  2  0  0  0  0
 31 44  1  0  0  0  0
 44 45  2  0  0  0  0
 45 46  1  0  0  0  0
 46 47  2  0  0  0  0
 47 48  1  0  0  0  0
 48 49  2  0  0  0  0
 49 44  1  0  0  0  0
 42  8  1  0  0  0  0
M  END
>  <cdx:fragmentId>
889

$$$$
