30130.cdx
  Mrv1902 05222410192D          

 36 38  0  0  0  0            999 V2000
    7.8081   -9.6651    0.0000 O   0  0  0  0  0  0  0  0  0  0  0  0
    7.8081  -10.4901    0.0000 C   0  0  1  0  0  0  0  0  0  0  0  0
    8.5225  -10.9026    0.0000 C   0  0  2  0  0  0  0  0  0  0  0  0
    9.2370  -10.4901    0.0000 C   0  0  1  0  0  0  0  0  0  0  0  0
    9.2370   -9.6651    0.0000 C   0  0  2  0  0  0  0  0  0  0  0  0
    8.5225   -9.2526    0.0000 C   0  0  2  0  0  0  0  0  0  0  0  0
    7.0936  -10.9026    0.0000 C   0  0  0  0  0  0  0  0  0  0  0  0
    6.3791  -10.4901    0.0000 O   0  0  0  0  0  0  0  0  0  0  0  0
    5.6646  -10.9026    0.0000 C   0  0  0  0  0  0  0  0  0  0  0  0
    4.9502  -10.4901    0.0000 C   0  0  0  0  0  0  0  0  0  0  0  0
    5.6646  -11.7276    0.0000 O   0  0  0  0  0  0  0  0  0  0  0  0
    4.9502   -9.6651    0.0000 C   0  0  0  0  0  0  0  0  0  0  0  0
    4.2357   -9.2526    0.0000 C   0  0  0  0  0  0  0  0  0  0  0  0
    3.5212   -9.6651    0.0000 C   0  0  0  0  0  0  0  0  0  0  0  0
    3.5212  -10.4901    0.0000 C   0  0  0  0  0  0  0  0  0  0  0  0
    4.2357  -10.9026    0.0000 C   0  0  0  0  0  0  0  0  0  0  0  0
    4.2357   -8.4276    0.0000 O   0  0  0  0  0  0  0  0  0  0  0  0
    2.8068   -9.2526    0.0000 O   0  0  0  0  0  0  0  0  0  0  0  0
    2.8068  -10.9026    0.0000 O   0  0  0  0  0  0  0  0  0  0  0  0
    8.5225   -8.4276    0.0000 O   0  0  0  0  0  0  0  0  0  0  0  0
    9.9515  -10.9026    0.0000 O   0  0  0  0  0  0  0  0  0  0  0  0
    8.5225  -11.7276    0.0000 O   0  0  0  0  0  0  0  0  0  0  0  0
    9.9515   -9.2526    0.0000 O   0  0  0  0  0  0  0  0  0  0  0  0
    9.2370   -8.0151    0.0000 C   0  0  0  0  0  0  0  0  0  0  0  0
    9.2370   -7.1901    0.0000 C   0  0  1  0  0  0  0  0  0  0  0  0
    8.5225   -6.7776    0.0000 O   0  0  0  0  0  0  0  0  0  0  0  0
    9.9515   -6.7776    0.0000 C   0  0  0  0  0  0  0  0  0  0  0  0
    9.9515   -5.9526    0.0000 C   0  0  0  0  0  0  0  0  0  0  0  0
   10.6659   -5.5401    0.0000 C   0  0  0  0  0  0  0  0  0  0  0  0
   10.6659   -4.7151    0.0000 C   0  0  0  0  0  0  0  0  0  0  0  0
    9.9515   -4.3026    0.0000 C   0  0  0  0  0  0  0  0  0  0  0  0
    9.2370   -4.7151    0.0000 C   0  0  0  0  0  0  0  0  0  0  0  0
    9.2370   -5.5401    0.0000 C   0  0  0  0  0  0  0  0  0  0  0  0
    9.9515   -3.4776    0.0000 O   0  0  0  0  0  0  0  0  0  0  0  0
   11.3804   -4.3026    0.0000 O   0  0  0  0  0  0  0  0  0  0  0  0
   12.0949   -4.7151    0.0000 C   0  0  0  0  0  0  0  0  0  0  0  0
  1  2  1  0  0  0  0
  2  3  1  0  0  0  0
  3  4  1  0  0  0  0
  4  5  1  0  0  0  0
  5  6  1  0  0  0  0
  6  1  1  0  0  0  0
  2  7  1  1  0  0  0
  7  8  1  0  0  0  0
  8  9  1  0  0  0  0
  9 10  1  0  0  0  0
  9 11  2  0  0  0  0
 10 12  2  0  0  0  0
 12 13  1  0  0  0  0
 13 14  2  0  0  0  0
 14 15  1  0  0  0  0
 15 16  2  0  0  0  0
 16 10  1  0  0  0  0
 13 17  1  0  0  0  0
 14 18  1  0  0  0  0
 15 19  1  0  0  0  0
  6 20  1  1  0  0  0
  4 21  1  1  0  0  0
  3 22  1  6  0  0  0
  5 23  1  6  0  0  0
 20 24  1  0  0  0  0
 24 25  1  0  0  0  0
 25 26  1  1  0  0  0
 25 27  1  0  0  0  0
 27 28  1  0  0  0  0
 28 29  2  0  0  0  0
 29 30  1  0  0  0  0
 30 31  2  0  0  0  0
 31 32  1  0  0  0  0
 32 33  2  0  0  0  0
 33 28  1  0  0  0  0
 31 34  1  0  0  0  0
 30 35  1  0  0  0  0
 35 36  1  0  0  0  0
M  END
>  <cdx:fragmentId>
5

$$$$
