301360.cdx
  Mrv1902 05222410252D          

 27 28  0  0  0  0            999 V2000
    5.8030   -8.3050    0.0000 C   0  0  2  0  0  0  0  0  0  0  0  0
    5.8030   -9.1300    0.0000 C   0  0  2  0  0  0  0  0  0  0  0  0
    6.5175   -9.5425    0.0000 C   0  0  1  0  0  0  0  0  0  0  0  0
    7.2320   -9.1300    0.0000 C   0  0  2  0  0  0  0  0  0  0  0  0
    7.2320   -8.3050    0.0000 C   0  0  1  0  0  0  0  0  0  0  0  0
    6.5175   -7.8925    0.0000 O   0  0  0  0  0  0  0  0  0  0  0  0
    7.9464   -7.8925    0.0000 O   0  0  0  0  0  0  0  0  0  0  0  0
    5.0886   -7.8925    0.0000 C   0  0  0  0  0  0  0  0  0  0  0  0
    6.5175  -10.3675    0.0000 O   0  0  0  0  0  0  0  0  0  0  0  0
    7.9464   -9.5425    0.0000 O   0  0  0  0  0  0  0  0  0  0  0  0
    5.0886   -9.5425    0.0000 O   0  0  0  0  0  0  0  0  0  0  0  0
    4.3741   -8.3050    0.0000 O   0  0  0  0  0  0  0  0  0  0  0  0
    7.9464   -7.0675    0.0000 C   0  0  1  0  0  0  0  0  0  0  0  0
    8.6609   -6.6550    0.0000 C   0  0  0  0  0  0  0  0  0  0  0  0
    7.2320   -6.6550    0.0000 C   0  0  0  0  0  0  0  0  0  0  0  0
    9.3754   -7.0675    0.0000 O   0  0  0  0  0  0  0  0  0  0  0  0
    7.2320   -5.8300    0.0000 C   0  0  0  0  0  0  0  0  0  0  0  0
    6.5175   -5.4175    0.0000 C   0  0  0  0  0  0  0  0  0  0  0  0
    6.5175   -4.5925    0.0000 C   0  0  1  0  0  0  0  0  0  0  0  0
    5.8030   -4.1800    0.0000 C   0  0  0  0  0  0  0  0  0  0  0  0
    5.0886   -4.5925    0.0000 C   0  0  0  0  0  0  0  0  0  0  0  0
    5.0886   -5.4175    0.0000 C   0  0  0  0  0  0  0  0  0  0  0  0
    5.8030   -5.8300    0.0000 C   0  0  0  0  0  0  0  0  0  0  0  0
    7.2320   -4.1800    0.0000 C   0  0  0  0  0  0  0  0  0  0  0  0
    6.5175   -3.7675    0.0000 C   0  0  0  0  0  0  0  0  0  0  0  0
    5.8030   -6.6550    0.0000 C   0  0  0  0  0  0  0  0  0  0  0  0
    4.3741   -4.1800    0.0000 O   0  0  0  0  0  0  0  0  0  0  0  0
  1  2  1  0  0  0  0
  2  3  1  0  0  0  0
  3  4  1  0  0  0  0
  4  5  1  0  0  0  0
  5  6  1  0  0  0  0
  6  1  1  0  0  0  0
  5  7  1  1  0  0  0
  1  8  1  1  0  0  0
  3  9  1  1  0  0  0
  4 10  1  6  0  0  0
  2 11  1  6  0  0  0
  8 12  1  0  0  0  0
 13  7  1  6  0  0  0
 13 14  1  0  0  0  0
 13 15  1  0  0  0  0
 14 16  1  0  0  0  0
 15 17  1  0  0  0  0
 17 18  1  0  0  0  0
 18 19  1  0  0  0  0
 19 20  1  0  0  0  0
 20 21  1  0  0  0  0
 21 22  1  0  0  0  0
 22 23  2  0  0  0  0
 23 18  1  0  0  0  0
 19 24  1  1  0  0  0
 19 25  1  6  0  0  0
 23 26  1  0  0  0  0
 21 27  2  0  0  0  0
M  END
>  <cdx:fragmentId>
326

$$$$
