301313.cdx
  Mrv1902 05222410262D          

 34 37  0  0  0  0            999 V2000
    4.7596   -9.7478    0.0000 O   0  0  0  0  0  0  0  0  0  0  0  0
    2.6230   -7.6783    0.0000 C   0  0  0  0  0  0  0  0  0  0  0  0
    3.3388   -7.2681    0.0000 O   0  0  0  0  0  0  0  0  0  0  0  0
   10.4835   -7.2915    0.0000 C   0  0  0  0  0  0  0  0  0  0  0  0
    9.7676   -7.7017    0.0000 O   0  0  0  0  0  0  0  0  0  0  0  0
    8.3468   -5.2220    0.0000 O   0  0  0  0  0  0  0  0  0  0  0  0
    8.3522   -3.5720    0.0000 O   0  0  0  0  0  0  0  0  0  0  0  0
    9.7838   -2.7517    0.0000 O   0  0  0  0  0  0  0  0  0  0  0  0
   11.2101   -2.7564    0.0000 O   0  0  0  0  0  0  0  0  0  0  0  0
   11.2101   -3.5814    0.0000 C   0  0  0  0  0  0  0  0  0  0  0  0
   10.4943   -3.9915    0.0000 C   0  0  2  0  0  0  0  0  0  0  0  0
    9.7811   -3.5767    0.0000 C   0  0  2  0  0  0  0  0  0  0  0  0
    9.0653   -3.9869    0.0000 C   0  0  1  0  0  0  0  0  0  0  0  0
    9.0626   -4.8119    0.0000 C   0  0  2  0  0  0  0  0  0  0  0  0
    9.7757   -5.2267    0.0000 C   0  0  1  0  0  0  0  0  0  0  0  0
   10.4916   -4.8165    0.0000 O   0  0  0  0  0  0  0  0  0  0  0  0
    9.7730   -6.0517    0.0000 O   0  0  0  0  0  0  0  0  0  0  0  0
    7.6283   -6.4572    0.0000 C   0  0  0  0  0  0  0  0  0  0  0  0
    8.3441   -6.0470    0.0000 C   0  0  0  0  0  0  0  0  0  0  0  0
    9.0572   -6.4618    0.0000 C   0  0  0  0  0  0  0  0  0  0  0  0
    9.0545   -7.2868    0.0000 C   0  0  0  0  0  0  0  0  0  0  0  0
    8.3387   -7.6970    0.0000 C   0  0  0  0  0  0  0  0  0  0  0  0
    7.6256   -7.2822    0.0000 C   0  0  0  0  0  0  0  0  0  0  0  0
    6.1886   -9.7525    0.0000 O   0  0  0  0  0  0  0  0  0  0  0  0
    6.1967   -7.2775    0.0000 O   0  0  0  0  0  0  0  0  0  0  0  0
    5.4808   -7.6877    0.0000 C   0  0  0  0  0  0  0  0  0  0  0  0
    4.7677   -7.2728    0.0000 C   0  0  0  0  0  0  0  0  0  0  0  0
    4.0519   -7.6830    0.0000 C   0  0  0  0  0  0  0  0  0  0  0  0
    4.0492   -8.5080    0.0000 C   0  0  0  0  0  0  0  0  0  0  0  0
    4.7623   -8.9228    0.0000 C   0  0  0  0  0  0  0  0  0  0  0  0
    5.4781   -8.5126    0.0000 C   0  0  0  0  0  0  0  0  0  0  0  0
    6.1913   -8.9275    0.0000 C   0  0  0  0  0  0  0  0  0  0  0  0
    6.9071   -8.5173    0.0000 C   0  0  0  0  0  0  0  0  0  0  0  0
    6.9098   -7.6923    0.0000 C   0  0  0  0  0  0  0  0  0  0  0  0
 30  1  1  0  0  0  0
 28  3  1  0  0  0  0
  3  2  1  0  0  0  0
 34 23  1  0  0  0  0
 21  5  1  0  0  0  0
  5  4  1  0  0  0  0
 20 17  1  0  0  0  0
 15 17  1  1  0  0  0
 14  6  1  6  0  0  0
 13  7  1  1  0  0  0
 12  8  1  6  0  0  0
 11 10  1  1  0  0  0
 10  9  1  0  0  0  0
 16 11  1  0  0  0  0
 12 11  1  0  0  0  0
 13 12  1  0  0  0  0
 14 13  1  0  0  0  0
 15 14  1  0  0  0  0
 16 15  1  0  0  0  0
 23 18  2  0  0  0  0
 19 18  1  0  0  0  0
 20 19  2  0  0  0  0
 21 20  1  0  0  0  0
 22 21  2  0  0  0  0
 23 22  1  0  0  0  0
 32 24  2  0  0  0  0
 34 25  1  0  0  0  0
 26 25  1  0  0  0  0
 31 26  2  0  0  0  0
 27 26  1  0  0  0  0
 28 27  2  0  0  0  0
 29 28  1  0  0  0  0
 30 29  2  0  0  0  0
 31 30  1  0  0  0  0
 32 31  1  0  0  0  0
 33 32  1  0  0  0  0
 34 33  2  0  0  0  0
M  END
>  <cdx:fragmentId>
806

$$$$
