301381.cdx
  Mrv1902 05222410222D          

 43 44  0  0  0  0            999 V2000
   18.1430   -2.0944    0.0000 O   0  0  0  0  0  0  0  0  0  0  0  0
   18.8105   -2.5793    0.0000 C   0  0  2  0  0  0  0  0  0  0  0  0
   18.5555   -3.3640    0.0000 C   0  0  0  0  0  0  0  0  0  0  0  0
   17.7305   -3.3640    0.0000 C   0  0  0  0  0  0  0  0  0  0  0  0
   17.4756   -2.5793    0.0000 C   0  0  0  0  0  0  0  0  0  0  0  0
   16.6910   -2.3244    0.0000 O   0  0  0  0  0  0  0  0  0  0  0  0
   17.2456   -4.0314    0.0000 C   0  0  0  0  0  0  0  0  0  0  0  0
   16.4251   -3.9452    0.0000 C   0  0  0  0  0  0  0  0  0  0  0  0
   15.9402   -4.6126    0.0000 C   0  0  0  0  0  0  0  0  0  0  0  0
   15.1197   -4.5264    0.0000 C   0  0  0  0  0  0  0  0  0  0  0  0
   14.6348   -5.1938    0.0000 C   0  0  0  0  0  0  0  0  0  0  0  0
   13.8143   -5.1076    0.0000 C   0  0  0  0  0  0  0  0  0  0  0  0
   13.3294   -5.7750    0.0000 C   0  0  0  0  0  0  0  0  0  0  0  0
   11.9569   -6.3019    0.0000 O   0  0  0  0  0  0  0  0  0  0  0  0
   12.5089   -5.6888    0.0000 C   0  0  1  0  0  0  0  0  0  0  0  0
   12.0964   -4.9743    0.0000 C   0  0  0  0  0  0  0  0  0  0  0  0
   11.2894   -5.1458    0.0000 C   0  0  0  0  0  0  0  0  0  0  0  0
   11.2032   -5.9663    0.0000 C   0  0  1  0  0  0  0  0  0  0  0  0
   10.4887   -6.3788    0.0000 C   0  0  2  0  0  0  0  0  0  0  0  0
    9.7743   -5.9663    0.0000 C   0  0  0  0  0  0  0  0  0  0  0  0
    9.0598   -6.3788    0.0000 C   0  0  0  0  0  0  0  0  0  0  0  0
    8.3453   -5.9663    0.0000 C   0  0  2  0  0  0  0  0  0  0  0  0
    7.6309   -6.3788    0.0000 C   0  0  1  0  0  0  0  0  0  0  0  0
    6.9164   -5.9663    0.0000 C   0  0  0  0  0  0  0  0  0  0  0  0
    6.2019   -6.3788    0.0000 C   0  0  0  0  0  0  0  0  0  0  0  0
    4.7730   -6.3788    0.0000 C   0  0  0  0  0  0  0  0  0  0  0  0
    4.7730   -7.2038    0.0000 C   0  0  0  0  0  0  0  0  0  0  0  0
    4.0585   -7.6163    0.0000 C   0  0  0  0  0  0  0  0  0  0  0  0
    4.0585   -8.4413    0.0000 C   0  0  0  0  0  0  0  0  0  0  0  0
    3.3440   -8.8538    0.0000 C   0  0  0  0  0  0  0  0  0  0  0  0
    3.3440   -9.6788    0.0000 C   0  0  0  0  0  0  0  0  0  0  0  0
    2.6296  -10.0913    0.0000 C   0  0  0  0  0  0  0  0  0  0  0  0
    2.6296  -10.9163    0.0000 C   0  0  0  0  0  0  0  0  0  0  0  0
    1.9151  -11.3288    0.0000 C   0  0  0  0  0  0  0  0  0  0  0  0
    1.9151  -12.1538    0.0000 C   0  0  0  0  0  0  0  0  0  0  0  0
    1.2006  -12.5663    0.0000 C   0  0  0  0  0  0  0  0  0  0  0  0
    1.2006  -13.3913    0.0000 C   0  0  0  0  0  0  0  0  0  0  0  0
    0.4861  -13.8038    0.0000 C   0  0  0  0  0  0  0  0  0  0  0  0
    7.6309   -7.2038    0.0000 O   0  0  0  0  0  0  0  0  0  0  0  0
    8.3453   -5.1413    0.0000 O   0  0  0  0  0  0  0  0  0  0  0  0
   10.4887   -7.2038    0.0000 O   0  0  0  0  0  0  0  0  0  0  0  0
   19.5951   -2.3244    0.0000 C   0  0  0  0  0  0  0  0  0  0  0  0
    5.4874   -5.9663    0.0000 C   0  0  0  0  0  0  0  0  0  0  0  0
 43 26  2  0  0  0  0
  1  2  1  0  0  0  0
  2  3  1  0  0  0  0
  3  4  2  0  0  0  0
  4  5  1  0  0  0  0
  1  5  1  0  0  0  0
  5  6  2  0  0  0  0
  7  8  1  0  0  0  0
  8  9  1  0  0  0  0
  9 10  1  0  0  0  0
 10 11  1  0  0  0  0
 11 12  1  0  0  0  0
 12 13  1  0  0  0  0
 14 15  1  0  0  0  0
 15 16  1  0  0  0  0
 16 17  1  0  0  0  0
 17 18  1  0  0  0  0
 18 14  1  6  0  0  0
 19 20  1  0  0  0  0
 20 21  1  0  0  0  0
 21 22  1  0  0  0  0
 22 23  1  0  0  0  0
 23 24  1  0  0  0  0
 24 25  1  0  0  0  0
 25 43  1  0  0  0  0
 26 27  1  0  0  0  0
 27 28  1  0  0  0  0
 28 29  1  0  0  0  0
 29 30  1  0  0  0  0
 30 31  1  0  0  0  0
 31 32  1  0  0  0  0
 32 33  1  0  0  0  0
 33 34  1  0  0  0  0
 34 35  1  0  0  0  0
 35 36  1  0  0  0  0
 36 37  1  0  0  0  0
 37 38  1  0  0  0  0
 23 39  1  6  0  0  0
 22 40  1  6  0  0  0
 19 41  1  1  0  0  0
 18 19  1  0  0  0  0
 15 13  1  1  0  0  0
  4  7  1  0  0  0  0
  2 42  1  1  0  0  0
M  END
>  <cdx:groupId>
6452

>  <cdx:fragmentId>
6361

$$$$
