301350.cdx
  Mrv1902 05222410212D          

 27 29  0  0  0  0            999 V2000
    8.7045   -6.3679    0.0000 C   0  0  0  0  0  0  0  0  0  0  0  0
    8.7045   -5.5429    0.0000 C   0  0  0  0  0  0  0  0  0  0  0  0
    7.9900   -5.1304    0.0000 C   0  0  0  0  0  0  0  0  0  0  0  0
    7.2755   -5.5429    0.0000 C   0  0  0  0  0  0  0  0  0  0  0  0
    6.5610   -5.1304    0.0000 C   0  0  0  0  0  0  0  0  0  0  0  0
    5.8466   -5.5429    0.0000 C   0  0  0  0  0  0  0  0  0  0  0  0
    5.8466   -6.3679    0.0000 C   0  0  0  0  0  0  0  0  0  0  0  0
    6.5610   -6.7804    0.0000 C   0  0  0  0  0  0  0  0  0  0  0  0
    7.2755   -6.3679    0.0000 C   0  0  0  0  0  0  0  0  0  0  0  0
    7.9900   -6.7804    0.0000 O   0  0  0  0  0  0  0  0  0  0  0  0
    7.9900   -4.3054    0.0000 O   0  0  0  0  0  0  0  0  0  0  0  0
    5.1321   -5.1304    0.0000 C   0  0  0  0  0  0  0  0  0  0  0  0
    4.4176   -5.5429    0.0000 C   0  0  0  0  0  0  0  0  0  0  0  0
    3.7032   -5.1304    0.0000 C   0  0  0  0  0  0  0  0  0  0  0  0
    3.7032   -4.3054    0.0000 C   0  0  0  0  0  0  0  0  0  0  0  0
    2.9887   -5.5429    0.0000 C   0  0  0  0  0  0  0  0  0  0  0  0
    5.1321   -6.7804    0.0000 O   0  0  0  0  0  0  0  0  0  0  0  0
    6.5610   -4.3054    0.0000 O   0  0  0  0  0  0  0  0  0  0  0  0
    9.4189   -5.1304    0.0000 O   0  0  0  0  0  0  0  0  0  0  0  0
    9.4189   -6.7804    0.0000 C   0  0  0  0  0  0  0  0  0  0  0  0
   10.1334   -6.3679    0.0000 C   0  0  0  0  0  0  0  0  0  0  0  0
   10.8479   -6.7804    0.0000 C   0  0  0  0  0  0  0  0  0  0  0  0
   10.8479   -7.6054    0.0000 C   0  0  0  0  0  0  0  0  0  0  0  0
   10.1334   -8.0179    0.0000 C   0  0  0  0  0  0  0  0  0  0  0  0
    9.4189   -7.6054    0.0000 C   0  0  0  0  0  0  0  0  0  0  0  0
   11.5623   -8.0179    0.0000 O   0  0  0  0  0  0  0  0  0  0  0  0
   11.5623   -6.3679    0.0000 O   0  0  0  0  0  0  0  0  0  0  0  0
  1  2  2  0  0  0  0
  2  3  1  0  0  0  0
  3  4  1  0  0  0  0
  4  5  1  0  0  0  0
  5  6  2  0  0  0  0
  6  7  1  0  0  0  0
  7  8  2  0  0  0  0
  8  9  1  0  0  0  0
  4  9  2  0  0  0  0
  9 10  1  0  0  0  0
  1 10  1  0  0  0  0
  3 11  2  0  0  0  0
 12 13  1  0  0  0  0
 13 14  2  0  0  0  0
 14 15  1  0  0  0  0
 14 16  1  0  0  0  0
  6 12  1  0  0  0  0
  7 17  1  0  0  0  0
  5 18  1  0  0  0  0
  2 19  1  0  0  0  0
 20 21  1  0  0  0  0
 21 22  2  0  0  0  0
 22 23  1  0  0  0  0
 23 24  2  0  0  0  0
 24 25  1  0  0  0  0
 20 25  2  0  0  0  0
 23 26  1  0  0  0  0
 22 27  1  0  0  0  0
  1 20  1  0  0  0  0
M  END
>  <cdx:groupId>
3766

>  <cdx:fragmentId>
3686

$$$$
