301382.cdx
  Mrv1902 05222410232D          

 55 62  0  0  0  0            999 V2000
    8.0893  -11.4083    0.0000 H   0  0  0  0  0  0  0  0  0  0  0  0
   10.2423  -10.1792    0.0000 H   0  0  0  0  0  0  0  0  0  0  0  0
   11.9417   -7.9800    0.0000 H   0  0  0  0  0  0  0  0  0  0  0  0
   12.0993   -6.5597    0.0000 H   0  0  0  0  0  0  0  0  0  0  0  0
    9.5048   -7.5844    0.0000 H   0  0  0  0  0  0  0  0  0  0  0  0
    9.2296   -7.8792    0.0000 H   0  0  0  0  0  0  0  0  0  0  0  0
   10.2858   -4.2019    0.0000 C   0  0  0  0  0  0  0  0  0  0  0  0
   12.3661   -6.8932    0.0000 C   0  0  0  0  0  0  0  0  0  0  0  0
    8.0989   -8.9334    0.0000 C   0  0  0  0  0  0  0  0  0  0  0  0
    7.3725  -11.8167    0.0000 O   0  0  0  0  0  0  0  0  0  0  0  0
    5.9484  -10.9834    0.0000 O   0  0  0  0  0  0  0  0  0  0  0  0
   10.2351  -11.0083    0.0000 O   0  0  0  0  0  0  0  0  0  0  0  0
   10.5566   -9.9327    0.0000 O   0  0  0  0  0  0  0  0  0  0  0  0
   11.2953  -10.0648    0.0000 O   0  0  0  0  0  0  0  0  0  0  0  0
   12.2728   -8.7356    0.0000 O   0  0  0  0  0  0  0  0  0  0  0  0
   12.2751   -7.7131    0.0000 O   0  0  0  0  0  0  0  0  0  0  0  0
    8.9920   -8.5441    0.0000 C   0  0  0  0  0  0  0  0  0  0  0  0
    8.8158   -9.3500    0.0000 C   0  0  2  0  0  0  0  0  0  0  0  0
    7.5899   -9.7264    0.0000 O   0  0  0  0  0  0  0  0  0  0  0  0
    7.3773  -10.9917    0.0000 C   0  0  2  0  0  0  0  0  0  0  0  0
    6.6652  -10.5751    0.0000 C   0  0  2  0  0  0  0  0  0  0  0  0
    6.6700   -9.7501    0.0000 C   0  0  0  0  0  0  0  0  0  0  0  0
    7.3869   -9.3417    0.0000 C   0  0  0  0  0  0  0  0  0  0  0  0
    8.0989   -9.7584    0.0000 C   0  0  2  0  0  0  0  0  0  0  0  0
    8.0941  -10.5834    0.0000 C   0  0  2  0  0  0  0  0  0  0  0  0
    8.8062  -11.0000    0.0000 C   0  0  2  0  0  0  0  0  0  0  0  0
    9.5231  -10.5916    0.0000 C   0  0  2  0  0  0  0  0  0  0  0  0
    9.5278   -9.7667    0.0000 C   0  0  1  0  0  0  0  0  0  0  0  0
   10.1441   -9.2182    0.0000 C   0  0  1  0  0  0  0  0  0  0  0  0
   10.9641   -9.3092    0.0000 C   0  0  2  0  0  0  0  0  0  0  0  0
   11.4529   -8.6446    0.0000 C   0  0  1  0  0  0  0  0  0  0  0  0
   11.1217   -7.8890    0.0000 C   0  0  2  0  0  0  0  0  0  0  0  0
   11.6105   -7.2244    0.0000 C   0  0  2  0  0  0  0  0  0  0  0  0
   11.2793   -6.4687    0.0000 C   0  0  2  0  0  0  0  0  0  0  0  0
   11.7681   -5.8041    0.0000 C   0  0  0  0  0  0  0  0  0  0  0  0
   11.4369   -5.0485    0.0000 C   0  0  0  0  0  0  0  0  0  0  0  0
   10.6170   -4.9575    0.0000 C   0  0  1  0  0  0  0  0  0  0  0  0
   10.1282   -5.6221    0.0000 C   0  0  0  0  0  0  0  0  0  0  0  0
   10.4593   -6.3777    0.0000 N   0  0  0  0  0  0  0  0  0  0  0  0
    9.9706   -7.0424    0.0000 C   0  0  0  0  0  0  0  0  0  0  0  0
   10.3017   -7.7980    0.0000 C   0  0  1  0  0  0  0  0  0  0  0  0
    9.8129   -8.4626    0.0000 C   0  0  2  0  0  0  0  0  0  0  0  0
    8.8014  -11.8250    0.0000 O   0  0  0  0  0  0  0  0  0  0  0  0
    5.2363  -10.5668    0.0000 C   0  0  0  0  0  0  0  0  0  0  0  0
    4.5194  -10.9751    0.0000 C   0  0  0  0  0  0  0  0  0  0  0  0
    5.2411   -9.7418    0.0000 O   0  0  0  0  0  0  0  0  0  0  0  0
    3.8098  -10.5544    0.0000 C   0  0  0  0  0  0  0  0  0  0  0  0
    3.0906  -10.9751    0.0000 C   0  0  0  0  0  0  0  0  0  0  0  0
    3.0906  -11.8001    0.0000 C   0  0  0  0  0  0  0  0  0  0  0  0
    3.8098  -12.2208    0.0000 C   0  0  0  0  0  0  0  0  0  0  0  0
    4.5194  -11.8001    0.0000 C   0  0  0  0  0  0  0  0  0  0  0  0
    2.3749  -10.5647    0.0000 O   0  0  0  0  0  0  0  0  0  0  0  0
    2.3749  -12.2105    0.0000 O   0  0  0  0  0  0  0  0  0  0  0  0
    1.6617  -10.9792    0.0000 C   0  0  0  0  0  0  0  0  0  0  0  0
    1.6617  -11.7960    0.0000 C   0  0  0  0  0  0  0  0  0  0  0  0
 25  1  1  1  0  0  0
 28  2  1  1  0  0  0
 32  3  1  6  0  0  0
 34  4  1  6  0  0  0
 41  5  1  1  0  0  0
 42  6  1  6  0  0  0
 37  7  1  1  0  0  0
 33  8  1  6  0  0  0
 24  9  1  1  0  0  0
 20 10  1  1  0  0  0
 21 11  1  1  0  0  0
 27 12  1  6  0  0  0
 29 13  1  6  0  0  0
 30 14  1  6  0  0  0
 31 15  1  1  0  0  0
 33 16  1  1  0  0  0
 39 34  1  0  0  0  0
 41 32  1  0  0  0  0
 25 20  1  0  0  0  0
 28 18  1  0  0  0  0
 24 18  1  0  0  0  0
 42 29  1  0  0  0  0
 42 17  1  0  0  0  0
 18 17  1  1  0  0  0
 18 19  1  0  0  0  0
 20 19  1  0  0  0  0
 21 20  1  0  0  0  0
 22 21  1  0  0  0  0
 23 22  1  0  0  0  0
 24 23  1  0  0  0  0
 25 24  1  0  0  0  0
 26 25  1  0  0  0  0
 27 26  1  0  0  0  0
 28 27  1  0  0  0  0
 29 28  1  0  0  0  0
 30 29  1  0  0  0  0
 31 30  1  0  0  0  0
 32 31  1  0  0  0  0
 33 32  1  0  0  0  0
 34 33  1  0  0  0  0
 35 34  1  0  0  0  0
 36 35  1  0  0  0  0
 37 36  1  0  0  0  0
 38 37  1  0  0  0  0
 39 38  1  0  0  0  0
 40 39  1  0  0  0  0
 41 40  1  0  0  0  0
 42 41  1  0  0  0  0
 26 43  1  6  0  0  0
 11 44  1  0  0  0  0
 44 45  1  0  0  0  0
 44 46  2  0  0  0  0
 45 47  2  0  0  0  0
 47 48  1  0  0  0  0
 48 49  2  0  0  0  0
 49 50  1  0  0  0  0
 50 51  2  0  0  0  0
 51 45  1  0  0  0  0
 48 52  1  0  0  0  0
 49 53  1  0  0  0  0
 52 54  1  0  0  0  0
 53 55  1  0  0  0  0
M  END
>  <cdx:groupId>
6313

>  <cdx:fragmentId>
6184

$$$$
