30133.cdx
  Mrv1902 05222410202D          

 32 34  0  0  0  0            999 V2000
    4.3293   -7.3964    0.0000 C   0  0  0  0  0  0  0  0  0  0  0  0
    4.3293   -8.2214    0.0000 C   0  0  0  0  0  0  0  0  0  0  0  0
    5.0438   -8.6339    0.0000 C   0  0  0  0  0  0  0  0  0  0  0  0
    5.7582   -8.2214    0.0000 C   0  0  0  0  0  0  0  0  0  0  0  0
    5.7582   -7.3964    0.0000 C   0  0  0  0  0  0  0  0  0  0  0  0
    5.0438   -6.9839    0.0000 C   0  0  0  0  0  0  0  0  0  0  0  0
    6.4727   -8.6339    0.0000 C   0  0  0  0  0  0  0  0  0  0  0  0
    7.1872   -8.2214    0.0000 C   0  0  0  0  0  0  0  0  0  0  0  0
    7.1872   -7.3964    0.0000 C   0  0  2  0  0  0  0  0  0  0  0  0
    6.4727   -6.9839    0.0000 O   0  0  0  0  0  0  0  0  0  0  0  0
    8.6161   -8.2214    0.0000 O   0  0  0  0  0  0  0  0  0  0  0  0
    8.6161   -7.3964    0.0000 C   0  0  0  0  0  0  0  0  0  0  0  0
    7.9017   -6.9839    0.0000 C   0  0  0  0  0  0  0  0  0  0  0  0
    9.3306   -6.9839    0.0000 C   0  0  0  0  0  0  0  0  0  0  0  0
    9.3306   -6.1589    0.0000 C   0  0  0  0  0  0  0  0  0  0  0  0
    8.6161   -5.7464    0.0000 C   0  0  0  0  0  0  0  0  0  0  0  0
    7.9017   -6.1589    0.0000 C   0  0  0  0  0  0  0  0  0  0  0  0
    3.6148   -8.6339    0.0000 C   0  0  0  0  0  0  0  0  0  0  0  0
    3.6148   -9.4589    0.0000 C   0  0  0  0  0  0  0  0  0  0  0  0
    5.0438   -9.4589    0.0000 O   0  0  0  0  0  0  0  0  0  0  0  0
    7.1872   -5.7464    0.0000 O   0  0  0  0  0  0  0  0  0  0  0  0
    3.6148   -6.9839    0.0000 O   0  0  0  0  0  0  0  0  0  0  0  0
    6.4727   -9.4589    0.0000 O   0  0  0  0  0  0  0  0  0  0  0  0
    7.1872   -6.5714    0.0000 H   0  0  0  0  0  0  0  0  0  0  0  0
    2.9004   -9.8714    0.0000 C   0  0  0  0  0  0  0  0  0  0  0  0
    2.1859   -9.4589    0.0000 C   0  0  0  0  0  0  0  0  0  0  0  0
    2.1859   -8.6339    0.0000 C   0  0  0  0  0  0  0  0  0  0  0  0
    1.4714   -8.2214    0.0000 C   0  0  0  0  0  0  0  0  0  0  0  0
    2.9004   -8.2214    0.0000 C   0  0  0  0  0  0  0  0  0  0  0  0
    4.3293   -9.8714    0.0000 C   0  0  0  0  0  0  0  0  0  0  0  0
    5.1543   -9.8714    0.0000 C   0  0  0  0  0  0  0  0  0  0  0  0
    4.3293  -10.6964    0.0000 C   0  0  0  0  0  0  0  0  0  0  0  0
  1  2  2  0  0  0  0
  2  3  1  0  0  0  0
  3  4  2  0  0  0  0
  4  5  1  0  0  0  0
  5  6  2  0  0  0  0
  6  1  1  0  0  0  0
  4  7  1  0  0  0  0
  7  8  1  0  0  0  0
  8  9  1  0  0  0  0
  9 10  1  0  0  0  0
 10  5  1  0  0  0  0
 11 12  1  0  0  0  0
 12 13  2  0  0  0  0
  9 13  1  6  0  0  0
 12 14  1  0  0  0  0
 14 15  2  0  0  0  0
 15 16  1  0  0  0  0
 16 17  2  0  0  0  0
 17 13  1  0  0  0  0
  2 18  1  0  0  0  0
 18 19  1  0  0  0  0
 20  3  1  0  0  0  0
 17 21  1  0  0  0  0
  1 22  1  0  0  0  0
  7 23  2  0  0  0  0
  9 24  1  1  0  0  0
 19 25  1  0  0  0  0
 25 26  1  0  0  0  0
 26 27  2  0  0  0  0
 27 28  1  0  0  0  0
 27 29  1  0  0  0  0
 19 30  1  0  0  0  0
 30 31  1  0  0  0  0
 30 32  2  0  0  0  0
M  END
>  <cdx:fragmentId>
5

$$$$
