301304.cdx
  Mrv1902 05222410262D          

 23 25  0  0  0  0            999 V2000
    7.5862   -8.1603    0.0000 C   0  0  2  0  0  0  0  0  0  0  0  0
    8.0495   -8.8429    0.0000 C   0  0  0  0  0  0  0  0  0  0  0  0
    8.8721   -8.9062    0.0000 C   0  0  0  0  0  0  0  0  0  0  0  0
    9.4344   -8.3025    0.0000 C   0  0  0  0  0  0  0  0  0  0  0  0
    9.3131   -7.4865    0.0000 C   0  0  1  0  0  0  0  0  0  0  0  0
    8.5995   -7.0726    0.0000 C   0  0  2  0  0  0  0  0  0  0  0  0
    7.8309   -7.3725    0.0000 C   0  0  0  0  0  0  0  0  0  0  0  0
   10.0284   -7.0755    0.0000 C   0  0  0  0  0  0  0  0  0  0  0  0
   10.0301   -6.2505    0.0000 C   0  0  1  0  0  0  0  0  0  0  0  0
    9.3164   -5.8365    0.0000 C   0  0  0  0  0  0  0  0  0  0  0  0
    8.6011   -6.2476    0.0000 C   0  0  0  0  0  0  0  0  0  0  0  0
    7.1572   -6.8962    0.0000 C   0  0  0  0  0  0  0  0  0  0  0  0
    6.4961   -7.3897    0.0000 C   0  0  0  0  0  0  0  0  0  0  0  0
    6.7612   -8.1710    0.0000 O   0  0  0  0  0  0  0  0  0  0  0  0
   10.6134   -5.6671    0.0000 C   0  0  0  0  0  0  0  0  0  0  0  0
   11.4103   -5.8806    0.0000 C   0  0  0  0  0  0  0  0  0  0  0  0
   10.7920   -6.5669    0.0000 C   0  0  0  0  0  0  0  0  0  0  0  0
   10.0276   -7.8990    0.0000 H   0  0  0  0  0  0  0  0  0  0  0  0
    7.2832   -8.9277    0.0000 H   0  0  0  0  0  0  0  0  0  0  0  0
    7.9188   -6.6065    0.0000 C   0  0  0  0  0  0  0  0  0  0  0  0
    5.7083   -7.1450    0.0000 O   0  0  0  0  0  0  0  0  0  0  0  0
    7.3351   -9.2554    0.0000 C   0  0  0  0  0  0  0  0  0  0  0  0
    8.0495   -9.6679    0.0000 C   0  0  0  0  0  0  0  0  0  0  0  0
  1  2  1  0  0  0  0
  2  3  1  0  0  0  0
  3  4  1  0  0  0  0
  4  5  1  0  0  0  0
  5  6  1  0  0  0  0
  6  7  1  0  0  0  0
  7  1  1  0  0  0  0
  5  8  1  0  0  0  0
  8  9  1  0  0  0  0
  9 10  1  0  0  0  0
 10 11  1  0  0  0  0
 11  6  1  0  0  0  0
  7 12  2  0  0  0  0
 12 13  1  0  0  0  0
 13 14  1  0  0  0  0
 14  1  1  0  0  0  0
  9 15  1  0  0  0  0
 15 16  2  0  0  0  0
  9 17  1  6  0  0  0
  5 18  1  6  0  0  0
  1 19  1  6  0  0  0
  6 20  1  1  0  0  0
 13 21  2  0  0  0  0
  2 22  1  0  0  0  0
  2 23  1  0  0  0  0
M  END
>  <cdx:fragmentId>
268

$$$$
