301346.cdx
  Mrv1902 05222410212D          

 31 34  0  0  0  0            999 V2000
   10.1949   -9.9698    0.0000 O   0  0  0  0  0  0  0  0  0  0  0  0
    7.3370  -10.7948    0.0000 O   0  0  0  0  0  0  0  0  0  0  0  0
   10.1949   -7.4948    0.0000 C   0  0  0  0  0  0  0  0  0  0  0  0
   10.9094   -7.0823    0.0000 C   0  0  0  0  0  0  0  0  0  0  0  0
   11.6239   -7.4948    0.0000 C   0  0  0  0  0  0  0  0  0  0  0  0
   11.6239   -8.3198    0.0000 C   0  0  0  0  0  0  0  0  0  0  0  0
   10.9094   -8.7323    0.0000 C   0  0  0  0  0  0  0  0  0  0  0  0
   10.1949   -8.3198    0.0000 C   0  0  0  0  0  0  0  0  0  0  0  0
    5.9081   -9.9698    0.0000 O   0  0  0  0  0  0  0  0  0  0  0  0
    4.4791  -10.7948    0.0000 O   0  0  0  0  0  0  0  0  0  0  0  0
    3.0502   -9.9698    0.0000 O   0  0  0  0  0  0  0  0  0  0  0  0
    2.3357   -8.7323    0.0000 O   0  0  0  0  0  0  0  0  0  0  0  0
    3.0502   -8.3198    0.0000 C   0  0  0  0  0  0  0  0  0  0  0  0
    3.7647   -8.7323    0.0000 C   0  0  2  0  0  0  0  0  0  0  0  0
    3.7647   -9.5573    0.0000 C   0  0  2  0  0  0  0  0  0  0  0  0
    4.4791   -9.9698    0.0000 C   0  0  1  0  0  0  0  0  0  0  0  0
    5.1936   -9.5573    0.0000 C   0  0  2  0  0  0  0  0  0  0  0  0
    5.1936   -8.7323    0.0000 C   0  0  1  0  0  0  0  0  0  0  0  0
    4.4791   -8.3198    0.0000 O   0  0  0  0  0  0  0  0  0  0  0  0
    5.9081   -8.3198    0.0000 O   0  0  0  0  0  0  0  0  0  0  0  0
    8.7660  -10.7948    0.0000 O   0  0  0  0  0  0  0  0  0  0  0  0
    8.7660   -8.3198    0.0000 O   0  0  0  0  0  0  0  0  0  0  0  0
    8.0515   -8.7323    0.0000 C   0  0  0  0  0  0  0  0  0  0  0  0
    7.3370   -8.3198    0.0000 C   0  0  0  0  0  0  0  0  0  0  0  0
    6.6226   -8.7323    0.0000 C   0  0  0  0  0  0  0  0  0  0  0  0
    6.6226   -9.5573    0.0000 C   0  0  0  0  0  0  0  0  0  0  0  0
    7.3370   -9.9698    0.0000 C   0  0  0  0  0  0  0  0  0  0  0  0
    8.0515   -9.5573    0.0000 C   0  0  0  0  0  0  0  0  0  0  0  0
    8.7660   -9.9698    0.0000 C   0  0  0  0  0  0  0  0  0  0  0  0
    9.4804   -9.5573    0.0000 C   0  0  0  0  0  0  0  0  0  0  0  0
    9.4804   -8.7323    0.0000 C   0  0  0  0  0  0  0  0  0  0  0  0
 30  1  1  0  0  0  0
 27  2  1  0  0  0  0
 31  8  1  0  0  0  0
  8  3  2  0  0  0  0
  4  3  1  0  0  0  0
  5  4  2  0  0  0  0
  6  5  1  0  0  0  0
  7  6  2  0  0  0  0
  8  7  1  0  0  0  0
 25 20  1  0  0  0  0
 18 20  1  1  0  0  0
 17  9  1  6  0  0  0
 16 10  1  1  0  0  0
 15 11  1  6  0  0  0
 14 13  1  1  0  0  0
 13 12  1  0  0  0  0
 19 14  1  0  0  0  0
 15 14  1  0  0  0  0
 16 15  1  0  0  0  0
 17 16  1  0  0  0  0
 18 17  1  0  0  0  0
 19 18  1  0  0  0  0
 29 21  2  0  0  0  0
 31 22  1  0  0  0  0
 23 22  1  0  0  0  0
 28 23  2  0  0  0  0
 24 23  1  0  0  0  0
 25 24  2  0  0  0  0
 26 25  1  0  0  0  0
 27 26  2  0  0  0  0
 28 27  1  0  0  0  0
 29 28  1  0  0  0  0
 30 29  1  0  0  0  0
 31 30  2  0  0  0  0
M  END
>  <cdx:fragmentId>
3374

$$$$
