301373.cdx
  Mrv1902 05222410242D          

 37 40  0  0  0  0            999 V2000
   10.4706   -4.3768    0.0000 C   0  0  0  0  0  0  0  0  0  0  0  0
   10.2157   -5.1614    0.0000 C   0  0  0  0  0  0  0  0  0  0  0  0
    9.4087   -5.3330    0.0000 C   0  0  0  0  0  0  0  0  0  0  0  0
    9.1538   -6.1176    0.0000 C   0  0  0  0  0  0  0  0  0  0  0  0
    8.3468   -6.2891    0.0000 C   0  0  1  0  0  0  0  0  0  0  0  0
    7.7947   -5.6760    0.0000 C   0  0  0  0  0  0  0  0  0  0  0  0
   11.5325   -3.4207    0.0000 O   0  0  0  0  0  0  0  0  0  0  0  0
    4.4493   -8.1537    0.0000 C   0  0  0  0  0  0  0  0  0  0  0  0
    3.7349   -8.5662    0.0000 C   0  0  0  0  0  0  0  0  0  0  0  0
    3.7349   -9.3912    0.0000 C   0  0  1  0  0  0  0  0  0  0  0  0
    4.4493   -9.8037    0.0000 C   0  0  0  0  0  0  0  0  0  0  0  0
    5.1638   -9.3912    0.0000 C   0  0  1  0  0  0  0  0  0  0  0  0
    5.8783   -9.8037    0.0000 C   0  0  0  0  0  0  0  0  0  0  0  0
    6.5927   -9.3912    0.0000 C   0  0  1  0  0  0  0  0  0  0  0  0
    6.5927   -8.5662    0.0000 C   0  0  0  0  0  0  0  0  0  0  0  0
    7.3072   -8.1537    0.0000 C   0  0  2  0  0  0  0  0  0  0  0  0
    8.0918   -8.4086    0.0000 C   0  0  0  0  0  0  0  0  0  0  0  0
    8.5768   -7.7412    0.0000 C   0  0  0  0  0  0  0  0  0  0  0  0
    8.0918   -7.0737    0.0000 C   0  0  2  0  0  0  0  0  0  0  0  0
    7.3072   -7.3287    0.0000 C   0  0  1  0  0  0  0  0  0  0  0  0
    6.5927   -6.9162    0.0000 C   0  0  0  0  0  0  0  0  0  0  0  0
    5.8783   -7.3287    0.0000 C   0  0  0  0  0  0  0  0  0  0  0  0
    5.8783   -8.1537    0.0000 C   0  0  0  0  0  0  0  0  0  0  0  0
    5.1638   -8.5662    0.0000 C   0  0  1  0  0  0  0  0  0  0  0  0
    5.1638   -6.9162    0.0000 O   0  0  0  0  0  0  0  0  0  0  0  0
    7.3072   -8.9787    0.0000 C   0  0  0  0  0  0  0  0  0  0  0  0
    7.3072   -6.5037    0.0000 C   0  0  0  0  0  0  0  0  0  0  0  0
    5.1638   -7.7412    0.0000 C   0  0  0  0  0  0  0  0  0  0  0  0
    4.8618  -10.5182    0.0000 C   0  0  0  0  0  0  0  0  0  0  0  0
    4.0368  -10.5182    0.0000 C   0  0  0  0  0  0  0  0  0  0  0  0
    7.3072   -9.8037    0.0000 O   0  0  0  0  0  0  0  0  0  0  0  0
    3.0204   -9.8037    0.0000 O   0  0  0  0  0  0  0  0  0  0  0  0
    9.9186   -3.7637    0.0000 C   0  0  0  0  0  0  0  0  0  0  0  0
   11.8296   -4.8184    0.0000 O   0  0  0  0  0  0  0  0  0  0  0  0
   11.2776   -4.2053    0.0000 C   0  0  0  0  0  0  0  0  0  0  0  0
    5.1638  -10.2162    0.0000 H   0  0  0  0  0  0  0  0  0  0  0  0
    8.8765   -6.8188    0.0000 H   0  0  0  0  0  0  0  0  0  0  0  0
 35  7  1  0  0  0  0
 35 34  2  0  0  0  0
 35  1  1  0  0  0  0
  1  2  2  0  0  0  0
  2  3  1  0  0  0  0
  3  4  1  0  0  0  0
  4  5  1  0  0  0  0
  5  6  1  6  0  0  0
  8  9  1  0  0  0  0
  9 10  1  0  0  0  0
 10 11  1  0  0  0  0
 11 12  1  0  0  0  0
 12 13  1  0  0  0  0
 13 14  1  0  0  0  0
 14 15  1  0  0  0  0
 15 16  1  0  0  0  0
 16 17  1  0  0  0  0
 17 18  1  0  0  0  0
 19 18  1  0  0  0  0
 19 20  1  0  0  0  0
 16 20  1  0  0  0  0
 20 21  1  0  0  0  0
 21 22  1  0  0  0  0
 22 23  1  0  0  0  0
 15 23  2  0  0  0  0
 23 24  1  0  0  0  0
 12 24  1  0  0  0  0
  8 24  1  0  0  0  0
 22 25  2  0  0  0  0
 16 26  1  6  0  0  0
 20 27  1  1  0  0  0
 24 28  1  1  0  0  0
 11 29  1  0  0  0  0
 11 30  1  0  0  0  0
 14 31  1  1  0  0  0
 10 32  1  1  0  0  0
  5 19  1  0  0  0  0
  1 33  1  0  0  0  0
 12 36  1  1  0  0  0
 19 37  1  1  0  0  0
M  END
>  <cdx:fragmentId>
5500

$$$$
