301367.cdx
  Mrv1902 05222410242D          

 37 40  0  0  0  0            999 V2000
    4.4986   -7.6894    0.0000 C   0  0  0  0  0  0  0  0  0  0  0  0
    3.7841   -8.1019    0.0000 C   0  0  0  0  0  0  0  0  0  0  0  0
    3.7841   -8.9269    0.0000 C   0  0  0  0  0  0  0  0  0  0  0  0
    4.4986   -9.3394    0.0000 C   0  0  0  0  0  0  0  0  0  0  0  0
    5.2131   -8.9269    0.0000 C   0  0  2  0  0  0  0  0  0  0  0  0
    5.9275   -9.3394    0.0000 C   0  0  0  0  0  0  0  0  0  0  0  0
    6.6420   -8.9269    0.0000 C   0  0  2  0  0  0  0  0  0  0  0  0
    6.6420   -8.1019    0.0000 C   0  0  0  0  0  0  0  0  0  0  0  0
    7.3565   -7.6894    0.0000 C   0  0  2  0  0  0  0  0  0  0  0  0
    8.1411   -7.9443    0.0000 C   0  0  2  0  0  0  0  0  0  0  0  0
    8.6260   -7.2769    0.0000 C   0  0  0  0  0  0  0  0  0  0  0  0
    8.1411   -6.6094    0.0000 C   0  0  1  0  0  0  0  0  0  0  0  0
    7.3565   -6.8644    0.0000 C   0  0  1  0  0  0  0  0  0  0  0  0
    6.6420   -6.4519    0.0000 C   0  0  0  0  0  0  0  0  0  0  0  0
    5.9275   -6.8644    0.0000 C   0  0  0  0  0  0  0  0  0  0  0  0
    5.9275   -7.6894    0.0000 C   0  0  0  0  0  0  0  0  0  0  0  0
    5.2131   -8.1019    0.0000 C   0  0  1  0  0  0  0  0  0  0  0  0
    3.0696   -9.3394    0.0000 O   0  0  0  0  0  0  0  0  0  0  0  0
    7.4427   -8.5098    0.0000 C   0  0  0  0  0  0  0  0  0  0  0  0
    7.4427   -6.0439    0.0000 C   0  0  0  0  0  0  0  0  0  0  0  0
    5.2131   -7.2769    0.0000 C   0  0  0  0  0  0  0  0  0  0  0  0
    4.9111  -10.0538    0.0000 C   0  0  0  0  0  0  0  0  0  0  0  0
    4.0861  -10.0538    0.0000 C   0  0  0  0  0  0  0  0  0  0  0  0
    7.3565   -9.3394    0.0000 O   0  0  0  0  0  0  0  0  0  0  0  0
    7.3565  -10.1644    0.0000 C   0  0  0  0  0  0  0  0  0  0  0  0
    7.8440   -5.2117    0.0000 C   0  0  0  0  0  0  0  0  0  0  0  0
    8.3960   -5.8248    0.0000 C   0  0  2  0  0  0  0  0  0  0  0  0
    9.2030   -5.6533    0.0000 C   0  0  0  0  0  0  0  0  0  0  0  0
    9.4579   -4.8686    0.0000 C   0  0  0  0  0  0  0  0  0  0  0  0
   10.2649   -4.6971    0.0000 C   0  0  0  0  0  0  0  0  0  0  0  0
   10.5199   -3.9125    0.0000 C   0  0  0  0  0  0  0  0  0  0  0  0
   11.3268   -3.7410    0.0000 C   0  0  0  0  0  0  0  0  0  0  0  0
    9.9678   -3.2994    0.0000 C   0  0  0  0  0  0  0  0  0  0  0  0
    9.1608   -3.4709    0.0000 O   0  0  0  0  0  0  0  0  0  0  0  0
   11.5818   -2.9564    0.0000 O   0  0  0  0  0  0  0  0  0  0  0  0
    8.3960   -8.7289    0.0000 O   0  0  0  0  0  0  0  0  0  0  0  0
    5.2131   -9.7519    0.0000 H   0  0  0  0  0  0  0  0  0  0  0  0
  1  2  1  0  0  0  0
  2  3  1  0  0  0  0
  3  4  1  0  0  0  0
  4  5  1  0  0  0  0
  5  6  1  0  0  0  0
  6  7  1  0  0  0  0
  7  8  1  0  0  0  0
  8  9  1  0  0  0  0
  9 10  1  0  0  0  0
 10 11  1  0  0  0  0
 12 11  1  1  0  0  0
 12 13  1  0  0  0  0
  9 13  1  0  0  0  0
 13 14  1  0  0  0  0
 14 15  1  0  0  0  0
 15 16  1  0  0  0  0
  8 16  2  0  0  0  0
 16 17  1  0  0  0  0
  5 17  1  0  0  0  0
  1 17  1  0  0  0  0
  3 18  2  0  0  0  0
  9 19  1  6  0  0  0
 13 20  1  1  0  0  0
 17 21  1  1  0  0  0
  4 22  1  0  0  0  0
  4 23  1  0  0  0  0
 24 25  1  0  0  0  0
  7 24  1  6  0  0  0
 27 26  1  6  0  0  0
 27 28  1  0  0  0  0
 28 29  1  0  0  0  0
 29 30  1  0  0  0  0
 30 31  2  0  0  0  0
 31 32  1  0  0  0  0
 33 34  1  0  0  0  0
 31 33  1  0  0  0  0
 32 35  1  0  0  0  0
 12 27  1  0  0  0  0
 10 36  1  6  0  0  0
  5 37  1  6  0  0  0
M  END
>  <cdx:groupId>
4896

>  <cdx:fragmentId>
4785

$$$$
