301371.cdx
  Mrv1902 05222410232D          

 35 38  0  0  0  0            999 V2000
    4.4986   -8.1537    0.0000 C   0  0  0  0  0  0  0  0  0  0  0  0
    3.7841   -8.5662    0.0000 C   0  0  0  0  0  0  0  0  0  0  0  0
    3.7841   -9.3912    0.0000 C   0  0  0  0  0  0  0  0  0  0  0  0
    4.4986   -9.8037    0.0000 C   0  0  0  0  0  0  0  0  0  0  0  0
    5.2131   -9.3912    0.0000 C   0  0  2  0  0  0  0  0  0  0  0  0
    5.9275   -9.8037    0.0000 C   0  0  0  0  0  0  0  0  0  0  0  0
    6.6420   -9.3912    0.0000 C   0  0  0  0  0  0  0  0  0  0  0  0
    6.6420   -8.5662    0.0000 C   0  0  0  0  0  0  0  0  0  0  0  0
    7.3565   -8.1537    0.0000 C   0  0  2  0  0  0  0  0  0  0  0  0
    8.1411   -8.4086    0.0000 C   0  0  0  0  0  0  0  0  0  0  0  0
    8.6260   -7.7412    0.0000 C   0  0  0  0  0  0  0  0  0  0  0  0
    8.1411   -7.0737    0.0000 C   0  0  1  0  0  0  0  0  0  0  0  0
    7.3565   -7.3287    0.0000 C   0  0  1  0  0  0  0  0  0  0  0  0
    6.6420   -6.9162    0.0000 C   0  0  0  0  0  0  0  0  0  0  0  0
    5.9275   -7.3287    0.0000 C   0  0  0  0  0  0  0  0  0  0  0  0
    5.9275   -8.1537    0.0000 C   0  0  0  0  0  0  0  0  0  0  0  0
    5.2131   -8.5662    0.0000 C   0  0  1  0  0  0  0  0  0  0  0  0
    3.0696   -9.8037    0.0000 O   0  0  0  0  0  0  0  0  0  0  0  0
    7.3565   -9.8037    0.0000 O   0  0  0  0  0  0  0  0  0  0  0  0
    7.3565   -8.9787    0.0000 C   0  0  0  0  0  0  0  0  0  0  0  0
    7.3565   -6.5037    0.0000 C   0  0  0  0  0  0  0  0  0  0  0  0
    5.2131   -7.7412    0.0000 C   0  0  0  0  0  0  0  0  0  0  0  0
    4.9111  -10.5182    0.0000 C   0  0  0  0  0  0  0  0  0  0  0  0
    4.0861  -10.5182    0.0000 C   0  0  0  0  0  0  0  0  0  0  0  0
    7.8440   -5.6760    0.0000 C   0  0  0  0  0  0  0  0  0  0  0  0
    8.3960   -6.2891    0.0000 C   0  0  2  0  0  0  0  0  0  0  0  0
    9.2030   -6.1176    0.0000 C   0  0  0  0  0  0  0  0  0  0  0  0
    9.4579   -5.3330    0.0000 C   0  0  0  0  0  0  0  0  0  0  0  0
   10.2649   -5.1614    0.0000 C   0  0  0  0  0  0  0  0  0  0  0  0
   10.5199   -4.3768    0.0000 C   0  0  0  0  0  0  0  0  0  0  0  0
   11.3268   -4.2053    0.0000 C   0  0  0  0  0  0  0  0  0  0  0  0
    9.9678   -3.7637    0.0000 C   0  0  0  0  0  0  0  0  0  0  0  0
   11.5818   -3.4207    0.0000 O   0  0  0  0  0  0  0  0  0  0  0  0
    5.2131  -10.2162    0.0000 H   0  0  0  0  0  0  0  0  0  0  0  0
    8.9257   -6.8188    0.0000 H   0  0  0  0  0  0  0  0  0  0  0  0
  1  2  1  0  0  0  0
  2  3  1  0  0  0  0
  3  4  1  0  0  0  0
  4  5  1  0  0  0  0
  5  6  1  0  0  0  0
  6  7  1  0  0  0  0
  7  8  1  0  0  0  0
  8  9  1  0  0  0  0
  9 10  1  0  0  0  0
 10 11  1  0  0  0  0
 12 11  1  0  0  0  0
 12 13  1  0  0  0  0
  9 13  1  0  0  0  0
 13 14  1  0  0  0  0
 14 15  1  0  0  0  0
 15 16  1  0  0  0  0
  8 16  2  0  0  0  0
 16 17  1  0  0  0  0
  5 17  1  0  0  0  0
  1 17  1  0  0  0  0
  3 18  2  0  0  0  0
  7 19  2  0  0  0  0
  9 20  1  6  0  0  0
 13 21  1  1  0  0  0
 17 22  1  1  0  0  0
  4 23  1  0  0  0  0
  4 24  1  0  0  0  0
 26 25  1  6  0  0  0
 26 27  1  0  0  0  0
 27 28  1  0  0  0  0
 28 29  1  0  0  0  0
 29 30  2  0  0  0  0
 30 31  1  0  0  0  0
 30 32  1  0  0  0  0
 31 33  1  0  0  0  0
 12 26  1  0  0  0  0
  5 34  1  6  0  0  0
 12 35  1  6  0  0  0
M  END
>  <cdx:groupId>
5348

>  <cdx:fragmentId>
5246

$$$$
