301379.cdx
  Mrv1902 05222410202D          

 51 57  0  0  0  0            999 V2000
    3.6409  -10.4636    0.0000 O   0  0  0  0  0  0  0  0  0  0  0  0
    2.9169  -10.0682    0.0000 C   0  0  0  0  0  0  0  0  0  0  0  0
    2.8973   -9.2434    0.0000 O   0  0  0  0  0  0  0  0  0  0  0  0
    5.7935  -10.8252    0.0000 H   0  0  0  0  0  0  0  0  0  0  0  0
    7.8974   -9.5542    0.0000 H   0  0  0  0  0  0  0  0  0  0  0  0
    9.5430   -7.2845    0.0000 H   0  0  0  0  0  0  0  0  0  0  0  0
    9.6586   -5.8603    0.0000 H   0  0  0  0  0  0  0  0  0  0  0  0
    7.1015   -6.9375    0.0000 H   0  0  0  0  0  0  0  0  0  0  0  0
    6.8461   -7.2464    0.0000 H   0  0  0  0  0  0  0  0  0  0  0  0
    2.2124  -10.4975    0.0000 C   0  0  0  0  0  0  0  0  0  0  0  0
    9.8684   -7.0080    0.0000 O   0  0  0  0  0  0  0  0  0  0  0  0
    9.8963   -8.0300    0.0000 O   0  0  0  0  0  0  0  0  0  0  0  0
    8.1953   -9.2898    0.0000 O   0  0  0  0  0  0  0  0  0  0  0  0
    7.9266  -10.3619    0.0000 O   0  0  0  0  0  0  0  0  0  0  0  0
    5.0891  -11.2545    0.0000 O   0  0  0  0  0  0  0  0  0  0  0  0
    7.7762   -3.5570    0.0000 C   0  0  0  0  0  0  0  0  0  0  0  0
    9.9351   -6.1857    0.0000 C   0  0  0  0  0  0  0  0  0  0  0  0
    6.4785   -9.5710    0.0000 C   0  0  0  0  0  0  0  0  0  0  0  0
    6.6112   -7.9355    0.0000 C   0  0  0  0  0  0  0  0  0  0  0  0
    6.4589   -8.7463    0.0000 C   0  0  2  0  0  0  0  0  0  0  0  0
    5.2446   -9.1587    0.0000 O   0  0  0  0  0  0  0  0  0  0  0  0
    5.0695  -10.4297    0.0000 C   0  0  2  0  0  0  0  0  0  0  0  0
    4.3454  -10.0343    0.0000 C   0  0  2  0  0  0  0  0  0  0  0  0
    4.3259   -9.2095    0.0000 C   0  0  0  0  0  0  0  0  0  0  0  0
    5.0303   -8.7802    0.0000 C   0  0  0  0  0  0  0  0  0  0  0  0
    5.7544   -9.1756    0.0000 C   0  0  2  0  0  0  0  0  0  0  0  0
    5.7740  -10.0004    0.0000 C   0  0  2  0  0  0  0  0  0  0  0  0
    6.4980  -10.3958    0.0000 C   0  0  0  0  0  0  0  0  0  0  0  0
    7.2025   -9.9665    0.0000 C   0  0  2  0  0  0  0  0  0  0  0  0
    7.1829   -9.1417    0.0000 C   0  0  1  0  0  0  0  0  0  0  0  0
    7.7828   -8.5753    0.0000 C   0  0  1  0  0  0  0  0  0  0  0  0
    8.6051   -8.6420    0.0000 C   0  0  2  0  0  0  0  0  0  0  0  0
    9.0740   -7.9633    0.0000 C   0  0  1  0  0  0  0  0  0  0  0  0
    8.7207   -7.2178    0.0000 C   0  0  2  0  0  0  0  0  0  0  0  0
    9.1896   -6.5390    0.0000 C   0  0  1  0  0  0  0  0  0  0  0  0
    8.8363   -5.7935    0.0000 C   0  0  2  0  0  0  0  0  0  0  0  0
    9.3052   -5.1148    0.0000 C   0  0  0  0  0  0  0  0  0  0  0  0
    8.9519   -4.3693    0.0000 C   0  0  0  0  0  0  0  0  0  0  0  0
    8.1296   -4.3025    0.0000 C   0  0  1  0  0  0  0  0  0  0  0  0
    7.6606   -4.9813    0.0000 C   0  0  0  0  0  0  0  0  0  0  0  0
    8.0140   -5.7268    0.0000 N   0  0  0  0  0  0  0  0  0  0  0  0
    7.5450   -6.4055    0.0000 C   0  0  0  0  0  0  0  0  0  0  0  0
    7.8984   -7.1510    0.0000 C   0  0  1  0  0  0  0  0  0  0  0  0
    7.4294   -7.8298    0.0000 C   0  0  2  0  0  0  0  0  0  0  0  0
    9.6651  -10.8785    0.0000 C   0  0  0  0  0  0  0  0  0  0  0  0
    8.9584   -9.3875    0.0000 O   0  0  0  0  0  0  0  0  0  0  0  0
   10.2496   -8.7755    0.0000 O   0  0  0  0  0  0  0  0  0  0  0  0
   11.3097  -11.0120    0.0000 C   0  0  0  0  0  0  0  0  0  0  0  0
   10.9563  -10.2665    0.0000 C   0  0  0  0  0  0  0  0  0  0  0  0
   10.1340  -10.1998    0.0000 C   0  0  2  0  0  0  0  0  0  0  0  0
    9.7807   -9.4543    0.0000 C   0  0  0  0  0  0  0  0  0  0  0  0
 27  4  1  1  0  0  0
 30  5  1  1  0  0  0
 34  6  1  6  0  0  0
 36  7  1  6  0  0  0
 43  8  1  1  0  0  0
 44  9  1  6  0  0  0
 32 46  1  6  0  0  0
 23  1  1  1  0  0  0
 35 11  1  1  0  0  0
 33 12  1  1  0  0  0
 31 13  1  6  0  0  0
 29 14  1  6  0  0  0
 22 15  1  1  0  0  0
 39 16  1  1  0  0  0
 35 17  1  6  0  0  0
 26 18  1  1  0  0  0
 41 36  1  0  0  0  0
 43 34  1  0  0  0  0
 27 22  1  0  0  0  0
 30 20  1  0  0  0  0
 26 20  1  0  0  0  0
 44 31  1  0  0  0  0
 44 19  1  0  0  0  0
 20 19  1  1  0  0  0
 20 21  1  0  0  0  0
 22 21  1  0  0  0  0
 23 22  1  0  0  0  0
 24 23  1  0  0  0  0
 25 24  1  0  0  0  0
 26 25  1  0  0  0  0
 27 26  1  0  0  0  0
 28 27  1  0  0  0  0
 29 28  1  0  0  0  0
 30 29  1  0  0  0  0
 31 30  1  0  0  0  0
 32 31  1  0  0  0  0
 33 32  1  0  0  0  0
 34 33  1  0  0  0  0
 35 34  1  0  0  0  0
 36 35  1  0  0  0  0
 37 36  1  0  0  0  0
 38 37  1  0  0  0  0
 39 38  1  0  0  0  0
 40 39  1  0  0  0  0
 41 40  1  0  0  0  0
 42 41  1  0  0  0  0
 43 42  1  0  0  0  0
 44 43  1  0  0  0  0
 50 45  1  1  0  0  0
 51 46  1  0  0  0  0
 51 47  2  0  0  0  0
 49 48  1  0  0  0  0
 50 49  1  0  0  0  0
 51 50  1  0  0  0  0
  2  3  2  0  0  0  0
  2 10  1  0  0  0  0
  1  2  1  0  0  0  0
M  END
>  <cdx:groupId>
6165

>  <cdx:fragmentId>
6023

$$$$
