301330.cdx
  Mrv1902 05222410192D          

 25 26  0  0  0  0            999 V2000
   11.5097   -4.6316    0.0000 O   0  0  0  0  0  0  0  0  0  0  0  0
    9.3699   -5.0623    0.0000 C   0  0  0  0  0  0  0  0  0  0  0  0
   10.0808   -4.6437    0.0000 C   0  0  0  0  0  0  0  0  0  0  0  0
   10.7988   -5.0501    0.0000 C   0  0  0  0  0  0  0  0  0  0  0  0
   10.8058   -5.8751    0.0000 C   0  0  0  0  0  0  0  0  0  0  0  0
   10.0949   -6.2937    0.0000 C   0  0  0  0  0  0  0  0  0  0  0  0
    9.3769   -5.8873    0.0000 C   0  0  0  0  0  0  0  0  0  0  0  0
    5.8153   -7.1552    0.0000 O   0  0  0  0  0  0  0  0  0  0  0  0
    4.3653   -4.6924    0.0000 O   0  0  0  0  0  0  0  0  0  0  0  0
    7.2231   -4.6681    0.0000 O   0  0  0  0  0  0  0  0  0  0  0  0
    6.5121   -5.0867    0.0000 C   0  0  0  0  0  0  0  0  0  0  0  0
    5.7942   -4.6803    0.0000 C   0  0  0  0  0  0  0  0  0  0  0  0
    5.0832   -5.0988    0.0000 C   0  0  0  0  0  0  0  0  0  0  0  0
    5.0903   -5.9238    0.0000 C   0  0  0  0  0  0  0  0  0  0  0  0
    5.8082   -6.3302    0.0000 C   0  0  0  0  0  0  0  0  0  0  0  0
    6.5192   -5.9116    0.0000 C   0  0  0  0  0  0  0  0  0  0  0  0
    7.2441   -7.1430    0.0000 O   0  0  0  0  0  0  0  0  0  0  0  0
    8.6660   -6.3059    0.0000 C   0  0  0  0  0  0  0  0  0  0  0  0
    7.9481   -5.8995    0.0000 C   0  0  0  0  0  0  0  0  0  0  0  0
    7.2371   -6.3180    0.0000 C   0  0  0  0  0  0  0  0  0  0  0  0
    5.7872   -3.8553    0.0000 C   0  0  0  0  0  0  0  0  0  0  0  0
    5.0692   -3.4489    0.0000 C   0  0  0  0  0  0  0  0  0  0  0  0
    5.0622   -2.6239    0.0000 C   0  0  0  0  0  0  0  0  0  0  0  0
    5.7731   -2.2053    0.0000 C   0  0  0  0  0  0  0  0  0  0  0  0
    4.3442   -2.2175    0.0000 C   0  0  0  0  0  0  0  0  0  0  0  0
 18  7  1  0  0  0  0
  4  1  1  0  0  0  0
  7  2  2  0  0  0  0
  3  2  1  0  0  0  0
  4  3  2  0  0  0  0
  5  4  1  0  0  0  0
  6  5  2  0  0  0  0
  7  6  1  0  0  0  0
 20 16  1  0  0  0  0
 15  8  1  0  0  0  0
 13  9  1  0  0  0  0
 11 10  1  0  0  0  0
 16 11  2  0  0  0  0
 12 11  1  0  0  0  0
 13 12  2  0  0  0  0
 14 13  1  0  0  0  0
 15 14  2  0  0  0  0
 16 15  1  0  0  0  0
 20 17  2  0  0  0  0
 19 18  2  0  0  0  0
 20 19  1  0  0  0  0
 12 21  1  0  0  0  0
 21 22  1  0  0  0  0
 22 23  2  0  0  0  0
 23 24  1  0  0  0  0
 23 25  1  0  0  0  0
M  END
>  <cdx:fragmentId>
20417

$$$$
