301307.cdx
  Mrv1902 05222410262D          

 27 29  0  0  0  0            999 V2000
    4.3594   -6.9850    0.0000 C   0  0  0  0  0  0  0  0  0  0  0  0
    5.1844   -6.9824    0.0000 C   0  0  0  0  0  0  0  0  0  0  0  0
    3.9447   -6.2718    0.0000 O   0  0  0  0  0  0  0  0  0  0  0  0
    3.9491   -7.7007    0.0000 O   0  0  0  0  0  0  0  0  0  0  0  0
    5.5947   -6.2667    0.0000 O   0  0  0  0  0  0  0  0  0  0  0  0
    5.5991   -7.6956    0.0000 O   0  0  0  0  0  0  0  0  0  0  0  0
    6.4241   -7.6931    0.0000 C   0  0  0  0  0  0  0  0  0  0  0  0
    7.9360   -7.0635    0.0000 O   0  0  0  0  0  0  0  0  0  0  0  0
    8.1816   -7.8511    0.0000 C   0  0  1  0  0  0  0  0  0  0  0  0
    9.0065   -7.8609    0.0000 C   0  0  2  0  0  0  0  0  0  0  0  0
    9.2707   -7.0794    0.0000 C   0  0  0  0  0  0  0  0  0  0  0  0
    8.6091   -6.5866    0.0000 C   0  0  0  0  0  0  0  0  0  0  0  0
    6.8388   -8.4063    0.0000 C   0  0  0  0  0  0  0  0  0  0  0  0
    6.5056   -9.1610    0.0000 C   0  0  0  0  0  0  0  0  0  0  0  0
    7.1204   -9.7111    0.0000 C   0  0  0  0  0  0  0  0  0  0  0  0
    7.8336   -9.2964    0.0000 C   0  0  0  0  0  0  0  0  0  0  0  0
    8.5726   -9.6632    0.0000 C   0  0  0  0  0  0  0  0  0  0  0  0
    9.3201   -9.3141    0.0000 C   0  0  0  0  0  0  0  0  0  0  0  0
    9.5132   -8.5120    0.0000 C   0  0  0  0  0  0  0  0  0  0  0  0
    7.6596   -8.4900    0.0000 C   0  0  1  0  0  0  0  0  0  0  0  0
    7.0367  -10.5319    0.0000 O   0  0  0  0  0  0  0  0  0  0  0  0
    8.6189   -5.7616    0.0000 O   0  0  0  0  0  0  0  0  0  0  0  0
   10.0583   -6.8338    0.0000 C   0  0  0  0  0  0  0  0  0  0  0  0
    8.5628  -10.4881    0.0000 C   0  0  0  0  0  0  0  0  0  0  0  0
    9.8129   -7.6869    0.0000 H   0  0  0  0  0  0  0  0  0  0  0  0
    7.4855   -7.6835    0.0000 H   0  0  0  0  0  0  0  0  0  0  0  0
    8.3556   -8.6576    0.0000 H   0  0  0  0  0  0  0  0  0  0  0  0
  1  2  1  0  0  0  0
  1  3  2  0  0  0  0
  1  4  1  0  0  0  0
  2  5  2  0  0  0  0
  6  7  1  0  0  0  0
  8  9  1  0  0  0  0
  9 10  1  0  0  0  0
 10 11  1  0  0  0  0
 11 12  1  0  0  0  0
  8 12  1  0  0  0  0
 13 14  2  0  0  0  0
 14 15  1  0  0  0  0
 15 16  1  0  0  0  0
 16 17  2  0  0  0  0
 17 18  1  0  0  0  0
 18 19  1  0  0  0  0
 13 20  1  0  0  0  0
 16 20  1  0  0  0  0
 20  9  1  0  0  0  0
 19 10  1  0  0  0  0
 15 21  2  0  0  0  0
 12 22  2  0  0  0  0
 11 23  2  0  0  0  0
 17 24  1  0  0  0  0
  7 13  1  0  0  0  0
  2  6  1  0  0  0  0
 10 25  1  1  0  0  0
 20 26  1  1  0  0  0
  9 27  1  6  0  0  0
M  END
>  <cdx:fragmentId>
127

$$$$
