301352.cdx
  Mrv1902 05222410212D          

 39 42  0  0  0  0            999 V2000
   10.3713   -3.9643    0.0000 C   0  0  0  0  0  0  0  0  0  0  0  0
   10.1164   -4.7489    0.0000 C   0  0  0  0  0  0  0  0  0  0  0  0
    9.3094   -4.9205    0.0000 C   0  0  0  0  0  0  0  0  0  0  0  0
    9.0545   -5.7051    0.0000 C   0  0  0  0  0  0  0  0  0  0  0  0
    8.2475   -5.8766    0.0000 C   0  0  0  0  0  0  0  0  0  0  0  0
    7.6954   -5.2635    0.0000 C   0  0  0  0  0  0  0  0  0  0  0  0
   11.4332   -3.0082    0.0000 O   0  0  0  0  0  0  0  0  0  0  0  0
    8.7574   -4.3074    0.0000 O   0  0  0  0  0  0  0  0  0  0  0  0
    9.8193   -3.3512    0.0000 C   0  0  0  0  0  0  0  0  0  0  0  0
    4.3500   -7.7412    0.0000 C   0  0  0  0  0  0  0  0  0  0  0  0
    3.6356   -8.1537    0.0000 C   0  0  0  0  0  0  0  0  0  0  0  0
    3.6356   -8.9787    0.0000 C   0  0  0  0  0  0  0  0  0  0  0  0
    4.3500   -9.3912    0.0000 C   0  0  0  0  0  0  0  0  0  0  0  0
    5.0645   -8.9787    0.0000 C   0  0  2  0  0  0  0  0  0  0  0  0
    5.7790   -9.3912    0.0000 C   0  0  0  0  0  0  0  0  0  0  0  0
    6.4935   -8.9787    0.0000 C   0  0  0  0  0  0  0  0  0  0  0  0
    6.4935   -8.1537    0.0000 C   0  0  0  0  0  0  0  0  0  0  0  0
    7.2079   -7.7412    0.0000 C   0  0  2  0  0  0  0  0  0  0  0  0
    7.9925   -7.9961    0.0000 C   0  0  2  0  0  0  0  0  0  0  0  0
    8.4775   -7.3287    0.0000 C   0  0  0  0  0  0  0  0  0  0  0  0
    7.9925   -6.6612    0.0000 C   0  0  1  0  0  0  0  0  0  0  0  0
    7.2079   -6.9162    0.0000 C   0  0  1  0  0  0  0  0  0  0  0  0
    6.4935   -6.5037    0.0000 C   0  0  0  0  0  0  0  0  0  0  0  0
    5.7790   -6.9162    0.0000 C   0  0  0  0  0  0  0  0  0  0  0  0
    5.7790   -7.7412    0.0000 C   0  0  0  0  0  0  0  0  0  0  0  0
    5.0645   -8.1537    0.0000 C   0  0  1  0  0  0  0  0  0  0  0  0
    5.0645   -6.5037    0.0000 O   0  0  0  0  0  0  0  0  0  0  0  0
    7.2079   -9.3912    0.0000 O   0  0  0  0  0  0  0  0  0  0  0  0
    2.9211   -9.3912    0.0000 O   0  0  0  0  0  0  0  0  0  0  0  0
    7.2079   -8.5531    0.0000 C   0  0  0  0  0  0  0  0  0  0  0  0
    7.2079   -6.0458    0.0000 C   0  0  0  0  0  0  0  0  0  0  0  0
    5.0645   -7.3287    0.0000 C   0  0  0  0  0  0  0  0  0  0  0  0
    4.7625  -10.1057    0.0000 C   0  0  0  0  0  0  0  0  0  0  0  0
    3.9375  -10.1057    0.0000 C   0  0  0  0  0  0  0  0  0  0  0  0
    8.2475   -8.7807    0.0000 O   0  0  0  0  0  0  0  0  0  0  0  0
    5.0645   -9.8037    0.0000 H   0  0  0  0  0  0  0  0  0  0  0  0
   11.7303   -4.4059    0.0000 O   0  0  0  0  0  0  0  0  0  0  0  0
   11.1783   -3.7928    0.0000 C   0  0  0  0  0  0  0  0  0  0  0  0
    8.7772   -6.4063    0.0000 H   0  0  0  0  0  0  0  0  0  0  0  0
 38  7  1  0  0  0  0
 38 37  2  0  0  0  0
 38  1  1  0  0  0  0
  1  2  1  0  0  0  0
  2  3  1  0  0  0  0
  3  4  1  0  0  0  0
  4  5  2  0  0  0  0
  5  6  1  0  0  0  0
  3  8  2  0  0  0  0
  1  9  1  0  0  0  0
 10 11  1  0  0  0  0
 11 12  1  0  0  0  0
 12 13  1  0  0  0  0
 13 14  1  0  0  0  0
 14 15  1  0  0  0  0
 15 16  1  0  0  0  0
 16 17  1  0  0  0  0
 17 18  1  0  0  0  0
 18 19  1  0  0  0  0
 19 20  1  0  0  0  0
 20 21  1  0  0  0  0
 21 22  1  0  0  0  0
 18 22  1  0  0  0  0
 22 23  1  0  0  0  0
 23 24  1  0  0  0  0
 24 25  1  0  0  0  0
 17 25  2  0  0  0  0
 25 26  1  0  0  0  0
 14 26  1  0  0  0  0
 10 26  1  0  0  0  0
 24 27  2  0  0  0  0
 16 28  2  0  0  0  0
 12 29  2  0  0  0  0
 18 30  1  6  0  0  0
 22 31  1  1  0  0  0
 26 32  1  1  0  0  0
 13 33  1  0  0  0  0
 13 34  1  0  0  0  0
 19 35  1  6  0  0  0
 21  5  1  0  0  0  0
 14 36  1  6  0  0  0
 21 39  1  6  0  0  0
M  END
>  <cdx:groupId>
4012

>  <cdx:fragmentId>
3920

$$$$
