301345.cdx
  Mrv1902 05222410202D          

 21 23  0  0  0  0            999 V2000
    5.6471  -10.0523    0.0000 O   0  0  0  0  0  0  0  0  0  0  0  0
    4.2182   -7.5773    0.0000 O   0  0  0  0  0  0  0  0  0  0  0  0
    9.2195   -8.8148    0.0000 C   0  0  0  0  0  0  0  0  0  0  0  0
    8.5050   -9.2273    0.0000 O   0  0  0  0  0  0  0  0  0  0  0  0
    8.5050   -6.7523    0.0000 C   0  0  0  0  0  0  0  0  0  0  0  0
    9.2195   -6.3398    0.0000 C   0  0  0  0  0  0  0  0  0  0  0  0
    9.9339   -6.7523    0.0000 C   0  0  0  0  0  0  0  0  0  0  0  0
    9.9339   -7.5773    0.0000 C   0  0  0  0  0  0  0  0  0  0  0  0
    9.2195   -7.9898    0.0000 C   0  0  0  0  0  0  0  0  0  0  0  0
    8.5050   -7.5773    0.0000 C   0  0  0  0  0  0  0  0  0  0  0  0
    7.0760  -10.0523    0.0000 O   0  0  0  0  0  0  0  0  0  0  0  0
    7.0760   -7.5773    0.0000 O   0  0  0  0  0  0  0  0  0  0  0  0
    6.3616   -7.9898    0.0000 C   0  0  0  0  0  0  0  0  0  0  0  0
    5.6471   -7.5773    0.0000 C   0  0  0  0  0  0  0  0  0  0  0  0
    4.9326   -7.9898    0.0000 C   0  0  0  0  0  0  0  0  0  0  0  0
    4.9326   -8.8148    0.0000 C   0  0  0  0  0  0  0  0  0  0  0  0
    5.6471   -9.2273    0.0000 C   0  0  0  0  0  0  0  0  0  0  0  0
    6.3616   -8.8148    0.0000 C   0  0  0  0  0  0  0  0  0  0  0  0
    7.0760   -9.2273    0.0000 C   0  0  0  0  0  0  0  0  0  0  0  0
    7.7905   -8.8148    0.0000 C   0  0  0  0  0  0  0  0  0  0  0  0
    7.7905   -7.9898    0.0000 C   0  0  0  0  0  0  0  0  0  0  0  0
 17  1  1  0  0  0  0
 15  2  1  0  0  0  0
 20  4  1  0  0  0  0
  4  3  1  0  0  0  0
 21 10  1  0  0  0  0
 10  5  2  0  0  0  0
  6  5  1  0  0  0  0
  7  6  2  0  0  0  0
  8  7  1  0  0  0  0
  9  8  2  0  0  0  0
 10  9  1  0  0  0  0
 19 11  2  0  0  0  0
 21 12  1  0  0  0  0
 13 12  1  0  0  0  0
 18 13  2  0  0  0  0
 14 13  1  0  0  0  0
 15 14  2  0  0  0  0
 16 15  1  0  0  0  0
 17 16  2  0  0  0  0
 18 17  1  0  0  0  0
 19 18  1  0  0  0  0
 20 19  1  0  0  0  0
 21 20  2  0  0  0  0
M  END
>  <cdx:fragmentId>
3279

$$$$
