301376.cdx
  Mrv1902 05222410242D          

 28 31  0  0  0  0            999 V2000
    8.1007   -8.7342    0.0000 C   0  0  0  0  0  0  0  0  0  0  0  0
    7.3810   -8.3310    0.0000 O   0  0  0  0  0  0  0  0  0  0  0  0
    8.1114   -9.5591    0.0000 O   0  0  0  0  0  0  0  0  0  0  0  0
    7.3596   -6.6811    0.0000 H   0  0  0  0  0  0  0  0  0  0  0  0
    7.4023   -9.9808    0.0000 C   0  0  0  0  0  0  0  0  0  0  0  0
   10.2386   -8.2939    0.0000 C   0  0  0  0  0  0  0  0  0  0  0  0
   10.2279   -7.4690    0.0000 C   0  0  0  0  0  0  0  0  0  0  0  0
    6.0741   -5.4601    0.0000 C   0  0  0  0  0  0  0  0  0  0  0  0
    5.2526   -5.3845    0.0000 C   0  0  0  0  0  0  0  0  0  0  0  0
    4.9073   -4.6353    0.0000 C   0  0  0  0  0  0  0  0  0  0  0  0
    5.3836   -3.9616    0.0000 C   0  0  0  0  0  0  0  0  0  0  0  0
    6.2051   -4.0372    0.0000 C   0  0  0  0  0  0  0  0  0  0  0  0
    6.5504   -4.7865    0.0000 C   0  0  0  0  0  0  0  0  0  0  0  0
    6.5677   -6.1212    0.0000 N   0  0  0  0  0  0  0  0  0  0  0  0
    8.0687   -6.2594    0.0000 C   0  0  2  0  0  0  0  0  0  0  0  0
    8.0794   -7.0843    0.0000 C   0  0  0  0  0  0  0  0  0  0  0  0
    8.7991   -7.4875    0.0000 C   0  0  1  0  0  0  0  0  0  0  0  0
    9.5082   -7.0658    0.0000 C   0  0  0  0  0  0  0  0  0  0  0  0
    9.4975   -6.2409    0.0000 C   0  0  0  0  0  0  0  0  0  0  0  0
    8.7777   -5.8377    0.0000 N   0  0  0  0  0  0  0  0  0  0  0  0
    8.7671   -5.0127    0.0000 C   0  0  0  0  0  0  0  0  0  0  0  0
    8.0473   -4.6095    0.0000 C   0  0  0  0  0  0  0  0  0  0  0  0
    7.3382   -5.0312    0.0000 C   0  0  0  0  0  0  0  0  0  0  0  0
    7.3489   -5.8562    0.0000 C   0  0  0  0  0  0  0  0  0  0  0  0
    9.5402   -9.5406    0.0000 O   0  0  0  0  0  0  0  0  0  0  0  0
    9.5295   -8.7157    0.0000 C   0  0  0  0  0  0  0  0  0  0  0  0
    8.8098   -8.3125    0.0000 C   0  0  0  0  0  0  0  0  0  0  0  0
    8.0846   -7.9000    0.0000 H   0  0  0  0  0  0  0  0  0  0  0  0
 15  4  1  6  0  0  0
 27 17  1  0  0  0  0
 18  7  2  0  0  0  0
  7  6  1  0  0  0  0
 13 23  1  0  0  0  0
 14 24  1  0  0  0  0
 13  8  2  0  0  0  0
 14  8  1  0  0  0  0
  9  8  1  0  0  0  0
 10  9  2  0  0  0  0
 11 10  1  0  0  0  0
 12 11  2  0  0  0  0
 13 12  1  0  0  0  0
 24 15  1  0  0  0  0
 20 15  1  0  0  0  0
 16 15  1  0  0  0  0
 17 16  1  0  0  0  0
 18 17  1  0  0  0  0
 19 18  1  0  0  0  0
 20 19  1  0  0  0  0
 21 20  1  0  0  0  0
 22 21  1  0  0  0  0
 23 22  1  0  0  0  0
 24 23  2  0  0  0  0
 26 25  2  0  0  0  0
 27 26  1  0  0  0  0
  1 27  1  0  0  0  0
  1  2  2  0  0  0  0
  1  3  1  0  0  0  0
  3  5  1  0  0  0  0
 17 28  1  6  0  0  0
M  END
>  <cdx:fragmentId>
5728

$$$$
