301318.cdx
  Mrv1902 05222410192D          

 18 17  0  0  0  0            999 V2000
   12.0814   -6.3188    0.0000 C   0  0  0  0  0  0  0  0  0  0  0  0
   11.3670   -6.7313    0.0000 C   0  0  0  0  0  0  0  0  0  0  0  0
   10.6525   -6.3188    0.0000 C   0  0  0  0  0  0  0  0  0  0  0  0
    9.9380   -6.7313    0.0000 C   0  0  0  0  0  0  0  0  0  0  0  0
    9.2236   -6.3188    0.0000 C   0  0  0  0  0  0  0  0  0  0  0  0
    8.5091   -6.7313    0.0000 C   0  0  0  0  0  0  0  0  0  0  0  0
    7.7946   -6.3188    0.0000 C   0  0  0  0  0  0  0  0  0  0  0  0
    7.0801   -6.7313    0.0000 C   0  0  0  0  0  0  0  0  0  0  0  0
    6.3657   -6.3188    0.0000 C   0  0  0  0  0  0  0  0  0  0  0  0
    5.6512   -6.7313    0.0000 C   0  0  0  0  0  0  0  0  0  0  0  0
    4.9367   -6.3188    0.0000 C   0  0  0  0  0  0  0  0  0  0  0  0
    4.2223   -6.7313    0.0000 C   0  0  0  0  0  0  0  0  0  0  0  0
    3.5078   -6.3188    0.0000 C   0  0  0  0  0  0  0  0  0  0  0  0
    2.7933   -6.7313    0.0000 C   0  0  0  0  0  0  0  0  0  0  0  0
   10.2400   -5.6043    0.0000 O   0  0  0  0  0  0  0  0  0  0  0  0
    3.5078   -5.4938    0.0000 C   0  0  0  0  0  0  0  0  0  0  0  0
    7.7946   -5.4938    0.0000 C   0  0  0  0  0  0  0  0  0  0  0  0
   11.0650   -5.6043    0.0000 C   0  0  0  0  0  0  0  0  0  0  0  0
  1  2  2  0  0  0  0
  2  3  1  0  0  0  0
  3  4  1  0  0  0  0
  4  5  1  0  0  0  0
  5  6  1  0  0  0  0
  6  7  2  0  0  0  0
  7  8  1  0  0  0  0
  8  9  1  0  0  0  0
  9 10  1  0  0  0  0
 10 11  1  0  0  0  0
 11 12  2  0  0  0  0
 12 13  1  0  0  0  0
 13 14  2  0  0  0  0
  3 15  1  0  0  0  0
 13 16  1  0  0  0  0
  7 17  1  0  0  0  0
  3 18  1  0  0  0  0
M  END
>  <cdx:groupId>
1895

>  <cdx:fragmentId>
1845

$$$$
