301319.cdx
  Mrv1902 05222410182D          

 37 40  0  0  0  0            999 V2000
   14.1920  -11.4611    0.0000 C   0  0  0  0  0  0  0  0  0  0  0  0
   14.9064  -11.0486    0.0000 C   0  0  0  0  0  0  0  0  0  0  0  0
   14.9064  -10.2236    0.0000 C   0  0  0  0  0  0  0  0  0  0  0  0
   14.1920   -9.8111    0.0000 C   0  0  0  0  0  0  0  0  0  0  0  0
   13.4775  -10.2236    0.0000 C   0  0  0  0  0  0  0  0  0  0  0  0
   13.4775  -11.0486    0.0000 C   0  0  0  0  0  0  0  0  0  0  0  0
   15.6209  -11.4611    0.0000 O   0  0  0  0  0  0  0  0  0  0  0  0
   16.3354  -11.0486    0.0000 C   0  0  0  0  0  0  0  0  0  0  0  0
   16.3354  -10.2236    0.0000 C   0  0  0  0  0  0  0  0  0  0  0  0
   15.6209   -9.8111    0.0000 C   0  0  0  0  0  0  0  0  0  0  0  0
   17.0499  -11.4611    0.0000 O   0  0  0  0  0  0  0  0  0  0  0  0
   12.7630   -9.8111    0.0000 O   0  0  0  0  0  0  0  0  0  0  0  0
   12.0510   -9.4000    0.0000 C   0  0  0  0  0  0  0  0  0  0  0  0
   12.7630  -11.4611    0.0000 O   0  0  0  0  0  0  0  0  0  0  0  0
   14.1920  -12.2861    0.0000 O   0  0  0  0  0  0  0  0  0  0  0  0
   11.5118  -12.4272    0.0000 C   0  0  0  0  0  0  0  0  0  0  0  0
   11.9006  -13.1549    0.0000 C   0  0  0  0  0  0  0  0  0  0  0  0
   12.7052  -12.9722    0.0000 C   0  0  0  0  0  0  0  0  0  0  0  0
   13.4911  -13.2072    0.0000 C   0  0  0  0  0  0  0  0  0  0  0  0
   13.1024  -12.4796    0.0000 O   0  0  0  0  0  0  0  0  0  0  0  0
   12.2978  -12.6622    0.0000 C   0  0  0  0  0  0  0  0  0  0  0  0
   10.7670  -12.7819    0.0000 O   0  0  0  0  0  0  0  0  0  0  0  0
   11.0893  -13.3047    0.0000 O   0  0  0  0  0  0  0  0  0  0  0  0
   13.2406  -13.5998    0.0000 O   0  0  0  0  0  0  0  0  0  0  0  0
   11.5833  -12.2497    0.0000 C   0  0  0  0  0  0  0  0  0  0  0  0
   11.5833  -11.4247    0.0000 O   0  0  0  0  0  0  0  0  0  0  0  0
    8.6759  -10.8804    0.0000 C   0  0  0  0  0  0  0  0  0  0  0  0
    9.0647  -11.6080    0.0000 C   0  0  0  0  0  0  0  0  0  0  0  0
    9.8692  -11.4253    0.0000 C   0  0  0  0  0  0  0  0  0  0  0  0
   10.6551  -11.6604    0.0000 C   0  0  0  0  0  0  0  0  0  0  0  0
   10.2664  -10.9327    0.0000 O   0  0  0  0  0  0  0  0  0  0  0  0
    9.4618  -11.1154    0.0000 C   0  0  0  0  0  0  0  0  0  0  0  0
    7.9311  -11.2351    0.0000 O   0  0  0  0  0  0  0  0  0  0  0  0
    8.2534  -11.7579    0.0000 O   0  0  0  0  0  0  0  0  0  0  0  0
   10.4046  -12.0530    0.0000 O   0  0  0  0  0  0  0  0  0  0  0  0
    8.9914  -10.4376    0.0000 C   0  0  0  0  0  0  0  0  0  0  0  0
    9.1379   -9.6258    0.0000 O   0  0  0  0  0  0  0  0  0  0  0  0
  1  2  2  0  0  0  0
  2  3  1  0  0  0  0
  3  4  2  0  0  0  0
  4  5  1  0  0  0  0
  5  6  2  0  0  0  0
  6  1  1  0  0  0  0
  2  7  1  0  0  0  0
  7  8  1  0  0  0  0
  8  9  1  0  0  0  0
  9 10  2  0  0  0  0
 10  3  1  0  0  0  0
  8 11  2  0  0  0  0
  5 12  1  0  0  0  0
  6 14  1  0  0  0  0
  1 15  1  0  0  0  0
 16 17  1  0  0  0  0
 17 18  1  0  0  0  0
 18 19  1  0  0  0  0
 19 20  1  0  0  0  0
 20 21  1  0  0  0  0
 21 16  1  0  0  0  0
 16 22  1  0  0  0  0
 17 23  1  0  0  0  0
 18 24  1  0  0  0  0
 19 15  1  0  0  0  0
 21 25  1  0  0  0  0
 25 26  1  0  0  0  0
 27 28  1  0  0  0  0
 28 29  1  0  0  0  0
 29 30  1  0  0  0  0
 30 31  1  0  0  0  0
 31 32  1  0  0  0  0
 32 27  1  0  0  0  0
 27 33  1  0  0  0  0
 28 34  1  0  0  0  0
 29 35  1  0  0  0  0
 32 36  1  0  0  0  0
 36 37  1  0  0  0  0
 30 26  1  0  0  0  0
 12 13  1  0  0  0  0
M  STY  1   1 SUP
M  SAL   1  2  12  13
M  SBL   1  1  13
M  SMT   1 OCH3
M  SAP   1  1  12   5  1
M  END
>  <cdx:fragmentId>
9284

$$$$
