301323.cdx
  Mrv1902 05222410202D          

 10  9  0  0  0  0            999 V2000
    8.1469   -7.8018    0.0000 C   0  0  0  0  0  0  0  0  0  0  0  0
    8.8614   -7.3893    0.0000 O   0  0  0  0  0  0  0  0  0  0  0  0
    7.4325   -7.3893    0.0000 O   0  0  0  0  0  0  0  0  0  0  0  0
    6.7180   -8.6268    0.0000 C   0  0  0  0  0  0  0  0  0  0  0  0
    6.7180   -7.8018    0.0000 C   0  0  0  0  0  0  0  0  0  0  0  0
    6.0035   -7.3893    0.0000 C   0  0  0  0  0  0  0  0  0  0  0  0
    5.2890   -7.8018    0.0000 C   0  0  0  0  0  0  0  0  0  0  0  0
    4.5746   -8.2143    0.0000 C   0  0  0  0  0  0  0  0  0  0  0  0
    5.7015   -8.5163    0.0000 C   0  0  0  0  0  0  0  0  0  0  0  0
    4.8765   -7.0873    0.0000 C   0  0  0  0  0  0  0  0  0  0  0  0
  1  2  2  0  0  0  0
  1  3  1  0  0  0  0
  4  5  1  0  0  0  0
  5  6  1  0  0  0  0
  6  7  1  0  0  0  0
  7  8  1  0  0  0  0
  3  5  1  0  0  0  0
  7  9  1  0  0  0  0
  7 10  1  0  0  0  0
M  END
>  <cdx:fragmentId>
11

$$$$
