301396.cdx
  Mrv1902 05222410232D          

 46 46  0  0  0  0            999 V2000
    6.5191   -8.7698    0.0000 O   0  0  0  0  0  0  0  0  0  0  0  0
    7.3179   -8.5632    0.0000 C   0  0  0  0  0  0  0  0  0  0  0  0
    8.0686   -8.9053    0.0000 C   0  0  0  0  0  0  0  0  0  0  0  0
    8.7402   -8.4263    0.0000 N   0  0  0  0  0  0  0  0  0  0  0  0
    9.4909   -8.7684    0.0000 C   0  0  0  0  0  0  0  0  0  0  0  0
   10.1626   -8.2893    0.0000 C   0  0  0  0  0  0  0  0  0  0  0  0
   10.0835   -7.4681    0.0000 N   0  0  0  0  0  0  0  0  0  0  0  0
   10.7552   -6.9890    0.0000 C   0  0  0  0  0  0  0  0  0  0  0  0
   10.6761   -6.1678    0.0000 C   0  0  0  0  0  0  0  0  0  0  0  0
    9.9254   -5.8257    0.0000 N   0  0  0  0  0  0  0  0  0  0  0  0
    9.8463   -5.0045    0.0000 C   0  0  0  0  0  0  0  0  0  0  0  0
    9.0956   -4.6624    0.0000 C   0  0  0  0  0  0  0  0  0  0  0  0
    8.4239   -5.1415    0.0000 N   0  0  0  0  0  0  0  0  0  0  0  0
    7.6732   -4.7993    0.0000 C   0  0  0  0  0  0  0  0  0  0  0  0
    7.0016   -5.2784    0.0000 C   0  0  0  0  0  0  0  0  0  0  0  0
    7.0806   -6.0996    0.0000 N   0  0  0  0  0  0  0  0  0  0  0  0
    6.4090   -6.5787    0.0000 C   0  0  0  0  0  0  0  0  0  0  0  0
    6.4881   -7.3999    0.0000 C   0  0  0  0  0  0  0  0  0  0  0  0
    6.0401   -8.0981    0.0000 C   0  0  0  0  0  0  0  0  0  0  0  0
    7.6665   -7.8155    0.0000 O   0  0  0  0  0  0  0  0  0  0  0  0
    9.6342   -9.5809    0.0000 O   0  0  0  0  0  0  0  0  0  0  0  0
   11.5304   -7.2712    0.0000 O   0  0  0  0  0  0  0  0  0  0  0  0
   10.4783   -4.4742    0.0000 O   0  0  0  0  0  0  0  0  0  0  0  0
    7.5300   -3.9869    0.0000 O   0  0  0  0  0  0  0  0  0  0  0  0
    5.6338   -6.2965    0.0000 O   0  0  0  0  0  0  0  0  0  0  0  0
    6.2263   -4.9963    0.0000 C   0  0  0  0  0  0  0  0  0  0  0  0
    6.0831   -4.1838    0.0000 C   0  0  0  0  0  0  0  0  0  0  0  0
    6.7151   -3.6535    0.0000 C   0  0  0  0  0  0  0  0  0  0  0  0
    5.3078   -3.9016    0.0000 C   0  0  0  0  0  0  0  0  0  0  0  0
    7.3111   -7.4575    0.0000 C   0  0  0  0  0  0  0  0  0  0  0  0
    7.8559   -6.3818    0.0000 C   0  0  0  0  0  0  0  0  0  0  0  0
   11.3081   -5.6375    0.0000 C   0  0  0  0  0  0  0  0  0  0  0  0
   12.0833   -5.9197    0.0000 O   0  0  0  0  0  0  0  0  0  0  0  0
   10.9378   -8.5715    0.0000 C   0  0  0  0  0  0  0  0  0  0  0  0
   11.5698   -8.0412    0.0000 C   0  0  0  0  0  0  0  0  0  0  0  0
   11.0811   -9.3839    0.0000 O   0  0  0  0  0  0  0  0  0  0  0  0
    6.0401   -7.2731    0.0000 C   0  0  0  0  0  0  0  0  0  0  0  0
    5.3256   -6.8606    0.0000 C   0  0  0  0  0  0  0  0  0  0  0  0
    4.6111   -7.2731    0.0000 C   0  0  0  0  0  0  0  0  0  0  0  0
    3.8966   -6.8606    0.0000 C   0  0  0  0  0  0  0  0  0  0  0  0
    3.1822   -7.2731    0.0000 C   0  0  0  0  0  0  0  0  0  0  0  0
    2.4677   -6.8606    0.0000 C   0  0  0  0  0  0  0  0  0  0  0  0
    9.5843   -3.3196    0.0000 C   0  0  0  0  0  0  0  0  0  0  0  0
    8.9523   -3.8499    0.0000 C   0  0  0  0  0  0  0  0  0  0  0  0
    8.1771   -3.5677    0.0000 C   0  0  0  0  0  0  0  0  0  0  0  0
    8.0338   -2.7553    0.0000 C   0  0  0  0  0  0  0  0  0  0  0  0
  1  2  1  0  0  0  0
  2  3  1  0  0  0  0
  3  4  1  0  0  0  0
  4  5  1  0  0  0  0
  5  6  1  0  0  0  0
  6  7  1  0  0  0  0
  7  8  1  0  0  0  0
  8  9  1  0  0  0  0
  9 10  1  0  0  0  0
 10 11  1  0  0  0  0
 11 12  1  0  0  0  0
 12 13  1  0  0  0  0
 13 14  1  0  0  0  0
 14 15  1  0  0  0  0
 15 16  1  0  0  0  0
 16 17  1  0  0  0  0
 17 18  1  0  0  0  0
 18 19  1  0  0  0  0
  1 19  1  0  0  0  0
  2 20  2  0  0  0  0
  5 21  2  0  0  0  0
  8 22  2  0  0  0  0
 11 23  2  0  0  0  0
 14 24  2  0  0  0  0
 17 25  2  0  0  0  0
 26 27  1  0  0  0  0
 27 28  1  0  0  0  0
 27 29  1  0  0  0  0
 15 26  1  0  0  0  0
 18 30  1  0  0  0  0
 16 31  1  0  0  0  0
 32 33  1  0  0  0  0
  9 32  1  0  0  0  0
 34 35  1  0  0  0  0
 34 36  1  0  0  0  0
  6 34  1  0  0  0  0
 37 38  1  0  0  0  0
 38 39  1  0  0  0  0
 39 40  1  0  0  0  0
 40 41  1  0  0  0  0
 41 42  1  0  0  0  0
 19 37  1  0  0  0  0
 43 44  1  0  0  0  0
 44 45  1  0  0  0  0
 45 46  1  0  0  0  0
 12 44  1  0  0  0  0
M  END
>  <cdx:groupId>
410

>  <cdx:fragmentId>
275

$$$$
