301312.cdx
  Mrv1902 05222410262D          

 17 19  0  0  0  0            999 V2000
    8.4889   -4.7579    0.0000 C   0  0  0  0  0  0  0  0  0  0  0  0
    9.2012   -4.3418    0.0000 C   0  0  0  0  0  0  0  0  0  0  0  0
    9.9178   -4.7507    0.0000 C   0  0  0  0  0  0  0  0  0  0  0  0
    9.9219   -5.5757    0.0000 C   0  0  0  0  0  0  0  0  0  0  0  0
    9.2096   -5.9918    0.0000 C   0  0  0  0  0  0  0  0  0  0  0  0
    8.4930   -5.5829    0.0000 C   0  0  0  0  0  0  0  0  0  0  0  0
    7.0766   -8.0651    0.0000 O   0  0  0  0  0  0  0  0  0  0  0  0
    7.0641   -5.5901    0.0000 O   0  0  0  0  0  0  0  0  0  0  0  0
    6.3517   -6.0062    0.0000 C   0  0  0  0  0  0  0  0  0  0  0  0
    5.6352   -5.5973    0.0000 C   0  0  0  0  0  0  0  0  0  0  0  0
    4.9228   -6.0134    0.0000 C   0  0  0  0  0  0  0  0  0  0  0  0
    4.9269   -6.8384    0.0000 C   0  0  0  0  0  0  0  0  0  0  0  0
    5.6435   -7.2473    0.0000 C   0  0  0  0  0  0  0  0  0  0  0  0
    6.3559   -6.8312    0.0000 C   0  0  0  0  0  0  0  0  0  0  0  0
    7.0724   -7.2401    0.0000 C   0  0  0  0  0  0  0  0  0  0  0  0
    7.7848   -6.8240    0.0000 C   0  0  0  0  0  0  0  0  0  0  0  0
    7.7806   -5.9990    0.0000 C   0  0  0  0  0  0  0  0  0  0  0  0
 17  6  1  0  0  0  0
  6  1  2  0  0  0  0
  2  1  1  0  0  0  0
  3  2  2  0  0  0  0
  4  3  1  0  0  0  0
  5  4  2  0  0  0  0
  6  5  1  0  0  0  0
 15  7  2  0  0  0  0
 17  8  1  0  0  0  0
  9  8  1  0  0  0  0
 14  9  2  0  0  0  0
 10  9  1  0  0  0  0
 11 10  2  0  0  0  0
 12 11  1  0  0  0  0
 13 12  2  0  0  0  0
 14 13  1  0  0  0  0
 15 14  1  0  0  0  0
 16 15  1  0  0  0  0
 17 16  2  0  0  0  0
M  END
>  <cdx:groupId>
761

>  <cdx:fragmentId>
711

$$$$
