30131.cdx
  Mrv1902 05222410192D          

 24 26  0  0  0  0            999 V2000
    8.0534   -6.0863    0.0000 H   0  0  0  0  0  0  0  0  0  0  0  0
   10.9110   -6.8752    0.0000 O   0  0  0  0  0  0  0  0  0  0  0  0
    7.3650   -8.9826    0.0000 O   0  0  0  0  0  0  0  0  0  0  0  0
    5.9362   -9.0006    0.0000 O   0  0  0  0  0  0  0  0  0  0  0  0
    4.4761   -6.5439    0.0000 O   0  0  0  0  0  0  0  0  0  0  0  0
    3.7773   -7.7903    0.0000 C   0  0  0  0  0  0  0  0  0  0  0  0
    4.4969   -8.1937    0.0000 O   0  0  0  0  0  0  0  0  0  0  0  0
    5.9049   -6.5258    0.0000 C   0  0  0  0  0  0  0  0  0  0  0  0
    5.1957   -6.9473    0.0000 C   0  0  0  0  0  0  0  0  0  0  0  0
    5.2061   -7.7723    0.0000 C   0  0  0  0  0  0  0  0  0  0  0  0
    5.9258   -8.1757    0.0000 C   0  0  0  0  0  0  0  0  0  0  0  0
    6.6246   -6.9293    0.0000 C   0  0  0  0  0  0  0  0  0  0  0  0
    6.6350   -7.7542    0.0000 C   0  0  0  0  0  0  0  0  0  0  0  0
    7.3546   -8.1577    0.0000 C   0  0  0  0  0  0  0  0  0  0  0  0
    8.0638   -7.7362    0.0000 C   0  0  0  0  0  0  0  0  0  0  0  0
    8.0326   -5.2614    0.0000 O   0  0  0  0  0  0  0  0  0  0  0  0
    7.3338   -6.5078    0.0000 O   0  0  0  0  0  0  0  0  0  0  0  0
    8.0534   -6.9113    0.0000 C   0  0  2  0  0  0  0  0  0  0  0  0
    9.4822   -6.8932    0.0000 C   0  0  0  0  0  0  0  0  0  0  0  0
   10.1914   -6.4717    0.0000 C   0  0  0  0  0  0  0  0  0  0  0  0
   10.1810   -5.6468    0.0000 C   0  0  0  0  0  0  0  0  0  0  0  0
    9.4614   -5.2433    0.0000 C   0  0  0  0  0  0  0  0  0  0  0  0
    8.7522   -5.6648    0.0000 C   0  0  0  0  0  0  0  0  0  0  0  0
    8.7626   -6.4898    0.0000 C   0  0  0  0  0  0  0  0  0  0  0  0
 18  1  1  1  0  0  0
 20  2  1  0  0  0  0
 14  3  2  0  0  0  0
 11  4  1  0  0  0  0
  5  9  1  0  0  0  0
  7  6  1  0  0  0  0
 10  7  1  0  0  0  0
  8 12  2  0  0  0  0
  9  8  1  0  0  0  0
 10  9  2  0  0  0  0
 11 10  1  0  0  0  0
 13 11  2  0  0  0  0
 12 17  1  0  0  0  0
 13 12  1  0  0  0  0
 14 13  1  0  0  0  0
 15 14  1  0  0  0  0
 18 15  1  0  0  0  0
 16 23  1  0  0  0  0
 18 17  1  0  0  0  0
 24 18  1  0  0  0  0
 19 24  1  0  0  0  0
 20 19  2  0  0  0  0
 21 20  1  0  0  0  0
 22 21  2  0  0  0  0
 23 22  1  0  0  0  0
 24 23  2  0  0  0  0
M  END
>  <cdx:fragmentId>
5

$$$$
