301308.cdx
  Mrv1902 05222410192D          

 53 58  0  0  0  0            999 V2000
    6.8825   -3.6369    0.0000 C   0  0  0  0  0  0  0  0  0  0  0  0
    7.0577   -2.8307    0.0000 O   0  0  0  0  0  0  0  0  0  0  0  0
    7.5515   -8.5203    0.0000 C   0  0  0  0  0  0  0  0  0  0  0  0
    8.1801   -6.3384    0.0000 H   0  0  0  0  0  0  0  0  0  0  0  0
    7.8209   -6.5694    0.0000 H   0  0  0  0  0  0  0  0  0  0  0  0
    5.3554   -5.9434    0.0000 H   0  0  0  0  0  0  0  0  0  0  0  0
    6.0968   -3.8883    0.0000 C   0  0  0  0  0  0  0  0  0  0  0  0
    7.4932   -4.1917    0.0000 O   0  0  0  0  0  0  0  0  0  0  0  0
    6.4221   -7.0160    0.0000 O   0  0  0  0  0  0  0  0  0  0  0  0
    5.4025   -8.3714    0.0000 O   0  0  0  0  0  0  0  0  0  0  0  0
    3.4789   -7.1747    0.0000 C   0  0  0  0  0  0  0  0  0  0  0  0
    8.6790   -4.5624    0.0000 C   0  0  0  0  0  0  0  0  0  0  0  0
    8.9305   -5.3481    0.0000 C   0  0  0  0  0  0  0  0  0  0  0  0
    5.1509   -5.2583    0.0000 C   0  0  0  0  0  0  0  0  0  0  0  0
    4.5490   -8.6156    0.0000 O   0  0  0  0  0  0  0  0  0  0  0  0
    5.9571   -5.4334    0.0000 C   0  0  2  0  0  0  0  0  0  0  0  0
    6.5119   -4.8227    0.0000 C   0  0  0  0  0  0  0  0  0  0  0  0
    7.3181   -4.9979    0.0000 C   0  0  2  0  0  0  0  0  0  0  0  0
    8.1243   -5.1730    0.0000 C   0  0  0  0  0  0  0  0  0  0  0  0
    7.5695   -5.7836    0.0000 C   0  0  1  0  0  0  0  0  0  0  0  0
    7.0147   -6.3942    0.0000 C   0  0  2  0  0  0  0  0  0  0  0  0
    7.3805   -7.1337    0.0000 C   0  0  0  0  0  0  0  0  0  0  0  0
    7.0304   -7.8808    0.0000 C   0  0  0  0  0  0  0  0  0  0  0  0
    6.2280   -8.0728    0.0000 C   0  0  0  0  0  0  0  0  0  0  0  0
    5.5776   -7.5652    0.0000 C   0  0  1  0  0  0  0  0  0  0  0  0
    4.7957   -7.8284    0.0000 C   0  0  0  0  0  0  0  0  0  0  0  0
    4.3038   -7.1661    0.0000 C   0  0  0  0  0  0  0  0  0  0  0  0
    4.7817   -6.4936    0.0000 C   0  0  0  0  0  0  0  0  0  0  0  0
    5.5690   -6.7402    0.0000 C   0  0  1  0  0  0  0  0  0  0  0  0
    6.2085   -6.2191    0.0000 C   0  0  2  0  0  0  0  0  0  0  0  0
    8.3659   -8.3888    0.0000 O   0  0  0  0  0  0  0  0  0  0  0  0
   10.0617  -11.2198    0.0000 O   0  0  0  0  0  0  0  0  0  0  0  0
   10.8636   -9.7778    0.0000 O   0  0  0  0  0  0  0  0  0  0  0  0
   10.0157   -8.3623    0.0000 O   0  0  0  0  0  0  0  0  0  0  0  0
    8.7899   -9.0966    0.0000 C   0  0  1  0  0  0  0  0  0  0  0  0
    9.6148   -9.0833    0.0000 C   0  0  1  0  0  0  0  0  0  0  0  0
   10.0387   -9.7910    0.0000 C   0  0  2  0  0  0  0  0  0  0  0  0
    9.6377  -10.5120    0.0000 C   0  0  1  0  0  0  0  0  0  0  0  0
    8.8129  -10.5253    0.0000 C   0  0  2  0  0  0  0  0  0  0  0  0
    8.3889   -9.8176    0.0000 O   0  0  0  0  0  0  0  0  0  0  0  0
    8.4119  -11.2463    0.0000 C   0  0  0  0  0  0  0  0  0  0  0  0
    8.4808  -15.5326    0.0000 O   0  0  0  0  0  0  0  0  0  0  0  0
   10.1306  -15.5061    0.0000 O   0  0  0  0  0  0  0  0  0  0  0  0
   10.9325  -14.0640    0.0000 O   0  0  0  0  0  0  0  0  0  0  0  0
    8.8358  -11.9541    0.0000 O   0  0  0  0  0  0  0  0  0  0  0  0
    7.6100  -12.6883    0.0000 O   0  0  0  0  0  0  0  0  0  0  0  0
    9.6837  -13.3696    0.0000 C   0  0  0  0  0  0  0  0  0  0  0  0
   10.1076  -14.0773    0.0000 C   0  0  0  0  0  0  0  0  0  0  0  0
    9.7067  -14.7983    0.0000 C   0  0  0  0  0  0  0  0  0  0  0  0
    8.8818  -14.8116    0.0000 C   0  0  0  0  0  0  0  0  0  0  0  0
    8.4579  -14.1038    0.0000 C   0  0  0  0  0  0  0  0  0  0  0  0
    8.8588  -13.3828    0.0000 C   0  0  0  0  0  0  0  0  0  0  0  0
    8.4349  -12.6751    0.0000 C   0  0  0  0  0  0  0  0  0  0  0  0
 20  4  1  6  0  0  0
 21  5  1  1  0  0  0
 29  6  1  6  0  0  0
 45 41  1  0  0  0  0
 39 41  1  1  0  0  0
 35 31  1  1  0  0  0
  3 23  1  0  0  0  0
 18  8  1  6  0  0  0
  8  1  1  0  0  0  0
 30  9  1  6  0  0  0
 25 10  1  1  0  0  0
 27 11  1  0  0  0  0
 19 12  1  0  0  0  0
 19 13  1  0  0  0  0
 16 14  1  6  0  0  0
 26 15  2  0  0  0  0
 29 25  1  0  0  0  0
 20 18  1  0  0  0  0
 30 21  1  0  0  0  0
 30 16  1  0  0  0  0
 17 16  1  0  0  0  0
 18 17  1  0  0  0  0
 19 18  1  0  0  0  0
 20 19  1  0  0  0  0
 21 20  1  0  0  0  0
 22 21  1  0  0  0  0
 23 22  2  0  0  0  0
 24 23  1  0  0  0  0
 25 24  1  0  0  0  0
 26 25  1  0  0  0  0
 27 26  1  0  0  0  0
 28 27  2  0  0  0  0
 29 28  1  0  0  0  0
 30 29  1  0  0  0  0
 38 32  1  6  0  0  0
 37 33  1  1  0  0  0
 36 34  1  6  0  0  0
 40 35  1  0  0  0  0
 36 35  1  0  0  0  0
 37 36  1  0  0  0  0
 38 37  1  0  0  0  0
 39 38  1  0  0  0  0
 40 39  1  0  0  0  0
 50 42  1  0  0  0  0
 49 43  1  0  0  0  0
 48 44  1  0  0  0  0
 53 45  1  0  0  0  0
 53 46  2  0  0  0  0
 52 47  2  0  0  0  0
 48 47  1  0  0  0  0
 49 48  2  0  0  0  0
 50 49  1  0  0  0  0
 51 50  2  0  0  0  0
 52 51  1  0  0  0  0
 53 52  1  0  0  0  0
  1  2  2  0  0  0  0
  1  7  1  0  0  0  0
 31  3  1  0  0  0  0
M  END
>  <cdx:groupId>
538

>  <cdx:fragmentId>
425

$$$$
