301317.cdx
  Mrv1902 05222410282D          

 61 66  0  0  0  0            999 V2000
   15.5786   -5.3907    0.0000 O   0  0  0  0  0  0  0  0  0  0  0  0
   16.1454   -5.9747    0.0000 C   0  0  2  0  0  0  0  0  0  0  0  0
   12.2479   -7.8393    0.0000 C   0  0  0  0  0  0  0  0  0  0  0  0
   11.5335   -8.2518    0.0000 C   0  0  0  0  0  0  0  0  0  0  0  0
   11.5335   -9.0768    0.0000 C   0  0  1  0  0  0  0  0  0  0  0  0
   12.2479   -9.4893    0.0000 C   0  0  0  0  0  0  0  0  0  0  0  0
   12.9624   -9.0768    0.0000 C   0  0  2  0  0  0  0  0  0  0  0  0
   13.6769   -9.4893    0.0000 C   0  0  2  0  0  0  0  0  0  0  0  0
   14.3913   -9.0768    0.0000 C   0  0  0  0  0  0  0  0  0  0  0  0
   14.3913   -8.2518    0.0000 C   0  0  1  0  0  0  0  0  0  0  0  0
   15.1058   -7.8393    0.0000 C   0  0  2  0  0  0  0  0  0  0  0  0
   15.8904   -8.0942    0.0000 C   0  0  0  0  0  0  0  0  0  0  0  0
   16.3754   -7.4268    0.0000 C   0  0  0  0  0  0  0  0  0  0  0  0
   15.8904   -6.7594    0.0000 C   0  0  1  0  0  0  0  0  0  0  0  0
   15.1058   -7.0143    0.0000 C   0  0  1  0  0  0  0  0  0  0  0  0
   14.3913   -6.6018    0.0000 C   0  0  1  0  0  0  0  0  0  0  0  0
   13.6769   -7.0143    0.0000 C   0  0  0  0  0  0  0  0  0  0  0  0
   13.6769   -7.8393    0.0000 C   0  0  2  0  0  0  0  0  0  0  0  0
   12.9624   -8.2518    0.0000 C   0  0  1  0  0  0  0  0  0  0  0  0
   15.1058   -8.6643    0.0000 C   0  0  0  0  0  0  0  0  0  0  0  0
   12.9624   -7.4268    0.0000 C   0  0  0  0  0  0  0  0  0  0  0  0
   14.3913   -7.4268    0.0000 C   0  0  0  0  0  0  0  0  0  0  0  0
   12.6604  -10.2038    0.0000 C   0  0  0  0  0  0  0  0  0  0  0  0
   11.8354  -10.2038    0.0000 C   0  0  0  0  0  0  0  0  0  0  0  0
   14.3913   -5.7768    0.0000 O   0  0  0  0  0  0  0  0  0  0  0  0
   10.8190   -9.4893    0.0000 O   0  0  0  0  0  0  0  0  0  0  0  0
   12.9624   -9.9018    0.0000 H   0  0  0  0  0  0  0  0  0  0  0  0
   13.6769   -8.6643    0.0000 H   0  0  0  0  0  0  0  0  0  0  0  0
   15.1921   -6.1938    0.0000 H   0  0  0  0  0  0  0  0  0  0  0  0
   16.7053   -6.6303    0.0000 H   0  0  0  0  0  0  0  0  0  0  0  0
   16.9524   -5.8032    0.0000 C   0  0  0  0  0  0  0  0  0  0  0  0
   17.5044   -6.4163    0.0000 C   0  0  0  0  0  0  0  0  0  0  0  0
   18.3114   -6.2448    0.0000 C   0  0  0  0  0  0  0  0  0  0  0  0
   18.8634   -6.8579    0.0000 C   0  0  0  0  0  0  0  0  0  0  0  0
   19.6704   -6.6864    0.0000 C   0  0  0  0  0  0  0  0  0  0  0  0
   18.6085   -7.6425    0.0000 C   0  0  0  0  0  0  0  0  0  0  0  0
   16.4003   -5.1901    0.0000 C   0  0  0  0  0  0  0  0  0  0  0  0
   13.6769  -10.3143    0.0000 O   0  0  0  0  0  0  0  0  0  0  0  0
   13.2643  -11.0288    0.0000 C   0  0  2  0  0  0  0  0  0  0  0  0
   12.4393  -11.0287    0.0000 O   0  0  0  0  0  0  0  0  0  0  0  0
   12.0268  -11.7431    0.0000 C   0  0  1  0  0  0  0  0  0  0  0  0
   12.4392  -12.4576    0.0000 C   0  0  2  0  0  0  0  0  0  0  0  0
   13.2642  -12.4577    0.0000 C   0  0  1  0  0  0  0  0  0  0  0  0
   13.6768  -11.7433    0.0000 C   0  0  1  0  0  0  0  0  0  0  0  0
   11.2018  -11.7431    0.0000 C   0  0  0  0  0  0  0  0  0  0  0  0
   13.6767  -13.1722    0.0000 O   0  0  0  0  0  0  0  0  0  0  0  0
   12.0267  -13.1721    0.0000 O   0  0  0  0  0  0  0  0  0  0  0  0
   14.5018  -11.7433    0.0000 O   0  0  0  0  0  0  0  0  0  0  0  0
   10.7892  -12.4575    0.0000 O   0  0  0  0  0  0  0  0  0  0  0  0
   14.9142  -12.4578    0.0000 C   0  0  2  0  0  0  0  0  0  0  0  0
   14.5017  -13.1723    0.0000 O   0  0  0  0  0  0  0  0  0  0  0  0
   14.9141  -13.8868    0.0000 C   0  0  2  0  0  0  0  0  0  0  0  0
   15.7391  -13.8868    0.0000 C   0  0  1  0  0  0  0  0  0  0  0  0
   16.1517  -13.1724    0.0000 C   0  0  2  0  0  0  0  0  0  0  0  0
   15.7392  -12.4579    0.0000 C   0  0  1  0  0  0  0  0  0  0  0  0
   16.1516  -14.6013    0.0000 O   0  0  0  0  0  0  0  0  0  0  0  0
   16.9767  -13.1724    0.0000 O   0  0  0  0  0  0  0  0  0  0  0  0
   14.5016  -14.6012    0.0000 C   0  0  0  0  0  0  0  0  0  0  0  0
   16.1518  -11.7434    0.0000 O   0  0  0  0  0  0  0  0  0  0  0  0
   19.4154   -7.4710    0.0000 O   0  0  0  0  0  0  0  0  0  0  0  0
   19.1605   -8.2556    0.0000 O   0  0  0  0  0  0  0  0  0  0  0  0
  3  4  1  0  0  0  0
  4  5  1  0  0  0  0
  5  6  1  0  0  0  0
  6  7  1  0  0  0  0
  7  8  1  0  0  0  0
  8  9  1  0  0  0  0
  9 10  1  0  0  0  0
 10 11  1  0  0  0  0
 11 12  1  0  0  0  0
 12 13  1  0  0  0  0
 14 13  1  0  0  0  0
 14 15  1  0  0  0  0
 11 15  1  0  0  0  0
 15 16  1  0  0  0  0
 16 17  1  0  0  0  0
 17 18  1  0  0  0  0
 10 18  1  0  0  0  0
 18 19  1  0  0  0  0
  7 19  1  0  0  0  0
  3 19  1  0  0  0  0
 11 20  1  6  0  0  0
 19 21  1  1  0  0  0
 10 22  1  1  0  0  0
  6 23  1  0  0  0  0
  6 24  1  0  0  0  0
 16 25  1  1  0  0  0
  5 26  1  1  0  0  0
  2 14  1  0  0  0  0
  7 27  1  6  0  0  0
 18 28  1  6  0  0  0
 15 29  1  1  0  0  0
 14 30  1  6  0  0  0
  2 31  1  0  0  0  0
 31 32  1  0  0  0  0
 32 33  2  0  0  0  0
 33 34  1  0  0  0  0
 34 35  1  0  0  0  0
 34 36  1  0  0  0  0
  2 37  1  6  0  0  0
  2  1  1  1  0  0  0
  8 38  1  6  0  0  0
 39 38  1  1  0  0  0
 39 40  1  0  0  0  0
 40 41  1  0  0  0  0
 41 42  1  0  0  0  0
 42 43  1  0  0  0  0
 43 44  1  0  0  0  0
 44 39  1  0  0  0  0
 41 45  1  1  0  0  0
 43 46  1  1  0  0  0
 42 47  1  6  0  0  0
 44 48  1  6  0  0  0
 45 49  1  0  0  0  0
 50 48  1  1  0  0  0
 50 51  1  0  0  0  0
 51 52  1  0  0  0  0
 52 53  1  0  0  0  0
 53 54  1  0  0  0  0
 54 55  1  0  0  0  0
 55 50  1  0  0  0  0
 53 56  1  1  0  0  0
 54 57  1  6  0  0  0
 52 58  1  6  0  0  0
 55 59  1  6  0  0  0
 34 60  1  0  0  0  0
 60 61  1  0  0  0  0
M  END
>  <cdx:fragmentId>
31943

$$$$
