301359.cdx
  Mrv1902 05222410232D          

 33 34  0  0  0  0            999 V2000
    8.1955   -7.7275    0.0000 C   0  0  2  0  0  0  0  0  0  0  0  0
    8.1955   -8.5525    0.0000 C   0  0  2  0  0  0  0  0  0  0  0  0
    8.9100   -8.9650    0.0000 C   0  0  1  0  0  0  0  0  0  0  0  0
    9.6245   -8.5525    0.0000 C   0  0  2  0  0  0  0  0  0  0  0  0
    9.6245   -7.7275    0.0000 C   0  0  1  0  0  0  0  0  0  0  0  0
    8.9100   -7.3150    0.0000 O   0  0  0  0  0  0  0  0  0  0  0  0
   10.3389   -7.3150    0.0000 O   0  0  0  0  0  0  0  0  0  0  0  0
    7.4811   -7.3150    0.0000 C   0  0  0  0  0  0  0  0  0  0  0  0
    8.9100   -9.7900    0.0000 O   0  0  0  0  0  0  0  0  0  0  0  0
   10.3389   -8.9650    0.0000 O   0  0  0  0  0  0  0  0  0  0  0  0
    7.4811   -8.9650    0.0000 O   0  0  0  0  0  0  0  0  0  0  0  0
    6.7666   -7.7275    0.0000 O   0  0  0  0  0  0  0  0  0  0  0  0
   10.3389   -6.4900    0.0000 C   0  0  0  0  0  0  0  0  0  0  0  0
   10.3389   -5.6650    0.0000 C   0  0  0  0  0  0  0  0  0  0  0  0
   11.1639   -6.4900    0.0000 C   0  0  0  0  0  0  0  0  0  0  0  0
    9.5139   -6.4900    0.0000 C   0  0  0  0  0  0  0  0  0  0  0  0
   11.5764   -5.7755    0.0000 O   0  0  0  0  0  0  0  0  0  0  0  0
   11.5764   -7.2045    0.0000 O   0  0  0  0  0  0  0  0  0  0  0  0
    6.0521   -7.3150    0.0000 C   0  0  0  0  0  0  0  0  0  0  0  0
    5.3376   -7.7275    0.0000 C   0  0  0  0  0  0  0  0  0  0  0  0
    6.0521   -6.4900    0.0000 O   0  0  0  0  0  0  0  0  0  0  0  0
    4.6232   -7.3150    0.0000 C   0  0  0  0  0  0  0  0  0  0  0  0
    3.9087   -7.7275    0.0000 C   0  0  1  0  0  0  0  0  0  0  0  0
    3.1942   -7.3150    0.0000 C   0  0  0  0  0  0  0  0  0  0  0  0
    3.2413   -8.2124    0.0000 C   0  0  2  0  0  0  0  0  0  0  0  0
    3.4962   -8.9970    0.0000 C   0  0  0  0  0  0  0  0  0  0  0  0
    4.3212   -8.9970    0.0000 C   0  0  0  0  0  0  0  0  0  0  0  0
    4.5761   -8.2124    0.0000 O   0  0  0  0  0  0  0  0  0  0  0  0
    4.8061   -9.6645    0.0000 O   0  0  0  0  0  0  0  0  0  0  0  0
    2.4566   -7.9575    0.0000 C   0  0  0  0  0  0  0  0  0  0  0  0
    2.2431   -8.7544    0.0000 C   0  0  0  0  0  0  0  0  0  0  0  0
    2.6702   -7.1606    0.0000 C   0  0  0  0  0  0  0  0  0  0  0  0
    1.6720   -7.7025    0.0000 O   0  0  0  0  0  0  0  0  0  0  0  0
  1  2  1  0  0  0  0
  2  3  1  0  0  0  0
  3  4  1  0  0  0  0
  4  5  1  0  0  0  0
  5  6  1  0  0  0  0
  6  1  1  0  0  0  0
  5  7  1  1  0  0  0
  1  8  1  1  0  0  0
  3  9  1  1  0  0  0
  4 10  1  6  0  0  0
  2 11  1  6  0  0  0
  8 12  1  0  0  0  0
  7 13  1  0  0  0  0
 13 14  1  0  0  0  0
 13 15  1  0  0  0  0
 13 16  1  0  0  0  0
 15 17  2  0  0  0  0
 15 18  1  0  0  0  0
 12 19  1  0  0  0  0
 19 20  1  0  0  0  0
 19 21  2  0  0  0  0
 20 22  1  0  0  0  0
 23 22  1  6  0  0  0
 23 24  1  1  0  0  0
 23 25  1  0  0  0  0
 25 26  1  0  0  0  0
 26 27  1  0  0  0  0
 27 28  1  0  0  0  0
 28 23  1  0  0  0  0
 27 29  2  0  0  0  0
 25 30  1  6  0  0  0
 30 31  1  0  0  0  0
 30 32  1  0  0  0  0
 30 33  1  0  0  0  0
M  END
>  <cdx:fragmentId>
290

$$$$
