301347.cdx
  Mrv1902 05222410212D          

 28 30  0  0  0  0            999 V2000
    9.7637   -9.3328    0.0000 C   0  0  0  0  0  0  0  0  0  0  0  0
   10.4786   -8.9209    0.0000 C   0  0  0  0  0  0  0  0  0  0  0  0
    9.7630  -10.1578    0.0000 O   0  0  0  0  0  0  0  0  0  0  0  0
    9.0496   -8.9197    0.0000 O   0  0  0  0  0  0  0  0  0  0  0  0
    7.6207   -8.9185    0.0000 C   0  0  2  0  0  0  0  0  0  0  0  0
    8.3348   -9.3316    0.0000 C   0  0  2  0  0  0  0  0  0  0  0  0
    8.3341  -10.1566    0.0000 C   0  0  0  0  0  0  0  0  0  0  0  0
    7.6193  -10.5685    0.0000 C   0  0  0  0  0  0  0  0  0  0  0  0
    6.9051  -10.1554    0.0000 C   0  0  1  0  0  0  0  0  0  0  0  0
    6.1903  -10.5673    0.0000 C   0  0  0  0  0  0  0  0  0  0  0  0
    5.4762  -10.1541    0.0000 C   0  0  0  0  0  0  0  0  0  0  0  0
    5.4769   -9.3291    0.0000 C   0  0  0  0  0  0  0  0  0  0  0  0
    6.1917   -8.9173    0.0000 C   0  0  0  0  0  0  0  0  0  0  0  0
    6.9059   -9.3304    0.0000 C   0  0  2  0  0  0  0  0  0  0  0  0
    9.0482  -10.5697    0.0000 O   0  0  0  0  0  0  0  0  0  0  0  0
    6.9066   -8.5054    0.0000 C   0  0  0  0  0  0  0  0  0  0  0  0
    6.6022  -11.2821    0.0000 C   0  0  0  0  0  0  0  0  0  0  0  0
    5.7772  -11.2814    0.0000 C   0  0  0  0  0  0  0  0  0  0  0  0
    9.0745   -9.5305    0.0000 C   0  0  0  0  0  0  0  0  0  0  0  0
    8.3898   -8.4745    0.0000 O   0  0  0  0  0  0  0  0  0  0  0  0
    7.6213   -8.0935    0.0000 C   0  0  0  0  0  0  0  0  0  0  0  0
    8.3361   -7.6815    0.0000 C   0  0  0  0  0  0  0  0  0  0  0  0
    8.7502   -5.5873    0.0000 O   0  0  0  0  0  0  0  0  0  0  0  0
    9.0045   -6.3721    0.0000 C   0  0  0  0  0  0  0  0  0  0  0  0
    8.3367   -6.8565    0.0000 C   0  0  0  0  0  0  0  0  0  0  0  0
    7.6697   -6.3711    0.0000 C   0  0  0  0  0  0  0  0  0  0  0  0
    7.9252   -5.5867    0.0000 C   0  0  0  0  0  0  0  0  0  0  0  0
    6.9044  -10.9804    0.0000 H   0  0  0  0  0  0  0  0  0  0  0  0
  1  2  1  0  0  0  0
  1  3  2  0  0  0  0
  1  4  1  0  0  0  0
  5  6  1  0  0  0  0
  6  7  1  0  0  0  0
  7  8  1  0  0  0  0
  8  9  1  0  0  0  0
  9 10  1  0  0  0  0
 10 11  1  0  0  0  0
 11 12  1  0  0  0  0
 12 13  1  0  0  0  0
 13 14  1  0  0  0  0
  5 14  1  0  0  0  0
  9 14  1  0  0  0  0
  7 15  2  0  0  0  0
 14 16  1  1  0  0  0
 10 17  1  0  0  0  0
 10 18  1  0  0  0  0
  6 19  1  0  0  0  0
  5 20  1  6  0  0  0
 21 22  1  0  0  0  0
 23 24  1  0  0  0  0
 24 25  2  0  0  0  0
 25 26  1  0  0  0  0
 26 27  2  0  0  0  0
 23 27  1  0  0  0  0
 22 25  1  0  0  0  0
  5 21  1  0  0  0  0
  6  4  1  1  0  0  0
  9 28  1  6  0  0  0
M  END
>  <cdx:groupId>
3534

>  <cdx:fragmentId>
3462

$$$$
