301364.cdx
  Mrv1902 05222410232D          

 39 42  0  0  0  0            999 V2000
   11.0356   -3.9643    0.0000 C   0  0  0  0  0  0  0  0  0  0  0  0
   10.7806   -4.7489    0.0000 C   0  0  0  0  0  0  0  0  0  0  0  0
    9.9737   -4.9205    0.0000 C   0  0  0  0  0  0  0  0  0  0  0  0
    9.7187   -5.7051    0.0000 C   0  0  0  0  0  0  0  0  0  0  0  0
    8.9118   -5.8766    0.0000 C   0  0  1  0  0  0  0  0  0  0  0  0
    8.3597   -5.2635    0.0000 C   0  0  0  0  0  0  0  0  0  0  0  0
   12.0975   -3.0082    0.0000 O   0  0  0  0  0  0  0  0  0  0  0  0
   10.4836   -3.3512    0.0000 C   0  0  0  0  0  0  0  0  0  0  0  0
    5.0143   -7.7412    0.0000 C   0  0  0  0  0  0  0  0  0  0  0  0
    4.2998   -8.1537    0.0000 C   0  0  0  0  0  0  0  0  0  0  0  0
    4.2998   -8.9787    0.0000 C   0  0  2  0  0  0  0  0  0  0  0  0
    5.0143   -9.3912    0.0000 C   0  0  0  0  0  0  0  0  0  0  0  0
    5.7288   -8.9787    0.0000 C   0  0  2  0  0  0  0  0  0  0  0  0
    6.4433   -9.3912    0.0000 C   0  0  0  0  0  0  0  0  0  0  0  0
    7.1577   -8.9787    0.0000 C   0  0  0  0  0  0  0  0  0  0  0  0
    7.1577   -8.1537    0.0000 C   0  0  0  0  0  0  0  0  0  0  0  0
    7.8722   -7.7412    0.0000 C   0  0  2  0  0  0  0  0  0  0  0  0
    8.6568   -7.9961    0.0000 C   0  0  2  0  0  0  0  0  0  0  0  0
    9.1417   -7.3287    0.0000 C   0  0  0  0  0  0  0  0  0  0  0  0
    8.6568   -6.6612    0.0000 C   0  0  1  0  0  0  0  0  0  0  0  0
    7.8722   -6.9162    0.0000 C   0  0  1  0  0  0  0  0  0  0  0  0
    7.1577   -6.5037    0.0000 C   0  0  0  0  0  0  0  0  0  0  0  0
    6.4433   -6.9162    0.0000 C   0  0  0  0  0  0  0  0  0  0  0  0
    6.4433   -7.7412    0.0000 C   0  0  0  0  0  0  0  0  0  0  0  0
    5.7288   -8.1537    0.0000 C   0  0  1  0  0  0  0  0  0  0  0  0
    7.8722   -8.5662    0.0000 C   0  0  0  0  0  0  0  0  0  0  0  0
    7.8722   -6.0912    0.0000 C   0  0  0  0  0  0  0  0  0  0  0  0
    5.7288   -7.3287    0.0000 C   0  0  0  0  0  0  0  0  0  0  0  0
    5.4268  -10.1057    0.0000 C   0  0  0  0  0  0  0  0  0  0  0  0
    4.6018  -10.1057    0.0000 C   0  0  0  0  0  0  0  0  0  0  0  0
    8.9118   -8.7807    0.0000 O   0  0  0  0  0  0  0  0  0  0  0  0
    3.5854   -9.3912    0.0000 O   0  0  0  0  0  0  0  0  0  0  0  0
    2.8709   -8.9787    0.0000 C   0  0  0  0  0  0  0  0  0  0  0  0
    2.8709   -8.1537    0.0000 O   0  0  0  0  0  0  0  0  0  0  0  0
    2.1564   -9.3912    0.0000 C   0  0  0  0  0  0  0  0  0  0  0  0
   12.3946   -4.4059    0.0000 O   0  0  0  0  0  0  0  0  0  0  0  0
   11.8426   -3.7928    0.0000 C   0  0  0  0  0  0  0  0  0  0  0  0
    5.7288   -9.8037    0.0000 H   0  0  0  0  0  0  0  0  0  0  0  0
    9.4717   -6.5322    0.0000 H   0  0  0  0  0  0  0  0  0  0  0  0
 37  7  1  0  0  0  0
 37 36  2  0  0  0  0
 37  1  1  0  0  0  0
  1  2  2  0  0  0  0
  2  3  1  0  0  0  0
  3  4  1  0  0  0  0
  4  5  1  0  0  0  0
  5  6  1  6  0  0  0
  1  8  1  0  0  0  0
  9 10  1  0  0  0  0
 10 11  1  0  0  0  0
 11 12  1  0  0  0  0
 12 13  1  0  0  0  0
 13 14  1  0  0  0  0
 14 15  1  0  0  0  0
 15 16  2  0  0  0  0
 16 17  1  0  0  0  0
 17 18  1  0  0  0  0
 18 19  1  0  0  0  0
 19 20  1  0  0  0  0
 20 21  1  0  0  0  0
 17 21  1  0  0  0  0
 21 22  1  0  0  0  0
 22 23  1  0  0  0  0
 23 24  2  0  0  0  0
 16 24  1  0  0  0  0
 24 25  1  0  0  0  0
 13 25  1  0  0  0  0
  9 25  1  0  0  0  0
 17 26  1  6  0  0  0
 21 27  1  1  0  0  0
 25 28  1  1  0  0  0
 12 29  1  0  0  0  0
 12 30  1  0  0  0  0
 18 31  1  6  0  0  0
 33 34  2  0  0  0  0
 33 35  1  0  0  0  0
 32 33  1  0  0  0  0
 11 32  1  6  0  0  0
  5 20  1  0  0  0  0
 13 38  1  6  0  0  0
 20 39  1  6  0  0  0
M  END
>  <cdx:groupId>
4520

>  <cdx:fragmentId>
4429

$$$$
