301339.cdx
  Mrv1902 05222410272D          

 41 46  0  0  0  0            999 V2000
   10.8904   -3.6470    0.0000 O   0  0  0  0  0  0  0  0  0  0  0  0
   10.4055   -4.3144    0.0000 C   0  0  0  0  0  0  0  0  0  0  0  0
   10.8904   -4.9819    0.0000 C   0  0  0  0  0  0  0  0  0  0  0  0
   11.6750   -4.7269    0.0000 C   0  0  0  0  0  0  0  0  0  0  0  0
   11.6750   -3.9019    0.0000 C   0  0  0  0  0  0  0  0  0  0  0  0
   12.3425   -3.4170    0.0000 O   0  0  0  0  0  0  0  0  0  0  0  0
    6.9930   -6.8464    0.0000 C   0  0  0  0  0  0  0  0  0  0  0  0
    6.2785   -7.2589    0.0000 C   0  0  0  0  0  0  0  0  0  0  0  0
    6.2785   -8.0839    0.0000 C   0  0  1  0  0  0  0  0  0  0  0  0
    6.9930   -8.4964    0.0000 C   0  0  0  0  0  0  0  0  0  0  0  0
    7.7074   -8.0839    0.0000 C   0  0  1  0  0  0  0  0  0  0  0  0
    8.4219   -8.4964    0.0000 C   0  0  0  0  0  0  0  0  0  0  0  0
    9.1364   -8.0839    0.0000 C   0  0  0  0  0  0  0  0  0  0  0  0
    9.1364   -7.2589    0.0000 C   0  0  1  0  0  0  0  0  0  0  0  0
    9.8508   -6.8464    0.0000 C   0  0  1  0  0  0  0  0  0  0  0  0
   10.6355   -7.1014    0.0000 C   0  0  0  0  0  0  0  0  0  0  0  0
   11.1204   -6.4339    0.0000 C   0  0  0  0  0  0  0  0  0  0  0  0
   10.6355   -5.7665    0.0000 C   0  0  1  0  0  0  0  0  0  0  0  0
    9.8508   -6.0214    0.0000 C   0  0  1  0  0  0  0  0  0  0  0  0
    9.1364   -5.6089    0.0000 C   0  0  0  0  0  0  0  0  0  0  0  0
    8.4219   -6.0214    0.0000 C   0  0  0  0  0  0  0  0  0  0  0  0
    8.4219   -6.8464    0.0000 C   0  0  2  0  0  0  0  0  0  0  0  0
    7.7074   -7.2589    0.0000 C   0  0  1  0  0  0  0  0  0  0  0  0
    9.8508   -5.1964    0.0000 C   0  0  0  0  0  0  0  0  0  0  0  0
    7.7074   -6.4339    0.0000 C   0  0  0  0  0  0  0  0  0  0  0  0
    6.9930   -6.0214    0.0000 O   0  0  0  0  0  0  0  0  0  0  0  0
    9.8508   -7.6714    0.0000 O   0  0  0  0  0  0  0  0  0  0  0  0
    7.7074   -8.9089    0.0000 H   0  0  0  0  0  0  0  0  0  0  0  0
    9.1364   -6.4339    0.0000 H   0  0  0  0  0  0  0  0  0  0  0  0
    8.4219   -7.6714    0.0000 H   0  0  0  0  0  0  0  0  0  0  0  0
    4.1280   -9.3091    0.0000 O   0  0  0  0  0  0  0  0  0  0  0  0
    2.7062   -8.4718    0.0000 O   0  0  0  0  0  0  0  0  0  0  0  0
    2.7205   -6.8218    0.0000 O   0  0  0  0  0  0  0  0  0  0  0  0
    4.1565   -6.0092    0.0000 C   0  0  0  0  0  0  0  0  0  0  0  0
    4.1494   -6.8342    0.0000 C   0  0  2  0  0  0  0  0  0  0  0  0
    3.4314   -7.2405    0.0000 C   0  0  2  0  0  0  0  0  0  0  0  0
    3.4242   -8.0655    0.0000 C   0  0  2  0  0  0  0  0  0  0  0  0
    4.1351   -8.4841    0.0000 C   0  0  2  0  0  0  0  0  0  0  0  0
    4.8531   -8.0778    0.0000 C   0  0  0  0  0  0  0  0  0  0  0  0
    4.8603   -7.2528    0.0000 O   0  0  0  0  0  0  0  0  0  0  0  0
    5.5640   -8.4964    0.0000 O   0  0  0  0  0  0  0  0  0  0  0  0
 41 39  1  0  0  0  0
 38 31  1  6  0  0  0
 37 32  1  6  0  0  0
 36 33  1  6  0  0  0
 35 34  1  1  0  0  0
 40 35  1  0  0  0  0
 36 35  1  0  0  0  0
 37 36  1  0  0  0  0
 38 37  1  0  0  0  0
 39 38  1  0  0  0  0
 40 39  1  0  0  0  0
  1  2  1  0  0  0  0
  2  3  1  0  0  0  0
  3  4  2  0  0  0  0
  4  5  1  0  0  0  0
  1  5  1  0  0  0  0
  5  6  2  0  0  0  0
  7  8  1  0  0  0  0
  8  9  1  0  0  0  0
  9 10  1  0  0  0  0
 10 11  1  0  0  0  0
 11 12  1  0  0  0  0
 12 13  1  0  0  0  0
 13 14  1  0  0  0  0
 14 15  1  0  0  0  0
 15 16  1  0  0  0  0
 16 17  1  0  0  0  0
 17 18  1  0  0  0  0
 18 19  1  0  0  0  0
 15 19  1  0  0  0  0
 19 20  1  0  0  0  0
 20 21  1  0  0  0  0
 21 22  1  0  0  0  0
 14 22  1  0  0  0  0
 22 23  1  0  0  0  0
 11 23  1  0  0  0  0
  7 23  1  0  0  0  0
  9 41  1  1  0  0  0
 19 24  1  1  0  0  0
 25 26  1  0  0  0  0
 23 25  1  1  0  0  0
 15 27  1  1  0  0  0
 18  3  1  1  0  0  0
 11 28  1  1  0  0  0
 14 29  1  1  0  0  0
 22 30  1  6  0  0  0
M  END
>  <cdx:groupId>
2643

>  <cdx:fragmentId>
2530

$$$$
