301306.cdx
  Mrv1902 05222410262D          

 29 32  0  0  0  0            999 V2000
    6.5400   -5.5367    0.0000 C   0  0  1  0  0  0  0  0  0  0  0  0
    5.8255   -5.9492    0.0000 C   0  0  0  0  0  0  0  0  0  0  0  0
    5.1110   -5.5367    0.0000 C   0  0  0  0  0  0  0  0  0  0  0  0
    5.1110   -4.7117    0.0000 C   0  0  0  0  0  0  0  0  0  0  0  0
    5.8255   -4.2992    0.0000 C   0  0  0  0  0  0  0  0  0  0  0  0
    6.5400   -4.7117    0.0000 C   0  0  0  0  0  0  0  0  0  0  0  0
    7.1850   -4.1973    0.0000 O   0  0  0  0  0  0  0  0  0  0  0  0
    7.9893   -4.3809    0.0000 C   0  0  1  0  0  0  0  0  0  0  0  0
    8.3473   -5.1242    0.0000 C   0  0  0  0  0  0  0  0  0  0  0  0
    7.9893   -5.8675    0.0000 C   0  0  1  0  0  0  0  0  0  0  0  0
    7.1850   -6.0511    0.0000 C   0  0  1  0  0  0  0  0  0  0  0  0
    7.5972   -5.3774    0.0000 C   0  0  0  0  0  0  0  0  0  0  0  0
    4.3966   -4.2992    0.0000 O   0  0  0  0  0  0  0  0  0  0  0  0
    8.5037   -6.5125    0.0000 C   0  0  0  0  0  0  0  0  0  0  0  0
    8.2023   -7.2805    0.0000 C   0  0  0  0  0  0  0  0  0  0  0  0
    8.7167   -7.9255    0.0000 C   0  0  0  0  0  0  0  0  0  0  0  0
    9.5325   -7.8025    0.0000 C   0  0  0  0  0  0  0  0  0  0  0  0
    9.8339   -7.0346    0.0000 C   0  0  0  0  0  0  0  0  0  0  0  0
    9.3195   -6.3895    0.0000 C   0  0  0  0  0  0  0  0  0  0  0  0
   10.6496   -6.9116    0.0000 O   0  0  0  0  0  0  0  0  0  0  0  0
   11.1640   -7.5566    0.0000 C   0  0  0  0  0  0  0  0  0  0  0  0
   10.0468   -8.4475    0.0000 O   0  0  0  0  0  0  0  0  0  0  0  0
   10.8626   -8.3246    0.0000 C   0  0  0  0  0  0  0  0  0  0  0  0
    8.4153   -8.6935    0.0000 O   0  0  0  0  0  0  0  0  0  0  0  0
    7.5995   -8.8164    0.0000 C   0  0  0  0  0  0  0  0  0  0  0  0
    7.0014   -6.8554    0.0000 C   0  0  0  0  0  0  0  0  0  0  0  0
    4.3966   -5.9492    0.0000 O   0  0  0  0  0  0  0  0  0  0  0  0
    3.6821   -5.5367    0.0000 C   0  0  0  0  0  0  0  0  0  0  0  0
    8.5037   -3.7359    0.0000 H   0  0  0  0  0  0  0  0  0  0  0  0
  1  2  1  0  0  0  0
  2  3  2  0  0  0  0
  3  4  1  0  0  0  0
  4  5  1  0  0  0  0
  5  6  2  0  0  0  0
  6  7  1  0  0  0  0
  7  8  1  0  0  0  0
  8  9  1  0  0  0  0
  9 10  1  0  0  0  0
 10 11  1  0  0  0  0
  1 11  1  0  0  0  0
  1 12  1  6  0  0  0
  8 12  1  6  0  0  0
  1  6  1  0  0  0  0
  4 13  2  0  0  0  0
 14 15  1  0  0  0  0
 15 16  2  0  0  0  0
 16 17  1  0  0  0  0
 17 18  2  0  0  0  0
 18 19  1  0  0  0  0
 14 19  2  0  0  0  0
 20 21  1  0  0  0  0
 18 20  1  0  0  0  0
 22 23  1  0  0  0  0
 17 22  1  0  0  0  0
 24 25  1  0  0  0  0
 16 24  1  0  0  0  0
 10 14  1  6  0  0  0
 11 26  1  1  0  0  0
 27 28  1  0  0  0  0
  3 27  1  0  0  0  0
  8 29  1  0  0  0  0
M  END
>  <cdx:groupId>
92

>  <cdx:fragmentId>
5

$$$$
