301348.cdx
  Mrv1902 05222410252D          

 26 29  0  0  0  0            999 V2000
    6.5361   -6.3656    0.0000 O   0  0  0  0  0  0  0  0  0  0  0  0
    5.8216   -6.7781    0.0000 C   0  0  1  0  0  0  0  0  0  0  0  0
    5.8216   -7.6031    0.0000 C   0  0  2  0  0  0  0  0  0  0  0  0
    6.5361   -8.0156    0.0000 C   0  0  1  0  0  0  0  0  0  0  0  0
    7.2506   -7.6031    0.0000 C   0  0  2  0  0  0  0  0  0  0  0  0
    7.2506   -6.7781    0.0000 C   0  0  2  0  0  0  0  0  0  0  0  0
    5.1072   -8.0156    0.0000 O   0  0  0  0  0  0  0  0  0  0  0  0
    6.5361   -8.8406    0.0000 O   0  0  0  0  0  0  0  0  0  0  0  0
    7.9651   -8.0156    0.0000 O   0  0  0  0  0  0  0  0  0  0  0  0
    7.9651   -6.3656    0.0000 O   0  0  0  0  0  0  0  0  0  0  0  0
    8.6795   -5.1281    0.0000 C   0  0  2  0  0  0  0  0  0  0  0  0
    9.4642   -5.3830    0.0000 C   0  0  1  0  0  0  0  0  0  0  0  0
   10.2846   -5.4693    0.0000 O   0  0  0  0  0  0  0  0  0  0  0  0
    9.9491   -4.7156    0.0000 C   0  0  1  0  0  0  0  0  0  0  0  0
    9.4642   -4.0482    0.0000 C   0  0  0  0  0  0  0  0  0  0  0  0
    8.6795   -4.3031    0.0000 C   0  0  2  0  0  0  0  0  0  0  0  0
    7.9651   -3.8906    0.0000 C   0  0  0  0  0  0  0  0  0  0  0  0
    7.2506   -4.3031    0.0000 C   0  0  0  0  0  0  0  0  0  0  0  0
    7.2506   -5.1281    0.0000 O   0  0  0  0  0  0  0  0  0  0  0  0
    7.9651   -5.5406    0.0000 C   0  0  1  0  0  0  0  0  0  0  0  0
    9.2926   -6.1900    0.0000 C   0  0  0  0  0  0  0  0  0  0  0  0
    8.7658   -3.4826    0.0000 O   0  0  0  0  0  0  0  0  0  0  0  0
    5.1072   -6.3656    0.0000 C   0  0  0  0  0  0  0  0  0  0  0  0
    4.3927   -6.7781    0.0000 O   0  0  0  0  0  0  0  0  0  0  0  0
    8.6795   -5.9531    0.0000 H   0  0  0  0  0  0  0  0  0  0  0  0
   10.6635   -4.3031    0.0000 H   0  0  0  0  0  0  0  0  0  0  0  0
  1  2  1  0  0  0  0
  2  3  1  0  0  0  0
  3  4  1  0  0  0  0
  4  5  1  0  0  0  0
  5  6  1  0  0  0  0
  1  6  1  0  0  0  0
  3  7  1  6  0  0  0
  4  8  1  1  0  0  0
  5  9  1  6  0  0  0
 11 12  1  0  0  0  0
 12 13  1  0  0  0  0
 13 14  1  0  0  0  0
 14 15  1  0  0  0  0
 15 16  1  0  0  0  0
 16 17  1  0  0  0  0
 17 18  2  0  0  0  0
 18 19  1  0  0  0  0
 19 20  1  0  0  0  0
 11 20  1  0  0  0  0
 11 16  1  0  0  0  0
 12 14  1  0  0  0  0
 12 21  1  1  0  0  0
 16 22  1  6  0  0  0
 20 10  1  6  0  0  0
  6 10  1  1  0  0  0
 23 24  1  0  0  0  0
  2 23  1  1  0  0  0
 11 25  1  6  0  0  0
 14 26  1  1  0  0  0
M  END
>  <cdx:groupId>
3621

>  <cdx:fragmentId>
3563

$$$$
