301329.cdx
  Mrv1902 05222410272D          

 16 17  0  0  0  0            999 V2000
    5.6890   -6.1616    0.0000 C   0  0  0  0  0  0  0  0  0  0  0  0
    5.6890   -6.9866    0.0000 C   0  0  0  0  0  0  0  0  0  0  0  0
    6.4035   -7.3991    0.0000 C   0  0  0  0  0  0  0  0  0  0  0  0
    7.1180   -6.9866    0.0000 C   0  0  0  0  0  0  0  0  0  0  0  0
    7.8324   -7.3991    0.0000 C   0  0  0  0  0  0  0  0  0  0  0  0
    8.5469   -6.9866    0.0000 C   0  0  0  0  0  0  0  0  0  0  0  0
    8.5469   -6.1616    0.0000 C   0  0  0  0  0  0  0  0  0  0  0  0
    7.8324   -5.7491    0.0000 C   0  0  0  0  0  0  0  0  0  0  0  0
    7.1180   -6.1616    0.0000 C   0  0  0  0  0  0  0  0  0  0  0  0
    6.4035   -5.7491    0.0000 O   0  0  0  0  0  0  0  0  0  0  0  0
    4.9745   -5.7491    0.0000 O   0  0  0  0  0  0  0  0  0  0  0  0
    9.2614   -5.7491    0.0000 O   0  0  0  0  0  0  0  0  0  0  0  0
    9.9758   -6.1616    0.0000 C   0  0  0  0  0  0  0  0  0  0  0  0
    9.2614   -7.3991    0.0000 O   0  0  0  0  0  0  0  0  0  0  0  0
    9.9758   -6.9866    0.0000 C   0  0  0  0  0  0  0  0  0  0  0  0
    7.8324   -4.9241    0.0000 O   0  0  0  0  0  0  0  0  0  0  0  0
  1  2  1  0  0  0  0
  2  3  2  0  0  0  0
  3  4  1  0  0  0  0
  4  5  1  0  0  0  0
  5  6  2  0  0  0  0
  6  7  1  0  0  0  0
  7  8  2  0  0  0  0
  8  9  1  0  0  0  0
  4  9  2  0  0  0  0
  9 10  1  0  0  0  0
  1 10  1  0  0  0  0
  1 11  2  0  0  0  0
 12 13  1  0  0  0  0
  7 12  1  0  0  0  0
 14 15  1  0  0  0  0
  6 14  1  0  0  0  0
  8 16  1  0  0  0  0
M  END
>  <cdx:groupId>
2511

>  <cdx:fragmentId>
2465

$$$$
