301377.cdx
  Mrv1902 05222410252D          

 34 36  0  0  0  0            999 V2000
    6.0307   -9.6674    0.0000 O   0  0  0  0  0  0  0  0  0  0  0  0
    6.7452  -10.0799    0.0000 C   0  0  2  0  0  0  0  0  0  0  0  0
    6.7452  -10.9049    0.0000 C   0  0  1  0  0  0  0  0  0  0  0  0
    6.0307  -11.3174    0.0000 C   0  0  2  0  0  0  0  0  0  0  0  0
    5.3162  -10.9049    0.0000 C   0  0  1  0  0  0  0  0  0  0  0  0
    5.3162  -10.0799    0.0000 C   0  0  1  0  0  0  0  0  0  0  0  0
    7.4597  -11.3174    0.0000 O   0  0  0  0  0  0  0  0  0  0  0  0
    6.0307  -12.1424    0.0000 O   0  0  0  0  0  0  0  0  0  0  0  0
    4.6018  -11.3174    0.0000 O   0  0  0  0  0  0  0  0  0  0  0  0
    4.6018   -9.6674    0.0000 C   0  0  0  0  0  0  0  0  0  0  0  0
    3.8873  -10.0799    0.0000 O   0  0  0  0  0  0  0  0  0  0  0  0
    9.3167   -5.0297    0.0000 O   0  0  0  0  0  0  0  0  0  0  0  0
    7.9828   -3.8287    0.0000 O   0  0  0  0  0  0  0  0  0  0  0  0
    7.4597   -7.1924    0.0000 O   0  0  0  0  0  0  0  0  0  0  0  0
    8.1741   -6.7799    0.0000 C   0  0  0  0  0  0  0  0  0  0  0  0
    6.2149   -3.9292    0.0000 O   0  0  0  0  0  0  0  0  0  0  0  0
    6.4284   -4.7261    0.0000 C   0  0  0  0  0  0  0  0  0  0  0  0
    7.1821   -5.0617    0.0000 C   0  0  2  0  0  0  0  0  0  0  0  0
    7.8966   -4.6492    0.0000 C   0  0  2  0  0  0  0  0  0  0  0  0
    8.5097   -5.2012    0.0000 C   0  0  1  0  0  0  0  0  0  0  0  0
    8.1741   -5.9549    0.0000 C   0  0  2  0  0  0  0  0  0  0  0  0
    7.3536   -5.8686    0.0000 O   0  0  0  0  0  0  0  0  0  0  0  0
    8.8886   -6.3674    0.0000 O   0  0  0  0  0  0  0  0  0  0  0  0
    8.8886   -9.6674    0.0000 O   0  0  0  0  0  0  0  0  0  0  0  0
   10.3175   -8.8424    0.0000 O   0  0  0  0  0  0  0  0  0  0  0  0
   10.3175   -7.1924    0.0000 O   0  0  0  0  0  0  0  0  0  0  0  0
    8.8886   -7.1924    0.0000 C   0  0  2  0  0  0  0  0  0  0  0  0
    9.6031   -7.6049    0.0000 C   0  0  1  0  0  0  0  0  0  0  0  0
    9.6031   -8.4299    0.0000 C   0  0  2  0  0  0  0  0  0  0  0  0
    8.8886   -8.8424    0.0000 C   0  0  1  0  0  0  0  0  0  0  0  0
    8.1741   -8.4299    0.0000 C   0  0  2  0  0  0  0  0  0  0  0  0
    8.1741   -7.6049    0.0000 O   0  0  0  0  0  0  0  0  0  0  0  0
    7.4597   -8.8424    0.0000 C   0  0  0  0  0  0  0  0  0  0  0  0
    7.4597   -9.6674    0.0000 O   0  0  0  0  0  0  0  0  0  0  0  0
 31 33  1  1  0  0  0
 27 23  1  6  0  0  0
 21 23  1  6  0  0  0
 20 12  1  6  0  0  0
 19 13  1  1  0  0  0
 21 15  1  1  0  0  0
 15 14  1  0  0  0  0
 18 17  1  6  0  0  0
 17 16  1  0  0  0  0
 22 18  1  0  0  0  0
 19 18  1  0  0  0  0
 20 19  1  0  0  0  0
 21 20  1  0  0  0  0
 22 21  1  0  0  0  0
 30 24  1  6  0  0  0
 29 25  1  1  0  0  0
 28 26  1  6  0  0  0
 32 27  1  0  0  0  0
 28 27  1  0  0  0  0
 29 28  1  0  0  0  0
 30 29  1  0  0  0  0
 31 30  1  0  0  0  0
 32 31  1  0  0  0  0
  1  2  1  0  0  0  0
  2  3  1  0  0  0  0
  3  4  1  0  0  0  0
  4  5  1  0  0  0  0
  5  6  1  0  0  0  0
  1  6  1  0  0  0  0
  3  7  1  6  0  0  0
  4  8  1  1  0  0  0
  5  9  1  6  0  0  0
 10 11  1  0  0  0  0
  6 10  1  1  0  0  0
 34 33  1  0  0  0  0
  2 34  1  1  0  0  0
M  END
>  <cdx:fragmentId>
5857

$$$$
