301335.cdx
  Mrv1902 05222410192D          

 56 61  0  0  0  0            999 V2000
    7.3158   -5.5410    0.0000 C   0  0  1  0  0  0  0  0  0  0  0  0
    8.0318   -5.9507    0.0000 C   0  0  1  0  0  0  0  0  0  0  0  0
    8.7447   -5.5354    0.0000 C   0  0  2  0  0  0  0  0  0  0  0  0
    8.7415   -4.7104    0.0000 C   0  0  1  0  0  0  0  0  0  0  0  0
    8.0254   -4.3007    0.0000 O   0  0  0  0  0  0  0  0  0  0  0  0
    7.3126   -4.7160    0.0000 C   0  0  2  0  0  0  0  0  0  0  0  0
    6.5270   -4.4641    0.0000 C   0  0  0  0  0  0  0  0  0  0  0  0
    6.0446   -5.1334    0.0000 O   0  0  0  0  0  0  0  0  0  0  0  0
    5.2293   -5.0075    0.0000 C   0  0  0  0  0  0  0  0  0  0  0  0
    4.5637   -5.4950    0.0000 C   0  0  0  0  0  0  0  0  0  0  0  0
    3.9206   -4.9783    0.0000 C   0  0  0  0  0  0  0  0  0  0  0  0
    3.1515   -5.2770    0.0000 C   0  0  0  0  0  0  0  0  0  0  0  0
    3.0256   -6.0923    0.0000 C   0  0  0  0  0  0  0  0  0  0  0  0
    3.6688   -6.6090    0.0000 C   0  0  0  0  0  0  0  0  0  0  0  0
    4.4379   -6.3104    0.0000 C   0  0  0  0  0  0  0  0  0  0  0  0
    4.9254   -6.9759    0.0000 C   0  0  0  0  0  0  0  0  0  0  0  0
    4.4087   -7.6191    0.0000 C   0  0  0  0  0  0  0  0  0  0  0  0
    4.7073   -8.3881    0.0000 C   0  0  0  0  0  0  0  0  0  0  0  0
    5.5227   -8.5140    0.0000 C   0  0  0  0  0  0  0  0  0  0  0  0
    6.0393   -7.8709    0.0000 C   0  0  0  0  0  0  0  0  0  0  0  0
    5.7407   -7.1018    0.0000 C   0  0  0  0  0  0  0  0  0  0  0  0
    6.4063   -6.6143    0.0000 C   0  0  0  0  0  0  0  0  0  0  0  0
    6.5321   -5.7990    0.0000 O   0  0  0  0  0  0  0  0  0  0  0  0
    5.0104   -4.2121    0.0000 O   0  0  0  0  0  0  0  0  0  0  0  0
    7.1113   -7.0426    0.0000 O   0  0  0  0  0  0  0  0  0  0  0  0
    5.8213   -9.2831    0.0000 O   0  0  0  0  0  0  0  0  0  0  0  0
    4.1906   -9.0313    0.0000 O   0  0  0  0  0  0  0  0  0  0  0  0
    3.5994   -7.7796    0.0000 O   0  0  0  0  0  0  0  0  0  0  0  0
    3.2716   -7.3321    0.0000 O   0  0  0  0  0  0  0  0  0  0  0  0
    2.2566   -6.3910    0.0000 O   0  0  0  0  0  0  0  0  0  0  0  0
    2.5084   -4.7603    0.0000 O   0  0  0  0  0  0  0  0  0  0  0  0
    9.4544   -4.2951    0.0000 O   0  0  0  0  0  0  0  0  0  0  0  0
    8.0350   -6.7757    0.0000 O   0  0  0  0  0  0  0  0  0  0  0  0
    9.4608   -5.9451    0.0000 O   0  0  0  0  0  0  0  0  0  0  0  0
   10.1704   -4.7049    0.0000 C   0  0  0  0  0  0  0  0  0  0  0  0
   10.8833   -4.2896    0.0000 C   0  0  0  0  0  0  0  0  0  0  0  0
   10.1736   -5.5299    0.0000 O   0  0  0  0  0  0  0  0  0  0  0  0
   11.6009   -4.6965    0.0000 C   0  0  0  0  0  0  0  0  0  0  0  0
   12.3122   -4.2896    0.0000 C   0  0  0  0  0  0  0  0  0  0  0  0
   12.3122   -3.4646    0.0000 C   0  0  0  0  0  0  0  0  0  0  0  0
   11.6009   -3.0577    0.0000 C   0  0  0  0  0  0  0  0  0  0  0  0
   10.8833   -3.4646    0.0000 C   0  0  0  0  0  0  0  0  0  0  0  0
   11.6025   -2.2327    0.0000 O   0  0  0  0  0  0  0  0  0  0  0  0
   13.0258   -3.0507    0.0000 O   0  0  0  0  0  0  0  0  0  0  0  0
   13.0258   -4.7035    0.0000 O   0  0  0  0  0  0  0  0  0  0  0  0
    8.6954   -7.2702    0.0000 C   0  0  0  0  0  0  0  0  0  0  0  0
    9.4099   -6.8577    0.0000 O   0  0  0  0  0  0  0  0  0  0  0  0
    8.6954   -8.0952    0.0000 C   0  0  0  0  0  0  0  0  0  0  0  0
    7.9809   -8.5077    0.0000 C   0  0  0  0  0  0  0  0  0  0  0  0
    7.9809   -9.3327    0.0000 C   0  0  0  0  0  0  0  0  0  0  0  0
    8.6954   -9.7452    0.0000 C   0  0  0  0  0  0  0  0  0  0  0  0
    9.4099   -9.3327    0.0000 C   0  0  0  0  0  0  0  0  0  0  0  0
    9.4099   -8.5077    0.0000 C   0  0  0  0  0  0  0  0  0  0  0  0
    7.2665   -9.7452    0.0000 O   0  0  0  0  0  0  0  0  0  0  0  0
    8.6954  -10.5702    0.0000 O   0  0  0  0  0  0  0  0  0  0  0  0
   10.1243   -9.7452    0.0000 O   0  0  0  0  0  0  0  0  0  0  0  0
  1  2  1  0  0  0  0
  3  4  1  0  0  0  0
  4  5  1  0  0  0  0
  5  6  1  0  0  0  0
  6  7  1  1  0  0  0
  7  8  1  0  0  0  0
  8  9  1  0  0  0  0
  9 10  1  0  0  0  0
 10 11  2  0  0  0  0
 11 12  1  0  0  0  0
 12 13  2  0  0  0  0
 13 14  1  0  0  0  0
 14 15  2  0  0  0  0
 15 16  1  0  0  0  0
 16 17  2  0  0  0  0
 17 18  1  0  0  0  0
 18 19  2  0  0  0  0
 19 20  1  0  0  0  0
 20 21  2  0  0  0  0
 21 22  1  0  0  0  0
 22 23  1  0  0  0  0
  1 23  1  6  0  0  0
  1  6  1  0  0  0  0
 16 21  1  0  0  0  0
 10 15  1  0  0  0  0
  2  3  1  0  0  0  0
  9 24  2  0  0  0  0
 22 25  2  0  0  0  0
 19 26  1  0  0  0  0
 18 27  1  0  0  0  0
 17 28  1  0  0  0  0
 14 29  1  0  0  0  0
 13 30  1  0  0  0  0
 12 31  1  0  0  0  0
  4 32  1  1  0  0  0
  2 33  1  1  0  0  0
  3 34  1  6  0  0  0
 32 35  1  0  0  0  0
 35 36  1  0  0  0  0
 35 37  2  0  0  0  0
 36 38  2  0  0  0  0
 38 39  1  0  0  0  0
 39 40  2  0  0  0  0
 40 41  1  0  0  0  0
 41 42  2  0  0  0  0
 42 36  1  0  0  0  0
 41 43  1  0  0  0  0
 40 44  1  0  0  0  0
 39 45  1  0  0  0  0
 33 46  1  0  0  0  0
 46 47  2  0  0  0  0
 46 48  1  0  0  0  0
 48 49  2  0  0  0  0
 49 50  1  0  0  0  0
 50 51  2  0  0  0  0
 51 52  1  0  0  0  0
 52 53  2  0  0  0  0
 53 48  1  0  0  0  0
 50 54  1  0  0  0  0
 51 55  1  0  0  0  0
 52 56  1  0  0  0  0
M  END
>  <cdx:fragmentId>
11727

$$$$
