301320.cdx
  Mrv1902 05222410192D          

 31 33  0  0  0  0            999 V2000
    6.4029   -9.0112    0.0000 O   0  0  0  0  0  0  0  0  0  0  0  0
    7.8497   -6.5466    0.0000 O   0  0  0  0  0  0  0  0  0  0  0  0
    4.2745   -6.9332    0.0000 C   0  0  0  0  0  0  0  0  0  0  0  0
    4.9919   -6.5259    0.0000 O   0  0  0  0  0  0  0  0  0  0  0  0
    7.1323   -6.9539    0.0000 C   0  0  0  0  0  0  0  0  0  0  0  0
    6.4208   -6.5363    0.0000 C   0  0  0  0  0  0  0  0  0  0  0  0
    5.7034   -6.9436    0.0000 C   0  0  0  0  0  0  0  0  0  0  0  0
    5.6974   -7.7685    0.0000 C   0  0  0  0  0  0  0  0  0  0  0  0
    6.4089   -8.1862    0.0000 C   0  0  0  0  0  0  0  0  0  0  0  0
    7.1263   -7.7789    0.0000 C   0  0  0  0  0  0  0  0  0  0  0  0
   10.7075   -6.5674    0.0000 O   0  0  0  0  0  0  0  0  0  0  0  0
    8.5612   -6.9643    0.0000 C   0  0  0  0  0  0  0  0  0  0  0  0
    9.2786   -6.5570    0.0000 C   0  0  0  0  0  0  0  0  0  0  0  0
    9.9901   -6.9747    0.0000 C   0  0  0  0  0  0  0  0  0  0  0  0
    9.9841   -7.7997    0.0000 C   0  0  0  0  0  0  0  0  0  0  0  0
    9.2667   -8.2070    0.0000 C   0  0  0  0  0  0  0  0  0  0  0  0
    8.5552   -7.7893    0.0000 C   0  0  0  0  0  0  0  0  0  0  0  0
    7.8318   -9.0216    0.0000 O   0  0  0  0  0  0  0  0  0  0  0  0
    7.8378   -8.1966    0.0000 C   0  0  0  0  0  0  0  0  0  0  0  0
    6.4268   -5.7113    0.0000 C   0  0  2  0  0  0  0  0  0  0  0  0
    7.1398   -5.2961    0.0000 O   0  0  0  0  0  0  0  0  0  0  0  0
    7.1398   -4.4711    0.0000 C   0  0  1  0  0  0  0  0  0  0  0  0
    6.4268   -4.0613    0.0000 C   0  0  2  0  0  0  0  0  0  0  0  0
    5.7139   -4.4711    0.0000 C   0  0  1  0  0  0  0  0  0  0  0  0
    5.7139   -5.2961    0.0000 C   0  0  1  0  0  0  0  0  0  0  0  0
    7.8539   -4.0580    0.0000 C   0  0  0  0  0  0  0  0  0  0  0  0
    4.9998   -4.0580    0.0000 O   0  0  0  0  0  0  0  0  0  0  0  0
    6.4268   -3.2363    0.0000 O   0  0  0  0  0  0  0  0  0  0  0  0
    4.9987   -5.7073    0.0000 O   0  0  0  0  0  0  0  0  0  0  0  0
    7.8531   -3.2330    0.0000 O   0  0  0  0  0  0  0  0  0  0  0  0
    7.1413   -6.1238    0.0000 H   0  0  0  0  0  0  0  0  0  0  0  0
 19 10  1  0  0  0  0
  9  1  1  0  0  0  0
  5  2  1  0  0  0  0
  7  4  1  0  0  0  0
  4  3  1  0  0  0  0
 10  5  2  0  0  0  0
  6  5  1  0  0  0  0
  7  6  2  0  0  0  0
  8  7  1  0  0  0  0
  9  8  2  0  0  0  0
 10  9  1  0  0  0  0
 19 17  1  0  0  0  0
 14 11  1  0  0  0  0
 17 12  2  0  0  0  0
 13 12  1  0  0  0  0
 14 13  2  0  0  0  0
 15 14  1  0  0  0  0
 16 15  2  0  0  0  0
 17 16  1  0  0  0  0
 19 18  2  0  0  0  0
  6 20  1  0  0  0  0
 20 21  1  0  0  0  0
 21 22  1  0  0  0  0
 22 23  1  0  0  0  0
 23 24  1  0  0  0  0
 24 25  1  0  0  0  0
 25 20  1  0  0  0  0
 22 26  1  1  0  0  0
 24 27  1  1  0  0  0
 23 28  1  6  0  0  0
 25 29  1  6  0  0  0
 26 30  1  0  0  0  0
 20 31  1  6  0  0  0
M  END
>  <cdx:groupId>
1993

>  <cdx:fragmentId>
1934

$$$$
