301303.cdx
  Mrv1902 05222410282D          

 44 46  0  0  0  0            999 V2000
    9.3731  -10.7404    0.0000 C   0  0  0  0  0  0  0  0  0  0  0  0
    8.6586  -11.1529    0.0000 C   0  0  0  0  0  0  0  0  0  0  0  0
    7.9441  -10.7404    0.0000 C   0  0  0  0  0  0  0  0  0  0  0  0
    7.9441   -9.9154    0.0000 C   0  0  0  0  0  0  0  0  0  0  0  0
    8.6586   -9.5029    0.0000 C   0  0  0  0  0  0  0  0  0  0  0  0
    9.3731   -9.9154    0.0000 C   0  0  0  0  0  0  0  0  0  0  0  0
   10.0876  -11.1529    0.0000 O   0  0  0  0  0  0  0  0  0  0  0  0
   10.1981   -9.9154    0.0000 C   0  0  0  0  0  0  0  0  0  0  0  0
    9.7856   -9.2009    0.0000 C   0  0  0  0  0  0  0  0  0  0  0  0
    8.6586   -8.6779    0.0000 O   0  0  0  0  0  0  0  0  0  0  0  0
    7.2297  -11.1529    0.0000 O   0  0  0  0  0  0  0  0  0  0  0  0
    7.0153   -9.3791    0.0000 C   0  0  0  0  0  0  0  0  0  0  0  0
    7.0153   -8.3066    0.0000 C   0  0  0  0  0  0  0  0  0  0  0  0
    7.7298   -7.8941    0.0000 C   0  0  0  0  0  0  0  0  0  0  0  0
    7.7298   -7.0691    0.0000 C   0  0  0  0  0  0  0  0  0  0  0  0
    7.0153   -6.6566    0.0000 C   0  0  0  0  0  0  0  0  0  0  0  0
    6.3009   -7.0691    0.0000 C   0  0  0  0  0  0  0  0  0  0  0  0
    6.3009   -7.8941    0.0000 C   0  0  0  0  0  0  0  0  0  0  0  0
    5.5864   -8.3066    0.0000 O   0  0  0  0  0  0  0  0  0  0  0  0
    7.0153   -5.8316    0.0000 O   0  0  0  0  0  0  0  0  0  0  0  0
    8.4443   -8.3066    0.0000 O   0  0  0  0  0  0  0  0  0  0  0  0
    5.5864   -6.6566    0.0000 C   0  0  0  0  0  0  0  0  0  0  0  0
    4.8719   -7.0691    0.0000 C   0  0  0  0  0  0  0  0  0  0  0  0
    4.1574   -6.6566    0.0000 C   0  0  0  0  0  0  0  0  0  0  0  0
    3.4430   -7.0691    0.0000 C   0  0  0  0  0  0  0  0  0  0  0  0
    5.5864   -5.8316    0.0000 O   0  0  0  0  0  0  0  0  0  0  0  0
    8.6586   -6.5329    0.0000 C   0  0  0  0  0  0  0  0  0  0  0  0
    8.6586   -5.4604    0.0000 C   0  0  0  0  0  0  0  0  0  0  0  0
    7.9441   -5.0479    0.0000 C   0  0  0  0  0  0  0  0  0  0  0  0
    7.9441   -4.2229    0.0000 C   0  0  0  0  0  0  0  0  0  0  0  0
    8.6586   -3.8104    0.0000 C   0  0  0  0  0  0  0  0  0  0  0  0
    9.3731   -4.2229    0.0000 C   0  0  0  0  0  0  0  0  0  0  0  0
    9.3731   -5.0479    0.0000 C   0  0  0  0  0  0  0  0  0  0  0  0
    8.6586   -2.9854    0.0000 O   0  0  0  0  0  0  0  0  0  0  0  0
    7.5316   -3.5084    0.0000 C   0  0  0  0  0  0  0  0  0  0  0  0
    7.1191   -4.2229    0.0000 C   0  0  0  0  0  0  0  0  0  0  0  0
   10.0876   -5.4604    0.0000 O   0  0  0  0  0  0  0  0  0  0  0  0
    7.2297   -5.4604    0.0000 O   0  0  0  0  0  0  0  0  0  0  0  0
   10.0876   -3.8104    0.0000 C   0  0  0  0  0  0  0  0  0  0  0  0
   10.0876   -2.9854    0.0000 O   0  0  0  0  0  0  0  0  0  0  0  0
   10.8020   -4.2229    0.0000 C   0  0  0  0  0  0  0  0  0  0  0  0
    8.6586  -11.9779    0.0000 C   0  0  0  0  0  0  0  0  0  0  0  0
    7.9441  -12.3904    0.0000 O   0  0  0  0  0  0  0  0  0  0  0  0
    9.3731  -12.3904    0.0000 C   0  0  0  0  0  0  0  0  0  0  0  0
  1  2  1  0  0  0  0
  2  3  2  0  0  0  0
  3  4  1  0  0  0  0
  4  5  2  0  0  0  0
  5  6  1  0  0  0  0
  1  6  1  0  0  0  0
  1  7  2  0  0  0  0
  6  8  1  0  0  0  0
  6  9  1  0  0  0  0
  5 10  1  0  0  0  0
  3 11  1  0  0  0  0
 13 14  1  0  0  0  0
 14 15  2  0  0  0  0
 15 16  1  0  0  0  0
 16 17  2  0  0  0  0
 17 18  1  0  0  0  0
 13 18  2  0  0  0  0
 18 19  1  0  0  0  0
 16 20  1  0  0  0  0
 14 21  1  0  0  0  0
 22 23  1  0  0  0  0
 23 24  1  0  0  0  0
 24 25  1  0  0  0  0
 22 26  2  0  0  0  0
 17 22  1  0  0  0  0
 28 29  2  0  0  0  0
 29 30  1  0  0  0  0
 30 31  1  0  0  0  0
 31 32  1  0  0  0  0
 32 33  2  0  0  0  0
 28 33  1  0  0  0  0
 31 34  2  0  0  0  0
 30 35  1  0  0  0  0
 30 36  1  0  0  0  0
 33 37  1  0  0  0  0
 29 38  1  0  0  0  0
 39 40  2  0  0  0  0
 39 41  1  0  0  0  0
 32 39  1  0  0  0  0
 27 28  1  0  0  0  0
 15 27  1  0  0  0  0
 12 13  1  0  0  0  0
  4 12  1  0  0  0  0
 42 43  2  0  0  0  0
 42 44  1  0  0  0  0
  2 42  1  0  0  0  0
M  END
>  <cdx:fragmentId>
59

$$$$
