301342.cdx
  Mrv1902 05222410222D          

 29 32  0  0  0  0            999 V2000
    8.7486   -5.1695    0.0000 C   0  0  0  0  0  0  0  0  0  0  0  0
    9.1611   -4.4550    0.0000 C   0  0  0  0  0  0  0  0  0  0  0  0
    8.7486   -3.7405    0.0000 C   0  0  0  0  0  0  0  0  0  0  0  0
    9.1611   -3.0261    0.0000 C   0  0  0  0  0  0  0  0  0  0  0  0
    9.9861   -3.0261    0.0000 C   0  0  0  0  0  0  0  0  0  0  0  0
   10.3986   -3.7405    0.0000 C   0  0  0  0  0  0  0  0  0  0  0  0
    9.9861   -4.4550    0.0000 C   0  0  0  0  0  0  0  0  0  0  0  0
    9.1611   -5.8839    0.0000 O   0  0  0  0  0  0  0  0  0  0  0  0
    7.9236   -5.1695    0.0000 O   0  0  0  0  0  0  0  0  0  0  0  0
    7.5111   -5.8839    0.0000 C   0  0  0  0  0  0  0  0  0  0  0  0
    5.2572   -5.8839    0.0000 C   0  0  1  0  0  0  0  0  0  0  0  0
    5.9717   -5.4714    0.0000 C   0  0  1  0  0  0  0  0  0  0  0  0
    6.6861   -5.0589    0.0000 O   0  0  0  0  0  0  0  0  0  0  0  0
    6.6861   -5.8839    0.0000 C   0  0  2  0  0  0  0  0  0  0  0  0
    6.6861   -6.7089    0.0000 C   0  0  2  0  0  0  0  0  0  0  0  0
    5.9717   -7.1214    0.0000 C   0  0  1  0  0  0  0  0  0  0  0  0
    5.2572   -6.7089    0.0000 C   0  0  1  0  0  0  0  0  0  0  0  0
    4.5427   -6.2964    0.0000 O   0  0  0  0  0  0  0  0  0  0  0  0
    5.9717   -7.9464    0.0000 O   0  0  0  0  0  0  0  0  0  0  0  0
    5.2572   -8.3589    0.0000 C   0  0  0  0  0  0  0  0  0  0  0  0
    5.2572   -9.1839    0.0000 O   0  0  0  0  0  0  0  0  0  0  0  0
    4.5427   -7.9464    0.0000 C   0  0  0  0  0  0  0  0  0  0  0  0
    7.4006   -7.1214    0.0000 O   0  0  0  0  0  0  0  0  0  0  0  0
    8.1151   -6.7089    0.0000 C   0  0  0  0  0  0  0  0  0  0  0  0
    8.1151   -5.8839    0.0000 O   0  0  0  0  0  0  0  0  0  0  0  0
    8.8296   -7.1214    0.0000 C   0  0  0  0  0  0  0  0  0  0  0  0
    4.8447   -5.1695    0.0000 H   0  0  0  0  0  0  0  0  0  0  0  0
    5.5592   -4.7570    0.0000 H   0  0  0  0  0  0  0  0  0  0  0  0
    4.8447   -7.4234    0.0000 H   0  0  0  0  0  0  0  0  0  0  0  0
  1  2  1  0  0  0  0
  2  3  1  0  0  0  0
  3  4  2  0  0  0  0
  4  5  1  0  0  0  0
  5  6  2  0  0  0  0
  6  7  1  0  0  0  0
  2  7  2  0  0  0  0
  1  8  2  0  0  0  0
  1  9  1  0  0  0  0
 11 12  1  0  0  0  0
 12 13  1  0  0  0  0
 13 14  1  0  0  0  0
 14 15  1  0  0  0  0
 15 16  1  0  0  0  0
 16 17  1  0  0  0  0
 17 18  1  0  0  0  0
 11 18  1  0  0  0  0
 11 17  1  0  0  0  0
 12 14  1  0  0  0  0
 20 21  2  0  0  0  0
 20 22  1  0  0  0  0
 19 20  1  0  0  0  0
 16 19  1  6  0  0  0
 24 25  2  0  0  0  0
 24 26  1  0  0  0  0
 23 24  1  0  0  0  0
 15 23  1  1  0  0  0
 14 10  1  6  0  0  0
  9 10  1  0  0  0  0
 11 27  1  6  0  0  0
 12 28  1  6  0  0  0
 17 29  1  6  0  0  0
M  END
>  <cdx:groupId>
3098

>  <cdx:fragmentId>
3031

$$$$
