301393.cdx
  Mrv1902 05222410212D          

 41 45  0  0  0  0            999 V2000
    3.8813   -9.6208    0.0000 C   0  0  0  0  0  0  0  0  0  0  0  0
    3.1710  -10.0405    0.0000 C   0  0  0  0  0  0  0  0  0  0  0  0
    3.1794  -10.8655    0.0000 C   0  0  0  0  0  0  0  0  0  0  0  0
    3.8981  -11.2707    0.0000 C   0  0  0  0  0  0  0  0  0  0  0  0
    4.6083  -10.8509    0.0000 C   0  0  0  0  0  0  0  0  0  0  0  0
    4.5999  -10.0260    0.0000 C   0  0  0  0  0  0  0  0  0  0  0  0
    2.4524   -9.6353    0.0000 O   0  0  0  0  0  0  0  0  0  0  0  0
    1.7379  -10.0478    0.0000 C   0  0  0  0  0  0  0  0  0  0  0  0
    9.5591   -6.2991    0.0000 C   0  0  0  0  0  0  0  0  0  0  0  0
    9.5591   -7.1241    0.0000 C   0  0  0  0  0  0  0  0  0  0  0  0
    8.8446   -7.5366    0.0000 C   0  0  0  0  0  0  0  0  0  0  0  0
    8.1301   -7.1241    0.0000 C   0  0  0  0  0  0  0  0  0  0  0  0
    7.4157   -7.5366    0.0000 C   0  0  0  0  0  0  0  0  0  0  0  0
    6.7012   -7.1241    0.0000 C   0  0  0  0  0  0  0  0  0  0  0  0
    6.7012   -6.2991    0.0000 C   0  0  0  0  0  0  0  0  0  0  0  0
    7.4157   -5.8866    0.0000 C   0  0  0  0  0  0  0  0  0  0  0  0
    8.1301   -6.2991    0.0000 C   0  0  0  0  0  0  0  0  0  0  0  0
    8.8446   -5.8866    0.0000 O   0  0  0  0  0  0  0  0  0  0  0  0
    8.8446   -8.3616    0.0000 O   0  0  0  0  0  0  0  0  0  0  0  0
   10.2735   -5.8866    0.0000 C   0  0  0  0  0  0  0  0  0  0  0  0
   10.9880   -6.2991    0.0000 C   0  0  0  0  0  0  0  0  0  0  0  0
   11.7025   -5.8866    0.0000 C   0  0  0  0  0  0  0  0  0  0  0  0
   11.7025   -5.0616    0.0000 C   0  0  0  0  0  0  0  0  0  0  0  0
   10.9880   -4.6491    0.0000 C   0  0  0  0  0  0  0  0  0  0  0  0
   10.2735   -5.0616    0.0000 C   0  0  0  0  0  0  0  0  0  0  0  0
   12.4170   -4.6491    0.0000 O   0  0  0  0  0  0  0  0  0  0  0  0
    7.4157   -8.3616    0.0000 O   0  0  0  0  0  0  0  0  0  0  0  0
   10.2735   -7.5366    0.0000 O   0  0  0  0  0  0  0  0  0  0  0  0
    5.9867   -5.8866    0.0000 O   0  0  0  0  0  0  0  0  0  0  0  0
    6.0035   -7.5365    0.0000 O   0  0  0  0  0  0  0  0  0  0  0  0
    3.1458   -7.5656    0.0000 O   0  0  0  0  0  0  0  0  0  0  0  0
    3.1290   -5.9157    0.0000 C   0  0  0  0  0  0  0  0  0  0  0  0
    3.8476   -6.3209    0.0000 C   0  0  1  0  0  0  0  0  0  0  0  0
    3.8560   -7.1459    0.0000 C   0  0  1  0  0  0  0  0  0  0  0  0
    4.5747   -7.5511    0.0000 C   0  0  2  0  0  0  0  0  0  0  0  0
    5.2849   -7.1313    0.0000 C   0  0  2  0  0  0  0  0  0  0  0  0
    5.2765   -6.3064    0.0000 C   0  0  1  0  0  0  0  0  0  0  0  0
    4.5578   -5.9012    0.0000 O   0  0  0  0  0  0  0  0  0  0  0  0
    4.5831   -8.3760    0.0000 O   0  0  0  0  0  0  0  0  0  0  0  0
    3.1542   -8.3906    0.0000 O   0  0  0  0  0  0  0  0  0  0  0  0
    3.8728   -8.7958    0.0000 C   0  0  0  0  0  0  0  0  0  0  0  0
 35 39  1  6  0  0  0
 37 29  1  1  0  0  0
 36 30  1  6  0  0  0
 34 31  1  1  0  0  0
 33 32  1  6  0  0  0
 38 33  1  0  0  0  0
 34 33  1  0  0  0  0
 35 34  1  0  0  0  0
 36 35  1  0  0  0  0
 37 36  1  0  0  0  0
 38 37  1  0  0  0  0
 41 39  1  0  0  0  0
 41 40  2  0  0  0  0
 41  1  1  0  0  0  0
  1  2  1  0  0  0  0
  2  3  2  0  0  0  0
  3  4  1  0  0  0  0
  4  5  2  0  0  0  0
  5  6  1  0  0  0  0
  1  6  2  0  0  0  0
  7  8  1  0  0  0  0
  9 10  2  0  0  0  0
 10 11  1  0  0  0  0
 11 12  1  0  0  0  0
 12 13  1  0  0  0  0
 13 14  2  0  0  0  0
 14 15  1  0  0  0  0
 15 16  2  0  0  0  0
 16 17  1  0  0  0  0
 12 17  2  0  0  0  0
 17 18  1  0  0  0  0
  9 18  1  0  0  0  0
 11 19  2  0  0  0  0
 20 21  1  0  0  0  0
 21 22  2  0  0  0  0
 22 23  1  0  0  0  0
 23 24  2  0  0  0  0
 24 25  1  0  0  0  0
 20 25  2  0  0  0  0
 23 26  1  0  0  0  0
  9 20  1  0  0  0  0
 13 27  1  0  0  0  0
 10 28  1  0  0  0  0
 29 15  1  0  0  0  0
  2  7  1  0  0  0  0
M  END
>  <cdx:fragmentId>
47

$$$$
