301384.cdx
  Mrv1902 05222410212D          

 16 17  0  0  0  0            999 V2000
    7.1165   -5.2080    0.0000 C   0  0  2  0  0  0  0  0  0  0  0  0
    7.7654   -5.7174    0.0000 C   0  0  0  0  0  0  0  0  0  0  0  0
    8.5683   -5.5277    0.0000 C   0  0  0  0  0  0  0  0  0  0  0  0
    8.9206   -4.7816    0.0000 C   0  0  0  0  0  0  0  0  0  0  0  0
    8.5569   -4.0411    0.0000 C   0  0  0  0  0  0  0  0  0  0  0  0
    7.7512   -3.8637    0.0000 C   0  0  2  0  0  0  0  0  0  0  0  0
    7.1102   -4.3830    0.0000 C   0  0  2  0  0  0  0  0  0  0  0  0
    6.3236   -4.1341    0.0000 C   0  0  0  0  0  0  0  0  0  0  0  0
    5.8438   -4.8053    0.0000 C   0  0  0  0  0  0  0  0  0  0  0  0
    6.3338   -5.4690    0.0000 C   0  0  2  0  0  0  0  0  0  0  0  0
    5.5682   -5.7762    0.0000 O   0  0  0  0  0  0  0  0  0  0  0  0
    6.3338   -6.2940    0.0000 C   0  0  0  0  0  0  0  0  0  0  0  0
    7.1165   -6.0330    0.0000 H   0  0  0  0  0  0  0  0  0  0  0  0
    7.3387   -3.1492    0.0000 C   0  0  0  0  0  0  0  0  0  0  0  0
    7.1102   -3.5580    0.0000 H   0  0  0  0  0  0  0  0  0  0  0  0
    8.1637   -3.1492    0.0000 O   0  0  0  0  0  0  0  0  0  0  0  0
  1  2  1  0  0  0  0
  2  3  2  0  0  0  0
  3  4  1  0  0  0  0
  4  5  1  0  0  0  0
  5  6  1  0  0  0  0
  6  7  1  0  0  0  0
  7  1  1  0  0  0  0
  7  8  1  0  0  0  0
  8  9  1  0  0  0  0
  9 10  1  0  0  0  0
 10  1  1  0  0  0  0
 10 11  1  1  0  0  0
 10 12  1  6  0  0  0
  1 13  1  6  0  0  0
  6 14  1  6  0  0  0
  7 15  1  6  0  0  0
  6 16  1  1  0  0  0
M  END
>  <cdx:fragmentId>
62

$$$$
