301327.cdx
  Mrv1902 05222410182D          

 22 24  0  0  0  0            999 V2000
    5.1517   -7.7522    0.0000 O   0  0  0  0  0  0  0  0  0  0  0  0
    3.7443   -5.2648    0.0000 O   0  0  0  0  0  0  0  0  0  0  0  0
   11.5996   -5.7457    0.0000 C   0  0  0  0  0  0  0  0  0  0  0  0
   10.8887   -5.3270    0.0000 O   0  0  0  0  0  0  0  0  0  0  0  0
    8.7418   -5.7208    0.0000 C   0  0  0  0  0  0  0  0  0  0  0  0
    9.4598   -5.3146    0.0000 C   0  0  0  0  0  0  0  0  0  0  0  0
   10.1707   -5.7332    0.0000 C   0  0  0  0  0  0  0  0  0  0  0  0
   10.1635   -6.5582    0.0000 C   0  0  0  0  0  0  0  0  0  0  0  0
    9.4455   -6.9645    0.0000 C   0  0  0  0  0  0  0  0  0  0  0  0
    8.7346   -6.5458    0.0000 C   0  0  0  0  0  0  0  0  0  0  0  0
    8.0166   -6.9521    0.0000 C   0  0  0  0  0  0  0  0  0  0  0  0
    6.5805   -7.7646    0.0000 O   0  0  0  0  0  0  0  0  0  0  0  0
    6.6021   -5.2897    0.0000 O   0  0  0  0  0  0  0  0  0  0  0  0
    5.8840   -5.6960    0.0000 C   0  0  0  0  0  0  0  0  0  0  0  0
    5.1732   -5.2773    0.0000 C   0  0  0  0  0  0  0  0  0  0  0  0
    4.4551   -5.6835    0.0000 C   0  0  0  0  0  0  0  0  0  0  0  0
    4.4480   -6.5085    0.0000 C   0  0  0  0  0  0  0  0  0  0  0  0
    5.1588   -6.9272    0.0000 C   0  0  0  0  0  0  0  0  0  0  0  0
    5.8769   -6.5209    0.0000 C   0  0  0  0  0  0  0  0  0  0  0  0
    6.5877   -6.9396    0.0000 C   0  0  0  0  0  0  0  0  0  0  0  0
    7.3058   -6.5334    0.0000 C   0  0  0  0  0  0  0  0  0  0  0  0
    7.3129   -5.7084    0.0000 C   0  0  0  0  0  0  0  0  0  0  0  0
 18  1  1  0  0  0  0
 16  2  1  0  0  0  0
 21 11  1  1  0  0  0
 11 10  1  0  0  0  0
  7  4  1  0  0  0  0
  4  3  1  0  0  0  0
 10  5  2  0  0  0  0
  6  5  1  0  0  0  0
  7  6  2  0  0  0  0
  8  7  1  0  0  0  0
  9  8  2  0  0  0  0
 10  9  1  0  0  0  0
 20 12  2  0  0  0  0
 22 13  1  0  0  0  0
 14 13  1  0  0  0  0
 19 14  2  0  0  0  0
 15 14  1  0  0  0  0
 16 15  2  0  0  0  0
 17 16  1  0  0  0  0
 18 17  2  0  0  0  0
 19 18  1  0  0  0  0
 20 19  1  0  0  0  0
 21 20  1  0  0  0  0
 22 21  2  0  0  0  0
M  END
>  <cdx:groupId>
178444

>  <cdx:fragmentId>
178373

$$$$
