301392.cdx
  Mrv1902 05222410202D          

 79 88  0  0  0  0            999 V2000
   12.9541  -11.1925    0.0000 C   0  0  1  0  0  0  0  0  0  0  0  0
   12.9541  -10.3675    0.0000 C   0  0  1  0  0  0  0  0  0  0  0  0
   13.6685   -9.9550    0.0000 C   0  0  0  0  0  0  0  0  0  0  0  0
   13.6685  -11.6050    0.0000 C   0  0  0  0  0  0  0  0  0  0  0  0
   14.3830  -11.1925    0.0000 C   0  0  2  0  0  0  0  0  0  0  0  0
   15.0975  -11.6050    0.0000 C   0  0  0  0  0  0  0  0  0  0  0  0
   15.8119  -11.1925    0.0000 C   0  0  0  0  0  0  0  0  0  0  0  0
   15.8119  -10.3675    0.0000 C   0  0  1  0  0  0  0  0  0  0  0  0
   16.5264   -9.9550    0.0000 C   0  0  2  0  0  0  0  0  0  0  0  0
   17.3110  -10.2099    0.0000 C   0  0  0  0  0  0  0  0  0  0  0  0
   17.7960   -9.5425    0.0000 C   0  0  2  0  0  0  0  0  0  0  0  0
   18.2809  -10.2099    0.0000 H   0  0  0  0  0  0  0  0  0  0  0  0
   18.5806   -9.2875    0.0000 O   0  0  0  0  0  0  0  0  0  0  0  0
   17.3110   -8.8750    0.0000 C   0  0  2  0  0  0  0  0  0  0  0  0
   16.9494   -8.1335    0.0000 H   0  0  0  0  0  0  0  0  0  0  0  0
   17.7960   -8.2076    0.0000 C   0  0  1  0  0  0  0  0  0  0  0  0
   18.5806   -8.4625    0.0000 C   0  0  2  0  0  0  0  0  0  0  0  0
   18.4943   -7.6421    0.0000 O   0  0  0  0  0  0  0  0  0  0  0  0
   19.3343   -8.7981    0.0000 C   0  0  0  0  0  0  0  0  0  0  0  0
   20.0017   -8.3132    0.0000 C   0  0  0  0  0  0  0  0  0  0  0  0
   19.9155   -7.4927    0.0000 C   0  0  2  0  0  0  0  0  0  0  0  0
   19.1618   -7.1571    0.0000 C   0  0  0  0  0  0  0  0  0  0  0  0
   20.5829   -7.0078    0.0000 C   0  0  0  0  0  0  0  0  0  0  0  0
   17.5410   -7.4230    0.0000 C   0  0  0  0  0  0  0  0  0  0  0  0
   16.5264   -9.1300    0.0000 C   0  0  2  0  0  0  0  0  0  0  0  0
   16.5264   -8.3050    0.0000 C   0  0  0  0  0  0  0  0  0  0  0  0
   15.8119   -8.7175    0.0000 C   0  0  0  0  0  0  0  0  0  0  0  0
   15.0975   -9.1300    0.0000 C   0  0  0  0  0  0  0  0  0  0  0  0
   15.0975   -9.9550    0.0000 C   0  0  2  0  0  0  0  0  0  0  0  0
   14.3830  -10.3675    0.0000 C   0  0  1  0  0  0  0  0  0  0  0  0
   14.3830   -9.5425    0.0000 C   0  0  0  0  0  0  0  0  0  0  0  0
   15.0975  -10.7800    0.0000 H   0  0  0  0  0  0  0  0  0  0  0  0
   15.8119   -9.5425    0.0000 H   0  0  0  0  0  0  0  0  0  0  0  0
   16.5264  -10.7800    0.0000 H   0  0  0  0  0  0  0  0  0  0  0  0
   12.2396  -11.6050    0.0000 O   0  0  0  0  0  0  0  0  0  0  0  0
   14.3830  -12.0175    0.0000 H   0  0  0  0  0  0  0  0  0  0  0  0
   10.8361   -9.9516    0.0000 C   0  0  2  0  0  0  0  0  0  0  0  0
   10.1217  -10.3643    0.0000 C   0  0  1  0  0  0  0  0  0  0  0  0
   10.1220  -11.1893    0.0000 C   0  0  1  0  0  0  0  0  0  0  0  0
   10.8366  -11.6016    0.0000 C   0  0  2  0  0  0  0  0  0  0  0  0
   11.5509  -11.1889    0.0000 C   0  0  1  0  0  0  0  0  0  0  0  0
   11.5507  -10.3639    0.0000 O   0  0  0  0  0  0  0  0  0  0  0  0
   10.8358   -9.1266    0.0000 C   0  0  0  0  0  0  0  0  0  0  0  0
    9.4076  -11.6020    0.0000 O   0  0  0  0  0  0  0  0  0  0  0  0
    9.4069   -9.9520    0.0000 O   0  0  0  0  0  0  0  0  0  0  0  0
   10.8368  -12.4266    0.0000 O   0  0  0  0  0  0  0  0  0  0  0  0
   11.5503   -8.7141    0.0000 O   0  0  0  0  0  0  0  0  0  0  0  0
    9.4069   -9.1270    0.0000 C   0  0  2  0  0  0  0  0  0  0  0  0
   10.1214   -8.7146    0.0000 O   0  0  0  0  0  0  0  0  0  0  0  0
   10.1214   -7.8896    0.0000 C   0  0  1  0  0  0  0  0  0  0  0  0
    9.4069   -7.4770    0.0000 C   0  0  2  0  0  0  0  0  0  0  0  0
    8.6924   -7.8896    0.0000 C   0  0  1  0  0  0  0  0  0  0  0  0
    8.6924   -8.7146    0.0000 C   0  0  1  0  0  0  0  0  0  0  0  0
   10.8359   -7.4772    0.0000 C   0  0  0  0  0  0  0  0  0  0  0  0
    7.9779   -7.4772    0.0000 O   0  0  0  0  0  0  0  0  0  0  0  0
    7.9779   -9.1272    0.0000 O   0  0  0  0  0  0  0  0  0  0  0  0
    9.4069   -6.6520    0.0000 O   0  0  0  0  0  0  0  0  0  0  0  0
   10.8360   -6.6522    0.0000 O   0  0  0  0  0  0  0  0  0  0  0  0
    7.9738   -6.6522    0.0000 C   0  0  2  0  0  0  0  0  0  0  0  0
    7.1534   -9.1537    0.0000 C   0  0  2  0  0  0  0  0  0  0  0  0
    6.7182   -8.4528    0.0000 O   0  0  0  0  0  0  0  0  0  0  0  0
    5.8936   -8.4793    0.0000 C   0  0  1  0  0  0  0  0  0  0  0  0
    5.5042   -9.2067    0.0000 C   0  0  1  0  0  0  0  0  0  0  0  0
    5.9395   -9.9076    0.0000 C   0  0  1  0  0  0  0  0  0  0  0  0
    6.7640   -9.8811    0.0000 C   0  0  1  0  0  0  0  0  0  0  0  0
    8.6863   -6.2361    0.0000 O   0  0  0  0  0  0  0  0  0  0  0  0
    8.6823   -5.4112    0.0000 C   0  0  0  0  0  0  0  0  0  0  0  0
    7.9658   -5.0022    0.0000 C   0  0  2  0  0  0  0  0  0  0  0  0
    7.2534   -5.4182    0.0000 C   0  0  1  0  0  0  0  0  0  0  0  0
    7.2574   -6.2431    0.0000 C   0  0  1  0  0  0  0  0  0  0  0  0
    6.5449   -6.6591    0.0000 O   0  0  0  0  0  0  0  0  0  0  0  0
    6.5369   -5.0091    0.0000 O   0  0  0  0  0  0  0  0  0  0  0  0
    7.9618   -4.1772    0.0000 O   0  0  0  0  0  0  0  0  0  0  0  0
    5.4584   -7.7785    0.0000 C   0  0  0  0  0  0  0  0  0  0  0  0
    5.5501  -10.6349    0.0000 O   0  0  0  0  0  0  0  0  0  0  0  0
    7.1993  -10.5819    0.0000 O   0  0  0  0  0  0  0  0  0  0  0  0
    4.6796   -9.2332    0.0000 O   0  0  0  0  0  0  0  0  0  0  0  0
    4.6338   -7.8049    0.0000 O   0  0  0  0  0  0  0  0  0  0  0  0
   12.2396   -9.9550    0.0000 O   0  0  0  0  0  0  0  0  0  0  0  0
  1  2  1  0  0  0  0
  2  3  1  0  0  0  0
  1  4  1  0  0  0  0
  4  5  1  0  0  0  0
  5  6  1  0  0  0  0
  6  7  1  0  0  0  0
  7  8  1  0  0  0  0
  8  9  1  0  0  0  0
  9 10  1  0  0  0  0
 10 11  1  0  0  0  0
 11 12  1  6  0  0  0
 11 13  1  0  0  0  0
 11 14  1  0  0  0  0
 14 15  1  6  0  0  0
 14 16  1  0  0  0  0
 16 17  1  0  0  0  0
 17 13  1  6  0  0  0
 17 18  1  0  0  0  0
 17 19  1  0  0  0  0
 19 20  1  0  0  0  0
 20 21  1  0  0  0  0
 21 22  1  0  0  0  0
 18 22  1  0  0  0  0
 21 23  1  6  0  0  0
 16 24  1  6  0  0  0
 14 25  1  0  0  0  0
  9 25  1  0  0  0  0
 25 26  1  1  0  0  0
 25 27  1  0  0  0  0
 27 28  1  0  0  0  0
 28 29  1  0  0  0  0
  8 29  1  0  0  0  0
 29 30  1  0  0  0  0
  3 30  1  0  0  0  0
  5 30  1  0  0  0  0
 30 31  1  1  0  0  0
 29 32  1  6  0  0  0
  8 33  1  1  0  0  0
  9 34  1  6  0  0  0
  1 35  1  1  0  0  0
  5 36  1  6  0  0  0
 37 38  1  0  0  0  0
 38 39  1  0  0  0  0
 39 40  1  0  0  0  0
 40 41  1  0  0  0  0
 41 42  1  0  0  0  0
 42 37  1  0  0  0  0
 37 43  1  1  0  0  0
 39 44  1  1  0  0  0
 38 45  1  1  0  0  0
 40 46  1  6  0  0  0
 43 47  1  0  0  0  0
 41 35  1  1  0  0  0
 48 45  1  1  0  0  0
 48 49  1  0  0  0  0
 49 50  1  0  0  0  0
 50 51  1  0  0  0  0
 51 52  1  0  0  0  0
 52 53  1  0  0  0  0
 53 48  1  0  0  0  0
 50 54  1  1  0  0  0
 52 55  1  1  0  0  0
 53 56  1  6  0  0  0
 51 57  1  6  0  0  0
 54 58  1  0  0  0  0
 59 55  1  1  0  0  0
 60 56  1  1  0  0  0
 60 61  1  0  0  0  0
 61 62  1  0  0  0  0
 62 63  1  0  0  0  0
 63 64  1  0  0  0  0
 64 65  1  0  0  0  0
 65 60  1  0  0  0  0
 59 66  1  0  0  0  0
 66 67  1  0  0  0  0
 67 68  1  0  0  0  0
 68 69  1  0  0  0  0
 69 70  1  0  0  0  0
 70 59  1  0  0  0  0
 70 71  1  6  0  0  0
 69 72  1  1  0  0  0
 68 73  1  6  0  0  0
 62 74  1  1  0  0  0
 64 75  1  1  0  0  0
 65 76  1  6  0  0  0
 63 77  1  1  0  0  0
 74 78  1  0  0  0  0
  2 79  1  6  0  0  0
M  END
>  <cdx:fragmentId>
5

$$$$
