301300.cdx
  Mrv1902 05222410272D          

 14 14  0  0  0  0            999 V2000
    9.3654   -5.8179    0.0000 C   0  0  0  0  0  0  0  0  0  0  0  0
    8.6509   -6.2304    0.0000 C   0  0  0  0  0  0  0  0  0  0  0  0
    7.9365   -5.8179    0.0000 C   0  0  0  0  0  0  0  0  0  0  0  0
    9.3654   -4.9929    0.0000 O   0  0  0  0  0  0  0  0  0  0  0  0
   10.0799   -6.2304    0.0000 N   0  0  0  0  0  0  0  0  0  0  0  0
    7.2220   -6.2304    0.0000 C   0  0  0  0  0  0  0  0  0  0  0  0
    6.5075   -5.8179    0.0000 C   0  0  0  0  0  0  0  0  0  0  0  0
    5.7930   -6.2304    0.0000 C   0  0  0  0  0  0  0  0  0  0  0  0
    5.7930   -7.0554    0.0000 C   0  0  0  0  0  0  0  0  0  0  0  0
    6.5075   -7.4679    0.0000 C   0  0  0  0  0  0  0  0  0  0  0  0
    7.2220   -7.0554    0.0000 C   0  0  0  0  0  0  0  0  0  0  0  0
    5.0786   -5.8179    0.0000 O   0  0  0  0  0  0  0  0  0  0  0  0
    4.3641   -6.2304    0.0000 C   0  0  0  0  0  0  0  0  0  0  0  0
    5.0786   -7.4679    0.0000 O   0  0  0  0  0  0  0  0  0  0  0  0
  1  2  1  0  0  0  0
  2  3  2  0  0  0  0
  1  4  2  0  0  0  0
  1  5  1  0  0  0  0
  6  7  1  0  0  0  0
  7  8  2  0  0  0  0
  8  9  1  0  0  0  0
  9 10  2  0  0  0  0
 10 11  1  0  0  0  0
  6 11  2  0  0  0  0
 12 13  1  0  0  0  0
  8 12  1  0  0  0  0
  9 14  1  0  0  0  0
  3  6  1  0  0  0  0
M  END
>  <cdx:fragmentId>
62

$$$$
