301325.cdx
  Mrv1902 05222410182D          

 33 35  0  0  0  0            999 V2000
    6.3512   -7.1905    0.0000 O   0  0  0  0  0  0  0  0  0  0  0  0
    7.7754   -8.0236    0.0000 O   0  0  0  0  0  0  0  0  0  0  0  0
    9.2091   -7.2068    0.0000 O   0  0  0  0  0  0  0  0  0  0  0  0
   11.3642   -5.1566    0.0000 O   0  0  0  0  0  0  0  0  0  0  0  0
   13.4958   -7.2313    0.0000 O   0  0  0  0  0  0  0  0  0  0  0  0
   12.0763   -5.5731    0.0000 C   0  0  0  0  0  0  0  0  0  0  0  0
   12.7884   -5.9897    0.0000 C   0  0  0  0  0  0  0  0  0  0  0  0
   12.7837   -6.8147    0.0000 C   0  0  0  0  0  0  0  0  0  0  0  0
   12.0669   -7.2231    0.0000 C   0  0  0  0  0  0  0  0  0  0  0  0
   11.3548   -6.8065    0.0000 C   0  0  0  0  0  0  0  0  0  0  0  0
   11.3595   -5.9816    0.0000 C   0  0  0  0  0  0  0  0  0  0  0  0
   10.6474   -5.5650    0.0000 C   0  0  0  0  0  0  0  0  0  0  0  0
    9.9306   -5.9734    0.0000 C   0  0  0  0  0  0  0  0  0  0  0  0
    9.2185   -5.5568    0.0000 O   0  0  0  0  0  0  0  0  0  0  0  0
    8.5017   -5.9652    0.0000 C   0  0  1  0  0  0  0  0  0  0  0  0
    8.4969   -6.7902    0.0000 C   0  0  1  0  0  0  0  0  0  0  0  0
    7.7801   -7.1986    0.0000 C   0  0  2  0  0  0  0  0  0  0  0  0
    7.0680   -6.7821    0.0000 C   0  0  1  0  0  0  0  0  0  0  0  0
    7.0727   -5.9571    0.0000 C   0  0  2  0  0  0  0  0  0  0  0  0
    7.7895   -5.5487    0.0000 O   0  0  0  0  0  0  0  0  0  0  0  0
    6.3606   -5.5405    0.0000 C   0  0  0  0  0  0  0  0  0  0  0  0
    3.4981   -6.3492    0.0000 O   0  0  0  0  0  0  0  0  0  0  0  0
    1.3665   -4.2745    0.0000 O   0  0  0  0  0  0  0  0  0  0  0  0
    2.7860   -5.9326    0.0000 C   0  0  0  0  0  0  0  0  0  0  0  0
    2.0739   -5.5161    0.0000 C   0  0  0  0  0  0  0  0  0  0  0  0
    2.0786   -4.6911    0.0000 C   0  0  0  0  0  0  0  0  0  0  0  0
    2.7954   -4.2827    0.0000 C   0  0  0  0  0  0  0  0  0  0  0  0
    3.5075   -4.6992    0.0000 C   0  0  0  0  0  0  0  0  0  0  0  0
    3.5028   -5.5242    0.0000 C   0  0  0  0  0  0  0  0  0  0  0  0
    5.6438   -5.9489    0.0000 O   0  0  0  0  0  0  0  0  0  0  0  0
    4.9364   -4.7074    0.0000 O   0  0  0  0  0  0  0  0  0  0  0  0
    4.2149   -5.9408    0.0000 C   0  0  0  0  0  0  0  0  0  0  0  0
    4.9317   -5.5324    0.0000 C   0  0  0  0  0  0  0  0  0  0  0  0
 30 21  1  0  0  0  0
 19 21  1  1  0  0  0
 18  1  1  6  0  0  0
 17  2  1  1  0  0  0
 16  3  1  6  0  0  0
 15 14  1  1  0  0  0
 12 11  1  0  0  0  0
 11  4  1  0  0  0  0
  8  5  2  0  0  0  0
 11  6  1  0  0  0  0
  7  6  2  0  0  0  0
  8  7  1  0  0  0  0
  9  8  1  0  0  0  0
 10  9  2  0  0  0  0
 11 10  1  0  0  0  0
 14 13  1  0  0  0  0
 13 12  1  0  0  0  0
 20 15  1  0  0  0  0
 16 15  1  0  0  0  0
 17 16  1  0  0  0  0
 18 17  1  0  0  0  0
 19 18  1  0  0  0  0
 20 19  1  0  0  0  0
 32 29  1  0  0  0  0
 29 22  1  0  0  0  0
 26 23  2  0  0  0  0
 29 24  1  0  0  0  0
 25 24  2  0  0  0  0
 26 25  1  0  0  0  0
 27 26  1  0  0  0  0
 28 27  2  0  0  0  0
 29 28  1  0  0  0  0
 33 30  1  0  0  0  0
 33 31  2  0  0  0  0
 33 32  1  0  0  0  0
M  END
>  <cdx:fragmentId>
2289

$$$$
