301301.cdx
  Mrv1902 05222410272D          

 36 40  0  0  0  0            999 V2000
    5.9316   -7.0924    0.0000 C   0  0  0  0  0  0  0  0  0  0  0  0
    5.2171   -7.5049    0.0000 C   0  0  0  0  0  0  0  0  0  0  0  0
    5.2171   -8.3299    0.0000 C   0  0  2  0  0  0  0  0  0  0  0  0
    5.9316   -8.7424    0.0000 C   0  0  0  0  0  0  0  0  0  0  0  0
    6.6461   -8.3299    0.0000 C   0  0  2  0  0  0  0  0  0  0  0  0
    7.3606   -8.7424    0.0000 C   0  0  0  0  0  0  0  0  0  0  0  0
    8.0750   -8.3299    0.0000 C   0  0  0  0  0  0  0  0  0  0  0  0
    8.0750   -7.5049    0.0000 C   0  0  1  0  0  0  0  0  0  0  0  0
    8.7895   -7.0924    0.0000 C   0  0  2  0  0  0  0  0  0  0  0  0
    9.5741   -7.3474    0.0000 C   0  0  0  0  0  0  0  0  0  0  0  0
   10.0590   -6.6799    0.0000 C   0  0  0  0  0  0  0  0  0  0  0  0
    9.5741   -6.0125    0.0000 C   0  0  1  0  0  0  0  0  0  0  0  0
    8.7895   -6.2674    0.0000 C   0  0  1  0  0  0  0  0  0  0  0  0
    8.0750   -5.8549    0.0000 C   0  0  0  0  0  0  0  0  0  0  0  0
    7.3606   -6.2674    0.0000 C   0  0  0  0  0  0  0  0  0  0  0  0
    7.3606   -7.0924    0.0000 C   0  0  2  0  0  0  0  0  0  0  0  0
    6.6461   -7.5049    0.0000 C   0  0  1  0  0  0  0  0  0  0  0  0
    7.3606   -9.5674    0.0000 O   0  0  0  0  0  0  0  0  0  0  0  0
    8.8757   -5.4470    0.0000 C   0  0  0  0  0  0  0  0  0  0  0  0
    6.6461   -6.6799    0.0000 C   0  0  0  0  0  0  0  0  0  0  0  0
   10.6360   -5.0564    0.0000 C   0  0  0  0  0  0  0  0  0  0  0  0
   11.1881   -5.6695    0.0000 C   0  0  0  0  0  0  0  0  0  0  0  0
   11.9950   -5.4979    0.0000 C   0  0  0  0  0  0  0  0  0  0  0  0
   12.2500   -4.7133    0.0000 C   0  0  0  0  0  0  0  0  0  0  0  0
   11.6979   -4.1002    0.0000 C   0  0  0  0  0  0  0  0  0  0  0  0
   10.8910   -4.2717    0.0000 N   0  0  0  0  0  0  0  0  0  0  0  0
   13.0569   -4.5418    0.0000 C   0  0  0  0  0  0  0  0  0  0  0  0
   10.9331   -6.4541    0.0000 O   0  0  0  0  0  0  0  0  0  0  0  0
    4.5027   -8.7424    0.0000 O   0  0  0  0  0  0  0  0  0  0  0  0
    6.6461   -9.1549    0.0000 H   0  0  0  0  0  0  0  0  0  0  0  0
    8.0750   -6.6799    0.0000 H   0  0  0  0  0  0  0  0  0  0  0  0
    7.3606   -7.9174    0.0000 H   0  0  0  0  0  0  0  0  0  0  0  0
    8.7895   -7.9174    0.0000 H   0  0  0  0  0  0  0  0  0  0  0  0
    9.2770   -4.6148    0.0000 C   0  0  0  0  0  0  0  0  0  0  0  0
    9.8291   -5.2279    0.0000 C   0  0  1  0  0  0  0  0  0  0  0  0
   10.3710   -5.7990    0.0000 H   0  0  0  0  0  0  0  0  0  0  0  0
 35 21  1  0  0  0  0
 35 34  1  6  0  0  0
  1  2  1  0  0  0  0
  2  3  1  0  0  0  0
  3  4  1  0  0  0  0
  4  5  1  0  0  0  0
  5  6  1  0  0  0  0
  6  7  1  0  0  0  0
  7  8  1  0  0  0  0
  8  9  1  0  0  0  0
  9 10  1  0  0  0  0
 10 11  1  0  0  0  0
 12 11  1  0  0  0  0
 12 13  1  0  0  0  0
  9 13  1  0  0  0  0
 13 14  1  0  0  0  0
 14 15  1  0  0  0  0
 15 16  1  0  0  0  0
  8 16  1  0  0  0  0
 16 17  1  0  0  0  0
  5 17  1  0  0  0  0
  1 17  1  0  0  0  0
  6 18  2  0  0  0  0
 13 19  1  1  0  0  0
 17 20  1  1  0  0  0
 21 22  1  0  0  0  0
 22 23  2  0  0  0  0
 23 24  1  0  0  0  0
 24 25  2  0  0  0  0
 25 26  1  0  0  0  0
 21 26  2  0  0  0  0
 24 27  1  0  0  0  0
 22 28  1  0  0  0  0
 12 35  1  0  0  0  0
  3 29  1  6  0  0  0
  5 30  1  6  0  0  0
  8 31  1  1  0  0  0
 16 32  1  6  0  0  0
  9 33  1  6  0  0  0
 12 36  1  6  0  0  0
M  END
>  <cdx:fragmentId>
98

$$$$
