301322.cdx
  Mrv1902 05222410202D          

 11 11  0  0  0  0            999 V2000
    5.6732   -6.4971    0.0000 C   0  0  0  0  0  0  0  0  0  0  0  0
    4.9587   -6.9096    0.0000 O   0  0  0  0  0  0  0  0  0  0  0  0
    6.3877   -6.9096    0.0000 O   0  0  0  0  0  0  0  0  0  0  0  0
    7.1021   -6.4971    0.0000 C   0  0  0  0  0  0  0  0  0  0  0  0
    7.8166   -6.9096    0.0000 C   0  0  0  0  0  0  0  0  0  0  0  0
    8.5311   -6.4971    0.0000 C   0  0  0  0  0  0  0  0  0  0  0  0
    8.5311   -5.6721    0.0000 C   0  0  0  0  0  0  0  0  0  0  0  0
    9.2456   -5.2596    0.0000 C   0  0  0  0  0  0  0  0  0  0  0  0
    9.9600   -5.6721    0.0000 C   0  0  0  0  0  0  0  0  0  0  0  0
    9.9600   -6.4971    0.0000 C   0  0  0  0  0  0  0  0  0  0  0  0
    9.2456   -6.9096    0.0000 C   0  0  0  0  0  0  0  0  0  0  0  0
  1  2  2  0  0  0  0
  1  3  1  0  0  0  0
  4  5  1  0  0  0  0
  6  7  1  0  0  0  0
  7  8  2  0  0  0  0
  8  9  1  0  0  0  0
  9 10  2  0  0  0  0
 10 11  1  0  0  0  0
  6 11  2  0  0  0  0
  5  6  1  0  0  0  0
  3  4  1  0  0  0  0
M  END
>  <cdx:groupId>
2098

>  <cdx:fragmentId>
2078

$$$$
