301340.cdx
  Mrv1902 05222410222D          

 35 39  0  0  0  0            999 V2000
    8.8539   -4.5550    0.0000 C   0  0  1  0  0  0  0  0  0  0  0  0
    9.5684   -4.1425    0.0000 C   0  0  0  0  0  0  0  0  0  0  0  0
   10.2829   -4.5550    0.0000 C   0  0  0  0  0  0  0  0  0  0  0  0
   10.2829   -5.3800    0.0000 C   0  0  0  0  0  0  0  0  0  0  0  0
    9.5684   -5.7925    0.0000 C   0  0  2  0  0  0  0  0  0  0  0  0
    9.5684   -6.6175    0.0000 C   0  0  0  0  0  0  0  0  0  0  0  0
    8.8539   -7.0300    0.0000 C   0  0  0  0  0  0  0  0  0  0  0  0
    8.1395   -6.6175    0.0000 C   0  0  2  0  0  0  0  0  0  0  0  0
    7.4250   -7.0300    0.0000 C   0  0  0  0  0  0  0  0  0  0  0  0
    7.4250   -7.8550    0.0000 C   0  0  0  0  0  0  0  0  0  0  0  0
    6.7105   -8.2675    0.0000 C   0  0  0  0  0  0  0  0  0  0  0  0
    5.9961   -7.8550    0.0000 C   0  0  0  0  0  0  0  0  0  0  0  0
    5.2816   -8.2675    0.0000 C   0  0  0  0  0  0  0  0  0  0  0  0
    4.5671   -7.8550    0.0000 C   0  0  0  0  0  0  0  0  0  0  0  0
    4.5671   -7.0300    0.0000 C   0  0  0  0  0  0  0  0  0  0  0  0
    5.2816   -6.6175    0.0000 C   0  0  0  0  0  0  0  0  0  0  0  0
    5.9961   -7.0300    0.0000 C   0  0  2  0  0  0  0  0  0  0  0  0
    6.7105   -6.6175    0.0000 C   0  0  0  0  0  0  0  0  0  0  0  0
    6.7105   -5.7925    0.0000 C   0  0  0  0  0  0  0  0  0  0  0  0
    7.4250   -5.3800    0.0000 C   0  0  0  0  0  0  0  0  0  0  0  0
    8.1395   -5.7925    0.0000 C   0  0  0  0  0  0  0  0  0  0  0  0
    8.8539   -5.3800    0.0000 C   0  0  0  0  0  0  0  0  0  0  0  0
   10.2829   -6.2050    0.0000 C   0  0  0  0  0  0  0  0  0  0  0  0
   10.2829   -7.0300    0.0000 O   0  0  0  0  0  0  0  0  0  0  0  0
   10.9974   -5.7925    0.0000 O   0  0  0  0  0  0  0  0  0  0  0  0
    3.8526   -8.2675    0.0000 O   0  0  0  0  0  0  0  0  0  0  0  0
    5.9961   -6.2050    0.0000 C   0  0  0  0  0  0  0  0  0  0  0  0
    5.6941   -8.9819    0.0000 C   0  0  0  0  0  0  0  0  0  0  0  0
    4.8691   -8.9819    0.0000 C   0  0  0  0  0  0  0  0  0  0  0  0
    8.1395   -7.4425    0.0000 C   0  0  0  0  0  0  0  0  0  0  0  0
    9.5684   -3.3175    0.0000 C   0  0  0  0  0  0  0  0  0  0  0  0
    8.4414   -3.8405    0.0000 C   0  0  0  0  0  0  0  0  0  0  0  0
    3.8526   -6.6175    0.0000 O   0  0  0  0  0  0  0  0  0  0  0  0
    8.0289   -4.5550    0.0000 O   0  0  0  0  0  0  0  0  0  0  0  0
    8.0084   -7.6133    0.0000 C   0  0  0  0  0  0  0  0  0  0  0  0
  1  2  1  0  0  0  0
  2  3  1  0  0  0  0
  3  4  1  0  0  0  0
  4  5  1  0  0  0  0
  5  6  1  0  0  0  0
  6  7  1  0  0  0  0
  7  8  1  0  0  0  0
  8  9  1  0  0  0  0
  9 10  1  0  0  0  0
 10 11  1  0  0  0  0
 11 12  1  0  0  0  0
 12 13  1  0  0  0  0
 13 14  1  0  0  0  0
 14 15  1  0  0  0  0
 15 16  2  0  0  0  0
 16 17  1  0  0  0  0
 12 17  1  0  0  0  0
 17 18  1  0  0  0  0
  9 18  1  0  0  0  0
 18 19  1  0  0  0  0
 19 20  1  0  0  0  0
 20 21  2  0  0  0  0
  8 21  1  0  0  0  0
 21 22  1  0  0  0  0
  5 22  1  0  0  0  0
  1 22  1  0  0  0  0
 23 24  2  0  0  0  0
 23 25  1  0  0  0  0
  5 23  1  1  0  0  0
 14 26  2  0  0  0  0
 17 27  1  1  0  0  0
 13 28  1  0  0  0  0
 13 29  1  0  0  0  0
  8 30  1  1  0  0  0
  2 31  1  0  0  0  0
  1 32  1  1  0  0  0
 15 33  1  0  0  0  0
  1 34  1  6  0  0  0
  9 35  1  0  0  0  0
M  END
>  <cdx:groupId>
2883

>  <cdx:fragmentId>
2777

$$$$
