301358.cdx
  Mrv1902 05222410232D          

 14 14  0  0  0  0            999 V2000
    5.2319   -6.6413    0.0000 C   0  0  0  0  0  0  0  0  0  0  0  0
    6.0569   -6.6413    0.0000 C   0  0  0  0  0  0  0  0  0  0  0  0
    6.3118   -5.8566    0.0000 C   0  0  0  0  0  0  0  0  0  0  0  0
    5.6444   -5.3717    0.0000 C   0  0  0  0  0  0  0  0  0  0  0  0
    4.9769   -5.8566    0.0000 C   0  0  0  0  0  0  0  0  0  0  0  0
    4.6485   -7.2246    0.0000 O   0  0  0  0  0  0  0  0  0  0  0  0
    6.8952   -5.2733    0.0000 C   0  0  0  0  0  0  0  0  0  0  0  0
    6.7713   -7.0537    0.0000 C   0  0  0  0  0  0  0  0  0  0  0  0
    7.4858   -6.6413    0.0000 C   0  0  0  0  0  0  0  0  0  0  0  0
    7.4858   -5.8163    0.0000 C   0  0  0  0  0  0  0  0  0  0  0  0
    8.2003   -5.4037    0.0000 C   0  0  0  0  0  0  0  0  0  0  0  0
    8.9148   -5.8163    0.0000 C   0  0  0  0  0  0  0  0  0  0  0  0
    9.6292   -5.4037    0.0000 C   0  0  0  0  0  0  0  0  0  0  0  0
    8.9148   -6.6413    0.0000 O   0  0  0  0  0  0  0  0  0  0  0  0
  1  2  1  0  0  0  0
  2  3  2  0  0  0  0
  3  4  1  0  0  0  0
  4  5  1  0  0  0  0
  5  1  1  0  0  0  0
  1  6  2  0  0  0  0
  3  7  1  0  0  0  0
  2  8  1  0  0  0  0
  8  9  2  0  0  0  0
  9 10  1  0  0  0  0
 10 11  1  0  0  0  0
 11 12  1  0  0  0  0
 12 13  1  0  0  0  0
 12 14  2  0  0  0  0
M  END
>  <cdx:fragmentId>
126

$$$$
