30136.cdx
  Mrv1902 05222410182D          

 12 13  0  0  0  0            999 V2000
    6.8181  -11.9339    0.0000 C   0  0  0  0  0  0  0  0  0  0  0  0
    6.8181  -12.7589    0.0000 C   0  0  0  0  0  0  0  0  0  0  0  0
    7.5325  -13.1714    0.0000 C   0  0  0  0  0  0  0  0  0  0  0  0
    8.2470  -12.7589    0.0000 C   0  0  0  0  0  0  0  0  0  0  0  0
    8.2470  -11.9339    0.0000 C   0  0  0  0  0  0  0  0  0  0  0  0
    7.5325  -11.5214    0.0000 C   0  0  0  0  0  0  0  0  0  0  0  0
    7.5325  -10.6964    0.0000 C   0  0  0  0  0  0  0  0  0  0  0  0
    8.2000  -10.2115    0.0000 C   0  0  0  0  0  0  0  0  0  0  0  0
    7.9450   -9.4269    0.0000 C   0  0  0  0  0  0  0  0  0  0  0  0
    7.1200   -9.4269    0.0000 C   0  0  0  0  0  0  0  0  0  0  0  0
    6.8651  -10.2115    0.0000 C   0  0  0  0  0  0  0  0  0  0  0  0
    8.4299   -8.7594    0.0000 C   0  0  0  0  0  0  0  0  0  0  0  0
  1  2  2  0  0  0  0
  2  3  1  0  0  0  0
  3  4  2  0  0  0  0
  4  5  1  0  0  0  0
  5  6  2  0  0  0  0
  6  1  1  0  0  0  0
  6  7  1  0  0  0  0
  7  8  1  0  0  0  0
  8  9  1  0  0  0  0
  9 10  1  0  0  0  0
 10 11  1  0  0  0  0
 11  7  1  0  0  0  0
  9 12  1  0  0  0  0
M  END
>  <cdx:fragmentId>
5

$$$$
