301355.cdx
  Mrv1902 05222410232D          

 43 46  0  0  0  0            999 V2000
   11.2776   -3.7928    0.0000 C   0  0  0  0  0  0  0  0  0  0  0  0
   10.4706   -3.9643    0.0000 C   0  0  0  0  0  0  0  0  0  0  0  0
   10.2157   -4.7489    0.0000 C   0  0  0  0  0  0  0  0  0  0  0  0
    9.4087   -4.9205    0.0000 C   0  0  0  0  0  0  0  0  0  0  0  0
    9.1538   -5.7051    0.0000 C   0  0  0  0  0  0  0  0  0  0  0  0
    8.3468   -5.8766    0.0000 C   0  0  1  0  0  0  0  0  0  0  0  0
    7.7947   -5.2635    0.0000 C   0  0  0  0  0  0  0  0  0  0  0  0
   11.5325   -3.0082    0.0000 O   0  0  0  0  0  0  0  0  0  0  0  0
   11.8296   -4.4059    0.0000 O   0  0  0  0  0  0  0  0  0  0  0  0
    8.8567   -4.3074    0.0000 O   0  0  0  0  0  0  0  0  0  0  0  0
    9.9186   -3.3512    0.0000 C   0  0  0  0  0  0  0  0  0  0  0  0
    4.4493   -7.7412    0.0000 C   0  0  0  0  0  0  0  0  0  0  0  0
    3.7349   -8.1537    0.0000 C   0  0  0  0  0  0  0  0  0  0  0  0
    3.7349   -8.9787    0.0000 C   0  0  1  0  0  0  0  0  0  0  0  0
    4.4493   -9.3912    0.0000 C   0  0  0  0  0  0  0  0  0  0  0  0
    5.1638   -8.9787    0.0000 C   0  0  2  0  0  0  0  0  0  0  0  0
    5.8783   -9.3912    0.0000 C   0  0  0  0  0  0  0  0  0  0  0  0
    6.5927   -8.9787    0.0000 C   0  0  1  0  0  0  0  0  0  0  0  0
    6.5927   -8.1537    0.0000 C   0  0  0  0  0  0  0  0  0  0  0  0
    7.3072   -7.7412    0.0000 C   0  0  2  0  0  0  0  0  0  0  0  0
    8.0918   -7.9961    0.0000 C   0  0  0  0  0  0  0  0  0  0  0  0
    8.5768   -7.3287    0.0000 C   0  0  0  0  0  0  0  0  0  0  0  0
    8.0918   -6.6612    0.0000 C   0  0  1  0  0  0  0  0  0  0  0  0
    7.3072   -6.9162    0.0000 C   0  0  1  0  0  0  0  0  0  0  0  0
    6.5927   -6.5037    0.0000 C   0  0  1  0  0  0  0  0  0  0  0  0
    5.8783   -6.9162    0.0000 C   0  0  0  0  0  0  0  0  0  0  0  0
    5.8783   -7.7412    0.0000 C   0  0  0  0  0  0  0  0  0  0  0  0
    5.1638   -8.1537    0.0000 C   0  0  1  0  0  0  0  0  0  0  0  0
    8.3468   -8.7807    0.0000 O   0  0  0  0  0  0  0  0  0  0  0  0
    5.1638   -6.5037    0.0000 O   0  0  0  0  0  0  0  0  0  0  0  0
    7.3072   -8.5662    0.0000 C   0  0  0  0  0  0  0  0  0  0  0  0
    7.3072   -6.0912    0.0000 C   0  0  0  0  0  0  0  0  0  0  0  0
    5.1638   -7.3287    0.0000 C   0  0  0  0  0  0  0  0  0  0  0  0
    4.8618  -10.1057    0.0000 C   0  0  0  0  0  0  0  0  0  0  0  0
    4.0368  -10.1057    0.0000 C   0  0  0  0  0  0  0  0  0  0  0  0
    7.3072   -9.3912    0.0000 O   0  0  0  0  0  0  0  0  0  0  0  0
    3.0204   -9.3912    0.0000 O   0  0  0  0  0  0  0  0  0  0  0  0
    6.5927   -5.6787    0.0000 O   0  0  0  0  0  0  0  0  0  0  0  0
    5.8783   -5.2662    0.0000 C   0  0  0  0  0  0  0  0  0  0  0  0
    5.8783   -4.4412    0.0000 O   0  0  0  0  0  0  0  0  0  0  0  0
    5.1638   -5.6787    0.0000 C   0  0  0  0  0  0  0  0  0  0  0  0
    5.1638   -9.8037    0.0000 H   0  0  0  0  0  0  0  0  0  0  0  0
    8.8765   -6.4063    0.0000 H   0  0  0  0  0  0  0  0  0  0  0  0
  1  2  1  0  0  0  0
  2  3  1  0  0  0  0
  3  4  1  0  0  0  0
  4  5  1  0  0  0  0
  5  6  1  0  0  0  0
  6  7  1  6  0  0  0
  1  8  1  0  0  0  0
  1  9  2  0  0  0  0
  4 10  2  0  0  0  0
  2 11  1  0  0  0  0
 12 13  1  0  0  0  0
 13 14  1  0  0  0  0
 14 15  1  0  0  0  0
 15 16  1  0  0  0  0
 16 17  1  0  0  0  0
 17 18  1  0  0  0  0
 18 19  1  0  0  0  0
 19 20  1  0  0  0  0
 20 21  1  0  0  0  0
 21 22  1  0  0  0  0
 23 22  1  0  0  0  0
 23 24  1  0  0  0  0
 20 24  1  0  0  0  0
 24 25  1  0  0  0  0
 25 26  1  0  0  0  0
 26 27  1  0  0  0  0
 19 27  2  0  0  0  0
 27 28  1  0  0  0  0
 16 28  1  0  0  0  0
 12 28  1  0  0  0  0
 21 29  2  0  0  0  0
 26 30  2  0  0  0  0
 20 31  1  6  0  0  0
 24 32  1  1  0  0  0
 28 33  1  1  0  0  0
 15 34  1  0  0  0  0
 15 35  1  0  0  0  0
 18 36  1  1  0  0  0
 14 37  1  1  0  0  0
 39 40  2  0  0  0  0
 39 41  1  0  0  0  0
 38 39  1  0  0  0  0
 25 38  1  1  0  0  0
  6 23  1  0  0  0  0
 16 42  1  6  0  0  0
 23 43  1  6  0  0  0
M  END
>  <cdx:fragmentId>
4296

$$$$
