30132.cdx
  Mrv1902 05222410202D          

 32 34  0  0  0  0            999 V2000
    4.3293   -7.3964    0.0000 C   0  0  0  0  0  0  0  0  0  0  0  0
    4.3293   -8.2214    0.0000 C   0  0  0  0  0  0  0  0  0  0  0  0
    5.0438   -8.6339    0.0000 C   0  0  0  0  0  0  0  0  0  0  0  0
    5.7582   -8.2214    0.0000 C   0  0  0  0  0  0  0  0  0  0  0  0
    5.7582   -7.3964    0.0000 C   0  0  0  0  0  0  0  0  0  0  0  0
    5.0438   -6.9839    0.0000 C   0  0  0  0  0  0  0  0  0  0  0  0
    6.4727   -8.6339    0.0000 C   0  0  0  0  0  0  0  0  0  0  0  0
    7.1872   -8.2214    0.0000 C   0  0  0  0  0  0  0  0  0  0  0  0
    7.1872   -7.3964    0.0000 C   0  0  2  0  0  0  0  0  0  0  0  0
    6.4727   -6.9839    0.0000 O   0  0  0  0  0  0  0  0  0  0  0  0
    8.6161   -8.2214    0.0000 O   0  0  0  0  0  0  0  0  0  0  0  0
    8.6161   -7.3964    0.0000 C   0  0  0  0  0  0  0  0  0  0  0  0
    7.9017   -6.9839    0.0000 C   0  0  0  0  0  0  0  0  0  0  0  0
    9.3306   -6.9839    0.0000 C   0  0  0  0  0  0  0  0  0  0  0  0
    9.3306   -6.1589    0.0000 C   0  0  0  0  0  0  0  0  0  0  0  0
    8.6161   -5.7464    0.0000 C   0  0  0  0  0  0  0  0  0  0  0  0
    7.9017   -6.1589    0.0000 C   0  0  0  0  0  0  0  0  0  0  0  0
    3.6148   -8.6339    0.0000 C   0  0  0  0  0  0  0  0  0  0  0  0
    3.6148   -9.4589    0.0000 C   0  0  0  0  0  0  0  0  0  0  0  0
    5.0438   -9.4589    0.0000 O   0  0  0  0  0  0  0  0  0  0  0  0
    5.7582   -5.7464    0.0000 C   0  0  0  0  0  0  0  0  0  0  0  0
    5.0438   -6.1589    0.0000 C   0  0  0  0  0  0  0  0  0  0  0  0
    7.1872   -5.7464    0.0000 O   0  0  0  0  0  0  0  0  0  0  0  0
    5.7582   -4.9214    0.0000 C   0  0  0  0  0  0  0  0  0  0  0  0
    6.4727   -4.5089    0.0000 C   0  0  0  0  0  0  0  0  0  0  0  0
    5.0438   -4.5089    0.0000 C   0  0  0  0  0  0  0  0  0  0  0  0
    3.6148   -6.9839    0.0000 O   0  0  0  0  0  0  0  0  0  0  0  0
    2.9004   -9.8714    0.0000 C   0  0  0  0  0  0  0  0  0  0  0  0
    2.1859   -9.4589    0.0000 C   0  0  0  0  0  0  0  0  0  0  0  0
    2.9004  -10.6964    0.0000 C   0  0  0  0  0  0  0  0  0  0  0  0
    6.4727   -9.4589    0.0000 O   0  0  0  0  0  0  0  0  0  0  0  0
    7.1872   -6.5714    0.0000 H   0  0  0  0  0  0  0  0  0  0  0  0
  1  2  2  0  0  0  0
  2  3  1  0  0  0  0
  3  4  2  0  0  0  0
  4  5  1  0  0  0  0
  5  6  2  0  0  0  0
  6  1  1  0  0  0  0
  4  7  1  0  0  0  0
  7  8  1  0  0  0  0
  8  9  1  0  0  0  0
  9 10  1  0  0  0  0
 10  5  1  0  0  0  0
 11 12  1  0  0  0  0
 12 13  2  0  0  0  0
  9 13  1  6  0  0  0
 12 14  1  0  0  0  0
 14 15  2  0  0  0  0
 15 16  1  0  0  0  0
 16 17  2  0  0  0  0
 17 13  1  0  0  0  0
  2 18  1  0  0  0  0
 18 19  1  0  0  0  0
 20  3  1  0  0  0  0
 21 22  1  0  0  0  0
 22  6  1  0  0  0  0
 17 23  1  0  0  0  0
 21 24  2  0  0  0  0
 24 25  1  0  0  0  0
 24 26  1  0  0  0  0
  1 27  1  0  0  0  0
 19 28  2  0  0  0  0
 28 29  1  0  0  0  0
 28 30  1  0  0  0  0
  7 31  2  0  0  0  0
  9 32  1  1  0  0  0
M  END
>  <cdx:fragmentId>
5

$$$$
