301344.cdx
  Mrv1902 05222410212D          

 34 36  0  0  0  0            999 V2000
    6.3533   -7.8116    0.0000 O   0  0  0  0  0  0  0  0  0  0  0  0
    5.6388   -8.2241    0.0000 C   0  0  1  0  0  0  0  0  0  0  0  0
    5.6388   -9.0491    0.0000 C   0  0  1  0  0  0  0  0  0  0  0  0
    6.3533   -9.4616    0.0000 C   0  0  1  0  0  0  0  0  0  0  0  0
    7.0678   -9.0491    0.0000 C   0  0  2  0  0  0  0  0  0  0  0  0
    7.0678   -8.2241    0.0000 C   0  0  1  0  0  0  0  0  0  0  0  0
    4.9244   -9.4616    0.0000 O   0  0  0  0  0  0  0  0  0  0  0  0
    6.3533  -10.2866    0.0000 O   0  0  0  0  0  0  0  0  0  0  0  0
    7.7822   -9.4616    0.0000 O   0  0  0  0  0  0  0  0  0  0  0  0
    7.7822   -7.8116    0.0000 O   0  0  0  0  0  0  0  0  0  0  0  0
    7.7822   -6.9866    0.0000 C   0  0  0  0  0  0  0  0  0  0  0  0
    9.2112   -6.9866    0.0000 O   0  0  0  0  0  0  0  0  0  0  0  0
    8.4967   -6.5741    0.0000 C   0  0  1  0  0  0  0  0  0  0  0  0
    8.4967   -5.7491    0.0000 C   0  0  2  0  0  0  0  0  0  0  0  0
    9.2112   -5.3366    0.0000 C   0  0  1  0  0  0  0  0  0  0  0  0
    9.9256   -5.7491    0.0000 C   0  0  1  0  0  0  0  0  0  0  0  0
    9.9256   -6.5741    0.0000 C   0  0  2  0  0  0  0  0  0  0  0  0
    7.7822   -5.3366    0.0000 O   0  0  0  0  0  0  0  0  0  0  0  0
    8.4967   -4.0991    0.0000 O   0  0  0  0  0  0  0  0  0  0  0  0
    7.7822   -4.5116    0.0000 C   0  0  2  0  0  0  0  0  0  0  0  0
    7.0678   -4.0991    0.0000 C   0  0  2  0  0  0  0  0  0  0  0  0
    7.0678   -3.2741    0.0000 C   0  0  2  0  0  0  0  0  0  0  0  0
    7.7822   -2.8616    0.0000 C   0  0  1  0  0  0  0  0  0  0  0  0
    8.4967   -3.2741    0.0000 C   0  0  1  0  0  0  0  0  0  0  0  0
    9.2112   -2.8616    0.0000 C   0  0  0  0  0  0  0  0  0  0  0  0
    9.9256   -3.2741    0.0000 O   0  0  0  0  0  0  0  0  0  0  0  0
    7.7822   -2.0366    0.0000 O   0  0  0  0  0  0  0  0  0  0  0  0
    6.3533   -2.8616    0.0000 O   0  0  0  0  0  0  0  0  0  0  0  0
    6.3533   -4.5116    0.0000 O   0  0  0  0  0  0  0  0  0  0  0  0
   10.6401   -6.9866    0.0000 O   0  0  0  0  0  0  0  0  0  0  0  0
   10.6401   -5.3366    0.0000 O   0  0  0  0  0  0  0  0  0  0  0  0
    9.2112   -4.5116    0.0000 O   0  0  0  0  0  0  0  0  0  0  0  0
    4.9244   -7.8116    0.0000 C   0  0  0  0  0  0  0  0  0  0  0  0
    4.2099   -8.2241    0.0000 O   0  0  0  0  0  0  0  0  0  0  0  0
  1  2  1  0  0  0  0
  2  3  1  0  0  0  0
  3  4  1  0  0  0  0
  4  5  1  0  0  0  0
  5  6  1  0  0  0  0
  1  6  1  0  0  0  0
  3  7  1  1  0  0  0
  4  8  1  1  0  0  0
  5  9  1  6  0  0  0
 10 11  1  0  0  0  0
 12 13  1  0  0  0  0
 13 14  1  0  0  0  0
 14 15  1  0  0  0  0
 15 16  1  0  0  0  0
 16 17  1  0  0  0  0
 12 17  1  0  0  0  0
 19 20  1  0  0  0  0
 20 21  1  0  0  0  0
 21 22  1  0  0  0  0
 22 23  1  0  0  0  0
 23 24  1  0  0  0  0
 19 24  1  0  0  0  0
 25 26  1  0  0  0  0
 24 25  1  1  0  0  0
 23 27  1  6  0  0  0
 22 28  1  1  0  0  0
 21 29  1  1  0  0  0
 20 18  1  1  0  0  0
 14 18  1  1  0  0  0
 17 30  1  6  0  0  0
 16 31  1  6  0  0  0
 15 32  1  6  0  0  0
 13 11  1  6  0  0  0
  6 10  1  6  0  0  0
 33 34  1  0  0  0  0
  2 33  1  1  0  0  0
M  END
>  <cdx:groupId>
3268

>  <cdx:fragmentId>
3203

$$$$
