301399.cdx
  Mrv1902 05222410242D          

 21 21  0  0  0  0            999 V2000
    4.7132   -6.7647    0.0000 C   0  0  0  0  0  0  0  0  0  0  0  0
    5.4276   -7.1772    0.0000 C   0  0  0  0  0  0  0  0  0  0  0  0
    6.1421   -6.7647    0.0000 C   0  0  0  0  0  0  0  0  0  0  0  0
    6.8566   -7.1772    0.0000 C   0  0  1  0  0  0  0  0  0  0  0  0
    7.5710   -6.7647    0.0000 C   0  0  0  0  0  0  0  0  0  0  0  0
    4.7132   -5.9397    0.0000 O   0  0  0  0  0  0  0  0  0  0  0  0
    3.9987   -7.1772    0.0000 O   0  0  0  0  0  0  0  0  0  0  0  0
    7.5710   -5.9397    0.0000 O   0  0  0  0  0  0  0  0  0  0  0  0
    8.2855   -7.1772    0.0000 N   0  0  0  0  0  0  0  0  0  0  0  0
    9.0000   -6.7647    0.0000 C   0  0  1  0  0  0  0  0  0  0  0  0
    9.0000   -5.9397    0.0000 C   0  0  0  0  0  0  0  0  0  0  0  0
    9.7145   -5.5272    0.0000 C   0  0  0  0  0  0  0  0  0  0  0  0
    9.7145   -4.7022    0.0000 C   0  0  0  0  0  0  0  0  0  0  0  0
   10.4289   -4.2897    0.0000 C   0  0  0  0  0  0  0  0  0  0  0  0
   11.1434   -4.7022    0.0000 C   0  0  0  0  0  0  0  0  0  0  0  0
   11.1434   -5.5272    0.0000 C   0  0  0  0  0  0  0  0  0  0  0  0
   10.4289   -5.9397    0.0000 C   0  0  0  0  0  0  0  0  0  0  0  0
    9.7145   -7.1772    0.0000 C   0  0  0  0  0  0  0  0  0  0  0  0
    9.7145   -8.0022    0.0000 O   0  0  0  0  0  0  0  0  0  0  0  0
   10.4289   -6.7647    0.0000 O   0  0  0  0  0  0  0  0  0  0  0  0
    6.8566   -8.0022    0.0000 N   0  0  0  0  0  0  0  0  0  0  0  0
  1  2  1  0  0  0  0
  2  3  1  0  0  0  0
  3  4  1  0  0  0  0
  4  5  1  0  0  0  0
  1  6  2  0  0  0  0
  1  7  1  0  0  0  0
  5  8  2  0  0  0  0
 10 11  1  1  0  0  0
 12 13  1  0  0  0  0
 13 14  2  0  0  0  0
 14 15  1  0  0  0  0
 15 16  2  0  0  0  0
 16 17  1  0  0  0  0
 12 17  2  0  0  0  0
 11 12  1  0  0  0  0
 18 19  2  0  0  0  0
 18 20  1  0  0  0  0
 10 18  1  0  0  0  0
  9 10  1  0  0  0  0
  5  9  1  0  0  0  0
  4 21  1  1  0  0  0
M  END
>  <cdx:groupId>
65

>  <cdx:fragmentId>
27

$$$$
