301395.cdx
  Mrv1902 05222410222D          

 16 17  0  0  0  0            999 V2000
    9.6483   -5.1013    0.0000 C   0  0  0  0  0  0  0  0  0  0  0  0
    7.7160   -4.5532    0.0000 C   0  0  0  0  0  0  0  0  0  0  0  0
    5.2166   -7.3897    0.0000 C   0  0  0  0  0  0  0  0  0  0  0  0
    6.0415   -7.3968    0.0000 C   0  0  0  0  0  0  0  0  0  0  0  0
    6.4479   -8.1148    0.0000 C   0  0  0  0  0  0  0  0  0  0  0  0
    7.6915   -7.4109    0.0000 O   0  0  0  0  0  0  0  0  0  0  0  0
    7.2851   -6.6929    0.0000 C   0  0  2  0  0  0  0  0  0  0  0  0
    6.4601   -6.6859    0.0000 C   0  0  1  0  0  0  0  0  0  0  0  0
    6.0538   -5.9679    0.0000 C   0  0  0  0  0  0  0  0  0  0  0  0
    6.4724   -5.2570    0.0000 C   0  0  0  0  0  0  0  0  0  0  0  0
    7.2974   -5.2641    0.0000 C   0  0  2  0  0  0  0  0  0  0  0  0
    7.7037   -5.9820    0.0000 C   0  0  1  0  0  0  0  0  0  0  0  0
    8.1944   -5.3188    0.0000 C   0  0  0  0  0  0  0  0  0  0  0  0
    8.9768   -5.5805    0.0000 C   0  0  0  0  0  0  0  0  0  0  0  0
    8.9697   -6.4054    0.0000 C   0  0  0  0  0  0  0  0  0  0  0  0
    8.1829   -6.6536    0.0000 C   0  0  0  0  0  0  0  0  0  0  0  0
 14  1  1  0  0  0  0
 11  2  1  1  0  0  0
  8  4  1  6  0  0  0
  4  3  1  0  0  0  0
  5  4  1  0  0  0  0
  7  6  1  6  0  0  0
  7 12  1  0  0  0  0
 12 16  1  6  0  0  0
  8  7  1  0  0  0  0
  9  8  1  0  0  0  0
 10  9  1  0  0  0  0
 11 10  1  0  0  0  0
 12 11  1  0  0  0  0
 13 12  1  0  0  0  0
 14 13  2  0  0  0  0
 15 14  1  0  0  0  0
 16 15  1  0  0  0  0
M  END
>  <cdx:groupId>
267

>  <cdx:fragmentId>
221

$$$$
