301398.cdx
  Mrv1902 05222410242D          

 68 73  0  0  0  0            999 V2000
    8.4792   -8.5568    0.0000 O   0  0  0  0  0  0  0  0  0  0  0  0
    7.0503   -8.5576    0.0000 O   0  0  0  0  0  0  0  0  0  0  0  0
    7.7649   -8.9697    0.0000 C   0  0  2  0  0  0  0  0  0  0  0  0
    7.7654   -9.7947    0.0000 C   0  0  1  0  0  0  0  0  0  0  0  0
    7.0511  -10.2076    0.0000 C   0  0  1  0  0  0  0  0  0  0  0  0
    6.3364   -9.7954    0.0000 C   0  0  2  0  0  0  0  0  0  0  0  0
    6.3360   -8.9704    0.0000 C   0  0  2  0  0  0  0  0  0  0  0  0
    5.6222  -10.2083    0.0000 O   0  0  0  0  0  0  0  0  0  0  0  0
    6.3373  -11.4454    0.0000 O   0  0  0  0  0  0  0  0  0  0  0  0
    5.6226  -11.0333    0.0000 C   0  0  2  0  0  0  0  0  0  0  0  0
    4.9083  -11.4462    0.0000 C   0  0  1  0  0  0  0  0  0  0  0  0
    4.9088  -12.2712    0.0000 C   0  0  2  0  0  0  0  0  0  0  0  0
    5.6235  -12.6833    0.0000 C   0  0  1  0  0  0  0  0  0  0  0  0
    6.3377  -12.2704    0.0000 C   0  0  1  0  0  0  0  0  0  0  0  0
    7.0524  -12.6826    0.0000 C   0  0  0  0  0  0  0  0  0  0  0  0
    7.0528  -13.5076    0.0000 O   0  0  0  0  0  0  0  0  0  0  0  0
    7.7675  -13.9197    0.0000 C   0  0  0  0  0  0  0  0  0  0  0  0
    7.7679  -14.7447    0.0000 C   0  0  0  0  0  0  0  0  0  0  0  0
    8.4826  -15.1568    0.0000 C   0  0  0  0  0  0  0  0  0  0  0  0
    8.4818  -13.5068    0.0000 O   0  0  0  0  0  0  0  0  0  0  0  0
    8.4831  -15.9818    0.0000 C   0  0  0  0  0  0  0  0  0  0  0  0
    9.1977  -16.3939    0.0000 C   0  0  0  0  0  0  0  0  0  0  0  0
    9.1982  -17.2189    0.0000 C   0  0  0  0  0  0  0  0  0  0  0  0
    8.4839  -17.6318    0.0000 C   0  0  0  0  0  0  0  0  0  0  0  0
    7.7692  -17.2197    0.0000 C   0  0  0  0  0  0  0  0  0  0  0  0
    7.7688  -16.3947    0.0000 C   0  0  0  0  0  0  0  0  0  0  0  0
    9.9129  -17.6311    0.0000 O   0  0  0  0  0  0  0  0  0  0  0  0
    9.9133  -18.4561    0.0000 C   0  0  0  0  0  0  0  0  0  0  0  0
    8.4843  -18.4568    0.0000 O   0  0  0  0  0  0  0  0  0  0  0  0
    5.6239  -13.5083    0.0000 O   0  0  0  0  0  0  0  0  0  0  0  0
    4.1945  -12.6840    0.0000 O   0  0  0  0  0  0  0  0  0  0  0  0
    4.1937  -11.0340    0.0000 O   0  0  0  0  0  0  0  0  0  0  0  0
    5.6213   -8.5583    0.0000 C   0  0  0  0  0  0  0  0  0  0  0  0
    7.0515  -11.0326    0.0000 O   0  0  0  0  0  0  0  0  0  0  0  0
    8.4801  -10.2068    0.0000 O   0  0  0  0  0  0  0  0  0  0  0  0
    6.3351   -7.3204    0.0000 C   0  0  0  0  0  0  0  0  0  0  0  0
    5.6209   -7.7333    0.0000 C   0  0  0  0  0  0  0  0  0  0  0  0
    4.9062   -7.3212    0.0000 C   0  0  0  0  0  0  0  0  0  0  0  0
    6.3347   -6.4954    0.0000 O   0  0  0  0  0  0  0  0  0  0  0  0
    7.0498   -7.7326    0.0000 O   0  0  0  0  0  0  0  0  0  0  0  0
    4.1919   -7.7340    0.0000 C   0  0  0  0  0  0  0  0  0  0  0  0
    3.4773   -7.3219    0.0000 C   0  0  0  0  0  0  0  0  0  0  0  0
    2.7630   -7.7348    0.0000 C   0  0  0  0  0  0  0  0  0  0  0  0
    2.7634   -8.5598    0.0000 C   0  0  0  0  0  0  0  0  0  0  0  0
    3.4781   -8.9719    0.0000 C   0  0  0  0  0  0  0  0  0  0  0  0
    4.1924   -8.5590    0.0000 C   0  0  0  0  0  0  0  0  0  0  0  0
    2.0492   -8.9727    0.0000 O   0  0  0  0  0  0  0  0  0  0  0  0
    2.0483   -7.3227    0.0000 O   0  0  0  0  0  0  0  0  0  0  0  0
   12.0483   -2.3675    0.0000 O   0  0  0  0  0  0  0  0  0  0  0  0
   10.6190   -1.5432    0.0000 O   0  0  0  0  0  0  0  0  0  0  0  0
    9.9056   -3.6061    0.0000 C   0  0  0  0  0  0  0  0  0  0  0  0
    9.9051   -2.7811    0.0000 C   0  0  0  0  0  0  0  0  0  0  0  0
   10.6194   -2.3682    0.0000 C   0  0  0  0  0  0  0  0  0  0  0  0
   11.3341   -2.7803    0.0000 C   0  0  0  0  0  0  0  0  0  0  0  0
   11.3345   -3.6053    0.0000 C   0  0  0  0  0  0  0  0  0  0  0  0
   10.6203   -4.0182    0.0000 C   0  0  0  0  0  0  0  0  0  0  0  0
   10.6207   -4.8432    0.0000 C   0  0  0  0  0  0  0  0  0  0  0  0
    9.9064   -5.2561    0.0000 C   0  0  0  0  0  0  0  0  0  0  0  0
    9.9069   -6.0811    0.0000 O   0  0  0  0  0  0  0  0  0  0  0  0
    9.9077   -7.7311    0.0000 O   0  0  0  0  0  0  0  0  0  0  0  0
    7.0485   -5.2576    0.0000 O   0  0  0  0  0  0  0  0  0  0  0  0
    7.0490   -6.0826    0.0000 C   0  0  0  0  0  0  0  0  0  0  0  0
    9.1926   -6.4939    0.0000 C   0  0  1  0  0  0  0  0  0  0  0  0
    9.1930   -7.3189    0.0000 C   0  0  1  0  0  0  0  0  0  0  0  0
    8.4788   -7.7318    0.0000 C   0  0  2  0  0  0  0  0  0  0  0  0
    7.7641   -7.3197    0.0000 C   0  0  1  0  0  0  0  0  0  0  0  0
    7.7637   -6.4947    0.0000 C   0  0  2  0  0  0  0  0  0  0  0  0
    8.4779   -6.0818    0.0000 O   0  0  0  0  0  0  0  0  0  0  0  0
 66 40  1  6  0  0  0
 65  1  1  1  0  0  0
  2  3  1  0  0  0  0
  3  4  1  0  0  0  0
 63 59  1  1  0  0  0
 57 56  1  0  0  0  0
 54 49  1  0  0  0  0
 53 50  1  0  0  0  0
 56 51  2  0  0  0  0
 52 51  1  0  0  0  0
 53 52  2  0  0  0  0
 54 53  1  0  0  0  0
 55 54  2  0  0  0  0
 56 55  1  0  0  0  0
 59 58  1  0  0  0  0
 58 57  1  0  0  0  0
 64 60  1  6  0  0  0
 67 62  1  1  0  0  0
 62 61  1  0  0  0  0
 68 63  1  0  0  0  0
 64 63  1  0  0  0  0
 65 64  1  0  0  0  0
 66 65  1  0  0  0  0
 67 66  1  0  0  0  0
 68 67  1  0  0  0  0
  4  5  1  0  0  0  0
  5  6  1  0  0  0  0
  6  7  1  0  0  0  0
  2  7  1  0  0  0  0
  9 10  1  0  0  0  0
 10 11  1  0  0  0  0
 11 12  1  0  0  0  0
 12 13  1  0  0  0  0
 13 14  1  0  0  0  0
  9 14  1  0  0  0  0
 17 18  1  0  0  0  0
 18 19  2  0  0  0  0
 17 20  2  0  0  0  0
 21 22  1  0  0  0  0
 22 23  2  0  0  0  0
 23 24  1  0  0  0  0
 24 25  2  0  0  0  0
 25 26  1  0  0  0  0
 21 26  2  0  0  0  0
 27 28  1  0  0  0  0
 23 27  1  0  0  0  0
 24 29  1  0  0  0  0
 19 21  1  0  0  0  0
 16 17  1  0  0  0  0
 15 16  1  0  0  0  0
 14 15  1  6  0  0  0
 13 30  1  1  0  0  0
 12 31  1  6  0  0  0
 11 32  1  1  0  0  0
 10  8  1  6  0  0  0
  6  8  1  1  0  0  0
  7 33  1  6  0  0  0
  5 34  1  6  0  0  0
  4 35  1  6  0  0  0
  3  1  1  1  0  0  0
 36 37  1  0  0  0  0
 37 38  2  0  0  0  0
 36 39  2  0  0  0  0
 36 40  1  0  0  0  0
 41 42  1  0  0  0  0
 42 43  2  0  0  0  0
 43 44  1  0  0  0  0
 44 45  2  0  0  0  0
 45 46  1  0  0  0  0
 41 46  2  0  0  0  0
 44 47  1  0  0  0  0
 43 48  1  0  0  0  0
 38 41  1  0  0  0  0
M  END
>  <cdx:fragmentId>
660

$$$$
