301349.cdx
  Mrv1902 05222410252D          

 17 17  0  0  0  0            999 V2000
    7.4250   -6.9866    0.0000 C   0  0  0  0  0  0  0  0  0  0  0  0
    6.7105   -6.5741    0.0000 C   0  0  0  0  0  0  0  0  0  0  0  0
    5.9961   -6.9866    0.0000 C   0  0  0  0  0  0  0  0  0  0  0  0
    5.2816   -6.5741    0.0000 C   0  0  0  0  0  0  0  0  0  0  0  0
    7.4250   -7.8116    0.0000 O   0  0  0  0  0  0  0  0  0  0  0  0
    8.1395   -6.5741    0.0000 C   0  0  0  0  0  0  0  0  0  0  0  0
    8.8539   -6.9866    0.0000 C   0  0  0  0  0  0  0  0  0  0  0  0
    9.5684   -6.5741    0.0000 C   0  0  0  0  0  0  0  0  0  0  0  0
    9.5684   -5.7491    0.0000 C   0  0  0  0  0  0  0  0  0  0  0  0
    8.8539   -5.3366    0.0000 C   0  0  0  0  0  0  0  0  0  0  0  0
    8.1395   -5.7491    0.0000 C   0  0  0  0  0  0  0  0  0  0  0  0
    8.8539   -4.5116    0.0000 O   0  0  0  0  0  0  0  0  0  0  0  0
   10.2829   -5.3366    0.0000 O   0  0  0  0  0  0  0  0  0  0  0  0
   10.2829   -6.9866    0.0000 O   0  0  0  0  0  0  0  0  0  0  0  0
    4.5671   -6.9866    0.0000 O   0  0  0  0  0  0  0  0  0  0  0  0
    5.9961   -7.8116    0.0000 O   0  0  0  0  0  0  0  0  0  0  0  0
    6.7105   -5.7491    0.0000 O   0  0  0  0  0  0  0  0  0  0  0  0
  1  2  1  0  0  0  0
  2  3  1  0  0  0  0
  3  4  1  0  0  0  0
  1  5  2  0  0  0  0
  6  7  1  0  0  0  0
  7  8  2  0  0  0  0
  8  9  1  0  0  0  0
  9 10  2  0  0  0  0
 10 11  1  0  0  0  0
  6 11  2  0  0  0  0
 10 12  1  0  0  0  0
  9 13  1  0  0  0  0
  8 14  1  0  0  0  0
  1  6  1  0  0  0  0
  4 15  1  0  0  0  0
  3 16  1  0  0  0  0
  2 17  1  0  0  0  0
M  END
>  <cdx:groupId>
3678

>  <cdx:fragmentId>
3640

$$$$
