301326.cdx
  Mrv1902 05222410182D          

 32 34  0  0  0  0            999 V2000
    5.6388   -5.9554    0.0000 C   0  0  0  0  0  0  0  0  0  0  0  0
    7.0678   -5.9554    0.0000 O   0  0  0  0  0  0  0  0  0  0  0  0
    6.3533   -6.3679    0.0000 C   0  0  1  0  0  0  0  0  0  0  0  0
    6.3533   -7.1929    0.0000 C   0  0  2  0  0  0  0  0  0  0  0  0
    7.0678   -7.6054    0.0000 C   0  0  1  0  0  0  0  0  0  0  0  0
    7.7822   -7.1929    0.0000 C   0  0  2  0  0  0  0  0  0  0  0  0
    7.7822   -6.3679    0.0000 C   0  0  2  0  0  0  0  0  0  0  0  0
    8.4967   -7.6054    0.0000 O   0  0  0  0  0  0  0  0  0  0  0  0
    7.0678   -8.4304    0.0000 O   0  0  0  0  0  0  0  0  0  0  0  0
    5.6388   -7.6054    0.0000 O   0  0  0  0  0  0  0  0  0  0  0  0
    8.4967   -5.9554    0.0000 O   0  0  0  0  0  0  0  0  0  0  0  0
    9.2112   -6.3679    0.0000 C   0  0  0  0  0  0  0  0  0  0  0  0
    9.9256   -5.9554    0.0000 C   0  0  0  0  0  0  0  0  0  0  0  0
   10.6401   -6.3679    0.0000 C   0  0  0  0  0  0  0  0  0  0  0  0
   11.3546   -5.9554    0.0000 C   0  0  0  0  0  0  0  0  0  0  0  0
   12.0691   -6.3679    0.0000 C   0  0  0  0  0  0  0  0  0  0  0  0
   12.0691   -7.1929    0.0000 C   0  0  0  0  0  0  0  0  0  0  0  0
   11.3546   -7.6054    0.0000 C   0  0  0  0  0  0  0  0  0  0  0  0
   10.6401   -7.1929    0.0000 C   0  0  0  0  0  0  0  0  0  0  0  0
   12.7835   -7.6054    0.0000 O   0  0  0  0  0  0  0  0  0  0  0  0
   12.7835   -5.9554    0.0000 O   0  0  0  0  0  0  0  0  0  0  0  0
    4.9244   -6.3679    0.0000 O   0  0  0  0  0  0  0  0  0  0  0  0
    3.5369   -3.8694    0.0000 C   0  0  0  0  0  0  0  0  0  0  0  0
    2.0944   -4.6705    0.0000 O   0  0  0  0  0  0  0  0  0  0  0  0
    2.0669   -6.3202    0.0000 O   0  0  0  0  0  0  0  0  0  0  0  0
    3.4819   -7.1689    0.0000 O   0  0  0  0  0  0  0  0  0  0  0  0
    3.5231   -4.6943    0.0000 C   0  0  1  0  0  0  0  0  0  0  0  0
    2.8019   -5.0948    0.0000 C   0  0  1  0  0  0  0  0  0  0  0  0
    2.7881   -5.9197    0.0000 C   0  0  2  0  0  0  0  0  0  0  0  0
    3.4956   -6.3440    0.0000 C   0  0  2  0  0  0  0  0  0  0  0  0
    4.2169   -5.9435    0.0000 C   0  0  1  0  0  0  0  0  0  0  0  0
    4.2306   -5.1186    0.0000 O   0  0  0  0  0  0  0  0  0  0  0  0
 31 22  1  1  0  0  0
 27 23  1  6  0  0  0
 28 24  1  1  0  0  0
 29 25  1  6  0  0  0
 30 26  1  6  0  0  0
 32 27  1  0  0  0  0
 28 27  1  0  0  0  0
 29 28  1  0  0  0  0
 30 29  1  0  0  0  0
 31 30  1  0  0  0  0
 32 31  1  0  0  0  0
 22  1  1  0  0  0  0
  2  3  1  0  0  0  0
  3  4  1  0  0  0  0
  4  5  1  0  0  0  0
  5  6  1  0  0  0  0
  6  7  1  0  0  0  0
  2  7  1  0  0  0  0
  6  8  1  6  0  0  0
  5  9  1  1  0  0  0
  4 10  1  6  0  0  0
 12 13  1  0  0  0  0
 11 12  1  0  0  0  0
 14 15  1  0  0  0  0
 15 16  2  0  0  0  0
 16 17  1  0  0  0  0
 17 18  2  0  0  0  0
 18 19  1  0  0  0  0
 14 19  2  0  0  0  0
 17 20  1  0  0  0  0
 16 21  1  0  0  0  0
 13 14  1  0  0  0  0
  7 11  1  1  0  0  0
  3  1  1  1  0  0  0
M  END
>  <cdx:fragmentId>
2406

$$$$
