301380.cdx
  Mrv1902 05222410222D          

 42 48  0  0  0  0            999 V2000
    6.2193  -11.4633    0.0000 H   0  0  0  0  0  0  0  0  0  0  0  0
    8.3723  -10.2342    0.0000 H   0  0  0  0  0  0  0  0  0  0  0  0
   10.0717   -8.0350    0.0000 H   0  0  0  0  0  0  0  0  0  0  0  0
   10.2293   -6.6147    0.0000 H   0  0  0  0  0  0  0  0  0  0  0  0
    7.6348   -7.6394    0.0000 H   0  0  0  0  0  0  0  0  0  0  0  0
    7.3596   -7.9342    0.0000 H   0  0  0  0  0  0  0  0  0  0  0  0
    8.4158   -4.2569    0.0000 C   0  0  0  0  0  0  0  0  0  0  0  0
   10.4961   -6.9482    0.0000 C   0  0  0  0  0  0  0  0  0  0  0  0
    6.2289   -8.9884    0.0000 C   0  0  0  0  0  0  0  0  0  0  0  0
    5.5025  -11.8717    0.0000 O   0  0  0  0  0  0  0  0  0  0  0  0
    4.0784  -11.0384    0.0000 O   0  0  0  0  0  0  0  0  0  0  0  0
    8.3651  -11.0633    0.0000 O   0  0  0  0  0  0  0  0  0  0  0  0
    8.6866   -9.9877    0.0000 O   0  0  0  0  0  0  0  0  0  0  0  0
    9.4253  -10.1198    0.0000 O   0  0  0  0  0  0  0  0  0  0  0  0
   10.4028   -8.7906    0.0000 O   0  0  0  0  0  0  0  0  0  0  0  0
   10.4051   -7.7681    0.0000 O   0  0  0  0  0  0  0  0  0  0  0  0
    7.1220   -8.5991    0.0000 C   0  0  0  0  0  0  0  0  0  0  0  0
    6.9458   -9.4050    0.0000 C   0  0  2  0  0  0  0  0  0  0  0  0
    5.7199   -9.7814    0.0000 O   0  0  0  0  0  0  0  0  0  0  0  0
    5.5073  -11.0467    0.0000 C   0  0  1  0  0  0  0  0  0  0  0  0
    4.7952  -10.6301    0.0000 C   0  0  2  0  0  0  0  0  0  0  0  0
    4.8000   -9.8051    0.0000 C   0  0  0  0  0  0  0  0  0  0  0  0
    5.5169   -9.3967    0.0000 C   0  0  0  0  0  0  0  0  0  0  0  0
    6.2289   -9.8134    0.0000 C   0  0  2  0  0  0  0  0  0  0  0  0
    6.2241  -10.6384    0.0000 C   0  0  2  0  0  0  0  0  0  0  0  0
    6.9362  -11.0550    0.0000 C   0  0  0  0  0  0  0  0  0  0  0  0
    7.6531  -10.6466    0.0000 C   0  0  2  0  0  0  0  0  0  0  0  0
    7.6578   -9.8217    0.0000 C   0  0  1  0  0  0  0  0  0  0  0  0
    8.2741   -9.2732    0.0000 C   0  0  1  0  0  0  0  0  0  0  0  0
    9.0941   -9.3642    0.0000 C   0  0  2  0  0  0  0  0  0  0  0  0
    9.5829   -8.6996    0.0000 C   0  0  1  0  0  0  0  0  0  0  0  0
    9.2517   -7.9440    0.0000 C   0  0  2  0  0  0  0  0  0  0  0  0
    9.7405   -7.2794    0.0000 C   0  0  2  0  0  0  0  0  0  0  0  0
    9.4093   -6.5237    0.0000 C   0  0  2  0  0  0  0  0  0  0  0  0
    9.8981   -5.8591    0.0000 C   0  0  0  0  0  0  0  0  0  0  0  0
    9.5669   -5.1035    0.0000 C   0  0  0  0  0  0  0  0  0  0  0  0
    8.7470   -5.0125    0.0000 C   0  0  1  0  0  0  0  0  0  0  0  0
    8.2582   -5.6771    0.0000 C   0  0  0  0  0  0  0  0  0  0  0  0
    8.5893   -6.4327    0.0000 N   0  0  0  0  0  0  0  0  0  0  0  0
    8.1006   -7.0974    0.0000 C   0  0  0  0  0  0  0  0  0  0  0  0
    8.4317   -7.8530    0.0000 C   0  0  1  0  0  0  0  0  0  0  0  0
    7.9429   -8.5176    0.0000 C   0  0  2  0  0  0  0  0  0  0  0  0
 25  1  1  1  0  0  0
 28  2  1  1  0  0  0
 32  3  1  6  0  0  0
 34  4  1  6  0  0  0
 41  5  1  1  0  0  0
 42  6  1  6  0  0  0
 37  7  1  1  0  0  0
 33  8  1  6  0  0  0
 24  9  1  1  0  0  0
 20 10  1  6  0  0  0
 21 11  1  1  0  0  0
 27 12  1  6  0  0  0
 29 13  1  6  0  0  0
 30 14  1  6  0  0  0
 31 15  1  1  0  0  0
 33 16  1  1  0  0  0
 39 34  1  0  0  0  0
 41 32  1  0  0  0  0
 25 20  1  0  0  0  0
 28 18  1  0  0  0  0
 24 18  1  0  0  0  0
 42 29  1  0  0  0  0
 42 17  1  0  0  0  0
 18 17  1  1  0  0  0
 18 19  1  0  0  0  0
 20 19  1  0  0  0  0
 21 20  1  0  0  0  0
 22 21  1  0  0  0  0
 23 22  1  0  0  0  0
 24 23  1  0  0  0  0
 25 24  1  0  0  0  0
 26 25  1  0  0  0  0
 27 26  1  0  0  0  0
 28 27  1  0  0  0  0
 29 28  1  0  0  0  0
 30 29  1  0  0  0  0
 31 30  1  0  0  0  0
 32 31  1  0  0  0  0
 33 32  1  0  0  0  0
 34 33  1  0  0  0  0
 35 34  1  0  0  0  0
 36 35  1  0  0  0  0
 37 36  1  0  0  0  0
 38 37  1  0  0  0  0
 39 38  1  0  0  0  0
 40 39  1  0  0  0  0
 41 40  1  0  0  0  0
 42 41  1  0  0  0  0
M  END
>  <cdx:groupId>
6313

>  <cdx:fragmentId>
6184

$$$$
