301394.cdx
  Mrv1902 05222410222D          

 22 25  0  0  0  0            999 V2000
    7.0678   -6.8281    0.0000 C   0  0  0  0  0  0  0  0  0  0  0  0
    7.3684   -6.0599    0.0000 C   0  0  0  0  0  0  0  0  0  0  0  0
    8.1934   -6.0599    0.0000 C   0  0  0  0  0  0  0  0  0  0  0  0
    8.4967   -6.8281    0.0000 C   0  0  0  0  0  0  0  0  0  0  0  0
    9.2112   -7.2406    0.0000 N   0  0  0  0  0  0  0  0  0  0  0  0
    9.2112   -8.0656    0.0000 C   0  0  0  0  0  0  0  0  0  0  0  0
    8.4967   -8.4781    0.0000 C   0  0  0  0  0  0  0  0  0  0  0  0
    7.7822   -8.0656    0.0000 C   0  0  0  0  0  0  0  0  0  0  0  0
    7.0678   -8.4781    0.0000 C   0  0  0  0  0  0  0  0  0  0  0  0
    6.3533   -8.0656    0.0000 C   0  0  0  0  0  0  0  0  0  0  0  0
    6.3533   -7.2406    0.0000 C   0  0  0  0  0  0  0  0  0  0  0  0
    7.7822   -7.2406    0.0000 C   0  0  0  0  0  0  0  0  0  0  0  0
    6.4383   -4.6970    0.0000 C   0  0  0  0  0  0  0  0  0  0  0  0
    6.0807   -5.4405    0.0000 C   0  0  0  0  0  0  0  0  0  0  0  0
    6.5458   -6.1219    0.0000 C   0  0  0  0  0  0  0  0  0  0  0  0
    7.7261   -5.3164    0.0000 C   0  0  0  0  0  0  0  0  0  0  0  0
    7.2610   -4.6350    0.0000 C   0  0  0  0  0  0  0  0  0  0  0  0
    6.0258   -3.9826    0.0000 O   0  0  0  0  0  0  0  0  0  0  0  0
    9.9256   -6.8281    0.0000 C   0  0  0  0  0  0  0  0  0  0  0  0
    5.6388   -8.4781    0.0000 O   0  0  0  0  0  0  0  0  0  0  0  0
    4.9244   -8.0656    0.0000 C   0  0  0  0  0  0  0  0  0  0  0  0
    5.6388   -6.8281    0.0000 O   0  0  0  0  0  0  0  0  0  0  0  0
  1  2  1  0  0  0  0
  2  3  1  0  0  0  0
  3  4  1  0  0  0  0
  4  5  1  0  0  0  0
  5  6  1  0  0  0  0
  6  7  1  0  0  0  0
  7  8  1  0  0  0  0
  8  9  2  0  0  0  0
  9 10  1  0  0  0  0
 10 11  2  0  0  0  0
  1 11  1  0  0  0  0
  1 12  2  0  0  0  0
 12  8  1  0  0  0  0
  4 12  1  0  0  0  0
 13 14  1  0  0  0  0
 14 15  2  0  0  0  0
 16 17  2  0  0  0  0
 13 17  1  0  0  0  0
 15  2  1  0  0  0  0
 16  2  1  0  0  0  0
 13 18  2  0  0  0  0
  5 19  1  0  0  0  0
 20 21  1  0  0  0  0
 10 20  1  0  0  0  0
 11 22  1  0  0  0  0
M  END
>  <cdx:groupId>
211

>  <cdx:fragmentId>
145

$$$$
