30141.cdx
  Mrv1902 05222410212D          

 40 43  0  0  0  0            999 V2000
    5.5531   -9.3214    0.0000 O   0  0  0  0  0  0  0  0  0  0  0  0
    6.2675  -10.5589    0.0000 O   0  0  0  0  0  0  0  0  0  0  0  0
    6.9820  -10.1464    0.0000 C   0  0  2  0  0  0  0  0  0  0  0  0
    6.9820   -9.3214    0.0000 C   0  0  1  0  0  0  0  0  0  0  0  0
    6.2675   -8.9089    0.0000 C   0  0  0  0  0  0  0  0  0  0  0  0
    7.6965  -10.5589    0.0000 C   0  0  1  0  0  0  0  0  0  0  0  0
    8.4109  -10.1464    0.0000 C   0  0  2  0  0  0  0  0  0  0  0  0
    8.4109   -9.3214    0.0000 C   0  0  1  0  0  0  0  0  0  0  0  0
    7.6965   -8.9089    0.0000 O   0  0  0  0  0  0  0  0  0  0  0  0
   10.7408   -6.0313    0.0000 O   0  0  0  0  0  0  0  0  0  0  0  0
    4.5624   -6.8204    0.0000 O   0  0  0  0  0  0  0  0  0  0  0  0
    6.6161   -6.0811    0.0000 C   0  0  0  0  0  0  0  0  0  0  0  0
    5.7912   -6.0910    0.0000 C   0  0  0  0  0  0  0  0  0  0  0  0
    5.3873   -6.8104    0.0000 C   0  0  0  0  0  0  0  0  0  0  0  0
    5.8084   -7.5199    0.0000 C   0  0  0  0  0  0  0  0  0  0  0  0
    7.0372   -6.7905    0.0000 C   0  0  0  0  0  0  0  0  0  0  0  0
    6.6333   -7.5099    0.0000 C   0  0  0  0  0  0  0  0  0  0  0  0
    7.8621   -6.7806    0.0000 C   0  0  0  0  0  0  0  0  0  0  0  0
    8.2832   -7.4900    0.0000 C   0  0  0  0  0  0  0  0  0  0  0  0
   10.7580   -7.4602    0.0000 C   0  0  0  0  0  0  0  0  0  0  0  0
   10.3370   -6.7507    0.0000 C   0  0  0  0  0  0  0  0  0  0  0  0
    9.5120   -6.7607    0.0000 C   0  0  0  0  0  0  0  0  0  0  0  0
    9.1082   -7.4801    0.0000 C   0  0  0  0  0  0  0  0  0  0  0  0
   10.7753   -8.8890    0.0000 O   0  0  0  0  0  0  0  0  0  0  0  0
   10.3542   -8.1796    0.0000 C   0  0  0  0  0  0  0  0  0  0  0  0
    9.5293   -8.1895    0.0000 C   0  0  0  0  0  0  0  0  0  0  0  0
    9.1254   -8.9089    0.0000 O   0  0  0  0  0  0  0  0  0  0  0  0
    7.6965  -11.3839    0.0000 O   0  0  0  0  0  0  0  0  0  0  0  0
    9.1254  -10.5589    0.0000 O   0  0  0  0  0  0  0  0  0  0  0  0
    4.7281   -9.3131    0.0000 C   0  0  2  0  0  0  0  0  0  0  0  0
    4.3228   -8.5945    0.0000 O   0  0  0  0  0  0  0  0  0  0  0  0
    3.4979   -8.5861    0.0000 C   0  0  1  0  0  0  0  0  0  0  0  0
    3.0782   -9.2964    0.0000 C   0  0  2  0  0  0  0  0  0  0  0  0
    3.4834  -10.0150    0.0000 C   0  0  1  0  0  0  0  0  0  0  0  0
    4.3084  -10.0233    0.0000 C   0  0  1  0  0  0  0  0  0  0  0  0
    3.0926   -7.8675    0.0000 C   0  0  0  0  0  0  0  0  0  0  0  0
    3.0637  -10.7253    0.0000 O   0  0  0  0  0  0  0  0  0  0  0  0
    4.7137  -10.7419    0.0000 O   0  0  0  0  0  0  0  0  0  0  0  0
    2.2532   -9.2881    0.0000 O   0  0  0  0  0  0  0  0  0  0  0  0
    2.2677   -7.8592    0.0000 O   0  0  0  0  0  0  0  0  0  0  0  0
  3  2  1  6  0  0  0
  3  4  1  0  0  0  0
  4  5  1  1  0  0  0
  5  1  1  0  0  0  0
  3  6  1  0  0  0  0
  6  7  1  0  0  0  0
  7  8  1  0  0  0  0
  8  9  1  0  0  0  0
  9  4  1  0  0  0  0
 21 10  1  0  0  0  0
 14 11  1  0  0  0  0
  8 27  1  1  0  0  0
 12 16  2  0  0  0  0
 13 12  1  0  0  0  0
 14 13  2  0  0  0  0
 15 14  1  0  0  0  0
 17 15  2  0  0  0  0
 16 18  1  0  0  0  0
 17 16  1  0  0  0  0
 19 18  2  0  0  0  0
 23 19  1  0  0  0  0
 20 25  1  0  0  0  0
 21 20  2  0  0  0  0
 22 21  1  0  0  0  0
 23 22  2  0  0  0  0
 26 23  1  0  0  0  0
 25 24  1  0  0  0  0
 26 25  2  0  0  0  0
 27 26  1  0  0  0  0
  6 28  1  1  0  0  0
  7 29  1  6  0  0  0
 30  1  1  1  0  0  0
 30 31  1  0  0  0  0
 31 32  1  0  0  0  0
 32 33  1  0  0  0  0
 33 34  1  0  0  0  0
 34 35  1  0  0  0  0
 35 30  1  0  0  0  0
 32 36  1  1  0  0  0
 34 37  1  1  0  0  0
 35 38  1  6  0  0  0
 33 39  1  6  0  0  0
 36 40  1  0  0  0  0
M  END
>  <cdx:fragmentId>
5

$$$$
