301424.cdx
  Mrv1902 05222410222D          

 24 25  0  0  0  0            999 V2000
    8.6159   -6.3489    0.0000 O   0  0  0  0  0  0  0  0  0  0  0  0
    9.2241   -8.2281    0.0000 O   0  0  0  0  0  0  0  0  0  0  0  0
    9.8116   -6.6863    0.0000 C   0  0  0  0  0  0  0  0  0  0  0  0
   10.2888   -7.7509    0.0000 C   0  0  1  0  0  0  0  0  0  0  0  0
    9.5178   -7.4572    0.0000 C   0  0  0  0  0  0  0  0  0  0  0  0
    8.7469   -7.1634    0.0000 C   0  0  0  0  0  0  0  0  0  0  0  0
    8.1070   -7.6842    0.0000 O   0  0  0  0  0  0  0  0  0  0  0  0
    7.2864   -7.5999    0.0000 C   0  0  0  0  0  0  0  0  0  0  0  0
    4.7131   -7.6325    0.0000 O   0  0  0  0  0  0  0  0  0  0  0  0
    5.2338   -8.2724    0.0000 C   0  0  1  0  0  0  0  0  0  0  0  0
    4.7505   -8.9410    0.0000 C   0  0  0  0  0  0  0  0  0  0  0  0
    5.2371   -9.6073    0.0000 C   0  0  0  0  0  0  0  0  0  0  0  0
    6.8031   -8.2686    0.0000 C   0  0  0  0  0  0  0  0  0  0  0  0
    6.0191   -8.5254    0.0000 C   0  0  1  0  0  0  0  0  0  0  0  0
    6.0211   -9.3504    0.0000 N   0  3  0  0  0  0  0  0  0  0  0  0
    6.8063   -9.6034    0.0000 C   0  0  0  0  0  0  0  0  0  0  0  0
    7.2896   -8.9348    0.0000 C   0  0  0  0  0  0  0  0  0  0  0  0
    6.0171   -7.7004    0.0000 H   0  0  0  0  0  0  0  0  0  0  0  0
    9.2909   -6.0464    0.0000 C   0  0  0  0  0  0  0  0  0  0  0  0
   10.6261   -6.5552    0.0000 C   0  0  0  0  0  0  0  0  0  0  0  0
   10.9286   -7.2302    0.0000 C   0  0  0  0  0  0  0  0  0  0  0  0
   10.4198   -8.5655    0.0000 O   0  0  0  0  0  0  0  0  0  0  0  0
   11.1907   -8.8592    0.0000 C   0  0  0  0  0  0  0  0  0  0  0  0
    6.0231  -10.1754    0.0000 O   0  5  0  0  0  0  0  0  0  0  0  0
  6  1  2  0  0  0  0
  5  2  1  1  0  0  0
  5  3  1  6  0  0  0
  5  4  1  0  0  0  0
  6  5  1  0  0  0  0
  7  6  1  0  0  0  0
  8  7  1  0  0  0  0
 13  8  1  0  0  0  0
 10  9  1  6  0  0  0
 10 14  1  0  0  0  0
 11 10  1  0  0  0  0
 12 11  1  0  0  0  0
 15 12  1  0  0  0  0
 13 17  2  0  0  0  0
 14 13  1  0  0  0  0
 15 14  1  0  0  0  0
 16 15  1  0  0  0  0
 17 16  1  0  0  0  0
 14 18  1  6  0  0  0
  3 19  1  0  0  0  0
  3 20  1  0  0  0  0
  4 21  1  0  0  0  0
  4 22  1  1  0  0  0
 22 23  1  0  0  0  0
 15 24  1  0  0  0  0
M  CHG  2  15   1  24  -1
M  END
>  <cdx:fragmentId>
5

$$$$
