301481.cdx
  Mrv1902 05222410192D          

 45 48  0  0  0  0            999 V2000
    4.0558  -10.6311    0.0000 O   0  0  0  0  0  0  0  0  0  0  0  0
    3.9875   -8.0300    0.0000 C   0  0  2  0  0  0  0  0  0  0  0  0
    2.1427   -9.4341    0.0000 C   0  0  0  0  0  0  0  0  0  0  0  0
    3.4464   -8.7545    0.0000 C   0  0  0  0  0  0  0  0  0  0  0  0
    2.9676   -9.4264    0.0000 C   0  0  0  0  0  0  0  0  0  0  0  0
    3.4587  -10.0893    0.0000 C   0  0  1  0  0  0  0  0  0  0  0  0
    4.2410   -9.8271    0.0000 C   0  0  1  0  0  0  0  0  0  0  0  0
    4.2333   -9.0022    0.0000 C   0  0  2  0  0  0  0  0  0  0  0  0
    3.2111  -10.8763    0.0000 O   0  0  0  0  0  0  0  0  0  0  0  0
    4.8907  -10.3355    0.0000 C   0  0  1  0  0  0  0  0  0  0  0  0
    5.6933  -10.1445    0.0000 C   0  0  0  0  0  0  0  0  0  0  0  0
    6.0443   -9.3979    0.0000 C   0  0  0  0  0  0  0  0  0  0  0  0
    5.6933   -8.6579    0.0000 C   0  0  2  0  0  0  0  0  0  0  0  0
    4.8907   -8.4818    0.0000 C   0  0  0  0  0  0  0  0  0  0  0  0
    4.7052   -7.6779    0.0000 O   0  0  0  0  0  0  0  0  0  0  0  0
    6.2068   -8.0123    0.0000 C   0  0  1  0  0  0  0  0  0  0  0  0
    6.2136  -10.7847    0.0000 C   0  0  0  0  0  0  0  0  0  0  0  0
    7.0282  -10.6542    0.0000 O   0  0  0  0  0  0  0  0  0  0  0  0
    4.7146  -11.1415    0.0000 O   0  0  0  0  0  0  0  0  0  0  0  0
    6.4959   -8.8341    0.0000 H   0  0  0  0  0  0  0  0  0  0  0  0
    3.2730   -7.6175    0.0000 C   0  0  0  0  0  0  0  0  0  0  0  0
    4.4550   -7.3150    0.0000 C   0  0  0  0  0  0  0  0  0  0  0  0
    5.6925   -7.2325    0.0000 C   0  0  1  0  0  0  0  0  0  0  0  0
    6.6193   -7.2978    0.0000 C   0  0  0  0  0  0  0  0  0  0  0  0
    7.0318   -6.5833    0.0000 C   0  0  0  0  0  0  0  0  0  0  0  0
    7.4443   -7.2978    0.0000 C   0  0  0  0  0  0  0  0  0  0  0  0
    5.4790   -6.4356    0.0000 H   0  0  0  0  0  0  0  0  0  0  0  0
    6.7902   -8.5956    0.0000 H   0  0  0  0  0  0  0  0  0  0  0  0
    7.5486  -11.2944    0.0000 C   0  0  0  0  0  0  0  0  0  0  0  0
    8.3632  -11.1639    0.0000 C   0  0  0  0  0  0  0  0  0  0  0  0
    7.2543  -12.0651    0.0000 O   0  0  0  0  0  0  0  0  0  0  0  0
    8.8835  -11.8041    0.0000 C   0  0  0  0  0  0  0  0  0  0  0  0
    9.6981  -11.6736    0.0000 C   0  0  0  0  0  0  0  0  0  0  0  0
   10.2185  -12.3138    0.0000 C   0  0  0  0  0  0  0  0  0  0  0  0
   11.0331  -12.1833    0.0000 C   0  0  0  0  0  0  0  0  0  0  0  0
   11.5534  -12.8235    0.0000 C   0  0  0  0  0  0  0  0  0  0  0  0
   12.3680  -12.6930    0.0000 C   0  0  0  0  0  0  0  0  0  0  0  0
   12.8884  -13.3332    0.0000 C   0  0  0  0  0  0  0  0  0  0  0  0
   13.7030  -13.2027    0.0000 C   0  0  0  0  0  0  0  0  0  0  0  0
   14.2233  -13.8429    0.0000 C   0  0  0  0  0  0  0  0  0  0  0  0
   15.0379  -13.7124    0.0000 C   0  0  0  0  0  0  0  0  0  0  0  0
   15.5582  -14.3526    0.0000 C   0  0  0  0  0  0  0  0  0  0  0  0
   16.3729  -14.2221    0.0000 C   0  0  0  0  0  0  0  0  0  0  0  0
   16.8932  -14.8623    0.0000 C   0  0  0  0  0  0  0  0  0  0  0  0
   17.7078  -14.7318    0.0000 C   0  0  0  0  0  0  0  0  0  0  0  0
  7  1  1  1  0  0  0
  6  9  1  1  0  0  0
  8  2  1  1  0  0  0
  5  3  1  0  0  0  0
  8  7  1  0  0  0  0
  8  4  1  0  0  0  0
  5  4  2  0  0  0  0
  6  5  1  0  0  0  0
  7  6  1  0  0  0  0
  7 10  1  0  0  0  0
 10 11  1  0  0  0  0
 11 12  2  0  0  0  0
 12 13  1  0  0  0  0
 13 14  1  0  0  0  0
 14  8  1  0  0  0  0
 14 15  2  0  0  0  0
 13 16  1  0  0  0  0
 11 17  1  0  0  0  0
 17 18  1  0  0  0  0
 10 19  1  1  0  0  0
 13 20  1  1  0  0  0
  2 21  1  6  0  0  0
  2 22  1  0  0  0  0
 22 23  1  0  0  0  0
 16 23  1  0  0  0  0
 16 24  1  0  0  0  0
 24 23  1  0  0  0  0
 24 25  1  0  0  0  0
 24 26  1  0  0  0  0
 23 27  1  6  0  0  0
 16 28  1  6  0  0  0
 18 29  1  0  0  0  0
 29 30  1  0  0  0  0
 29 31  2  0  0  0  0
 30 32  1  0  0  0  0
 32 33  1  0  0  0  0
 33 34  1  0  0  0  0
 34 35  1  0  0  0  0
 35 36  1  0  0  0  0
 36 37  1  0  0  0  0
 37 38  1  0  0  0  0
 38 39  1  0  0  0  0
 39 40  1  0  0  0  0
 40 41  1  0  0  0  0
 41 42  1  0  0  0  0
 42 43  1  0  0  0  0
 43 44  1  0  0  0  0
 44 45  1  0  0  0  0
M  END
>  <cdx:fragmentId>
3224

$$$$
