301437.cdx
  Mrv1902 05222410202D          

 22 21  0  0  0  0            999 V2000
   11.7118   -6.4366    0.0000 C   0  0  0  0  0  0  0  0  0  0  0  0
   10.9974   -6.8491    0.0000 C   0  0  0  0  0  0  0  0  0  0  0  0
   10.2829   -6.4366    0.0000 C   0  0  0  0  0  0  0  0  0  0  0  0
    9.5684   -6.8491    0.0000 C   0  0  0  0  0  0  0  0  0  0  0  0
    8.8539   -6.4366    0.0000 C   0  0  0  0  0  0  0  0  0  0  0  0
    8.1395   -6.8491    0.0000 C   0  0  0  0  0  0  0  0  0  0  0  0
    7.4250   -6.4366    0.0000 C   0  0  0  0  0  0  0  0  0  0  0  0
    6.7105   -6.8491    0.0000 C   0  0  0  0  0  0  0  0  0  0  0  0
    5.9961   -6.4366    0.0000 C   0  0  0  0  0  0  0  0  0  0  0  0
    5.2816   -6.8491    0.0000 C   0  0  0  0  0  0  0  0  0  0  0  0
    4.5671   -6.4366    0.0000 C   0  0  0  0  0  0  0  0  0  0  0  0
    3.8526   -6.8491    0.0000 C   0  0  0  0  0  0  0  0  0  0  0  0
    3.1382   -6.4366    0.0000 C   0  0  0  0  0  0  0  0  0  0  0  0
    2.4237   -6.8491    0.0000 C   0  0  0  0  0  0  0  0  0  0  0  0
    1.7092   -6.4366    0.0000 C   0  0  0  0  0  0  0  0  0  0  0  0
    0.9948   -6.8491    0.0000 C   0  0  0  0  0  0  0  0  0  0  0  0
   11.7118   -5.6116    0.0000 O   0  0  0  0  0  0  0  0  0  0  0  0
   12.4263   -6.8491    0.0000 O   0  0  0  0  0  0  0  0  0  0  0  0
   13.1408   -6.4366    0.0000 C   0  0  0  0  0  0  0  0  0  0  0  0
   13.1408   -5.6116    0.0000 C   0  0  0  0  0  0  0  0  0  0  0  0
   13.8552   -6.0241    0.0000 C   0  0  0  0  0  0  0  0  0  0  0  0
   13.8552   -6.8491    0.0000 C   0  0  0  0  0  0  0  0  0  0  0  0
  1  2  1  0  0  0  0
  2  3  1  0  0  0  0
  3  4  1  0  0  0  0
  4  5  1  0  0  0  0
  5  6  1  0  0  0  0
  6  7  1  0  0  0  0
  7  8  1  0  0  0  0
  8  9  1  0  0  0  0
  9 10  1  0  0  0  0
 10 11  1  0  0  0  0
 11 12  1  0  0  0  0
 12 13  1  0  0  0  0
 13 14  1  0  0  0  0
 14 15  1  0  0  0  0
 15 16  1  0  0  0  0
  1 17  2  0  0  0  0
  1 18  1  0  0  0  0
 19 20  1  0  0  0  0
 19 22  1  0  0  0  0
 19 21  1  0  0  0  0
 18 19  1  0  0  0  0
M  END
>  <cdx:groupId>
1224

>  <cdx:fragmentId>
1162

$$$$
