301446.cdx
  Mrv1902 05222410192D          

 78 86  0  0  0  0            999 V2000
    4.3113   -6.3816    0.0000 O   0  0  0  0  0  0  0  0  0  0  0  0
    5.0257   -6.7941    0.0000 C   0  0  2  0  0  0  0  0  0  0  0  0
    5.7402   -6.3816    0.0000 C   0  0  1  0  0  0  0  0  0  0  0  0
    5.7402   -5.5566    0.0000 C   0  0  1  0  0  0  0  0  0  0  0  0
    5.0257   -5.1441    0.0000 C   0  0  2  0  0  0  0  0  0  0  0  0
    4.3113   -5.5566    0.0000 C   0  0  2  0  0  0  0  0  0  0  0  0
    6.4547   -6.7941    0.0000 O   0  0  0  0  0  0  0  0  0  0  0  0
    6.4547   -5.1441    0.0000 O   0  0  0  0  0  0  0  0  0  0  0  0
    5.0257   -4.3191    0.0000 O   0  0  0  0  0  0  0  0  0  0  0  0
    3.5968   -5.1441    0.0000 C   0  0  0  0  0  0  0  0  0  0  0  0
    5.0257   -7.6191    0.0000 O   0  0  0  0  0  0  0  0  0  0  0  0
    3.5968   -9.2691    0.0000 O   0  0  0  0  0  0  0  0  0  0  0  0
    4.3113   -8.8566    0.0000 C   0  0  2  0  0  0  0  0  0  0  0  0
    4.3113   -8.0316    0.0000 C   0  0  1  0  0  0  0  0  0  0  0  0
    3.5968   -7.6191    0.0000 C   0  0  2  0  0  0  0  0  0  0  0  0
    2.8823   -8.0316    0.0000 C   0  0  1  0  0  0  0  0  0  0  0  0
    2.8823   -8.8566    0.0000 C   0  0  1  0  0  0  0  0  0  0  0  0
    5.0257   -9.2691    0.0000 O   0  0  0  0  0  0  0  0  0  0  0  0
    8.5981   -8.0316    0.0000 C   0  0  1  0  0  0  0  0  0  0  0  0
    9.3125   -7.6191    0.0000 C   0  0  2  0  0  0  0  0  0  0  0  0
   10.0972   -7.8740    0.0000 C   0  0  0  0  0  0  0  0  0  0  0  0
   10.5821   -7.2066    0.0000 C   0  0  2  0  0  0  0  0  0  0  0  0
   11.3667   -6.9517    0.0000 O   0  0  0  0  0  0  0  0  0  0  0  0
   11.3667   -6.1267    0.0000 C   0  0  0  0  0  0  0  0  0  0  0  0
   10.5821   -5.8717    0.0000 C   0  0  0  0  0  0  0  0  0  0  0  0
   10.0972   -6.5392    0.0000 C   0  0  2  0  0  0  0  0  0  0  0  0
    9.3125   -6.7941    0.0000 C   0  0  1  0  0  0  0  0  0  0  0  0
    8.5981   -6.3816    0.0000 C   0  0  0  0  0  0  0  0  0  0  0  0
    7.8836   -6.7941    0.0000 C   0  0  0  0  0  0  0  0  0  0  0  0
    7.8836   -7.6191    0.0000 C   0  0  2  0  0  0  0  0  0  0  0  0
    7.1691   -8.0316    0.0000 C   0  0  1  0  0  0  0  0  0  0  0  0
    6.4547   -7.6191    0.0000 C   0  0  0  0  0  0  0  0  0  0  0  0
    5.7402   -8.0316    0.0000 C   0  0  0  0  0  0  0  0  0  0  0  0
    5.7402   -8.8566    0.0000 C   0  0  1  0  0  0  0  0  0  0  0  0
    6.4547   -9.2691    0.0000 C   0  0  0  0  0  0  0  0  0  0  0  0
    7.1691   -8.8566    0.0000 C   0  0  0  0  0  0  0  0  0  0  0  0
    7.8836   -9.2691    0.0000 C   0  0  0  0  0  0  0  0  0  0  0  0
    8.5981   -8.8566    0.0000 C   0  0  0  0  0  0  0  0  0  0  0  0
   12.0342   -5.6417    0.0000 C   0  0  0  0  0  0  0  0  0  0  0  0
   12.7878   -5.9773    0.0000 C   0  0  0  0  0  0  0  0  0  0  0  0
   13.4553   -5.4924    0.0000 C   0  0  2  0  0  0  0  0  0  0  0  0
   14.2089   -5.8279    0.0000 C   0  0  0  0  0  0  0  0  0  0  0  0
   14.8764   -5.3430    0.0000 O   0  0  0  0  0  0  0  0  0  0  0  0
   16.2975   -5.1936    0.0000 O   0  0  0  0  0  0  0  0  0  0  0  0
   15.6301   -5.6786    0.0000 C   0  0  1  0  0  0  0  0  0  0  0  0
   15.7163   -6.4991    0.0000 C   0  0  1  0  0  0  0  0  0  0  0  0
   16.4700   -6.8346    0.0000 C   0  0  2  0  0  0  0  0  0  0  0  0
   17.1374   -6.3497    0.0000 C   0  0  1  0  0  0  0  0  0  0  0  0
   17.0512   -5.5292    0.0000 C   0  0  1  0  0  0  0  0  0  0  0  0
   17.7186   -5.0443    0.0000 C   0  0  0  0  0  0  0  0  0  0  0  0
   18.4723   -5.3798    0.0000 O   0  0  0  0  0  0  0  0  0  0  0  0
   17.8911   -6.6852    0.0000 O   0  0  0  0  0  0  0  0  0  0  0  0
   16.5562   -7.6551    0.0000 O   0  0  0  0  0  0  0  0  0  0  0  0
   15.0489   -6.9840    0.0000 O   0  0  0  0  0  0  0  0  0  0  0  0
   13.3690   -4.6719    0.0000 C   0  0  0  0  0  0  0  0  0  0  0  0
    7.1691   -7.2066    0.0000 C   0  0  0  0  0  0  0  0  0  0  0  0
    9.1693   -5.9816    0.0000 C   0  0  0  0  0  0  0  0  0  0  0  0
   10.3272   -5.0871    0.0000 C   0  0  0  0  0  0  0  0  0  0  0  0
    1.7392   -7.3716    0.0000 O   0  0  0  0  0  0  0  0  0  0  0  0
    2.4536   -6.1341    0.0000 O   0  0  0  0  0  0  0  0  0  0  0  0
    1.7392   -6.5466    0.0000 C   0  0  2  0  0  0  0  0  0  0  0  0
    1.0247   -6.1341    0.0000 C   0  0  1  0  0  0  0  0  0  0  0  0
    1.0247   -5.3091    0.0000 C   0  0  2  0  0  0  0  0  0  0  0  0
    1.7392   -4.8966    0.0000 C   0  0  1  0  0  0  0  0  0  0  0  0
    2.4536   -5.3091    0.0000 C   0  0  1  0  0  0  0  0  0  0  0  0
    3.1681   -4.8966    0.0000 C   0  0  0  0  0  0  0  0  0  0  0  0
    3.1681   -4.0716    0.0000 O   0  0  0  0  0  0  0  0  0  0  0  0
    1.7392   -4.0716    0.0000 O   0  0  0  0  0  0  0  0  0  0  0  0
    0.3102   -4.8966    0.0000 O   0  0  0  0  0  0  0  0  0  0  0  0
    0.3102   -6.5466    0.0000 O   0  0  0  0  0  0  0  0  0  0  0  0
    2.1678   -9.2691    0.0000 C   0  0  0  0  0  0  0  0  0  0  0  0
    1.4534   -8.8566    0.0000 O   0  0  0  0  0  0  0  0  0  0  0  0
    3.5968   -6.7941    0.0000 O   0  0  0  0  0  0  0  0  0  0  0  0
    8.5981   -7.2066    0.0000 H   0  0  0  0  0  0  0  0  0  0  0  0
    9.3125   -8.4441    0.0000 H   0  0  0  0  0  0  0  0  0  0  0  0
   11.0670   -7.8740    0.0000 H   0  0  0  0  0  0  0  0  0  0  0  0
    9.7355   -5.7977    0.0000 H   0  0  0  0  0  0  0  0  0  0  0  0
    7.8836   -8.4441    0.0000 H   0  0  0  0  0  0  0  0  0  0  0  0
  1  2  1  0  0  0  0
  2  3  1  0  0  0  0
  3  4  1  0  0  0  0
  4  5  1  0  0  0  0
  5  6  1  0  0  0  0
  1  6  1  0  0  0  0
  3  7  1  1  0  0  0
  4  8  1  1  0  0  0
  5  9  1  6  0  0  0
  6 10  1  1  0  0  0
 12 13  1  0  0  0  0
 13 14  1  0  0  0  0
 14 15  1  0  0  0  0
 15 16  1  0  0  0  0
 16 17  1  0  0  0  0
 12 17  1  0  0  0  0
 19 20  1  0  0  0  0
 20 21  1  0  0  0  0
 21 22  1  0  0  0  0
 22 23  1  0  0  0  0
 23 24  1  0  0  0  0
 24 25  2  0  0  0  0
 25 26  1  0  0  0  0
 26 27  1  0  0  0  0
 27 28  1  0  0  0  0
 28 29  1  0  0  0  0
 29 30  1  0  0  0  0
 30 31  1  0  0  0  0
 31 32  1  0  0  0  0
 32 33  1  0  0  0  0
 33 34  1  0  0  0  0
 34 35  1  0  0  0  0
 35 36  1  0  0  0  0
 36 37  2  0  0  0  0
 37 38  1  0  0  0  0
 19 38  1  0  0  0  0
 19 30  1  0  0  0  0
 31 36  1  0  0  0  0
 20 27  1  0  0  0  0
 22 26  1  0  0  0  0
 39 40  1  0  0  0  0
 40 41  1  0  0  0  0
 41 42  1  0  0  0  0
 44 45  1  0  0  0  0
 45 46  1  0  0  0  0
 46 47  1  0  0  0  0
 47 48  1  0  0  0  0
 48 49  1  0  0  0  0
 44 49  1  0  0  0  0
 50 51  1  0  0  0  0
 49 50  1  6  0  0  0
 48 52  1  1  0  0  0
 47 53  1  6  0  0  0
 46 54  1  1  0  0  0
 45 43  1  1  0  0  0
 42 43  1  0  0  0  0
 41 55  1  1  0  0  0
 24 39  1  0  0  0  0
 31 56  1  1  0  0  0
 27 57  1  1  0  0  0
 25 58  1  0  0  0  0
 34 18  1  1  0  0  0
 13 18  1  6  0  0  0
 60 61  1  0  0  0  0
 61 62  1  0  0  0  0
 62 63  1  0  0  0  0
 63 64  1  0  0  0  0
 64 65  1  0  0  0  0
 60 65  1  0  0  0  0
 66 67  1  0  0  0  0
 65 66  1  1  0  0  0
 64 68  1  6  0  0  0
 63 69  1  1  0  0  0
 62 70  1  6  0  0  0
 61 59  1  1  0  0  0
 16 59  1  1  0  0  0
 71 72  1  0  0  0  0
 17 71  1  6  0  0  0
 15 73  1  6  0  0  0
 14 11  1  1  0  0  0
  2 11  1  6  0  0  0
 19 74  1  1  0  0  0
 20 75  1  6  0  0  0
 22 76  1  6  0  0  0
 26 77  1  6  0  0  0
 30 78  1  6  0  0  0
M  END
>  <cdx:groupId>
442

>  <cdx:fragmentId>
239

$$$$
