301425.cdx
  Mrv1902 05222410222D          

 22 21  0  0  0  0            999 V2000
    0.7991   -5.9471    0.0000 C   0  0  0  0  0  0  0  0  0  0  0  0
    1.5136   -6.3596    0.0000 C   0  0  0  0  0  0  0  0  0  0  0  0
    2.2280   -5.9471    0.0000 C   0  0  0  0  0  0  0  0  0  0  0  0
    2.9425   -6.3596    0.0000 C   0  0  0  0  0  0  0  0  0  0  0  0
    3.6570   -5.9471    0.0000 C   0  0  0  0  0  0  0  0  0  0  0  0
    4.3714   -6.3596    0.0000 C   0  0  0  0  0  0  0  0  0  0  0  0
    5.0859   -5.9471    0.0000 C   0  0  0  0  0  0  0  0  0  0  0  0
    5.8004   -6.3596    0.0000 C   0  0  0  0  0  0  0  0  0  0  0  0
    6.5149   -5.9471    0.0000 C   0  0  0  0  0  0  0  0  0  0  0  0
    7.2293   -6.3596    0.0000 C   0  0  0  0  0  0  0  0  0  0  0  0
    7.9438   -5.9471    0.0000 C   0  0  0  0  0  0  0  0  0  0  0  0
    8.6583   -6.3596    0.0000 C   0  0  0  0  0  0  0  0  0  0  0  0
    9.3727   -5.9471    0.0000 C   0  0  0  0  0  0  0  0  0  0  0  0
   10.0872   -6.3596    0.0000 C   0  0  0  0  0  0  0  0  0  0  0  0
   10.8017   -5.9471    0.0000 C   0  0  0  0  0  0  0  0  0  0  0  0
   11.5162   -6.3596    0.0000 C   0  0  0  0  0  0  0  0  0  0  0  0
   12.2306   -5.9471    0.0000 C   0  0  0  0  0  0  0  0  0  0  0  0
   12.9451   -6.3596    0.0000 C   0  0  0  0  0  0  0  0  0  0  0  0
   13.6596   -5.9471    0.0000 C   0  0  0  0  0  0  0  0  0  0  0  0
   14.3740   -6.3596    0.0000 C   0  0  0  0  0  0  0  0  0  0  0  0
   15.0885   -5.9471    0.0000 C   0  0  0  0  0  0  0  0  0  0  0  0
    0.0846   -6.3596    0.0000 O   0  0  0  0  0  0  0  0  0  0  0  0
  1  2  1  0  0  0  0
  2  3  1  0  0  0  0
  3  4  1  0  0  0  0
  4  5  1  0  0  0  0
  5  6  1  0  0  0  0
  6  7  1  0  0  0  0
  7  8  1  0  0  0  0
  8  9  1  0  0  0  0
  9 10  1  0  0  0  0
 10 11  1  0  0  0  0
 11 12  1  0  0  0  0
 12 13  1  0  0  0  0
 13 14  1  0  0  0  0
 14 15  1  0  0  0  0
 15 16  1  0  0  0  0
 16 17  1  0  0  0  0
 17 18  1  0  0  0  0
 18 19  1  0  0  0  0
 19 20  1  0  0  0  0
 20 21  1  0  0  0  0
  1 22  2  0  0  0  0
M  END
>  <cdx:groupId>
1383

>  <cdx:fragmentId>
1321

$$$$
