301482.cdx
  Mrv1902 05222410182D          

 45 48  0  0  0  0            999 V2000
   10.2708   -8.0736    0.0000 O   0  0  0  0  0  0  0  0  0  0  0  0
   10.2025   -5.4725    0.0000 C   0  0  2  0  0  0  0  0  0  0  0  0
    8.3577   -6.8766    0.0000 C   0  0  0  0  0  0  0  0  0  0  0  0
    9.6614   -6.1970    0.0000 C   0  0  0  0  0  0  0  0  0  0  0  0
    9.1826   -6.8689    0.0000 C   0  0  0  0  0  0  0  0  0  0  0  0
    9.6737   -7.5318    0.0000 C   0  0  1  0  0  0  0  0  0  0  0  0
   10.4560   -7.2696    0.0000 C   0  0  1  0  0  0  0  0  0  0  0  0
   10.4483   -6.4447    0.0000 C   0  0  2  0  0  0  0  0  0  0  0  0
    9.4261   -8.3188    0.0000 O   0  0  0  0  0  0  0  0  0  0  0  0
   11.1057   -7.7780    0.0000 C   0  0  1  0  0  0  0  0  0  0  0  0
   11.9083   -7.5870    0.0000 C   0  0  0  0  0  0  0  0  0  0  0  0
   12.2593   -6.8404    0.0000 C   0  0  0  0  0  0  0  0  0  0  0  0
   11.9083   -6.1004    0.0000 C   0  0  2  0  0  0  0  0  0  0  0  0
   11.1057   -5.9243    0.0000 C   0  0  0  0  0  0  0  0  0  0  0  0
   10.9202   -5.1204    0.0000 O   0  0  0  0  0  0  0  0  0  0  0  0
   12.4218   -5.4548    0.0000 C   0  0  1  0  0  0  0  0  0  0  0  0
   12.4286   -8.2272    0.0000 C   0  0  0  0  0  0  0  0  0  0  0  0
   13.2432   -8.0967    0.0000 O   0  0  0  0  0  0  0  0  0  0  0  0
   10.9296   -8.5840    0.0000 O   0  0  0  0  0  0  0  0  0  0  0  0
   12.7109   -6.2766    0.0000 H   0  0  0  0  0  0  0  0  0  0  0  0
    9.4880   -5.0600    0.0000 C   0  0  0  0  0  0  0  0  0  0  0  0
   10.6700   -4.7575    0.0000 C   0  0  0  0  0  0  0  0  0  0  0  0
   11.9075   -4.6750    0.0000 C   0  0  1  0  0  0  0  0  0  0  0  0
   12.8343   -4.7403    0.0000 C   0  0  0  0  0  0  0  0  0  0  0  0
   13.2468   -4.0258    0.0000 C   0  0  0  0  0  0  0  0  0  0  0  0
   13.6593   -4.7403    0.0000 C   0  0  0  0  0  0  0  0  0  0  0  0
   11.6940   -3.8781    0.0000 H   0  0  0  0  0  0  0  0  0  0  0  0
   13.0052   -6.0381    0.0000 H   0  0  0  0  0  0  0  0  0  0  0  0
    8.6207   -8.4978    0.0000 C   0  0  0  0  0  0  0  0  0  0  0  0
    8.0630   -7.8898    0.0000 O   0  0  0  0  0  0  0  0  0  0  0  0
    8.3731   -9.2847    0.0000 C   0  0  0  0  0  0  0  0  0  0  0  0
    7.5677   -9.4637    0.0000 C   0  0  0  0  0  0  0  0  0  0  0  0
    7.3201  -10.2507    0.0000 C   0  0  0  0  0  0  0  0  0  0  0  0
    6.5147  -10.4297    0.0000 C   0  0  0  0  0  0  0  0  0  0  0  0
    6.2671  -11.2166    0.0000 C   0  0  0  0  0  0  0  0  0  0  0  0
    5.4617  -11.3956    0.0000 C   0  0  0  0  0  0  0  0  0  0  0  0
    5.2141  -12.1826    0.0000 C   0  0  0  0  0  0  0  0  0  0  0  0
    4.4087  -12.3616    0.0000 C   0  0  0  0  0  0  0  0  0  0  0  0
    4.1611  -13.1485    0.0000 C   0  0  0  0  0  0  0  0  0  0  0  0
    3.3557  -13.3275    0.0000 C   0  0  0  0  0  0  0  0  0  0  0  0
    3.1081  -14.1145    0.0000 C   0  0  0  0  0  0  0  0  0  0  0  0
    2.3027  -14.2935    0.0000 C   0  0  0  0  0  0  0  0  0  0  0  0
    2.0551  -15.0804    0.0000 C   0  0  0  0  0  0  0  0  0  0  0  0
    1.2497  -15.2594    0.0000 C   0  0  0  0  0  0  0  0  0  0  0  0
    1.0021  -16.0464    0.0000 C   0  0  0  0  0  0  0  0  0  0  0  0
  7  1  1  1  0  0  0
  6  9  1  1  0  0  0
  8  2  1  1  0  0  0
  5  3  1  0  0  0  0
  8  7  1  0  0  0  0
  8  4  1  0  0  0  0
  5  4  2  0  0  0  0
  6  5  1  0  0  0  0
  7  6  1  0  0  0  0
  7 10  1  0  0  0  0
 10 11  1  0  0  0  0
 11 12  2  0  0  0  0
 12 13  1  0  0  0  0
 13 14  1  0  0  0  0
 14  8  1  0  0  0  0
 14 15  2  0  0  0  0
 13 16  1  0  0  0  0
 11 17  1  0  0  0  0
 17 18  1  0  0  0  0
 10 19  1  1  0  0  0
 13 20  1  1  0  0  0
  2 21  1  6  0  0  0
  2 22  1  0  0  0  0
 22 23  1  0  0  0  0
 16 23  1  0  0  0  0
 16 24  1  0  0  0  0
 24 23  1  0  0  0  0
 24 25  1  0  0  0  0
 24 26  1  0  0  0  0
 23 27  1  6  0  0  0
 16 28  1  6  0  0  0
  9 29  1  0  0  0  0
 29 30  2  0  0  0  0
 29 31  1  0  0  0  0
 31 32  1  0  0  0  0
 32 33  1  0  0  0  0
 33 34  1  0  0  0  0
 34 35  1  0  0  0  0
 35 36  1  0  0  0  0
 36 37  1  0  0  0  0
 37 38  1  0  0  0  0
 38 39  1  0  0  0  0
 39 40  1  0  0  0  0
 40 41  1  0  0  0  0
 41 42  1  0  0  0  0
 42 43  1  0  0  0  0
 43 44  1  0  0  0  0
 44 45  1  0  0  0  0
M  END
>  <cdx:fragmentId>
3224

$$$$
