301467.cdx
  Mrv1902 05222410272D          

 17 17  0  0  0  0            999 V2000
    9.9256   -2.6141    0.0000 C   0  0  0  0  0  0  0  0  0  0  0  0
    9.2112   -3.0266    0.0000 C   0  0  0  0  0  0  0  0  0  0  0  0
    8.4967   -2.6141    0.0000 C   0  0  0  0  0  0  0  0  0  0  0  0
    9.9256   -1.7891    0.0000 O   0  0  0  0  0  0  0  0  0  0  0  0
   10.6401   -3.0266    0.0000 O   0  0  0  0  0  0  0  0  0  0  0  0
    7.7822   -3.0266    0.0000 C   0  0  0  0  0  0  0  0  0  0  0  0
    7.0678   -2.6141    0.0000 C   0  0  0  0  0  0  0  0  0  0  0  0
    6.3533   -3.0266    0.0000 C   0  0  0  0  0  0  0  0  0  0  0  0
    6.3533   -3.8516    0.0000 C   0  0  0  0  0  0  0  0  0  0  0  0
    7.0678   -4.2641    0.0000 C   0  0  0  0  0  0  0  0  0  0  0  0
    7.7822   -3.8516    0.0000 C   0  0  0  0  0  0  0  0  0  0  0  0
    5.6388   -2.6141    0.0000 O   0  0  0  0  0  0  0  0  0  0  0  0
    4.9244   -3.0266    0.0000 S   0  0  0  0  0  0  0  0  0  0  0  0
    4.5119   -2.3121    0.0000 O   0  0  0  0  0  0  0  0  0  0  0  0
    5.3369   -3.7411    0.0000 O   0  0  0  0  0  0  0  0  0  0  0  0
    4.2099   -3.4391    0.0000 O   0  0  0  0  0  0  0  0  0  0  0  0
    5.6388   -4.2641    0.0000 O   0  0  0  0  0  0  0  0  0  0  0  0
  1  2  1  0  0  0  0
  2  3  1  0  0  0  0
  1  4  2  0  0  0  0
  1  5  1  0  0  0  0
  6  7  1  0  0  0  0
  7  8  2  0  0  0  0
  8  9  1  0  0  0  0
  9 10  2  0  0  0  0
 10 11  1  0  0  0  0
  6 11  2  0  0  0  0
 13 14  2  0  0  0  0
 13 15  2  0  0  0  0
 13 16  1  0  0  0  0
 12 13  1  0  0  0  0
  8 12  1  0  0  0  0
  9 17  1  0  0  0  0
  3  6  1  0  0  0  0
M  END
>  <cdx:groupId>
366

>  <cdx:fragmentId>
328

$$$$
