301491.cdx
  Mrv1902 05222410192D          

 18 19  0  0  0  0            999 V2000
   10.2949   -5.0246    0.0000 O   0  0  0  0  0  0  0  0  0  0  0  0
    8.1475   -5.4158    0.0000 C   0  0  0  0  0  0  0  0  0  0  0  0
    8.8660   -5.0104    0.0000 C   0  0  0  0  0  0  0  0  0  0  0  0
    9.5763   -5.4300    0.0000 C   0  0  0  0  0  0  0  0  0  0  0  0
    9.5682   -6.2550    0.0000 C   0  0  0  0  0  0  0  0  0  0  0  0
    8.8496   -6.6604    0.0000 C   0  0  0  0  0  0  0  0  0  0  0  0
    8.1393   -6.2408    0.0000 C   0  0  0  0  0  0  0  0  0  0  0  0
    7.4371   -4.9963    0.0000 O   0  0  0  0  0  0  0  0  0  0  0  0
    4.5794   -4.9679    0.0000 O   0  0  0  0  0  0  0  0  0  0  0  0
    5.9837   -7.4570    0.0000 O   0  0  0  0  0  0  0  0  0  0  0  0
    5.9919   -6.6320    0.0000 C   0  0  0  0  0  0  0  0  0  0  0  0
    5.2815   -6.2125    0.0000 C   0  0  0  0  0  0  0  0  0  0  0  0
    5.2897   -5.3875    0.0000 C   0  0  0  0  0  0  0  0  0  0  0  0
    6.0082   -4.9821    0.0000 C   0  0  0  0  0  0  0  0  0  0  0  0
    6.7186   -5.4017    0.0000 C   0  0  0  0  0  0  0  0  0  0  0  0
    6.7104   -6.2266    0.0000 C   0  0  0  0  0  0  0  0  0  0  0  0
    7.4126   -7.4711    0.0000 O   0  0  0  0  0  0  0  0  0  0  0  0
    7.4208   -6.6462    0.0000 C   0  0  0  0  0  0  0  0  0  0  0  0
 18  7  1  0  0  0  0
  4  1  1  0  0  0  0
  7  2  2  0  0  0  0
  3  2  1  0  0  0  0
  4  3  2  0  0  0  0
  5  4  1  0  0  0  0
  6  5  2  0  0  0  0
  7  6  1  0  0  0  0
 18 16  1  0  0  0  0
 15  8  1  0  0  0  0
 13  9  1  0  0  0  0
 11 10  1  0  0  0  0
 16 11  2  0  0  0  0
 12 11  1  0  0  0  0
 13 12  2  0  0  0  0
 14 13  1  0  0  0  0
 15 14  2  0  0  0  0
 16 15  1  0  0  0  0
 18 17  2  0  0  0  0
M  END
>  <cdx:groupId>
462

>  <cdx:fragmentId>
414

$$$$
