301485.cdx
  Mrv1902 05222410192D          

 48 55  0  0  0  0            999 V2000
    9.4822   -5.0341    0.0000 C   0  0  1  0  0  0  0  0  0  0  0  0
    8.9519   -4.4021    0.0000 C   0  0  0  0  0  0  0  0  0  0  0  0
    8.2375   -3.9896    0.0000 C   0  0  0  0  0  0  0  0  0  0  0  0
    7.5228   -4.4018    0.0000 C   0  0  0  0  0  0  0  0  0  0  0  0
    6.7103   -4.5451    0.0000 C   0  0  0  0  0  0  0  0  0  0  0  0
    5.8981   -4.4021    0.0000 C   0  0  0  0  0  0  0  0  0  0  0  0
    5.3678   -5.0341    0.0000 O   0  0  0  0  0  0  0  0  0  0  0  0
    5.0856   -5.8094    0.0000 C   0  0  0  0  0  0  0  0  0  0  0  0
    4.3711   -5.3969    0.0000 C   0  0  0  0  0  0  0  0  0  0  0  0
    3.6567   -5.8094    0.0000 C   0  0  0  0  0  0  0  0  0  0  0  0
    3.6567   -6.6344    0.0000 C   0  0  0  0  0  0  0  0  0  0  0  0
    4.3711   -7.0469    0.0000 C   0  0  0  0  0  0  0  0  0  0  0  0
    3.9466   -7.7544    0.0000 C   0  0  0  0  0  0  0  0  0  0  0  0
    4.4357   -8.4188    0.0000 C   0  0  0  0  0  0  0  0  0  0  0  0
    5.2375   -8.2243    0.0000 N   0  0  0  0  0  0  0  0  0  0  0  0
    5.3678   -7.4096    0.0000 C   0  0  2  0  0  0  0  0  0  0  0  0
    5.8981   -8.0416    0.0000 C   0  0  0  0  0  0  0  0  0  0  0  0
    6.6125   -8.4541    0.0000 C   0  0  0  0  0  0  0  0  0  0  0  0
    6.9830   -7.2734    0.0000 C   0  0  0  0  0  0  0  0  0  0  0  0
    8.2017   -7.0585    0.0000 C   0  0  0  0  0  0  0  0  0  0  0  0
    8.9519   -8.0416    0.0000 C   0  0  0  0  0  0  0  0  0  0  0  0
    8.2375   -8.4541    0.0000 C   0  0  0  0  0  0  0  0  0  0  0  0
    9.2269   -8.4728    0.0000 C   0  0  0  0  0  0  0  0  0  0  0  0
   10.0654   -7.9464    0.0000 O   0  0  0  0  0  0  0  0  0  0  0  0
   10.4789   -7.0469    0.0000 C   0  0  0  0  0  0  0  0  0  0  0  0
   11.1933   -6.6344    0.0000 C   0  0  0  0  0  0  0  0  0  0  0  0
   11.1933   -5.8094    0.0000 C   0  0  0  0  0  0  0  0  0  0  0  0
   10.4789   -5.3969    0.0000 C   0  0  0  0  0  0  0  0  0  0  0  0
   10.9034   -4.6893    0.0000 C   0  0  0  0  0  0  0  0  0  0  0  0
   10.4143   -4.0250    0.0000 C   0  0  0  0  0  0  0  0  0  0  0  0
    9.6125   -4.2195    0.0000 N   0  0  0  0  0  0  0  0  0  0  0  0
    9.7644   -5.8094    0.0000 C   0  0  0  0  0  0  0  0  0  0  0  0
    9.7644   -6.6344    0.0000 C   0  0  0  0  0  0  0  0  0  0  0  0
    9.4822   -7.4096    0.0000 O   0  0  0  0  0  0  0  0  0  0  0  0
    7.4250   -8.5974    0.0000 C   0  0  0  0  0  0  0  0  0  0  0  0
    5.0856   -6.6344    0.0000 C   0  0  0  0  0  0  0  0  0  0  0  0
    6.6125   -3.9896    0.0000 C   0  0  0  0  0  0  0  0  0  0  0  0
    7.4250   -3.8464    0.0000 C   0  0  0  0  0  0  0  0  0  0  0  0
    9.1129   -3.5630    0.0000 C   0  0  0  0  0  0  0  0  0  0  0  0
    5.7371   -8.8807    0.0000 C   0  0  0  0  0  0  0  0  0  0  0  0
   11.9078   -7.0469    0.0000 O   0  0  0  0  0  0  0  0  0  0  0  0
   12.6223   -6.6344    0.0000 C   0  0  0  0  0  0  0  0  0  0  0  0
    2.9422   -5.3969    0.0000 O   0  0  0  0  0  0  0  0  0  0  0  0
    2.2277   -5.8094    0.0000 C   0  0  0  0  0  0  0  0  0  0  0  0
    4.3711   -4.5719    0.0000 O   0  0  0  0  0  0  0  0  0  0  0  0
    3.6567   -4.1594    0.0000 C   0  0  0  0  0  0  0  0  0  0  0  0
   10.3035   -4.9557    0.0000 H   0  0  0  0  0  0  0  0  0  0  0  0
    4.5465   -7.4881    0.0000 H   0  0  0  0  0  0  0  0  0  0  0  0
  1  2  1  0  0  0  0
  2  3  1  0  0  0  0
  3  4  1  0  0  0  0
  4  5  2  0  0  0  0
  5  6  1  0  0  0  0
  6  7  1  0  0  0  0
  7  8  1  0  0  0  0
  8  9  1  0  0  0  0
  9 10  2  0  0  0  0
 10 11  1  0  0  0  0
 11 12  2  0  0  0  0
 12 13  1  0  0  0  0
 13 14  1  0  0  0  0
 14 15  1  0  0  0  0
 15 16  1  0  0  0  0
 16 17  1  0  0  0  0
 17 18  1  0  0  0  0
 18 19  1  0  0  0  0
 19 20  2  0  0  0  0
 20 21  1  0  0  0  0
 21 22  2  0  0  0  0
 22 23  1  0  0  0  0
 23 24  1  0  0  0  0
 24 25  1  0  0  0  0
 25 26  2  0  0  0  0
 26 27  1  0  0  0  0
 27 28  2  0  0  0  0
 28 29  1  0  0  0  0
 29 30  1  0  0  0  0
 30 31  1  0  0  0  0
 32 33  2  0  0  0  0
 33 34  1  0  0  0  0
 37 38  1  0  0  0  0
  1 31  1  0  0  0  0
  1 32  1  0  0  0  0
 34 21  1  0  0  0  0
 25 33  1  0  0  0  0
 28 32  1  0  0  0  0
 22 35  1  0  0  0  0
 35 18  2  0  0  0  0
 12 36  1  0  0  0  0
 36  8  2  0  0  0  0
  6 37  2  0  0  0  0
 38  3  2  0  0  0  0
 16 36  1  0  0  0  0
 31 39  1  0  0  0  0
 15 40  1  0  0  0  0
 41 42  1  0  0  0  0
 26 41  1  0  0  0  0
 43 44  1  0  0  0  0
 10 43  1  0  0  0  0
 45 46  1  0  0  0  0
  9 45  1  0  0  0  0
  1 47  1  6  0  0  0
 16 48  1  6  0  0  0
M  END
>  <cdx:groupId>
257

>  <cdx:fragmentId>
109

$$$$
