301422.cdx
  Mrv1902 05222410212D          

 36 39  0  0  0  0            999 V2000
    6.7379   -6.0241    0.0000 C   0  0  1  0  0  0  0  0  0  0  0  0
    7.4524   -5.6116    0.0000 C   0  0  1  0  0  0  0  0  0  0  0  0
    7.4524   -4.7866    0.0000 C   0  0  1  0  0  0  0  0  0  0  0  0
    6.7379   -4.3741    0.0000 C   0  0  0  0  0  0  0  0  0  0  0  0
    6.0234   -4.7866    0.0000 C   0  0  0  0  0  0  0  0  0  0  0  0
    6.0234   -5.6116    0.0000 O   0  0  0  0  0  0  0  0  0  0  0  0
    8.2370   -4.5317    0.0000 C   0  0  0  0  0  0  0  0  0  0  0  0
    8.7219   -5.1991    0.0000 C   0  0  0  0  0  0  0  0  0  0  0  0
    8.2370   -5.8665    0.0000 C   0  0  0  0  0  0  0  0  0  0  0  0
    6.7379   -3.5491    0.0000 C   0  0  0  0  0  0  0  0  0  0  0  0
    7.4524   -3.1366    0.0000 O   0  0  0  0  0  0  0  0  0  0  0  0
    6.0234   -3.1366    0.0000 O   0  0  0  0  0  0  0  0  0  0  0  0
    6.7379   -6.8491    0.0000 O   0  0  0  0  0  0  0  0  0  0  0  0
    5.3090   -6.8491    0.0000 O   0  0  0  0  0  0  0  0  0  0  0  0
    6.0234   -7.2616    0.0000 C   0  0  2  0  0  0  0  0  0  0  0  0
    6.0234   -8.0866    0.0000 C   0  0  1  0  0  0  0  0  0  0  0  0
    5.3090   -8.4991    0.0000 C   0  0  2  0  0  0  0  0  0  0  0  0
    4.5945   -8.0866    0.0000 C   0  0  1  0  0  0  0  0  0  0  0  0
    4.5945   -7.2616    0.0000 C   0  0  1  0  0  0  0  0  0  0  0  0
    3.8800   -6.8491    0.0000 C   0  0  0  0  0  0  0  0  0  0  0  0
    3.1656   -7.2616    0.0000 O   0  0  0  0  0  0  0  0  0  0  0  0
    3.8800   -8.4991    0.0000 O   0  0  0  0  0  0  0  0  0  0  0  0
    5.3090   -9.3241    0.0000 O   0  0  0  0  0  0  0  0  0  0  0  0
    6.7379   -8.4991    0.0000 O   0  0  0  0  0  0  0  0  0  0  0  0
    8.4919   -6.6512    0.0000 C   0  0  0  0  0  0  0  0  0  0  0  0
    9.2989   -6.8227    0.0000 O   0  0  0  0  0  0  0  0  0  0  0  0
    9.5538   -7.6073    0.0000 C   0  0  0  0  0  0  0  0  0  0  0  0
   10.3608   -7.7788    0.0000 C   0  0  0  0  0  0  0  0  0  0  0  0
   10.9129   -7.1657    0.0000 C   0  0  0  0  0  0  0  0  0  0  0  0
   11.7198   -7.3373    0.0000 C   0  0  0  0  0  0  0  0  0  0  0  0
   11.9748   -8.1219    0.0000 C   0  0  0  0  0  0  0  0  0  0  0  0
   11.4227   -8.7350    0.0000 C   0  0  0  0  0  0  0  0  0  0  0  0
   10.6158   -8.5635    0.0000 C   0  0  0  0  0  0  0  0  0  0  0  0
    9.0018   -8.2204    0.0000 O   0  0  0  0  0  0  0  0  0  0  0  0
    7.5386   -3.9661    0.0000 H   0  0  0  0  0  0  0  0  0  0  0  0
    7.5386   -6.4321    0.0000 H   0  0  0  0  0  0  0  0  0  0  0  0
  1  2  1  0  0  0  0
  2  3  1  0  0  0  0
  3  4  1  0  0  0  0
  4  5  2  0  0  0  0
  5  6  1  0  0  0  0
  1  6  1  0  0  0  0
  7  8  1  0  0  0  0
  8  9  2  0  0  0  0
  9  2  1  0  0  0  0
  7  3  1  0  0  0  0
 10 11  2  0  0  0  0
 10 12  1  0  0  0  0
  4 10  1  0  0  0  0
 14 15  1  0  0  0  0
 15 16  1  0  0  0  0
 16 17  1  0  0  0  0
 17 18  1  0  0  0  0
 18 19  1  0  0  0  0
 14 19  1  0  0  0  0
 20 21  1  0  0  0  0
 19 20  1  1  0  0  0
 18 22  1  6  0  0  0
 17 23  1  1  0  0  0
 16 24  1  6  0  0  0
 15 13  1  1  0  0  0
  1 13  1  6  0  0  0
 27 28  1  0  0  0  0
 28 29  1  0  0  0  0
 29 30  2  0  0  0  0
 30 31  1  0  0  0  0
 31 32  2  0  0  0  0
 32 33  1  0  0  0  0
 28 33  2  0  0  0  0
 27 34  2  0  0  0  0
 26 27  1  0  0  0  0
 25 26  1  0  0  0  0
  9 25  1  0  0  0  0
  3 35  1  6  0  0  0
  2 36  1  6  0  0  0
M  END
>  <cdx:groupId>
1305

>  <cdx:fragmentId>
1197

$$$$
