301471.cdx
  Mrv1902 05222410282D          

 61 67  0  0  0  0            999 V2000
    2.4237   -7.8756    0.0000 O   0  0  0  0  0  0  0  0  0  0  0  0
    1.7092   -7.4631    0.0000 C   0  0  1  0  0  0  0  0  0  0  0  0
    1.7092   -6.6381    0.0000 C   0  0  2  0  0  0  0  0  0  0  0  0
    2.4237   -6.2256    0.0000 C   0  0  1  0  0  0  0  0  0  0  0  0
    3.1382   -6.6381    0.0000 C   0  0  2  0  0  0  0  0  0  0  0  0
    3.1382   -7.4631    0.0000 C   0  0  2  0  0  0  0  0  0  0  0  0
    0.9948   -7.8756    0.0000 C   0  0  0  0  0  0  0  0  0  0  0  0
    0.9948   -8.7006    0.0000 O   0  0  0  0  0  0  0  0  0  0  0  0
    0.2803   -7.4631    0.0000 O   0  0  0  0  0  0  0  0  0  0  0  0
    3.8526   -6.2256    0.0000 O   0  0  0  0  0  0  0  0  0  0  0  0
    2.4237   -5.4006    0.0000 O   0  0  0  0  0  0  0  0  0  0  0  0
    0.9948   -6.2256    0.0000 O   0  0  0  0  0  0  0  0  0  0  0  0
    3.8526   -7.8756    0.0000 O   0  0  0  0  0  0  0  0  0  0  0  0
    5.2816   -6.2256    0.0000 C   0  0  0  0  0  0  0  0  0  0  0  0
    4.5671   -6.6381    0.0000 C   0  0  0  0  0  0  0  0  0  0  0  0
    4.5671   -7.4631    0.0000 C   0  0  1  0  0  0  0  0  0  0  0  0
    5.2816   -7.8756    0.0000 C   0  0  1  0  0  0  0  0  0  0  0  0
    5.9961   -7.4631    0.0000 C   0  0  2  0  0  0  0  0  0  0  0  0
    6.7105   -7.8756    0.0000 C   0  0  0  0  0  0  0  0  0  0  0  0
    7.4250   -7.4631    0.0000 C   0  0  0  0  0  0  0  0  0  0  0  0
    7.4250   -6.6381    0.0000 C   0  0  1  0  0  0  0  0  0  0  0  0
    8.1395   -6.2256    0.0000 C   0  0  2  0  0  0  0  0  0  0  0  0
    8.8539   -6.6381    0.0000 C   0  0  0  0  0  0  0  0  0  0  0  0
    9.5684   -6.2256    0.0000 C   0  0  0  0  0  0  0  0  0  0  0  0
    9.5684   -5.4006    0.0000 C   0  0  1  0  0  0  0  0  0  0  0  0
   10.2829   -4.9881    0.0000 C   0  0  0  0  0  0  0  0  0  0  0  0
   10.2829   -4.1631    0.0000 C   0  0  0  0  0  0  0  0  0  0  0  0
    9.5684   -3.7506    0.0000 C   0  0  0  0  0  0  0  0  0  0  0  0
    8.8539   -4.1631    0.0000 C   0  0  2  0  0  0  0  0  0  0  0  0
    8.8539   -4.9881    0.0000 C   0  0  1  0  0  0  0  0  0  0  0  0
    8.1395   -5.4006    0.0000 C   0  0  0  0  0  0  0  0  0  0  0  0
    7.4250   -4.9881    0.0000 C   0  0  0  0  0  0  0  0  0  0  0  0
    6.7105   -5.4006    0.0000 C   0  0  0  0  0  0  0  0  0  0  0  0
    6.7105   -6.2256    0.0000 C   0  0  2  0  0  0  0  0  0  0  0  0
    5.9961   -6.6381    0.0000 C   0  0  1  0  0  0  0  0  0  0  0  0
   10.2829   -5.8131    0.0000 C   0  0  0  0  0  0  0  0  0  0  0  0
   10.2829   -6.6381    0.0000 O   0  0  0  0  0  0  0  0  0  0  0  0
   10.9974   -5.4006    0.0000 O   0  0  0  0  0  0  0  0  0  0  0  0
   12.4263   -5.4006    0.0000 O   0  0  0  0  0  0  0  0  0  0  0  0
   11.7118   -5.8131    0.0000 C   0  0  2  0  0  0  0  0  0  0  0  0
   11.7118   -6.6381    0.0000 C   0  0  1  0  0  0  0  0  0  0  0  0
   12.4263   -7.0506    0.0000 C   0  0  2  0  0  0  0  0  0  0  0  0
   13.1408   -6.6381    0.0000 C   0  0  1  0  0  0  0  0  0  0  0  0
   13.1408   -5.8131    0.0000 C   0  0  1  0  0  0  0  0  0  0  0  0
   13.8552   -5.4006    0.0000 C   0  0  0  0  0  0  0  0  0  0  0  0
   14.5697   -5.8131    0.0000 O   0  0  0  0  0  0  0  0  0  0  0  0
   13.8552   -7.0506    0.0000 O   0  0  0  0  0  0  0  0  0  0  0  0
   12.4263   -7.8756    0.0000 O   0  0  0  0  0  0  0  0  0  0  0  0
   10.9974   -7.0506    0.0000 O   0  0  0  0  0  0  0  0  0  0  0  0
    5.9961   -5.8131    0.0000 C   0  0  0  0  0  0  0  0  0  0  0  0
    9.1559   -3.0361    0.0000 C   0  0  0  0  0  0  0  0  0  0  0  0
    9.9809   -3.0361    0.0000 C   0  0  0  0  0  0  0  0  0  0  0  0
    8.1395   -7.0506    0.0000 C   0  0  0  0  0  0  0  0  0  0  0  0
    7.4250   -5.8131    0.0000 C   0  0  0  0  0  0  0  0  0  0  0  0
    4.8691   -8.5900    0.0000 C   0  0  0  0  0  0  0  0  0  0  0  0
    5.6941   -8.5900    0.0000 C   0  0  0  0  0  0  0  0  0  0  0  0
    5.2816   -9.3045    0.0000 O   0  0  0  0  0  0  0  0  0  0  0  0
    8.1395   -3.7506    0.0000 O   0  0  0  0  0  0  0  0  0  0  0  0
    5.9961   -8.2881    0.0000 H   0  0  0  0  0  0  0  0  0  0  0  0
    8.8539   -5.8131    0.0000 H   0  0  0  0  0  0  0  0  0  0  0  0
    6.7105   -7.0506    0.0000 H   0  0  0  0  0  0  0  0  0  0  0  0
  1  2  1  0  0  0  0
  2  3  1  0  0  0  0
  3  4  1  0  0  0  0
  4  5  1  0  0  0  0
  5  6  1  0  0  0  0
  1  6  1  0  0  0  0
  7  8  2  0  0  0  0
  7  9  1  0  0  0  0
  2  7  1  6  0  0  0
  5 10  1  1  0  0  0
  4 11  1  6  0  0  0
  3 12  1  1  0  0  0
 14 15  1  0  0  0  0
 15 16  1  0  0  0  0
 16 17  1  0  0  0  0
 17 18  1  0  0  0  0
 18 19  1  0  0  0  0
 19 20  1  0  0  0  0
 20 21  1  0  0  0  0
 21 22  1  0  0  0  0
 22 23  1  0  0  0  0
 23 24  1  0  0  0  0
 24 25  1  0  0  0  0
 25 26  1  0  0  0  0
 26 27  1  0  0  0  0
 27 28  1  0  0  0  0
 28 29  1  0  0  0  0
 29 30  1  0  0  0  0
 25 30  1  0  0  0  0
 30 31  1  0  0  0  0
 22 31  1  0  0  0  0
 31 32  2  0  0  0  0
 32 33  1  0  0  0  0
 33 34  1  0  0  0  0
 21 34  1  0  0  0  0
 34 35  1  0  0  0  0
 18 35  1  0  0  0  0
 14 35  1  0  0  0  0
 36 37  2  0  0  0  0
 39 40  1  0  0  0  0
 40 41  1  0  0  0  0
 41 42  1  0  0  0  0
 42 43  1  0  0  0  0
 43 44  1  0  0  0  0
 39 44  1  0  0  0  0
 45 46  1  0  0  0  0
 44 45  1  6  0  0  0
 43 47  1  1  0  0  0
 42 48  1  6  0  0  0
 41 49  1  1  0  0  0
 40 38  1  6  0  0  0
 36 38  1  0  0  0  0
 25 36  1  1  0  0  0
 35 50  1  1  0  0  0
 28 51  1  0  0  0  0
 28 52  1  0  0  0  0
 22 53  1  6  0  0  0
 21 54  1  1  0  0  0
 17 55  1  1  0  0  0
 56 57  1  0  0  0  0
 17 56  1  6  0  0  0
 29 58  1  6  0  0  0
 16 13  1  1  0  0  0
  6 13  1  6  0  0  0
 18 59  1  6  0  0  0
 30 60  1  1  0  0  0
 34 61  1  6  0  0  0
M  END
>  <cdx:groupId>
926

>  <cdx:fragmentId>
766

$$$$
