301430.cdx
  Mrv1902 05222410222D          

 19 18  0  0  0  0            999 V2000
   12.6340   -6.4366    0.0000 C   0  0  0  0  0  0  0  0  0  0  0  0
   11.9196   -6.8491    0.0000 C   0  0  0  0  0  0  0  0  0  0  0  0
   11.2051   -6.4366    0.0000 C   0  0  0  0  0  0  0  0  0  0  0  0
   10.4906   -6.8491    0.0000 C   0  0  0  0  0  0  0  0  0  0  0  0
    9.7762   -6.4366    0.0000 C   0  0  0  0  0  0  0  0  0  0  0  0
    9.0617   -6.8491    0.0000 C   0  0  0  0  0  0  0  0  0  0  0  0
    8.3472   -6.4366    0.0000 C   0  0  0  0  0  0  0  0  0  0  0  0
    7.6327   -6.8491    0.0000 C   0  0  0  0  0  0  0  0  0  0  0  0
    6.9183   -6.4366    0.0000 C   0  0  0  0  0  0  0  0  0  0  0  0
    6.2038   -6.8491    0.0000 C   0  0  0  0  0  0  0  0  0  0  0  0
    5.4893   -6.4366    0.0000 C   0  0  0  0  0  0  0  0  0  0  0  0
    4.7749   -6.8491    0.0000 C   0  0  0  0  0  0  0  0  0  0  0  0
    4.0604   -6.4366    0.0000 C   0  0  0  0  0  0  0  0  0  0  0  0
    3.3459   -6.8491    0.0000 C   0  0  0  0  0  0  0  0  0  0  0  0
    2.6315   -6.4366    0.0000 C   0  0  0  0  0  0  0  0  0  0  0  0
    1.9170   -6.8491    0.0000 C   0  0  0  0  0  0  0  0  0  0  0  0
    1.2025   -6.4366    0.0000 C   0  0  0  0  0  0  0  0  0  0  0  0
   12.6340   -5.6116    0.0000 O   0  0  0  0  0  0  0  0  0  0  0  0
   13.3485   -6.8491    0.0000 O   0  0  0  0  0  0  0  0  0  0  0  0
  1  2  1  0  0  0  0
  2  3  2  0  0  0  0
  3  4  1  0  0  0  0
  4  5  2  0  0  0  0
  5  6  1  0  0  0  0
  6  7  1  0  0  0  0
  7  8  1  0  0  0  0
  8  9  1  0  0  0  0
  9 10  1  0  0  0  0
 10 11  1  0  0  0  0
 11 12  1  0  0  0  0
 12 13  1  0  0  0  0
 13 14  1  0  0  0  0
 14 15  1  0  0  0  0
 15 16  1  0  0  0  0
 16 17  1  0  0  0  0
  1 18  2  0  0  0  0
  1 19  1  0  0  0  0
M  END
>  <cdx:fragmentId>
457

$$$$
