301418.cdx
  Mrv1902 05222410222D          

 35 36  0  0  0  0            999 V2000
    6.1608   -7.7704    0.0000 O   0  0  0  0  0  0  0  0  0  0  0  0
    7.5897   -8.5954    0.0000 O   0  0  0  0  0  0  0  0  0  0  0  0
    9.0187   -7.7704    0.0000 O   0  0  0  0  0  0  0  0  0  0  0  0
   10.4476   -5.2954    0.0000 O   0  0  0  0  0  0  0  0  0  0  0  0
   11.1621   -7.3579    0.0000 O   0  0  0  0  0  0  0  0  0  0  0  0
   11.8766   -5.2954    0.0000 O   0  0  0  0  0  0  0  0  0  0  0  0
   12.5910   -7.3579    0.0000 O   0  0  0  0  0  0  0  0  0  0  0  0
   14.0200   -6.5329    0.0000 O   0  0  0  0  0  0  0  0  0  0  0  0
   13.3055   -6.1204    0.0000 C   0  0  0  0  0  0  0  0  0  0  0  0
   12.5910   -6.5329    0.0000 C   0  0  2  0  0  0  0  0  0  0  0  0
   11.8766   -6.1204    0.0000 C   0  0  2  0  0  0  0  0  0  0  0  0
   11.1621   -6.5329    0.0000 C   0  0  1  0  0  0  0  0  0  0  0  0
   10.4476   -6.1204    0.0000 C   0  0  1  0  0  0  0  0  0  0  0  0
    9.7331   -6.5329    0.0000 C   0  0  0  0  0  0  0  0  0  0  0  0
    9.0187   -6.1204    0.0000 O   0  0  0  0  0  0  0  0  0  0  0  0
    8.3042   -6.5329    0.0000 C   0  0  1  0  0  0  0  0  0  0  0  0
    8.3042   -7.3579    0.0000 C   0  0  1  0  0  0  0  0  0  0  0  0
    7.5897   -7.7704    0.0000 C   0  0  2  0  0  0  0  0  0  0  0  0
    6.8753   -7.3579    0.0000 C   0  0  1  0  0  0  0  0  0  0  0  0
    6.8753   -6.5329    0.0000 C   0  0  2  0  0  0  0  0  0  0  0  0
    7.5897   -6.1204    0.0000 O   0  0  0  0  0  0  0  0  0  0  0  0
    6.1608   -6.1204    0.0000 C   0  0  0  0  0  0  0  0  0  0  0  0
    0.4450   -6.1204    0.0000 O   0  0  0  0  0  0  0  0  0  0  0  0
    0.4450   -7.7704    0.0000 O   0  0  0  0  0  0  0  0  0  0  0  0
    2.5884   -7.3579    0.0000 C   0  0  0  0  0  0  0  0  0  0  0  0
    1.8740   -7.7704    0.0000 C   0  0  0  0  0  0  0  0  0  0  0  0
    1.1595   -7.3579    0.0000 C   0  0  0  0  0  0  0  0  0  0  0  0
    1.1595   -6.5329    0.0000 C   0  0  0  0  0  0  0  0  0  0  0  0
    1.8740   -6.1204    0.0000 C   0  0  0  0  0  0  0  0  0  0  0  0
    2.5884   -6.5329    0.0000 C   0  0  0  0  0  0  0  0  0  0  0  0
    5.4463   -6.5329    0.0000 O   0  0  0  0  0  0  0  0  0  0  0  0
    4.7319   -5.2954    0.0000 O   0  0  0  0  0  0  0  0  0  0  0  0
    3.3029   -6.1204    0.0000 C   0  0  0  0  0  0  0  0  0  0  0  0
    4.0174   -6.5329    0.0000 C   0  0  0  0  0  0  0  0  0  0  0  0
    4.7319   -6.1204    0.0000 C   0  0  0  0  0  0  0  0  0  0  0  0
 31 22  1  0  0  0  0
 20 22  1  1  0  0  0
 19  1  1  6  0  0  0
 18  2  1  1  0  0  0
 17  3  1  6  0  0  0
 16 15  1  1  0  0  0
 13  4  1  1  0  0  0
 12  5  1  6  0  0  0
 11  6  1  6  0  0  0
 10  7  1  1  0  0  0
  9  8  1  0  0  0  0
 15 14  1  0  0  0  0
 10  9  1  0  0  0  0
 11 10  1  0  0  0  0
 12 11  1  0  0  0  0
 13 12  1  0  0  0  0
 14 13  1  0  0  0  0
 21 16  1  0  0  0  0
 17 16  1  0  0  0  0
 18 17  1  0  0  0  0
 19 18  1  0  0  0  0
 20 19  1  0  0  0  0
 21 20  1  0  0  0  0
 33 30  1  0  0  0  0
 28 23  1  0  0  0  0
 27 24  1  0  0  0  0
 30 25  2  0  0  0  0
 26 25  1  0  0  0  0
 27 26  2  0  0  0  0
 28 27  1  0  0  0  0
 29 28  2  0  0  0  0
 30 29  1  0  0  0  0
 35 31  1  0  0  0  0
 35 32  2  0  0  0  0
 34 33  2  0  0  0  0
 35 34  1  0  0  0  0
M  END
>  <cdx:fragmentId>
776

$$$$
