301426.cdx
  Mrv1902 05222410222D          

 44 51  0  0  0  0            999 V2000
    5.9951   -5.2131    0.0000 C   0  0  0  0  0  0  0  0  0  0  0  0
    5.6871   -5.9784    0.0000 C   0  0  1  0  0  0  0  0  0  0  0  0
    6.0106   -6.7374    0.0000 C   0  0  1  0  0  0  0  0  0  0  0  0
    6.7759   -7.0454    0.0000 C   0  0  2  0  0  0  0  0  0  0  0  0
    7.5349   -6.7219    0.0000 C   0  0  0  0  0  0  0  0  0  0  0  0
    7.8429   -5.9566    0.0000 C   0  0  0  0  0  0  0  0  0  0  0  0
    7.5194   -5.1976    0.0000 C   0  0  2  0  0  0  0  0  0  0  0  0
    6.7541   -4.8896    0.0000 C   0  0  0  0  0  0  0  0  0  0  0  0
    4.8654   -6.0515    0.0000 C   0  0  0  0  0  0  0  0  0  0  0  0
    4.6809   -6.8556    0.0000 C   0  0  1  0  0  0  0  0  0  0  0  0
    5.3887   -7.2795    0.0000 C   0  0  2  0  0  0  0  0  0  0  0  0
    5.4772   -8.0630    0.0000 C   0  0  2  0  0  0  0  0  0  0  0  0
    6.2425   -8.3710    0.0000 C   0  0  2  0  0  0  0  0  0  0  0  0
    6.8919   -7.8622    0.0000 O   0  0  0  0  0  0  0  0  0  0  0  0
    4.9478   -8.6958    0.0000 O   0  0  0  0  0  0  0  0  0  0  0  0
    5.3859   -9.3948    0.0000 C   0  0  0  0  0  0  0  0  0  0  0  0
    6.1861   -9.1941    0.0000 C   0  0  1  0  0  0  0  0  0  0  0  0
    8.6379   -6.1769    0.0000 C   0  0  0  0  0  0  0  0  0  0  0  0
    9.3059   -5.6927    0.0000 C   0  0  0  0  0  0  0  0  0  0  0  0
    9.3438   -4.8686    0.0000 C   0  0  2  0  0  0  0  0  0  0  0  0
    8.7230   -4.3251    0.0000 C   0  0  2  0  0  0  0  0  0  0  0  0
    7.9111   -4.4715    0.0000 C   0  0  0  0  0  0  0  0  0  0  0  0
   10.0524   -4.4462    0.0000 C   0  0  0  0  0  0  0  0  0  0  0  0
    9.8697   -3.6417    0.0000 O   0  0  0  0  0  0  0  0  0  0  0  0
    9.0481   -3.5668    0.0000 C   0  0  0  0  0  0  0  0  0  0  0  0
    8.4274   -3.0234    0.0000 C   0  0  0  0  0  0  0  0  0  0  0  0
    7.7187   -3.4457    0.0000 C   0  0  0  0  0  0  0  0  0  0  0  0
    7.9015   -4.2503    0.0000 O   0  0  0  0  0  0  0  0  0  0  0  0
    4.3233   -5.4296    0.0000 O   0  0  0  0  0  0  0  0  0  0  0  0
    3.8559   -6.8556    0.0000 O   0  0  0  0  0  0  0  0  0  0  0  0
    4.0976   -7.4390    0.0000 C   0  0  0  0  0  0  0  0  0  0  0  0
    5.3002   -6.4960    0.0000 H   0  0  0  0  0  0  0  0  0  0  0  0
    4.7627   -7.6505    0.0000 H   0  0  0  0  0  0  0  0  0  0  0  0
    7.0394   -8.5845    0.0000 H   0  0  0  0  0  0  0  0  0  0  0  0
    5.0780  -10.1602    0.0000 O   0  0  0  0  0  0  0  0  0  0  0  0
    6.8189   -9.7235    0.0000 C   0  0  0  0  0  0  0  0  0  0  0  0
    6.4231   -7.4519    0.0000 H   0  0  0  0  0  0  0  0  0  0  0  0
    5.2746   -5.2640    0.0000 C   0  0  0  0  0  0  0  0  0  0  0  0
    8.1241   -7.2993    0.0000 O   0  0  0  0  0  0  0  0  0  0  0  0
    6.7375   -6.0225    0.0000 O   0  0  0  0  0  0  0  0  0  0  0  0
    6.9605   -3.1207    0.0000 O   0  0  0  0  0  0  0  0  0  0  0  0
   10.7669   -4.8587    0.0000 C   0  0  0  0  0  0  0  0  0  0  0  0
   10.8493   -4.2327    0.0000 C   0  0  0  0  0  0  0  0  0  0  0  0
   10.0582   -5.2811    0.0000 H   0  0  0  0  0  0  0  0  0  0  0  0
  1  2  1  0  0  0  0
  2  3  1  0  0  0  0
  3  4  1  0  0  0  0
  4  5  1  0  0  0  0
  5  6  1  0  0  0  0
  6  7  1  0  0  0  0
  7  8  1  0  0  0  0
  8  1  1  0  0  0  0
  2  9  1  0  0  0  0
  9 10  1  0  0  0  0
 10 11  1  0  0  0  0
 11  3  1  0  0  0  0
 11 12  1  0  0  0  0
 12 13  1  0  0  0  0
 13 14  1  0  0  0  0
  4 14  1  1  0  0  0
 12 15  1  0  0  0  0
 15 16  1  0  0  0  0
 16 17  1  0  0  0  0
 17 13  1  0  0  0  0
  6 18  2  0  0  0  0
 18 19  1  0  0  0  0
 19 20  1  0  0  0  0
 20 21  1  0  0  0  0
 21 22  1  0  0  0  0
  7 22  1  1  0  0  0
 20 23  1  0  0  0  0
 23 24  1  0  0  0  0
 24 25  1  0  0  0  0
 25 21  1  0  0  0  0
 25 26  1  0  0  0  0
 26 27  1  0  0  0  0
 27 28  1  0  0  0  0
 21 28  1  1  0  0  0
  9 29  2  0  0  0  0
 10 30  1  1  0  0  0
 10 31  1  0  0  0  0
 11 32  1  6  0  0  0
 12 33  1  1  0  0  0
 13 34  1  1  0  0  0
 16 35  2  0  0  0  0
 17 36  1  6  0  0  0
  3 37  1  6  0  0  0
  2 38  1  6  0  0  0
  5 39  2  0  0  0  0
  4 40  1  0  0  0  0
 40  7  1  0  0  0  0
 27 41  2  0  0  0  0
 23 42  1  0  0  0  0
 23 43  1  0  0  0  0
 20 44  1  1  0  0  0
M  END
>  <cdx:fragmentId>
249

$$$$
